QCY.pdb
     RDKit          3D

 28 28  0  0  1  0  0  0  0  0999 V2000
   13.7315  -15.4933   15.4713 N   0  0  0  0  0  0  0  0  0  0  0  0
   13.6742  -16.9070   15.5304 C   0  0  0  0  0  0  0  0  0  0  0  0
   13.3875  -17.6750   14.5874 O   0  0  0  0  0  0  0  0  0  0  0  0
   14.0025  -17.4934   16.8990 C   0  0  0  0  0  0  0  0  0  0  0  0
   13.3371  -16.7080   17.9711 C   0  0  0  0  0  0  0  0  0  0  0  0
   12.6482  -17.5091   19.0201 C   0  0  2  0  0  0  0  0  0  0  0  0
   11.9626  -18.6418   18.3787 N   0  0  0  0  0  0  0  0  0  0  0  0
   11.6929  -16.7331   19.8146 C   0  0  0  0  0  0  0  0  0  0  0  0
   12.0546  -15.6929   20.4682 O   0  0  0  0  0  0  0  0  0  0  0  0
   10.3043  -17.0511   19.9311 N   0  0  0  0  0  0  0  0  0  0  0  0
    9.4414  -16.3787   20.8717 C   0  0  1  0  0  0  0  0  0  0  0  0
    7.9995  -16.4139   20.5916 C   0  0  0  0  0  0  0  0  0  0  0  0
    6.8757  -15.8379   21.8574 S   0  0  0  0  0  0  0  0  0  0  0  0
    9.8543  -16.5824   22.2746 C   0  0  0  0  0  0  0  0  0  0  0  0
   10.3084  -17.6899   22.7009 O   0  0  0  0  0  0  0  0  0  0  0  0
   10.3940  -15.1665   30.9361 O   0  0  0  0  0  0  0  0  0  0  0  0
   10.0913  -15.0843   29.5843 C   0  0  0  0  0  0  0  0  0  0  0  0
   11.0506  -14.4693   28.7878 C   0  0  0  0  0  0  0  0  0  0  0  0
   10.8904  -14.3155   27.4263 C   0  0  0  0  0  0  0  0  0  0  0  0
    9.7402  -14.7876   26.8429 C   0  0  0  0  0  0  0  0  0  0  0  0
    9.5284  -14.6464   25.4051 C   0  0  0  0  0  0  0  0  0  0  0  0
   10.0276  -15.8683   24.6784 C   0  0  2  0  0  0  0  0  0  0  0  0
    9.7818  -15.5659   23.2568 N   0  0  0  0  0  0  0  0  0  0  0  0
    9.2821  -17.0490   25.1213 C   0  0  0  0  0  0  0  0  0  0  0  0
    9.7365  -18.0137   25.9770 O   0  0  0  0  0  0  0  0  0  0  0  0
    8.7977  -15.3924   27.6340 C   0  0  0  0  0  0  0  0  0  0  0  0
    8.9494  -15.5519   29.0056 C   0  0  0  0  0  0  0  0  0  0  0  0
    8.1002  -17.1858   24.6610 O   0  0  0  0  0  0  0  0  0  0  0  0
  2  1  1  0
  3  2  2  0
  4  2  1  0
  5  6  1  0
  5  4  1  0
  6  7  1  6
  8  6  1  0
  9  8  2  0
 10  8  1  0
 11 14  1  0
 11 10  1  0
 11 12  1  1
 13 12  1  0
 14 23  1  0
 15 14  2  0
 16 17  1  0
 17 18  2  0
 17 27  1  0
 18 19  1  0
 19 20  2  0
 20 21  1  0
 22 21  1  1
 22 24  1  0
 23 22  1  0
 24 28  2  0
 24 25  1  0
 26 20  1  0
 27 26  2  0
M  END
$$$$
