QCY.pdb
     RDKit          3D

 28 28  0  0  1  0  0  0  0  0999 V2000
   13.8968  -19.8011   20.4745 N   0  0  0  0  0  0  0  0  0  0  0  0
   13.4260  -19.4364   19.1898 C   0  0  0  0  0  0  0  0  0  0  0  0
   14.0001  -19.6572   18.1022 O   0  0  0  0  0  0  0  0  0  0  0  0
   12.0867  -18.7076   19.1938 C   0  0  0  0  0  0  0  0  0  0  0  0
   10.9946  -19.6305   18.7881 C   0  0  0  0  0  0  0  0  0  0  0  0
    9.7591  -18.9766   18.2757 C   0  0  2  0  0  0  0  0  0  0  0  0
   10.0775  -18.2769   17.0213 N   0  0  0  0  0  0  0  0  0  0  0  0
    9.1545  -18.0422   19.2283 C   0  0  0  0  0  0  0  0  0  0  0  0
    9.6141  -16.8575   19.3878 O   0  0  0  0  0  0  0  0  0  0  0  0
    8.0239  -18.3526   20.0459 N   0  0  0  0  0  0  0  0  0  0  0  0
    7.4343  -17.3829   20.9367 C   0  0  1  0  0  0  0  0  0  0  0  0
    5.9739  -17.2325   20.8806 C   0  0  0  0  0  0  0  0  0  0  0  0
    5.0950  -16.9157   22.4052 S   0  0  0  0  0  0  0  0  0  0  0  0
    8.0545  -17.3845   22.2766 C   0  0  0  0  0  0  0  0  0  0  0  0
    8.4193  -18.4522   22.8611 O   0  0  0  0  0  0  0  0  0  0  0  0
   10.3409  -14.4861   30.2489 O   0  0  0  0  0  0  0  0  0  0  0  0
    9.8817  -14.5040   28.9395 C   0  0  0  0  0  0  0  0  0  0  0  0
   10.5901  -15.3179   28.0629 C   0  0  0  0  0  0  0  0  0  0  0  0
   10.2512  -15.4385   26.7312 C   0  0  0  0  0  0  0  0  0  0  0  0
    9.1757  -14.7260   26.2602 C   0  0  0  0  0  0  0  0  0  0  0  0
    8.7811  -14.8231   24.8577 C   0  0  0  0  0  0  0  0  0  0  0  0
    8.6816  -16.2672   24.4391 C   0  0  2  0  0  0  0  0  0  0  0  0
    8.2957  -16.2033   23.0179 N   0  0  0  0  0  0  0  0  0  0  0  0
    7.6695  -16.9504   25.2485 C   0  0  0  0  0  0  0  0  0  0  0  0
    6.3173  -16.7630   25.1727 O   0  0  0  0  0  0  0  0  0  0  0  0
    8.4817  -13.9244   27.1295 C   0  0  0  0  0  0  0  0  0  0  0  0
    8.8150  -13.7961   28.4720 C   0  0  0  0  0  0  0  0  0  0  0  0
    8.0952  -17.7961   26.1034 O   0  0  0  0  0  0  0  0  0  0  0  0
  2  1  1  0
  3  2  2  0
  4  2  1  0
  5  6  1  0
  5  4  1  0
  6  7  1  6
  8  6  1  0
  9  8  2  0
 10  8  1  0
 11 14  1  0
 11 10  1  0
 11 12  1  1
 13 12  1  0
 14 23  1  0
 15 14  2  0
 16 17  1  0
 17 18  2  0
 17 27  1  0
 18 19  1  0
 19 20  2  0
 20 21  1  0
 22 21  1  1
 22 24  1  0
 23 22  1  0
 24 28  2  0
 24 25  1  0
 26 20  1  0
 27 26  2  0
M  END
$$$$
