QCY.pdb
     RDKit          3D

 28 28  0  0  1  0  0  0  0  0999 V2000
    8.1505  -12.6062   17.3250 N   0  0  0  0  0  0  0  0  0  0  0  0
    7.6504  -13.5294   16.3748 C   0  0  0  0  0  0  0  0  0  0  0  0
    6.7853  -13.2976   15.5037 O   0  0  0  0  0  0  0  0  0  0  0  0
    8.2610  -14.9233   16.4700 C   0  0  0  0  0  0  0  0  0  0  0  0
    9.2480  -14.9807   17.5799 C   0  0  0  0  0  0  0  0  0  0  0  0
    9.9139  -16.2973   17.7790 C   0  0  2  0  0  0  0  0  0  0  0  0
    9.6609  -17.1404   16.6001 N   0  0  0  0  0  0  0  0  0  0  0  0
    9.4801  -16.9938   18.9926 C   0  0  0  0  0  0  0  0  0  0  0  0
    8.9974  -18.1793   18.9481 O   0  0  0  0  0  0  0  0  0  0  0  0
    9.5544  -16.4348   20.3060 N   0  0  0  0  0  0  0  0  0  0  0  0
    9.7248  -17.2571   21.4792 C   0  0  1  0  0  0  0  0  0  0  0  0
   10.6966  -18.3549   21.3843 C   0  0  0  0  0  0  0  0  0  0  0  0
   10.7964  -19.5182   22.7385 S   0  0  0  0  0  0  0  0  0  0  0  0
    9.7204  -16.4755   22.7319 C   0  0  0  0  0  0  0  0  0  0  0  0
   10.5810  -15.5741   22.9797 O   0  0  0  0  0  0  0  0  0  0  0  0
    6.1724  -10.1579   26.2593 O   0  0  0  0  0  0  0  0  0  0  0  0
    6.4609  -11.5053   26.0942 C   0  0  0  0  0  0  0  0  0  0  0  0
    6.3253  -11.9971   24.8009 C   0  0  0  0  0  0  0  0  0  0  0  0
    6.5779  -13.3154   24.4829 C   0  0  0  0  0  0  0  0  0  0  0  0
    6.9761  -14.1676   25.4836 C   0  0  0  0  0  0  0  0  0  0  0  0
    7.2543  -15.5712   25.1926 C   0  0  0  0  0  0  0  0  0  0  0  0
    8.7244  -15.7715   24.9297 C   0  0  2  0  0  0  0  0  0  0  0  0
    8.7611  -16.6620   23.7556 N   0  0  0  0  0  0  0  0  0  0  0  0
    9.3591  -16.3847   26.0989 C   0  0  0  0  0  0  0  0  0  0  0  0
    9.9918  -15.7201   27.1125 O   0  0  0  0  0  0  0  0  0  0  0  0
    7.1071  -13.6767   26.7571 C   0  0  0  0  0  0  0  0  0  0  0  0
    6.8550  -12.3511   27.0875 C   0  0  0  0  0  0  0  0  0  0  0  0
    9.3166  -17.6576   26.1719 O   0  0  0  0  0  0  0  0  0  0  0  0
  2  1  1  0
  3  2  2  0
  4  2  1  0
  5  6  1  0
  5  4  1  0
  6  7  1  6
  8  6  1  0
  9  8  2  0
 10  8  1  0
 11 14  1  0
 11 10  1  0
 11 12  1  6
 13 12  1  0
 14 23  1  0
 15 14  2  0
 16 17  1  0
 17 18  2  0
 17 27  1  0
 18 19  1  0
 19 20  2  0
 20 21  1  0
 22 21  1  1
 22 24  1  0
 23 22  1  0
 24 28  2  0
 24 25  1  0
 26 20  1  0
 27 26  2  0
M  END
$$$$
