QCY.pdb
     RDKit          3D

 28 28  0  0  1  0  0  0  0  0999 V2000
   14.7630  -14.4626   16.7360 N   0  0  0  0  0  0  0  0  0  0  0  0
   14.0950  -14.9603   15.5909 C   0  0  0  0  0  0  0  0  0  0  0  0
   14.5961  -15.1318   14.4593 O   0  0  0  0  0  0  0  0  0  0  0  0
   12.6268  -15.3031   15.8183 C   0  0  0  0  0  0  0  0  0  0  0  0
   12.4959  -16.3448   16.8704 C   0  0  0  0  0  0  0  0  0  0  0  0
   11.1155  -16.8515   17.1037 C   0  0  2  0  0  0  0  0  0  0  0  0
   10.1666  -15.9982   16.3717 N   0  0  0  0  0  0  0  0  0  0  0  0
   10.7455  -16.9078   18.5200 C   0  0  0  0  0  0  0  0  0  0  0  0
   10.7068  -15.8525   19.2445 O   0  0  0  0  0  0  0  0  0  0  0  0
   10.3988  -18.1110   19.2093 N   0  0  0  0  0  0  0  0  0  0  0  0
   10.1156  -18.1283   20.6239 C   0  0  1  0  0  0  0  0  0  0  0  0
    9.1037  -19.0880   21.0861 C   0  0  0  0  0  0  0  0  0  0  0  0
    8.7429  -19.1627   22.8357 S   0  0  0  0  0  0  0  0  0  0  0  0
   11.3292  -17.9863   21.4527 C   0  0  0  0  0  0  0  0  0  0  0  0
   12.4307  -18.5459   21.1557 O   0  0  0  0  0  0  0  0  0  0  0  0
   15.2151  -13.8567   18.8644 O   0  0  0  0  0  0  0  0  0  0  0  0
   14.7413  -14.3492   20.0722 C   0  0  0  0  0  0  0  0  0  0  0  0
   13.3650  -14.2764   20.2550 C   0  0  0  0  0  0  0  0  0  0  0  0
   12.7488  -14.7272   21.4039 C   0  0  0  0  0  0  0  0  0  0  0  0
   13.5276  -15.2649   22.3992 C   0  0  0  0  0  0  0  0  0  0  0  0
   12.9179  -15.7546   23.6323 C   0  0  0  0  0  0  0  0  0  0  0  0
   12.5654  -17.2136   23.5004 C   0  0  2  0  0  0  0  0  0  0  0  0
   11.3684  -17.2173   22.6403 N   0  0  0  0  0  0  0  0  0  0  0  0
   12.2881  -17.7793   24.8229 C   0  0  0  0  0  0  0  0  0  0  0  0
   13.2156  -18.0714   25.7840 O   0  0  0  0  0  0  0  0  0  0  0  0
   14.8843  -15.3330   22.2131 C   0  0  0  0  0  0  0  0  0  0  0  0
   15.5144  -14.8817   21.0602 C   0  0  0  0  0  0  0  0  0  0  0  0
   11.0661  -18.0219   25.0972 O   0  0  0  0  0  0  0  0  0  0  0  0
  2  1  1  0
  3  2  2  0
  4  2  1  0
  5  6  1  0
  5  4  1  0
  6  7  1  6
  8  6  1  0
  9  8  2  0
 10  8  1  0
 11 14  1  0
 11 10  1  0
 11 12  1  1
 13 12  1  0
 14 23  1  0
 15 14  2  0
 16 17  1  0
 17 18  2  0
 17 27  1  0
 18 19  1  0
 19 20  2  0
 20 21  1  0
 22 21  1  1
 22 24  1  0
 23 22  1  0
 24 28  2  0
 24 25  1  0
 26 20  1  0
 27 26  2  0
M  END
$$$$
