HEQ.pdb
     RDKit          3D

 29 29  0  0  1  0  0  0  0  0999 V2000
   27.0397  -22.2285  -13.8329 N   0  0  0  0  0  0  0  0  0  0  0  0
   26.2380  -21.3628  -12.9564 C   0  0  1  0  0  0  0  0  0  0  0  0
   27.0150  -20.1045  -12.6460 C   0  0  0  0  0  0  0  0  0  0  0  0
   28.1632  -20.3299  -11.7760 C   0  0  0  0  0  0  0  0  0  0  0  0
   28.5428  -21.5433  -11.2481 C   0  0  0  0  0  0  0  0  0  0  0  0
   29.6337  -21.3515  -10.5072 N   0  0  0  0  0  0  0  0  0  0  0  0
   29.9695  -20.0579  -10.5396 C   0  0  0  0  0  0  0  0  0  0  0  0
   29.0479  -19.4372  -11.3307 N   0  0  0  0  0  0  0  0  0  0  0  0
   25.0391  -20.9427  -13.7404 C   0  0  0  0  0  0  0  0  0  0  0  0
   25.0999  -20.7890  -14.9945 O   0  0  0  0  0  0  0  0  0  0  0  0
   23.7725  -20.6923  -13.1384 N   0  0  0  0  0  0  0  0  0  0  0  0
   22.6123  -20.4309  -13.9430 C   0  0  1  0  0  0  0  0  0  0  0  0
   21.3304  -20.6206  -13.1462 C   0  0  0  0  0  0  0  0  0  0  0  0
   21.3034  -19.6082  -12.0216 C   0  0  0  0  0  0  0  0  0  0  0  0
   20.1125  -19.8171  -11.1655 C   0  0  0  0  0  0  0  0  0  0  0  0
   19.6017  -18.8485  -10.5867 O   0  0  0  0  0  0  0  0  0  0  0  0
   22.6493  -19.0858  -14.5731 C   0  0  0  0  0  0  0  0  0  0  0  0
   22.9865  -18.1001  -13.8680 O   0  0  0  0  0  0  0  0  0  0  0  0
   19.6021  -21.0868  -11.0344 O   0  0  0  0  0  0  0  0  0  0  0  0
   24.3405  -17.7871  -20.2859 N   0  0  0  0  0  0  0  0  0  0  0  0
   24.6785  -16.6371  -19.4943 C   0  0  0  0  0  0  0  0  0  0  0  0
   25.5055  -15.7828  -19.9402 O   0  0  0  0  0  0  0  0  0  0  0  0
   24.0312  -16.4975  -18.1798 C   0  0  0  0  0  0  0  0  0  0  0  0
   23.1489  -17.6400  -17.8306 C   0  0  0  0  0  0  0  0  0  0  0  0
   22.4550  -17.4886  -16.5229 C   0  0  2  0  0  0  0  0  0  0  0  0
   22.3245  -18.8554  -15.9272 N   0  0  0  0  0  0  0  0  0  0  0  0
   21.1078  -16.9553  -16.5285 C   0  0  0  0  0  0  0  0  0  0  0  0
   20.1106  -17.7118  -16.4568 O   0  0  0  0  0  0  0  0  0  0  0  0
   20.8462  -15.6003  -16.6011 O   0  0  0  0  0  0  0  0  0  0  0  0
  2  1  1  6
  3  4  1  0
  3  2  1  0
  4  8  1  0
  5  6  1  0
  5  4  2  0
  6  7  1  0
  7  8  2  0
  9  2  1  0
  9 11  1  0
 10  9  2  0
 11 12  1  0
 12 17  1  0
 13 14  1  0
 12 13  1  1
 15 16  2  0
 15 14  1  0
 17 18  2  0
 17 26  1  0
 19 15  1  0
 20 21  1  0
 21 23  1  0
 21 22  2  0
 23 24  1  0
 25 24  1  6
 25 27  1  0
 26 25  1  0
 27 28  2  0
 27 29  1  0
M  END
$$$$
