HEQ.pdb
     RDKit          3D

 29 29  0  0  1  0  0  0  0  0999 V2000
   26.4507  -18.8084  -16.0771 N   0  0  0  0  0  0  0  0  0  0  0  0
   25.4052  -18.7896  -17.1101 C   0  0  1  0  0  0  0  0  0  0  0  0
   25.9414  -19.4105  -18.3791 C   0  0  0  0  0  0  0  0  0  0  0  0
   27.1498  -18.7640  -18.8771 C   0  0  0  0  0  0  0  0  0  0  0  0
   27.1960  -17.5718  -19.5640 C   0  0  0  0  0  0  0  0  0  0  0  0
   28.4700  -17.3064  -19.8511 N   0  0  0  0  0  0  0  0  0  0  0  0
   29.2451  -18.2854  -19.3734 C   0  0  0  0  0  0  0  0  0  0  0  0
   28.4116  -19.1821  -18.7720 N   0  0  0  0  0  0  0  0  0  0  0  0
   24.3056  -19.6781  -16.6308 C   0  0  0  0  0  0  0  0  0  0  0  0
   23.2918  -19.9092  -17.3511 O   0  0  0  0  0  0  0  0  0  0  0  0
   24.3261  -20.3116  -15.3550 N   0  0  0  0  0  0  0  0  0  0  0  0
   23.2505  -21.1671  -14.9389 C   0  0  1  0  0  0  0  0  0  0  0  0
   23.7578  -22.3229  -14.0898 C   0  0  0  0  0  0  0  0  0  0  0  0
   24.5546  -23.2599  -14.9716 C   0  0  0  0  0  0  0  0  0  0  0  0
   24.9575  -24.4670  -14.2131 C   0  0  0  0  0  0  0  0  0  0  0  0
   24.6398  -24.5704  -13.0204 O   0  0  0  0  0  0  0  0  0  0  0  0
   22.1747  -20.4243  -14.2329 C   0  0  0  0  0  0  0  0  0  0  0  0
   22.4942  -19.6482  -13.2959 O   0  0  0  0  0  0  0  0  0  0  0  0
   25.6773  -25.4465  -14.8552 O   0  0  0  0  0  0  0  0  0  0  0  0
   16.8457  -18.7153  -16.6177 N   0  0  0  0  0  0  0  0  0  0  0  0
   16.6603  -18.1815  -15.2971 C   0  0  0  0  0  0  0  0  0  0  0  0
   15.5728  -17.5986  -14.9971 O   0  0  0  0  0  0  0  0  0  0  0  0
   17.7600  -18.3454  -14.3326 C   0  0  0  0  0  0  0  0  0  0  0  0
   18.9243  -19.0849  -14.8832 C   0  0  0  0  0  0  0  0  0  0  0  0
   19.7752  -19.7289  -13.8460 C   0  0  2  0  0  0  0  0  0  0  0  0
   20.8069  -20.5448  -14.5602 N   0  0  0  0  0  0  0  0  0  0  0  0
   19.1411  -20.6527  -12.9274 C   0  0  0  0  0  0  0  0  0  0  0  0
   19.1118  -21.8838  -13.1629 O   0  0  0  0  0  0  0  0  0  0  0  0
   18.5495  -20.2391  -11.7490 O   0  0  0  0  0  0  0  0  0  0  0  0
  2  1  1  1
  3  4  1  0
  3  2  1  0
  4  8  1  0
  5  6  1  0
  5  4  2  0
  6  7  1  0
  7  8  2  0
  9  2  1  0
  9 11  1  0
 10  9  2  0
 11 12  1  0
 12 17  1  0
 13 14  1  0
 12 13  1  1
 15 16  2  0
 15 14  1  0
 17 18  2  0
 17 26  1  0
 19 15  1  0
 20 21  1  0
 21 23  1  0
 21 22  2  0
 23 24  1  0
 25 24  1  6
 25 27  1  0
 26 25  1  0
 27 28  2  0
 27 29  1  0
M  END
$$$$
