HEQ.pdb
     RDKit          3D

 29 29  0  0  1  0  0  0  0  0999 V2000
   27.2713  -19.4004  -16.4631 N   0  0  0  0  0  0  0  0  0  0  0  0
   26.3153  -18.6942  -15.5983 C   0  0  1  0  0  0  0  0  0  0  0  0
   25.5726  -17.6589  -16.4107 C   0  0  0  0  0  0  0  0  0  0  0  0
   26.4284  -16.5905  -16.9129 C   0  0  0  0  0  0  0  0  0  0  0  0
   26.9357  -16.5032  -18.1898 C   0  0  0  0  0  0  0  0  0  0  0  0
   27.6688  -15.3933  -18.2710 N   0  0  0  0  0  0  0  0  0  0  0  0
   27.6513  -14.7634  -17.0919 C   0  0  0  0  0  0  0  0  0  0  0  0
   26.8777  -15.5183  -16.2599 N   0  0  0  0  0  0  0  0  0  0  0  0
   25.3031  -19.6995  -15.1588 C   0  0  0  0  0  0  0  0  0  0  0  0
   25.3980  -20.9139  -15.5000 O   0  0  0  0  0  0  0  0  0  0  0  0
   24.1857  -19.3630  -14.3417 N   0  0  0  0  0  0  0  0  0  0  0  0
   23.4220  -20.3832  -13.6801 C   0  0  1  0  0  0  0  0  0  0  0  0
   23.9349  -20.6334  -12.2700 C   0  0  0  0  0  0  0  0  0  0  0  0
   25.1684  -21.5067  -12.3498 C   0  0  0  0  0  0  0  0  0  0  0  0
   26.0769  -21.2243  -11.2142 C   0  0  0  0  0  0  0  0  0  0  0  0
   25.6982  -20.4745  -10.3039 O   0  0  0  0  0  0  0  0  0  0  0  0
   21.9664  -20.0854  -13.6685 C   0  0  0  0  0  0  0  0  0  0  0  0
   21.5909  -18.9311  -13.3384 O   0  0  0  0  0  0  0  0  0  0  0  0
   27.3231  -21.8043  -11.1992 O   0  0  0  0  0  0  0  0  0  0  0  0
   17.4657  -23.2797  -16.5812 N   0  0  0  0  0  0  0  0  0  0  0  0
   16.6626  -22.3263  -15.8675 C   0  0  0  0  0  0  0  0  0  0  0  0
   15.4018  -22.3222  -16.0180 O   0  0  0  0  0  0  0  0  0  0  0  0
   17.3535  -21.3847  -14.9716 C   0  0  0  0  0  0  0  0  0  0  0  0
   18.8244  -21.5845  -14.9241 C   0  0  0  0  0  0  0  0  0  0  0  0
   19.5273  -20.6704  -13.9835 C   0  0  2  0  0  0  0  0  0  0  0  0
   20.9788  -21.0343  -14.0101 N   0  0  0  0  0  0  0  0  0  0  0  0
   19.1565  -20.7226  -12.5837 C   0  0  0  0  0  0  0  0  0  0  0  0
   19.6801  -21.5539  -11.8048 O   0  0  0  0  0  0  0  0  0  0  0  0
   18.2254  -19.8646  -12.0300 O   0  0  0  0  0  0  0  0  0  0  0  0
  2  1  1  6
  3  4  1  0
  3  2  1  0
  4  8  1  0
  5  6  1  0
  5  4  2  0
  6  7  1  0
  7  8  2  0
  9  2  1  0
  9 11  1  0
 10  9  2  0
 11 12  1  0
 12 17  1  0
 13 14  1  0
 12 13  1  1
 15 16  2  0
 15 14  1  0
 17 18  2  0
 17 26  1  0
 19 15  1  0
 20 21  1  0
 21 23  1  0
 21 22  2  0
 23 24  1  0
 25 24  1  6
 25 27  1  0
 26 25  1  0
 27 28  2  0
 27 29  1  0
M  END
$$$$
