HEQ.pdb
     RDKit          3D

 29 29  0  0  1  0  0  0  0  0999 V2000
   19.5322  -11.9239  -16.5165 N   0  0  0  0  0  0  0  0  0  0  0  0
   19.9888  -10.8962  -17.4628 C   0  0  1  0  0  0  0  0  0  0  0  0
   19.1221  -10.9318  -18.7001 C   0  0  0  0  0  0  0  0  0  0  0  0
   19.2474  -12.1684  -19.4624 C   0  0  0  0  0  0  0  0  0  0  0  0
   18.4243  -13.2662  -19.3498 C   0  0  0  0  0  0  0  0  0  0  0  0
   18.8515  -14.1956  -20.2040 N   0  0  0  0  0  0  0  0  0  0  0  0
   19.9201  -13.7348  -20.8622 C   0  0  0  0  0  0  0  0  0  0  0  0
   20.1533  -12.4762  -20.3911 N   0  0  0  0  0  0  0  0  0  0  0  0
   19.7531   -9.5729  -16.8135 C   0  0  0  0  0  0  0  0  0  0  0  0
   18.9858   -9.4635  -15.8138 O   0  0  0  0  0  0  0  0  0  0  0  0
   20.3653   -8.3699  -17.2688 N   0  0  0  0  0  0  0  0  0  0  0  0
   20.3328   -7.1774  -16.4696 C   0  0  1  0  0  0  0  0  0  0  0  0
   21.0674   -7.3726  -15.1519 C   0  0  0  0  0  0  0  0  0  0  0  0
   20.9570   -6.0994  -14.3411 C   0  0  0  0  0  0  0  0  0  0  0  0
   21.5954   -6.2728  -13.0156 C   0  0  0  0  0  0  0  0  0  0  0  0
   22.6781   -5.7173  -12.7843 O   0  0  0  0  0  0  0  0  0  0  0  0
   20.8562   -5.9920  -17.1965 C   0  0  0  0  0  0  0  0  0  0  0  0
   22.0038   -6.0578  -17.7075 O   0  0  0  0  0  0  0  0  0  0  0  0
   20.9672   -7.0495  -12.0712 O   0  0  0  0  0  0  0  0  0  0  0  0
   17.4397   -1.1009  -19.1245 N   0  0  0  0  0  0  0  0  0  0  0  0
   18.6941   -0.8087  -19.7605 C   0  0  0  0  0  0  0  0  0  0  0  0
   18.7855    0.1760  -20.5571 O   0  0  0  0  0  0  0  0  0  0  0  0
   19.8391   -1.6786  -19.4464 C   0  0  0  0  0  0  0  0  0  0  0  0
   19.4960   -2.8036  -18.5396 C   0  0  0  0  0  0  0  0  0  0  0  0
   20.6486   -3.6849  -18.2090 C   0  0  2  0  0  0  0  0  0  0  0  0
   20.1297   -4.7909  -17.3442 N   0  0  0  0  0  0  0  0  0  0  0  0
   21.7472   -3.1108  -17.4589 C   0  0  0  0  0  0  0  0  0  0  0  0
   21.8396   -3.2710  -16.2189 O   0  0  0  0  0  0  0  0  0  0  0  0
   22.7498   -2.3725  -18.0587 O   0  0  0  0  0  0  0  0  0  0  0  0
  2  1  1  1
  3  4  1  0
  3  2  1  0
  4  8  1  0
  5  6  1  0
  5  4  2  0
  6  7  1  0
  7  8  2  0
  9  2  1  0
  9 11  1  0
 10  9  2  0
 11 12  1  0
 12 17  1  0
 13 14  1  0
 12 13  1  1
 15 16  2  0
 15 14  1  0
 17 18  2  0
 17 26  1  0
 19 15  1  0
 20 21  1  0
 21 23  1  0
 21 22  2  0
 23 24  1  0
 25 24  1  1
 25 27  1  0
 26 25  1  0
 27 28  2  0
 27 29  1  0
M  END
$$$$
