HEQ.pdb
     RDKit          3D

 29 29  0  0  1  0  0  0  0  0999 V2000
   25.2288  -16.9733  -19.7932 N   0  0  0  0  0  0  0  0  0  0  0  0
   25.2237  -16.7548  -18.3397 C   0  0  1  0  0  0  0  0  0  0  0  0
   24.3158  -15.5928  -18.0095 C   0  0  0  0  0  0  0  0  0  0  0  0
   24.8308  -14.3058  -18.4615 C   0  0  0  0  0  0  0  0  0  0  0  0
   26.0231  -13.7382  -18.0722 C   0  0  0  0  0  0  0  0  0  0  0  0
   26.1481  -12.5660  -18.6937 N   0  0  0  0  0  0  0  0  0  0  0  0
   25.0788  -12.3592  -19.4690 C   0  0  0  0  0  0  0  0  0  0  0  0
   24.2708  -13.4472  -19.3142 N   0  0  0  0  0  0  0  0  0  0  0  0
   24.6097  -17.9665  -17.7209 C   0  0  0  0  0  0  0  0  0  0  0  0
   23.4903  -18.4049  -18.1146 O   0  0  0  0  0  0  0  0  0  0  0  0
   25.2327  -18.6944  -16.6666 N   0  0  0  0  0  0  0  0  0  0  0  0
   24.6077  -19.8584  -16.1043 C   0  0  1  0  0  0  0  0  0  0  0  0
   25.6413  -20.8503  -15.5924 C   0  0  0  0  0  0  0  0  0  0  0  0
   26.4735  -21.3311  -16.7614 C   0  0  0  0  0  0  0  0  0  0  0  0
   27.5030  -22.2928  -16.3030 C   0  0  0  0  0  0  0  0  0  0  0  0
   28.6300  -21.8786  -15.9987 O   0  0  0  0  0  0  0  0  0  0  0  0
   23.6278  -19.5189  -15.0403 C   0  0  0  0  0  0  0  0  0  0  0  0
   23.9408  -18.6462  -14.1901 O   0  0  0  0  0  0  0  0  0  0  0  0
   27.1800  -23.6268  -16.2267 O   0  0  0  0  0  0  0  0  0  0  0  0
   19.6386  -16.0657  -15.1390 N   0  0  0  0  0  0  0  0  0  0  0  0
   19.1189  -16.6386  -13.9285 C   0  0  0  0  0  0  0  0  0  0  0  0
   18.1305  -16.0955  -13.3449 O   0  0  0  0  0  0  0  0  0  0  0  0
   19.7660  -17.8572  -13.4159 C   0  0  0  0  0  0  0  0  0  0  0  0
   20.8416  -18.3728  -14.3007 C   0  0  0  0  0  0  0  0  0  0  0  0
   21.3882  -19.6915  -13.8805 C   0  0  2  0  0  0  0  0  0  0  0  0
   22.3586  -20.1273  -14.9333 N   0  0  0  0  0  0  0  0  0  0  0  0
   20.4619  -20.7977  -13.7478 C   0  0  0  0  0  0  0  0  0  0  0  0
   20.3561  -21.6662  -14.6458 O   0  0  0  0  0  0  0  0  0  0  0  0
   19.6597  -20.9648  -12.6350 O   0  0  0  0  0  0  0  0  0  0  0  0
  2  1  1  6
  3  4  1  0
  3  2  1  0
  4  8  1  0
  5  6  1  0
  5  4  2  0
  6  7  1  0
  7  8  2  0
  9  2  1  0
  9 11  1  0
 10  9  2  0
 11 12  1  0
 12 17  1  0
 13 14  1  0
 12 13  1  1
 15 16  2  0
 15 14  1  0
 17 18  2  0
 17 26  1  0
 19 15  1  0
 20 21  1  0
 21 23  1  0
 21 22  2  0
 23 24  1  0
 25 24  1  6
 25 27  1  0
 26 25  1  0
 27 28  2  0
 27 29  1  0
M  END
$$$$
