HEQ.pdb
     RDKit          3D

 29 29  0  0  1  0  0  0  0  0999 V2000
   26.0817  -22.3594  -17.0345 N   0  0  0  0  0  0  0  0  0  0  0  0
   26.7891  -21.3506  -16.2330 C   0  0  1  0  0  0  0  0  0  0  0  0
   28.0256  -20.8971  -16.9736 C   0  0  0  0  0  0  0  0  0  0  0  0
   28.9577  -21.9795  -17.2665 C   0  0  0  0  0  0  0  0  0  0  0  0
   28.7412  -23.3148  -17.0109 C   0  0  0  0  0  0  0  0  0  0  0  0
   29.8138  -23.9947  -17.4148 N   0  0  0  0  0  0  0  0  0  0  0  0
   30.7127  -23.1444  -17.9211 C   0  0  0  0  0  0  0  0  0  0  0  0
   30.1671  -21.8982  -17.8221 N   0  0  0  0  0  0  0  0  0  0  0  0
   25.8889  -20.1637  -16.1367 C   0  0  0  0  0  0  0  0  0  0  0  0
   26.2240  -19.1422  -15.4702 O   0  0  0  0  0  0  0  0  0  0  0  0
   24.6177  -20.1054  -16.7771 N   0  0  0  0  0  0  0  0  0  0  0  0
   23.7228  -19.0074  -16.5417 C   0  0  1  0  0  0  0  0  0  0  0  0
   23.5213  -18.1765  -17.7999 C   0  0  0  0  0  0  0  0  0  0  0  0
   24.8435  -17.5479  -18.1836 C   0  0  0  0  0  0  0  0  0  0  0  0
   24.7038  -16.7744  -19.4394 C   0  0  0  0  0  0  0  0  0  0  0  0
   25.0763  -15.5935  -19.4713 O   0  0  0  0  0  0  0  0  0  0  0  0
   22.4180  -19.4477  -15.9838 C   0  0  0  0  0  0  0  0  0  0  0  0
   22.1875  -20.6810  -15.8936 O   0  0  0  0  0  0  0  0  0  0  0  0
   24.1619  -17.3897  -20.5427 O   0  0  0  0  0  0  0  0  0  0  0  0
   20.4402  -18.5493  -10.9799 N   0  0  0  0  0  0  0  0  0  0  0  0
   19.7731  -19.7875  -11.2720 C   0  0  0  0  0  0  0  0  0  0  0  0
   19.0224  -20.3231  -10.3991 O   0  0  0  0  0  0  0  0  0  0  0  0
   19.9907  -20.3849  -12.5995 C   0  0  0  0  0  0  0  0  0  0  0  0
   20.9360  -19.6144  -13.4471 C   0  0  0  0  0  0  0  0  0  0  0  0
   20.3103  -19.0148  -14.6568 C   0  0  2  0  0  0  0  0  0  0  0  0
   21.4195  -18.5503  -15.5480 N   0  0  0  0  0  0  0  0  0  0  0  0
   19.4660  -17.8512  -14.4768 C   0  0  0  0  0  0  0  0  0  0  0  0
   19.9597  -16.7174  -14.2706 O   0  0  0  0  0  0  0  0  0  0  0  0
   18.0868  -17.9192  -14.5319 O   0  0  0  0  0  0  0  0  0  0  0  0
  2  1  1  6
  3  4  1  0
  3  2  1  0
  4  8  1  0
  5  6  1  0
  5  4  2  0
  6  7  1  0
  7  8  2  0
  9  2  1  0
  9 11  1  0
 10  9  2  0
 11 12  1  0
 12 17  1  0
 13 14  1  0
 12 13  1  6
 15 16  2  0
 15 14  1  0
 17 18  2  0
 17 26  1  0
 19 15  1  0
 20 21  1  0
 21 23  1  0
 21 22  2  0
 23 24  1  0
 25 24  1  1
 25 27  1  0
 26 25  1  0
 27 28  2  0
 27 29  1  0
M  END
$$$$
