HEQ.pdb
     RDKit          3D

 29 29  0  0  1  0  0  0  0  0999 V2000
   21.1516  -13.5851  -16.6228 N   0  0  0  0  0  0  0  0  0  0  0  0
   21.6253  -12.5505  -17.5532 C   0  0  1  0  0  0  0  0  0  0  0  0
   20.5061  -12.1713  -18.4951 C   0  0  0  0  0  0  0  0  0  0  0  0
   20.1124  -13.2496  -19.3942 C   0  0  0  0  0  0  0  0  0  0  0  0
   18.9646  -14.0024  -19.2884 C   0  0  0  0  0  0  0  0  0  0  0  0
   18.9532  -14.8857  -20.2862 N   0  0  0  0  0  0  0  0  0  0  0  0
   20.0528  -14.7279  -21.0302 C   0  0  0  0  0  0  0  0  0  0  0  0
   20.7617  -13.7094  -20.4641 N   0  0  0  0  0  0  0  0  0  0  0  0
   21.9264  -11.3377  -16.7367 C   0  0  0  0  0  0  0  0  0  0  0  0
   21.2512  -11.0620  -15.7032 O   0  0  0  0  0  0  0  0  0  0  0  0
   22.9742  -10.4290  -17.0622 N   0  0  0  0  0  0  0  0  0  0  0  0
   23.1840   -9.2375  -16.2887 C   0  0  1  0  0  0  0  0  0  0  0  0
   24.6663   -8.9594  -16.0896 C   0  0  0  0  0  0  0  0  0  0  0  0
   25.2875  -10.1334  -15.3643 C   0  0  0  0  0  0  0  0  0  0  0  0
   26.7461   -9.9298  -15.2039 C   0  0  0  0  0  0  0  0  0  0  0  0
   27.2737   -8.9121  -15.6732 O   0  0  0  0  0  0  0  0  0  0  0  0
   22.4972   -8.0550  -16.8696 C   0  0  0  0  0  0  0  0  0  0  0  0
   22.5222   -7.8973  -18.1173 O   0  0  0  0  0  0  0  0  0  0  0  0
   27.4808  -10.8800  -14.5352 O   0  0  0  0  0  0  0  0  0  0  0  0
   19.9035   -6.3122  -20.2151 N   0  0  0  0  0  0  0  0  0  0  0  0
   18.9026   -5.5869  -19.4833 C   0  0  0  0  0  0  0  0  0  0  0  0
   18.0636   -4.8643  -20.1049 O   0  0  0  0  0  0  0  0  0  0  0  0
   18.8928   -5.7246  -18.0179 C   0  0  0  0  0  0  0  0  0  0  0  0
   19.9190   -6.6680  -17.5056 C   0  0  0  0  0  0  0  0  0  0  0  0
   21.0145   -6.0114  -16.7421 C   0  0  2  0  0  0  0  0  0  0  0  0
   21.8152   -7.0953  -16.0909 N   0  0  0  0  0  0  0  0  0  0  0  0
   20.6470   -5.1198  -15.6608 C   0  0  0  0  0  0  0  0  0  0  0  0
   20.6748   -3.8752  -15.8086 O   0  0  0  0  0  0  0  0  0  0  0  0
   20.2395   -5.5819  -14.4237 O   0  0  0  0  0  0  0  0  0  0  0  0
  2  1  1  1
  3  4  1  0
  3  2  1  0
  4  8  1  0
  5  6  1  0
  5  4  2  0
  6  7  1  0
  7  8  2  0
  9  2  1  0
  9 11  1  0
 10  9  2  0
 11 12  1  0
 12 17  1  0
 13 14  1  0
 12 13  1  6
 15 16  2  0
 15 14  1  0
 17 18  2  0
 17 26  1  0
 19 15  1  0
 20 21  1  0
 21 23  1  0
 21 22  2  0
 23 24  1  0
 25 24  1  1
 25 27  1  0
 26 25  1  0
 27 28  2  0
 27 29  1  0
M  END
$$$$
