YVH.pdb
     RDKit          3D

 30 31  0  0  1  0  0  0  0  0999 V2000
    4.1958  -22.0182   20.9508 O   0  0  0  0  0  0  0  0  0  0  0  0
    5.0107  -21.1113   21.6272 C   0  0  0  0  0  0  0  0  0  0  0  0
    6.3410  -21.0447   21.3289 C   0  0  0  0  0  0  0  0  0  0  0  0
    7.2277  -20.1869   21.9335 C   0  0  0  0  0  0  0  0  0  0  0  0
    6.7296  -19.3367   22.9075 C   0  0  0  0  0  0  0  0  0  0  0  0
    7.7121  -18.4033   23.5494 C   0  0  0  0  0  0  0  0  0  0  0  0
    7.5938  -17.0905   22.8564 C   0  0  2  0  0  0  0  0  0  0  0  0
    7.9743  -17.0252   21.4879 N   0  0  0  0  0  0  0  0  0  0  0  0
    8.2803  -16.0012   23.6477 C   0  0  0  0  0  0  0  0  0  0  0  0
    9.4884  -15.6900   23.4367 O   0  0  0  0  0  0  0  0  0  0  0  0
    5.4026  -19.3781   23.2288 C   0  0  0  0  0  0  0  0  0  0  0  0
    4.5310  -20.2578   22.6012 C   0  0  0  0  0  0  0  0  0  0  0  0
    6.2969  -13.3772   26.6933 C   0  0  0  0  0  0  0  0  0  0  0  0
    7.5116  -13.1110   25.8007 C   0  0  2  0  0  0  0  0  0  0  0  0
    7.0695  -12.4299   24.5072 C   0  0  0  0  0  0  0  0  0  0  0  0
    8.2758  -14.3474   25.5197 C   0  0  2  0  0  0  0  0  0  0  0  0
    7.5822  -15.2940   24.6684 N   0  0  0  0  0  0  0  0  0  0  0  0
    8.8025  -15.0058   26.7673 C   0  0  0  0  0  0  0  0  0  0  0  0
    8.0546  -15.6156   27.5733 O   0  0  0  0  0  0  0  0  0  0  0  0
   10.1954  -14.9157   27.0057 N   0  0  0  0  0  0  0  0  0  0  0  0
   10.8550  -15.6247   28.1232 C   0  0  1  0  0  0  0  0  0  0  0  0
   12.3350  -15.6865   27.8304 C   0  0  0  0  0  0  0  0  0  0  0  0
   12.6654  -16.5948   26.7261 C   0  0  0  0  0  0  0  0  0  0  0  0
   11.7845  -17.4157   26.0753 C   0  0  0  0  0  0  0  0  0  0  0  0
   12.5017  -18.1001   25.1423 N   0  0  0  0  0  0  0  0  0  0  0  0
   13.7917  -17.7285   25.1941 C   0  0  0  0  0  0  0  0  0  0  0  0
   13.8659  -16.7940   26.1849 N   0  0  0  0  0  0  0  0  0  0  0  0
   10.7102  -14.6856   29.2954 C   0  0  0  0  0  0  0  0  0  0  0  0
   11.0580  -15.1354   30.5858 O   0  0  0  0  0  0  0  0  0  0  0  0
   10.2978  -13.5214   29.2032 O   0  0  0  0  0  0  0  0  0  0  0  0
  2  3  2  0
  2  1  1  0
  4  3  1  0
  5  4  2  0
  6  5  1  0
  7  6  1  0
  7  8  1  6
  9  7  1  0
  9 10  2  0
 11  5  1  0
 11 12  2  0
 12  2  1  0
 14 16  1  0
 14 13  1  1
 15 14  1  0
 16 17  1  1
 17  9  1  0
 18 16  1  0
 19 18  2  0
 20 18  1  0
 21 20  1  0
 21 22  1  6
 23 24  2  0
 23 22  1  0
 25 24  1  0
 26 27  2  0
 26 25  1  0
 27 23  1  0
 28 21  1  0
 28 29  1  0
 30 28  2  0
M  END
$$$$
