YVH.pdb
     RDKit          3D

 30 31  0  0  1  0  0  0  0  0999 V2000
    6.8232  -11.9365   28.9145 O   0  0  0  0  0  0  0  0  0  0  0  0
    6.8120  -12.7473   27.7802 C   0  0  0  0  0  0  0  0  0  0  0  0
    5.7538  -12.6914   26.9198 C   0  0  0  0  0  0  0  0  0  0  0  0
    5.6461  -13.4443   25.7756 C   0  0  0  0  0  0  0  0  0  0  0  0
    6.6850  -14.3134   25.4836 C   0  0  0  0  0  0  0  0  0  0  0  0
    6.5515  -15.1201   24.2267 C   0  0  0  0  0  0  0  0  0  0  0  0
    7.9246  -15.3423   23.6950 C   0  0  2  0  0  0  0  0  0  0  0  0
    8.9437  -14.4309   24.0856 N   0  0  0  0  0  0  0  0  0  0  0  0
    7.9008  -15.4947   22.1916 C   0  0  0  0  0  0  0  0  0  0  0  0
    7.1148  -16.3050   21.6200 O   0  0  0  0  0  0  0  0  0  0  0  0
    7.7587  -14.3925   26.3244 C   0  0  0  0  0  0  0  0  0  0  0  0
    7.8382  -13.6197   27.4750 C   0  0  0  0  0  0  0  0  0  0  0  0
    9.7774  -12.6379   19.3566 C   0  0  0  0  0  0  0  0  0  0  0  0
    8.5279  -13.5148   19.2444 C   0  0  2  0  0  0  0  0  0  0  0  0
    7.3139  -12.7657   19.7900 C   0  0  0  0  0  0  0  0  0  0  0  0
    8.7014  -14.8185   19.9241 C   0  0  2  0  0  0  0  0  0  0  0  0
    8.7770  -14.7296   21.3693 N   0  0  0  0  0  0  0  0  0  0  0  0
    9.8389  -15.6264   19.3580 C   0  0  0  0  0  0  0  0  0  0  0  0
    9.9140  -15.9197   18.1376 O   0  0  0  0  0  0  0  0  0  0  0  0
   10.8420  -16.0511   20.2629 N   0  0  0  0  0  0  0  0  0  0  0  0
   11.8915  -17.0212   19.8835 C   0  0  1  0  0  0  0  0  0  0  0  0
   13.2347  -16.3958   20.1745 C   0  0  0  0  0  0  0  0  0  0  0  0
   13.6784  -15.4714   19.1245 C   0  0  0  0  0  0  0  0  0  0  0  0
   13.2727  -15.4920   17.8175 C   0  0  0  0  0  0  0  0  0  0  0  0
   13.9380  -14.4874   17.1840 N   0  0  0  0  0  0  0  0  0  0  0  0
   14.7371  -13.8482   18.0545 C   0  0  0  0  0  0  0  0  0  0  0  0
   14.5570  -14.4785   19.2506 N   0  0  0  0  0  0  0  0  0  0  0  0
   11.7389  -18.1423   20.8817 C   0  0  0  0  0  0  0  0  0  0  0  0
   10.6884  -18.0906   21.8209 O   0  0  0  0  0  0  0  0  0  0  0  0
   12.4879  -19.1271   20.9368 O   0  0  0  0  0  0  0  0  0  0  0  0
  2  3  2  0
  2  1  1  0
  4  3  1  0
  5  4  2  0
  6  5  1  0
  7  6  1  0
  7  8  1  6
  9  7  1  0
  9 10  2  0
 11  5  1  0
 11 12  2  0
 12  2  1  0
 14 16  1  0
 14 13  1  1
 15 14  1  0
 16 17  1  1
 17  9  1  0
 18 16  1  0
 19 18  2  0
 20 18  1  0
 21 20  1  0
 21 22  1  1
 23 24  2  0
 23 22  1  0
 25 24  1  0
 26 27  2  0
 26 25  1  0
 27 23  1  0
 28 21  1  0
 28 29  1  0
 30 28  2  0
M  END
$$$$
