YVH.pdb
     RDKit          3D

 30 31  0  0  1  0  0  0  0  0999 V2000
    6.2841  -22.7062   15.4761 O   0  0  0  0  0  0  0  0  0  0  0  0
    7.0600  -21.8603   16.2677 C   0  0  0  0  0  0  0  0  0  0  0  0
    6.4860  -21.2003   17.3156 C   0  0  0  0  0  0  0  0  0  0  0  0
    7.1605  -20.3480   18.1562 C   0  0  0  0  0  0  0  0  0  0  0  0
    8.5113  -20.1531   17.9176 C   0  0  0  0  0  0  0  0  0  0  0  0
    9.2303  -19.2255   18.8509 C   0  0  0  0  0  0  0  0  0  0  0  0
    8.8256  -17.8373   18.4949 C   0  0  2  0  0  0  0  0  0  0  0  0
    9.1325  -17.3708   17.1873 N   0  0  0  0  0  0  0  0  0  0  0  0
    9.3105  -16.8528   19.5339 C   0  0  0  0  0  0  0  0  0  0  0  0
   10.4609  -16.3305   19.4660 O   0  0  0  0  0  0  0  0  0  0  0  0
    9.1157  -20.7995   16.8770 C   0  0  0  0  0  0  0  0  0  0  0  0
    8.4069  -21.6538   16.0431 C   0  0  0  0  0  0  0  0  0  0  0  0
    6.7320  -15.1131   22.6782 C   0  0  0  0  0  0  0  0  0  0  0  0
    7.9880  -14.5248   22.0306 C   0  0  2  0  0  0  0  0  0  0  0  0
    7.6020  -13.6690   20.8260 C   0  0  0  0  0  0  0  0  0  0  0  0
    8.9607  -15.5743   21.6512 C   0  0  2  0  0  0  0  0  0  0  0  0
    8.4812  -16.4889   20.6336 N   0  0  0  0  0  0  0  0  0  0  0  0
    9.5201  -16.3106   22.8395 C   0  0  0  0  0  0  0  0  0  0  0  0
    8.9863  -17.3527   23.2977 O   0  0  0  0  0  0  0  0  0  0  0  0
   10.6915  -15.7814   23.4338 N   0  0  0  0  0  0  0  0  0  0  0  0
   11.3582  -16.4295   24.5835 C   0  0  1  0  0  0  0  0  0  0  0  0
   12.7189  -15.7973   24.7532 C   0  0  0  0  0  0  0  0  0  0  0  0
   13.6234  -16.0687   23.6298 C   0  0  0  0  0  0  0  0  0  0  0  0
   13.6820  -17.2338   22.9141 C   0  0  0  0  0  0  0  0  0  0  0  0
   14.6648  -17.0751   21.9855 N   0  0  0  0  0  0  0  0  0  0  0  0
   15.2117  -15.8537   22.1029 C   0  0  0  0  0  0  0  0  0  0  0  0
   14.5476  -15.2502   23.1300 N   0  0  0  0  0  0  0  0  0  0  0  0
   10.5509  -15.9864   25.7788 C   0  0  0  0  0  0  0  0  0  0  0  0
   10.8538  -16.5165   27.0499 O   0  0  0  0  0  0  0  0  0  0  0  0
    9.6194  -15.1721   25.7220 O   0  0  0  0  0  0  0  0  0  0  0  0
  2  3  2  0
  2  1  1  0
  4  3  1  0
  5  4  2  0
  6  5  1  0
  7  6  1  0
  7  8  1  6
  9  7  1  0
  9 10  2  0
 11  5  1  0
 11 12  2  0
 12  2  1  0
 14 16  1  0
 14 13  1  6
 15 14  1  0
 16 17  1  6
 17  9  1  0
 18 16  1  0
 19 18  2  0
 20 18  1  0
 21 20  1  0
 21 22  1  1
 23 24  2  0
 23 22  1  0
 25 24  1  0
 26 27  2  0
 26 25  1  0
 27 23  1  0
 28 21  1  0
 28 29  1  0
 30 28  2  0
M  END
$$$$
