YVH.pdb
     RDKit          3D

 30 31  0  0  1  0  0  0  0  0999 V2000
   11.1335  -19.0154   11.4205 O   0  0  0  0  0  0  0  0  0  0  0  0
   11.0116  -18.5845   12.7410 C   0  0  0  0  0  0  0  0  0  0  0  0
   12.0557  -18.7489   13.6047 C   0  0  0  0  0  0  0  0  0  0  0  0
   12.0393  -18.3582   14.9219 C   0  0  0  0  0  0  0  0  0  0  0  0
   10.8836  -17.7578   15.3949 C   0  0  0  0  0  0  0  0  0  0  0  0
   10.8891  -17.3319   16.8326 C   0  0  0  0  0  0  0  0  0  0  0  0
   10.9059  -15.8430   16.8536 C   0  0  2  0  0  0  0  0  0  0  0  0
   11.9587  -15.1809   16.1643 N   0  0  0  0  0  0  0  0  0  0  0  0
   10.7929  -15.3239   18.2684 C   0  0  0  0  0  0  0  0  0  0  0  0
   11.8051  -15.2265   19.0213 O   0  0  0  0  0  0  0  0  0  0  0  0
    9.8211  -17.5782   14.5554 C   0  0  0  0  0  0  0  0  0  0  0  0
    9.8670  -17.9856   13.2290 C   0  0  0  0  0  0  0  0  0  0  0  0
    6.9422  -14.1354   20.2034 C   0  0  0  0  0  0  0  0  0  0  0  0
    8.3221  -13.5011   20.3943 C   0  0  2  0  0  0  0  0  0  0  0  0
    8.4689  -12.2863   19.4804 C   0  0  0  0  0  0  0  0  0  0  0  0
    9.4160  -14.4733   20.1711 C   0  0  2  0  0  0  0  0  0  0  0  0
    9.5305  -14.9347   18.8014 N   0  0  0  0  0  0  0  0  0  0  0  0
    9.3839  -15.6232   21.1427 C   0  0  0  0  0  0  0  0  0  0  0  0
    8.6553  -16.6327   20.9668 O   0  0  0  0  0  0  0  0  0  0  0  0
   10.2198  -15.5290   22.2819 N   0  0  0  0  0  0  0  0  0  0  0  0
   10.3074  -16.6063   23.2909 C   0  0  1  0  0  0  0  0  0  0  0  0
   11.7354  -17.0953   23.3313 C   0  0  0  0  0  0  0  0  0  0  0  0
   12.1157  -17.8595   22.1375 C   0  0  0  0  0  0  0  0  0  0  0  0
   11.3281  -18.7704   21.4870 C   0  0  0  0  0  0  0  0  0  0  0  0
   12.0668  -19.2612   20.4541 N   0  0  0  0  0  0  0  0  0  0  0  0
   13.2797  -18.6837   20.4446 C   0  0  0  0  0  0  0  0  0  0  0  0
   13.2837  -17.8186   21.4991 N   0  0  0  0  0  0  0  0  0  0  0  0
   10.0802  -15.9023   24.6061 C   0  0  0  0  0  0  0  0  0  0  0  0
   10.0954  -16.6516   25.8005 O   0  0  0  0  0  0  0  0  0  0  0  0
    9.8760  -14.6855   24.7139 O   0  0  0  0  0  0  0  0  0  0  0  0
  2  3  2  0
  2  1  1  0
  4  3  1  0
  5  4  2  0
  6  5  1  0
  7  6  1  0
  7  8  1  1
  9  7  1  0
  9 10  2  0
 11  5  1  0
 11 12  2  0
 12  2  1  0
 14 16  1  0
 14 13  1  6
 15 14  1  0
 16 17  1  6
 17  9  1  0
 18 16  1  0
 19 18  2  0
 20 18  1  0
 21 20  1  0
 21 22  1  1
 23 24  2  0
 23 22  1  0
 25 24  1  0
 26 27  2  0
 26 25  1  0
 27 23  1  0
 28 21  1  0
 28 29  1  0
 30 28  2  0
M  END
$$$$
