YVH.pdb
     RDKit          3D

 30 31  0  0  1  0  0  0  0  0999 V2000
    5.5631  -23.8702   21.7080 O   0  0  0  0  0  0  0  0  0  0  0  0
    6.3657  -22.7395   21.5618 C   0  0  0  0  0  0  0  0  0  0  0  0
    7.7244  -22.8670   21.5886 C   0  0  0  0  0  0  0  0  0  0  0  0
    8.6029  -21.8194   21.4516 C   0  0  0  0  0  0  0  0  0  0  0  0
    8.0651  -20.5549   21.2738 C   0  0  0  0  0  0  0  0  0  0  0  0
    9.0407  -19.4268   21.1186 C   0  0  0  0  0  0  0  0  0  0  0  0
    8.6147  -18.6326   19.9332 C   0  0  2  0  0  0  0  0  0  0  0  0
    8.9218  -19.1474   18.6438 N   0  0  0  0  0  0  0  0  0  0  0  0
    9.0764  -17.1986   20.0527 C   0  0  0  0  0  0  0  0  0  0  0  0
   10.1602  -16.8057   19.5313 O   0  0  0  0  0  0  0  0  0  0  0  0
    6.7090  -20.3939   21.2418 C   0  0  0  0  0  0  0  0  0  0  0  0
    5.8463  -21.4722   21.3850 C   0  0  0  0  0  0  0  0  0  0  0  0
    8.1354  -12.4371   20.7477 C   0  0  0  0  0  0  0  0  0  0  0  0
    7.6839  -13.8773   20.4925 C   0  0  2  0  0  0  0  0  0  0  0  0
    6.3798  -14.1551   21.2372 C   0  0  0  0  0  0  0  0  0  0  0  0
    8.7286  -14.8601   20.8590 C   0  0  2  0  0  0  0  0  0  0  0  0
    8.3012  -16.2426   20.7700 N   0  0  0  0  0  0  0  0  0  0  0  0
    9.3710  -14.5627   22.1880 C   0  0  0  0  0  0  0  0  0  0  0  0
    9.9311  -13.4642   22.4339 O   0  0  0  0  0  0  0  0  0  0  0  0
    9.3201  -15.5803   23.1715 N   0  0  0  0  0  0  0  0  0  0  0  0
    9.9552  -15.4314   24.4985 C   0  0  1  0  0  0  0  0  0  0  0  0
    8.9120  -15.7180   25.5519 C   0  0  0  0  0  0  0  0  0  0  0  0
    7.9101  -14.6526   25.6740 C   0  0  0  0  0  0  0  0  0  0  0  0
    8.1718  -13.3099   25.7143 C   0  0  0  0  0  0  0  0  0  0  0  0
    6.9731  -12.6803   25.8559 N   0  0  0  0  0  0  0  0  0  0  0  0
    5.9831  -13.5873   25.9023 C   0  0  0  0  0  0  0  0  0  0  0  0
    6.5916  -14.8025   25.7874 N   0  0  0  0  0  0  0  0  0  0  0  0
   10.9342  -16.5772   24.5720 C   0  0  0  0  0  0  0  0  0  0  0  0
   11.0624  -17.4460   23.4688 O   0  0  0  0  0  0  0  0  0  0  0  0
   11.6494  -16.8150   25.5548 O   0  0  0  0  0  0  0  0  0  0  0  0
  2  3  2  0
  2  1  1  0
  4  3  1  0
  5  4  2  0
  6  5  1  0
  7  6  1  0
  7  8  1  6
  9  7  1  0
  9 10  2  0
 11  5  1  0
 11 12  2  0
 12  2  1  0
 14 16  1  0
 14 13  1  1
 15 14  1  0
 16 17  1  1
 17  9  1  0
 18 16  1  0
 19 18  2  0
 20 18  1  0
 21 20  1  0
 21 22  1  1
 23 24  2  0
 23 22  1  0
 25 24  1  0
 26 27  2  0
 26 25  1  0
 27 23  1  0
 28 21  1  0
 28 29  1  0
 30 28  2  0
M  END
$$$$
