QDK.pdb
     RDKit          3D

 27 26  0  0  1  0  0  0  0  0999 V2000
    8.6737  -11.9881   19.1437 N   0  0  0  0  0  0  0  0  0  0  0  0
    8.9909  -13.0231   18.2238 C   0  0  0  0  0  0  0  0  0  0  0  0
    9.8133  -12.7635   17.2903 O   0  0  0  0  0  0  0  0  0  0  0  0
    8.3626  -14.3692   18.3707 C   0  0  0  0  0  0  0  0  0  0  0  0
    7.3770  -14.3874   19.5154 C   0  0  0  0  0  0  0  0  0  0  0  0
    7.8542  -15.1803   20.6843 C   0  0  2  0  0  0  0  0  0  0  0  0
    8.8896  -16.1158   20.3788 N   0  0  0  0  0  0  0  0  0  0  0  0
    6.7755  -15.8151   21.4519 C   0  0  0  0  0  0  0  0  0  0  0  0
    5.7514  -15.1501   21.7225 O   0  0  0  0  0  0  0  0  0  0  0  0
    6.8483  -17.1738   21.9064 N   0  0  0  0  0  0  0  0  0  0  0  0
    5.8807  -17.7553   22.7863 C   0  0  1  0  0  0  0  0  0  0  0  0
    5.7597  -19.2329   22.5022 C   0  0  0  0  0  0  0  0  0  0  0  0
    4.7602  -19.8902   23.3727 C   0  0  0  0  0  0  0  0  0  0  0  0
    3.5726  -19.5123   23.5126 O   0  0  0  0  0  0  0  0  0  0  0  0
    6.2595  -17.5749   24.2130 C   0  0  0  0  0  0  0  0  0  0  0  0
    5.4675  -17.8862   25.1558 O   0  0  0  0  0  0  0  0  0  0  0  0
    5.1797  -21.0090   24.0834 O   0  0  0  0  0  0  0  0  0  0  0  0
    7.5017  -17.0563   24.5400 N   0  0  0  0  0  0  0  0  0  0  0  0
    7.8745  -16.8058   26.0165 C   0  0  1  0  0  0  0  0  0  0  0  0
    9.2028  -17.4119   26.1936 C   0  0  0  0  0  0  0  0  0  0  0  0
    9.5621  -18.4197   27.1732 C   0  0  0  0  0  0  0  0  0  0  0  0
   10.9064  -18.9865   27.3043 C   0  0  0  0  0  0  0  0  0  0  0  0
   11.0410  -19.9674   28.4658 C   0  0  0  0  0  0  0  0  0  0  0  0
   12.3922  -20.4428   28.6400 N   0  0  0  0  0  0  0  0  0  0  0  0
    7.8680  -15.2944   26.0304 C   0  0  0  0  0  0  0  0  0  0  0  0
    7.6517  -14.4780   27.0747 O   0  0  0  0  0  0  0  0  0  0  0  0
    8.0983  -14.6627   24.9113 O   0  0  0  0  0  0  0  0  0  0  0  0
  1  2  1  0
  2  4  1  0
  3  2  2  0
  4  5  1  0
  6  7  1  6
  6  5  1  0
  8  6  1  0
  8  9  2  0
 10 11  1  0
 10  8  1  0
 11 15  1  0
 11 12  1  6
 13 12  1  0
 13 17  1  0
 14 13  2  0
 15 18  1  0
 15 16  2  0
 18 19  1  0
 19 20  1  6
 20 21  1  0
 21 22  1  0
 22 23  1  0
 23 24  1  0
 25 26  1  0
 25 19  1  0
 27 25  2  0
M  END
$$$$
