QDK.pdb
     RDKit          3D

 27 26  0  0  1  0  0  0  0  0999 V2000
    8.1976  -12.5750   15.7850 N   0  0  0  0  0  0  0  0  0  0  0  0
    7.2187  -13.5769   16.0211 C   0  0  0  0  0  0  0  0  0  0  0  0
    6.5371  -13.9932   15.0326 O   0  0  0  0  0  0  0  0  0  0  0  0
    7.0152  -14.1097   17.4007 C   0  0  0  0  0  0  0  0  0  0  0  0
    7.8996  -13.3954   18.3955 C   0  0  0  0  0  0  0  0  0  0  0  0
    9.0635  -14.2161   18.8368 C   0  0  2  0  0  0  0  0  0  0  0  0
    9.6183  -15.0484   17.8169 N   0  0  0  0  0  0  0  0  0  0  0  0
    8.8208  -14.9772   20.0687 C   0  0  0  0  0  0  0  0  0  0  0  0
    8.3364  -14.3881   21.0599 O   0  0  0  0  0  0  0  0  0  0  0  0
    9.1179  -16.3761   20.1825 N   0  0  0  0  0  0  0  0  0  0  0  0
    8.8847  -17.1287   21.3774 C   0  0  1  0  0  0  0  0  0  0  0  0
    8.8996  -18.6041   21.0588 C   0  0  0  0  0  0  0  0  0  0  0  0
    8.3400  -18.8934   19.7201 C   0  0  0  0  0  0  0  0  0  0  0  0
    7.4802  -18.1920   19.1359 O   0  0  0  0  0  0  0  0  0  0  0  0
    9.9208  -16.8544   22.4084 C   0  0  0  0  0  0  0  0  0  0  0  0
   11.1157  -16.5651   22.0898 O   0  0  0  0  0  0  0  0  0  0  0  0
    8.8098  -20.0296   19.0711 O   0  0  0  0  0  0  0  0  0  0  0  0
    9.5925  -16.9114   23.7529 N   0  0  0  0  0  0  0  0  0  0  0  0
   10.6422  -16.5485   24.8246 C   0  0  1  0  0  0  0  0  0  0  0  0
    9.9050  -15.8092   25.8605 C   0  0  0  0  0  0  0  0  0  0  0  0
   10.4432  -15.3307   27.1199 C   0  0  0  0  0  0  0  0  0  0  0  0
    9.6685  -14.5650   28.0991 C   0  0  0  0  0  0  0  0  0  0  0  0
   10.4660  -14.1909   29.3456 C   0  0  0  0  0  0  0  0  0  0  0  0
    9.7120  -13.3735   30.2649 N   0  0  0  0  0  0  0  0  0  0  0  0
   11.0799  -17.9355   25.2358 C   0  0  0  0  0  0  0  0  0  0  0  0
   12.2778  -18.3187   25.7072 O   0  0  0  0  0  0  0  0  0  0  0  0
   10.2188  -18.9120   25.1391 O   0  0  0  0  0  0  0  0  0  0  0  0
  1  2  1  0
  2  4  1  0
  3  2  2  0
  4  5  1  0
  6  7  1  6
  6  5  1  0
  8  6  1  0
  8  9  2  0
 10 11  1  0
 10  8  1  0
 11 15  1  0
 11 12  1  6
 13 12  1  0
 13 17  1  0
 14 13  2  0
 15 18  1  0
 15 16  2  0
 18 19  1  0
 19 20  1  1
 20 21  1  0
 21 22  1  0
 22 23  1  0
 23 24  1  0
 25 26  1  0
 25 19  1  0
 27 25  2  0
M  END
$$$$
