QDK.pdb
     RDKit          3D

 27 26  0  0  1  0  0  0  0  0999 V2000
    9.0069  -12.9574   16.0345 N   0  0  0  0  0  0  0  0  0  0  0  0
    8.1647  -13.9382   15.4459 C   0  0  0  0  0  0  0  0  0  0  0  0
    8.2682  -14.1446   14.1962 O   0  0  0  0  0  0  0  0  0  0  0  0
    7.1935  -14.6918   16.2927 C   0  0  0  0  0  0  0  0  0  0  0  0
    7.2720  -14.2496   17.7351 C   0  0  0  0  0  0  0  0  0  0  0  0
    8.5337  -14.6722   18.4076 C   0  0  2  0  0  0  0  0  0  0  0  0
    9.4369  -15.3923   17.5672 N   0  0  0  0  0  0  0  0  0  0  0  0
    8.3227  -15.3715   19.6813 C   0  0  0  0  0  0  0  0  0  0  0  0
    7.2841  -15.1363   20.3373 O   0  0  0  0  0  0  0  0  0  0  0  0
    9.2635  -16.3183   20.2068 N   0  0  0  0  0  0  0  0  0  0  0  0
    9.1159  -16.9354   21.4898 C   0  0  1  0  0  0  0  0  0  0  0  0
   10.0130  -18.1462   21.5767 C   0  0  0  0  0  0  0  0  0  0  0  0
   11.4206  -17.8244   21.2542 C   0  0  0  0  0  0  0  0  0  0  0  0
   12.3534  -17.7713   22.0906 O   0  0  0  0  0  0  0  0  0  0  0  0
    9.4703  -16.0010   22.5911 C   0  0  0  0  0  0  0  0  0  0  0  0
   10.4139  -15.1594   22.4713 O   0  0  0  0  0  0  0  0  0  0  0  0
   11.7196  -17.5632   19.9218 O   0  0  0  0  0  0  0  0  0  0  0  0
    8.7651  -16.0353   23.7828 N   0  0  0  0  0  0  0  0  0  0  0  0
    9.0121  -14.9605   24.8625 C   0  0  1  0  0  0  0  0  0  0  0  0
    7.7424  -14.2283   24.9843 C   0  0  0  0  0  0  0  0  0  0  0  0
    7.4852  -13.0957   25.8535 C   0  0  0  0  0  0  0  0  0  0  0  0
    6.1906  -12.4170   25.9467 C   0  0  0  0  0  0  0  0  0  0  0  0
    6.1822  -11.2596   26.9417 C   0  0  0  0  0  0  0  0  0  0  0  0
    4.8869  -10.6350   27.0590 N   0  0  0  0  0  0  0  0  0  0  0  0
    9.3385  -15.8497   26.0404 C   0  0  0  0  0  0  0  0  0  0  0  0
    9.9406  -15.5091   27.1917 O   0  0  0  0  0  0  0  0  0  0  0  0
    9.0111  -17.1117   25.9745 O   0  0  0  0  0  0  0  0  0  0  0  0
  1  2  1  0
  2  4  1  0
  3  2  2  0
  4  5  1  0
  6  7  1  6
  6  5  1  0
  8  6  1  0
  8  9  2  0
 10 11  1  0
 10  8  1  0
 11 15  1  0
 11 12  1  6
 13 12  1  0
 13 17  1  0
 14 13  2  0
 15 18  1  0
 15 16  2  0
 18 19  1  0
 19 20  1  1
 20 21  1  0
 21 22  1  0
 22 23  1  0
 23 24  1  0
 25 26  1  0
 25 19  1  0
 27 25  2  0
M  END
$$$$
