QDK.pdb
     RDKit          3D

 27 26  0  0  1  0  0  0  0  0999 V2000
    7.4239  -15.1366   15.2455 N   0  0  0  0  0  0  0  0  0  0  0  0
    8.3068  -14.2722   15.9463 C   0  0  0  0  0  0  0  0  0  0  0  0
    9.5490  -14.3476   15.6885 O   0  0  0  0  0  0  0  0  0  0  0  0
    7.7664  -13.3112   16.9527 C   0  0  0  0  0  0  0  0  0  0  0  0
    7.4686  -14.0044   18.2615 C   0  0  0  0  0  0  0  0  0  0  0  0
    8.5829  -13.8967   19.2461 C   0  0  2  0  0  0  0  0  0  0  0  0
    9.8768  -13.7523   18.6584 N   0  0  0  0  0  0  0  0  0  0  0  0
    8.5786  -14.9528   20.2661 C   0  0  0  0  0  0  0  0  0  0  0  0
    7.5200  -15.1905   20.8884 O   0  0  0  0  0  0  0  0  0  0  0  0
    9.7446  -15.7273   20.5797 N   0  0  0  0  0  0  0  0  0  0  0  0
    9.8136  -16.6152   21.7002 C   0  0  1  0  0  0  0  0  0  0  0  0
   10.9548  -17.5847   21.5099 C   0  0  0  0  0  0  0  0  0  0  0  0
   11.0927  -18.5177   22.6498 C   0  0  0  0  0  0  0  0  0  0  0  0
   10.1468  -19.1512   23.1759 O   0  0  0  0  0  0  0  0  0  0  0  0
   10.0253  -15.8756   22.9729 C   0  0  0  0  0  0  0  0  0  0  0  0
   11.0559  -15.1577   23.1613 O   0  0  0  0  0  0  0  0  0  0  0  0
   12.3701  -18.6977   23.1680 O   0  0  0  0  0  0  0  0  0  0  0  0
    9.0865  -15.9601   23.9879 N   0  0  0  0  0  0  0  0  0  0  0  0
    9.1986  -15.0475   25.2274 C   0  0  1  0  0  0  0  0  0  0  0  0
    7.9739  -14.2332   25.2266 C   0  0  0  0  0  0  0  0  0  0  0  0
    7.7121  -13.0767   26.0624 C   0  0  0  0  0  0  0  0  0  0  0  0
    6.4373  -12.3558   26.0806 C   0  0  0  0  0  0  0  0  0  0  0  0
    6.4002  -11.2134   27.0921 C   0  0  0  0  0  0  0  0  0  0  0  0
    5.1297  -10.5301   27.1147 N   0  0  0  0  0  0  0  0  0  0  0  0
    9.2537  -16.0962   26.3146 C   0  0  0  0  0  0  0  0  0  0  0  0
    9.0361  -17.4167   26.2014 O   0  0  0  0  0  0  0  0  0  0  0  0
    9.5471  -15.7164   27.5286 O   0  0  0  0  0  0  0  0  0  0  0  0
  1  2  1  0
  2  4  1  0
  3  2  2  0
  4  5  1  0
  6  7  1  6
  6  5  1  0
  8  6  1  0
  8  9  2  0
 10 11  1  0
 10  8  1  0
 11 15  1  0
 11 12  1  6
 13 12  1  0
 13 17  1  0
 14 13  2  0
 15 18  1  0
 15 16  2  0
 18 19  1  0
 19 20  1  1
 20 21  1  0
 21 22  1  0
 22 23  1  0
 23 24  1  0
 25 26  1  0
 25 19  1  0
 27 25  2  0
M  END
$$$$
