QDK.pdb
     RDKit          3D

 27 26  0  0  1  0  0  0  0  0999 V2000
    8.5326  -21.8995   18.1384 N   0  0  0  0  0  0  0  0  0  0  0  0
    8.2359  -21.2143   16.9300 C   0  0  0  0  0  0  0  0  0  0  0  0
    7.0624  -21.3206   16.4538 O   0  0  0  0  0  0  0  0  0  0  0  0
    9.2898  -20.3988   16.2574 C   0  0  0  0  0  0  0  0  0  0  0  0
   10.5550  -20.3582   17.0820 C   0  0  0  0  0  0  0  0  0  0  0  0
   10.6257  -19.1740   17.9850 C   0  0  2  0  0  0  0  0  0  0  0  0
   10.8465  -17.9329   17.3133 N   0  0  0  0  0  0  0  0  0  0  0  0
   11.5534  -19.3400   19.1109 C   0  0  0  0  0  0  0  0  0  0  0  0
   11.5205  -20.4010   19.7723 O   0  0  0  0  0  0  0  0  0  0  0  0
   12.5009  -18.3301   19.4853 N   0  0  0  0  0  0  0  0  0  0  0  0
   13.4154  -18.4836   20.5756 C   0  0  1  0  0  0  0  0  0  0  0  0
   14.5207  -17.4623   20.4586 C   0  0  0  0  0  0  0  0  0  0  0  0
   15.5269  -17.8404   19.4420 C   0  0  0  0  0  0  0  0  0  0  0  0
   16.1019  -17.0372   18.6694 O   0  0  0  0  0  0  0  0  0  0  0  0
   12.7386  -18.3037   21.8875 C   0  0  0  0  0  0  0  0  0  0  0  0
   12.0322  -17.2779   22.1362 O   0  0  0  0  0  0  0  0  0  0  0  0
   15.8513  -19.1889   19.3451 O   0  0  0  0  0  0  0  0  0  0  0  0
   12.8710  -19.2676   22.8735 N   0  0  0  0  0  0  0  0  0  0  0  0
   12.1339  -19.1075   24.2200 C   0  0  1  0  0  0  0  0  0  0  0  0
   11.9567  -20.4738   24.7346 C   0  0  0  0  0  0  0  0  0  0  0  0
   11.2787  -20.8471   25.9616 C   0  0  0  0  0  0  0  0  0  0  0  0
   11.2175  -22.2176   26.4746 C   0  0  0  0  0  0  0  0  0  0  0  0
   10.4379  -22.3426   27.7809 C   0  0  0  0  0  0  0  0  0  0  0  0
   10.2790  -23.7122   28.2061 N   0  0  0  0  0  0  0  0  0  0  0  0
   13.1507  -18.2807   24.9729 C   0  0  0  0  0  0  0  0  0  0  0  0
   12.9851  -17.6192   26.1300 O   0  0  0  0  0  0  0  0  0  0  0  0
   14.3522  -18.1702   24.4744 O   0  0  0  0  0  0  0  0  0  0  0  0
  1  2  1  0
  2  4  1  0
  3  2  2  0
  4  5  1  0
  6  7  1  6
  6  5  1  0
  8  6  1  0
  8  9  2  0
 10 11  1  0
 10  8  1  0
 11 15  1  0
 11 12  1  6
 13 12  1  0
 13 17  1  0
 14 13  2  0
 15 18  1  0
 15 16  2  0
 18 19  1  0
 19 20  1  1
 20 21  1  0
 21 22  1  0
 22 23  1  0
 23 24  1  0
 25 26  1  0
 25 19  1  0
 27 25  2  0
M  END
$$$$
