QDK.pdb
     RDKit          3D

 27 26  0  0  1  0  0  0  0  0999 V2000
    7.2465  -12.1965   19.1679 N   0  0  0  0  0  0  0  0  0  0  0  0
    7.2594  -13.2132   20.1599 C   0  0  0  0  0  0  0  0  0  0  0  0
    6.9206  -12.8992   21.3438 O   0  0  0  0  0  0  0  0  0  0  0  0
    7.6635  -14.6036   19.7969 C   0  0  0  0  0  0  0  0  0  0  0  0
    7.8685  -14.7388   18.3063 C   0  0  0  0  0  0  0  0  0  0  0  0
    8.1476  -16.1399   17.8799 C   0  0  2  0  0  0  0  0  0  0  0  0
    6.9868  -16.8857   17.5099 N   0  0  0  0  0  0  0  0  0  0  0  0
    8.9831  -16.8929   18.8237 C   0  0  0  0  0  0  0  0  0  0  0  0
    8.4736  -17.8400   19.4624 O   0  0  0  0  0  0  0  0  0  0  0  0
   10.3669  -16.5856   19.0443 N   0  0  0  0  0  0  0  0  0  0  0  0
   11.1937  -17.3186   19.9540 C   0  0  1  0  0  0  0  0  0  0  0  0
   12.6369  -17.2151   19.5241 C   0  0  0  0  0  0  0  0  0  0  0  0
   13.5382  -18.0014   20.3949 C   0  0  0  0  0  0  0  0  0  0  0  0
   13.2567  -19.1150   20.8983 O   0  0  0  0  0  0  0  0  0  0  0  0
   11.0730  -16.8006   21.3428 C   0  0  0  0  0  0  0  0  0  0  0  0
   11.2680  -15.5754   21.6148 O   0  0  0  0  0  0  0  0  0  0  0  0
   14.7871  -17.4555   20.6686 O   0  0  0  0  0  0  0  0  0  0  0  0
   10.7408  -17.6605   22.3767 N   0  0  0  0  0  0  0  0  0  0  0  0
   10.5613  -17.1182   23.8105 C   0  0  1  0  0  0  0  0  0  0  0  0
    9.5770  -18.0075   24.4454 C   0  0  0  0  0  0  0  0  0  0  0  0
    9.2168  -18.0244   25.8506 C   0  0  0  0  0  0  0  0  0  0  0  0
    8.1946  -18.9055   26.4197 C   0  0  0  0  0  0  0  0  0  0  0  0
    8.0226  -18.7414   27.9274 C   0  0  0  0  0  0  0  0  0  0  0  0
    6.9669  -19.5675   28.4610 N   0  0  0  0  0  0  0  0  0  0  0  0
   11.9738  -17.2778   24.3243 C   0  0  0  0  0  0  0  0  0  0  0  0
   12.6148  -16.5204   25.2295 O   0  0  0  0  0  0  0  0  0  0  0  0
   12.6956  -18.2613   23.8596 O   0  0  0  0  0  0  0  0  0  0  0  0
  1  2  1  0
  2  4  1  0
  3  2  2  0
  4  5  1  0
  6  7  1  1
  6  5  1  0
  8  6  1  0
  8  9  2  0
 10 11  1  0
 10  8  1  0
 11 15  1  0
 11 12  1  6
 13 12  1  0
 13 17  1  0
 14 13  2  0
 15 18  1  0
 15 16  2  0
 18 19  1  0
 19 20  1  1
 20 21  1  0
 21 22  1  0
 22 23  1  0
 23 24  1  0
 25 26  1  0
 25 19  1  0
 27 25  2  0
M  END
$$$$
