QDK.pdb
     RDKit          3D

 27 26  0  0  1  0  0  0  0  0999 V2000
    7.0181  -12.6577   17.6752 N   0  0  0  0  0  0  0  0  0  0  0  0
    7.7216  -13.5847   16.8606 C   0  0  0  0  0  0  0  0  0  0  0  0
    7.3890  -13.6803   15.6377 O   0  0  0  0  0  0  0  0  0  0  0  0
    8.8167  -14.4119   17.4479 C   0  0  0  0  0  0  0  0  0  0  0  0
    9.0002  -14.1079   18.9162 C   0  0  0  0  0  0  0  0  0  0  0  0
   10.1837  -14.7924   19.5108 C   0  0  2  0  0  0  0  0  0  0  0  0
   10.9328  -15.5835   18.5868 N   0  0  0  0  0  0  0  0  0  0  0  0
    9.8812  -15.5484   20.7325 C   0  0  0  0  0  0  0  0  0  0  0  0
    8.8014  -15.3344   21.3263 O   0  0  0  0  0  0  0  0  0  0  0  0
   10.7777  -16.5277   21.2759 N   0  0  0  0  0  0  0  0  0  0  0  0
   10.5075  -17.2491   22.4821 C   0  0  1  0  0  0  0  0  0  0  0  0
   11.5166  -18.3595   22.6463 C   0  0  0  0  0  0  0  0  0  0  0  0
   10.9883  -19.6668   22.1981 C   0  0  0  0  0  0  0  0  0  0  0  0
    9.7903  -20.0257   22.2912 O   0  0  0  0  0  0  0  0  0  0  0  0
   10.5750  -16.3649   23.6760 C   0  0  0  0  0  0  0  0  0  0  0  0
   11.5415  -15.5605   23.8539 O   0  0  0  0  0  0  0  0  0  0  0  0
   11.8965  -20.5553   21.6336 O   0  0  0  0  0  0  0  0  0  0  0  0
    9.5686  -16.4064   24.6269 N   0  0  0  0  0  0  0  0  0  0  0  0
    9.5408  -15.3741   25.7738 C   0  0  1  0  0  0  0  0  0  0  0  0
    8.3111  -14.5938   25.5690 C   0  0  0  0  0  0  0  0  0  0  0  0
    7.9225  -13.3990   26.2942 C   0  0  0  0  0  0  0  0  0  0  0  0
    6.6951  -12.6458   26.0265 C   0  0  0  0  0  0  0  0  0  0  0  0
    6.5486  -11.3966   26.8911 C   0  0  0  0  0  0  0  0  0  0  0  0
    5.3121  -10.6935   26.6493 N   0  0  0  0  0  0  0  0  0  0  0  0
    9.4997  -16.3093   26.9605 C   0  0  0  0  0  0  0  0  0  0  0  0
    9.8353  -16.0447   28.2338 O   0  0  0  0  0  0  0  0  0  0  0  0
    9.0922  -17.5350   26.7706 O   0  0  0  0  0  0  0  0  0  0  0  0
  1  2  1  0
  2  4  1  0
  3  2  2  0
  4  5  1  0
  6  7  1  6
  6  5  1  0
  8  6  1  0
  8  9  2  0
 10 11  1  0
 10  8  1  0
 11 15  1  0
 11 12  1  1
 13 12  1  0
 13 17  1  0
 14 13  2  0
 15 18  1  0
 15 16  2  0
 18 19  1  0
 19 20  1  6
 20 21  1  0
 21 22  1  0
 22 23  1  0
 23 24  1  0
 25 26  1  0
 25 19  1  0
 27 25  2  0
M  END
$$$$
