CGL.pdb
     RDKit          3D

 19 18  0  0  1  0  0  0  0  0999 V2000
   27.2220  -24.0891  -17.3779 N   0  0  0  0  0  0  0  0  0  0  0  0
   26.4257  -22.9966  -17.8490 C   0  0  1  0  0  0  0  0  0  0  0  0
   25.0745  -23.5131  -18.2586 C   0  0  0  0  0  0  0  0  0  0  0  0
   25.0968  -25.2736  -18.6144 S   0  0  0  0  0  0  0  0  0  0  0  0
   26.2269  -21.9571  -16.7953 C   0  0  0  0  0  0  0  0  0  0  0  0
   25.4954  -20.9668  -17.0532 O   0  0  0  0  0  0  0  0  0  0  0  0
   26.8421  -22.0623  -15.5171 N   0  0  0  0  0  0  0  0  0  0  0  0
   26.5678  -21.0294  -14.5530 C   0  0  0  0  0  0  0  0  0  0  0  0
   25.4540  -21.3687  -13.6473 C   0  0  0  0  0  0  0  0  0  0  0  0
   24.6831  -22.3481  -13.8060 O   0  0  0  0  0  0  0  0  0  0  0  0
   26.2418  -19.6622   -8.5772 C   0  0  0  0  0  0  0  0  0  0  0  0
   25.9568  -20.4391   -9.8580 C   0  0  1  0  0  0  0  0  0  0  0  0
   25.9997  -21.9138   -9.4364 C   0  0  0  0  0  0  0  0  0  0  0  0
   24.5593  -20.1106  -10.2913 C   0  0  0  0  0  0  0  0  0  0  0  0
   24.1362  -20.8017  -11.5678 C   0  0  2  0  0  0  0  0  0  0  0  0
   25.2272  -20.5417  -12.5176 N   0  0  0  0  0  0  0  0  0  0  0  0
   22.8751  -20.2129  -12.0253 C   0  0  0  0  0  0  0  0  0  0  0  0
   22.9334  -19.2967  -12.9105 O   0  0  0  0  0  0  0  0  0  0  0  0
   21.6301  -20.5604  -11.5853 O   0  0  0  0  0  0  0  0  0  0  0  0
  2  5  1  0
  2  1  1  1
  3  2  1  0
  4  3  1  0
  5  6  2  0
  7  8  1  0
  7  5  1  0
  9 10  2  0
  9  8  1  0
 12 11  1  1
 12 13  1  0
 12 14  1  0
 15 14  1  1
 15 16  1  0
 15 17  1  0
 16  9  1  0
 17 19  1  0
 18 17  2  0
M  END
$$$$
