CGL.pdb
     RDKit          3D

 19 18  0  0  1  0  0  0  0  0999 V2000
   27.7552  -26.7338  -16.0755 N   0  0  0  0  0  0  0  0  0  0  0  0
   26.9120  -25.9948  -16.9656 C   0  0  1  0  0  0  0  0  0  0  0  0
   25.7603  -26.8639  -17.3879 C   0  0  0  0  0  0  0  0  0  0  0  0
   26.2951  -28.2874  -18.3438 S   0  0  0  0  0  0  0  0  0  0  0  0
   26.3572  -24.7687  -16.3181 C   0  0  0  0  0  0  0  0  0  0  0  0
   26.2191  -24.7550  -15.0678 O   0  0  0  0  0  0  0  0  0  0  0  0
   25.9849  -23.6259  -17.0788 N   0  0  0  0  0  0  0  0  0  0  0  0
   25.5284  -22.4632  -16.3637 C   0  0  0  0  0  0  0  0  0  0  0  0
   24.0581  -22.3824  -16.2754 C   0  0  0  0  0  0  0  0  0  0  0  0
   23.3235  -21.8426  -17.1400 O   0  0  0  0  0  0  0  0  0  0  0  0
   21.4855  -26.3938  -13.5203 C   0  0  0  0  0  0  0  0  0  0  0  0
   21.7976  -25.3671  -14.6037 C   0  0  1  0  0  0  0  0  0  0  0  0
   20.6985  -25.5650  -15.6558 C   0  0  0  0  0  0  0  0  0  0  0  0
   21.6371  -24.0031  -14.0015 C   0  0  0  0  0  0  0  0  0  0  0  0
   21.9631  -22.8728  -14.9514 C   0  0  2  0  0  0  0  0  0  0  0  0
   23.4183  -22.9484  -15.1432 N   0  0  0  0  0  0  0  0  0  0  0  0
   21.5693  -21.6068  -14.3282 C   0  0  0  0  0  0  0  0  0  0  0  0
   22.4263  -21.0145  -13.5924 O   0  0  0  0  0  0  0  0  0  0  0  0
   20.3554  -20.9972  -14.4658 O   0  0  0  0  0  0  0  0  0  0  0  0
  2  5  1  0
  2  1  1  1
  3  2  1  0
  4  3  1  0
  5  6  2  0
  7  8  1  0
  7  5  1  0
  9 10  2  0
  9  8  1  0
 12 11  1  1
 12 13  1  0
 12 14  1  0
 15 14  1  1
 15 16  1  0
 15 17  1  0
 16  9  1  0
 17 19  1  0
 18 17  2  0
M  END
$$$$
