CGL.pdb
     RDKit          3D

 19 18  0  0  1  0  0  0  0  0999 V2000
   19.1823  -16.1273  -17.3038 N   0  0  0  0  0  0  0  0  0  0  0  0
   18.4736  -15.1163  -16.5790 C   0  0  1  0  0  0  0  0  0  0  0  0
   17.9297  -15.7104  -15.3096 C   0  0  0  0  0  0  0  0  0  0  0  0
   16.4204  -16.6443  -15.5862 S   0  0  0  0  0  0  0  0  0  0  0  0
   19.3575  -13.9690  -16.2147 C   0  0  0  0  0  0  0  0  0  0  0  0
   20.4239  -14.2021  -15.5893 O   0  0  0  0  0  0  0  0  0  0  0  0
   19.0220  -12.6297  -16.5569 N   0  0  0  0  0  0  0  0  0  0  0  0
   19.9462  -11.5905  -16.1861 C   0  0  0  0  0  0  0  0  0  0  0  0
   19.4856  -10.2446  -16.5768 C   0  0  0  0  0  0  0  0  0  0  0  0
   18.7576  -10.0046  -17.5723 O   0  0  0  0  0  0  0  0  0  0  0  0
   17.1031   -6.2120  -17.3148 C   0  0  0  0  0  0  0  0  0  0  0  0
   17.3217   -6.4077  -15.8184 C   0  0  1  0  0  0  0  0  0  0  0  0
   15.9088   -6.4809  -15.2249 C   0  0  0  0  0  0  0  0  0  0  0  0
   17.9873   -7.7372  -15.6232 C   0  0  0  0  0  0  0  0  0  0  0  0
   19.4312   -7.7701  -16.0704 C   0  0  2  0  0  0  0  0  0  0  0  0
   19.8844   -9.1386  -15.7836 N   0  0  0  0  0  0  0  0  0  0  0  0
   20.1859   -6.7819  -15.2958 C   0  0  0  0  0  0  0  0  0  0  0  0
   20.6844   -7.1540  -14.1824 O   0  0  0  0  0  0  0  0  0  0  0  0
   20.4063   -5.4852  -15.6621 O   0  0  0  0  0  0  0  0  0  0  0  0
  2  5  1  0
  2  1  1  1
  3  2  1  0
  4  3  1  0
  5  6  2  0
  7  8  1  0
  7  5  1  0
  9 10  2  0
  9  8  1  0
 12 11  1  6
 12 13  1  0
 12 14  1  0
 15 14  1  1
 15 16  1  0
 15 17  1  0
 16  9  1  0
 17 19  1  0
 18 17  2  0
M  END
$$$$
