CGL.pdb
     RDKit          3D

 19 18  0  0  1  0  0  0  0  0999 V2000
   27.1345  -20.9943  -16.4699 N   0  0  0  0  0  0  0  0  0  0  0  0
   27.5947  -19.8037  -15.8216 C   0  0  1  0  0  0  0  0  0  0  0  0
   27.4105  -18.6353  -16.7495 C   0  0  0  0  0  0  0  0  0  0  0  0
   28.6562  -18.5888  -18.0427 S   0  0  0  0  0  0  0  0  0  0  0  0
   26.8365  -19.5248  -14.5655 C   0  0  0  0  0  0  0  0  0  0  0  0
   25.5934  -19.7171  -14.5542 O   0  0  0  0  0  0  0  0  0  0  0  0
   27.4848  -19.0503  -13.3917 N   0  0  0  0  0  0  0  0  0  0  0  0
   26.6695  -18.7820  -12.2363 C   0  0  0  0  0  0  0  0  0  0  0  0
   26.5227  -19.9529  -11.3512 C   0  0  0  0  0  0  0  0  0  0  0  0
   26.3984  -21.1364  -11.7543 O   0  0  0  0  0  0  0  0  0  0  0  0
   27.9245  -18.9611   -6.1993 C   0  0  0  0  0  0  0  0  0  0  0  0
   27.7755  -19.6027   -7.5746 C   0  0  1  0  0  0  0  0  0  0  0  0
   28.8320  -20.7150   -7.6017 C   0  0  0  0  0  0  0  0  0  0  0  0
   26.4181  -20.2368   -7.6392 C   0  0  0  0  0  0  0  0  0  0  0  0
   26.0570  -20.7711   -9.0068 C   0  0  2  0  0  0  0  0  0  0  0  0
   26.5201  -19.7422   -9.9487 N   0  0  0  0  0  0  0  0  0  0  0  0
   24.6040  -20.9454   -9.0747 C   0  0  0  0  0  0  0  0  0  0  0  0
   23.9389  -20.1210   -9.7851 O   0  0  0  0  0  0  0  0  0  0  0  0
   23.8902  -21.9209   -8.4399 O   0  0  0  0  0  0  0  0  0  0  0  0
  2  5  1  0
  2  1  1  6
  3  2  1  0
  4  3  1  0
  5  6  2  0
  7  8  1  0
  7  5  1  0
  9 10  2  0
  9  8  1  0
 12 11  1  1
 12 13  1  0
 12 14  1  0
 15 14  1  1
 15 16  1  0
 15 17  1  0
 16  9  1  0
 17 19  1  0
 18 17  2  0
M  END
$$$$
