CGL.pdb
     RDKit          3D

 19 18  0  0  1  0  0  0  0  0999 V2000
   20.2078  -22.5456  -16.4399 N   0  0  0  0  0  0  0  0  0  0  0  0
   20.9586  -23.7645  -16.4512 C   0  0  1  0  0  0  0  0  0  0  0  0
   22.2400  -23.5465  -17.2065 C   0  0  0  0  0  0  0  0  0  0  0  0
   21.9814  -23.4801  -18.9828 S   0  0  0  0  0  0  0  0  0  0  0  0
   21.3033  -24.2192  -15.0711 C   0  0  0  0  0  0  0  0  0  0  0  0
   21.3545  -23.3657  -14.1483 O   0  0  0  0  0  0  0  0  0  0  0  0
   21.5725  -25.5854  -14.7803 N   0  0  0  0  0  0  0  0  0  0  0  0
   21.8180  -25.9440  -13.4082 C   0  0  0  0  0  0  0  0  0  0  0  0
   20.7203  -26.7297  -12.8136 C   0  0  0  0  0  0  0  0  0  0  0  0
   19.6131  -26.9369  -13.3702 O   0  0  0  0  0  0  0  0  0  0  0  0
   22.4645  -30.7629   -9.7934 C   0  0  0  0  0  0  0  0  0  0  0  0
   21.6939  -29.9094  -10.7947 C   0  0  1  0  0  0  0  0  0  0  0  0
   20.9486  -30.9205  -11.6758 C   0  0  0  0  0  0  0  0  0  0  0  0
   20.6812  -29.1097  -10.0307 C   0  0  0  0  0  0  0  0  0  0  0  0
   19.8976  -28.1387  -10.8847 C   0  0  2  0  0  0  0  0  0  0  0  0
   20.9150  -27.2948  -11.5274 N   0  0  0  0  0  0  0  0  0  0  0  0
   19.0189  -27.3517  -10.0159 C   0  0  0  0  0  0  0  0  0  0  0  0
   19.4799  -26.2663   -9.5304 O   0  0  0  0  0  0  0  0  0  0  0  0
   17.7376  -27.6786   -9.6759 O   0  0  0  0  0  0  0  0  0  0  0  0
  2  5  1  0
  2  1  1  1
  3  2  1  0
  4  3  1  0
  5  6  2  0
  7  8  1  0
  7  5  1  0
  9 10  2  0
  9  8  1  0
 12 11  1  1
 12 13  1  0
 12 14  1  0
 15 14  1  1
 15 16  1  0
 15 17  1  0
 16  9  1  0
 17 19  1  0
 18 17  2  0
M  END
$$$$
