CGL.pdb
     RDKit          3D

 19 18  0  0  1  0  0  0  0  0999 V2000
   23.6369  -19.4371  -13.5634 N   0  0  0  0  0  0  0  0  0  0  0  0
   24.4645  -19.9307  -14.6222 C   0  0  1  0  0  0  0  0  0  0  0  0
   24.9362  -18.7738  -15.4583 C   0  0  0  0  0  0  0  0  0  0  0  0
   23.6035  -17.6420  -15.8700 S   0  0  0  0  0  0  0  0  0  0  0  0
   25.6657  -20.6493  -14.1016 C   0  0  0  0  0  0  0  0  0  0  0  0
   26.4401  -21.2058  -14.9220 O   0  0  0  0  0  0  0  0  0  0  0  0
   25.9502  -20.7172  -12.7096 N   0  0  0  0  0  0  0  0  0  0  0  0
   27.1193  -21.4491  -12.2982 C   0  0  0  0  0  0  0  0  0  0  0  0
   27.3670  -21.3690  -10.8463 C   0  0  0  0  0  0  0  0  0  0  0  0
   28.2415  -22.0348  -10.2375 O   0  0  0  0  0  0  0  0  0  0  0  0
   28.1104  -18.2412   -6.8647 C   0  0  0  0  0  0  0  0  0  0  0  0
   27.8971  -19.4633   -7.7515 C   0  0  1  0  0  0  0  0  0  0  0  0
   28.5317  -20.6239   -6.9741 C   0  0  0  0  0  0  0  0  0  0  0  0
   26.4206  -19.7078   -7.8464 C   0  0  0  0  0  0  0  0  0  0  0  0
   26.0482  -20.8594   -8.7526 C   0  0  2  0  0  0  0  0  0  0  0  0
   26.5713  -20.4847  -10.0740 N   0  0  0  0  0  0  0  0  0  0  0  0
   24.5891  -20.9904   -8.7708 C   0  0  0  0  0  0  0  0  0  0  0  0
   23.9746  -20.6462   -9.8340 O   0  0  0  0  0  0  0  0  0  0  0  0
   23.8200  -21.4528   -7.7419 O   0  0  0  0  0  0  0  0  0  0  0  0
  2  5  1  0
  2  1  1  1
  3  2  1  0
  4  3  1  0
  5  6  2  0
  7  8  1  0
  7  5  1  0
  9 10  2  0
  9  8  1  0
 12 11  1  1
 12 13  1  0
 12 14  1  0
 15 14  1  1
 15 16  1  0
 15 17  1  0
 16  9  1  0
 17 19  1  0
 18 17  2  0
M  END
$$$$
