CGL.pdb
     RDKit          3D

 19 18  0  0  1  0  0  0  0  0999 V2000
   17.9698  -25.6920   -5.0709 N   0  0  0  0  0  0  0  0  0  0  0  0
   16.6727  -25.8051   -4.4756 C   0  0  1  0  0  0  0  0  0  0  0  0
   16.7048  -26.8813   -3.4263 C   0  0  0  0  0  0  0  0  0  0  0  0
   17.1371  -28.4857   -4.1084 S   0  0  0  0  0  0  0  0  0  0  0  0
   16.2463  -24.5312   -3.8231 C   0  0  0  0  0  0  0  0  0  0  0  0
   17.1296  -23.7596   -3.3683 O   0  0  0  0  0  0  0  0  0  0  0  0
   14.8741  -24.1751   -3.7060 N   0  0  0  0  0  0  0  0  0  0  0  0
   14.5586  -22.9090   -3.0984 C   0  0  0  0  0  0  0  0  0  0  0  0
   14.1245  -23.0368   -1.6944 C   0  0  0  0  0  0  0  0  0  0  0  0
   13.8549  -24.1271   -1.1312 O   0  0  0  0  0  0  0  0  0  0  0  0
   16.9735  -21.5175    2.1024 C   0  0  0  0  0  0  0  0  0  0  0  0
   15.8789  -22.2349    1.3199 C   0  0  1  0  0  0  0  0  0  0  0  0
   15.5404  -23.4691    2.1663 C   0  0  0  0  0  0  0  0  0  0  0  0
   14.6771  -21.3386    1.2875 C   0  0  0  0  0  0  0  0  0  0  0  0
   13.5265  -21.8872    0.4743 C   0  0  2  0  0  0  0  0  0  0  0  0
   13.9991  -21.8572   -0.9171 N   0  0  0  0  0  0  0  0  0  0  0  0
   12.3612  -21.0197    0.6637 C   0  0  0  0  0  0  0  0  0  0  0  0
   11.8343  -20.9770    1.8243 O   0  0  0  0  0  0  0  0  0  0  0  0
   11.7827  -20.2446   -0.3000 O   0  0  0  0  0  0  0  0  0  0  0  0
  2  5  1  0
  2  1  1  1
  3  2  1  0
  4  3  1  0
  5  6  2  0
  7  8  1  0
  7  5  1  0
  9 10  2  0
  9  8  1  0
 12 11  1  1
 12 13  1  0
 12 14  1  0
 15 14  1  1
 15 16  1  0
 15 17  1  0
 16  9  1  0
 17 19  1  0
 18 17  2  0
M  END
$$$$
