CGL.pdb
     RDKit          3D

 19 18  0  0  1  0  0  0  0  0999 V2000
   18.1563  -12.0634  -15.5442 N   0  0  0  0  0  0  0  0  0  0  0  0
   17.0132  -11.3655  -15.0386 C   0  0  1  0  0  0  0  0  0  0  0  0
   15.7949  -12.2306  -15.2048 C   0  0  0  0  0  0  0  0  0  0  0  0
   15.4215  -12.5576  -16.9310 S   0  0  0  0  0  0  0  0  0  0  0  0
   17.1570  -11.0375  -13.5887 C   0  0  0  0  0  0  0  0  0  0  0  0
   17.8426  -11.8011  -12.8611 O   0  0  0  0  0  0  0  0  0  0  0  0
   16.5404   -9.8897  -13.0180 N   0  0  0  0  0  0  0  0  0  0  0  0
   16.8500   -9.5723  -11.6487 C   0  0  0  0  0  0  0  0  0  0  0  0
   16.2575   -8.2961  -11.2057 C   0  0  0  0  0  0  0  0  0  0  0  0
   15.8575   -7.3921  -11.9812 O   0  0  0  0  0  0  0  0  0  0  0  0
   12.7953   -8.2149   -7.0901 C   0  0  0  0  0  0  0  0  0  0  0  0
   13.5123   -7.9111   -8.4012 C   0  0  1  0  0  0  0  0  0  0  0  0
   12.5821   -6.9378   -9.1370 C   0  0  0  0  0  0  0  0  0  0  0  0
   14.7855   -7.1911   -8.0704 C   0  0  0  0  0  0  0  0  0  0  0  0
   15.5976   -6.7960   -9.2830 C   0  0  2  0  0  0  0  0  0  0  0  0
   16.1248   -8.0613   -9.8133 N   0  0  0  0  0  0  0  0  0  0  0  0
   16.6771   -5.9027   -8.8551 C   0  0  0  0  0  0  0  0  0  0  0  0
   17.7418   -6.4340   -8.3965 O   0  0  0  0  0  0  0  0  0  0  0  0
   16.6458   -4.5385   -8.9038 O   0  0  0  0  0  0  0  0  0  0  0  0
  2  5  1  0
  2  1  1  1
  3  2  1  0
  4  3  1  0
  5  6  2  0
  7  8  1  0
  7  5  1  0
  9 10  2  0
  9  8  1  0
 12 11  1  1
 12 13  1  0
 12 14  1  0
 15 14  1  1
 15 16  1  0
 15 17  1  0
 16  9  1  0
 17 19  1  0
 18 17  2  0
M  END
$$$$
