CGL.pdb
     RDKit          3D

 19 18  0  0  1  0  0  0  0  0999 V2000
   14.4148  -10.9346  -15.8066 N   0  0  0  0  0  0  0  0  0  0  0  0
   15.4155  -11.8180  -16.3241 C   0  0  1  0  0  0  0  0  0  0  0  0
   14.9012  -12.4616  -17.5817 C   0  0  0  0  0  0  0  0  0  0  0  0
   13.5218  -13.5681  -17.2662 S   0  0  0  0  0  0  0  0  0  0  0  0
   16.6798  -11.0950  -16.6546 C   0  0  0  0  0  0  0  0  0  0  0  0
   17.7104  -11.7676  -16.9153 O   0  0  0  0  0  0  0  0  0  0  0  0
   16.7426   -9.6742  -16.6805 N   0  0  0  0  0  0  0  0  0  0  0  0
   18.0031   -9.0640  -17.0130 C   0  0  0  0  0  0  0  0  0  0  0  0
   18.6515   -8.4163  -15.8572 C   0  0  0  0  0  0  0  0  0  0  0  0
   18.0733   -8.1567  -14.7723 O   0  0  0  0  0  0  0  0  0  0  0  0
   23.3461  -10.2405  -14.4170 C   0  0  0  0  0  0  0  0  0  0  0  0
   21.9757   -9.5874  -14.2733 C   0  0  1  0  0  0  0  0  0  0  0  0
   21.7375   -9.5116  -12.7595 C   0  0  0  0  0  0  0  0  0  0  0  0
   22.0766   -8.1898  -14.8076 C   0  0  0  0  0  0  0  0  0  0  0  0
   20.7569   -7.4529  -14.8463 C   0  0  2  0  0  0  0  0  0  0  0  0
   20.0194   -8.0574  -15.9648 N   0  0  0  0  0  0  0  0  0  0  0  0
   21.0191   -6.0311  -15.0830 C   0  0  0  0  0  0  0  0  0  0  0  0
   20.9218   -5.5997  -16.2792 O   0  0  0  0  0  0  0  0  0  0  0  0
   21.3614   -5.1167  -14.1285 O   0  0  0  0  0  0  0  0  0  0  0  0
  2  5  1  0
  2  1  1  6
  3  2  1  0
  4  3  1  0
  5  6  2  0
  7  8  1  0
  7  5  1  0
  9 10  2  0
  9  8  1  0
 12 11  1  1
 12 13  1  0
 12 14  1  0
 15 14  1  6
 15 16  1  0
 15 17  1  0
 16  9  1  0
 17 19  1  0
 18 17  2  0
M  END
$$$$
