EYD.pdb
     RDKit          3D

 30 30  0  0  1  0  0  0  0  0999 V2000
   21.0361  -21.1081   -7.1139 N   0  0  0  0  0  0  0  0  0  0  0  0
   21.7988  -21.9884   -8.0134 C   0  0  1  0  0  0  0  0  0  0  0  0
   20.8412  -22.9544   -8.6546 C   0  0  0  0  0  0  0  0  0  0  0  0
   19.4231  -22.7229   -8.2506 C   0  0  0  0  0  0  0  0  0  0  0  0
   19.0495  -23.7916   -7.2525 C   0  0  0  0  0  0  0  0  0  0  0  0
   18.1643  -24.6417   -7.4995 O   0  0  0  0  0  0  0  0  0  0  0  0
   22.4528  -21.1069   -9.0028 C   0  0  0  0  0  0  0  0  0  0  0  0
   22.0014  -19.9525   -9.3123 O   0  0  0  0  0  0  0  0  0  0  0  0
   19.7535  -23.7658   -6.0460 O   0  0  0  0  0  0  0  0  0  0  0  0
   28.4440  -18.6310  -15.1189 O   0  0  0  0  0  0  0  0  0  0  0  0
   27.7781  -19.1802  -14.0202 C   0  0  0  0  0  0  0  0  0  0  0  0
   27.2250  -18.3904  -13.0586 C   0  0  0  0  0  0  0  0  0  0  0  0
   26.5597  -18.9419  -11.9609 C   0  0  0  0  0  0  0  0  0  0  0  0
   26.4444  -20.3047  -11.8204 C   0  0  0  0  0  0  0  0  0  0  0  0
   25.7444  -20.9148  -10.6667 C   0  0  0  0  0  0  0  0  0  0  0  0
   24.2684  -20.5907  -10.6649 C   0  0  2  0  0  0  0  0  0  0  0  0
   23.6439  -21.4679   -9.6976 N   0  0  0  0  0  0  0  0  0  0  0  0
   23.6302  -20.8066  -11.9634 C   0  0  0  0  0  0  0  0  0  0  0  0
   23.4056  -21.9687  -12.3668 O   0  0  0  0  0  0  0  0  0  0  0  0
   27.0040  -21.1001  -12.7933 C   0  0  0  0  0  0  0  0  0  0  0  0
   27.6701  -20.5498  -13.8923 C   0  0  0  0  0  0  0  0  0  0  0  0
   23.2292  -19.7535  -12.8380 N   0  0  0  0  0  0  0  0  0  0  0  0
   22.6098  -19.9258  -14.1033 C   0  0  1  0  0  0  0  0  0  0  0  0
   21.8063  -18.7494  -14.5752 C   0  0  0  0  0  0  0  0  0  0  0  0
   21.0654  -19.0163  -15.8180 C   0  0  0  0  0  0  0  0  0  0  0  0
   21.0765  -20.1135  -16.4345 O   0  0  0  0  0  0  0  0  0  0  0  0
   23.5935  -20.3245  -15.1333 C   0  0  0  0  0  0  0  0  0  0  0  0
   23.5602  -21.5914  -15.6875 O   0  0  0  0  0  0  0  0  0  0  0  0
   20.3004  -17.9902  -16.3505 O   0  0  0  0  0  0  0  0  0  0  0  0
   24.4784  -19.5312  -15.5301 O   0  0  0  0  0  0  0  0  0  0  0  0
  2  1  1  1
  2  3  1  0
  3  4  1  0
  4  5  1  0
  5  9  1  0
  6  5  2  0
  7  2  1  0
  8  7  2  0
 10 11  1  0
 11 12  2  0
 12 13  1  0
 14 15  1  0
 14 13  2  0
 16 15  1  6
 16 18  1  0
 16 17  1  0
 17  7  1  0
 18 19  2  0
 20 14  1  0
 21 20  2  0
 21 11  1  0
 22 23  1  0
 22 18  1  0
 24 25  1  0
 23 24  1  6
 25 29  1  0
 26 25  2  0
 27 28  1  0
 27 23  1  0
 30 27  2  0
M  END
$$$$
