EYD.pdb
     RDKit          3D

 30 30  0  0  1  0  0  0  0  0999 V2000
   22.1659  -30.2781  -15.5701 N   0  0  0  0  0  0  0  0  0  0  0  0
   21.6744  -31.2670  -14.5973 C   0  0  1  0  0  0  0  0  0  0  0  0
   22.1993  -32.6200  -14.9911 C   0  0  0  0  0  0  0  0  0  0  0  0
   23.6143  -32.5802  -15.4643 C   0  0  0  0  0  0  0  0  0  0  0  0
   24.2961  -33.8367  -14.9802 C   0  0  0  0  0  0  0  0  0  0  0  0
   25.4988  -34.0724  -15.2354 O   0  0  0  0  0  0  0  0  0  0  0  0
   22.1740  -30.8346  -13.2755 C   0  0  0  0  0  0  0  0  0  0  0  0
   23.1649  -30.0411  -13.1314 O   0  0  0  0  0  0  0  0  0  0  0  0
   23.4991  -34.7092  -14.2350 O   0  0  0  0  0  0  0  0  0  0  0  0
   19.0700  -25.3017  -12.5360 O   0  0  0  0  0  0  0  0  0  0  0  0
   19.4959  -26.4888  -11.9347 C   0  0  0  0  0  0  0  0  0  0  0  0
   20.5900  -26.5208  -11.1245 C   0  0  0  0  0  0  0  0  0  0  0  0
   21.0138  -27.7091  -10.5244 C   0  0  0  0  0  0  0  0  0  0  0  0
   20.3343  -28.8853  -10.7364 C   0  0  0  0  0  0  0  0  0  0  0  0
   20.7624  -30.1584  -10.1125 C   0  0  0  0  0  0  0  0  0  0  0  0
   22.0018  -30.7211  -10.7689 C   0  0  2  0  0  0  0  0  0  0  0  0
   21.5939  -31.2652  -12.0467 N   0  0  0  0  0  0  0  0  0  0  0  0
   22.6299  -31.7896   -9.9918 C   0  0  0  0  0  0  0  0  0  0  0  0
   22.2306  -32.9689  -10.1091 O   0  0  0  0  0  0  0  0  0  0  0  0
   19.2295  -28.8501  -11.5552 C   0  0  0  0  0  0  0  0  0  0  0  0
   18.8041  -27.6618  -12.1565 C   0  0  0  0  0  0  0  0  0  0  0  0
   23.7034  -31.5820   -9.0757 N   0  0  0  0  0  0  0  0  0  0  0  0
   24.2884  -32.5804   -8.2539 C   0  0  1  0  0  0  0  0  0  0  0  0
   25.5081  -32.1381   -7.4994 C   0  0  0  0  0  0  0  0  0  0  0  0
   25.9907  -33.1437   -6.5400 C   0  0  0  0  0  0  0  0  0  0  0  0
   25.4332  -34.2515   -6.3254 O   0  0  0  0  0  0  0  0  0  0  0  0
   23.2940  -33.1653   -7.3284 C   0  0  0  0  0  0  0  0  0  0  0  0
   22.3007  -32.3797   -6.7721 O   0  0  0  0  0  0  0  0  0  0  0  0
   27.1395  -32.8548   -5.8200 O   0  0  0  0  0  0  0  0  0  0  0  0
   23.3231  -34.3804   -7.0246 O   0  0  0  0  0  0  0  0  0  0  0  0
  2  1  1  6
  2  3  1  0
  3  4  1  0
  4  5  1  0
  5  9  1  0
  6  5  2  0
  7  2  1  0
  8  7  2  0
 10 11  1  0
 11 12  2  0
 12 13  1  0
 14 15  1  0
 14 13  2  0
 16 15  1  1
 16 18  1  0
 16 17  1  0
 17  7  1  0
 18 19  2  0
 20 14  1  0
 21 20  2  0
 21 11  1  0
 22 23  1  0
 22 18  1  0
 24 25  1  0
 23 24  1  1
 25 29  1  0
 26 25  2  0
 27 28  1  0
 27 23  1  0
 30 27  2  0
M  END
$$$$
