EYD.pdb
     RDKit          3D

 30 30  0  0  1  0  0  0  0  0999 V2000
   45.1049  -12.6968   -7.4745 N   0  0  0  0  0  0  0  0  0  0  0  0
   44.4923  -11.9218   -6.3837 C   0  0  1  0  0  0  0  0  0  0  0  0
   45.5262  -10.9776   -5.8350 C   0  0  0  0  0  0  0  0  0  0  0  0
   46.5893  -11.6712   -5.0499 C   0  0  0  0  0  0  0  0  0  0  0  0
   47.4959  -10.6132   -4.4695 C   0  0  0  0  0  0  0  0  0  0  0  0
   47.6766   -9.5152   -5.0430 O   0  0  0  0  0  0  0  0  0  0  0  0
   43.3402  -11.2098   -6.9749 C   0  0  0  0  0  0  0  0  0  0  0  0
   43.3124  -10.8198   -8.1912 O   0  0  0  0  0  0  0  0  0  0  0  0
   48.1128  -10.9418   -3.2599 O   0  0  0  0  0  0  0  0  0  0  0  0
   35.5402   -7.0168   -7.6136 O   0  0  0  0  0  0  0  0  0  0  0  0
   36.5996   -7.8383   -7.2197 C   0  0  0  0  0  0  0  0  0  0  0  0
   37.2955   -7.5979   -6.0740 C   0  0  0  0  0  0  0  0  0  0  0  0
   38.3544   -8.4207   -5.6823 C   0  0  0  0  0  0  0  0  0  0  0  0
   38.7250   -9.5017   -6.4466 C   0  0  0  0  0  0  0  0  0  0  0  0
   39.8435  -10.3895   -6.0541 C   0  0  0  0  0  0  0  0  0  0  0  0
   41.1251  -10.0359   -6.7724 C   0  0  2  0  0  0  0  0  0  0  0  0
   42.1600  -10.8964   -6.2396 N   0  0  0  0  0  0  0  0  0  0  0  0
   41.5325   -8.6453   -6.5715 C   0  0  0  0  0  0  0  0  0  0  0  0
   42.1050   -8.3057   -5.5128 O   0  0  0  0  0  0  0  0  0  0  0  0
   38.0204   -9.7421   -7.6033 C   0  0  0  0  0  0  0  0  0  0  0  0
   36.9606   -8.9197   -7.9967 C   0  0  0  0  0  0  0  0  0  0  0  0
   41.3191   -7.6075   -7.5265 N   0  0  0  0  0  0  0  0  0  0  0  0
   41.7352   -6.2583   -7.3823 C   0  0  1  0  0  0  0  0  0  0  0  0
   43.2011   -6.0255   -7.6048 C   0  0  0  0  0  0  0  0  0  0  0  0
   43.6056   -4.6291   -7.3784 C   0  0  0  0  0  0  0  0  0  0  0  0
   42.8380   -3.7211   -6.9657 O   0  0  0  0  0  0  0  0  0  0  0  0
   40.9344   -5.3546   -8.2365 C   0  0  0  0  0  0  0  0  0  0  0  0
   40.1434   -4.3694   -7.6737 O   0  0  0  0  0  0  0  0  0  0  0  0
   44.9235   -4.2854   -7.6366 O   0  0  0  0  0  0  0  0  0  0  0  0
   40.9501   -5.4555   -9.4852 O   0  0  0  0  0  0  0  0  0  0  0  0
  2  1  1  6
  2  3  1  0
  3  4  1  0
  4  5  1  0
  5  9  1  0
  6  5  2  0
  7  2  1  0
  8  7  2  0
 10 11  1  0
 11 12  2  0
 12 13  1  0
 14 15  1  0
 14 13  2  0
 16 15  1  1
 16 18  1  0
 16 17  1  0
 17  7  1  0
 18 19  2  0
 20 14  1  0
 21 20  2  0
 21 11  1  0
 22 23  1  0
 22 18  1  0
 24 25  1  0
 23 24  1  6
 25 29  1  0
 26 25  2  0
 27 28  1  0
 27 23  1  0
 30 27  2  0
M  END
$$$$
