EYD.pdb
     RDKit          3D

 30 30  0  0  1  0  0  0  0  0999 V2000
   23.6271  -13.2823  -18.3134 N   0  0  0  0  0  0  0  0  0  0  0  0
   23.6973  -12.5681  -17.0287 C   0  0  1  0  0  0  0  0  0  0  0  0
   25.1451  -12.3378  -16.6934 C   0  0  0  0  0  0  0  0  0  0  0  0
   25.8419  -13.5776  -16.2406 C   0  0  0  0  0  0  0  0  0  0  0  0
   26.4997  -14.2016  -17.4473 C   0  0  0  0  0  0  0  0  0  0  0  0
   27.2386  -13.5386  -18.2100 O   0  0  0  0  0  0  0  0  0  0  0  0
   22.9566  -11.3030  -17.2145 C   0  0  0  0  0  0  0  0  0  0  0  0
   23.2273  -10.4678  -18.1427 O   0  0  0  0  0  0  0  0  0  0  0  0
   26.2288  -15.5569  -17.6513 O   0  0  0  0  0  0  0  0  0  0  0  0
   15.9588   -6.0029  -17.7183 O   0  0  0  0  0  0  0  0  0  0  0  0
   16.8671   -7.0438  -17.5095 C   0  0  0  0  0  0  0  0  0  0  0  0
   17.7747   -7.3951  -18.4620 C   0  0  0  0  0  0  0  0  0  0  0  0
   18.6819   -8.4364  -18.2507 C   0  0  0  0  0  0  0  0  0  0  0  0
   18.6833   -9.1389  -17.0690 C   0  0  0  0  0  0  0  0  0  0  0  0
   19.6341  -10.2467  -16.8197 C   0  0  0  0  0  0  0  0  0  0  0  0
   21.0538   -9.7508  -16.6709 C   0  0  2  0  0  0  0  0  0  0  0  0
   21.8761  -10.9046  -16.3746 N   0  0  0  0  0  0  0  0  0  0  0  0
   21.2137   -8.7799  -15.5884 C   0  0  0  0  0  0  0  0  0  0  0  0
   21.2598   -9.1668  -14.4001 O   0  0  0  0  0  0  0  0  0  0  0  0
   17.7654   -8.7819  -16.1086 C   0  0  0  0  0  0  0  0  0  0  0  0
   16.8570   -7.7402  -16.3185 C   0  0  0  0  0  0  0  0  0  0  0  0
   21.3254   -7.3725  -15.7916 N   0  0  0  0  0  0  0  0  0  0  0  0
   21.5066   -6.4053  -14.7688 C   0  0  1  0  0  0  0  0  0  0  0  0
   21.9590   -5.0579  -15.2509 C   0  0  0  0  0  0  0  0  0  0  0  0
   22.1656   -4.0928  -14.1598 C   0  0  0  0  0  0  0  0  0  0  0  0
   22.2401   -4.3980  -12.9410 O   0  0  0  0  0  0  0  0  0  0  0  0
   20.2936   -6.2730  -13.9332 C   0  0  0  0  0  0  0  0  0  0  0  0
   20.3664   -6.4058  -12.5583 O   0  0  0  0  0  0  0  0  0  0  0  0
   22.2873   -2.7528  -14.4931 O   0  0  0  0  0  0  0  0  0  0  0  0
   19.1736   -6.0386  -14.4436 O   0  0  0  0  0  0  0  0  0  0  0  0
  2  1  1  6
  2  3  1  0
  3  4  1  0
  4  5  1  0
  5  9  1  0
  6  5  2  0
  7  2  1  0
  8  7  2  0
 10 11  1  0
 11 12  2  0
 12 13  1  0
 14 15  1  0
 14 13  2  0
 16 15  1  1
 16 18  1  0
 16 17  1  0
 17  7  1  0
 18 19  2  0
 20 14  1  0
 21 20  2  0
 21 11  1  0
 22 23  1  0
 22 18  1  0
 24 25  1  0
 23 24  1  6
 25 29  1  0
 26 25  2  0
 27 28  1  0
 27 23  1  0
 30 27  2  0
M  END
$$$$
