EYD.pdb
     RDKit          3D

 30 30  0  0  1  0  0  0  0  0999 V2000
   43.1747  -13.0969  -11.1550 N   0  0  0  0  0  0  0  0  0  0  0  0
   43.6019  -11.9313  -10.3647 C   0  0  1  0  0  0  0  0  0  0  0  0
   44.7032  -11.2307  -11.1114 C   0  0  0  0  0  0  0  0  0  0  0  0
   46.0167  -11.9314  -11.0036 C   0  0  0  0  0  0  0  0  0  0  0  0
   47.0575  -11.0605  -11.6641 C   0  0  0  0  0  0  0  0  0  0  0  0
   47.0182   -9.8119  -11.5827 O   0  0  0  0  0  0  0  0  0  0  0  0
   42.4060  -11.0791  -10.1996 C   0  0  0  0  0  0  0  0  0  0  0  0
   41.5066  -10.9599  -11.0992 O   0  0  0  0  0  0  0  0  0  0  0  0
   48.0575  -11.7386  -12.3656 O   0  0  0  0  0  0  0  0  0  0  0  0
   35.5014   -6.9492   -6.7423 O   0  0  0  0  0  0  0  0  0  0  0  0
   36.6636   -7.6920   -6.9651 C   0  0  0  0  0  0  0  0  0  0  0  0
   37.7565   -7.5565   -6.1641 C   0  0  0  0  0  0  0  0  0  0  0  0
   38.9175   -8.3003   -6.3889 C   0  0  0  0  0  0  0  0  0  0  0  0
   38.9890   -9.1946   -7.4307 C   0  0  0  0  0  0  0  0  0  0  0  0
   40.2074   -9.9953   -7.6909 C   0  0  0  0  0  0  0  0  0  0  0  0
   40.9786   -9.4800   -8.8839 C   0  0  2  0  0  0  0  0  0  0  0  0
   42.1519  -10.3163   -9.0226 N   0  0  0  0  0  0  0  0  0  0  0  0
   41.4164   -8.0926   -8.7306 C   0  0  0  0  0  0  0  0  0  0  0  0
   42.3748   -7.8166   -7.9762 O   0  0  0  0  0  0  0  0  0  0  0  0
   37.8836   -9.3295   -8.2382 C   0  0  0  0  0  0  0  0  0  0  0  0
   36.7211   -8.5859   -8.0145 C   0  0  0  0  0  0  0  0  0  0  0  0
   40.8113   -6.9883   -9.4008 N   0  0  0  0  0  0  0  0  0  0  0  0
   41.1741   -5.6262   -9.2354 C   0  0  1  0  0  0  0  0  0  0  0  0
   40.8941   -4.7525  -10.4230 C   0  0  0  0  0  0  0  0  0  0  0  0
   41.6227   -5.1687  -11.6316 C   0  0  0  0  0  0  0  0  0  0  0  0
   42.7192   -5.7864  -11.6273 O   0  0  0  0  0  0  0  0  0  0  0  0
   40.5631   -5.0514   -8.0173 C   0  0  0  0  0  0  0  0  0  0  0  0
   39.1947   -5.1038   -7.8227 O   0  0  0  0  0  0  0  0  0  0  0  0
   41.0658   -4.8607  -12.8632 O   0  0  0  0  0  0  0  0  0  0  0  0
   41.2631   -4.5048   -7.1336 O   0  0  0  0  0  0  0  0  0  0  0  0
  2  1  1  6
  2  3  1  0
  3  4  1  0
  4  5  1  0
  5  9  1  0
  6  5  2  0
  7  2  1  0
  8  7  2  0
 10 11  1  0
 11 12  2  0
 12 13  1  0
 14 15  1  0
 14 13  2  0
 16 15  1  1
 16 18  1  0
 16 17  1  0
 17  7  1  0
 18 19  2  0
 20 14  1  0
 21 20  2  0
 21 11  1  0
 22 23  1  0
 22 18  1  0
 24 25  1  0
 23 24  1  6
 25 29  1  0
 26 25  2  0
 27 28  1  0
 27 23  1  0
 30 27  2  0
M  END
$$$$
