EYD.pdb
     RDKit          3D

 30 30  0  0  1  0  0  0  0  0999 V2000
   20.5957  -12.3878  -15.7104 N   0  0  0  0  0  0  0  0  0  0  0  0
   20.2514  -11.1279  -16.3884 C   0  0  1  0  0  0  0  0  0  0  0  0
   18.7760  -10.8889  -16.2230 C   0  0  0  0  0  0  0  0  0  0  0  0
   17.9414  -11.7984  -17.0621 C   0  0  0  0  0  0  0  0  0  0  0  0
   18.1161  -11.3834  -18.5027 C   0  0  0  0  0  0  0  0  0  0  0  0
   18.8103  -12.0532  -19.3006 O   0  0  0  0  0  0  0  0  0  0  0  0
   21.0655  -10.0742  -15.7475 C   0  0  0  0  0  0  0  0  0  0  0  0
   21.2390  -10.0006  -14.4839 O   0  0  0  0  0  0  0  0  0  0  0  0
   17.4555  -10.2114  -18.8794 O   0  0  0  0  0  0  0  0  0  0  0  0
   26.8642  -12.8671  -15.7993 O   0  0  0  0  0  0  0  0  0  0  0  0
   26.1294  -11.6979  -16.0121 C   0  0  0  0  0  0  0  0  0  0  0  0
   25.2281  -11.6017  -17.0284 C   0  0  0  0  0  0  0  0  0  0  0  0
   24.4946  -10.4315  -17.2392 C   0  0  0  0  0  0  0  0  0  0  0  0
   24.6634   -9.3389  -16.4220 C   0  0  0  0  0  0  0  0  0  0  0  0
   23.8987   -8.0868  -16.6236 C   0  0  0  0  0  0  0  0  0  0  0  0
   22.6016   -8.0853  -15.8481 C   0  0  2  0  0  0  0  0  0  0  0  0
   21.7277   -9.0486  -16.4833 N   0  0  0  0  0  0  0  0  0  0  0  0
   21.9324   -6.7844  -15.8486 C   0  0  0  0  0  0  0  0  0  0  0  0
   21.3551   -6.3761  -16.8800 O   0  0  0  0  0  0  0  0  0  0  0  0
   25.5745   -9.4389  -15.3962 C   0  0  0  0  0  0  0  0  0  0  0  0
   26.3092  -10.6092  -15.1839 C   0  0  0  0  0  0  0  0  0  0  0  0
   21.8859   -5.9128  -14.7204 N   0  0  0  0  0  0  0  0  0  0  0  0
   21.2239   -4.6581  -14.6768 C   0  0  1  0  0  0  0  0  0  0  0  0
   20.1299   -4.5599  -13.6541 C   0  0  0  0  0  0  0  0  0  0  0  0
   19.5196   -3.2229  -13.5869 C   0  0  0  0  0  0  0  0  0  0  0  0
   19.8788   -2.3128  -12.7953 O   0  0  0  0  0  0  0  0  0  0  0  0
   22.1868   -3.5480  -14.5096 C   0  0  0  0  0  0  0  0  0  0  0  0
   21.9385   -2.3085  -15.0709 O   0  0  0  0  0  0  0  0  0  0  0  0
   18.4756   -2.9419  -14.4545 O   0  0  0  0  0  0  0  0  0  0  0  0
   23.2471   -3.6982  -13.8592 O   0  0  0  0  0  0  0  0  0  0  0  0
  2  1  1  1
  2  3  1  0
  3  4  1  0
  4  5  1  0
  5  9  1  0
  6  5  2  0
  7  2  1  0
  8  7  2  0
 10 11  1  0
 11 12  2  0
 12 13  1  0
 14 15  1  0
 14 13  2  0
 16 15  1  6
 16 18  1  0
 16 17  1  0
 17  7  1  0
 18 19  2  0
 20 14  1  0
 21 20  2  0
 21 11  1  0
 22 23  1  0
 22 18  1  0
 24 25  1  0
 23 24  1  1
 25 29  1  0
 26 25  2  0
 27 28  1  0
 27 23  1  0
 30 27  2  0
M  END
$$$$
