YMV.pdb
     RDKit          3D

 28 28  0  0  1  0  0  0  0  0999 V2000
    8.5297  -12.4295   16.5115 O   0  0  0  0  0  0  0  0  0  0  0  0
    8.1409  -13.0222   17.7026 C   0  0  0  0  0  0  0  0  0  0  0  0
    7.1925  -14.0264   17.7017 C   0  0  0  0  0  0  0  0  0  0  0  0
    6.7915  -14.6316   18.8897 C   0  0  0  0  0  0  0  0  0  0  0  0
    7.3255  -14.2515   20.1079 C   0  0  0  0  0  0  0  0  0  0  0  0
    6.8744  -14.9165   21.3348 C   0  0  0  0  0  0  0  0  0  0  0  0
    7.3593  -16.3427   21.4459 C   0  0  2  0  0  0  0  0  0  0  0  0
    6.3805  -17.2306   20.8299 N   0  0  0  0  0  0  0  0  0  0  0  0
    7.4674  -16.6463   22.9080 C   0  0  0  0  0  0  0  0  0  0  0  0
    6.4167  -16.8475   23.5697 O   0  0  0  0  0  0  0  0  0  0  0  0
    8.2593  -13.2637   20.1136 C   0  0  0  0  0  0  0  0  0  0  0  0
    8.6639  -12.6554   18.9307 C   0  0  0  0  0  0  0  0  0  0  0  0
   10.8380  -20.9620   25.5268 C   0  0  0  0  0  0  0  0  0  0  0  0
   11.5050  -19.6125   26.4968 S   0  0  0  0  0  0  0  0  0  0  0  0
   10.3059  -18.2151   26.5889 C   0  0  0  0  0  0  0  0  0  0  0  0
    9.8870  -17.9432   25.1843 C   0  0  0  0  0  0  0  0  0  0  0  0
    8.8792  -16.8410   25.0037 C   0  0  2  0  0  0  0  0  0  0  0  0
    8.7362  -16.7054   23.5342 N   0  0  0  0  0  0  0  0  0  0  0  0
    9.2403  -15.5564   25.5973 C   0  0  0  0  0  0  0  0  0  0  0  0
   10.2626  -14.9552   25.1515 O   0  0  0  0  0  0  0  0  0  0  0  0
    7.7096  -12.3459   25.7185 C   0  0  0  0  0  0  0  0  0  0  0  0
    8.0326  -12.5931   27.1848 C   0  0  1  0  0  0  0  0  0  0  0  0
    6.7390  -13.0411   27.8343 C   0  0  0  0  0  0  0  0  0  0  0  0
    9.0510  -13.7245   27.2337 C   0  0  2  0  0  0  0  0  0  0  0  0
    8.5219  -14.9295   26.6401 N   0  0  0  0  0  0  0  0  0  0  0  0
    9.4475  -14.0224   28.6287 C   0  0  0  0  0  0  0  0  0  0  0  0
   10.1953  -13.1456   29.3936 O   0  0  0  0  0  0  0  0  0  0  0  0
    9.1055  -15.1166   29.1772 O   0  0  0  0  0  0  0  0  0  0  0  0
  2 12  2  0
  2  1  1  0
  3  2  1  0
  4  5  1  0
  4  3  2  0
  5 11  2  0
  6  5  1  0
  7  6  1  0
  7  8  1  1
  9  7  1  0
  9 10  2  0
 11 12  1  0
 13 14  1  0
 14 15  1  0
 16 15  1  0
 17 16  1  6
 17 18  1  0
 18  9  1  0
 19 25  1  0
 19 17  1  0
 20 19  2  0
 22 21  1  6
 23 22  1  0
 24 25  1  1
 24 22  1  0
 26 24  1  0
 27 26  1  0
 28 26  2  0
M  END
$$$$
