YMV.pdb
     RDKit          3D

 28 28  0  0  1  0  0  0  0  0999 V2000
   11.1197  -23.1137   18.5626 O   0  0  0  0  0  0  0  0  0  0  0  0
   11.0813  -21.9806   19.3601 C   0  0  0  0  0  0  0  0  0  0  0  0
   11.4697  -22.0493   20.6839 C   0  0  0  0  0  0  0  0  0  0  0  0
   11.4368  -20.9201   21.4976 C   0  0  0  0  0  0  0  0  0  0  0  0
   11.0162  -19.6947   21.0129 C   0  0  0  0  0  0  0  0  0  0  0  0
   10.9980  -18.5310   21.9054 C   0  0  0  0  0  0  0  0  0  0  0  0
   10.4379  -17.2916   21.2484 C   0  0  2  0  0  0  0  0  0  0  0  0
   11.3506  -16.8513   20.2000 N   0  0  0  0  0  0  0  0  0  0  0  0
   10.3493  -16.2439   22.3141 C   0  0  0  0  0  0  0  0  0  0  0  0
   11.2876  -15.4148   22.4357 O   0  0  0  0  0  0  0  0  0  0  0  0
   10.6330  -19.6224   19.7107 C   0  0  0  0  0  0  0  0  0  0  0  0
   10.6636  -20.7463   18.8929 C   0  0  0  0  0  0  0  0  0  0  0  0
    4.9091  -11.8595   25.6079 C   0  0  0  0  0  0  0  0  0  0  0  0
    5.4475  -13.3310   24.7408 S   0  0  0  0  0  0  0  0  0  0  0  0
    7.1952  -13.7389   25.1630 C   0  0  0  0  0  0  0  0  0  0  0  0
    7.6288  -14.7586   24.1656 C   0  0  0  0  0  0  0  0  0  0  0  0
    9.0821  -15.1443   24.2137 C   0  0  2  0  0  0  0  0  0  0  0  0
    9.2238  -16.1897   23.1719 N   0  0  0  0  0  0  0  0  0  0  0  0
    9.5566  -15.6456   25.5007 C   0  0  0  0  0  0  0  0  0  0  0  0
    9.5681  -16.8983   25.6899 O   0  0  0  0  0  0  0  0  0  0  0  0
   10.8089  -15.1466   30.1877 C   0  0  0  0  0  0  0  0  0  0  0  0
    9.9866  -14.6662   29.0009 C   0  0  1  0  0  0  0  0  0  0  0  0
   10.3078  -13.1952   28.8301 C   0  0  0  0  0  0  0  0  0  0  0  0
   10.4662  -15.4421   27.7813 C   0  0  2  0  0  0  0  0  0  0  0  0
   10.0111  -14.8254   26.5577 N   0  0  0  0  0  0  0  0  0  0  0  0
    9.9766  -16.8389   27.8141 C   0  0  0  0  0  0  0  0  0  0  0  0
   10.7841  -17.9025   28.1745 O   0  0  0  0  0  0  0  0  0  0  0  0
    8.7738  -17.1087   27.5051 O   0  0  0  0  0  0  0  0  0  0  0  0
  2 12  2  0
  2  1  1  0
  3  2  1  0
  4  5  1  0
  4  3  2  0
  5 11  2  0
  6  5  1  0
  7  6  1  0
  7  8  1  6
  9  7  1  0
  9 10  2  0
 11 12  1  0
 13 14  1  0
 14 15  1  0
 16 15  1  0
 17 16  1  1
 17 18  1  0
 18  9  1  0
 19 25  1  0
 19 17  1  0
 20 19  2  0
 22 21  1  1
 23 22  1  0
 24 25  1  6
 24 22  1  0
 26 24  1  0
 27 26  1  0
 28 26  2  0
M  END
$$$$
