YMV.pdb
     RDKit          3D

 28 28  0  0  1  0  0  0  0  0999 V2000
    5.8198  -23.9067   27.7886 O   0  0  0  0  0  0  0  0  0  0  0  0
    6.3087  -22.6910   27.3366 C   0  0  0  0  0  0  0  0  0  0  0  0
    7.3698  -22.0858   27.9816 C   0  0  0  0  0  0  0  0  0  0  0  0
    7.8722  -20.8649   27.5397 C   0  0  0  0  0  0  0  0  0  0  0  0
    7.3301  -20.2166   26.4445 C   0  0  0  0  0  0  0  0  0  0  0  0
    7.8912  -18.9320   26.0132 C   0  0  0  0  0  0  0  0  0  0  0  0
    8.7449  -19.0473   24.7725 C   0  0  2  0  0  0  0  0  0  0  0  0
    9.9309  -19.8382   25.0790 N   0  0  0  0  0  0  0  0  0  0  0  0
    9.1487  -17.6549   24.3988 C   0  0  0  0  0  0  0  0  0  0  0  0
   10.2545  -17.2103   24.8015 O   0  0  0  0  0  0  0  0  0  0  0  0
    6.2858  -20.8085   25.8066 C   0  0  0  0  0  0  0  0  0  0  0  0
    5.7795  -22.0276   26.2429 C   0  0  0  0  0  0  0  0  0  0  0  0
    6.1426  -14.4592   19.7112 C   0  0  0  0  0  0  0  0  0  0  0  0
    7.5905  -13.4517   20.0201 S   0  0  0  0  0  0  0  0  0  0  0  0
    8.1108  -13.5738   21.7847 C   0  0  0  0  0  0  0  0  0  0  0  0
    8.0652  -15.0247   22.1242 C   0  0  0  0  0  0  0  0  0  0  0  0
    8.4436  -15.3783   23.5367 C   0  0  2  0  0  0  0  0  0  0  0  0
    8.2956  -16.8521   23.6031 N   0  0  0  0  0  0  0  0  0  0  0  0
    7.6430  -14.7423   24.5793 C   0  0  0  0  0  0  0  0  0  0  0  0
    6.5280  -15.2626   24.8816 O   0  0  0  0  0  0  0  0  0  0  0  0
    8.9325  -12.8377   27.8488 C   0  0  0  0  0  0  0  0  0  0  0  0
    7.8239  -12.0408   27.1770 C   0  0  1  0  0  0  0  0  0  0  0  0
    8.5088  -10.9433   26.3881 C   0  0  0  0  0  0  0  0  0  0  0  0
    7.1068  -12.9880   26.2240 C   0  0  2  0  0  0  0  0  0  0  0  0
    8.0288  -13.5796   25.2835 N   0  0  0  0  0  0  0  0  0  0  0  0
    6.0512  -12.2796   25.4652 C   0  0  0  0  0  0  0  0  0  0  0  0
    4.8870  -11.8243   26.0573 O   0  0  0  0  0  0  0  0  0  0  0  0
    6.1856  -12.0641   24.2200 O   0  0  0  0  0  0  0  0  0  0  0  0
  2 12  2  0
  2  1  1  0
  3  2  1  0
  4  5  1  0
  4  3  2  0
  5 11  2  0
  6  5  1  0
  7  6  1  0
  7  8  1  1
  9  7  1  0
  9 10  2  0
 11 12  1  0
 13 14  1  0
 14 15  1  0
 16 15  1  0
 17 16  1  6
 17 18  1  0
 18  9  1  0
 19 25  1  0
 19 17  1  0
 20 19  2  0
 22 21  1  6
 23 22  1  0
 24 25  1  6
 24 22  1  0
 26 24  1  0
 27 26  1  0
 28 26  2  0
M  END
$$$$
