YMV.pdb
     RDKit          3D

 28 28  0  0  1  0  0  0  0  0999 V2000
   12.4759  -22.4373   18.0033 O   0  0  0  0  0  0  0  0  0  0  0  0
   12.1397  -21.3771   18.8305 C   0  0  0  0  0  0  0  0  0  0  0  0
   12.8932  -21.1084   19.9566 C   0  0  0  0  0  0  0  0  0  0  0  0
   12.5683  -20.0472   20.7972 C   0  0  0  0  0  0  0  0  0  0  0  0
   11.4849  -19.2275   20.5369 C   0  0  0  0  0  0  0  0  0  0  0  0
   11.1794  -18.1205   21.4492 C   0  0  0  0  0  0  0  0  0  0  0  0
    9.9040  -17.3949   21.0910 C   0  0  2  0  0  0  0  0  0  0  0  0
    9.9991  -16.9079   19.7199 N   0  0  0  0  0  0  0  0  0  0  0  0
    9.7909  -16.2361   22.0322 C   0  0  0  0  0  0  0  0  0  0  0  0
    9.4850  -15.1048   21.5748 O   0  0  0  0  0  0  0  0  0  0  0  0
   10.7405  -19.4880   19.4298 C   0  0  0  0  0  0  0  0  0  0  0  0
   11.0597  -20.5462   18.5863 C   0  0  0  0  0  0  0  0  0  0  0  0
    5.3340  -12.2031   25.3773 C   0  0  0  0  0  0  0  0  0  0  0  0
    6.0673  -13.5686   24.4802 S   0  0  0  0  0  0  0  0  0  0  0  0
    7.7961  -13.8717   25.0447 C   0  0  0  0  0  0  0  0  0  0  0  0
    8.3432  -14.9216   24.1387 C   0  0  0  0  0  0  0  0  0  0  0  0
    9.7653  -15.3362   24.4013 C   0  0  2  0  0  0  0  0  0  0  0  0
   10.0258  -16.4142   23.4173 N   0  0  0  0  0  0  0  0  0  0  0  0
   10.0417  -15.8096   25.7549 C   0  0  0  0  0  0  0  0  0  0  0  0
    9.8624  -17.0376   26.0099 O   0  0  0  0  0  0  0  0  0  0  0  0
   11.1429  -15.1661   30.4713 C   0  0  0  0  0  0  0  0  0  0  0  0
   10.3826  -14.7027   29.2373 C   0  0  1  0  0  0  0  0  0  0  0  0
   10.8199  -13.2747   28.9813 C   0  0  0  0  0  0  0  0  0  0  0  0
   10.8234  -15.5905   28.0810 C   0  0  2  0  0  0  0  0  0  0  0  0
   10.5024  -14.9885   26.8086 N   0  0  0  0  0  0  0  0  0  0  0  0
   10.1706  -16.9174   28.1514 C   0  0  0  0  0  0  0  0  0  0  0  0
   10.8141  -18.0386   28.6436 O   0  0  0  0  0  0  0  0  0  0  0  0
    8.9736  -17.0699   27.7526 O   0  0  0  0  0  0  0  0  0  0  0  0
  2 12  2  0
  2  1  1  0
  3  2  1  0
  4  5  1  0
  4  3  2  0
  5 11  2  0
  6  5  1  0
  7  6  1  0
  7  8  1  6
  9  7  1  0
  9 10  2  0
 11 12  1  0
 13 14  1  0
 14 15  1  0
 16 15  1  0
 17 16  1  1
 17 18  1  0
 18  9  1  0
 19 25  1  0
 19 17  1  0
 20 19  2  0
 22 21  1  1
 23 22  1  0
 24 25  1  6
 24 22  1  0
 26 24  1  0
 27 26  1  0
 28 26  2  0
M  END
$$$$
