YMV.pdb
     RDKit          3D

 28 28  0  0  1  0  0  0  0  0999 V2000
    8.3964  -11.2414   17.9751 O   0  0  0  0  0  0  0  0  0  0  0  0
    8.1538  -12.4871   18.5323 C   0  0  0  0  0  0  0  0  0  0  0  0
    7.3384  -12.6054   19.6409 C   0  0  0  0  0  0  0  0  0  0  0  0
    7.0851  -13.8496   20.2121 C   0  0  0  0  0  0  0  0  0  0  0  0
    7.6377  -15.0067   19.6930 C   0  0  0  0  0  0  0  0  0  0  0  0
    7.3435  -16.2964   20.3262 C   0  0  0  0  0  0  0  0  0  0  0  0
    8.4665  -16.7920   21.2063 C   0  0  2  0  0  0  0  0  0  0  0  0
    8.1360  -18.1236   21.7000 N   0  0  0  0  0  0  0  0  0  0  0  0
    8.5646  -15.8370   22.3551 C   0  0  0  0  0  0  0  0  0  0  0  0
    9.0560  -14.6954   22.1607 O   0  0  0  0  0  0  0  0  0  0  0  0
    8.4408  -14.8951   18.6019 C   0  0  0  0  0  0  0  0  0  0  0  0
    8.6977  -13.6555   18.0269 C   0  0  0  0  0  0  0  0  0  0  0  0
    6.8819  -11.6120   25.4963 C   0  0  0  0  0  0  0  0  0  0  0  0
    5.7363  -12.8458   26.1065 S   0  0  0  0  0  0  0  0  0  0  0  0
    6.6234  -14.3959   26.5640 C   0  0  0  0  0  0  0  0  0  0  0  0
    6.7958  -15.1575   25.2941 C   0  0  0  0  0  0  0  0  0  0  0  0
    8.2118  -15.3076   24.8084 C   0  0  2  0  0  0  0  0  0  0  0  0
    8.1098  -16.2165   23.6414 N   0  0  0  0  0  0  0  0  0  0  0  0
    9.1573  -15.8422   25.7845 C   0  0  0  0  0  0  0  0  0  0  0  0
    9.7893  -16.9004   25.4911 O   0  0  0  0  0  0  0  0  0  0  0  0
   11.9241  -15.4806   29.8197 C   0  0  0  0  0  0  0  0  0  0  0  0
   10.6603  -14.9790   29.1366 C   0  0  1  0  0  0  0  0  0  0  0  0
   10.9040  -13.5188   28.8134 C   0  0  0  0  0  0  0  0  0  0  0  0
   10.5050  -15.7722   27.8458 C   0  0  2  0  0  0  0  0  0  0  0  0
    9.4220  -15.2558   27.0426 N   0  0  0  0  0  0  0  0  0  0  0  0
   10.2404  -17.2011   28.1289 C   0  0  0  0  0  0  0  0  0  0  0  0
   11.2517  -18.1389   28.2338 O   0  0  0  0  0  0  0  0  0  0  0  0
    9.0504  -17.6182   28.2872 O   0  0  0  0  0  0  0  0  0  0  0  0
  2 12  2  0
  2  1  1  0
  3  2  1  0
  4  5  1  0
  4  3  2  0
  5 11  2  0
  6  5  1  0
  7  6  1  0
  7  8  1  1
  9  7  1  0
  9 10  2  0
 11 12  1  0
 13 14  1  0
 14 15  1  0
 16 15  1  0
 17 16  1  1
 17 18  1  0
 18  9  1  0
 19 25  1  0
 19 17  1  0
 20 19  2  0
 22 21  1  6
 23 22  1  0
 24 25  1  1
 24 22  1  0
 26 24  1  0
 27 26  1  0
 28 26  2  0
M  END
$$$$
