YMV.pdb
     RDKit          3D

 28 28  0  0  1  0  0  0  0  0999 V2000
    6.9264  -14.1113   14.7610 O   0  0  0  0  0  0  0  0  0  0  0  0
    7.2348  -14.4154   16.0777 C   0  0  0  0  0  0  0  0  0  0  0  0
    7.2105  -13.4276   17.0429 C   0  0  0  0  0  0  0  0  0  0  0  0
    7.5178  -13.7173   18.3696 C   0  0  0  0  0  0  0  0  0  0  0  0
    7.8567  -14.9980   18.7676 C   0  0  0  0  0  0  0  0  0  0  0  0
    8.1725  -15.2583   20.1760 C   0  0  0  0  0  0  0  0  0  0  0  0
    9.1118  -14.2352   20.7695 C   0  0  2  0  0  0  0  0  0  0  0  0
   10.4163  -14.3544   20.1291 N   0  0  0  0  0  0  0  0  0  0  0  0
    9.2327  -14.5579   22.2264 C   0  0  0  0  0  0  0  0  0  0  0  0
   10.2725  -15.1316   22.6411 O   0  0  0  0  0  0  0  0  0  0  0  0
    7.8819  -15.9733   17.8211 C   0  0  0  0  0  0  0  0  0  0  0  0
    7.5761  -15.6905   16.4947 C   0  0  0  0  0  0  0  0  0  0  0  0
    6.0517  -11.1524   27.1973 C   0  0  0  0  0  0  0  0  0  0  0  0
    7.3328  -12.3808   27.4351 S   0  0  0  0  0  0  0  0  0  0  0  0
    6.8750  -13.9720   26.6241 C   0  0  0  0  0  0  0  0  0  0  0  0
    7.0928  -13.7636   25.1642 C   0  0  0  0  0  0  0  0  0  0  0  0
    8.3215  -14.4118   24.5869 C   0  0  2  0  0  0  0  0  0  0  0  0
    8.1891  -14.2209   23.1225 N   0  0  0  0  0  0  0  0  0  0  0  0
    8.4898  -15.8285   24.8989 C   0  0  0  0  0  0  0  0  0  0  0  0
    7.5848  -16.6357   24.5321 O   0  0  0  0  0  0  0  0  0  0  0  0
   10.7338  -18.3257   23.8289 C   0  0  0  0  0  0  0  0  0  0  0  0
   10.8156  -18.4802   25.3405 C   0  0  1  0  0  0  0  0  0  0  0  0
   12.0833  -17.7707   25.7712 C   0  0  0  0  0  0  0  0  0  0  0  0
    9.6037  -17.7698   25.9287 C   0  0  2  0  0  0  0  0  0  0  0  0
    9.6018  -16.3677   25.5839 N   0  0  0  0  0  0  0  0  0  0  0  0
    9.5812  -17.8910   27.4041 C   0  0  0  0  0  0  0  0  0  0  0  0
    9.4968  -19.1115   28.0496 O   0  0  0  0  0  0  0  0  0  0  0  0
    9.6395  -16.8550   28.1379 O   0  0  0  0  0  0  0  0  0  0  0  0
  2 12  2  0
  2  1  1  0
  3  2  1  0
  4  5  1  0
  4  3  2  0
  5 11  2  0
  6  5  1  0
  7  6  1  0
  7  8  1  6
  9  7  1  0
  9 10  2  0
 11 12  1  0
 13 14  1  0
 14 15  1  0
 16 15  1  0
 17 16  1  1
 17 18  1  0
 18  9  1  0
 19 25  1  0
 19 17  1  0
 20 19  2  0
 22 21  1  6
 23 22  1  0
 24 25  1  1
 24 22  1  0
 26 24  1  0
 27 26  1  0
 28 26  2  0
M  END
$$$$
