YMV.pdb
     RDKit          3D

 28 28  0  0  1  0  0  0  0  0999 V2000
    9.5985  -22.9563   18.2589 O   0  0  0  0  0  0  0  0  0  0  0  0
    9.7827  -21.8689   19.0984 C   0  0  0  0  0  0  0  0  0  0  0  0
   10.9995  -21.2159   19.1328 C   0  0  0  0  0  0  0  0  0  0  0  0
   11.2000  -20.1223   19.9707 C   0  0  0  0  0  0  0  0  0  0  0  0
   10.1936  -19.6520   20.7949 C   0  0  0  0  0  0  0  0  0  0  0  0
   10.4485  -18.4963   21.6613 C   0  0  0  0  0  0  0  0  0  0  0  0
    9.7531  -17.2407   21.1907 C   0  0  2  0  0  0  0  0  0  0  0  0
   10.4130  -16.7506   19.9863 N   0  0  0  0  0  0  0  0  0  0  0  0
    9.8948  -16.2342   22.2899 C   0  0  0  0  0  0  0  0  0  0  0  0
   10.8832  -15.4561   22.2824 O   0  0  0  0  0  0  0  0  0  0  0  0
    8.9944  -20.2914   20.7645 C   0  0  0  0  0  0  0  0  0  0  0  0
    8.7878  -21.3841   19.9300 C   0  0  0  0  0  0  0  0  0  0  0  0
    5.0868  -11.7180   26.3378 C   0  0  0  0  0  0  0  0  0  0  0  0
    5.5137  -13.0782   25.2540 S   0  0  0  0  0  0  0  0  0  0  0  0
    7.2860  -13.5455   25.4541 C   0  0  0  0  0  0  0  0  0  0  0  0
    7.5437  -14.6112   24.4440 C   0  0  0  0  0  0  0  0  0  0  0  0
    8.9639  -15.0997   24.3561 C   0  0  2  0  0  0  0  0  0  0  0  0
    8.9281  -16.1618   23.3222 N   0  0  0  0  0  0  0  0  0  0  0  0
    9.5263  -15.6221   25.5984 C   0  0  0  0  0  0  0  0  0  0  0  0
    9.4380  -16.8663   25.8211 O   0  0  0  0  0  0  0  0  0  0  0  0
   11.0707  -15.1726   30.1800 C   0  0  0  0  0  0  0  0  0  0  0  0
   10.2177  -14.6806   29.0199 C   0  0  1  0  0  0  0  0  0  0  0  0
   10.5508  -13.2133   28.8410 C   0  0  0  0  0  0  0  0  0  0  0  0
   10.6500  -15.4602   27.7850 C   0  0  2  0  0  0  0  0  0  0  0  0
   10.1709  -14.8319   26.5765 N   0  0  0  0  0  0  0  0  0  0  0  0
   10.1385  -16.8489   27.8275 C   0  0  0  0  0  0  0  0  0  0  0  0
   10.9610  -17.9388   28.0481 O   0  0  0  0  0  0  0  0  0  0  0  0
    8.9015  -17.0866   27.6585 O   0  0  0  0  0  0  0  0  0  0  0  0
  2 12  2  0
  2  1  1  0
  3  2  1  0
  4  5  1  0
  4  3  2  0
  5 11  2  0
  6  5  1  0
  7  6  1  0
  7  8  1  6
  9  7  1  0
  9 10  2  0
 11 12  1  0
 13 14  1  0
 14 15  1  0
 16 15  1  0
 17 16  1  1
 17 18  1  0
 18  9  1  0
 19 25  1  0
 19 17  1  0
 20 19  2  0
 22 21  1  1
 23 22  1  0
 24 25  1  6
 24 22  1  0
 26 24  1  0
 27 26  1  0
 28 26  2  0
M  END
$$$$
