YMV.pdb
     RDKit          3D

 28 28  0  0  1  0  0  0  0  0999 V2000
   16.2367  -15.5309   18.8285 O   0  0  0  0  0  0  0  0  0  0  0  0
   14.9603  -15.1306   19.1916 C   0  0  0  0  0  0  0  0  0  0  0  0
   14.2194  -15.8899   20.0761 C   0  0  0  0  0  0  0  0  0  0  0  0
   12.9360  -15.5011   20.4506 C   0  0  0  0  0  0  0  0  0  0  0  0
   12.3591  -14.3465   19.9532 C   0  0  0  0  0  0  0  0  0  0  0  0
   11.0045  -13.9746   20.3752 C   0  0  0  0  0  0  0  0  0  0  0  0
    9.9473  -14.9317   19.8777 C   0  0  2  0  0  0  0  0  0  0  0  0
    9.5506  -14.5477   18.5282 N   0  0  0  0  0  0  0  0  0  0  0  0
    8.7791  -14.8000   20.8047 C   0  0  0  0  0  0  0  0  0  0  0  0
    7.8957  -13.9395   20.5562 O   0  0  0  0  0  0  0  0  0  0  0  0
   13.0845  -13.5960   19.0824 C   0  0  0  0  0  0  0  0  0  0  0  0
   14.3666  -13.9788   18.7045 C   0  0  0  0  0  0  0  0  0  0  0  0
    4.6073  -19.5528   20.7110 C   0  0  0  0  0  0  0  0  0  0  0  0
    5.4105  -18.8602   22.1540 S   0  0  0  0  0  0  0  0  0  0  0  0
    6.2065  -17.2468   21.7511 C   0  0  0  0  0  0  0  0  0  0  0  0
    6.9198  -16.8229   22.9896 C   0  0  0  0  0  0  0  0  0  0  0  0
    7.5809  -15.4727   22.9343 C   0  0  2  0  0  0  0  0  0  0  0  0
    8.6729  -15.6339   21.9444 N   0  0  0  0  0  0  0  0  0  0  0  0
    8.1158  -14.9829   24.2019 C   0  0  0  0  0  0  0  0  0  0  0  0
    9.3380  -15.1952   24.4599 O   0  0  0  0  0  0  0  0  0  0  0  0
    6.9772  -11.6084   26.0382 C   0  0  0  0  0  0  0  0  0  0  0  0
    7.1900  -12.7242   27.0506 C   0  0  1  0  0  0  0  0  0  0  0  0
    5.8140  -13.2674   27.3784 C   0  0  0  0  0  0  0  0  0  0  0  0
    8.0172  -13.8014   26.3615 C   0  0  2  0  0  0  0  0  0  0  0  0
    7.3612  -14.2798   25.1676 N   0  0  0  0  0  0  0  0  0  0  0  0
    8.2486  -14.9521   27.2640 C   0  0  0  0  0  0  0  0  0  0  0  0
    7.7248  -16.2084   27.0179 O   0  0  0  0  0  0  0  0  0  0  0  0
    8.9502  -14.8172   28.3150 O   0  0  0  0  0  0  0  0  0  0  0  0
  2 12  2  0
  2  1  1  0
  3  2  1  0
  4  5  1  0
  4  3  2  0
  5 11  2  0
  6  5  1  0
  7  6  1  0
  7  8  1  6
  9  7  1  0
  9 10  2  0
 11 12  1  0
 13 14  1  0
 14 15  1  0
 16 15  1  0
 17 16  1  1
 17 18  1  0
 18  9  1  0
 19 25  1  0
 19 17  1  0
 20 19  2  0
 22 21  1  6
 23 22  1  0
 24 25  1  6
 24 22  1  0
 26 24  1  0
 27 26  1  0
 28 26  2  0
M  END
$$$$
