YMV.pdb
     RDKit          3D

 28 28  0  0  1  0  0  0  0  0999 V2000
    9.0187  -21.9027   17.2943 O   0  0  0  0  0  0  0  0  0  0  0  0
    9.2750  -21.0541   18.3599 C   0  0  0  0  0  0  0  0  0  0  0  0
    9.0595  -19.6955   18.2334 C   0  0  0  0  0  0  0  0  0  0  0  0
    9.3121  -18.8303   19.2946 C   0  0  0  0  0  0  0  0  0  0  0  0
    9.7854  -19.2968   20.5077 C   0  0  0  0  0  0  0  0  0  0  0  0
   10.0373  -18.3496   21.5989 C   0  0  0  0  0  0  0  0  0  0  0  0
    9.8205  -16.9108   21.1936 C   0  0  2  0  0  0  0  0  0  0  0  0
   10.8945  -16.4987   20.2975 N   0  0  0  0  0  0  0  0  0  0  0  0
    9.8714  -16.0989   22.4504 C   0  0  0  0  0  0  0  0  0  0  0  0
   10.9854  -15.6935   22.8715 O   0  0  0  0  0  0  0  0  0  0  0  0
    9.9989  -20.6331   20.6367 C   0  0  0  0  0  0  0  0  0  0  0  0
    9.7487  -21.5024   19.5809 C   0  0  0  0  0  0  0  0  0  0  0  0
    5.5743  -11.5661   27.0582 C   0  0  0  0  0  0  0  0  0  0  0  0
    5.9242  -12.4938   25.5669 S   0  0  0  0  0  0  0  0  0  0  0  0
    6.9610  -13.9716   25.9414 C   0  0  0  0  0  0  0  0  0  0  0  0
    7.2724  -14.5962   24.6241 C   0  0  0  0  0  0  0  0  0  0  0  0
    8.6958  -15.0438   24.4323 C   0  0  2  0  0  0  0  0  0  0  0  0
    8.6805  -15.7933   23.1531 N   0  0  0  0  0  0  0  0  0  0  0  0
    9.2413  -15.8773   25.5002 C   0  0  0  0  0  0  0  0  0  0  0  0
    8.9960  -17.1201   25.4767 O   0  0  0  0  0  0  0  0  0  0  0  0
   12.7954  -15.2761   27.1937 C   0  0  0  0  0  0  0  0  0  0  0  0
   11.7861  -15.7175   28.2434 C   0  0  1  0  0  0  0  0  0  0  0  0
   11.3404  -14.4584   28.9589 C   0  0  0  0  0  0  0  0  0  0  0  0
   10.6071  -16.3311   27.4999 C   0  0  2  0  0  0  0  0  0  0  0  0
   10.0333  -15.3922   26.5651 N   0  0  0  0  0  0  0  0  0  0  0  0
    9.5499  -16.7610   28.4430 C   0  0  0  0  0  0  0  0  0  0  0  0
    9.7198  -17.8161   29.3212 O   0  0  0  0  0  0  0  0  0  0  0  0
    8.4301  -16.1609   28.4747 O   0  0  0  0  0  0  0  0  0  0  0  0
  2 12  2  0
  2  1  1  0
  3  2  1  0
  4  5  1  0
  4  3  2  0
  5 11  2  0
  6  5  1  0
  7  6  1  0
  7  8  1  6
  9  7  1  0
  9 10  2  0
 11 12  1  0
 13 14  1  0
 14 15  1  0
 16 15  1  0
 17 16  1  1
 17 18  1  0
 18  9  1  0
 19 25  1  0
 19 17  1  0
 20 19  2  0
 22 21  1  6
 23 22  1  0
 24 25  1  6
 24 22  1  0
 26 24  1  0
 27 26  1  0
 28 26  2  0
M  END
$$$$
