KYG.pdb
     RDKit          3D

 26 26  0  0  1  0  0  0  0  0999 V2000
   27.6015  -21.3572  -15.1401 N   0  0  0  0  0  0  0  0  0  0  0  0
   26.8889  -20.2999  -14.4497 C   0  0  1  0  0  0  0  0  0  0  0  0
   26.2119  -19.4311  -15.4902 C   0  0  0  0  0  0  0  0  0  0  0  0
   27.2671  -18.5890  -16.1329 C   0  0  0  0  0  0  0  0  0  0  0  0
   27.9657  -19.3157  -17.2390 C   0  0  0  0  0  0  0  0  0  0  0  0
   28.9034  -18.4008  -17.9778 C   0  0  0  0  0  0  0  0  0  0  0  0
   29.5896  -19.1706  -18.9935 N   0  0  0  0  0  0  0  0  0  0  0  0
   25.8562  -20.8877  -13.5646 C   0  0  0  0  0  0  0  0  0  0  0  0
   25.3593  -22.0281  -13.7686 O   0  0  0  0  0  0  0  0  0  0  0  0
   29.9446  -20.4876   -8.3762 O   0  0  0  0  0  0  0  0  0  0  0  0
   28.6084  -20.4894   -8.8123 C   0  0  0  0  0  0  0  0  0  0  0  0
   28.2014  -21.2642   -9.8805 C   0  0  0  0  0  0  0  0  0  0  0  0
   26.8992  -21.2865  -10.3306 C   0  0  0  0  0  0  0  0  0  0  0  0
   25.9653  -20.5064   -9.6916 C   0  0  0  0  0  0  0  0  0  0  0  0
   24.5389  -20.4514  -10.0865 C   0  0  0  0  0  0  0  0  0  0  0  0
   24.4264  -20.8216  -11.5142 C   0  0  2  0  0  0  0  0  0  0  0  0
   25.3414  -20.2271  -12.4229 N   0  0  0  0  0  0  0  0  0  0  0  0
   23.0558  -20.5583  -12.0641 C   0  0  0  0  0  0  0  0  0  0  0  0
   22.5759  -19.4248  -12.2067 O   0  0  0  0  0  0  0  0  0  0  0  0
   26.3721  -19.7338   -8.6260 C   0  0  0  0  0  0  0  0  0  0  0  0
   27.6704  -19.7094   -8.1748 C   0  0  0  0  0  0  0  0  0  0  0  0
   22.2604  -21.6794  -12.4449 N   0  0  0  0  0  0  0  0  0  0  0  0
   20.9310  -21.5400  -12.9888 C   0  0  0  0  0  0  0  0  0  0  0  0
   20.3835  -22.8739  -13.3302 C   0  0  0  0  0  0  0  0  0  0  0  0
   19.0487  -23.2267  -13.2121 O   0  0  0  0  0  0  0  0  0  0  0  0
   21.1819  -23.7472  -13.7563 O   0  0  0  0  0  0  0  0  0  0  0  0
  2  1  1  6
  3  2  1  0
  4  3  1  0
  5  4  1  0
  5  6  1  0
  7  6  1  0
  8  9  2  0
  8  2  1  0
 10 11  1  0
 11 12  2  0
 12 13  1  0
 14 13  2  0
 14 15  1  0
 16 15  1  1
 16 17  1  0
 17  8  1  0
 18 16  1  0
 19 18  2  0
 20 14  1  0
 21 11  1  0
 21 20  2  0
 22 18  1  0
 23 22  1  0
 24 23  1  0
 24 25  1  0
 26 24  2  0
M  END
$$$$
