KYG.pdb
     RDKit          3D

 26 26  0  0  1  0  0  0  0  0999 V2000
   27.2882  -23.4493  -17.9738 N   0  0  0  0  0  0  0  0  0  0  0  0
   27.0705  -22.0778  -17.5568 C   0  0  1  0  0  0  0  0  0  0  0  0
   26.1766  -21.4102  -18.5820 C   0  0  0  0  0  0  0  0  0  0  0  0
   27.0599  -20.7391  -19.5845 C   0  0  0  0  0  0  0  0  0  0  0  0
   27.5448  -21.6936  -20.6302 C   0  0  0  0  0  0  0  0  0  0  0  0
   28.4325  -20.9982  -21.6255 C   0  0  0  0  0  0  0  0  0  0  0  0
   28.9939  -21.9940  -22.5133 N   0  0  0  0  0  0  0  0  0  0  0  0
   26.3940  -22.0569  -16.2388 C   0  0  0  0  0  0  0  0  0  0  0  0
   25.7275  -23.0347  -15.8046 O   0  0  0  0  0  0  0  0  0  0  0  0
   23.2214  -20.8880   -8.3698 O   0  0  0  0  0  0  0  0  0  0  0  0
   24.0575  -20.7859   -9.4951 C   0  0  0  0  0  0  0  0  0  0  0  0
   25.2193  -21.5254   -9.5974 C   0  0  0  0  0  0  0  0  0  0  0  0
   26.0585  -21.4465  -10.6875 C   0  0  0  0  0  0  0  0  0  0  0  0
   25.7276  -20.5974  -11.7164 C   0  0  0  0  0  0  0  0  0  0  0  0
   26.5517  -20.4318  -12.9359 C   0  0  0  0  0  0  0  0  0  0  0  0
   25.7789  -20.9149  -14.1010 C   0  0  2  0  0  0  0  0  0  0  0  0
   26.4359  -20.9479  -15.3594 N   0  0  0  0  0  0  0  0  0  0  0  0
   24.5135  -20.1360  -14.3070 C   0  0  0  0  0  0  0  0  0  0  0  0
   24.4846  -18.9403  -14.6306 O   0  0  0  0  0  0  0  0  0  0  0  0
   24.5684  -19.8601  -11.6136 C   0  0  0  0  0  0  0  0  0  0  0  0
   23.7293  -19.9368  -10.5274 C   0  0  0  0  0  0  0  0  0  0  0  0
   23.2723  -20.8134  -14.1194 N   0  0  0  0  0  0  0  0  0  0  0  0
   22.0008  -20.1325  -14.1664 C   0  0  0  0  0  0  0  0  0  0  0  0
   20.9002  -21.1061  -13.9762 C   0  0  0  0  0  0  0  0  0  0  0  0
   19.5633  -20.7632  -13.8528 O   0  0  0  0  0  0  0  0  0  0  0  0
   21.1962  -22.3272  -13.9227 O   0  0  0  0  0  0  0  0  0  0  0  0
  2  1  1  6
  3  2  1  0
  4  3  1  0
  5  4  1  0
  5  6  1  0
  7  6  1  0
  8  9  2  0
  8  2  1  0
 10 11  1  0
 11 12  2  0
 12 13  1  0
 14 13  2  0
 14 15  1  0
 16 15  1  1
 16 17  1  0
 17  8  1  0
 18 16  1  0
 19 18  2  0
 20 14  1  0
 21 11  1  0
 21 20  2  0
 22 18  1  0
 23 22  1  0
 24 23  1  0
 24 25  1  0
 26 24  2  0
M  END
$$$$
