KYG.pdb
     RDKit          3D

 26 26  0  0  1  0  0  0  0  0999 V2000
   26.9382  -23.2066  -17.5601 N   0  0  0  0  0  0  0  0  0  0  0  0
   26.7538  -21.8428  -17.1038 C   0  0  1  0  0  0  0  0  0  0  0  0
   25.6139  -21.2321  -17.8934 C   0  0  0  0  0  0  0  0  0  0  0  0
   26.1599  -20.8004  -19.2167 C   0  0  0  0  0  0  0  0  0  0  0  0
   25.1312  -20.0933  -20.0423 C   0  0  0  0  0  0  0  0  0  0  0  0
   25.7003  -19.6730  -21.3695 C   0  0  0  0  0  0  0  0  0  0  0  0
   24.6608  -19.0050  -22.1233 N   0  0  0  0  0  0  0  0  0  0  0  0
   26.4011  -21.8399  -15.6647 C   0  0  0  0  0  0  0  0  0  0  0  0
   25.8308  -22.8153  -15.1058 O   0  0  0  0  0  0  0  0  0  0  0  0
   25.5953  -20.5486   -7.1561 O   0  0  0  0  0  0  0  0  0  0  0  0
   26.0388  -20.4353   -8.4851 C   0  0  0  0  0  0  0  0  0  0  0  0
   25.7160  -19.3390   -9.2602 C   0  0  0  0  0  0  0  0  0  0  0  0
   26.1358  -19.2003  -10.5653 C   0  0  0  0  0  0  0  0  0  0  0  0
   26.9077  -20.1928  -11.1205 C   0  0  0  0  0  0  0  0  0  0  0  0
   27.4162  -20.1507  -12.5109 C   0  0  0  0  0  0  0  0  0  0  0  0
   26.4143  -20.7747  -13.4025 C   0  0  2  0  0  0  0  0  0  0  0  0
   26.6706  -20.7524  -14.7990 N   0  0  0  0  0  0  0  0  0  0  0  0
   25.0450  -20.1910  -13.2164 C   0  0  0  0  0  0  0  0  0  0  0  0
   24.6791  -19.1177  -13.7159 O   0  0  0  0  0  0  0  0  0  0  0  0
   27.2294  -21.2861  -10.3465 C   0  0  0  0  0  0  0  0  0  0  0  0
   26.8120  -21.4272   -9.0443 C   0  0  0  0  0  0  0  0  0  0  0  0
   24.1112  -20.9156  -12.4180 N   0  0  0  0  0  0  0  0  0  0  0  0
   22.7786  -20.4313  -12.1492 C   0  0  0  0  0  0  0  0  0  0  0  0
   21.8456  -20.9172  -13.1927 C   0  0  0  0  0  0  0  0  0  0  0  0
   22.2296  -21.6325  -14.3157 O   0  0  0  0  0  0  0  0  0  0  0  0
   20.6215  -20.6649  -13.0527 O   0  0  0  0  0  0  0  0  0  0  0  0
  2  1  1  6
  3  2  1  0
  4  3  1  0
  5  4  1  0
  5  6  1  0
  7  6  1  0
  8  9  2  0
  8  2  1  0
 10 11  1  0
 11 12  2  0
 12 13  1  0
 14 13  2  0
 14 15  1  0
 16 15  1  1
 16 17  1  0
 17  8  1  0
 18 16  1  0
 19 18  2  0
 20 14  1  0
 21 11  1  0
 21 20  2  0
 22 18  1  0
 23 22  1  0
 24 23  1  0
 24 25  1  0
 26 24  2  0
M  END
$$$$
