KYG.pdb
     RDKit          3D

 26 26  0  0  1  0  0  0  0  0999 V2000
   28.2623  -28.6824  -18.6986 N   0  0  0  0  0  0  0  0  0  0  0  0
   28.1463  -28.9300  -17.2747 C   0  0  1  0  0  0  0  0  0  0  0  0
   26.8881  -28.2467  -16.7789 C   0  0  0  0  0  0  0  0  0  0  0  0
   27.1667  -26.7793  -16.7105 C   0  0  0  0  0  0  0  0  0  0  0  0
   25.9429  -25.9642  -16.9891 C   0  0  0  0  0  0  0  0  0  0  0  0
   25.9543  -24.6857  -16.1970 C   0  0  0  0  0  0  0  0  0  0  0  0
   24.7999  -23.9000  -16.5781 N   0  0  0  0  0  0  0  0  0  0  0  0
   28.0348  -30.3867  -17.0275 C   0  0  0  0  0  0  0  0  0  0  0  0
   27.6931  -31.2015  -17.9266 O   0  0  0  0  0  0  0  0  0  0  0  0
   32.4363  -33.2150  -20.1852 O   0  0  0  0  0  0  0  0  0  0  0  0
   31.7258  -33.1684  -18.9733 C   0  0  0  0  0  0  0  0  0  0  0  0
   31.8912  -32.1266  -18.0820 C   0  0  0  0  0  0  0  0  0  0  0  0
   31.2091  -32.0538  -16.8869 C   0  0  0  0  0  0  0  0  0  0  0  0
   30.3273  -33.0583  -16.5667 C   0  0  0  0  0  0  0  0  0  0  0  0
   29.5396  -33.0847  -15.3128 C   0  0  0  0  0  0  0  0  0  0  0  0
   28.2558  -32.3869  -15.5432 C   0  0  2  0  0  0  0  0  0  0  0  0
   28.2994  -30.9862  -15.7723 N   0  0  0  0  0  0  0  0  0  0  0  0
   27.2830  -32.5999  -14.4214 C   0  0  0  0  0  0  0  0  0  0  0  0
   27.2123  -31.8708  -13.4220 O   0  0  0  0  0  0  0  0  0  0  0  0
   30.1627  -34.0972  -17.4565 C   0  0  0  0  0  0  0  0  0  0  0  0
   30.8418  -34.1725  -18.6494 C   0  0  0  0  0  0  0  0  0  0  0  0
   26.3877  -33.7065  -14.5127 N   0  0  0  0  0  0  0  0  0  0  0  0
   25.4696  -34.0524  -13.4543 C   0  0  0  0  0  0  0  0  0  0  0  0
   24.5799  -35.1512  -13.8978 C   0  0  0  0  0  0  0  0  0  0  0  0
   23.6996  -35.8293  -13.0699 O   0  0  0  0  0  0  0  0  0  0  0  0
   24.6243  -35.4939  -15.1070 O   0  0  0  0  0  0  0  0  0  0  0  0
  2  1  1  6
  3  2  1  0
  4  3  1  0
  5  4  1  0
  5  6  1  0
  7  6  1  0
  8  9  2  0
  8  2  1  0
 10 11  1  0
 11 12  2  0
 12 13  1  0
 14 13  2  0
 14 15  1  0
 16 15  1  1
 16 17  1  0
 17  8  1  0
 18 16  1  0
 19 18  2  0
 20 14  1  0
 21 11  1  0
 21 20  2  0
 22 18  1  0
 23 22  1  0
 24 23  1  0
 24 25  1  0
 26 24  2  0
M  END
$$$$
