KYG.pdb
     RDKit          3D

 26 26  0  0  1  0  0  0  0  0999 V2000
   22.3016  -20.8031  -13.2427 N   0  0  0  0  0  0  0  0  0  0  0  0
   23.0543  -20.5947  -14.4642 C   0  0  1  0  0  0  0  0  0  0  0  0
   22.1703  -19.8452  -15.4401 C   0  0  0  0  0  0  0  0  0  0  0  0
   22.0563  -20.6760  -16.6780 C   0  0  0  0  0  0  0  0  0  0  0  0
   21.1991  -21.8839  -16.4638 C   0  0  0  0  0  0  0  0  0  0  0  0
   20.1624  -22.0087  -17.5463 C   0  0  0  0  0  0  0  0  0  0  0  0
   19.4458  -23.2514  -17.3536 N   0  0  0  0  0  0  0  0  0  0  0  0
   24.2578  -19.7793  -14.1775 C   0  0  0  0  0  0  0  0  0  0  0  0
   24.1986  -18.6751  -13.5723 O   0  0  0  0  0  0  0  0  0  0  0  0
   24.6705  -20.8194   -8.3424 O   0  0  0  0  0  0  0  0  0  0  0  0
   25.3985  -20.6238   -9.5288 C   0  0  0  0  0  0  0  0  0  0  0  0
   25.8290  -19.3682   -9.9098 C   0  0  0  0  0  0  0  0  0  0  0  0
   26.5439  -19.1456  -11.0666 C   0  0  0  0  0  0  0  0  0  0  0  0
   26.8419  -20.2157  -11.8760 C   0  0  0  0  0  0  0  0  0  0  0  0
   27.6043  -20.0964  -13.1402 C   0  0  0  0  0  0  0  0  0  0  0  0
   26.7384  -19.4647  -14.1596 C   0  0  2  0  0  0  0  0  0  0  0  0
   25.5673  -20.1642  -14.5541 N   0  0  0  0  0  0  0  0  0  0  0  0
   27.4841  -19.1468  -15.4218 C   0  0  0  0  0  0  0  0  0  0  0  0
   28.5292  -18.4820  -15.4566 O   0  0  0  0  0  0  0  0  0  0  0  0
   26.4121  -21.4680  -11.4951 C   0  0  0  0  0  0  0  0  0  0  0  0
   25.6987  -21.6931  -10.3417 C   0  0  0  0  0  0  0  0  0  0  0  0
   26.9581  -19.6400  -16.6525 N   0  0  0  0  0  0  0  0  0  0  0  0
   27.6048  -19.4093  -17.9218 C   0  0  0  0  0  0  0  0  0  0  0  0
   28.5388  -20.5201  -18.2210 C   0  0  0  0  0  0  0  0  0  0  0  0
   28.6951  -21.6470  -17.4300 O   0  0  0  0  0  0  0  0  0  0  0  0
   29.2383  -20.4374  -19.2628 O   0  0  0  0  0  0  0  0  0  0  0  0
  2  1  1  1
  3  2  1  0
  4  3  1  0
  5  4  1  0
  5  6  1  0
  7  6  1  0
  8  9  2  0
  8  2  1  0
 10 11  1  0
 11 12  2  0
 12 13  1  0
 14 13  2  0
 14 15  1  0
 16 15  1  1
 16 17  1  0
 17  8  1  0
 18 16  1  0
 19 18  2  0
 20 14  1  0
 21 11  1  0
 21 20  2  0
 22 18  1  0
 23 22  1  0
 24 23  1  0
 24 25  1  0
 26 24  2  0
M  END
$$$$
