KYG.pdb
     RDKit          3D

 26 26  0  0  1  0  0  0  0  0999 V2000
   24.6622  -25.1868  -14.7861 N   0  0  0  0  0  0  0  0  0  0  0  0
   25.2726  -23.9082  -15.0943 C   0  0  1  0  0  0  0  0  0  0  0  0
   25.6143  -23.8933  -16.5704 C   0  0  0  0  0  0  0  0  0  0  0  0
   25.9957  -25.2852  -16.9611 C   0  0  0  0  0  0  0  0  0  0  0  0
   26.5385  -25.3461  -18.3544 C   0  0  0  0  0  0  0  0  0  0  0  0
   26.8188  -26.7663  -18.7626 C   0  0  0  0  0  0  0  0  0  0  0  0
   27.2473  -26.7698  -20.1451 N   0  0  0  0  0  0  0  0  0  0  0  0
   24.3146  -22.8146  -14.8088 C   0  0  0  0  0  0  0  0  0  0  0  0
   23.1687  -23.0269  -14.3283 O   0  0  0  0  0  0  0  0  0  0  0  0
   24.5476  -21.4503   -8.4530 O   0  0  0  0  0  0  0  0  0  0  0  0
   24.5211  -20.9372   -9.7614 C   0  0  0  0  0  0  0  0  0  0  0  0
   25.6346  -20.9877  -10.5765 C   0  0  0  0  0  0  0  0  0  0  0  0
   25.6389  -20.4930  -11.8626 C   0  0  0  0  0  0  0  0  0  0  0  0
   24.4886  -19.9256  -12.3565 C   0  0  0  0  0  0  0  0  0  0  0  0
   24.3762  -19.3635  -13.7222 C   0  0  0  0  0  0  0  0  0  0  0  0
   23.7704  -20.3823  -14.6071 C   0  0  2  0  0  0  0  0  0  0  0  0
   24.5985  -21.4482  -15.0480 N   0  0  0  0  0  0  0  0  0  0  0  0
   23.1685  -19.7786  -15.8413 C   0  0  0  0  0  0  0  0  0  0  0  0
   22.3153  -18.8801  -15.8240 O   0  0  0  0  0  0  0  0  0  0  0  0
   23.3781  -19.8757  -11.5427 C   0  0  0  0  0  0  0  0  0  0  0  0
   23.3709  -20.3683  -10.2593 C   0  0  0  0  0  0  0  0  0  0  0  0
   23.6054  -20.2684  -17.1077 N   0  0  0  0  0  0  0  0  0  0  0  0
   23.1285  -19.7260  -18.3571 C   0  0  0  0  0  0  0  0  0  0  0  0
   24.0620  -18.6829  -18.8429 C   0  0  0  0  0  0  0  0  0  0  0  0
   24.8699  -18.8137  -19.9612 O   0  0  0  0  0  0  0  0  0  0  0  0
   24.1280  -17.6047  -18.1989 O   0  0  0  0  0  0  0  0  0  0  0  0
  2  1  1  6
  3  2  1  0
  4  3  1  0
  5  4  1  0
  5  6  1  0
  7  6  1  0
  8  9  2  0
  8  2  1  0
 10 11  1  0
 11 12  2  0
 12 13  1  0
 14 13  2  0
 14 15  1  0
 16 15  1  6
 16 17  1  0
 17  8  1  0
 18 16  1  0
 19 18  2  0
 20 14  1  0
 21 11  1  0
 21 20  2  0
 22 18  1  0
 23 22  1  0
 24 23  1  0
 24 25  1  0
 26 24  2  0
M  END
$$$$
