KYG.pdb
     RDKit          3D

 26 26  0  0  1  0  0  0  0  0999 V2000
   26.9299  -20.9799  -17.9250 N   0  0  0  0  0  0  0  0  0  0  0  0
   27.3689  -21.9798  -16.9711 C   0  0  1  0  0  0  0  0  0  0  0  0
   28.8801  -21.9147  -16.8825 C   0  0  0  0  0  0  0  0  0  0  0  0
   29.4339  -22.5576  -18.1135 C   0  0  0  0  0  0  0  0  0  0  0  0
   29.4827  -24.0484  -17.9922 C   0  0  0  0  0  0  0  0  0  0  0  0
   30.1594  -24.6651  -19.1854 C   0  0  0  0  0  0  0  0  0  0  0  0
   30.2263  -26.0970  -18.9854 N   0  0  0  0  0  0  0  0  0  0  0  0
   26.7933  -21.6860  -15.6378 C   0  0  0  0  0  0  0  0  0  0  0  0
   26.9270  -22.4657  -14.6563 O   0  0  0  0  0  0  0  0  0  0  0  0
   29.1232  -21.4636   -9.0421 O   0  0  0  0  0  0  0  0  0  0  0  0
   28.4177  -20.8804  -10.1089 C   0  0  0  0  0  0  0  0  0  0  0  0
   29.0570  -20.5036  -11.2735 C   0  0  0  0  0  0  0  0  0  0  0  0
   28.3924  -19.9298  -12.3354 C   0  0  0  0  0  0  0  0  0  0  0  0
   27.0374  -19.7231  -12.2336 C   0  0  0  0  0  0  0  0  0  0  0  0
   26.2205  -19.1166  -13.3099 C   0  0  0  0  0  0  0  0  0  0  0  0
   25.5468  -20.1977  -14.0618 C   0  0  2  0  0  0  0  0  0  0  0  0
   26.0498  -20.5157  -15.3511 N   0  0  0  0  0  0  0  0  0  0  0  0
   24.0788  -19.9418  -14.2339 C   0  0  0  0  0  0  0  0  0  0  0  0
   23.3235  -19.6095  -13.3095 O   0  0  0  0  0  0  0  0  0  0  0  0
   26.4004  -20.0993  -11.0714 C   0  0  0  0  0  0  0  0  0  0  0  0
   27.0608  -20.6719  -10.0104 C   0  0  0  0  0  0  0  0  0  0  0  0
   23.5219  -20.0897  -15.5387 N   0  0  0  0  0  0  0  0  0  0  0  0
   22.1124  -19.9301  -15.8046 C   0  0  0  0  0  0  0  0  0  0  0  0
   21.7809  -18.4905  -15.9194 C   0  0  0  0  0  0  0  0  0  0  0  0
   20.5168  -17.9592  -15.7199 O   0  0  0  0  0  0  0  0  0  0  0  0
   22.7074  -17.6943  -16.2182 O   0  0  0  0  0  0  0  0  0  0  0  0
  2  1  1  6
  3  2  1  0
  4  3  1  0
  5  4  1  0
  5  6  1  0
  7  6  1  0
  8  9  2  0
  8  2  1  0
 10 11  1  0
 11 12  2  0
 12 13  1  0
 14 13  2  0
 14 15  1  0
 16 15  1  6
 16 17  1  0
 17  8  1  0
 18 16  1  0
 19 18  2  0
 20 14  1  0
 21 11  1  0
 21 20  2  0
 22 18  1  0
 23 22  1  0
 24 23  1  0
 24 25  1  0
 26 24  2  0
M  END
$$$$
