RMW.pdb
     RDKit          3D

 34 35  0  0  1  0  0  0  0  0999 V2000
    8.1836  -14.8879   13.8657 N   0  0  0  0  0  0  0  0  0  0  0  0
    8.4401  -13.5009   14.0372 C   0  0  0  0  0  0  0  0  0  0  0  0
    8.4237  -12.7365   12.9977 N   0  0  0  0  0  0  0  0  0  0  0  0
    8.7146  -12.9252   15.3151 N   0  0  0  0  0  0  0  0  0  0  0  0
    8.7971  -13.7602   16.4970 C   0  0  0  0  0  0  0  0  0  0  0  0
    7.5101  -13.5533   17.3027 C   0  0  0  0  0  0  0  0  0  0  0  0
    7.8832  -13.5971   18.7622 C   0  0  0  0  0  0  0  0  0  0  0  0
    8.6523  -14.8453   19.1092 C   0  0  2  0  0  0  0  0  0  0  0  0
    8.2323  -15.8536   18.1373 N   0  0  0  0  0  0  0  0  0  0  0  0
    8.2367  -15.3087   20.4510 C   0  0  0  0  0  0  0  0  0  0  0  0
    7.2222  -14.8762   21.0315 O   0  0  0  0  0  0  0  0  0  0  0  0
    8.6807  -11.7337   13.0405 C   0  0  0  0  0  0  0  0  0  0  0  0
    7.9489  -21.7567   24.7958 S   0  0  0  0  0  0  0  0  0  0  0  0
    8.3331  -20.8928   23.2380 C   0  0  0  0  0  0  0  0  0  0  0  0
    8.2286  -19.0963   23.4599 C   0  0  0  0  0  0  0  0  0  0  0  0
    8.5529  -18.3751   22.1687 C   0  0  1  0  0  0  0  0  0  0  0  0
    8.6197  -16.8839   22.4055 N   0  0  0  0  0  0  0  0  0  0  0  0
    9.0029  -16.2910   21.1411 C   0  0  0  0  0  0  0  0  0  0  0  0
    9.6062  -16.5258   23.4436 O   0  0  0  0  0  0  0  0  0  0  0  0
   10.8262  -16.5838   23.1467 N   0  0  0  0  0  0  0  0  0  0  0  0
    9.2294  -16.1205   24.7592 C   0  0  1  0  0  0  0  0  0  0  0  0
   10.1993  -15.9594   25.7945 C   0  0  0  0  0  0  0  0  0  0  0  0
    9.7717  -14.9614   26.8496 C   0  0  0  0  0  0  0  0  0  0  0  0
    8.3281  -14.6567   26.7688 C   0  0  0  0  0  0  0  0  0  0  0  0
    7.2390  -15.4772   26.9387 N   0  0  0  0  0  0  0  0  0  0  0  0
    6.1097  -14.7601   26.7716 C   0  0  0  0  0  0  0  0  0  0  0  0
    6.4089  -13.4699   26.4918 C   0  0  0  0  0  0  0  0  0  0  0  0
    5.6179  -12.3565   26.2403 C   0  0  0  0  0  0  0  0  0  0  0  0
    6.2532  -11.1743   25.9863 C   0  0  0  0  0  0  0  0  0  0  0  0
    7.6261  -11.0324   25.9674 C   0  0  0  0  0  0  0  0  0  0  0  0
    8.3729  -12.1653   26.2230 C   0  0  0  0  0  0  0  0  0  0  0  0
    7.7871  -13.3963   26.4880 C   0  0  0  0  0  0  0  0  0  0  0  0
   10.5615  -17.2690   26.3864 O   0  0  0  0  0  0  0  0  0  0  0  0
   11.7173  -17.4893   27.1181 O   0  0  0  0  0  0  0  0  0  0  0  0
  2  3  2  0
  2  1  1  0
  4  2  1  0
  5  4  1  0
  6  5  1  0
  7  6  1  0
  8  7  1  0
  8  9  1  6
 10 11  2  0
 10  8  1  0
 12 13  1  0
 14 13  1  0
 14 15  1  0
 16 15  1  6
 16 18  1  0
 16 17  1  0
 17 10  1  0
 18 19  2  0
 20 21  1  0
 20 18  1  0
 21 22  1  1
 23 22  1  0
 23 24  2  0
 25 24  1  0
 26 31  2  0
 26 25  1  0
 27 26  1  0
 28 29  1  0
 28 27  2  0
 29 30  2  0
 30 31  1  0
 31 23  1  0
 32 21  1  0
 33 32  1  0
 34 32  2  0
M  END
$$$$
