SLG.pdb
     RDKit          3D

 19 18  0  0  1  0  0  0  0  0999 V2000
   19.5747  -10.9054  -20.3731 O   0  0  0  0  0  0  0  0  0  0  0  0
   20.1221  -10.4558  -19.1737 C   0  0  0  0  0  0  0  0  0  0  0  0
   21.1954  -11.4485  -18.7222 C   0  0  2  0  0  0  0  0  0  0  0  0
   20.4717  -12.5954  -18.1884 N   0  0  0  0  0  0  0  0  0  0  0  0
   22.0243  -10.8556  -17.6280 C   0  0  0  0  0  0  0  0  0  0  0  0
   21.6107  -10.8700  -16.4435 O   0  0  0  0  0  0  0  0  0  0  0  0
   28.0181  -10.1549  -17.0242 C   0  0  0  0  0  0  0  0  0  0  0  0
   26.6678   -9.8639  -16.3842 C   0  0  2  0  0  0  0  0  0  0  0  0
   26.5855  -10.2294  -14.9422 C   0  0  0  0  0  0  0  0  0  0  0  0
   25.5145  -10.2189  -17.2415 C   0  0  0  0  0  0  0  0  0  0  0  0
   24.1703   -9.7097  -16.8830 C   0  0  2  0  0  0  0  0  0  0  0  0
   23.2710  -10.2766  -17.9050 N   0  0  0  0  0  0  0  0  0  0  0  0
   23.9580   -8.2662  -16.9221 C   0  0  0  0  0  0  0  0  0  0  0  0
   24.2641   -7.5894  -17.9328 O   0  0  0  0  0  0  0  0  0  0  0  0
   23.3921   -7.5157  -15.8268 N   0  0  0  0  0  0  0  0  0  0  0  0
   23.1745   -6.1049  -15.9393 C   0  0  0  0  0  0  0  0  0  0  0  0
   22.4617   -5.5330  -14.7784 C   0  0  0  0  0  0  0  0  0  0  0  0
   22.2889   -4.1761  -14.6202 O   0  0  0  0  0  0  0  0  0  0  0  0
   21.9957   -6.3022  -13.9036 O   0  0  0  0  0  0  0  0  0  0  0  0
  2  1  1  0
  3  2  1  0
  3  4  1  1
  5  3  1  0
  5  6  2  0
  8  7  1  6
  8 10  1  0
  9  8  1  0
 11 10  1  6
 11 12  1  0
 12  5  1  0
 13 11  1  0
 13 15  1  0
 14 13  2  0
 16 15  1  0
 16 17  1  0
 17 19  2  0
 17 18  1  0
M  END
$$$$
