SLG.pdb
     RDKit          3D

 19 18  0  0  1  0  0  0  0  0999 V2000
   20.0373  -18.1479  -19.2634 O   0  0  0  0  0  0  0  0  0  0  0  0
   20.6080  -17.2613  -18.3531 C   0  0  0  0  0  0  0  0  0  0  0  0
   22.0167  -17.7502  -18.0100 C   0  0  2  0  0  0  0  0  0  0  0  0
   21.8337  -18.9978  -17.2793 N   0  0  0  0  0  0  0  0  0  0  0  0
   22.7037  -16.7689  -17.1150 C   0  0  0  0  0  0  0  0  0  0  0  0
   22.2716  -16.5614  -15.9555 O   0  0  0  0  0  0  0  0  0  0  0  0
   26.1161  -16.2472  -14.3715 C   0  0  0  0  0  0  0  0  0  0  0  0
   26.4196  -16.5762  -15.8266 C   0  0  2  0  0  0  0  0  0  0  0  0
   27.7651  -17.1764  -16.0478 C   0  0  0  0  0  0  0  0  0  0  0  0
   25.9777  -15.5312  -16.7772 C   0  0  0  0  0  0  0  0  0  0  0  0
   24.5677  -15.0780  -16.7410 C   0  0  2  0  0  0  0  0  0  0  0  0
   23.8361  -16.0677  -17.5534 N   0  0  0  0  0  0  0  0  0  0  0  0
   24.2573  -13.7765  -17.3239 C   0  0  0  0  0  0  0  0  0  0  0  0
   24.6128  -12.7108  -16.7661 O   0  0  0  0  0  0  0  0  0  0  0  0
   23.5325  -13.6118  -18.5611 N   0  0  0  0  0  0  0  0  0  0  0  0
   23.3094  -12.3093  -19.1128 C   0  0  0  0  0  0  0  0  0  0  0  0
   24.4526  -11.8107  -19.9049 C   0  0  0  0  0  0  0  0  0  0  0  0
   25.5544  -12.5917  -20.1736 O   0  0  0  0  0  0  0  0  0  0  0  0
   24.4262  -10.6384  -20.3510 O   0  0  0  0  0  0  0  0  0  0  0  0
  2  1  1  0
  3  2  1  0
  3  4  1  1
  5  3  1  0
  5  6  2  0
  8  7  1  1
  8 10  1  0
  9  8  1  0
 11 10  1  6
 11 12  1  0
 12  5  1  0
 13 11  1  0
 13 15  1  0
 14 13  2  0
 16 15  1  0
 16 17  1  0
 17 19  2  0
 17 18  1  0
M  END
$$$$
