SLG.pdb
     RDKit          3D

 19 18  0  0  1  0  0  0  0  0999 V2000
   26.6890  -18.7858  -15.2175 O   0  0  0  0  0  0  0  0  0  0  0  0
   26.1945  -19.5829  -14.1876 C   0  0  0  0  0  0  0  0  0  0  0  0
   27.3704  -20.0776  -13.3429 C   0  0  2  0  0  0  0  0  0  0  0  0
   28.0507  -21.0743  -14.1599 N   0  0  0  0  0  0  0  0  0  0  0  0
   26.8735  -20.7394  -12.0975 C   0  0  0  0  0  0  0  0  0  0  0  0
   26.7089  -21.9829  -12.0655 O   0  0  0  0  0  0  0  0  0  0  0  0
   27.5832  -19.2874   -6.3607 C   0  0  0  0  0  0  0  0  0  0  0  0
   27.4049  -20.2222   -7.5490 C   0  0  2  0  0  0  0  0  0  0  0  0
   28.6446  -20.9469   -7.9457 C   0  0  0  0  0  0  0  0  0  0  0  0
   26.5746  -19.6528   -8.6341 C   0  0  0  0  0  0  0  0  0  0  0  0
   26.0621  -20.5531   -9.6933 C   0  0  2  0  0  0  0  0  0  0  0  0
   26.5845  -19.9864  -10.9506 N   0  0  0  0  0  0  0  0  0  0  0  0
   24.6158  -20.6428   -9.8673 C   0  0  0  0  0  0  0  0  0  0  0  0
   23.8899  -21.2044   -9.0125 O   0  0  0  0  0  0  0  0  0  0  0  0
   23.9177  -20.1058  -11.0107 N   0  0  0  0  0  0  0  0  0  0  0  0
   22.4866  -20.0956  -11.0580 C   0  0  0  0  0  0  0  0  0  0  0  0
   21.9316  -21.0417  -12.0478 C   0  0  0  0  0  0  0  0  0  0  0  0
   20.5850  -21.1019  -12.3294 O   0  0  0  0  0  0  0  0  0  0  0  0
   22.7060  -21.8192  -12.6559 O   0  0  0  0  0  0  0  0  0  0  0  0
  2  1  1  0
  3  2  1  0
  3  4  1  6
  5  3  1  0
  5  6  2  0
  8  7  1  1
  8 10  1  0
  9  8  1  0
 11 10  1  1
 11 12  1  0
 12  5  1  0
 13 11  1  0
 13 15  1  0
 14 13  2  0
 16 15  1  0
 16 17  1  0
 17 19  2  0
 17 18  1  0
M  END
$$$$
