SLG.pdb
     RDKit          3D

 19 18  0  0  1  0  0  0  0  0999 V2000
   25.1349  -39.3530   -7.9493 O   0  0  0  0  0  0  0  0  0  0  0  0
   26.4270  -38.8738   -7.7456 C   0  0  0  0  0  0  0  0  0  0  0  0
   26.6721  -37.7040   -8.7009 C   0  0  2  0  0  0  0  0  0  0  0  0
   27.6249  -38.1947   -9.6885 N   0  0  0  0  0  0  0  0  0  0  0  0
   27.2915  -36.5565   -7.9690 C   0  0  0  0  0  0  0  0  0  0  0  0
   28.5383  -36.4175   -7.9514 O   0  0  0  0  0  0  0  0  0  0  0  0
   26.7040  -32.2475   -8.7076 C   0  0  0  0  0  0  0  0  0  0  0  0
   25.5213  -32.8320   -7.9479 C   0  0  2  0  0  0  0  0  0  0  0  0
   24.3002  -31.9788   -7.9712 C   0  0  0  0  0  0  0  0  0  0  0  0
   25.8921  -33.4517   -6.6558 C   0  0  0  0  0  0  0  0  0  0  0  0
   27.0147  -34.4177   -6.6191 C   0  0  2  0  0  0  0  0  0  0  0  0
   26.4943  -35.6214   -7.2936 N   0  0  0  0  0  0  0  0  0  0  0  0
   27.4834  -34.8651   -5.3113 C   0  0  0  0  0  0  0  0  0  0  0  0
   26.8411  -35.7095   -4.6424 O   0  0  0  0  0  0  0  0  0  0  0  0
   28.6961  -34.3839   -4.6939 N   0  0  0  0  0  0  0  0  0  0  0  0
   29.1437  -34.9173   -3.4427 C   0  0  0  0  0  0  0  0  0  0  0  0
   28.3079  -34.4957   -2.2996 C   0  0  0  0  0  0  0  0  0  0  0  0
   27.1740  -33.7318   -2.4629 O   0  0  0  0  0  0  0  0  0  0  0  0
   28.6354  -34.8409   -1.1387 O   0  0  0  0  0  0  0  0  0  0  0  0
  2  1  1  0
  3  2  1  0
  3  4  1  6
  5  3  1  0
  5  6  2  0
  8  7  1  1
  8 10  1  0
  9  8  1  0
 11 10  1  1
 11 12  1  0
 12  5  1  0
 13 11  1  0
 13 15  1  0
 14 13  2  0
 16 15  1  0
 16 17  1  0
 17 19  2  0
 17 18  1  0
M  END
$$$$
