SLG.pdb
     RDKit          3D

 19 18  0  0  1  0  0  0  0  0999 V2000
   23.4441  -18.6410  -17.1701 O   0  0  0  0  0  0  0  0  0  0  0  0
   24.4251  -17.7335  -16.7768 C   0  0  0  0  0  0  0  0  0  0  0  0
   25.6573  -18.5138  -16.3142 C   0  0  2  0  0  0  0  0  0  0  0  0
   26.2212  -19.1101  -17.5184 N   0  0  0  0  0  0  0  0  0  0  0  0
   25.2572  -19.6110  -15.3804 C   0  0  0  0  0  0  0  0  0  0  0  0
   25.1830  -20.7943  -15.7909 O   0  0  0  0  0  0  0  0  0  0  0  0
   25.5872  -20.3153   -9.3375 C   0  0  0  0  0  0  0  0  0  0  0  0
   25.3132  -20.9531  -10.6924 C   0  0  2  0  0  0  0  0  0  0  0  0
   26.0550  -22.2233  -10.9291 C   0  0  0  0  0  0  0  0  0  0  0  0
   25.2585  -19.9809  -11.8072 C   0  0  0  0  0  0  0  0  0  0  0  0
   24.5500  -20.3566  -13.0528 C   0  0  2  0  0  0  0  0  0  0  0  0
   24.9596  -19.3381  -14.0375 N   0  0  0  0  0  0  0  0  0  0  0  0
   23.0908  -20.3322  -13.0380 C   0  0  0  0  0  0  0  0  0  0  0  0
   22.4575  -19.2528  -12.9545 O   0  0  0  0  0  0  0  0  0  0  0  0
   22.2749  -21.5203  -13.1160 N   0  0  0  0  0  0  0  0  0  0  0  0
   20.8516  -21.4429  -12.9791 C   0  0  0  0  0  0  0  0  0  0  0  0
   20.1526  -21.2722  -14.2696 C   0  0  0  0  0  0  0  0  0  0  0  0
   20.8317  -21.1705  -15.4631 O   0  0  0  0  0  0  0  0  0  0  0  0
   18.8994  -21.2171  -14.2869 O   0  0  0  0  0  0  0  0  0  0  0  0
  2  1  1  0
  3  2  1  0
  3  4  1  6
  5  3  1  0
  5  6  2  0
  8  7  1  1
  8 10  1  0
  9  8  1  0
 11 10  1  1
 11 12  1  0
 12  5  1  0
 13 11  1  0
 13 15  1  0
 14 13  2  0
 16 15  1  0
 16 17  1  0
 17 19  2  0
 17 18  1  0
M  END
$$$$
