SLG.pdb
     RDKit          3D

 19 18  0  0  1  0  0  0  0  0999 V2000
   20.4493  -22.7117  -12.1508 O   0  0  0  0  0  0  0  0  0  0  0  0
   21.6186  -21.9562  -12.2004 C   0  0  0  0  0  0  0  0  0  0  0  0
   21.8907  -21.3823  -10.8084 C   0  0  2  0  0  0  0  0  0  0  0  0
   20.7988  -20.4539  -10.5445 N   0  0  0  0  0  0  0  0  0  0  0  0
   23.1773  -20.6202  -10.8030 C   0  0  0  0  0  0  0  0  0  0  0  0
   23.2055  -19.4256  -11.1856 O   0  0  0  0  0  0  0  0  0  0  0  0
   26.1513  -18.7175   -8.0284 C   0  0  0  0  0  0  0  0  0  0  0  0
   26.0518  -20.2245   -7.8371 C   0  0  2  0  0  0  0  0  0  0  0  0
   26.6797  -20.7222   -6.5811 C   0  0  0  0  0  0  0  0  0  0  0  0
   26.3013  -20.9986   -9.0739 C   0  0  0  0  0  0  0  0  0  0  0  0
   25.6781  -20.5484  -10.3403 C   0  0  2  0  0  0  0  0  0  0  0  0
   24.3675  -21.2238  -10.3727 N   0  0  0  0  0  0  0  0  0  0  0  0
   26.3423  -20.9074  -11.5893 C   0  0  0  0  0  0  0  0  0  0  0  0
   27.5036  -20.5105  -11.8478 O   0  0  0  0  0  0  0  0  0  0  0  0
   25.7319  -21.7294  -12.6067 N   0  0  0  0  0  0  0  0  0  0  0  0
   26.4828  -22.1658  -13.7452 C   0  0  0  0  0  0  0  0  0  0  0  0
   26.3065  -21.2948  -14.9256 C   0  0  0  0  0  0  0  0  0  0  0  0
   25.3653  -20.2903  -14.9613 O   0  0  0  0  0  0  0  0  0  0  0  0
   27.0343  -21.4697  -15.9324 O   0  0  0  0  0  0  0  0  0  0  0  0
  2  1  1  0
  3  2  1  0
  3  4  1  6
  5  3  1  0
  5  6  2  0
  8  7  1  6
  8 10  1  0
  9  8  1  0
 11 10  1  1
 11 12  1  0
 12  5  1  0
 13 11  1  0
 13 15  1  0
 14 13  2  0
 16 15  1  0
 16 17  1  0
 17 19  2  0
 17 18  1  0
M  END
$$$$
