KPH.pdb
     RDKit          3D

 27 28  0  0  1  0  0  0  0  0999 V2000
   23.4396  -20.5908  -13.1942 N   0  0  0  0  0  0  0  0  0  0  0  0
   24.7772  -20.1891  -13.3863 C   0  0  1  0  0  0  0  0  0  0  0  0
   25.8342  -21.2360  -13.2278 C   0  0  0  0  0  0  0  0  0  0  0  0
   26.4108  -21.3884  -11.8705 C   0  0  0  0  0  0  0  0  0  0  0  0
   25.5316  -21.0476  -10.7210 C   0  0  0  0  0  0  0  0  0  0  0  0
   26.2146  -21.2049   -9.3738 C   0  0  0  0  0  0  0  0  0  0  0  0
   25.2591  -20.9337   -8.3301 N   0  0  0  0  0  0  0  0  0  0  0  0
   24.9303  -19.4973  -14.7109 C   0  0  0  0  0  0  0  0  0  0  0  0
   23.9471  -19.5879  -15.5209 O   0  0  0  0  0  0  0  0  0  0  0  0
   26.0797  -18.7803  -15.0736 N   0  0  0  0  0  0  0  0  0  0  0  0
   27.2813  -18.6268  -14.3102 C   0  0  0  0  0  0  0  0  0  0  0  0
   28.2341  -17.9246  -15.2457 C   0  0  0  0  0  0  0  0  0  0  0  0
   27.3361  -17.0651  -16.0801 C   0  0  0  0  0  0  0  0  0  0  0  0
   26.1908  -18.0554  -16.3468 C   0  0  1  0  0  0  0  0  0  0  0  0
   26.6941  -18.9548  -17.4167 C   0  0  0  0  0  0  0  0  0  0  0  0
   27.4821  -19.8766  -17.0859 O   0  0  0  0  0  0  0  0  0  0  0  0
   26.3443  -18.8374  -18.7676 N   0  0  0  0  0  0  0  0  0  0  0  0
   26.7933  -19.7376  -19.8260 C   0  0  1  0  0  0  0  0  0  0  0  0
   25.8573  -19.7590  -20.9764 C   0  0  0  0  0  0  0  0  0  0  0  0
   26.2490  -20.8003  -21.9430 C   0  0  0  0  0  0  0  0  0  0  0  0
   26.5771  -22.1276  -21.7041 C   0  0  0  0  0  0  0  0  0  0  0  0
   26.8687  -22.7004  -22.8821 N   0  0  0  0  0  0  0  0  0  0  0  0
   26.7397  -21.7940  -23.8565 C   0  0  0  0  0  0  0  0  0  0  0  0
   26.3639  -20.6508  -23.2668 N   0  0  0  0  0  0  0  0  0  0  0  0
   28.1747  -19.4180  -20.2363 C   0  0  0  0  0  0  0  0  0  0  0  0
   29.0492  -20.4242  -20.6640 O   0  0  0  0  0  0  0  0  0  0  0  0
   28.6458  -18.2587  -20.2304 O   0  0  0  0  0  0  0  0  0  0  0  0
  2  1  1  6
  3  4  1  0
  3  2  1  0
  4  5  1  0
  6  5  1  0
  7  6  1  0
  8  9  2  0
  8  2  1  0
 10  8  1  0
 11 10  1  0
 12 11  1  0
 13 12  1  0
 13 14  1  0
 14 10  1  0
 14 15  1  6
 16 15  2  0
 17 15  1  0
 18 17  1  0
 18 19  1  6
 20 19  1  0
 20 21  2  0
 22 21  1  0
 23 22  1  0
 24 23  2  0
 24 20  1  0
 25 18  1  0
 26 25  1  0
 27 25  2  0
M  END
$$$$
