KPH.pdb
     RDKit          3D

 27 28  0  0  1  0  0  0  0  0999 V2000
   25.1852  -19.9862   -9.6735 N   0  0  0  0  0  0  0  0  0  0  0  0
   25.6385  -20.7215  -10.7877 C   0  0  1  0  0  0  0  0  0  0  0  0
   24.8065  -21.8868  -11.2214 C   0  0  0  0  0  0  0  0  0  0  0  0
   23.3581  -21.6289  -11.4050 C   0  0  0  0  0  0  0  0  0  0  0  0
   22.8945  -21.3335  -12.7864 C   0  0  0  0  0  0  0  0  0  0  0  0
   21.4097  -21.0257  -12.8698 C   0  0  0  0  0  0  0  0  0  0  0  0
   20.8275  -21.8113  -13.9280 N   0  0  0  0  0  0  0  0  0  0  0  0
   25.8903  -19.8054  -11.9514 C   0  0  0  0  0  0  0  0  0  0  0  0
   25.3641  -18.6434  -11.8893 O   0  0  0  0  0  0  0  0  0  0  0  0
   26.6582  -20.1738  -13.0655 N   0  0  0  0  0  0  0  0  0  0  0  0
   27.2838  -21.4391  -13.3059 C   0  0  0  0  0  0  0  0  0  0  0  0
   27.8122  -21.3357  -14.7152 C   0  0  0  0  0  0  0  0  0  0  0  0
   28.1592  -19.8859  -14.8537 C   0  0  0  0  0  0  0  0  0  0  0  0
   26.9333  -19.2520  -14.1762 C   0  0  1  0  0  0  0  0  0  0  0  0
   25.8494  -19.3187  -15.1899 C   0  0  0  0  0  0  0  0  0  0  0  0
   25.7413  -20.3736  -15.8648 O   0  0  0  0  0  0  0  0  0  0  0  0
   24.9438  -18.2798  -15.4378 N   0  0  0  0  0  0  0  0  0  0  0  0
   24.5196  -17.8430  -16.7650 C   0  0  1  0  0  0  0  0  0  0  0  0
   25.5101  -16.9397  -17.3996 C   0  0  0  0  0  0  0  0  0  0  0  0
   25.7184  -15.7375  -16.5729 C   0  0  0  0  0  0  0  0  0  0  0  0
   26.8821  -15.0053  -16.3831 C   0  0  0  0  0  0  0  0  0  0  0  0
   26.6025  -13.9927  -15.5480 N   0  0  0  0  0  0  0  0  0  0  0  0
   25.3126  -14.0517  -15.2006 C   0  0  0  0  0  0  0  0  0  0  0  0
   24.7958  -15.1148  -15.8318 N   0  0  0  0  0  0  0  0  0  0  0  0
   24.1927  -19.0013  -17.6195 C   0  0  0  0  0  0  0  0  0  0  0  0
   22.8669  -19.4166  -17.7925 O   0  0  0  0  0  0  0  0  0  0  0  0
   25.0538  -19.6728  -18.2309 O   0  0  0  0  0  0  0  0  0  0  0  0
  2  1  1  1
  3  4  1  0
  3  2  1  0
  4  5  1  0
  6  5  1  0
  7  6  1  0
  8  9  2  0
  8  2  1  0
 10  8  1  0
 11 10  1  0
 12 11  1  0
 13 12  1  0
 13 14  1  0
 14 10  1  0
 14 15  1  6
 16 15  2  0
 17 15  1  0
 18 17  1  0
 18 19  1  6
 20 19  1  0
 20 21  2  0
 22 21  1  0
 23 22  1  0
 24 23  2  0
 24 20  1  0
 25 18  1  0
 26 25  1  0
 27 25  2  0
M  END
$$$$
