KPH.pdb
     RDKit          3D

 27 28  0  0  1  0  0  0  0  0999 V2000
   24.6830  -22.1797  -18.3345 N   0  0  0  0  0  0  0  0  0  0  0  0
   24.6501  -20.9914  -17.5766 C   0  0  1  0  0  0  0  0  0  0  0  0
   23.3157  -20.3448  -17.3778 C   0  0  0  0  0  0  0  0  0  0  0  0
   22.9977  -19.2046  -18.2705 C   0  0  0  0  0  0  0  0  0  0  0  0
   23.5399  -17.8746  -17.8866 C   0  0  0  0  0  0  0  0  0  0  0  0
   23.0969  -16.7545  -18.8114 C   0  0  0  0  0  0  0  0  0  0  0  0
   23.7465  -15.5324  -18.4110 N   0  0  0  0  0  0  0  0  0  0  0  0
   25.3264  -21.1977  -16.2512 C   0  0  0  0  0  0  0  0  0  0  0  0
   24.9002  -22.1659  -15.5357 O   0  0  0  0  0  0  0  0  0  0  0  0
   26.3747  -20.3879  -15.7906 N   0  0  0  0  0  0  0  0  0  0  0  0
   26.9638  -19.2690  -16.4623 C   0  0  0  0  0  0  0  0  0  0  0  0
   27.9045  -18.6723  -15.4448 C   0  0  0  0  0  0  0  0  0  0  0  0
   28.3667  -19.8585  -14.6570 C   0  0  0  0  0  0  0  0  0  0  0  0
   27.0340  -20.6079  -14.4961 C   0  0  1  0  0  0  0  0  0  0  0  0
   26.3114  -19.8908  -13.4142 C   0  0  0  0  0  0  0  0  0  0  0  0
   25.6543  -18.8658  -13.7268 O   0  0  0  0  0  0  0  0  0  0  0  0
   26.3185  -20.2872  -12.0712 N   0  0  0  0  0  0  0  0  0  0  0  0
   25.1413  -20.3285  -11.2082 C   0  0  1  0  0  0  0  0  0  0  0  0
   24.0247  -21.0880  -11.8216 C   0  0  0  0  0  0  0  0  0  0  0  0
   22.8618  -21.1198  -10.9167 C   0  0  0  0  0  0  0  0  0  0  0  0
   22.6802  -20.4539   -9.7125 C   0  0  0  0  0  0  0  0  0  0  0  0
   21.4692  -20.7823   -9.2365 N   0  0  0  0  0  0  0  0  0  0  0  0
   20.8760  -21.6270  -10.0865 C   0  0  0  0  0  0  0  0  0  0  0  0
   21.7357  -21.8181  -11.0965 N   0  0  0  0  0  0  0  0  0  0  0  0
   25.4910  -20.8358   -9.8669 C   0  0  0  0  0  0  0  0  0  0  0  0
   25.2307  -20.0763   -8.7199 O   0  0  0  0  0  0  0  0  0  0  0  0
   26.0287  -21.9483   -9.6682 O   0  0  0  0  0  0  0  0  0  0  0  0
  2  1  1  1
  3  4  1  0
  3  2  1  0
  4  5  1  0
  6  5  1  0
  7  6  1  0
  8  9  2  0
  8  2  1  0
 10  8  1  0
 11 10  1  0
 12 11  1  0
 13 12  1  0
 13 14  1  0
 14 10  1  0
 14 15  1  1
 16 15  2  0
 17 15  1  0
 18 17  1  0
 18 19  1  6
 20 19  1  0
 20 21  2  0
 22 21  1  0
 23 22  1  0
 24 23  2  0
 24 20  1  0
 25 18  1  0
 26 25  1  0
 27 25  2  0
M  END
$$$$
