KPH.pdb
     RDKit          3D

 27 28  0  0  1  0  0  0  0  0999 V2000
   28.2854  -21.6624  -15.3306 N   0  0  0  0  0  0  0  0  0  0  0  0
   27.8874  -20.8972  -14.2155 C   0  0  1  0  0  0  0  0  0  0  0  0
   27.9166  -19.4087  -14.3630 C   0  0  0  0  0  0  0  0  0  0  0  0
   27.7894  -18.8817  -15.7429 C   0  0  0  0  0  0  0  0  0  0  0  0
   26.7517  -17.8429  -15.9761 C   0  0  0  0  0  0  0  0  0  0  0  0
   26.7472  -17.3051  -17.3963 C   0  0  0  0  0  0  0  0  0  0  0  0
   25.7651  -16.2557  -17.4964 N   0  0  0  0  0  0  0  0  0  0  0  0
   26.5364  -21.3416  -13.7317 C   0  0  0  0  0  0  0  0  0  0  0  0
   25.8638  -22.0888  -14.5192 O   0  0  0  0  0  0  0  0  0  0  0  0
   26.0088  -20.9739  -12.4854 N   0  0  0  0  0  0  0  0  0  0  0  0
   26.5888  -20.0797  -11.5293 C   0  0  0  0  0  0  0  0  0  0  0  0
   25.5230  -19.9142  -10.4744 C   0  0  0  0  0  0  0  0  0  0  0  0
   24.8263  -21.2393  -10.4693 C   0  0  0  0  0  0  0  0  0  0  0  0
   24.7313  -21.4969  -11.9820 C   0  0  1  0  0  0  0  0  0  0  0  0
   23.6016  -20.6539  -12.4510 C   0  0  0  0  0  0  0  0  0  0  0  0
   23.8018  -19.4189  -12.5722 O   0  0  0  0  0  0  0  0  0  0  0  0
   22.3308  -21.1513  -12.7651 N   0  0  0  0  0  0  0  0  0  0  0  0
   21.2374  -20.3559  -13.3165 C   0  0  1  0  0  0  0  0  0  0  0  0
   20.5835  -21.0257  -14.4670 C   0  0  0  0  0  0  0  0  0  0  0  0
   21.5399  -21.2039  -15.5741 C   0  0  0  0  0  0  0  0  0  0  0  0
   22.5589  -20.3563  -15.9861 C   0  0  0  0  0  0  0  0  0  0  0  0
   23.1726  -20.9261  -17.0348 N   0  0  0  0  0  0  0  0  0  0  0  0
   22.5868  -22.0973  -17.3049 C   0  0  0  0  0  0  0  0  0  0  0  0
   21.6012  -22.2464  -16.4093 N   0  0  0  0  0  0  0  0  0  0  0  0
   20.2719  -19.9882  -12.2623 C   0  0  0  0  0  0  0  0  0  0  0  0
   19.2742  -19.0353  -12.5010 O   0  0  0  0  0  0  0  0  0  0  0  0
   20.2783  -20.4887  -11.1153 O   0  0  0  0  0  0  0  0  0  0  0  0
  2  1  1  6
  3  4  1  0
  3  2  1  0
  4  5  1  0
  6  5  1  0
  7  6  1  0
  8  9  2  0
  8  2  1  0
 10  8  1  0
 11 10  1  0
 12 11  1  0
 13 12  1  0
 13 14  1  0
 14 10  1  0
 14 15  1  6
 16 15  2  0
 17 15  1  0
 18 17  1  0
 18 19  1  6
 20 19  1  0
 20 21  2  0
 22 21  1  0
 23 22  1  0
 24 23  2  0
 24 20  1  0
 25 18  1  0
 26 25  1  0
 27 25  2  0
M  END
$$$$
