KPH.pdb
     RDKit          3D

 27 28  0  0  1  0  0  0  0  0999 V2000
   20.5902  -10.6338  -15.8651 N   0  0  0  0  0  0  0  0  0  0  0  0
   19.2294  -10.2785  -15.9620 C   0  0  1  0  0  0  0  0  0  0  0  0
   18.2309  -11.2381  -15.3958 C   0  0  0  0  0  0  0  0  0  0  0  0
   18.2872  -12.6269  -15.9116 C   0  0  0  0  0  0  0  0  0  0  0  0
   17.2535  -13.5737  -15.4165 C   0  0  0  0  0  0  0  0  0  0  0  0
   17.3200  -14.9380  -16.0800 C   0  0  0  0  0  0  0  0  0  0  0  0
   16.2432  -15.7546  -15.5804 N   0  0  0  0  0  0  0  0  0  0  0  0
   19.0056   -8.9058  -15.3944 C   0  0  0  0  0  0  0  0  0  0  0  0
   19.7204   -8.5793  -14.3876 O   0  0  0  0  0  0  0  0  0  0  0  0
   18.0684   -8.0029  -15.9170 N   0  0  0  0  0  0  0  0  0  0  0  0
   17.2833   -8.1601  -17.1041 C   0  0  0  0  0  0  0  0  0  0  0  0
   16.3318   -6.9895  -17.0834 C   0  0  0  0  0  0  0  0  0  0  0  0
   17.1217   -5.9078  -16.4145 C   0  0  0  0  0  0  0  0  0  0  0  0
   17.7694   -6.7144  -15.2772 C   0  0  1  0  0  0  0  0  0  0  0  0
   16.7027   -6.8744  -14.2558 C   0  0  0  0  0  0  0  0  0  0  0  0
   16.1783   -8.0095  -14.1278 O   0  0  0  0  0  0  0  0  0  0  0  0
   16.2478   -5.8393  -13.4296 N   0  0  0  0  0  0  0  0  0  0  0  0
   15.5545   -6.0308  -12.1589 C   0  0  1  0  0  0  0  0  0  0  0  0
   16.3635   -6.8132  -11.1928 C   0  0  0  0  0  0  0  0  0  0  0  0
   15.6181   -7.0153   -9.9375 C   0  0  0  0  0  0  0  0  0  0  0  0
   14.3935   -7.6399   -9.7459 C   0  0  0  0  0  0  0  0  0  0  0  0
   14.1034   -7.5892   -8.4366 N   0  0  0  0  0  0  0  0  0  0  0  0
   15.0907   -6.9599   -7.7908 C   0  0  0  0  0  0  0  0  0  0  0  0
   15.9974   -6.6208   -8.7174 N   0  0  0  0  0  0  0  0  0  0  0  0
   15.1150   -4.7372  -11.6001 C   0  0  0  0  0  0  0  0  0  0  0  0
   13.8330   -4.5858  -11.0582 O   0  0  0  0  0  0  0  0  0  0  0  0
   15.8377   -3.7159  -11.5730 O   0  0  0  0  0  0  0  0  0  0  0  0
  2  1  1  1
  3  4  1  0
  3  2  1  0
  4  5  1  0
  6  5  1  0
  7  6  1  0
  8  9  2  0
  8  2  1  0
 10  8  1  0
 11 10  1  0
 12 11  1  0
 13 12  1  0
 13 14  1  0
 14 10  1  0
 14 15  1  1
 16 15  2  0
 17 15  1  0
 18 17  1  0
 18 19  1  1
 20 19  1  0
 20 21  2  0
 22 21  1  0
 23 22  1  0
 24 23  2  0
 24 20  1  0
 25 18  1  0
 26 25  1  0
 27 25  2  0
M  END
$$$$
