KPH.pdb
     RDKit          3D

 27 28  0  0  1  0  0  0  0  0999 V2000
   25.8518  -21.7317  -11.7022 N   0  0  0  0  0  0  0  0  0  0  0  0
   25.7342  -21.3890  -13.0646 C   0  0  1  0  0  0  0  0  0  0  0  0
   25.1174  -22.4046  -13.9737 C   0  0  0  0  0  0  0  0  0  0  0  0
   26.0508  -23.3443  -14.6399 C   0  0  0  0  0  0  0  0  0  0  0  0
   26.6827  -22.8852  -15.9049 C   0  0  0  0  0  0  0  0  0  0  0  0
   27.6825  -23.8774  -16.4726 C   0  0  0  0  0  0  0  0  0  0  0  0
   28.2220  -23.3483  -17.6993 N   0  0  0  0  0  0  0  0  0  0  0  0
   25.0321  -20.0692  -13.2131 C   0  0  0  0  0  0  0  0  0  0  0  0
   24.0507  -19.8513  -12.4255 O   0  0  0  0  0  0  0  0  0  0  0  0
   25.4075  -19.1025  -14.1572 N   0  0  0  0  0  0  0  0  0  0  0  0
   26.4525  -19.2031  -15.1309 C   0  0  0  0  0  0  0  0  0  0  0  0
   26.2920  -17.9690  -15.9837 C   0  0  0  0  0  0  0  0  0  0  0  0
   25.7684  -16.9458  -15.0243 C   0  0  0  0  0  0  0  0  0  0  0  0
   24.7411  -17.7971  -14.2604 C   0  0  1  0  0  0  0  0  0  0  0  0
   23.5610  -17.8835  -15.1586 C   0  0  0  0  0  0  0  0  0  0  0  0
   23.6087  -18.6999  -16.1132 O   0  0  0  0  0  0  0  0  0  0  0  0
   22.4023  -17.1121  -15.0060 N   0  0  0  0  0  0  0  0  0  0  0  0
   21.1376  -17.3635  -15.6911 C   0  0  1  0  0  0  0  0  0  0  0  0
   20.0174  -17.5674  -14.7405 C   0  0  0  0  0  0  0  0  0  0  0  0
   20.0051  -18.9555  -14.2453 C   0  0  0  0  0  0  0  0  0  0  0  0
   20.8761  -19.9930  -14.5478 C   0  0  0  0  0  0  0  0  0  0  0  0
   20.4793  -21.0786  -13.8658 N   0  0  0  0  0  0  0  0  0  0  0  0
   19.3953  -20.7739  -13.1447 C   0  0  0  0  0  0  0  0  0  0  0  0
   19.1250  -19.4843  -13.3887 N   0  0  0  0  0  0  0  0  0  0  0  0
   20.8505  -16.2980  -16.6715 C   0  0  0  0  0  0  0  0  0  0  0  0
   21.5392  -15.0796  -16.6324 O   0  0  0  0  0  0  0  0  0  0  0  0
   19.9962  -16.4073  -17.5794 O   0  0  0  0  0  0  0  0  0  0  0  0
  2  1  1  1
  3  4  1  0
  3  2  1  0
  4  5  1  0
  6  5  1  0
  7  6  1  0
  8  9  2  0
  8  2  1  0
 10  8  1  0
 11 10  1  0
 12 11  1  0
 13 12  1  0
 13 14  1  0
 14 10  1  0
 14 15  1  6
 16 15  2  0
 17 15  1  0
 18 17  1  0
 18 19  1  1
 20 19  1  0
 20 21  2  0
 22 21  1  0
 23 22  1  0
 24 23  2  0
 24 20  1  0
 25 18  1  0
 26 25  1  0
 27 25  2  0
M  END
$$$$
