KPH.pdb
     RDKit          3D

 27 28  0  0  1  0  0  0  0  0999 V2000
   22.8933  -17.4378  -17.4744 N   0  0  0  0  0  0  0  0  0  0  0  0
   24.2190  -17.3129  -17.0115 C   0  0  1  0  0  0  0  0  0  0  0  0
   24.6391  -15.9727  -16.4963 C   0  0  0  0  0  0  0  0  0  0  0  0
   23.8071  -15.3933  -15.4146 C   0  0  0  0  0  0  0  0  0  0  0  0
   23.2654  -14.0268  -15.6375 C   0  0  0  0  0  0  0  0  0  0  0  0
   22.3563  -13.5501  -14.5184 C   0  0  0  0  0  0  0  0  0  0  0  0
   21.7513  -12.3014  -14.9066 N   0  0  0  0  0  0  0  0  0  0  0  0
   24.5192  -18.3750  -15.9923 C   0  0  0  0  0  0  0  0  0  0  0  0
   23.5521  -18.7364  -15.2405 O   0  0  0  0  0  0  0  0  0  0  0  0
   25.7845  -18.9615  -15.8454 N   0  0  0  0  0  0  0  0  0  0  0  0
   27.0084  -18.5455  -16.4612 C   0  0  0  0  0  0  0  0  0  0  0  0
   28.0658  -19.4070  -15.8162 C   0  0  0  0  0  0  0  0  0  0  0  0
   27.3486  -20.6911  -15.5364 C   0  0  0  0  0  0  0  0  0  0  0  0
   26.0161  -20.1417  -15.0014 C   0  0  1  0  0  0  0  0  0  0  0  0
   26.2965  -19.7342  -13.6006 C   0  0  0  0  0  0  0  0  0  0  0  0
   26.6746  -18.5528  -13.3977 O   0  0  0  0  0  0  0  0  0  0  0  0
   26.1651  -20.5850  -12.4962 N   0  0  0  0  0  0  0  0  0  0  0  0
   26.7060  -20.3147  -11.1670 C   0  0  1  0  0  0  0  0  0  0  0  0
   25.7559  -20.6863  -10.0904 C   0  0  0  0  0  0  0  0  0  0  0  0
   26.2972  -20.3139   -8.7711 C   0  0  0  0  0  0  0  0  0  0  0  0
   27.4617  -19.6192   -8.4751 C   0  0  0  0  0  0  0  0  0  0  0  0
   27.5516  -19.5117   -7.1404 N   0  0  0  0  0  0  0  0  0  0  0  0
   26.4949  -20.1079   -6.5784 C   0  0  0  0  0  0  0  0  0  0  0  0
   25.7482  -20.5868   -7.5828 N   0  0  0  0  0  0  0  0  0  0  0  0
   28.0234  -20.9580  -10.9953 C   0  0  0  0  0  0  0  0  0  0  0  0
   28.9215  -20.5094  -10.0194 O   0  0  0  0  0  0  0  0  0  0  0  0
   28.4170  -21.9214  -11.6904 O   0  0  0  0  0  0  0  0  0  0  0  0
  2  1  1  1
  3  4  1  0
  3  2  1  0
  4  5  1  0
  6  5  1  0
  7  6  1  0
  8  9  2  0
  8  2  1  0
 10  8  1  0
 11 10  1  0
 12 11  1  0
 13 12  1  0
 13 14  1  0
 14 10  1  0
 14 15  1  1
 16 15  2  0
 17 15  1  0
 18 17  1  0
 18 19  1  1
 20 19  1  0
 20 21  2  0
 22 21  1  0
 23 22  1  0
 24 23  2  0
 24 20  1  0
 25 18  1  0
 26 25  1  0
 27 25  2  0
M  END
$$$$
