KPH.pdb
     RDKit          3D

 27 28  0  0  1  0  0  0  0  0999 V2000
   28.8512  -22.4741  -16.9256 N   0  0  0  0  0  0  0  0  0  0  0  0
   28.4316  -21.2013  -17.3630 C   0  0  1  0  0  0  0  0  0  0  0  0
   27.8161  -21.1153  -18.7239 C   0  0  0  0  0  0  0  0  0  0  0  0
   28.7520  -21.1562  -19.8730 C   0  0  0  0  0  0  0  0  0  0  0  0
   29.2010  -22.4975  -20.3309 C   0  0  0  0  0  0  0  0  0  0  0  0
   30.1962  -22.4402  -21.4765 C   0  0  0  0  0  0  0  0  0  0  0  0
   30.7126  -23.7640  -21.7147 N   0  0  0  0  0  0  0  0  0  0  0  0
   27.5239  -20.5715  -16.3452 C   0  0  0  0  0  0  0  0  0  0  0  0
   26.8541  -21.3681  -15.6049 O   0  0  0  0  0  0  0  0  0  0  0  0
   27.3931  -19.1841  -16.1881 N   0  0  0  0  0  0  0  0  0  0  0  0
   28.1133  -18.1620  -16.8857 C   0  0  0  0  0  0  0  0  0  0  0  0
   27.4497  -16.8761  -16.4589 C   0  0  0  0  0  0  0  0  0  0  0  0
   27.0092  -17.1581  -15.0560 C   0  0  0  0  0  0  0  0  0  0  0  0
   26.4550  -18.5814  -15.2311 C   0  0  1  0  0  0  0  0  0  0  0  0
   25.1173  -18.4054  -15.8526 C   0  0  0  0  0  0  0  0  0  0  0  0
   25.0543  -18.3615  -17.1073 O   0  0  0  0  0  0  0  0  0  0  0  0
   23.9259  -18.2857  -15.1266 N   0  0  0  0  0  0  0  0  0  0  0  0
   22.7144  -19.0606  -15.3795 C   0  0  1  0  0  0  0  0  0  0  0  0
   22.9793  -20.5198  -15.4062 C   0  0  0  0  0  0  0  0  0  0  0  0
   23.4072  -20.9925  -14.0774 C   0  0  0  0  0  0  0  0  0  0  0  0
   23.6493  -20.2519  -12.9289 C   0  0  0  0  0  0  0  0  0  0  0  0
   24.0188  -21.1020  -11.9584 N   0  0  0  0  0  0  0  0  0  0  0  0
   24.0213  -22.3485  -12.4422 C   0  0  0  0  0  0  0  0  0  0  0  0
   23.6482  -22.2601  -13.7263 N   0  0  0  0  0  0  0  0  0  0  0  0
   21.6524  -18.7037  -14.4184 C   0  0  0  0  0  0  0  0  0  0  0  0
   21.9644  -18.1139  -13.1875 O   0  0  0  0  0  0  0  0  0  0  0  0
   20.4347  -18.8981  -14.6317 O   0  0  0  0  0  0  0  0  0  0  0  0
  2  1  1  1
  3  4  1  0
  3  2  1  0
  4  5  1  0
  6  5  1  0
  7  6  1  0
  8  9  2  0
  8  2  1  0
 10  8  1  0
 11 10  1  0
 12 11  1  0
 13 12  1  0
 13 14  1  0
 14 10  1  0
 14 15  1  6
 16 15  2  0
 17 15  1  0
 18 17  1  0
 18 19  1  1
 20 19  1  0
 20 21  2  0
 22 21  1  0
 23 22  1  0
 24 23  2  0
 24 20  1  0
 25 18  1  0
 26 25  1  0
 27 25  2  0
M  END
$$$$
