DEW.pdb
     RDKit          3D

 32 33  0  0  1  0  0  0  0  0999 V2000
   28.6763  -20.2226  -15.9980 N   0  0  0  0  0  0  0  0  0  0  0  0
   28.2040  -19.1839  -15.1225 C   0  0  1  0  0  0  0  0  0  0  0  0
   27.9110  -17.9351  -15.8812 C   0  0  0  0  0  0  0  0  0  0  0  0
   28.7797  -17.6770  -17.0450 C   0  0  0  0  0  0  0  0  0  0  0  0
   29.6171  -18.4443  -17.5322 O   0  0  0  0  0  0  0  0  0  0  0  0
   27.0322  -19.5746  -14.3038 C   0  0  0  0  0  0  0  0  0  0  0  0
   26.1731  -18.7033  -14.0499 O   0  0  0  0  0  0  0  0  0  0  0  0
   28.6241  -16.4207  -17.6497 O   0  0  0  0  0  0  0  0  0  0  0  0
   26.8139  -20.8853  -13.7770 N   0  0  0  0  0  0  0  0  0  0  0  0
   25.5285  -21.4098  -13.4521 C   0  0  1  0  0  0  0  0  0  0  0  0
   25.0795  -22.6078  -14.1627 C   0  0  0  0  0  0  0  0  0  0  0  0
   23.7905  -23.2401  -13.9182 C   0  0  0  0  0  0  0  0  0  0  0  0
   23.4079  -24.4456  -14.6509 C   0  0  0  0  0  0  0  0  0  0  0  0
   23.5651  -25.6289  -14.3566 O   0  0  0  0  0  0  0  0  0  0  0  0
   25.2966  -21.4582  -11.9753 C   0  0  0  0  0  0  0  0  0  0  0  0
   24.1820  -21.8109  -11.5171 O   0  0  0  0  0  0  0  0  0  0  0  0
   22.7532  -24.2311  -15.8953 O   0  0  0  0  0  0  0  0  0  0  0  0
   26.3008  -21.1165  -11.0364 N   0  0  0  0  0  0  0  0  0  0  0  0
   26.0223  -21.1076   -9.5909 C   0  0  1  0  0  0  0  0  0  0  0  0
   27.3058  -20.8212   -8.8657 C   0  0  0  0  0  0  0  0  0  0  0  0
   27.1415  -20.6430   -7.4329 C   0  0  0  0  0  0  0  0  0  0  0  0
   26.0762  -21.1006   -6.6704 C   0  0  0  0  0  0  0  0  0  0  0  0
   26.2635  -20.7121   -5.4010 N   0  0  0  0  0  0  0  0  0  0  0  0
   27.4188  -20.0081   -5.2767 C   0  0  0  0  0  0  0  0  0  0  0  0
   28.0342  -19.4272   -4.1877 C   0  0  0  0  0  0  0  0  0  0  0  0
   29.2347  -18.7821   -4.3587 C   0  0  0  0  0  0  0  0  0  0  0  0
   29.8050  -18.7223   -5.5994 C   0  0  0  0  0  0  0  0  0  0  0  0
   29.1788  -19.3054   -6.6725 C   0  0  0  0  0  0  0  0  0  0  0  0
   27.9748  -19.9610   -6.5466 C   0  0  0  0  0  0  0  0  0  0  0  0
   24.9018  -20.2265   -9.2661 C   0  0  0  0  0  0  0  0  0  0  0  0
   24.8644  -19.0748   -9.8140 O   0  0  0  0  0  0  0  0  0  0  0  0
   23.8517  -20.5110   -8.4159 O   0  0  0  0  0  0  0  0  0  0  0  0
  2  1  1  6
  2  3  1  0
  3  4  1  0
  4  5  2  0
  4  8  1  0
  6  7  2  0
  6  2  1  0
  9  6  1  0
 10 11  1  1
 10  9  1  0
 11 12  1  0
 12 13  1  0
 13 17  1  0
 14 13  2  0
 15 18  1  0
 15 10  1  0
 16 15  2  0
 19 18  1  0
 19 20  1  1
 20 21  1  0
 21 22  2  0
 22 23  1  0
 24 23  1  0
 25 24  2  0
 26 25  1  0
 27 28  1  0
 27 26  2  0
 28 29  2  0
 29 21  1  0
 29 24  1  0
 30 32  1  0
 30 19  1  0
 31 30  2  0
M  END
$$$$
