DEW.pdb
     RDKit          3D

 32 33  0  0  1  0  0  0  0  0999 V2000
   30.6768  -33.9337  -22.5893 N   0  0  0  0  0  0  0  0  0  0  0  0
   30.6474  -34.1326  -21.1652 C   0  0  1  0  0  0  0  0  0  0  0  0
   31.1562  -32.9310  -20.4452 C   0  0  0  0  0  0  0  0  0  0  0  0
   32.5181  -33.0484  -19.8911 C   0  0  0  0  0  0  0  0  0  0  0  0
   33.1158  -32.2127  -19.2043 O   0  0  0  0  0  0  0  0  0  0  0  0
   29.3173  -34.5214  -20.6400 C   0  0  0  0  0  0  0  0  0  0  0  0
   28.3787  -34.6580  -21.4538 O   0  0  0  0  0  0  0  0  0  0  0  0
   33.1907  -34.2438  -20.1863 O   0  0  0  0  0  0  0  0  0  0  0  0
   29.0276  -34.7499  -19.2591 N   0  0  0  0  0  0  0  0  0  0  0  0
   27.7483  -35.1429  -18.7675 C   0  0  1  0  0  0  0  0  0  0  0  0
   27.6717  -36.3582  -17.9556 C   0  0  0  0  0  0  0  0  0  0  0  0
   26.4244  -36.8657  -17.4010 C   0  0  0  0  0  0  0  0  0  0  0  0
   26.3909  -37.4317  -16.0538 C   0  0  0  0  0  0  0  0  0  0  0  0
   26.7839  -38.5239  -15.6488 O   0  0  0  0  0  0  0  0  0  0  0  0
   26.9821  -33.9884  -18.2044 C   0  0  0  0  0  0  0  0  0  0  0  0
   25.7517  -34.0915  -17.9762 O   0  0  0  0  0  0  0  0  0  0  0  0
   25.8191  -36.6030  -15.0491 O   0  0  0  0  0  0  0  0  0  0  0  0
   27.5914  -32.7451  -17.9051 N   0  0  0  0  0  0  0  0  0  0  0  0
   26.8273  -31.6511  -17.2833 C   0  0  1  0  0  0  0  0  0  0  0  0
   27.7210  -30.9523  -16.2994 C   0  0  0  0  0  0  0  0  0  0  0  0
   28.9823  -30.5072  -16.8674 C   0  0  0  0  0  0  0  0  0  0  0  0
   29.1735  -29.3704  -17.6399 C   0  0  0  0  0  0  0  0  0  0  0  0
   30.4618  -29.3169  -18.0069 N   0  0  0  0  0  0  0  0  0  0  0  0
   31.1503  -30.3773  -17.5094 C   0  0  0  0  0  0  0  0  0  0  0  0
   32.4771  -30.7425  -17.6004 C   0  0  0  0  0  0  0  0  0  0  0  0
   32.9061  -31.8819  -16.9644 C   0  0  0  0  0  0  0  0  0  0  0  0
   32.0190  -32.6387  -16.2513 C   0  0  0  0  0  0  0  0  0  0  0  0
   30.7020  -32.2610  -16.1714 C   0  0  0  0  0  0  0  0  0  0  0  0
   30.2291  -31.1278  -16.7936 C   0  0  0  0  0  0  0  0  0  0  0  0
   26.2020  -30.7945  -18.2896 C   0  0  0  0  0  0  0  0  0  0  0  0
   25.1995  -30.0877  -17.9382 O   0  0  0  0  0  0  0  0  0  0  0  0
   26.5883  -30.6581  -19.6081 O   0  0  0  0  0  0  0  0  0  0  0  0
  2  1  1  6
  2  3  1  0
  3  4  1  0
  4  5  2  0
  4  8  1  0
  6  7  2  0
  6  2  1  0
  9  6  1  0
 10 11  1  1
 10  9  1  0
 11 12  1  0
 12 13  1  0
 13 17  1  0
 14 13  2  0
 15 18  1  0
 15 10  1  0
 16 15  2  0
 19 18  1  0
 19 20  1  6
 20 21  1  0
 21 22  2  0
 22 23  1  0
 24 23  1  0
 25 24  2  0
 26 25  1  0
 27 28  1  0
 27 26  2  0
 28 29  2  0
 29 21  1  0
 29 24  1  0
 30 32  1  0
 30 19  1  0
 31 30  2  0
M  END
$$$$
