DEW.pdb
     RDKit          3D

 32 33  0  0  1  0  0  0  0  0999 V2000
   28.2627  -21.2487  -18.1229 N   0  0  0  0  0  0  0  0  0  0  0  0
   28.4498  -21.7894  -16.8033 C   0  0  1  0  0  0  0  0  0  0  0  0
   29.8965  -21.9880  -16.5053 C   0  0  0  0  0  0  0  0  0  0  0  0
   30.5370  -23.1293  -17.1854 C   0  0  0  0  0  0  0  0  0  0  0  0
   31.6869  -23.5479  -17.0122 O   0  0  0  0  0  0  0  0  0  0  0  0
   27.8090  -20.9924  -15.7308 C   0  0  0  0  0  0  0  0  0  0  0  0
   28.2547  -19.8479  -15.4999 O   0  0  0  0  0  0  0  0  0  0  0  0
   29.7398  -23.7984  -18.1262 O   0  0  0  0  0  0  0  0  0  0  0  0
   26.7117  -21.4430  -14.9333 N   0  0  0  0  0  0  0  0  0  0  0  0
   25.9479  -20.5965  -14.0774 C   0  0  1  0  0  0  0  0  0  0  0  0
   24.6585  -20.1103  -14.5703 C   0  0  0  0  0  0  0  0  0  0  0  0
   23.6921  -19.4240  -13.7240 C   0  0  0  0  0  0  0  0  0  0  0  0
   22.3915  -19.0264  -14.2598 C   0  0  0  0  0  0  0  0  0  0  0  0
   21.3263  -19.6399  -14.2769 O   0  0  0  0  0  0  0  0  0  0  0  0
   25.9065  -21.1059  -12.6718 C   0  0  0  0  0  0  0  0  0  0  0  0
   25.5056  -22.2706  -12.4282 O   0  0  0  0  0  0  0  0  0  0  0  0
   22.3363  -17.7356  -14.8546 O   0  0  0  0  0  0  0  0  0  0  0  0
   26.3093  -20.3182  -11.5654 N   0  0  0  0  0  0  0  0  0  0  0  0
   26.1833  -20.8183  -10.1866 C   0  0  1  0  0  0  0  0  0  0  0  0
   27.0568  -19.9787   -9.2993 C   0  0  0  0  0  0  0  0  0  0  0  0
   26.9196  -20.2834   -7.8851 C   0  0  0  0  0  0  0  0  0  0  0  0
   25.9006  -21.0258   -7.3053 C   0  0  0  0  0  0  0  0  0  0  0  0
   26.0987  -21.0580   -5.9798 N   0  0  0  0  0  0  0  0  0  0  0  0
   27.2167  -20.3641   -5.6414 C   0  0  0  0  0  0  0  0  0  0  0  0
   27.8270  -20.1305   -4.4268 C   0  0  0  0  0  0  0  0  0  0  0  0
   28.9857  -19.3941   -4.3871 C   0  0  0  0  0  0  0  0  0  0  0  0
   29.5201  -18.9025   -5.5451 C   0  0  0  0  0  0  0  0  0  0  0  0
   28.8995  -19.1439   -6.7453 C   0  0  0  0  0  0  0  0  0  0  0  0
   27.7368  -19.8757   -6.8310 C   0  0  0  0  0  0  0  0  0  0  0  0
   24.7829  -20.9228   -9.7801 C   0  0  0  0  0  0  0  0  0  0  0  0
   23.9523  -20.0838  -10.2640 O   0  0  0  0  0  0  0  0  0  0  0  0
   24.2454  -21.8541   -8.9139 O   0  0  0  0  0  0  0  0  0  0  0  0
  2  1  1  6
  2  3  1  0
  3  4  1  0
  4  5  2  0
  4  8  1  0
  6  7  2  0
  6  2  1  0
  9  6  1  0
 10 11  1  6
 10  9  1  0
 11 12  1  0
 12 13  1  0
 13 17  1  0
 14 13  2  0
 15 18  1  0
 15 10  1  0
 16 15  2  0
 19 18  1  0
 19 20  1  1
 20 21  1  0
 21 22  2  0
 22 23  1  0
 24 23  1  0
 25 24  2  0
 26 25  1  0
 27 28  1  0
 27 26  2  0
 28 29  2  0
 29 21  1  0
 29 24  1  0
 30 32  1  0
 30 19  1  0
 31 30  2  0
M  END
$$$$
