DEW.pdb
     RDKit          3D

 32 33  0  0  1  0  0  0  0  0999 V2000
   28.9059  -22.8719  -16.4057 N   0  0  0  0  0  0  0  0  0  0  0  0
   28.7327  -21.4800  -16.7242 C   0  0  1  0  0  0  0  0  0  0  0  0
   28.1576  -21.3096  -18.0885 C   0  0  0  0  0  0  0  0  0  0  0  0
   27.0275  -22.1977  -18.4198 C   0  0  0  0  0  0  0  0  0  0  0  0
   27.0775  -23.4119  -18.6452 O   0  0  0  0  0  0  0  0  0  0  0  0
   27.9279  -20.7316  -15.7301 C   0  0  0  0  0  0  0  0  0  0  0  0
   27.5219  -19.5906  -16.0385 O   0  0  0  0  0  0  0  0  0  0  0  0
   25.7697  -21.5795  -18.4813 O   0  0  0  0  0  0  0  0  0  0  0  0
   27.5828  -21.2231  -14.4331 N   0  0  0  0  0  0  0  0  0  0  0  0
   26.4818  -20.7422  -13.6655 C   0  0  1  0  0  0  0  0  0  0  0  0
   25.1910  -20.5951  -14.3393 C   0  0  0  0  0  0  0  0  0  0  0  0
   23.9878  -20.1353  -13.6597 C   0  0  0  0  0  0  0  0  0  0  0  0
   23.3729  -18.8611  -14.0267 C   0  0  0  0  0  0  0  0  0  0  0  0
   23.5125  -18.1835  -15.0430 O   0  0  0  0  0  0  0  0  0  0  0  0
   26.3951  -21.4052  -12.3277 C   0  0  0  0  0  0  0  0  0  0  0  0
   26.1814  -22.6395  -12.2414 O   0  0  0  0  0  0  0  0  0  0  0  0
   22.4742  -18.3104  -13.0717 O   0  0  0  0  0  0  0  0  0  0  0  0
   26.5468  -20.6909  -11.1138 N   0  0  0  0  0  0  0  0  0  0  0  0
   26.4121  -21.3631   -9.8111 C   0  0  1  0  0  0  0  0  0  0  0  0
   27.7245  -21.2582   -9.0888 C   0  0  0  0  0  0  0  0  0  0  0  0
   27.6979  -20.3496   -7.9550 C   0  0  0  0  0  0  0  0  0  0  0  0
   26.9828  -19.1630   -7.8767 C   0  0  0  0  0  0  0  0  0  0  0  0
   27.2394  -18.5887   -6.6928 N   0  0  0  0  0  0  0  0  0  0  0  0
   28.1028  -19.3452   -5.9660 C   0  0  0  0  0  0  0  0  0  0  0  0
   28.6399  -19.1814   -4.7063 C   0  0  0  0  0  0  0  0  0  0  0  0
   29.4889  -20.1391   -4.2076 C   0  0  0  0  0  0  0  0  0  0  0  0
   29.7916  -21.2392   -4.9601 C   0  0  0  0  0  0  0  0  0  0  0  0
   29.2486  -21.3863   -6.2120 C   0  0  0  0  0  0  0  0  0  0  0  0
   28.3944  -20.4510   -6.7510 C   0  0  0  0  0  0  0  0  0  0  0  0
   25.2448  -20.8787   -9.0760 C   0  0  0  0  0  0  0  0  0  0  0  0
   24.9111  -21.4905   -8.0072 O   0  0  0  0  0  0  0  0  0  0  0  0
   24.4476  -19.8035   -9.4152 O   0  0  0  0  0  0  0  0  0  0  0  0
  2  1  1  1
  2  3  1  0
  3  4  1  0
  4  5  2  0
  4  8  1  0
  6  7  2  0
  6  2  1  0
  9  6  1  0
 10 11  1  6
 10  9  1  0
 11 12  1  0
 12 13  1  0
 13 17  1  0
 14 13  2  0
 15 18  1  0
 15 10  1  0
 16 15  2  0
 19 18  1  0
 19 20  1  1
 20 21  1  0
 21 22  2  0
 22 23  1  0
 24 23  1  0
 25 24  2  0
 26 25  1  0
 27 28  1  0
 27 26  2  0
 28 29  2  0
 29 21  1  0
 29 24  1  0
 30 32  1  0
 30 19  1  0
 31 30  2  0
M  END
$$$$
