DEW.pdb
     RDKit          3D

 32 33  0  0  1  0  0  0  0  0999 V2000
   23.9713  -22.0737  -16.1863 N   0  0  0  0  0  0  0  0  0  0  0  0
   23.3789  -20.7713  -16.0395 C   0  0  1  0  0  0  0  0  0  0  0  0
   23.8436  -19.8468  -17.1122 C   0  0  0  0  0  0  0  0  0  0  0  0
   25.3042  -19.6673  -17.2110 C   0  0  0  0  0  0  0  0  0  0  0  0
   26.0667  -20.2082  -18.0194 O   0  0  0  0  0  0  0  0  0  0  0  0
   21.8982  -20.7877  -15.9811 C   0  0  0  0  0  0  0  0  0  0  0  0
   21.2639  -20.3957  -16.9840 O   0  0  0  0  0  0  0  0  0  0  0  0
   25.8700  -18.7844  -16.2790 O   0  0  0  0  0  0  0  0  0  0  0  0
   21.1377  -21.2196  -14.8506 N   0  0  0  0  0  0  0  0  0  0  0  0
   19.7127  -21.2357  -14.8077 C   0  0  1  0  0  0  0  0  0  0  0  0
   19.0645  -22.2733  -14.0044 C   0  0  0  0  0  0  0  0  0  0  0  0
   18.6208  -22.0560  -12.6344 C   0  0  0  0  0  0  0  0  0  0  0  0
   17.8738  -23.0937  -11.9262 C   0  0  0  0  0  0  0  0  0  0  0  0
   16.7765  -23.0362  -11.3748 O   0  0  0  0  0  0  0  0  0  0  0  0
   19.1395  -19.8686  -14.6087 C   0  0  0  0  0  0  0  0  0  0  0  0
   19.7927  -18.9870  -13.9982 O   0  0  0  0  0  0  0  0  0  0  0  0
   18.5004  -24.3687  -11.8574 O   0  0  0  0  0  0  0  0  0  0  0  0
   17.8574  -19.5044  -15.0887 N   0  0  0  0  0  0  0  0  0  0  0  0
   17.3187  -18.1513  -14.8747 C   0  0  1  0  0  0  0  0  0  0  0  0
   18.2647  -17.1640  -15.4956 C   0  0  0  0  0  0  0  0  0  0  0  0
   17.7821  -15.7936  -15.4679 C   0  0  0  0  0  0  0  0  0  0  0  0
   17.0832  -15.1538  -16.4819 C   0  0  0  0  0  0  0  0  0  0  0  0
   16.8439  -13.8905  -16.1024 N   0  0  0  0  0  0  0  0  0  0  0  0
   17.3555  -13.6522  -14.8665 C   0  0  0  0  0  0  0  0  0  0  0  0
   17.3476  -12.5309  -14.0637 C   0  0  0  0  0  0  0  0  0  0  0  0
   17.9384  -12.5866  -12.8249 C   0  0  0  0  0  0  0  0  0  0  0  0
   18.5251  -13.7463  -12.4018 C   0  0  0  0  0  0  0  0  0  0  0  0
   18.5244  -14.8529  -13.2137 C   0  0  0  0  0  0  0  0  0  0  0  0
   17.9450  -14.8411  -14.4624 C   0  0  0  0  0  0  0  0  0  0  0  0
   15.9264  -18.0534  -15.3099 C   0  0  0  0  0  0  0  0  0  0  0  0
   15.5016  -18.9035  -16.1613 O   0  0  0  0  0  0  0  0  0  0  0  0
   14.9964  -17.1242  -14.8878 O   0  0  0  0  0  0  0  0  0  0  0  0
  2  1  1  6
  2  3  1  0
  3  4  1  0
  4  5  2  0
  4  8  1  0
  6  7  2  0
  6  2  1  0
  9  6  1  0
 10 11  1  1
 10  9  1  0
 11 12  1  0
 12 13  1  0
 13 17  1  0
 14 13  2  0
 15 18  1  0
 15 10  1  0
 16 15  2  0
 19 18  1  0
 19 20  1  6
 20 21  1  0
 21 22  2  0
 22 23  1  0
 24 23  1  0
 25 24  2  0
 26 25  1  0
 27 28  1  0
 27 26  2  0
 28 29  2  0
 29 21  1  0
 29 24  1  0
 30 32  1  0
 30 19  1  0
 31 30  2  0
M  END
$$$$
