DEW.pdb
     RDKit          3D

 32 33  0  0  1  0  0  0  0  0999 V2000
   21.0680  -20.1609  -14.4979 N   0  0  0  0  0  0  0  0  0  0  0  0
   20.9748  -20.2921  -13.0687 C   0  0  1  0  0  0  0  0  0  0  0  0
   19.6999  -20.9548  -12.6731 C   0  0  0  0  0  0  0  0  0  0  0  0
   18.4658  -20.2398  -13.0491 C   0  0  0  0  0  0  0  0  0  0  0  0
   17.8589  -20.3185  -14.1228 O   0  0  0  0  0  0  0  0  0  0  0  0
   22.1287  -20.9885  -12.4526 C   0  0  0  0  0  0  0  0  0  0  0  0
   22.0075  -21.4088  -11.2819 O   0  0  0  0  0  0  0  0  0  0  0  0
   17.9403  -19.3832  -12.0701 O   0  0  0  0  0  0  0  0  0  0  0  0
   23.3807  -21.2130  -13.1046 N   0  0  0  0  0  0  0  0  0  0  0  0
   24.4989  -21.8460  -12.4867 C   0  0  1  0  0  0  0  0  0  0  0  0
   25.3330  -22.7193  -13.3134 C   0  0  0  0  0  0  0  0  0  0  0  0
   24.7854  -23.7572  -14.1759 C   0  0  0  0  0  0  0  0  0  0  0  0
   25.6680  -24.5518  -15.0280 C   0  0  0  0  0  0  0  0  0  0  0  0
   26.3214  -24.2166  -16.0140 O   0  0  0  0  0  0  0  0  0  0  0  0
   25.2767  -20.9015  -11.6266 C   0  0  0  0  0  0  0  0  0  0  0  0
   25.5919  -19.7637  -12.0539 O   0  0  0  0  0  0  0  0  0  0  0  0
   25.7999  -25.9229  -14.6736 O   0  0  0  0  0  0  0  0  0  0  0  0
   25.6892  -21.2338  -10.3127 N   0  0  0  0  0  0  0  0  0  0  0  0
   26.6184  -20.3718   -9.5639 C   0  0  1  0  0  0  0  0  0  0  0  0
   26.3913  -20.5971   -8.0966 C   0  0  0  0  0  0  0  0  0  0  0  0
   27.2289  -19.7734   -7.2413 C   0  0  0  0  0  0  0  0  0  0  0  0
   27.5107  -18.4274   -7.4269 C   0  0  0  0  0  0  0  0  0  0  0  0
   28.3444  -18.0292   -6.4554 N   0  0  0  0  0  0  0  0  0  0  0  0
   28.6366  -19.0582   -5.6177 C   0  0  0  0  0  0  0  0  0  0  0  0
   29.4203  -19.1338   -4.4854 C   0  0  0  0  0  0  0  0  0  0  0  0
   29.5177  -20.3279   -3.8136 C   0  0  0  0  0  0  0  0  0  0  0  0
   28.8408  -21.4237   -4.2709 C   0  0  0  0  0  0  0  0  0  0  0  0
   28.0657  -21.3311   -5.3997 C   0  0  0  0  0  0  0  0  0  0  0  0
   27.9405  -20.1550   -6.1041 C   0  0  0  0  0  0  0  0  0  0  0  0
   27.9957  -20.5408  -10.0243 C   0  0  0  0  0  0  0  0  0  0  0  0
   28.3246  -21.6616  -10.5378 O   0  0  0  0  0  0  0  0  0  0  0  0
   29.0028  -19.5979   -9.9685 O   0  0  0  0  0  0  0  0  0  0  0  0
  2  1  1  6
  2  3  1  0
  3  4  1  0
  4  5  2  0
  4  8  1  0
  6  7  2  0
  6  2  1  0
  9  6  1  0
 10 11  1  6
 10  9  1  0
 11 12  1  0
 12 13  1  0
 13 17  1  0
 14 13  2  0
 15 18  1  0
 15 10  1  0
 16 15  2  0
 19 18  1  0
 19 20  1  1
 20 21  1  0
 21 22  2  0
 22 23  1  0
 24 23  1  0
 25 24  2  0
 26 25  1  0
 27 28  1  0
 27 26  2  0
 28 29  2  0
 29 21  1  0
 29 24  1  0
 30 32  1  0
 30 19  1  0
 31 30  2  0
M  END
$$$$
