MMH.pdb
     RDKit          3D

 27 27  0  0  1  0  0  0  0  0999 V2000
   19.1545  -19.8994  -15.5816 C   0  0  0  0  0  0  0  0  0  0  0  0
   20.1354  -18.4077  -15.3044 S   0  0  0  0  0  0  0  0  0  0  0  0
   21.7544  -18.7574  -14.6309 C   0  0  0  0  0  0  0  0  0  0  0  0
   21.7120  -19.7496  -13.4916 C   0  0  0  0  0  0  0  0  0  0  0  0
   23.0797  -19.9816  -12.8890 C   0  0  2  0  0  0  0  0  0  0  0  0
   24.0098  -20.5155  -13.8667 N   0  0  0  0  0  0  0  0  0  0  0  0
   23.0628  -20.8806  -11.7297 C   0  0  0  0  0  0  0  0  0  0  0  0
   22.9436  -22.1234  -11.8697 O   0  0  0  0  0  0  0  0  0  0  0  0
   27.8275  -19.5951   -7.0448 C   0  0  0  0  0  0  0  0  0  0  0  0
   26.0324  -19.5961   -6.8512 S   0  0  0  0  0  0  0  0  0  0  0  0
   25.2176  -20.5603   -8.1520 C   0  0  0  0  0  0  0  0  0  0  0  0
   23.7097  -20.4991   -8.0169 C   0  0  0  0  0  0  0  0  0  0  0  0
   23.0389  -21.1638   -9.2231 C   0  0  2  0  0  0  0  0  0  0  0  0
   23.1830  -20.3591  -10.4035 N   0  0  0  0  0  0  0  0  0  0  0  0
   21.6246  -21.4724   -8.8990 C   0  0  0  0  0  0  0  0  0  0  0  0
   20.8036  -20.5221   -8.9067 O   0  0  0  0  0  0  0  0  0  0  0  0
   21.2583  -22.8084   -8.5969 N   0  0  0  0  0  0  0  0  0  0  0  0
   19.8358  -23.0538   -8.3055 C   0  0  1  0  0  0  0  0  0  0  0  0
   19.4503  -24.2457   -9.1463 C   0  0  0  0  0  0  0  0  0  0  0  0
   18.0543  -24.6840   -8.9603 C   0  0  0  0  0  0  0  0  0  0  0  0
   17.1749  -23.9868   -8.1499 C   0  0  0  0  0  0  0  0  0  0  0  0
   15.9806  -24.6017   -8.1646 N   0  0  0  0  0  0  0  0  0  0  0  0
   16.1346  -25.6558   -8.9720 C   0  0  0  0  0  0  0  0  0  0  0  0
   17.3825  -25.7126   -9.4560 N   0  0  0  0  0  0  0  0  0  0  0  0
   19.7178  -23.2782   -6.8638 C   0  0  0  0  0  0  0  0  0  0  0  0
   18.4715  -23.2701   -6.2531 O   0  0  0  0  0  0  0  0  0  0  0  0
   20.6960  -23.4902   -6.0770 O   0  0  0  0  0  0  0  0  0  0  0  0
  2  1  1  0
  3  4  1  0
  3  2  1  0
  4  5  1  0
  5  6  1  6
  7  8  2  0
  7  5  1  0
 10 11  1  0
 10  9  1  0
 11 12  1  0
 13 12  1  1
 13 14  1  0
 14  7  1  0
 15 17  1  0
 15 13  1  0
 16 15  2  0
 18 25  1  0
 18 17  1  0
 18 19  1  6
 19 20  1  0
 20 24  1  0
 20 21  2  0
 21 22  1  0
 23 22  1  0
 24 23  2  0
 25 26  1  0
 27 25  2  0
M  END
$$$$
