MMH.pdb
     RDKit          3D

 27 27  0  0  1  0  0  0  0  0999 V2000
   26.3102  -15.5493  -15.3850 C   0  0  0  0  0  0  0  0  0  0  0  0
   27.8052  -16.1272  -16.2187 S   0  0  0  0  0  0  0  0  0  0  0  0
   28.3973  -17.6880  -15.5782 C   0  0  0  0  0  0  0  0  0  0  0  0
   27.2934  -18.5337  -14.9863 C   0  0  0  0  0  0  0  0  0  0  0  0
   27.8253  -19.8001  -14.3530 C   0  0  2  0  0  0  0  0  0  0  0  0
   28.5078  -20.6360  -15.3234 N   0  0  0  0  0  0  0  0  0  0  0  0
   26.7889  -20.6060  -13.6982 C   0  0  0  0  0  0  0  0  0  0  0  0
   26.3179  -21.6335  -14.2466 O   0  0  0  0  0  0  0  0  0  0  0  0
   27.8508  -21.0942   -7.0017 C   0  0  0  0  0  0  0  0  0  0  0  0
   26.3155  -20.6209   -7.8255 S   0  0  0  0  0  0  0  0  0  0  0  0
   26.3221  -21.0881   -9.5769 C   0  0  0  0  0  0  0  0  0  0  0  0
   25.0998  -20.5500  -10.2925 C   0  0  0  0  0  0  0  0  0  0  0  0
   25.1666  -20.8832  -11.7863 C   0  0  2  0  0  0  0  0  0  0  0  0
   26.2873  -20.2381  -12.4105 N   0  0  0  0  0  0  0  0  0  0  0  0
   23.8720  -20.5502  -12.4292 C   0  0  0  0  0  0  0  0  0  0  0  0
   23.6045  -19.3363  -12.6079 O   0  0  0  0  0  0  0  0  0  0  0  0
   22.9981  -21.5991  -12.8121 N   0  0  0  0  0  0  0  0  0  0  0  0
   21.7339  -21.2041  -13.4559 C   0  0  1  0  0  0  0  0  0  0  0  0
   21.4248  -22.2993  -14.4463 C   0  0  0  0  0  0  0  0  0  0  0  0
   20.1492  -22.1161  -15.1638 C   0  0  0  0  0  0  0  0  0  0  0  0
   19.3243  -21.0325  -14.9156 C   0  0  0  0  0  0  0  0  0  0  0  0
   18.2399  -21.1147  -15.7043 N   0  0  0  0  0  0  0  0  0  0  0  0
   18.4058  -22.2316  -16.4196 C   0  0  0  0  0  0  0  0  0  0  0  0
   19.5548  -22.8415  -16.0996 N   0  0  0  0  0  0  0  0  0  0  0  0
   20.7326  -21.0569  -12.3982 C   0  0  0  0  0  0  0  0  0  0  0  0
   20.8240  -21.8112  -11.2368 O   0  0  0  0  0  0  0  0  0  0  0  0
   19.7368  -20.2649  -12.4430 O   0  0  0  0  0  0  0  0  0  0  0  0
  2  1  1  0
  3  4  1  0
  3  2  1  0
  4  5  1  0
  5  6  1  6
  7  8  2  0
  7  5  1  0
 10 11  1  0
 10  9  1  0
 11 12  1  0
 13 12  1  1
 13 14  1  0
 14  7  1  0
 15 17  1  0
 15 13  1  0
 16 15  2  0
 18 25  1  0
 18 17  1  0
 18 19  1  6
 19 20  1  0
 20 24  1  0
 20 21  2  0
 21 22  1  0
 23 22  1  0
 24 23  2  0
 25 26  1  0
 27 25  2  0
M  END
$$$$
