MMH.pdb
     RDKit          3D

 27 27  0  0  1  0  0  0  0  0999 V2000
   26.6427  -14.4456  -13.9284 C   0  0  0  0  0  0  0  0  0  0  0  0
   27.2433  -14.5283  -15.6304 S   0  0  0  0  0  0  0  0  0  0  0  0
   27.8256  -16.1574  -16.0821 C   0  0  0  0  0  0  0  0  0  0  0  0
   27.4747  -17.2094  -15.0553 C   0  0  0  0  0  0  0  0  0  0  0  0
   26.6115  -18.3062  -15.6377 C   0  0  2  0  0  0  0  0  0  0  0  0
   25.2676  -17.8356  -15.9178 N   0  0  0  0  0  0  0  0  0  0  0  0
   26.5151  -19.4922  -14.7793 C   0  0  0  0  0  0  0  0  0  0  0  0
   27.5435  -20.0858  -14.3690 O   0  0  0  0  0  0  0  0  0  0  0  0
   25.9051  -20.9421   -8.8229 C   0  0  0  0  0  0  0  0  0  0  0  0
   25.9420  -19.4452   -9.8317 S   0  0  0  0  0  0  0  0  0  0  0  0
   25.1655  -19.7064  -11.4486 C   0  0  0  0  0  0  0  0  0  0  0  0
   25.7836  -20.8870  -12.1695 C   0  0  0  0  0  0  0  0  0  0  0  0
   25.0750  -21.1261  -13.5064 C   0  0  2  0  0  0  0  0  0  0  0  0
   25.2386  -20.0035  -14.3866 N   0  0  0  0  0  0  0  0  0  0  0  0
   23.6531  -21.4706  -13.2618 C   0  0  0  0  0  0  0  0  0  0  0  0
   23.2087  -21.3214  -12.0967 O   0  0  0  0  0  0  0  0  0  0  0  0
   22.8608  -21.9485  -14.3363 N   0  0  0  0  0  0  0  0  0  0  0  0
   21.7440  -22.8427  -13.9872 C   0  0  1  0  0  0  0  0  0  0  0  0
   22.3812  -24.0670  -13.3781 C   0  0  0  0  0  0  0  0  0  0  0  0
   23.2065  -24.8451  -14.3210 C   0  0  0  0  0  0  0  0  0  0  0  0
   23.3100  -24.4958  -15.6564 C   0  0  0  0  0  0  0  0  0  0  0  0
   24.1208  -25.3680  -16.2782 N   0  0  0  0  0  0  0  0  0  0  0  0
   24.5025  -26.2327  -15.3331 C   0  0  0  0  0  0  0  0  0  0  0  0
   23.9555  -25.9244  -14.1498 N   0  0  0  0  0  0  0  0  0  0  0  0
   20.8671  -22.1095  -13.0727 C   0  0  0  0  0  0  0  0  0  0  0  0
   21.4054  -21.2644  -12.1124 O   0  0  0  0  0  0  0  0  0  0  0  0
   19.5957  -22.1755  -13.0730 O   0  0  0  0  0  0  0  0  0  0  0  0
  2  1  1  0
  3  4  1  0
  3  2  1  0
  4  5  1  0
  5  6  1  1
  7  8  2  0
  7  5  1  0
 10 11  1  0
 10  9  1  0
 11 12  1  0
 13 12  1  1
 13 14  1  0
 14  7  1  0
 15 17  1  0
 15 13  1  0
 16 15  2  0
 18 25  1  0
 18 17  1  0
 18 19  1  1
 19 20  1  0
 20 24  1  0
 20 21  2  0
 21 22  1  0
 23 22  1  0
 24 23  2  0
 25 26  1  0
 27 25  2  0
M  END
$$$$
