MMH.pdb
     RDKit          3D

 27 27  0  0  1  0  0  0  0  0999 V2000
   28.6872  -23.8054  -17.2389 C   0  0  0  0  0  0  0  0  0  0  0  0
   29.4044  -22.2706  -17.8667 S   0  0  0  0  0  0  0  0  0  0  0  0
   29.2223  -20.9036  -16.7286 C   0  0  0  0  0  0  0  0  0  0  0  0
   28.7240  -21.3369  -15.3691 C   0  0  0  0  0  0  0  0  0  0  0  0
   27.6199  -20.4394  -14.8562 C   0  0  2  0  0  0  0  0  0  0  0  0
   28.1429  -19.1784  -14.3636 N   0  0  0  0  0  0  0  0  0  0  0  0
   26.8154  -21.0516  -13.7930 C   0  0  0  0  0  0  0  0  0  0  0  0
   26.1891  -22.1238  -13.9841 O   0  0  0  0  0  0  0  0  0  0  0  0
   27.5518  -20.4779   -7.2322 C   0  0  0  0  0  0  0  0  0  0  0  0
   25.7575  -20.3688   -7.4005 S   0  0  0  0  0  0  0  0  0  0  0  0
   25.2110  -20.8234   -9.0679 C   0  0  0  0  0  0  0  0  0  0  0  0
   26.1934  -20.3435  -10.1168 C   0  0  0  0  0  0  0  0  0  0  0  0
   25.7740  -20.8361  -11.5054 C   0  0  2  0  0  0  0  0  0  0  0  0
   26.7251  -20.4376  -12.5046 N   0  0  0  0  0  0  0  0  0  0  0  0
   24.3944  -20.3781  -11.8007 C   0  0  0  0  0  0  0  0  0  0  0  0
   24.1590  -19.1470  -11.7226 O   0  0  0  0  0  0  0  0  0  0  0  0
   23.4077  -21.3331  -12.1544 N   0  0  0  0  0  0  0  0  0  0  0  0
   22.0922  -20.8066  -12.5555 C   0  0  1  0  0  0  0  0  0  0  0  0
   21.7862  -21.4521  -13.8843 C   0  0  0  0  0  0  0  0  0  0  0  0
   22.4266  -20.7878  -15.0350 C   0  0  0  0  0  0  0  0  0  0  0  0
   22.3179  -19.4231  -15.2400 C   0  0  0  0  0  0  0  0  0  0  0  0
   22.9945  -19.0894  -16.3516 N   0  0  0  0  0  0  0  0  0  0  0  0
   23.5053  -20.2353  -16.8128 C   0  0  0  0  0  0  0  0  0  0  0  0
   23.1675  -21.2644  -16.0245 N   0  0  0  0  0  0  0  0  0  0  0  0
   21.1433  -21.1477  -11.4944 C   0  0  0  0  0  0  0  0  0  0  0  0
   19.9815  -20.4068  -11.3286 O   0  0  0  0  0  0  0  0  0  0  0  0
   21.2878  -22.1054  -10.6681 O   0  0  0  0  0  0  0  0  0  0  0  0
  2  1  1  0
  3  4  1  0
  3  2  1  0
  4  5  1  0
  5  6  1  1
  7  8  2  0
  7  5  1  0
 10 11  1  0
 10  9  1  0
 11 12  1  0
 13 12  1  1
 13 14  1  0
 14  7  1  0
 15 17  1  0
 15 13  1  0
 16 15  2  0
 18 25  1  0
 18 17  1  0
 18 19  1  6
 19 20  1  0
 20 24  1  0
 20 21  2  0
 21 22  1  0
 23 22  1  0
 24 23  2  0
 25 26  1  0
 27 25  2  0
M  END
$$$$
