MMH.pdb
     RDKit          3D

 27 27  0  0  1  0  0  0  0  0999 V2000
   33.2202  -33.8074  -19.4083 C   0  0  0  0  0  0  0  0  0  0  0  0
   32.5381  -33.7997  -21.0813 S   0  0  0  0  0  0  0  0  0  0  0  0
   31.3391  -32.4978  -21.3355 C   0  0  0  0  0  0  0  0  0  0  0  0
   30.7839  -31.9530  -20.0397 C   0  0  0  0  0  0  0  0  0  0  0  0
   29.6873  -30.9380  -20.2737 C   0  0  2  0  0  0  0  0  0  0  0  0
   30.2269  -29.6532  -20.6788 N   0  0  0  0  0  0  0  0  0  0  0  0
   28.8258  -30.7283  -19.1048 C   0  0  0  0  0  0  0  0  0  0  0  0
   28.3552  -31.6977  -18.4590 O   0  0  0  0  0  0  0  0  0  0  0  0
   30.9439  -24.9834  -16.0028 C   0  0  0  0  0  0  0  0  0  0  0  0
   29.2569  -25.4777  -16.4144 S   0  0  0  0  0  0  0  0  0  0  0  0
   29.1628  -27.2300  -16.8684 C   0  0  0  0  0  0  0  0  0  0  0  0
   27.7336  -27.6481  -17.1477 C   0  0  0  0  0  0  0  0  0  0  0  0
   27.6761  -29.1314  -17.5262 C   0  0  2  0  0  0  0  0  0  0  0  0
   28.4996  -29.4056  -18.6701 N   0  0  0  0  0  0  0  0  0  0  0  0
   26.2635  -29.5430  -17.7148 C   0  0  0  0  0  0  0  0  0  0  0  0
   25.6550  -29.0970  -18.7187 O   0  0  0  0  0  0  0  0  0  0  0  0
   25.6622  -30.4111  -16.7686 N   0  0  0  0  0  0  0  0  0  0  0  0
   24.2395  -30.7302  -16.9752 C   0  0  1  0  0  0  0  0  0  0  0  0
   24.2225  -31.9274  -17.8931 C   0  0  0  0  0  0  0  0  0  0  0  0
   22.8826  -32.5108  -18.0924 C   0  0  0  0  0  0  0  0  0  0  0  0
   21.9688  -31.9513  -18.9688 C   0  0  0  0  0  0  0  0  0  0  0  0
   20.8411  -32.6814  -18.9547 N   0  0  0  0  0  0  0  0  0  0  0  0
   21.0690  -33.6685  -18.0827 C   0  0  0  0  0  0  0  0  0  0  0  0
   22.2979  -33.5729  -17.5582 N   0  0  0  0  0  0  0  0  0  0  0  0
   23.6524  -30.9807  -15.6579 C   0  0  0  0  0  0  0  0  0  0  0  0
   22.2746  -30.9691  -15.4912 O   0  0  0  0  0  0  0  0  0  0  0  0
   24.3160  -31.2197  -14.5981 O   0  0  0  0  0  0  0  0  0  0  0  0
  2  1  1  0
  3  4  1  0
  3  2  1  0
  4  5  1  0
  5  6  1  1
  7  8  2  0
  7  5  1  0
 10 11  1  0
 10  9  1  0
 11 12  1  0
 13 12  1  6
 13 14  1  0
 14  7  1  0
 15 17  1  0
 15 13  1  0
 16 15  2  0
 18 25  1  0
 18 17  1  0
 18 19  1  6
 19 20  1  0
 20 24  1  0
 20 21  2  0
 21 22  1  0
 23 22  1  0
 24 23  2  0
 25 26  1  0
 27 25  2  0
M  END
$$$$
