MMH.pdb
     RDKit          3D

 27 27  0  0  1  0  0  0  0  0999 V2000
   17.9429  -26.1987   -6.3893 C   0  0  0  0  0  0  0  0  0  0  0  0
   18.8089  -24.7463   -7.0255 S   0  0  0  0  0  0  0  0  0  0  0  0
   17.7116  -23.5729   -7.8104 C   0  0  0  0  0  0  0  0  0  0  0  0
   18.4445  -22.3874   -8.3948 C   0  0  0  0  0  0  0  0  0  0  0  0
   18.8275  -22.6126   -9.8406 C   0  0  2  0  0  0  0  0  0  0  0  0
   19.6816  -23.7762   -9.9912 N   0  0  0  0  0  0  0  0  0  0  0  0
   19.5029  -21.4627  -10.4523 C   0  0  0  0  0  0  0  0  0  0  0  0
   18.9951  -20.3141  -10.4184 O   0  0  0  0  0  0  0  0  0  0  0  0
   25.9658  -21.4253  -11.1677 C   0  0  0  0  0  0  0  0  0  0  0  0
   25.1505  -20.7360   -9.7117 S   0  0  0  0  0  0  0  0  0  0  0  0
   23.3851  -20.4478  -10.0045 C   0  0  0  0  0  0  0  0  0  0  0  0
   23.0160  -20.7255  -11.4475 C   0  0  0  0  0  0  0  0  0  0  0  0
   21.5116  -20.5302  -11.6604 C   0  0  2  0  0  0  0  0  0  0  0  0
   20.7646  -21.6240  -11.1060 N   0  0  0  0  0  0  0  0  0  0  0  0
   21.2369  -20.3098  -13.1013 C   0  0  0  0  0  0  0  0  0  0  0  0
   21.0879  -21.3228  -13.8284 O   0  0  0  0  0  0  0  0  0  0  0  0
   21.1545  -18.9836  -13.5963 N   0  0  0  0  0  0  0  0  0  0  0  0
   20.7825  -18.8290  -15.0128 C   0  0  1  0  0  0  0  0  0  0  0  0
   20.0748  -17.4996  -15.1024 C   0  0  0  0  0  0  0  0  0  0  0  0
   19.6713  -17.1266  -16.4712 C   0  0  0  0  0  0  0  0  0  0  0  0
   19.7869  -18.0108  -17.5300 C   0  0  0  0  0  0  0  0  0  0  0  0
   19.3481  -17.4150  -18.6513 N   0  0  0  0  0  0  0  0  0  0  0  0
   18.9723  -16.1881  -18.2768 C   0  0  0  0  0  0  0  0  0  0  0  0
   19.1640  -16.0061  -16.9636 N   0  0  0  0  0  0  0  0  0  0  0  0
   22.0154  -18.9022  -15.7985 C   0  0  0  0  0  0  0  0  0  0  0  0
   22.0273  -19.5525  -17.0246 O   0  0  0  0  0  0  0  0  0  0  0  0
   23.1329  -18.4026  -15.4488 O   0  0  0  0  0  0  0  0  0  0  0  0
  2  1  1  0
  3  4  1  0
  3  2  1  0
  4  5  1  0
  5  6  1  1
  7  8  2  0
  7  5  1  0
 10 11  1  0
 10  9  1  0
 11 12  1  0
 13 12  1  6
 13 14  1  0
 14  7  1  0
 15 17  1  0
 15 13  1  0
 16 15  2  0
 18 25  1  0
 18 17  1  0
 18 19  1  1
 19 20  1  0
 20 24  1  0
 20 21  2  0
 21 22  1  0
 23 22  1  0
 24 23  2  0
 25 26  1  0
 27 25  2  0
M  END
$$$$
