VNW.pdb
     RDKit          3D

 30 31  0  0  1  0  0  0  0  0999 V2000
    8.6963  -12.5079   20.3842 C   0  0  0  0  0  0  0  0  0  0  0  0
    7.8084  -13.4482   19.6024 C   0  0  1  0  0  0  0  0  0  0  0  0
    7.0195  -12.5840   18.6315 C   0  0  0  0  0  0  0  0  0  0  0  0
    8.7029  -14.3999   18.8427 C   0  0  2  0  0  0  0  0  0  0  0  0
    7.9107  -15.1406   17.8914 N   0  0  0  0  0  0  0  0  0  0  0  0
    9.4139  -15.2907   19.7660 C   0  0  0  0  0  0  0  0  0  0  0  0
    8.7790  -16.3126   20.1915 O   0  0  0  0  0  0  0  0  0  0  0  0
   13.1642  -14.1105   19.7073 N   0  0  0  0  0  0  0  0  0  0  0  0
   13.6130  -15.2107   20.4620 C   0  0  0  0  0  0  0  0  0  0  0  0
   14.7511  -15.1982   20.9689 O   0  0  0  0  0  0  0  0  0  0  0  0
   12.7374  -16.3798   20.6542 C   0  0  0  0  0  0  0  0  0  0  0  0
   11.3619  -15.9529   21.1165 C   0  0  2  0  0  0  0  0  0  0  0  0
   10.7523  -15.0518   20.1869 N   0  0  0  0  0  0  0  0  0  0  0  0
   11.4006  -15.3829   22.4897 C   0  0  0  0  0  0  0  0  0  0  0  0
   11.8287  -14.2195   22.6156 O   0  0  0  0  0  0  0  0  0  0  0  0
   10.9703  -16.1340   23.5929 N   0  0  0  0  0  0  0  0  0  0  0  0
    9.8899  -15.8880   24.4802 C   0  0  1  0  0  0  0  0  0  0  0  0
    8.6444  -15.2672   23.8315 C   0  0  0  0  0  0  0  0  0  0  0  0
    7.6108  -14.8871   24.8076 C   0  0  0  0  0  0  0  0  0  0  0  0
    6.5186  -15.5635   25.2623 C   0  0  0  0  0  0  0  0  0  0  0  0
    5.8403  -14.8163   26.1811 N   0  0  0  0  0  0  0  0  0  0  0  0
    6.4747  -13.6492   26.3403 C   0  0  0  0  0  0  0  0  0  0  0  0
    6.2070  -12.5659   27.1393 C   0  0  0  0  0  0  0  0  0  0  0  0
    7.0734  -11.4956   27.0777 C   0  0  0  0  0  0  0  0  0  0  0  0
    8.1718  -11.4759   26.2625 C   0  0  0  0  0  0  0  0  0  0  0  0
    8.4245  -12.5902   25.4573 C   0  0  0  0  0  0  0  0  0  0  0  0
    7.5775  -13.6734   25.4961 C   0  0  0  0  0  0  0  0  0  0  0  0
    9.5859  -16.9259   25.4546 C   0  0  0  0  0  0  0  0  0  0  0  0
    9.3611  -18.1298   25.0829 O   0  0  0  0  0  0  0  0  0  0  0  0
    9.5138  -16.7172   26.8247 O   0  0  0  0  0  0  0  0  0  0  0  0
  2  1  1  1
  3  2  1  0
  4  2  1  0
  4  5  1  6
  6  4  1  0
  7  6  2  0
  8  9  1  0
  9 10  2  0
 11  9  1  0
 12 11  1  6
 12 13  1  0
 13  6  1  0
 14 12  1  0
 14 16  1  0
 15 14  2  0
 17 16  1  0
 17 28  1  0
 17 18  1  6
 19 18  1  0
 20 19  2  0
 21 20  1  0
 22 21  1  0
 22 27  2  0
 23 22  1  0
 24 23  2  0
 24 25  1  0
 25 26  2  0
 26 27  1  0
 27 19  1  0
 28 30  1  0
 29 28  2  0
M  END
$$$$
