VNW.pdb
     RDKit          3D

 30 31  0  0  1  0  0  0  0  0999 V2000
    8.3655  -12.9621   22.2733 C   0  0  0  0  0  0  0  0  0  0  0  0
    7.4454  -13.4727   21.1887 C   0  0  1  0  0  0  0  0  0  0  0  0
    7.3180  -12.3496   20.1716 C   0  0  0  0  0  0  0  0  0  0  0  0
    8.1048  -14.6754   20.5552 C   0  0  2  0  0  0  0  0  0  0  0  0
    7.4466  -14.9769   19.3073 N   0  0  0  0  0  0  0  0  0  0  0  0
    8.0812  -15.8212   21.4708 C   0  0  0  0  0  0  0  0  0  0  0  0
    6.9585  -16.4024   21.6448 O   0  0  0  0  0  0  0  0  0  0  0  0
   11.7740  -17.7891   20.1401 N   0  0  0  0  0  0  0  0  0  0  0  0
   11.3873  -17.8930   21.4896 C   0  0  0  0  0  0  0  0  0  0  0  0
   12.1227  -17.4391   22.3870 O   0  0  0  0  0  0  0  0  0  0  0  0
   10.1116  -18.5390   21.8436 C   0  0  0  0  0  0  0  0  0  0  0  0
    9.2536  -17.6157   22.6800 C   0  0  2  0  0  0  0  0  0  0  0  0
    9.2422  -16.2866   22.1497 N   0  0  0  0  0  0  0  0  0  0  0  0
    9.6657  -17.6337   24.1089 C   0  0  0  0  0  0  0  0  0  0  0  0
    9.6873  -18.7383   24.6854 O   0  0  0  0  0  0  0  0  0  0  0  0
   10.0141  -16.4485   24.7724 N   0  0  0  0  0  0  0  0  0  0  0  0
   10.3931  -16.2558   26.1267 C   0  0  1  0  0  0  0  0  0  0  0  0
    9.2987  -15.6713   27.0311 C   0  0  0  0  0  0  0  0  0  0  0  0
    8.1163  -15.2099   26.2864 C   0  0  0  0  0  0  0  0  0  0  0  0
    7.1349  -15.9060   25.6466 C   0  0  0  0  0  0  0  0  0  0  0  0
    6.2245  -15.0528   25.0936 N   0  0  0  0  0  0  0  0  0  0  0  0
    6.5939  -13.7953   25.3624 C   0  0  0  0  0  0  0  0  0  0  0  0
    6.0255  -12.5882   25.0410 C   0  0  0  0  0  0  0  0  0  0  0  0
    6.6592  -11.4454   25.4800 C   0  0  0  0  0  0  0  0  0  0  0  0
    7.8145  -11.4721   26.2121 C   0  0  0  0  0  0  0  0  0  0  0  0
    8.3756  -12.7130   26.5274 C   0  0  0  0  0  0  0  0  0  0  0  0
    7.7667  -13.8711   26.1029 C   0  0  0  0  0  0  0  0  0  0  0  0
   11.1647  -17.3186   26.7544 C   0  0  0  0  0  0  0  0  0  0  0  0
   11.4103  -18.4084   26.1296 O   0  0  0  0  0  0  0  0  0  0  0  0
   11.6865  -17.2543   28.0387 O   0  0  0  0  0  0  0  0  0  0  0  0
  2  1  1  1
  3  2  1  0
  4  2  1  0
  4  5  1  6
  6  4  1  0
  7  6  2  0
  8  9  1  0
  9 10  2  0
 11  9  1  0
 12 11  1  6
 12 13  1  0
 13  6  1  0
 14 12  1  0
 14 16  1  0
 15 14  2  0
 17 16  1  0
 17 28  1  0
 17 18  1  1
 19 18  1  0
 20 19  2  0
 21 20  1  0
 22 21  1  0
 22 27  2  0
 23 22  1  0
 24 23  2  0
 24 25  1  0
 25 26  2  0
 26 27  1  0
 27 19  1  0
 28 30  1  0
 29 28  2  0
M  END
$$$$
