VNW.pdb
     RDKit          3D

 30 31  0  0  1  0  0  0  0  0999 V2000
    8.0877  -12.3905   19.5477 C   0  0  0  0  0  0  0  0  0  0  0  0
    8.5552  -13.4245   20.5457 C   0  0  1  0  0  0  0  0  0  0  0  0
    7.5861  -13.3592   21.7155 C   0  0  0  0  0  0  0  0  0  0  0  0
    8.4737  -14.7775   19.8780 C   0  0  2  0  0  0  0  0  0  0  0  0
    7.1318  -14.9883   19.3919 N   0  0  0  0  0  0  0  0  0  0  0  0
    8.8874  -15.8375   20.8037 C   0  0  0  0  0  0  0  0  0  0  0  0
    7.9688  -16.4076   21.4816 O   0  0  0  0  0  0  0  0  0  0  0  0
   10.8050  -19.8664   20.2995 N   0  0  0  0  0  0  0  0  0  0  0  0
   11.5610  -18.6799   20.3456 C   0  0  0  0  0  0  0  0  0  0  0  0
   12.0434  -18.2054   19.2994 O   0  0  0  0  0  0  0  0  0  0  0  0
   11.7835  -17.9965   21.6315 C   0  0  0  0  0  0  0  0  0  0  0  0
   10.5874  -17.1496   22.0060 C   0  0  2  0  0  0  0  0  0  0  0  0
   10.2452  -16.2339   20.9608 N   0  0  0  0  0  0  0  0  0  0  0  0
   10.7984  -16.4506   23.3017 C   0  0  0  0  0  0  0  0  0  0  0  0
   11.3849  -15.3516   23.2713 O   0  0  0  0  0  0  0  0  0  0  0  0
   10.3511  -17.0150   24.5049 N   0  0  0  0  0  0  0  0  0  0  0  0
   10.3661  -16.4666   25.8141 C   0  0  1  0  0  0  0  0  0  0  0  0
    9.8544  -15.0229   25.9201 C   0  0  0  0  0  0  0  0  0  0  0  0
    8.3860  -14.9284   25.9412 C   0  0  0  0  0  0  0  0  0  0  0  0
    7.4262  -15.8789   25.7607 C   0  0  0  0  0  0  0  0  0  0  0  0
    6.1815  -15.3315   25.8773 N   0  0  0  0  0  0  0  0  0  0  0  0
    6.3079  -14.0247   26.1347 C   0  0  0  0  0  0  0  0  0  0  0  0
    5.3743  -13.0400   26.3402 C   0  0  0  0  0  0  0  0  0  0  0  0
    5.8337  -11.7655   26.5941 C   0  0  0  0  0  0  0  0  0  0  0  0
    7.1646  -11.4533   26.6479 C   0  0  0  0  0  0  0  0  0  0  0  0
    8.0975  -12.4723   26.4353 C   0  0  0  0  0  0  0  0  0  0  0  0
    7.6697  -13.7543   26.1789 C   0  0  0  0  0  0  0  0  0  0  0  0
    9.9135  -17.3284   26.8965 C   0  0  0  0  0  0  0  0  0  0  0  0
    9.2928  -18.4204   26.6504 O   0  0  0  0  0  0  0  0  0  0  0  0
   10.1041  -17.0589   28.2445 O   0  0  0  0  0  0  0  0  0  0  0  0
  2  1  1  6
  3  2  1  0
  4  2  1  0
  4  5  1  1
  6  4  1  0
  7  6  2  0
  8  9  1  0
  9 10  2  0
 11  9  1  0
 12 11  1  6
 12 13  1  0
 13  6  1  0
 14 12  1  0
 14 16  1  0
 15 14  2  0
 17 16  1  0
 17 28  1  0
 17 18  1  6
 19 18  1  0
 20 19  2  0
 21 20  1  0
 22 21  1  0
 22 27  2  0
 23 22  1  0
 24 23  2  0
 24 25  1  0
 25 26  2  0
 26 27  1  0
 27 19  1  0
 28 30  1  0
 29 28  2  0
M  END
$$$$
