VNW.pdb
     RDKit          3D

 30 31  0  0  1  0  0  0  0  0999 V2000
    9.1502  -13.0634   20.7477 C   0  0  0  0  0  0  0  0  0  0  0  0
    7.7861  -13.6179   20.4077 C   0  0  1  0  0  0  0  0  0  0  0  0
    7.1401  -12.6164   19.4635 C   0  0  0  0  0  0  0  0  0  0  0  0
    7.9895  -14.9394   19.7041 C   0  0  2  0  0  0  0  0  0  0  0  0
    6.7299  -15.3899   19.1641 N   0  0  0  0  0  0  0  0  0  0  0  0
    8.5722  -15.9282   20.6176 C   0  0  0  0  0  0  0  0  0  0  0  0
    7.7831  -16.4823   21.4535 O   0  0  0  0  0  0  0  0  0  0  0  0
   11.3781  -19.1224   23.2538 N   0  0  0  0  0  0  0  0  0  0  0  0
   12.1083  -18.9328   22.0654 C   0  0  0  0  0  0  0  0  0  0  0  0
   13.1085  -19.6366   21.8276 O   0  0  0  0  0  0  0  0  0  0  0  0
   11.6910  -17.9014   21.0998 C   0  0  0  0  0  0  0  0  0  0  0  0
   10.4616  -17.1693   21.5906 C   0  0  2  0  0  0  0  0  0  0  0  0
    9.9525  -16.2743   20.5968 N   0  0  0  0  0  0  0  0  0  0  0  0
   10.7202  -16.4713   22.8782 C   0  0  0  0  0  0  0  0  0  0  0  0
   11.3882  -15.4202   22.8363 O   0  0  0  0  0  0  0  0  0  0  0  0
   10.2275  -16.9845   24.0865 N   0  0  0  0  0  0  0  0  0  0  0  0
   10.2491  -16.4064   25.3828 C   0  0  1  0  0  0  0  0  0  0  0  0
    9.8240  -14.9323   25.4443 C   0  0  0  0  0  0  0  0  0  0  0  0
    8.3695  -14.7535   25.5785 C   0  0  0  0  0  0  0  0  0  0  0  0
    7.3421  -15.6350   25.4214 C   0  0  0  0  0  0  0  0  0  0  0  0
    6.1451  -15.0231   25.6571 N   0  0  0  0  0  0  0  0  0  0  0  0
    6.3705  -13.7421   25.9704 C   0  0  0  0  0  0  0  0  0  0  0  0
    5.5167  -12.7174   26.2937 C   0  0  0  0  0  0  0  0  0  0  0  0
    6.0714  -11.4877   26.5773 C   0  0  0  0  0  0  0  0  0  0  0  0
    7.4195  -11.2572   26.5484 C   0  0  0  0  0  0  0  0  0  0  0  0
    8.2699  -12.3157   26.2162 C   0  0  0  0  0  0  0  0  0  0  0  0
    7.7462  -13.5545   25.9275 C   0  0  0  0  0  0  0  0  0  0  0  0
    9.7229  -17.2128   26.4746 C   0  0  0  0  0  0  0  0  0  0  0  0
    9.8559  -16.8377   27.6911 O   0  0  0  0  0  0  0  0  0  0  0  0
    9.0536  -18.4170   26.3072 O   0  0  0  0  0  0  0  0  0  0  0  0
  2  1  1  6
  3  2  1  0
  4  2  1  0
  4  5  1  1
  6  4  1  0
  7  6  2  0
  8  9  1  0
  9 10  2  0
 11  9  1  0
 12 11  1  6
 12 13  1  0
 13  6  1  0
 14 12  1  0
 14 16  1  0
 15 14  2  0
 17 16  1  0
 17 28  1  0
 17 18  1  6
 19 18  1  0
 20 19  2  0
 21 20  1  0
 22 21  1  0
 22 27  2  0
 23 22  1  0
 24 23  2  0
 24 25  1  0
 25 26  2  0
 26 27  1  0
 27 19  1  0
 28 30  1  0
 29 28  2  0
M  END
$$$$
