VNW.pdb
     RDKit          3D

 30 31  0  0  1  0  0  0  0  0999 V2000
    4.9037  -20.1747   23.4131 C   0  0  0  0  0  0  0  0  0  0  0  0
    6.0922  -19.4087   22.8797 C   0  0  1  0  0  0  0  0  0  0  0  0
    7.3287  -20.0863   23.4487 C   0  0  0  0  0  0  0  0  0  0  0  0
    6.0791  -19.5305   21.3737 C   0  0  2  0  0  0  0  0  0  0  0  0
    6.0609  -20.9262   21.0093 N   0  0  0  0  0  0  0  0  0  0  0  0
    7.2285  -18.8324   20.7877 C   0  0  0  0  0  0  0  0  0  0  0  0
    7.4916  -19.0739   19.5626 O   0  0  0  0  0  0  0  0  0  0  0  0
    7.2720  -13.4500   20.1228 N   0  0  0  0  0  0  0  0  0  0  0  0
    7.6721  -14.7174   19.6590 C   0  0  0  0  0  0  0  0  0  0  0  0
    8.3923  -14.8136   18.6469 O   0  0  0  0  0  0  0  0  0  0  0  0
    7.2399  -15.9331   20.3699 C   0  0  0  0  0  0  0  0  0  0  0  0
    8.4299  -16.6886   20.9187 C   0  0  2  0  0  0  0  0  0  0  0  0
    8.0333  -17.9213   21.5277 N   0  0  0  0  0  0  0  0  0  0  0  0
    9.2276  -15.8471   21.8502 C   0  0  0  0  0  0  0  0  0  0  0  0
    9.7032  -14.7868   21.4004 O   0  0  0  0  0  0  0  0  0  0  0  0
    9.4309  -16.2407   23.1806 N   0  0  0  0  0  0  0  0  0  0  0  0
   10.2112  -15.6205   24.1912 C   0  0  1  0  0  0  0  0  0  0  0  0
    9.6794  -14.2672   24.6844 C   0  0  0  0  0  0  0  0  0  0  0  0
    8.2997  -14.3365   25.1917 C   0  0  0  0  0  0  0  0  0  0  0  0
    7.3916  -15.3525   25.1765 C   0  0  0  0  0  0  0  0  0  0  0  0
    6.2280  -14.9643   25.7748 N   0  0  0  0  0  0  0  0  0  0  0  0
    6.3573  -13.6984   26.1879 C   0  0  0  0  0  0  0  0  0  0  0  0
    5.4908  -12.8578   26.8405 C   0  0  0  0  0  0  0  0  0  0  0  0
    5.9341  -11.5869   27.1379 C   0  0  0  0  0  0  0  0  0  0  0  0
    7.1859  -11.1422   26.8112 C   0  0  0  0  0  0  0  0  0  0  0  0
    8.0514  -12.0157   26.1465 C   0  0  0  0  0  0  0  0  0  0  0  0
    7.6374  -13.2901   25.8354 C   0  0  0  0  0  0  0  0  0  0  0  0
   10.7118  -16.4759   25.2575 C   0  0  0  0  0  0  0  0  0  0  0  0
   11.5916  -16.0488   26.0833 O   0  0  0  0  0  0  0  0  0  0  0  0
   10.2994  -17.7835   25.4717 O   0  0  0  0  0  0  0  0  0  0  0  0
  2  1  1  1
  3  2  1  0
  4  2  1  0
  4  5  1  1
  6  4  1  0
  7  6  2  0
  8  9  1  0
  9 10  2  0
 11  9  1  0
 12 11  1  1
 12 13  1  0
 13  6  1  0
 14 12  1  0
 14 16  1  0
 15 14  2  0
 17 16  1  0
 17 28  1  0
 17 18  1  1
 19 18  1  0
 20 19  2  0
 21 20  1  0
 22 21  1  0
 22 27  2  0
 23 22  1  0
 24 23  2  0
 24 25  1  0
 25 26  2  0
 26 27  1  0
 27 19  1  0
 28 30  1  0
 29 28  2  0
M  END
$$$$
