VNW.pdb
     RDKit          3D

 30 31  0  0  1  0  0  0  0  0999 V2000
    6.0299  -21.3201   24.3026 C   0  0  0  0  0  0  0  0  0  0  0  0
    7.1719  -20.3747   24.0100 C   0  0  1  0  0  0  0  0  0  0  0  0
    8.4026  -20.9714   24.6742 C   0  0  0  0  0  0  0  0  0  0  0  0
    7.3597  -20.3307   22.5114 C   0  0  2  0  0  0  0  0  0  0  0  0
    7.6714  -21.6551   22.0318 N   0  0  0  0  0  0  0  0  0  0  0  0
    8.4012  -19.3638   22.1482 C   0  0  0  0  0  0  0  0  0  0  0  0
    9.5871  -19.8134   22.0066 O   0  0  0  0  0  0  0  0  0  0  0  0
    8.8914  -17.9539   18.9141 N   0  0  0  0  0  0  0  0  0  0  0  0
    8.5013  -16.6282   19.1823 C   0  0  0  0  0  0  0  0  0  0  0  0
    8.0230  -15.9218   18.2743 O   0  0  0  0  0  0  0  0  0  0  0  0
    8.6579  -16.0732   20.5379 C   0  0  0  0  0  0  0  0  0  0  0  0
    9.1804  -17.1231   21.4933 C   0  0  2  0  0  0  0  0  0  0  0  0
    8.1317  -17.9796   21.9561 N   0  0  0  0  0  0  0  0  0  0  0  0
    9.9272  -16.5087   22.6234 C   0  0  0  0  0  0  0  0  0  0  0  0
   10.7124  -15.5794   22.3537 O   0  0  0  0  0  0  0  0  0  0  0  0
    9.7476  -16.9649   23.9371 N   0  0  0  0  0  0  0  0  0  0  0  0
   10.1640  -16.3726   25.1580 C   0  0  1  0  0  0  0  0  0  0  0  0
    9.7849  -14.8942   25.3259 C   0  0  0  0  0  0  0  0  0  0  0  0
    8.3438  -14.6859   25.5392 C   0  0  0  0  0  0  0  0  0  0  0  0
    7.2947  -15.5527   25.4662 C   0  0  0  0  0  0  0  0  0  0  0  0
    6.1237  -14.9134   25.7539 N   0  0  0  0  0  0  0  0  0  0  0  0
    6.3879  -13.6288   26.0184 C   0  0  0  0  0  0  0  0  0  0  0  0
    5.5714  -12.5808   26.3625 C   0  0  0  0  0  0  0  0  0  0  0  0
    6.1617  -11.3542   26.5796 C   0  0  0  0  0  0  0  0  0  0  0  0
    7.5094  -11.1487   26.4663 C   0  0  0  0  0  0  0  0  0  0  0  0
    8.3216  -12.2307   26.1146 C   0  0  0  0  0  0  0  0  0  0  0  0
    7.7616  -13.4671   25.8908 C   0  0  0  0  0  0  0  0  0  0  0  0
    9.9895  -17.1621   26.3686 C   0  0  0  0  0  0  0  0  0  0  0  0
    9.2684  -18.2196   26.3644 O   0  0  0  0  0  0  0  0  0  0  0  0
   10.5653  -16.8557   27.5935 O   0  0  0  0  0  0  0  0  0  0  0  0
  2  1  1  6
  3  2  1  0
  4  2  1  0
  4  5  1  1
  6  4  1  0
  7  6  2  0
  8  9  1  0
  9 10  2  0
 11  9  1  0
 12 11  1  6
 12 13  1  0
 13  6  1  0
 14 12  1  0
 14 16  1  0
 15 14  2  0
 17 16  1  0
 17 28  1  0
 17 18  1  1
 19 18  1  0
 20 19  2  0
 21 20  1  0
 22 21  1  0
 22 27  2  0
 23 22  1  0
 24 23  2  0
 24 25  1  0
 25 26  2  0
 26 27  1  0
 27 19  1  0
 28 30  1  0
 29 28  2  0
M  END
$$$$
