VNW.pdb
     RDKit          3D

 30 31  0  0  1  0  0  0  0  0999 V2000
    8.3097  -12.8049   21.4490 C   0  0  0  0  0  0  0  0  0  0  0  0
    7.6902  -13.3509   20.1833 C   0  0  1  0  0  0  0  0  0  0  0  0
    7.9534  -12.3188   19.0982 C   0  0  0  0  0  0  0  0  0  0  0  0
    8.3924  -14.6465   19.8498 C   0  0  2  0  0  0  0  0  0  0  0  0
    8.0654  -15.0308   18.4983 N   0  0  0  0  0  0  0  0  0  0  0  0
    8.0332  -15.6930   20.8128 C   0  0  0  0  0  0  0  0  0  0  0  0
    7.0377  -16.4355   20.5191 O   0  0  0  0  0  0  0  0  0  0  0  0
   12.2806  -18.9211   21.8425 N   0  0  0  0  0  0  0  0  0  0  0  0
   10.9703  -18.8038   21.3417 C   0  0  0  0  0  0  0  0  0  0  0  0
   10.3133  -19.8256   21.0650 O   0  0  0  0  0  0  0  0  0  0  0  0
   10.3728  -17.4718   21.1438 C   0  0  0  0  0  0  0  0  0  0  0  0
    9.3980  -17.1479   22.2542 C   0  0  2  0  0  0  0  0  0  0  0  0
    8.7440  -15.8951   22.0291 N   0  0  0  0  0  0  0  0  0  0  0  0
   10.0556  -17.1928   23.5875 C   0  0  0  0  0  0  0  0  0  0  0  0
   10.6114  -18.2584   23.9169 O   0  0  0  0  0  0  0  0  0  0  0  0
   10.0446  -16.0744   24.4333 N   0  0  0  0  0  0  0  0  0  0  0  0
   10.3304  -15.9957   25.8215 C   0  0  1  0  0  0  0  0  0  0  0  0
    9.1085  -16.1093   26.7442 C   0  0  0  0  0  0  0  0  0  0  0  0
    7.9231  -15.4084   26.2254 C   0  0  0  0  0  0  0  0  0  0  0  0
    6.7487  -15.8869   25.7263 C   0  0  0  0  0  0  0  0  0  0  0  0
    5.9255  -14.8588   25.3686 N   0  0  0  0  0  0  0  0  0  0  0  0
    6.5444  -13.7013   25.6275 C   0  0  0  0  0  0  0  0  0  0  0  0
    6.1510  -12.3975   25.4573 C   0  0  0  0  0  0  0  0  0  0  0  0
    7.0335  -11.4083   25.8353 C   0  0  0  0  0  0  0  0  0  0  0  0
    8.2659  -11.6760   26.3651 C   0  0  0  0  0  0  0  0  0  0  0  0
    8.6454  -13.0113   26.5291 C   0  0  0  0  0  0  0  0  0  0  0  0
    7.7866  -14.0209   26.1606 C   0  0  0  0  0  0  0  0  0  0  0  0
   11.4939  -16.7288   26.2990 C   0  0  0  0  0  0  0  0  0  0  0  0
   12.1826  -17.4576   25.5035 O   0  0  0  0  0  0  0  0  0  0  0  0
   11.9491  -16.7082   27.6098 O   0  0  0  0  0  0  0  0  0  0  0  0
  2  1  1  1
  3  2  1  0
  4  2  1  0
  4  5  1  6
  6  4  1  0
  7  6  2  0
  8  9  1  0
  9 10  2  0
 11  9  1  0
 12 11  1  6
 12 13  1  0
 13  6  1  0
 14 12  1  0
 14 16  1  0
 15 14  2  0
 17 16  1  0
 17 28  1  0
 17 18  1  1
 19 18  1  0
 20 19  2  0
 21 20  1  0
 22 21  1  0
 22 27  2  0
 23 22  1  0
 24 23  2  0
 24 25  1  0
 25 26  2  0
 26 27  1  0
 27 19  1  0
 28 30  1  0
 29 28  2  0
M  END
$$$$
