VNW.pdb
     RDKit          3D

 30 31  0  0  1  0  0  0  0  0999 V2000
    8.9624  -15.6845   15.9422 C   0  0  0  0  0  0  0  0  0  0  0  0
    8.8050  -14.5756   16.9568 C   0  0  1  0  0  0  0  0  0  0  0  0
    7.5473  -13.8148   16.5678 C   0  0  0  0  0  0  0  0  0  0  0  0
    8.6265  -15.2159   18.3136 C   0  0  2  0  0  0  0  0  0  0  0  0
    7.9702  -14.2835   19.1973 N   0  0  0  0  0  0  0  0  0  0  0  0
    9.9179  -15.6560   18.8525 C   0  0  0  0  0  0  0  0  0  0  0  0
   10.3643  -16.7800   18.4452 O   0  0  0  0  0  0  0  0  0  0  0  0
   14.2690  -16.0171   18.9353 N   0  0  0  0  0  0  0  0  0  0  0  0
   13.8424  -14.7216   19.2833 C   0  0  0  0  0  0  0  0  0  0  0  0
   14.1977  -13.7421   18.6002 O   0  0  0  0  0  0  0  0  0  0  0  0
   12.9744  -14.5212   20.4566 C   0  0  0  0  0  0  0  0  0  0  0  0
   11.8001  -15.4743   20.4276 C   0  0  2  0  0  0  0  0  0  0  0  0
   10.6625  -14.8858   19.7893 N   0  0  0  0  0  0  0  0  0  0  0  0
   11.4693  -15.9736   21.7890 C   0  0  0  0  0  0  0  0  0  0  0  0
   12.4199  -16.2845   22.5322 O   0  0  0  0  0  0  0  0  0  0  0  0
   10.1364  -16.0866   22.2097 N   0  0  0  0  0  0  0  0  0  0  0  0
    9.5565  -15.7398   23.4581 C   0  0  1  0  0  0  0  0  0  0  0  0
    8.3795  -14.7572   23.3775 C   0  0  0  0  0  0  0  0  0  0  0  0
    7.6495  -14.6215   24.6480 C   0  0  0  0  0  0  0  0  0  0  0  0
    6.9668  -15.5389   25.3893 C   0  0  0  0  0  0  0  0  0  0  0  0
    6.4505  -14.9597   26.5120 N   0  0  0  0  0  0  0  0  0  0  0  0
    6.7863  -13.6647   26.5221 C   0  0  0  0  0  0  0  0  0  0  0  0
    6.5223  -12.6599   27.4188 C   0  0  0  0  0  0  0  0  0  0  0  0
    7.0244  -11.4064   27.1414 C   0  0  0  0  0  0  0  0  0  0  0  0
    7.7638  -11.1339   26.0232 C   0  0  0  0  0  0  0  0  0  0  0  0
    8.0199  -12.1728   25.1237 C   0  0  0  0  0  0  0  0  0  0  0  0
    7.5317  -13.4345   25.3728 C   0  0  0  0  0  0  0  0  0  0  0  0
    9.3534  -16.8183   24.4145 C   0  0  0  0  0  0  0  0  0  0  0  0
    9.1961  -18.0254   24.0191 O   0  0  0  0  0  0  0  0  0  0  0  0
    9.3126  -16.6472   25.7911 O   0  0  0  0  0  0  0  0  0  0  0  0
  2  1  1  6
  3  2  1  0
  4  2  1  0
  4  5  1  1
  6  4  1  0
  7  6  2  0
  8  9  1  0
  9 10  2  0
 11  9  1  0
 12 11  1  1
 12 13  1  0
 13  6  1  0
 14 12  1  0
 14 16  1  0
 15 14  2  0
 17 16  1  0
 17 28  1  0
 17 18  1  6
 19 18  1  0
 20 19  2  0
 21 20  1  0
 22 21  1  0
 22 27  2  0
 23 22  1  0
 24 23  2  0
 24 25  1  0
 25 26  2  0
 26 27  1  0
 27 19  1  0
 28 30  1  0
 29 28  2  0
M  END
$$$$
