VNW.pdb
     RDKit          3D

 30 31  0  0  1  0  0  0  0  0999 V2000
    7.8894  -12.2607   19.0120 C   0  0  0  0  0  0  0  0  0  0  0  0
    7.6724  -13.3816   20.0020 C   0  0  1  0  0  0  0  0  0  0  0  0
    6.8715  -14.4483   19.2721 C   0  0  0  0  0  0  0  0  0  0  0  0
    9.0291  -13.9231   20.3879 C   0  0  2  0  0  0  0  0  0  0  0  0
    9.7100  -14.3884   19.2042 N   0  0  0  0  0  0  0  0  0  0  0  0
    8.8965  -14.9861   21.3900 C   0  0  0  0  0  0  0  0  0  0  0  0
    8.0560  -14.7953   22.3311 O   0  0  0  0  0  0  0  0  0  0  0  0
   11.3499  -18.2778   19.8538 N   0  0  0  0  0  0  0  0  0  0  0  0
   11.2920  -18.3999   21.2549 C   0  0  0  0  0  0  0  0  0  0  0  0
   12.3419  -18.4024   21.9258 O   0  0  0  0  0  0  0  0  0  0  0  0
    9.9893  -18.5251   21.9313 C   0  0  0  0  0  0  0  0  0  0  0  0
    9.4747  -17.1705   22.3651 C   0  0  2  0  0  0  0  0  0  0  0  0
    9.6580  -16.1874   21.3415 N   0  0  0  0  0  0  0  0  0  0  0  0
   10.0831  -16.7429   23.6531 C   0  0  0  0  0  0  0  0  0  0  0  0
   11.1553  -16.1103   23.5986 O   0  0  0  0  0  0  0  0  0  0  0  0
    9.4665  -17.0452   24.8757 N   0  0  0  0  0  0  0  0  0  0  0  0
    9.8896  -16.7372   26.1951 C   0  0  1  0  0  0  0  0  0  0  0  0
    8.7619  -16.3711   27.1706 C   0  0  0  0  0  0  0  0  0  0  0  0
    7.6919  -15.5756   26.5477 C   0  0  0  0  0  0  0  0  0  0  0  0
    6.5632  -15.9577   25.8864 C   0  0  0  0  0  0  0  0  0  0  0  0
    5.8507  -14.8656   25.4836 N   0  0  0  0  0  0  0  0  0  0  0  0
    6.4977  -13.7613   25.8734 C   0  0  0  0  0  0  0  0  0  0  0  0
    6.2035  -12.4294   25.7223 C   0  0  0  0  0  0  0  0  0  0  0  0
    7.0871  -11.5146   26.2537 C   0  0  0  0  0  0  0  0  0  0  0  0
    8.2271  -11.8815   26.9151 C   0  0  0  0  0  0  0  0  0  0  0  0
    8.5064  -13.2438   27.0567 C   0  0  0  0  0  0  0  0  0  0  0  0
    7.6439  -14.1808   26.5366 C   0  0  0  0  0  0  0  0  0  0  0  0
   10.9118  -17.5942   26.7781 C   0  0  0  0  0  0  0  0  0  0  0  0
   11.2958  -18.6584   26.1795 O   0  0  0  0  0  0  0  0  0  0  0  0
   11.5420  -17.3490   27.9900 O   0  0  0  0  0  0  0  0  0  0  0  0
  2  1  1  6
  3  2  1  0
  4  2  1  0
  4  5  1  6
  6  4  1  0
  7  6  2  0
  8  9  1  0
  9 10  2  0
 11  9  1  0
 12 11  1  6
 12 13  1  0
 13  6  1  0
 14 12  1  0
 14 16  1  0
 15 14  2  0
 17 16  1  0
 17 28  1  0
 17 18  1  1
 19 18  1  0
 20 19  2  0
 21 20  1  0
 22 21  1  0
 22 27  2  0
 23 22  1  0
 24 23  2  0
 24 25  1  0
 25 26  2  0
 26 27  1  0
 27 19  1  0
 28 30  1  0
 29 28  2  0
M  END
$$$$
