VNW.pdb
     RDKit          3D

 30 31  0  0  1  0  0  0  0  0999 V2000
    8.9137  -12.8022   20.2402 C   0  0  0  0  0  0  0  0  0  0  0  0
    7.9557  -13.6547   19.4407 C   0  0  1  0  0  0  0  0  0  0  0  0
    7.3502  -12.7431   18.3851 C   0  0  0  0  0  0  0  0  0  0  0  0
    8.7576  -14.7525   18.7815 C   0  0  2  0  0  0  0  0  0  0  0  0
    7.8871  -15.5398   17.9427 N   0  0  0  0  0  0  0  0  0  0  0  0
    9.4314  -15.5782   19.7894 C   0  0  0  0  0  0  0  0  0  0  0  0
    8.7176  -16.4351   20.4097 O   0  0  0  0  0  0  0  0  0  0  0  0
   13.0481  -18.7277   19.9151 N   0  0  0  0  0  0  0  0  0  0  0  0
   13.0807  -17.3269   19.7799 C   0  0  0  0  0  0  0  0  0  0  0  0
   13.3030  -16.8115   18.6675 O   0  0  0  0  0  0  0  0  0  0  0  0
   12.8518  -16.4671   20.9540 C   0  0  0  0  0  0  0  0  0  0  0  0
   11.3741  -16.2165   21.1588 C   0  0  2  0  0  0  0  0  0  0  0  0
   10.8179  -15.4519   20.0846 N   0  0  0  0  0  0  0  0  0  0  0  0
   11.1059  -15.5858   22.4788 C   0  0  0  0  0  0  0  0  0  0  0  0
   11.2708  -14.3540   22.5697 O   0  0  0  0  0  0  0  0  0  0  0  0
   10.6845  -16.3562   23.5720 N   0  0  0  0  0  0  0  0  0  0  0  0
    9.6917  -16.0674   24.5446 C   0  0  1  0  0  0  0  0  0  0  0  0
    8.4273  -15.3871   24.0006 C   0  0  0  0  0  0  0  0  0  0  0  0
    7.4813  -14.9925   25.0566 C   0  0  0  0  0  0  0  0  0  0  0  0
    6.4623  -15.6790   25.6461 C   0  0  0  0  0  0  0  0  0  0  0  0
    5.8515  -14.9101   26.5940 N   0  0  0  0  0  0  0  0  0  0  0  0
    6.4582  -13.7185   26.6387 C   0  0  0  0  0  0  0  0  0  0  0  0
    6.2328  -12.6075   27.4122 C   0  0  0  0  0  0  0  0  0  0  0  0
    7.0522  -11.5161   27.2186 C   0  0  0  0  0  0  0  0  0  0  0  0
    8.0646  -11.5019   26.2987 C   0  0  0  0  0  0  0  0  0  0  0  0
    8.2756  -12.6447   25.5219 C   0  0  0  0  0  0  0  0  0  0  0  0
    7.4738  -13.7496   25.6915 C   0  0  0  0  0  0  0  0  0  0  0  0
    9.4208  -17.0965   25.5379 C   0  0  0  0  0  0  0  0  0  0  0  0
    9.1191  -18.2886   25.1826 O   0  0  0  0  0  0  0  0  0  0  0  0
    9.4620  -16.8914   26.9098 O   0  0  0  0  0  0  0  0  0  0  0  0
  2  1  1  1
  3  2  1  0
  4  2  1  0
  4  5  1  1
  6  4  1  0
  7  6  2  0
  8  9  1  0
  9 10  2  0
 11  9  1  0
 12 11  1  6
 12 13  1  0
 13  6  1  0
 14 12  1  0
 14 16  1  0
 15 14  2  0
 17 16  1  0
 17 28  1  0
 17 18  1  6
 19 18  1  0
 20 19  2  0
 21 20  1  0
 22 21  1  0
 22 27  2  0
 23 22  1  0
 24 23  2  0
 24 25  1  0
 25 26  2  0
 26 27  1  0
 27 19  1  0
 28 30  1  0
 29 28  2  0
M  END
$$$$
