VNW.pdb
     RDKit          3D

 30 31  0  0  1  0  0  0  0  0999 V2000
    8.9100  -12.9341   20.3036 C   0  0  0  0  0  0  0  0  0  0  0  0
    7.9667  -13.5622   19.3039 C   0  0  1  0  0  0  0  0  0  0  0  0
    7.6888  -12.5003   18.2517 C   0  0  0  0  0  0  0  0  0  0  0  0
    8.6772  -14.7401   18.6789 C   0  0  2  0  0  0  0  0  0  0  0  0
    7.9710  -15.1445   17.4877 N   0  0  0  0  0  0  0  0  0  0  0  0
    8.7955  -15.8426   19.6392 C   0  0  0  0  0  0  0  0  0  0  0  0
    8.1980  -16.9322   19.3489 O   0  0  0  0  0  0  0  0  0  0  0  0
   12.2520  -18.7763   21.6268 N   0  0  0  0  0  0  0  0  0  0  0  0
   12.3805  -18.0989   20.3995 C   0  0  0  0  0  0  0  0  0  0  0  0
   13.2892  -18.4104   19.6061 O   0  0  0  0  0  0  0  0  0  0  0  0
   11.4404  -17.0197   20.0507 C   0  0  0  0  0  0  0  0  0  0  0  0
   10.4773  -16.7555   21.1868 C   0  0  2  0  0  0  0  0  0  0  0  0
    9.5362  -15.7316   20.8494 N   0  0  0  0  0  0  0  0  0  0  0  0
   11.1970  -16.4455   22.4509 C   0  0  0  0  0  0  0  0  0  0  0  0
   12.1378  -17.1961   22.7738 O   0  0  0  0  0  0  0  0  0  0  0  0
   10.8234  -15.3492   23.2413 N   0  0  0  0  0  0  0  0  0  0  0  0
    9.8422  -15.2727   24.2643 C   0  0  1  0  0  0  0  0  0  0  0  0
    8.4257  -14.9288   23.7820 C   0  0  0  0  0  0  0  0  0  0  0  0
    7.4781  -14.6980   24.8840 C   0  0  0  0  0  0  0  0  0  0  0  0
    6.5316  -15.5097   25.4340 C   0  0  0  0  0  0  0  0  0  0  0  0
    5.8858  -14.8711   26.4528 N   0  0  0  0  0  0  0  0  0  0  0  0
    6.3974  -13.6419   26.5838 C   0  0  0  0  0  0  0  0  0  0  0  0
    6.1042  -12.6184   27.4498 C   0  0  0  0  0  0  0  0  0  0  0  0
    6.8297  -11.4523   27.3313 C   0  0  0  0  0  0  0  0  0  0  0  0
    7.8145  -11.2826   26.3971 C   0  0  0  0  0  0  0  0  0  0  0  0
    8.0957  -12.3386   25.5254 C   0  0  0  0  0  0  0  0  0  0  0  0
    7.3883  -13.5147   25.6187 C   0  0  0  0  0  0  0  0  0  0  0  0
    9.8761  -16.3046   25.2906 C   0  0  0  0  0  0  0  0  0  0  0  0
    9.5628  -16.0359   26.5022 O   0  0  0  0  0  0  0  0  0  0  0  0
   10.2370  -17.6250   25.0624 O   0  0  0  0  0  0  0  0  0  0  0  0
  2  1  1  1
  3  2  1  0
  4  2  1  0
  4  5  1  6
  6  4  1  0
  7  6  2  0
  8  9  1  0
  9 10  2  0
 11  9  1  0
 12 11  1  6
 12 13  1  0
 13  6  1  0
 14 12  1  0
 14 16  1  0
 15 14  2  0
 17 16  1  0
 17 28  1  0
 17 18  1  6
 19 18  1  0
 20 19  2  0
 21 20  1  0
 22 21  1  0
 22 27  2  0
 23 22  1  0
 24 23  2  0
 24 25  1  0
 25 26  2  0
 26 27  1  0
 27 19  1  0
 28 30  1  0
 29 28  2  0
M  END
$$$$
