SAT.pdb
     RDKit          3D

 19 18  0  0  1  0  0  0  0  0999 V2000
   17.3552  -10.0422  -18.5769 O   0  0  0  0  0  0  0  0  0  0  0  0
   17.7577   -9.2698  -17.4851 C   0  0  0  0  0  0  0  0  0  0  0  0
   18.2740  -10.2322  -16.4306 C   0  0  2  0  0  0  0  0  0  0  0  0
   17.1337  -10.8330  -15.7965 N   0  0  0  0  0  0  0  0  0  0  0  0
   19.0735   -9.4196  -15.4448 C   0  0  0  0  0  0  0  0  0  0  0  0
   18.4740   -8.7453  -14.5687 O   0  0  0  0  0  0  0  0  0  0  0  0
   22.6695   -9.0780  -14.6005 C   0  0  0  0  0  0  0  0  0  0  0  0
   21.2325   -8.5456  -14.6530 C   0  0  2  0  0  0  0  0  0  0  0  0
   20.4895   -9.4192  -15.5095 N   0  0  0  0  0  0  0  0  0  0  0  0
   21.2537   -7.1448  -15.1344 C   0  0  0  0  0  0  0  0  0  0  0  0
   21.4064   -6.8611  -16.3551 O   0  0  0  0  0  0  0  0  0  0  0  0
   18.6098   -4.5768  -14.9881 C   0  0  0  0  0  0  0  0  0  0  0  0
   19.7988   -4.0184  -14.2839 C   0  0  1  0  0  0  0  0  0  0  0  0
   19.6135   -4.1606  -12.9064 O   0  0  0  0  0  0  0  0  0  0  0  0
   21.0879   -4.7161  -14.6502 C   0  0  2  0  0  0  0  0  0  0  0  0
   21.1007   -6.0931  -14.2177 N   0  0  0  0  0  0  0  0  0  0  0  0
   22.2389   -3.9849  -14.0669 C   0  0  0  0  0  0  0  0  0  0  0  0
   22.6299   -2.7529  -14.5335 O   0  0  0  0  0  0  0  0  0  0  0  0
   22.8650   -4.5191  -13.1197 O   0  0  0  0  0  0  0  0  0  0  0  0
  2  1  1  0
  3  2  1  0
  3  4  1  1
  5  6  2  0
  5  3  1  0
  8  7  1  6
  8  9  1  0
  9  5  1  0
 10  8  1  0
 10 11  2  0
 13 12  1  6
 13 14  1  0
 15 16  1  1
 15 13  1  0
 16 10  1  0
 17 15  1  0
 18 17  1  0
 19 17  2  0
M  END
$$$$
