SAT.pdb
     RDKit          3D

 19 18  0  0  1  0  0  0  0  0999 V2000
   31.4769  -23.7195  -20.5806 O   0  0  0  0  0  0  0  0  0  0  0  0
   31.0500  -24.9376  -20.0471 C   0  0  0  0  0  0  0  0  0  0  0  0
   31.4814  -24.9569  -18.5916 C   0  0  2  0  0  0  0  0  0  0  0  0
   32.9145  -25.0516  -18.5654 N   0  0  0  0  0  0  0  0  0  0  0  0
   30.8490  -26.1701  -17.9597 C   0  0  0  0  0  0  0  0  0  0  0  0
   31.5094  -27.2367  -17.8712 O   0  0  0  0  0  0  0  0  0  0  0  0
   27.6437  -26.7954  -16.1687 C   0  0  0  0  0  0  0  0  0  0  0  0
   28.9445  -27.2522  -16.8399 C   0  0  2  0  0  0  0  0  0  0  0  0
   29.5201  -26.1037  -17.4709 N   0  0  0  0  0  0  0  0  0  0  0  0
   28.6384  -28.3432  -17.7941 C   0  0  0  0  0  0  0  0  0  0  0  0
   28.4666  -28.1239  -19.0254 O   0  0  0  0  0  0  0  0  0  0  0  0
   28.7446  -33.1972  -18.6550 C   0  0  0  0  0  0  0  0  0  0  0  0
   29.0176  -32.0227  -17.7789 C   0  0  1  0  0  0  0  0  0  0  0  0
   30.3920  -31.7711  -17.7793 O   0  0  0  0  0  0  0  0  0  0  0  0
   28.3184  -30.7643  -18.2374 C   0  0  2  0  0  0  0  0  0  0  0  0
   28.5334  -29.6633  -17.3291 N   0  0  0  0  0  0  0  0  0  0  0  0
   26.8666  -31.0239  -18.3935 C   0  0  0  0  0  0  0  0  0  0  0  0
   26.3358  -31.5052  -19.5662 O   0  0  0  0  0  0  0  0  0  0  0  0
   26.1124  -30.7927  -17.4178 O   0  0  0  0  0  0  0  0  0  0  0  0
  2  1  1  0
  3  2  1  0
  3  4  1  6
  5  6  2  0
  5  3  1  0
  8  7  1  6
  8  9  1  0
  9  5  1  0
 10  8  1  0
 10 11  2  0
 13 12  1  6
 13 14  1  0
 15 16  1  1
 15 13  1  0
 16 10  1  0
 17 15  1  0
 18 17  1  0
 19 17  2  0
M  END
$$$$
