SAT.pdb
     RDKit          3D

 19 18  0  0  1  0  0  0  0  0999 V2000
   15.6277  -10.1371  -10.2265 O   0  0  0  0  0  0  0  0  0  0  0  0
   14.3764   -9.6741   -9.8139 C   0  0  0  0  0  0  0  0  0  0  0  0
   14.6264   -8.5573   -8.8162 C   0  0  2  0  0  0  0  0  0  0  0  0
   13.3552   -8.1710   -8.2704 N   0  0  0  0  0  0  0  0  0  0  0  0
   15.2555   -7.4185   -9.5768 C   0  0  0  0  0  0  0  0  0  0  0  0
   14.5762   -6.7967  -10.4333 O   0  0  0  0  0  0  0  0  0  0  0  0
   17.1394   -4.7304   -9.3258 C   0  0  0  0  0  0  0  0  0  0  0  0
   17.2179   -6.0386  -10.1218 C   0  0  2  0  0  0  0  0  0  0  0  0
   16.6023   -7.0556   -9.3246 N   0  0  0  0  0  0  0  0  0  0  0  0
   18.6364   -6.3292  -10.4348 C   0  0  0  0  0  0  0  0  0  0  0  0
   19.4185   -6.8322   -9.5809 O   0  0  0  0  0  0  0  0  0  0  0  0
   19.7838   -8.6347  -13.2155 C   0  0  0  0  0  0  0  0  0  0  0  0
   20.4068   -7.2929  -13.3957 C   0  0  1  0  0  0  0  0  0  0  0  0
   19.6616   -6.5732  -14.3332 O   0  0  0  0  0  0  0  0  0  0  0  0
   20.4509   -6.4823  -12.1214 C   0  0  2  0  0  0  0  0  0  0  0  0
   19.1383   -6.0419  -11.7136 N   0  0  0  0  0  0  0  0  0  0  0  0
   21.3510   -5.3168  -12.2975 C   0  0  0  0  0  0  0  0  0  0  0  0
   22.7189   -5.4486  -12.3038 O   0  0  0  0  0  0  0  0  0  0  0  0
   20.8343   -4.1828  -12.4439 O   0  0  0  0  0  0  0  0  0  0  0  0
  2  1  1  0
  3  2  1  0
  3  4  1  6
  5  6  2  0
  5  3  1  0
  8  7  1  1
  8  9  1  0
  9  5  1  0
 10  8  1  0
 10 11  2  0
 13 12  1  1
 13 14  1  0
 15 16  1  6
 15 13  1  0
 16 10  1  0
 17 15  1  0
 18 17  1  0
 19 17  2  0
M  END
$$$$
