SAT.pdb
     RDKit          3D

 19 18  0  0  1  0  0  0  0  0999 V2000
   17.6870  -10.3867  -18.8920 O   0  0  0  0  0  0  0  0  0  0  0  0
   17.6631   -9.4048  -17.8991 C   0  0  0  0  0  0  0  0  0  0  0  0
   18.6236   -9.8533  -16.8122 C   0  0  2  0  0  0  0  0  0  0  0  0
   17.9851  -10.9103  -16.0785 N   0  0  0  0  0  0  0  0  0  0  0  0
   18.8779   -8.6599  -15.9278 C   0  0  0  0  0  0  0  0  0  0  0  0
   17.9091   -8.0918  -15.3617 O   0  0  0  0  0  0  0  0  0  0  0  0
   21.8319   -7.1629  -14.3298 C   0  0  0  0  0  0  0  0  0  0  0  0
   20.4243   -7.0313  -14.9236 C   0  0  2  0  0  0  0  0  0  0  0  0
   20.2004   -8.1859  -15.7393 N   0  0  0  0  0  0  0  0  0  0  0  0
   20.3368   -5.7620  -15.6823 C   0  0  0  0  0  0  0  0  0  0  0  0
   20.7509   -5.6653  -16.8709 O   0  0  0  0  0  0  0  0  0  0  0  0
   18.2985   -1.3527  -16.2503 C   0  0  0  0  0  0  0  0  0  0  0  0
   18.4114   -2.6410  -15.5095 C   0  0  1  0  0  0  0  0  0  0  0  0
   17.3733   -3.4844  -15.9132 O   0  0  0  0  0  0  0  0  0  0  0  0
   19.7155   -3.3604  -15.7641 C   0  0  2  0  0  0  0  0  0  0  0  0
   19.7797   -4.6264  -15.0740 N   0  0  0  0  0  0  0  0  0  0  0  0
   20.8527   -2.4983  -15.3604 C   0  0  0  0  0  0  0  0  0  0  0  0
   21.5969   -1.7983  -16.2796 O   0  0  0  0  0  0  0  0  0  0  0  0
   21.1324   -2.4150  -14.1401 O   0  0  0  0  0  0  0  0  0  0  0  0
  2  1  1  0
  3  2  1  0
  3  4  1  1
  5  6  2  0
  5  3  1  0
  8  7  1  6
  8  9  1  0
  9  5  1  0
 10  8  1  0
 10 11  2  0
 13 12  1  6
 13 14  1  0
 15 16  1  1
 15 13  1  0
 16 10  1  0
 17 15  1  0
 18 17  1  0
 19 17  2  0
M  END
$$$$
