SAT.pdb
     RDKit          3D

 19 18  0  0  1  0  0  0  0  0999 V2000
   13.4816   -7.9420  -10.9408 O   0  0  0  0  0  0  0  0  0  0  0  0
   14.8016   -7.8204  -11.3807 C   0  0  0  0  0  0  0  0  0  0  0  0
   15.4265   -9.2008  -11.2872 C   0  0  2  0  0  0  0  0  0  0  0  0
   15.5419   -9.5310   -9.8940 N   0  0  0  0  0  0  0  0  0  0  0  0
   16.7843   -9.1157  -11.9357 C   0  0  0  0  0  0  0  0  0  0  0  0
   17.7858   -8.8152  -11.2368 O   0  0  0  0  0  0  0  0  0  0  0  0
   18.1504  -10.0693  -15.2483 C   0  0  0  0  0  0  0  0  0  0  0  0
   18.2226   -9.3021  -13.9227 C   0  0  2  0  0  0  0  0  0  0  0  0
   16.9252   -9.3732  -13.3224 N   0  0  0  0  0  0  0  0  0  0  0  0
   18.6594   -7.9125  -14.1921 C   0  0  0  0  0  0  0  0  0  0  0  0
   17.8359   -6.9952  -14.4644 O   0  0  0  0  0  0  0  0  0  0  0  0
   21.2477   -5.8301  -11.9916 C   0  0  0  0  0  0  0  0  0  0  0  0
   21.6386   -5.8941  -13.4284 C   0  0  1  0  0  0  0  0  0  0  0  0
   22.6170   -6.8792  -13.5849 O   0  0  0  0  0  0  0  0  0  0  0  0
   20.4864   -6.2392  -14.3429 C   0  0  2  0  0  0  0  0  0  0  0  0
   20.0253   -7.5927  -14.1464 N   0  0  0  0  0  0  0  0  0  0  0  0
   20.8870   -6.0341  -15.7561 C   0  0  0  0  0  0  0  0  0  0  0  0
   21.1245   -4.7821  -16.2704 O   0  0  0  0  0  0  0  0  0  0  0  0
   21.0087   -7.0428  -16.4924 O   0  0  0  0  0  0  0  0  0  0  0  0
  2  1  1  0
  3  2  1  0
  3  4  1  1
  5  6  2  0
  5  3  1  0
  8  7  1  6
  8  9  1  0
  9  5  1  0
 10  8  1  0
 10 11  2  0
 13 12  1  1
 13 14  1  0
 15 16  1  6
 15 13  1  0
 16 10  1  0
 17 15  1  0
 18 17  1  0
 19 17  2  0
M  END
$$$$
