SAT.pdb
     RDKit          3D

 19 18  0  0  1  0  0  0  0  0999 V2000
   19.0388  -11.1141  -19.8707 O   0  0  0  0  0  0  0  0  0  0  0  0
   18.9335  -10.3923  -18.6797 C   0  0  0  0  0  0  0  0  0  0  0  0
   19.3759  -11.3192  -17.5617 C   0  0  2  0  0  0  0  0  0  0  0  0
   18.2462  -12.1275  -17.1961 N   0  0  0  0  0  0  0  0  0  0  0  0
   19.8105  -10.4477  -16.4116 C   0  0  0  0  0  0  0  0  0  0  0  0
   18.9521   -9.7710  -15.7895 O   0  0  0  0  0  0  0  0  0  0  0  0
   22.9728  -10.0054  -14.5160 C   0  0  0  0  0  0  0  0  0  0  0  0
   21.5794   -9.5444  -14.9601 C   0  0  2  0  0  0  0  0  0  0  0  0
   21.1769  -10.3951  -16.0385 N   0  0  0  0  0  0  0  0  0  0  0  0
   21.6431   -8.1151  -15.3443 C   0  0  0  0  0  0  0  0  0  0  0  0
   21.9889   -7.7504  -16.5024 O   0  0  0  0  0  0  0  0  0  0  0  0
   20.0290   -3.5886  -14.7392 C   0  0  0  0  0  0  0  0  0  0  0  0
   20.0021   -5.0593  -14.4997 C   0  0  1  0  0  0  0  0  0  0  0  0
   19.0694   -5.6387  -15.3637 O   0  0  0  0  0  0  0  0  0  0  0  0
   21.3354   -5.7259  -14.7465 C   0  0  2  0  0  0  0  0  0  0  0  0
   21.3122   -7.1277  -14.4034 N   0  0  0  0  0  0  0  0  0  0  0  0
   22.3962   -5.0281  -13.9802 C   0  0  0  0  0  0  0  0  0  0  0  0
   22.7428   -5.4086  -12.7059 O   0  0  0  0  0  0  0  0  0  0  0  0
   22.9862   -4.0634  -14.5239 O   0  0  0  0  0  0  0  0  0  0  0  0
  2  1  1  0
  3  2  1  0
  3  4  1  1
  5  6  2  0
  5  3  1  0
  8  7  1  6
  8  9  1  0
  9  5  1  0
 10  8  1  0
 10 11  2  0
 13 12  1  6
 13 14  1  0
 15 16  1  1
 15 13  1  0
 16 10  1  0
 17 15  1  0
 18 17  1  0
 19 17  2  0
M  END
$$$$
