YQF.pdb
     RDKit          3D

 33 34  0  0  1  0  0  0  0  0999 V2000
   10.4467  -19.2953   29.3332 O   0  0  0  0  0  0  0  0  0  0  0  0
    9.3768  -19.0887   28.4893 C   0  0  0  0  0  0  0  0  0  0  0  0
    9.1039  -17.8437   27.9729 C   0  0  0  0  0  0  0  0  0  0  0  0
    8.0314  -17.6405   27.1280 C   0  0  0  0  0  0  0  0  0  0  0  0
    7.1947  -18.6765   26.7703 C   0  0  0  0  0  0  0  0  0  0  0  0
    6.0278  -18.4847   25.8585 C   0  0  0  0  0  0  0  0  0  0  0  0
    6.4457  -18.9761   24.4914 C   0  0  2  0  0  0  0  0  0  0  0  0
    7.0379  -20.2818   24.6704 N   0  0  0  0  0  0  0  0  0  0  0  0
    7.4303  -18.0844   23.8539 C   0  0  0  0  0  0  0  0  0  0  0  0
    8.6437  -18.4249   23.6940 O   0  0  0  0  0  0  0  0  0  0  0  0
    7.4584  -19.9249   27.2807 C   0  0  0  0  0  0  0  0  0  0  0  0
    8.5269  -20.1318   28.1237 C   0  0  0  0  0  0  0  0  0  0  0  0
    6.0002  -13.5119   19.9795 N   0  0  0  0  0  0  0  0  0  0  0  0
    7.4022  -13.3524   20.0580 C   0  0  0  0  0  0  0  0  0  0  0  0
    8.0328  -12.7811   19.1438 O   0  0  0  0  0  0  0  0  0  0  0  0
    8.1184  -13.8934   21.2814 C   0  0  0  0  0  0  0  0  0  0  0  0
    7.2334  -14.8147   22.0334 C   0  0  0  0  0  0  0  0  0  0  0  0
    7.9710  -15.8114   22.8510 C   0  0  2  0  0  0  0  0  0  0  0  0
    7.0358  -16.8054   23.3981 N   0  0  0  0  0  0  0  0  0  0  0  0
    8.7864  -15.2265   23.9382 C   0  0  0  0  0  0  0  0  0  0  0  0
    8.5846  -14.0058   24.3074 O   0  0  0  0  0  0  0  0  0  0  0  0
    9.8062  -15.8851   24.6587 N   0  0  0  0  0  0  0  0  0  0  0  0
   10.5013  -15.2227   25.7823 C   0  0  1  0  0  0  0  0  0  0  0  0
    9.4339  -15.0190   26.8250 C   0  0  0  0  0  0  0  0  0  0  0  0
    8.4908  -13.9418   26.5720 C   0  0  0  0  0  0  0  0  0  0  0  0
    7.1582  -14.2808   26.3839 C   0  0  0  0  0  0  0  0  0  0  0  0
    6.1703  -13.3661   26.1439 C   0  0  0  0  0  0  0  0  0  0  0  0
    6.4796  -12.0241   26.0786 C   0  0  0  0  0  0  0  0  0  0  0  0
    7.8112  -11.6575   26.2643 C   0  0  0  0  0  0  0  0  0  0  0  0
    8.7890  -12.5989   26.5051 C   0  0  0  0  0  0  0  0  0  0  0  0
   11.5380  -16.1104   26.3420 C   0  0  0  0  0  0  0  0  0  0  0  0
   11.7590  -17.3877   25.8606 O   0  0  0  0  0  0  0  0  0  0  0  0
   12.2459  -15.6970   27.2881 O   0  0  0  0  0  0  0  0  0  0  0  0
  2  1  1  0
  3  2  2  0
  4  3  1  0
  5  4  2  0
  5 11  1  0
  6  5  1  0
  7  6  1  0
  7  8  1  1
  9  7  1  0
  9 10  2  0
 11 12  2  0
 12  2  1  0
 13 14  1  0
 14 16  1  0
 15 14  2  0
 16 17  1  0
 18 17  1  1
 18 19  1  0
 18 20  1  0
 19  9  1  0
 20 21  2  0
 20 22  1  0
 22 23  1  0
 23 31  1  0
 23 24  1  1
 25 24  1  0
 25 30  1  0
 26 25  2  0
 27 26  1  0
 27 28  2  0
 28 29  1  0
 29 30  2  0
 31 33  2  0
 31 32  1  0
M  END
$$$$
