YQF.pdb
     RDKit          3D

 33 34  0  0  1  0  0  0  0  0999 V2000
    7.7213  -12.1568   16.9875 O   0  0  0  0  0  0  0  0  0  0  0  0
    7.8021  -12.7500   18.2289 C   0  0  0  0  0  0  0  0  0  0  0  0
    6.7093  -13.3545   18.8045 C   0  0  0  0  0  0  0  0  0  0  0  0
    6.7939  -13.9476   20.0481 C   0  0  0  0  0  0  0  0  0  0  0  0
    7.9754  -13.9563   20.7589 C   0  0  0  0  0  0  0  0  0  0  0  0
    8.0947  -14.5904   22.1056 C   0  0  0  0  0  0  0  0  0  0  0  0
    8.5266  -16.0224   21.8866 C   0  0  2  0  0  0  0  0  0  0  0  0
    7.4015  -16.7240   21.3126 N   0  0  0  0  0  0  0  0  0  0  0  0
    8.9177  -16.6864   23.1425 C   0  0  0  0  0  0  0  0  0  0  0  0
    8.0625  -17.0401   24.0126 O   0  0  0  0  0  0  0  0  0  0  0  0
    9.0737  -13.3549   20.1928 C   0  0  0  0  0  0  0  0  0  0  0  0
    8.9936  -12.7623   18.9529 C   0  0  0  0  0  0  0  0  0  0  0  0
   12.9070  -20.7297   24.0005 N   0  0  0  0  0  0  0  0  0  0  0  0
   13.0180  -20.2902   25.3391 C   0  0  0  0  0  0  0  0  0  0  0  0
   13.4416  -21.0556   26.2304 O   0  0  0  0  0  0  0  0  0  0  0  0
   12.6091  -18.8651   25.6625 C   0  0  0  0  0  0  0  0  0  0  0  0
   12.0779  -18.1926   24.4529 C   0  0  0  0  0  0  0  0  0  0  0  0
   10.7679  -17.5272   24.6705 C   0  0  2  0  0  0  0  0  0  0  0  0
   10.2813  -16.9484   23.4094 N   0  0  0  0  0  0  0  0  0  0  0  0
   10.7741  -16.4988   25.7341 C   0  0  0  0  0  0  0  0  0  0  0  0
   11.4549  -15.4133   25.5745 O   0  0  0  0  0  0  0  0  0  0  0  0
   10.0812  -16.5689   26.9620 N   0  0  0  0  0  0  0  0  0  0  0  0
   10.3141  -15.5758   28.0315 C   0  0  1  0  0  0  0  0  0  0  0  0
    8.9365  -15.1288   28.4443 C   0  0  0  0  0  0  0  0  0  0  0  0
    8.1902  -14.3648   27.4578 C   0  0  0  0  0  0  0  0  0  0  0  0
    8.4278  -12.9995   27.3833 C   0  0  0  0  0  0  0  0  0  0  0  0
    7.7986  -12.1681   26.4983 C   0  0  0  0  0  0  0  0  0  0  0  0
    6.8709  -12.6809   25.6167 C   0  0  0  0  0  0  0  0  0  0  0  0
    6.6143  -14.0495   25.6713 C   0  0  0  0  0  0  0  0  0  0  0  0
    7.2620  -14.8669   26.5728 C   0  0  0  0  0  0  0  0  0  0  0  0
   10.9665  -16.2115   29.1918 C   0  0  0  0  0  0  0  0  0  0  0  0
   11.2813  -17.5577   29.2196 O   0  0  0  0  0  0  0  0  0  0  0  0
   11.2467  -15.5109   30.1906 O   0  0  0  0  0  0  0  0  0  0  0  0
  2  1  1  0
  3  2  2  0
  4  3  1  0
  5  4  2  0
  5 11  1  0
  6  5  1  0
  7  6  1  0
  7  8  1  1
  9  7  1  0
  9 10  2  0
 11 12  2  0
 12  2  1  0
 13 14  1  0
 14 16  1  0
 15 14  2  0
 16 17  1  0
 18 17  1  6
 18 19  1  0
 18 20  1  0
 19  9  1  0
 20 21  2  0
 20 22  1  0
 22 23  1  0
 23 31  1  0
 23 24  1  1
 25 24  1  0
 25 30  1  0
 26 25  2  0
 27 26  1  0
 27 28  2  0
 28 29  1  0
 29 30  2  0
 31 33  2  0
 31 32  1  0
M  END
$$$$
