YQF.pdb
     RDKit          3D

 33 34  0  0  1  0  0  0  0  0999 V2000
    0.5786  -20.5627   20.5904 O   0  0  0  0  0  0  0  0  0  0  0  0
    1.7440  -19.9163   20.9420 C   0  0  0  0  0  0  0  0  0  0  0  0
    2.1329  -18.7544   20.3179 C   0  0  0  0  0  0  0  0  0  0  0  0
    3.3009  -18.1097   20.6726 C   0  0  0  0  0  0  0  0  0  0  0  0
    4.1203  -18.6057   21.6645 C   0  0  0  0  0  0  0  0  0  0  0  0
    5.3887  -17.9289   22.0679 C   0  0  0  0  0  0  0  0  0  0  0  0
    6.1973  -17.7121   20.8091 C   0  0  2  0  0  0  0  0  0  0  0  0
    6.5311  -19.0172   20.2867 N   0  0  0  0  0  0  0  0  0  0  0  0
    7.4405  -16.9641   21.0655 C   0  0  0  0  0  0  0  0  0  0  0  0
    8.5606  -17.5464   21.2066 O   0  0  0  0  0  0  0  0  0  0  0  0
    3.7409  -19.7665   22.2947 C   0  0  0  0  0  0  0  0  0  0  0  0
    2.5770  -20.4125   21.9440 C   0  0  0  0  0  0  0  0  0  0  0  0
    9.9157  -13.5974   18.8225 N   0  0  0  0  0  0  0  0  0  0  0  0
    8.5452  -13.3979   18.5411 C   0  0  0  0  0  0  0  0  0  0  0  0
    8.1265  -13.4044   17.3646 O   0  0  0  0  0  0  0  0  0  0  0  0
    7.5986  -13.1763   19.7062 C   0  0  0  0  0  0  0  0  0  0  0  0
    8.3210  -13.3159   20.9931 C   0  0  0  0  0  0  0  0  0  0  0  0
    8.6089  -14.7254   21.3626 C   0  0  2  0  0  0  0  0  0  0  0  0
    7.4108  -15.5537   21.1615 N   0  0  0  0  0  0  0  0  0  0  0  0
    9.1263  -14.9032   22.7372 C   0  0  0  0  0  0  0  0  0  0  0  0
   10.2607  -14.3834   23.0691 O   0  0  0  0  0  0  0  0  0  0  0  0
    8.4868  -15.6054   23.7816 N   0  0  0  0  0  0  0  0  0  0  0  0
    9.1181  -15.7446   25.1107 C   0  0  1  0  0  0  0  0  0  0  0  0
    8.0507  -15.3242   26.0865 C   0  0  0  0  0  0  0  0  0  0  0  0
    7.8274  -13.8930   26.2120 C   0  0  0  0  0  0  0  0  0  0  0  0
    6.6807  -13.3652   25.6354 C   0  0  0  0  0  0  0  0  0  0  0  0
    6.3491  -12.0393   25.6850 C   0  0  0  0  0  0  0  0  0  0  0  0
    7.1770  -11.1494   26.3358 C   0  0  0  0  0  0  0  0  0  0  0  0
    8.3352  -11.6546   26.9234 C   0  0  0  0  0  0  0  0  0  0  0  0
    8.6474  -12.9958   26.8596 C   0  0  0  0  0  0  0  0  0  0  0  0
    9.4617  -17.1549   25.3729 C   0  0  0  0  0  0  0  0  0  0  0  0
    9.2353  -18.1573   24.4476 O   0  0  0  0  0  0  0  0  0  0  0  0
    9.9767  -17.4607   26.4721 O   0  0  0  0  0  0  0  0  0  0  0  0
  2  1  1  0
  3  2  2  0
  4  3  1  0
  5  4  2  0
  5 11  1  0
  6  5  1  0
  7  6  1  0
  7  8  1  1
  9  7  1  0
  9 10  2  0
 11 12  2  0
 12  2  1  0
 13 14  1  0
 14 16  1  0
 15 14  2  0
 16 17  1  0
 18 17  1  1
 18 19  1  0
 18 20  1  0
 19  9  1  0
 20 21  2  0
 20 22  1  0
 22 23  1  0
 23 31  1  0
 23 24  1  1
 25 24  1  0
 25 30  1  0
 26 25  2  0
 27 26  1  0
 27 28  2  0
 28 29  1  0
 29 30  2  0
 31 33  2  0
 31 32  1  0
M  END
$$$$
