YQF.pdb
     RDKit          3D

 33 34  0  0  1  0  0  0  0  0999 V2000
    4.9897  -23.2645   27.8645 O   0  0  0  0  0  0  0  0  0  0  0  0
    5.5159  -22.2070   27.1543 C   0  0  0  0  0  0  0  0  0  0  0  0
    6.7335  -21.6598   27.4842 C   0  0  0  0  0  0  0  0  0  0  0  0
    7.2573  -20.6006   26.7707 C   0  0  0  0  0  0  0  0  0  0  0  0
    6.5805  -20.0522   25.7018 C   0  0  0  0  0  0  0  0  0  0  0  0
    7.1237  -18.9066   24.9129 C   0  0  0  0  0  0  0  0  0  0  0  0
    6.8382  -19.1939   23.4565 C   0  0  2  0  0  0  0  0  0  0  0  0
    7.3831  -20.4998   23.1648 N   0  0  0  0  0  0  0  0  0  0  0  0
    7.4578  -18.2027   22.5595 C   0  0  0  0  0  0  0  0  0  0  0  0
    8.5337  -18.4441   21.9288 O   0  0  0  0  0  0  0  0  0  0  0  0
    5.3627  -20.5916   25.3635 C   0  0  0  0  0  0  0  0  0  0  0  0
    4.8367  -21.6478   26.0725 C   0  0  0  0  0  0  0  0  0  0  0  0
    7.6142  -14.8407   18.9995 N   0  0  0  0  0  0  0  0  0  0  0  0
    7.8402  -13.6083   19.6532 C   0  0  0  0  0  0  0  0  0  0  0  0
    8.4569  -12.6849   19.0815 O   0  0  0  0  0  0  0  0  0  0  0  0
    7.3137  -13.4385   21.0661 C   0  0  0  0  0  0  0  0  0  0  0  0
    6.6466  -14.6814   21.5220 C   0  0  0  0  0  0  0  0  0  0  0  0
    7.5940  -15.7320   21.9748 C   0  0  2  0  0  0  0  0  0  0  0  0
    6.8544  -16.9367   22.3794 N   0  0  0  0  0  0  0  0  0  0  0  0
    8.5061  -15.3060   23.0590 C   0  0  0  0  0  0  0  0  0  0  0  0
    9.4733  -14.4902   22.8017 O   0  0  0  0  0  0  0  0  0  0  0  0
    8.4325  -15.7040   24.4114 N   0  0  0  0  0  0  0  0  0  0  0  0
    9.3355  -15.1285   25.4301 C   0  0  1  0  0  0  0  0  0  0  0  0
    8.4688  -14.9425   26.6476 C   0  0  0  0  0  0  0  0  0  0  0  0
    7.4500  -13.9094   26.5550 C   0  0  0  0  0  0  0  0  0  0  0  0
    7.8685  -12.5863   26.5703 C   0  0  0  0  0  0  0  0  0  0  0  0
    7.0155  -11.5208   26.4847 C   0  0  0  0  0  0  0  0  0  0  0  0
    5.6581  -11.7362   26.3763 C   0  0  0  0  0  0  0  0  0  0  0  0
    5.2121  -13.0564   26.3586 C   0  0  0  0  0  0  0  0  0  0  0  0
    6.0924  -14.1137   26.4462 C   0  0  0  0  0  0  0  0  0  0  0  0
   10.4108  -16.0818   25.7631 C   0  0  0  0  0  0  0  0  0  0  0  0
   10.5169  -17.3205   25.1577 O   0  0  0  0  0  0  0  0  0  0  0  0
   11.2604  -15.7627   26.6252 O   0  0  0  0  0  0  0  0  0  0  0  0
  2  1  1  0
  3  2  2  0
  4  3  1  0
  5  4  2  0
  5 11  1  0
  6  5  1  0
  7  6  1  0
  7  8  1  6
  9  7  1  0
  9 10  2  0
 11 12  2  0
 12  2  1  0
 13 14  1  0
 14 16  1  0
 15 14  2  0
 16 17  1  0
 18 17  1  1
 18 19  1  0
 18 20  1  0
 19  9  1  0
 20 21  2  0
 20 22  1  0
 22 23  1  0
 23 31  1  0
 23 24  1  1
 25 24  1  0
 25 30  1  0
 26 25  2  0
 27 26  1  0
 27 28  2  0
 28 29  1  0
 29 30  2  0
 31 33  2  0
 31 32  1  0
M  END
$$$$
