YQF.pdb
     RDKit          3D

 33 34  0  0  1  0  0  0  0  0999 V2000
    7.6544  -11.6715   17.6968 O   0  0  0  0  0  0  0  0  0  0  0  0
    7.9117  -12.6599   18.6222 C   0  0  0  0  0  0  0  0  0  0  0  0
    9.1667  -12.8275   19.1586 C   0  0  0  0  0  0  0  0  0  0  0  0
    9.4207  -13.8186   20.0853 C   0  0  0  0  0  0  0  0  0  0  0  0
    8.4271  -14.6765   20.5074 C   0  0  0  0  0  0  0  0  0  0  0  0
    8.6743  -15.7569   21.5081 C   0  0  0  0  0  0  0  0  0  0  0  0
    9.5232  -16.8072   20.8288 C   0  0  2  0  0  0  0  0  0  0  0  0
    8.7634  -17.3093   19.7070 N   0  0  0  0  0  0  0  0  0  0  0  0
    9.8515  -17.9275   21.7276 C   0  0  0  0  0  0  0  0  0  0  0  0
    9.3573  -19.0868   21.5681 O   0  0  0  0  0  0  0  0  0  0  0  0
    7.1691  -14.5177   19.9776 C   0  0  0  0  0  0  0  0  0  0  0  0
    6.9116  -13.5307   19.0533 C   0  0  0  0  0  0  0  0  0  0  0  0
   13.0227  -21.7179   21.1052 N   0  0  0  0  0  0  0  0  0  0  0  0
   13.2105  -21.9310   22.4896 C   0  0  0  0  0  0  0  0  0  0  0  0
   13.8947  -22.8911   22.9017 O   0  0  0  0  0  0  0  0  0  0  0  0
   12.5591  -20.9625   23.4593 C   0  0  0  0  0  0  0  0  0  0  0  0
   11.9755  -19.8127   22.7279 C   0  0  0  0  0  0  0  0  0  0  0  0
   11.3031  -18.8263   23.6117 C   0  0  2  0  0  0  0  0  0  0  0  0
   10.7420  -17.7302   22.8081 N   0  0  0  0  0  0  0  0  0  0  0  0
   12.1633  -18.2821   24.6855 C   0  0  0  0  0  0  0  0  0  0  0  0
   13.1475  -17.5015   24.3869 O   0  0  0  0  0  0  0  0  0  0  0  0
   12.0200  -18.5254   26.0686 N   0  0  0  0  0  0  0  0  0  0  0  0
   11.8863  -17.4132   27.0328 C   0  0  1  0  0  0  0  0  0  0  0  0
   10.5489  -16.7953   26.7202 C   0  0  0  0  0  0  0  0  0  0  0  0
   10.1549  -15.6698   27.5519 C   0  0  0  0  0  0  0  0  0  0  0  0
    9.7157  -14.5180   26.9144 C   0  0  0  0  0  0  0  0  0  0  0  0
    9.3117  -13.3921   27.5773 C   0  0  0  0  0  0  0  0  0  0  0  0
    9.3286  -13.3649   28.9557 C   0  0  0  0  0  0  0  0  0  0  0  0
    9.7656  -14.5094   29.6199 C   0  0  0  0  0  0  0  0  0  0  0  0
   10.1678  -15.6322   28.9286 C   0  0  0  0  0  0  0  0  0  0  0  0
   11.8510  -17.9300   28.4139 C   0  0  0  0  0  0  0  0  0  0  0  0
   11.3589  -19.1846   28.7236 O   0  0  0  0  0  0  0  0  0  0  0  0
   12.2805  -17.2098   29.3434 O   0  0  0  0  0  0  0  0  0  0  0  0
  2  1  1  0
  3  2  2  0
  4  3  1  0
  5  4  2  0
  5 11  1  0
  6  5  1  0
  7  6  1  0
  7  8  1  6
  9  7  1  0
  9 10  2  0
 11 12  2  0
 12  2  1  0
 13 14  1  0
 14 16  1  0
 15 14  2  0
 16 17  1  0
 18 17  1  6
 18 19  1  0
 18 20  1  0
 19  9  1  0
 20 21  2  0
 20 22  1  0
 22 23  1  0
 23 31  1  0
 23 24  1  6
 25 24  1  0
 25 30  1  0
 26 25  2  0
 27 26  1  0
 27 28  2  0
 28 29  1  0
 29 30  2  0
 31 33  2  0
 31 32  1  0
M  END
$$$$
