YQF.pdb
     RDKit          3D

 33 34  0  0  1  0  0  0  0  0999 V2000
    9.5448  -20.0622   28.4374 O   0  0  0  0  0  0  0  0  0  0  0  0
    8.6018  -19.6959   27.5013 C   0  0  0  0  0  0  0  0  0  0  0  0
    7.6764  -20.5966   27.0288 C   0  0  0  0  0  0  0  0  0  0  0  0
    6.7335  -20.2260   26.0912 C   0  0  0  0  0  0  0  0  0  0  0  0
    6.6840  -18.9409   25.5938 C   0  0  0  0  0  0  0  0  0  0  0  0
    5.6750  -18.5134   24.5794 C   0  0  0  0  0  0  0  0  0  0  0  0
    6.2059  -18.9217   23.2242 C   0  0  2  0  0  0  0  0  0  0  0  0
    6.9335  -20.1567   23.4057 N   0  0  0  0  0  0  0  0  0  0  0  0
    7.1105  -17.9101   22.6504 C   0  0  0  0  0  0  0  0  0  0  0  0
    8.3040  -18.1863   22.3144 O   0  0  0  0  0  0  0  0  0  0  0  0
    7.6043  -18.0328   26.0594 C   0  0  0  0  0  0  0  0  0  0  0  0
    8.5463  -18.3981   26.9944 C   0  0  0  0  0  0  0  0  0  0  0  0
    9.0498  -12.7796   19.0923 N   0  0  0  0  0  0  0  0  0  0  0  0
    7.9599  -13.5060   19.6230 C   0  0  0  0  0  0  0  0  0  0  0  0
    7.3747  -14.3718   18.9390 O   0  0  0  0  0  0  0  0  0  0  0  0
    7.5214  -13.2054   21.0442 C   0  0  0  0  0  0  0  0  0  0  0  0
    6.7158  -14.3263   21.5847 C   0  0  0  0  0  0  0  0  0  0  0  0
    7.5339  -15.4768   22.0468 C   0  0  2  0  0  0  0  0  0  0  0  0
    6.6586  -16.5842   22.4586 N   0  0  0  0  0  0  0  0  0  0  0  0
    8.4883  -15.1520   23.1296 C   0  0  0  0  0  0  0  0  0  0  0  0
    9.4975  -14.3838   22.8877 O   0  0  0  0  0  0  0  0  0  0  0  0
    8.4146  -15.6029   24.4653 N   0  0  0  0  0  0  0  0  0  0  0  0
    9.4123  -15.1839   25.4720 C   0  0  1  0  0  0  0  0  0  0  0  0
    8.5978  -14.7859   26.6745 C   0  0  0  0  0  0  0  0  0  0  0  0
    7.7878  -13.5872   26.5295 C   0  0  0  0  0  0  0  0  0  0  0  0
    8.4403  -12.3623   26.5343 C   0  0  0  0  0  0  0  0  0  0  0  0
    7.7990  -11.1617   26.4011 C   0  0  0  0  0  0  0  0  0  0  0  0
    6.4288  -11.1292   26.2520 C   0  0  0  0  0  0  0  0  0  0  0  0
    5.7500  -12.3462   26.2439 C   0  0  0  0  0  0  0  0  0  0  0  0
    6.4195  -13.5436   26.3798 C   0  0  0  0  0  0  0  0  0  0  0  0
   10.2746  -16.3205   25.8470 C   0  0  0  0  0  0  0  0  0  0  0  0
   10.2083  -17.5441   25.2063 O   0  0  0  0  0  0  0  0  0  0  0  0
   11.0976  -16.1772   26.7793 O   0  0  0  0  0  0  0  0  0  0  0  0
  2  1  1  0
  3  2  2  0
  4  3  1  0
  5  4  2  0
  5 11  1  0
  6  5  1  0
  7  6  1  0
  7  8  1  1
  9  7  1  0
  9 10  2  0
 11 12  2  0
 12  2  1  0
 13 14  1  0
 14 16  1  0
 15 14  2  0
 16 17  1  0
 18 17  1  1
 18 19  1  0
 18 20  1  0
 19  9  1  0
 20 21  2  0
 20 22  1  0
 22 23  1  0
 23 31  1  0
 23 24  1  1
 25 24  1  0
 25 30  1  0
 26 25  2  0
 27 26  1  0
 27 28  2  0
 28 29  1  0
 29 30  2  0
 31 33  2  0
 31 32  1  0
M  END
$$$$
