YQF.pdb
     RDKit          3D

 33 34  0  0  1  0  0  0  0  0999 V2000
    8.5048  -12.6405   16.8857 O   0  0  0  0  0  0  0  0  0  0  0  0
    8.0631  -13.1509   18.0874 C   0  0  0  0  0  0  0  0  0  0  0  0
    6.7473  -13.5042   18.2733 C   0  0  0  0  0  0  0  0  0  0  0  0
    6.3085  -14.0151   19.4784 C   0  0  0  0  0  0  0  0  0  0  0  0
    7.1717  -14.1901   20.5393 C   0  0  0  0  0  0  0  0  0  0  0  0
    6.7239  -14.7403   21.8533 C   0  0  0  0  0  0  0  0  0  0  0  0
    6.9784  -16.2301   21.8220 C   0  0  2  0  0  0  0  0  0  0  0  0
    5.9994  -16.8113   20.9325 N   0  0  0  0  0  0  0  0  0  0  0  0
    6.8457  -16.8477   23.1532 C   0  0  0  0  0  0  0  0  0  0  0  0
    5.7439  -17.3246   23.5681 O   0  0  0  0  0  0  0  0  0  0  0  0
    8.4890  -13.8402   20.3641 C   0  0  0  0  0  0  0  0  0  0  0  0
    8.9307  -13.3304   19.1641 C   0  0  0  0  0  0  0  0  0  0  0  0
    6.3551  -21.4812   24.7729 N   0  0  0  0  0  0  0  0  0  0  0  0
    6.7439  -21.1668   26.0948 C   0  0  0  0  0  0  0  0  0  0  0  0
    6.5749  -21.9854   27.0227 O   0  0  0  0  0  0  0  0  0  0  0  0
    7.3713  -19.8098   26.3545 C   0  0  0  0  0  0  0  0  0  0  0  0
    7.3497  -18.9859   25.1224 C   0  0  0  0  0  0  0  0  0  0  0  0
    7.9613  -17.6434   25.2949 C   0  0  2  0  0  0  0  0  0  0  0  0
    7.9657  -16.9233   24.0130 N   0  0  0  0  0  0  0  0  0  0  0  0
    9.3229  -17.6621   25.8734 C   0  0  0  0  0  0  0  0  0  0  0  0
    9.9474  -18.7839   26.0109 O   0  0  0  0  0  0  0  0  0  0  0  0
   10.0568  -16.5373   26.3080 N   0  0  0  0  0  0  0  0  0  0  0  0
    9.8359  -15.9477   27.6452 C   0  0  1  0  0  0  0  0  0  0  0  0
    8.3509  -15.7071   27.7160 C   0  0  0  0  0  0  0  0  0  0  0  0
    7.9138  -14.3388   27.4913 C   0  0  0  0  0  0  0  0  0  0  0  0
    8.7266  -13.3159   27.9592 C   0  0  0  0  0  0  0  0  0  0  0  0
    8.4355  -11.9881   27.8092 C   0  0  0  0  0  0  0  0  0  0  0  0
    7.2787  -11.6086   27.1623 C   0  0  0  0  0  0  0  0  0  0  0  0
    6.4451  -12.6172   26.6827 C   0  0  0  0  0  0  0  0  0  0  0  0
    6.7609  -13.9491   26.8465 C   0  0  0  0  0  0  0  0  0  0  0  0
   10.2042  -16.9107   28.7001 C   0  0  0  0  0  0  0  0  0  0  0  0
    9.6962  -18.1962   28.7405 O   0  0  0  0  0  0  0  0  0  0  0  0
   11.0052  -16.5557   29.5943 O   0  0  0  0  0  0  0  0  0  0  0  0
  2  1  1  0
  3  2  2  0
  4  3  1  0
  5  4  2  0
  5 11  1  0
  6  5  1  0
  7  6  1  0
  7  8  1  6
  9  7  1  0
  9 10  2  0
 11 12  2  0
 12  2  1  0
 13 14  1  0
 14 16  1  0
 15 14  2  0
 16 17  1  0
 18 17  1  6
 18 19  1  0
 18 20  1  0
 19  9  1  0
 20 21  2  0
 20 22  1  0
 22 23  1  0
 23 31  1  0
 23 24  1  1
 25 24  1  0
 25 30  1  0
 26 25  2  0
 27 26  1  0
 27 28  2  0
 28 29  1  0
 29 30  2  0
 31 33  2  0
 31 32  1  0
M  END
$$$$
