YQF.pdb
     RDKit          3D

 33 34  0  0  1  0  0  0  0  0999 V2000
    7.4942  -11.7854   16.5169 O   0  0  0  0  0  0  0  0  0  0  0  0
    7.5912  -12.6824   17.5588 C   0  0  0  0  0  0  0  0  0  0  0  0
    8.6345  -12.6291   18.4529 C   0  0  0  0  0  0  0  0  0  0  0  0
    8.7283  -13.5292   19.4953 C   0  0  0  0  0  0  0  0  0  0  0  0
    7.7809  -14.5141   19.6789 C   0  0  0  0  0  0  0  0  0  0  0  0
    7.8580  -15.5004   20.7974 C   0  0  0  0  0  0  0  0  0  0  0  0
    8.7785  -16.6121   20.3479 C   0  0  2  0  0  0  0  0  0  0  0  0
    8.1111  -17.3099   19.2731 N   0  0  0  0  0  0  0  0  0  0  0  0
    9.0730  -17.5663   21.4313 C   0  0  0  0  0  0  0  0  0  0  0  0
    8.3089  -18.5471   21.6918 O   0  0  0  0  0  0  0  0  0  0  0  0
    6.7340  -14.5763   18.7909 C   0  0  0  0  0  0  0  0  0  0  0  0
    6.6366  -13.6806   17.7501 C   0  0  0  0  0  0  0  0  0  0  0  0
   13.8241  -20.5537   24.2703 N   0  0  0  0  0  0  0  0  0  0  0  0
   13.9752  -19.7176   23.1410 C   0  0  0  0  0  0  0  0  0  0  0  0
   14.9580  -19.8417   22.3805 O   0  0  0  0  0  0  0  0  0  0  0  0
   12.9120  -18.6671   22.8788 C   0  0  0  0  0  0  0  0  0  0  0  0
   11.5598  -19.2353   23.0936 C   0  0  0  0  0  0  0  0  0  0  0  0
   10.5300  -18.2134   23.4120 C   0  0  2  0  0  0  0  0  0  0  0  0
   10.2361  -17.4056   22.2190 N   0  0  0  0  0  0  0  0  0  0  0  0
   10.8738  -17.3337   24.5509 C   0  0  0  0  0  0  0  0  0  0  0  0
   11.7656  -16.4116   24.4042 O   0  0  0  0  0  0  0  0  0  0  0  0
   10.3054  -17.3854   25.8420 N   0  0  0  0  0  0  0  0  0  0  0  0
    9.9540  -16.1509   26.5748 C   0  0  1  0  0  0  0  0  0  0  0  0
    9.0372  -15.4020   25.6439 C   0  0  0  0  0  0  0  0  0  0  0  0
    8.4575  -14.1757   26.1676 C   0  0  0  0  0  0  0  0  0  0  0  0
    7.0745  -14.0601   26.1592 C   0  0  0  0  0  0  0  0  0  0  0  0
    6.4030  -12.9642   26.6265 C   0  0  0  0  0  0  0  0  0  0  0  0
    7.1072  -11.8966   27.1413 C   0  0  0  0  0  0  0  0  0  0  0  0
    8.4977  -11.9881   27.1610 C   0  0  0  0  0  0  0  0  0  0  0  0
    9.1514  -13.1041   26.6840 C   0  0  0  0  0  0  0  0  0  0  0  0
    9.2072  -16.4765   27.8045 C   0  0  0  0  0  0  0  0  0  0  0  0
    8.5012  -17.6563   27.9525 O   0  0  0  0  0  0  0  0  0  0  0  0
    9.2089  -15.6577   28.7514 O   0  0  0  0  0  0  0  0  0  0  0  0
  2  1  1  0
  3  2  2  0
  4  3  1  0
  5  4  2  0
  5 11  1  0
  6  5  1  0
  7  6  1  0
  7  8  1  6
  9  7  1  0
  9 10  2  0
 11 12  2  0
 12  2  1  0
 13 14  1  0
 14 16  1  0
 15 14  2  0
 16 17  1  0
 18 17  1  6
 18 19  1  0
 18 20  1  0
 19  9  1  0
 20 21  2  0
 20 22  1  0
 22 23  1  0
 23 31  1  0
 23 24  1  6
 25 24  1  0
 25 30  1  0
 26 25  2  0
 27 26  1  0
 27 28  2  0
 28 29  1  0
 29 30  2  0
 31 33  2  0
 31 32  1  0
M  END
$$$$
