YQF.pdb
     RDKit          3D

 33 34  0  0  1  0  0  0  0  0999 V2000
    7.3121  -11.7372   16.7934 O   0  0  0  0  0  0  0  0  0  0  0  0
    7.5404  -12.6073   17.8376 C   0  0  0  0  0  0  0  0  0  0  0  0
    6.5065  -13.0876   18.6066 C   0  0  0  0  0  0  0  0  0  0  0  0
    6.7390  -13.9589   19.6518 C   0  0  0  0  0  0  0  0  0  0  0  0
    8.0145  -14.3798   19.9636 C   0  0  0  0  0  0  0  0  0  0  0  0
    8.2942  -15.3212   21.0884 C   0  0  0  0  0  0  0  0  0  0  0  0
    8.4963  -16.6913   20.4824 C   0  0  2  0  0  0  0  0  0  0  0  0
    7.2187  -17.1194   19.9609 N   0  0  0  0  0  0  0  0  0  0  0  0
    8.9666  -17.6763   21.4721 C   0  0  0  0  0  0  0  0  0  0  0  0
    8.2176  -18.1062   22.4036 O   0  0  0  0  0  0  0  0  0  0  0  0
    9.0550  -13.9057   19.2014 C   0  0  0  0  0  0  0  0  0  0  0  0
    8.8276  -13.0367   18.1582 C   0  0  0  0  0  0  0  0  0  0  0  0
   14.4998  -20.6539   21.2031 N   0  0  0  0  0  0  0  0  0  0  0  0
   14.2956  -20.6892   22.6011 C   0  0  0  0  0  0  0  0  0  0  0  0
   15.1291  -21.2332   23.3555 O   0  0  0  0  0  0  0  0  0  0  0  0
   13.0381  -20.0488   23.1588 C   0  0  0  0  0  0  0  0  0  0  0  0
   12.2197  -19.4768   22.0631 C   0  0  0  0  0  0  0  0  0  0  0  0
   10.9810  -18.8064   22.5349 C   0  0  2  0  0  0  0  0  0  0  0  0
   10.2887  -18.1729   21.4030 N   0  0  0  0  0  0  0  0  0  0  0  0
   11.1941  -17.8211   23.6179 C   0  0  0  0  0  0  0  0  0  0  0  0
   11.7622  -16.6915   23.3563 O   0  0  0  0  0  0  0  0  0  0  0  0
   10.8231  -17.9797   24.9706 N   0  0  0  0  0  0  0  0  0  0  0  0
   11.2193  -16.9910   25.9952 C   0  0  1  0  0  0  0  0  0  0  0  0
    9.9193  -16.5057   26.5806 C   0  0  0  0  0  0  0  0  0  0  0  0
   10.0270  -15.5633   27.6826 C   0  0  0  0  0  0  0  0  0  0  0  0
    9.7789  -14.2245   27.4142 C   0  0  0  0  0  0  0  0  0  0  0  0
    9.8404  -13.2382   28.3596 C   0  0  0  0  0  0  0  0  0  0  0  0
   10.1641  -13.5558   29.6616 C   0  0  0  0  0  0  0  0  0  0  0  0
   10.4178  -14.8939   29.9571 C   0  0  0  0  0  0  0  0  0  0  0  0
   10.3491  -15.8699   28.9860 C   0  0  0  0  0  0  0  0  0  0  0  0
   11.9994  -17.6417   27.0648 C   0  0  0  0  0  0  0  0  0  0  0  0
   11.7024  -18.9085   27.5330 O   0  0  0  0  0  0  0  0  0  0  0  0
   12.9662  -17.0284   27.5708 O   0  0  0  0  0  0  0  0  0  0  0  0
  2  1  1  0
  3  2  2  0
  4  3  1  0
  5  4  2  0
  5 11  1  0
  6  5  1  0
  7  6  1  0
  7  8  1  1
  9  7  1  0
  9 10  2  0
 11 12  2  0
 12  2  1  0
 13 14  1  0
 14 16  1  0
 15 14  2  0
 16 17  1  0
 18 17  1  6
 18 19  1  0
 18 20  1  0
 19  9  1  0
 20 21  2  0
 20 22  1  0
 22 23  1  0
 23 31  1  0
 23 24  1  1
 25 24  1  0
 25 30  1  0
 26 25  2  0
 27 26  1  0
 27 28  2  0
 28 29  1  0
 29 30  2  0
 31 33  2  0
 31 32  1  0
M  END
$$$$
