YQF.pdb
     RDKit          3D

 33 34  0  0  1  0  0  0  0  0999 V2000
    9.1311  -12.7715   16.9576 O   0  0  0  0  0  0  0  0  0  0  0  0
    8.5955  -13.2331   18.1407 C   0  0  0  0  0  0  0  0  0  0  0  0
    9.3932  -13.5120   19.2255 C   0  0  0  0  0  0  0  0  0  0  0  0
    8.8533  -13.9743   20.4088 C   0  0  0  0  0  0  0  0  0  0  0  0
    7.4959  -14.1734   20.5476 C   0  0  0  0  0  0  0  0  0  0  0  0
    6.8856  -14.6725   21.8157 C   0  0  0  0  0  0  0  0  0  0  0  0
    6.9280  -16.1828   21.7659 C   0  0  2  0  0  0  0  0  0  0  0  0
    5.7921  -16.6156   20.9848 N   0  0  0  0  0  0  0  0  0  0  0  0
    6.8490  -16.7885   23.1067 C   0  0  0  0  0  0  0  0  0  0  0  0
    5.7575  -16.8543   23.7533 O   0  0  0  0  0  0  0  0  0  0  0  0
    6.6896  -13.8977   19.4695 C   0  0  0  0  0  0  0  0  0  0  0  0
    7.2239  -13.4366   18.2876 C   0  0  0  0  0  0  0  0  0  0  0  0
    7.0648  -21.4935   25.5626 N   0  0  0  0  0  0  0  0  0  0  0  0
    7.7660  -21.0033   26.6874 C   0  0  0  0  0  0  0  0  0  0  0  0
    7.6874  -21.5815   27.7916 O   0  0  0  0  0  0  0  0  0  0  0  0
    8.6153  -19.7575   26.5164 C   0  0  0  0  0  0  0  0  0  0  0  0
    8.4722  -19.2189   25.1427 C   0  0  0  0  0  0  0  0  0  0  0  0
    8.0602  -17.7924   25.1042 C   0  0  2  0  0  0  0  0  0  0  0  0
    8.0107  -17.3198   23.7127 N   0  0  0  0  0  0  0  0  0  0  0  0
    8.9038  -16.8905   25.9189 C   0  0  0  0  0  0  0  0  0  0  0  0
   10.0245  -16.4573   25.4460 O   0  0  0  0  0  0  0  0  0  0  0  0
    8.6059  -16.4206   27.2163 N   0  0  0  0  0  0  0  0  0  0  0  0
    9.5804  -15.6160   27.9827 C   0  0  1  0  0  0  0  0  0  0  0  0
    8.7709  -14.4860   28.5623 C   0  0  0  0  0  0  0  0  0  0  0  0
    8.2400  -13.5254   27.6086 C   0  0  0  0  0  0  0  0  0  0  0  0
    6.9921  -13.7832   27.0588 C   0  0  0  0  0  0  0  0  0  0  0  0
    6.3771  -12.9602   26.1562 C   0  0  0  0  0  0  0  0  0  0  0  0
    7.0028  -11.8017   25.7475 C   0  0  0  0  0  0  0  0  0  0  0  0
    8.2573  -11.5198   26.2851 C   0  0  0  0  0  0  0  0  0  0  0  0
    8.8563  -12.3657   27.1940 C   0  0  0  0  0  0  0  0  0  0  0  0
   10.1410  -16.4072   29.0942 C   0  0  0  0  0  0  0  0  0  0  0  0
    9.7342  -17.7015   29.3618 O   0  0  0  0  0  0  0  0  0  0  0  0
   11.0171  -15.8924   29.8253 O   0  0  0  0  0  0  0  0  0  0  0  0
  2  1  1  0
  3  2  2  0
  4  3  1  0
  5  4  2  0
  5 11  1  0
  6  5  1  0
  7  6  1  0
  7  8  1  6
  9  7  1  0
  9 10  2  0
 11 12  2  0
 12  2  1  0
 13 14  1  0
 14 16  1  0
 15 14  2  0
 16 17  1  0
 18 17  1  6
 18 19  1  0
 18 20  1  0
 19  9  1  0
 20 21  2  0
 20 22  1  0
 22 23  1  0
 23 31  1  0
 23 24  1  1
 25 24  1  0
 25 30  1  0
 26 25  2  0
 27 26  1  0
 27 28  2  0
 28 29  1  0
 29 30  2  0
 31 33  2  0
 31 32  1  0
M  END
$$$$
