YQF.pdb
     RDKit          3D

 33 34  0  0  1  0  0  0  0  0999 V2000
    2.7448  -23.3356   24.6273 O   0  0  0  0  0  0  0  0  0  0  0  0
    3.6998  -22.3754   24.3710 C   0  0  0  0  0  0  0  0  0  0  0  0
    4.8633  -22.3120   25.1012 C   0  0  0  0  0  0  0  0  0  0  0  0
    5.8176  -21.3489   24.8417 C   0  0  0  0  0  0  0  0  0  0  0  0
    5.6405  -20.4157   23.8421 C   0  0  0  0  0  0  0  0  0  0  0  0
    6.6560  -19.3634   23.5403 C   0  0  0  0  0  0  0  0  0  0  0  0
    7.1151  -19.5830   22.1169 C   0  0  2  0  0  0  0  0  0  0  0  0
    7.8151  -20.8466   22.0849 N   0  0  0  0  0  0  0  0  0  0  0  0
    8.0216  -18.5188   21.6516 C   0  0  0  0  0  0  0  0  0  0  0  0
    9.2687  -18.5428   21.8920 O   0  0  0  0  0  0  0  0  0  0  0  0
    4.4811  -20.4701   23.1063 C   0  0  0  0  0  0  0  0  0  0  0  0
    3.5269  -21.4289   23.3618 C   0  0  0  0  0  0  0  0  0  0  0  0
    7.1587  -12.5727   17.6055 N   0  0  0  0  0  0  0  0  0  0  0  0
    7.8221  -13.8086   17.7778 C   0  0  0  0  0  0  0  0  0  0  0  0
    8.0184  -14.5696   16.8072 O   0  0  0  0  0  0  0  0  0  0  0  0
    8.2884  -14.1843   19.1720 C   0  0  0  0  0  0  0  0  0  0  0  0
    7.5146  -15.3415   19.6816 C   0  0  0  0  0  0  0  0  0  0  0  0
    8.2968  -16.2301   20.5787 C   0  0  2  0  0  0  0  0  0  0  0  0
    7.5106  -17.4269   20.9127 N   0  0  0  0  0  0  0  0  0  0  0  0
    8.7810  -15.5772   21.8149 C   0  0  0  0  0  0  0  0  0  0  0  0
    9.7109  -14.6839   21.7479 O   0  0  0  0  0  0  0  0  0  0  0  0
    8.3150  -15.8267   23.1238 N   0  0  0  0  0  0  0  0  0  0  0  0
    8.6084  -14.8946   24.2326 C   0  0  1  0  0  0  0  0  0  0  0  0
    7.2672  -14.6049   24.8533 C   0  0  0  0  0  0  0  0  0  0  0  0
    7.2549  -13.6094   25.9129 C   0  0  0  0  0  0  0  0  0  0  0  0
    6.5699  -12.4254   25.6790 C   0  0  0  0  0  0  0  0  0  0  0  0
    6.4761  -11.4113   26.5917 C   0  0  0  0  0  0  0  0  0  0  0  0
    7.0837  -11.5385   27.8228 C   0  0  0  0  0  0  0  0  0  0  0  0
    7.7781  -12.7185   28.0825 C   0  0  0  0  0  0  0  0  0  0  0  0
    7.8580  -13.7265   27.1455 C   0  0  0  0  0  0  0  0  0  0  0  0
    9.4599  -15.5488   25.2441 C   0  0  0  0  0  0  0  0  0  0  0  0
    9.7965  -16.8883   25.1754 O   0  0  0  0  0  0  0  0  0  0  0  0
    9.8955  -14.8710   26.2021 O   0  0  0  0  0  0  0  0  0  0  0  0
  2  1  1  0
  3  2  2  0
  4  3  1  0
  5  4  2  0
  5 11  1  0
  6  5  1  0
  7  6  1  0
  7  8  1  1
  9  7  1  0
  9 10  2  0
 11 12  2  0
 12  2  1  0
 13 14  1  0
 14 16  1  0
 15 14  2  0
 16 17  1  0
 18 17  1  1
 18 19  1  0
 18 20  1  0
 19  9  1  0
 20 21  2  0
 20 22  1  0
 22 23  1  0
 23 31  1  0
 23 24  1  1
 25 24  1  0
 25 30  1  0
 26 25  2  0
 27 26  1  0
 27 28  2  0
 28 29  1  0
 29 30  2  0
 31 33  2  0
 31 32  1  0
M  END
$$$$
