GTR.pdb
     RDKit          3D

 23 22  0  0  1  0  0  0  0  0999 V2000
   16.7765  -27.3955   -2.9576 N   0  0  0  0  0  0  0  0  0  0  0  0
   17.3232  -27.0832   -1.6635 C   0  0  0  0  0  0  0  0  0  0  0  0
   16.2726  -26.5014   -0.7900 C   0  0  0  0  0  0  0  0  0  0  0  0
   15.0850  -26.3269   -1.2244 O   0  0  0  0  0  0  0  0  0  0  0  0
   17.1938  -25.4001    3.4173 C   0  0  0  0  0  0  0  0  0  0  0  0
   15.9424  -26.0131    2.8945 C   0  0  1  0  0  0  0  0  0  0  0  0
   14.8688  -25.5674    3.6805 O   0  0  0  0  0  0  0  0  0  0  0  0
   15.6341  -25.6177    1.4706 C   0  0  2  0  0  0  0  0  0  0  0  0
   16.6113  -26.1406    0.5426 N   0  0  0  0  0  0  0  0  0  0  0  0
   15.5260  -24.1647    1.2894 C   0  0  0  0  0  0  0  0  0  0  0  0
   16.5131  -23.4485    1.0065 O   0  0  0  0  0  0  0  0  0  0  0  0
    9.3366  -19.1981   -0.6626 N   0  0  0  0  0  0  0  0  0  0  0  0
   10.3919  -18.2524   -0.7149 C   0  0  0  0  0  0  0  0  0  0  0  0
   10.1771  -16.9816   -0.7545 N   0  0  0  0  0  0  0  0  0  0  0  0
   11.7550  -18.6990   -0.7251 N   0  0  0  0  0  0  0  0  0  0  0  0
   11.9759  -20.1359   -0.5699 C   0  0  0  0  0  0  0  0  0  0  0  0
   12.3253  -20.3689    0.9033 C   0  0  0  0  0  0  0  0  0  0  0  0
   12.5895  -21.8254    1.1686 C   0  0  0  0  0  0  0  0  0  0  0  0
   14.0671  -22.1180    1.3161 C   0  0  2  0  0  0  0  0  0  0  0  0
   14.2656  -23.5427    1.4378 N   0  0  0  0  0  0  0  0  0  0  0  0
   14.6397  -21.4666    2.5154 C   0  0  0  0  0  0  0  0  0  0  0  0
   15.1637  -20.1859    2.4641 O   0  0  0  0  0  0  0  0  0  0  0  0
   14.6446  -22.1066    3.6091 O   0  0  0  0  0  0  0  0  0  0  0  0
  2  1  1  0
  3  9  1  0
  3  2  1  0
  4  3  2  0
  6  5  1  1
  7  6  1  0
  8  6  1  0
  8 10  1  0
  8  9  1  6
 10 11  2  0
 13 12  1  0
 13 14  2  0
 15 13  1  0
 16 15  1  0
 17 16  1  0
 18 17  1  0
 19 18  1  1
 19 21  1  0
 20 10  1  0
 20 19  1  0
 21 22  1  0
 23 21  2  0
M  END
$$$$
