GTR.pdb
     RDKit          3D

 23 22  0  0  1  0  0  0  0  0999 V2000
   28.0125  -17.4293  -19.7787 N   0  0  0  0  0  0  0  0  0  0  0  0
   27.1197  -18.5408  -19.5823 C   0  0  0  0  0  0  0  0  0  0  0  0
   26.1919  -18.2605  -18.4573 C   0  0  0  0  0  0  0  0  0  0  0  0
   26.6402  -17.9619  -17.2999 O   0  0  0  0  0  0  0  0  0  0  0  0
   22.7938  -16.1112  -18.8763 C   0  0  0  0  0  0  0  0  0  0  0  0
   22.5645  -17.4271  -18.2198 C   0  0  1  0  0  0  0  0  0  0  0  0
   22.0733  -18.3226  -19.1819 O   0  0  0  0  0  0  0  0  0  0  0  0
   23.8236  -18.0400  -17.6561 C   0  0  2  0  0  0  0  0  0  0  0  0
   24.7913  -18.3302  -18.6901 N   0  0  0  0  0  0  0  0  0  0  0  0
   23.5695  -19.2588  -16.8777 C   0  0  0  0  0  0  0  0  0  0  0  0
   23.5910  -20.4001  -17.3918 O   0  0  0  0  0  0  0  0  0  0  0  0
   25.7228  -20.5008   -8.7813 N   0  0  0  0  0  0  0  0  0  0  0  0
   26.4196  -20.9395   -9.9358 C   0  0  0  0  0  0  0  0  0  0  0  0
   27.6971  -21.1149   -9.9446 N   0  0  0  0  0  0  0  0  0  0  0  0
   25.7017  -21.2045  -11.1490 N   0  0  0  0  0  0  0  0  0  0  0  0
   24.2466  -21.0727  -11.0926 C   0  0  0  0  0  0  0  0  0  0  0  0
   23.7241  -21.3786  -12.4997 C   0  0  0  0  0  0  0  0  0  0  0  0
   23.9062  -20.1948  -13.4092 C   0  0  0  0  0  0  0  0  0  0  0  0
   23.0408  -20.2900  -14.6472 C   0  0  2  0  0  0  0  0  0  0  0  0
   23.2894  -19.1496  -15.4967 N   0  0  0  0  0  0  0  0  0  0  0  0
   21.5997  -20.3114  -14.3106 C   0  0  0  0  0  0  0  0  0  0  0  0
   20.9472  -21.4905  -13.9919 O   0  0  0  0  0  0  0  0  0  0  0  0
   20.9590  -19.2181  -14.3177 O   0  0  0  0  0  0  0  0  0  0  0  0
  2  1  1  0
  3  9  1  0
  3  2  1  0
  4  3  2  0
  6  5  1  6
  7  6  1  0
  8  6  1  0
  8 10  1  0
  8  9  1  6
 10 11  2  0
 13 12  1  0
 13 14  2  0
 15 13  1  0
 16 15  1  0
 17 16  1  0
 18 17  1  0
 19 18  1  1
 19 21  1  0
 20 10  1  0
 20 19  1  0
 21 22  1  0
 23 21  2  0
M  END
$$$$
