GTR.pdb
     RDKit          3D

 23 22  0  0  1  0  0  0  0  0999 V2000
   13.7989  -10.7634   -9.6208 N   0  0  0  0  0  0  0  0  0  0  0  0
   14.3513   -9.7820   -8.7247 C   0  0  0  0  0  0  0  0  0  0  0  0
   14.7941   -8.5856   -9.4846 C   0  0  0  0  0  0  0  0  0  0  0  0
   14.6524   -8.5275  -10.7519 O   0  0  0  0  0  0  0  0  0  0  0  0
   15.6398   -3.7620   -9.2539 C   0  0  0  0  0  0  0  0  0  0  0  0
   15.3664   -5.0611   -8.5810 C   0  0  1  0  0  0  0  0  0  0  0  0
   13.9888   -5.1482   -8.3292 O   0  0  0  0  0  0  0  0  0  0  0  0
   15.7323   -6.2585   -9.4243 C   0  0  2  0  0  0  0  0  0  0  0  0
   15.3807   -7.5018   -8.7760 N   0  0  0  0  0  0  0  0  0  0  0  0
   17.1541   -6.2901   -9.7893 C   0  0  0  0  0  0  0  0  0  0  0  0
   18.0648   -6.3707   -8.9340 O   0  0  0  0  0  0  0  0  0  0  0  0
   22.2074   -9.6144  -16.1052 N   0  0  0  0  0  0  0  0  0  0  0  0
   22.4036  -10.1882  -14.8232 C   0  0  0  0  0  0  0  0  0  0  0  0
   23.2884  -11.1002  -14.6046 N   0  0  0  0  0  0  0  0  0  0  0  0
   21.6028   -9.7562  -13.7143 N   0  0  0  0  0  0  0  0  0  0  0  0
   20.4208   -8.9560  -14.0308 C   0  0  0  0  0  0  0  0  0  0  0  0
   20.3773   -7.8156  -13.0088 C   0  0  0  0  0  0  0  0  0  0  0  0
   18.9732   -7.5836  -12.5227 C   0  0  0  0  0  0  0  0  0  0  0  0
   18.8769   -6.3743  -11.6177 C   0  0  2  0  0  0  0  0  0  0  0  0
   17.5177   -6.2278  -11.1537 N   0  0  0  0  0  0  0  0  0  0  0  0
   19.2634   -5.1300  -12.3195 C   0  0  0  0  0  0  0  0  0  0  0  0
   20.5877   -4.7402  -12.4278 O   0  0  0  0  0  0  0  0  0  0  0  0
   18.3513   -4.4129  -12.8292 O   0  0  0  0  0  0  0  0  0  0  0  0
  2  1  1  0
  3  9  1  0
  3  2  1  0
  4  3  2  0
  6  5  1  6
  7  6  1  0
  8  6  1  0
  8 10  1  0
  8  9  1  1
 10 11  2  0
 13 12  1  0
 13 14  2  0
 15 13  1  0
 16 15  1  0
 17 16  1  0
 18 17  1  0
 19 18  1  6
 19 21  1  0
 20 10  1  0
 20 19  1  0
 21 22  1  0
 23 21  2  0
M  END
$$$$
