GTR.pdb
     RDKit          3D

 23 22  0  0  1  0  0  0  0  0999 V2000
   25.2412  -12.6270  -16.7130 N   0  0  0  0  0  0  0  0  0  0  0  0
   25.9826  -13.8186  -17.0320 C   0  0  0  0  0  0  0  0  0  0  0  0
   25.5569  -14.9377  -16.1537 C   0  0  0  0  0  0  0  0  0  0  0  0
   25.0872  -14.7112  -14.9886 O   0  0  0  0  0  0  0  0  0  0  0  0
   22.8890  -17.3753  -16.5725 C   0  0  0  0  0  0  0  0  0  0  0  0
   24.1439  -18.1700  -16.4793 C   0  0  1  0  0  0  0  0  0  0  0  0
   24.5553  -18.5023  -17.7790 O   0  0  0  0  0  0  0  0  0  0  0  0
   25.2835  -17.4130  -15.8413 C   0  0  2  0  0  0  0  0  0  0  0  0
   25.6812  -16.2704  -16.6326 N   0  0  0  0  0  0  0  0  0  0  0  0
   26.4588  -18.2548  -15.5849 C   0  0  0  0  0  0  0  0  0  0  0  0
   27.4029  -18.3556  -16.4010 O   0  0  0  0  0  0  0  0  0  0  0  0
   24.0018  -19.5546  -10.7704 N   0  0  0  0  0  0  0  0  0  0  0  0
   23.9969  -20.8974  -10.3144 C   0  0  0  0  0  0  0  0  0  0  0  0
   22.9062  -21.5277  -10.0392 N   0  0  0  0  0  0  0  0  0  0  0  0
   25.2351  -21.6015  -10.1450 N   0  0  0  0  0  0  0  0  0  0  0  0
   26.4533  -20.8868  -10.5228 C   0  0  0  0  0  0  0  0  0  0  0  0
   26.4330  -20.7630  -12.0495 C   0  0  0  0  0  0  0  0  0  0  0  0
   27.6746  -20.0771  -12.5491 C   0  0  0  0  0  0  0  0  0  0  0  0
   27.6383  -19.8540  -14.0457 C   0  0  2  0  0  0  0  0  0  0  0  0
   26.5363  -18.9816  -14.3753 N   0  0  0  0  0  0  0  0  0  0  0  0
   27.4623  -21.1229  -14.7868 C   0  0  0  0  0  0  0  0  0  0  0  0
   26.2327  -21.4965  -15.3025 O   0  0  0  0  0  0  0  0  0  0  0  0
   28.4684  -21.8765  -14.9465 O   0  0  0  0  0  0  0  0  0  0  0  0
  2  1  1  0
  3  9  1  0
  3  2  1  0
  4  3  2  0
  6  5  1  6
  7  6  1  0
  8  6  1  0
  8 10  1  0
  8  9  1  6
 10 11  2  0
 13 12  1  0
 13 14  2  0
 15 13  1  0
 16 15  1  0
 17 16  1  0
 18 17  1  0
 19 18  1  1
 19 21  1  0
 20 10  1  0
 20 19  1  0
 21 22  1  0
 23 21  2  0
M  END
$$$$
