GTR.pdb
     RDKit          3D

 23 22  0  0  1  0  0  0  0  0999 V2000
   31.1270  -21.9737  -10.3328 N   0  0  0  0  0  0  0  0  0  0  0  0
   30.2101  -20.8890  -10.5649 C   0  0  0  0  0  0  0  0  0  0  0  0
   28.8100  -21.3807  -10.5106 C   0  0  0  0  0  0  0  0  0  0  0  0
   28.5580  -22.6086  -10.2689 O   0  0  0  0  0  0  0  0  0  0  0  0
   26.5381  -21.0039   -8.1228 C   0  0  0  0  0  0  0  0  0  0  0  0
   25.7814  -20.4483   -9.2777 C   0  0  1  0  0  0  0  0  0  0  0  0
   25.8330  -19.0477   -9.2086 O   0  0  0  0  0  0  0  0  0  0  0  0
   26.3612  -20.8405  -10.6151 C   0  0  2  0  0  0  0  0  0  0  0  0
   27.7506  -20.4592  -10.7328 N   0  0  0  0  0  0  0  0  0  0  0  0
   25.6115  -20.2872  -11.7498 C   0  0  0  0  0  0  0  0  0  0  0  0
   25.7125  -19.0897  -12.1009 O   0  0  0  0  0  0  0  0  0  0  0  0
   26.5866  -19.4294  -18.2617 N   0  0  0  0  0  0  0  0  0  0  0  0
   27.5133  -19.1235  -17.2328 C   0  0  0  0  0  0  0  0  0  0  0  0
   28.3702  -18.1659  -17.3395 N   0  0  0  0  0  0  0  0  0  0  0  0
   27.5182  -19.8909  -16.0209 N   0  0  0  0  0  0  0  0  0  0  0  0
   26.5774  -21.0077  -15.9477 C   0  0  0  0  0  0  0  0  0  0  0  0
   25.1943  -20.3995  -15.6949 C   0  0  0  0  0  0  0  0  0  0  0  0
   24.3500  -21.3169  -14.8539 C   0  0  0  0  0  0  0  0  0  0  0  0
   23.9107  -20.6612  -13.5624 C   0  0  2  0  0  0  0  0  0  0  0  0
   24.7413  -21.1294  -12.4784 N   0  0  0  0  0  0  0  0  0  0  0  0
   22.5021  -20.9775  -13.2364 C   0  0  0  0  0  0  0  0  0  0  0  0
   21.4517  -20.2741  -13.8016 O   0  0  0  0  0  0  0  0  0  0  0  0
   22.2648  -21.9167  -12.4194 O   0  0  0  0  0  0  0  0  0  0  0  0
  2  1  1  0
  3  9  1  0
  3  2  1  0
  4  3  2  0
  6  5  1  1
  7  6  1  0
  8  6  1  0
  8 10  1  0
  8  9  1  1
 10 11  2  0
 13 12  1  0
 13 14  2  0
 15 13  1  0
 16 15  1  0
 17 16  1  0
 18 17  1  0
 19 18  1  6
 19 21  1  0
 20 10  1  0
 20 19  1  0
 21 22  1  0
 23 21  2  0
M  END
$$$$
