GTR.pdb
     RDKit          3D

 23 22  0  0  1  0  0  0  0  0999 V2000
   36.7625  -26.4383  -18.8619 N   0  0  0  0  0  0  0  0  0  0  0  0
   35.9493  -25.3319  -18.4309 C   0  0  0  0  0  0  0  0  0  0  0  0
   34.6540  -25.8247  -17.8977 C   0  0  0  0  0  0  0  0  0  0  0  0
   34.3032  -27.0418  -18.0561 O   0  0  0  0  0  0  0  0  0  0  0  0
   33.8004  -25.8613  -14.4472 C   0  0  0  0  0  0  0  0  0  0  0  0
   32.6361  -25.1753  -15.0708 C   0  0  1  0  0  0  0  0  0  0  0  0
   32.7449  -23.7994  -14.8177 O   0  0  0  0  0  0  0  0  0  0  0  0
   32.5798  -25.3397  -16.5704 C   0  0  2  0  0  0  0  0  0  0  0  0
   33.8076  -24.9164  -17.2053 N   0  0  0  0  0  0  0  0  0  0  0  0
   31.4502  -24.6296  -17.1832 C   0  0  0  0  0  0  0  0  0  0  0  0
   31.6086  -23.6624  -17.9622 O   0  0  0  0  0  0  0  0  0  0  0  0
   22.8060  -25.2409  -18.6876 N   0  0  0  0  0  0  0  0  0  0  0  0
   23.7943  -26.0986  -19.2341 C   0  0  0  0  0  0  0  0  0  0  0  0
   23.5912  -26.7911  -20.3026 N   0  0  0  0  0  0  0  0  0  0  0  0
   25.0730  -26.2178  -18.5950 N   0  0  0  0  0  0  0  0  0  0  0  0
   25.2609  -25.4623  -17.3574 C   0  0  0  0  0  0  0  0  0  0  0  0
   26.4715  -24.5504  -17.5803 C   0  0  0  0  0  0  0  0  0  0  0  0
   27.7493  -25.2564  -17.2189 C   0  0  0  0  0  0  0  0  0  0  0  0
   28.9585  -24.3597  -17.3749 C   0  0  2  0  0  0  0  0  0  0  0  0
   30.1320  -25.0458  -16.8888 N   0  0  0  0  0  0  0  0  0  0  0  0
   28.8104  -23.0992  -16.6135 C   0  0  0  0  0  0  0  0  0  0  0  0
   28.2409  -21.9720  -17.1814 O   0  0  0  0  0  0  0  0  0  0  0  0
   29.2184  -23.0636  -15.4143 O   0  0  0  0  0  0  0  0  0  0  0  0
  2  1  1  0
  3  9  1  0
  3  2  1  0
  4  3  2  0
  6  5  1  6
  7  6  1  0
  8  6  1  0
  8 10  1  0
  8  9  1  6
 10 11  2  0
 13 12  1  0
 13 14  2  0
 15 13  1  0
 16 15  1  0
 17 16  1  0
 18 17  1  0
 19 18  1  1
 19 21  1  0
 20 10  1  0
 20 19  1  0
 21 22  1  0
 23 21  2  0
M  END
$$$$
