GTR.pdb
     RDKit          3D

 23 22  0  0  1  0  0  0  0  0999 V2000
   23.4632  -25.6550  -16.9864 N   0  0  0  0  0  0  0  0  0  0  0  0
   22.7761  -24.4014  -17.1523 C   0  0  0  0  0  0  0  0  0  0  0  0
   22.2293  -23.9402  -15.8511 C   0  0  0  0  0  0  0  0  0  0  0  0
   22.2889  -24.6857  -14.8166 O   0  0  0  0  0  0  0  0  0  0  0  0
   20.5385  -20.0271  -13.2851 C   0  0  0  0  0  0  0  0  0  0  0  0
   21.0615  -20.6093  -14.5510 C   0  0  1  0  0  0  0  0  0  0  0  0
   22.3804  -20.1654  -14.7311 O   0  0  0  0  0  0  0  0  0  0  0  0
   21.1069  -22.1182  -14.5397 C   0  0  2  0  0  0  0  0  0  0  0  0
   21.6360  -22.6506  -15.7751 N   0  0  0  0  0  0  0  0  0  0  0  0
   19.7990  -22.7293  -14.2721 C   0  0  0  0  0  0  0  0  0  0  0  0
   18.8839  -22.7570  -15.1260 O   0  0  0  0  0  0  0  0  0  0  0  0
   18.6262  -25.5609   -6.1580 N   0  0  0  0  0  0  0  0  0  0  0  0
   17.4845  -24.8179   -6.5525 C   0  0  0  0  0  0  0  0  0  0  0  0
   16.4660  -24.6567   -5.7784 N   0  0  0  0  0  0  0  0  0  0  0  0
   17.4361  -24.2143   -7.8528 N   0  0  0  0  0  0  0  0  0  0  0  0
   18.0422  -24.9682   -8.9492 C   0  0  0  0  0  0  0  0  0  0  0  0
   17.8339  -24.1379  -10.2196 C   0  0  0  0  0  0  0  0  0  0  0  0
   18.5140  -24.7792  -11.3976 C   0  0  0  0  0  0  0  0  0  0  0  0
   18.3219  -23.9812  -12.6692 C   0  0  2  0  0  0  0  0  0  0  0  0
   19.5547  -23.3103  -13.0070 N   0  0  0  0  0  0  0  0  0  0  0  0
   17.2631  -22.9577  -12.5216 C   0  0  0  0  0  0  0  0  0  0  0  0
   15.9417  -23.2317  -12.8320 O   0  0  0  0  0  0  0  0  0  0  0  0
   17.5863  -21.8072  -12.1001 O   0  0  0  0  0  0  0  0  0  0  0  0
  2  1  1  0
  3  9  1  0
  3  2  1  0
  4  3  2  0
  6  5  1  1
  7  6  1  0
  8  6  1  0
  8 10  1  0
  8  9  1  6
 10 11  2  0
 13 12  1  0
 13 14  2  0
 15 13  1  0
 16 15  1  0
 17 16  1  0
 18 17  1  0
 19 18  1  1
 19 21  1  0
 20 10  1  0
 20 19  1  0
 21 22  1  0
 23 21  2  0
M  END
$$$$
