GTR.pdb
     RDKit          3D

 23 22  0  0  1  0  0  0  0  0999 V2000
   24.8649  -20.1801  -15.9793 N   0  0  0  0  0  0  0  0  0  0  0  0
   24.6816  -19.0421  -16.8411 C   0  0  0  0  0  0  0  0  0  0  0  0
   24.3266  -17.8438  -16.0392 C   0  0  0  0  0  0  0  0  0  0  0  0
   23.6127  -17.9505  -14.9865 O   0  0  0  0  0  0  0  0  0  0  0  0
   26.5533  -14.9333  -14.6564 C   0  0  0  0  0  0  0  0  0  0  0  0
   25.5357  -14.4013  -15.6032 C   0  0  1  0  0  0  0  0  0  0  0  0
   26.1484  -14.2108  -16.8511 O   0  0  0  0  0  0  0  0  0  0  0  0
   24.3774  -15.3436  -15.8254 C   0  0  2  0  0  0  0  0  0  0  0  0
   24.7961  -16.5710  -16.4640 N   0  0  0  0  0  0  0  0  0  0  0  0
   23.2893  -14.7409  -16.6056 C   0  0  0  0  0  0  0  0  0  0  0  0
   23.1232  -14.9817  -17.8229 O   0  0  0  0  0  0  0  0  0  0  0  0
   15.1744  -12.5568  -14.1367 N   0  0  0  0  0  0  0  0  0  0  0  0
   15.2226  -12.2421  -15.5186 C   0  0  0  0  0  0  0  0  0  0  0  0
   14.1764  -11.8802  -16.1798 N   0  0  0  0  0  0  0  0  0  0  0  0
   16.4663  -12.3212  -16.2289 N   0  0  0  0  0  0  0  0  0  0  0  0
   17.5740  -12.9826  -15.5409 C   0  0  0  0  0  0  0  0  0  0  0  0
   18.8147  -12.7849  -16.4174 C   0  0  0  0  0  0  0  0  0  0  0  0
   20.0325  -13.3804  -15.7662 C   0  0  0  0  0  0  0  0  0  0  0  0
   21.2632  -13.2536  -16.6379 C   0  0  2  0  0  0  0  0  0  0  0  0
   22.3915  -13.8552  -15.9677 N   0  0  0  0  0  0  0  0  0  0  0  0
   21.5932  -11.8389  -16.9212 C   0  0  0  0  0  0  0  0  0  0  0  0
   20.9153  -11.1160  -17.8883 O   0  0  0  0  0  0  0  0  0  0  0  0
   22.5202  -11.2875  -16.2560 O   0  0  0  0  0  0  0  0  0  0  0  0
  2  1  1  0
  3  9  1  0
  3  2  1  0
  4  3  2  0
  6  5  1  1
  7  6  1  0
  8  6  1  0
  8 10  1  0
  8  9  1  6
 10 11  2  0
 13 12  1  0
 13 14  2  0
 15 13  1  0
 16 15  1  0
 17 16  1  0
 18 17  1  0
 19 18  1  1
 19 21  1  0
 20 10  1  0
 20 19  1  0
 21 22  1  0
 23 21  2  0
M  END
$$$$
