QQW.pdb
     RDKit          3D

 33 34  0  0  1  0  0  0  0  0999 V2000
   11.6125  -21.4669   17.4568 N   0  0  0  0  0  0  0  0  0  0  0  0
   10.5903  -22.2208   18.1330 C   0  0  0  0  0  0  0  0  0  0  0  0
   10.3580  -23.3810   17.7265 O   0  0  0  0  0  0  0  0  0  0  0  0
    9.9128  -21.5590   19.2430 C   0  0  0  0  0  0  0  0  0  0  0  0
   10.4162  -20.1572   19.4410 C   0  0  0  0  0  0  0  0  0  0  0  0
   10.2345  -19.7171   20.8446 C   0  0  2  0  0  0  0  0  0  0  0  0
    8.9110  -20.0018   21.3658 N   0  0  0  0  0  0  0  0  0  0  0  0
   10.4969  -18.2627   21.0410 C   0  0  0  0  0  0  0  0  0  0  0  0
   11.6128  -17.8224   20.7065 O   0  0  0  0  0  0  0  0  0  0  0  0
    6.4872  -13.6951   19.9102 N   0  0  0  0  0  0  0  0  0  0  0  0
    7.5407  -13.0022   20.5483 C   0  0  0  0  0  0  0  0  0  0  0  0
    7.6086  -11.7360   20.5549 O   0  0  0  0  0  0  0  0  0  0  0  0
    8.6032  -13.7738   21.2337 C   0  0  0  0  0  0  0  0  0  0  0  0
    8.4066  -15.2615   21.0989 C   0  0  0  0  0  0  0  0  0  0  0  0
    9.5275  -16.0153   21.7864 C   0  0  2  0  0  0  0  0  0  0  0  0
    9.5050  -17.4309   21.5871 N   0  0  0  0  0  0  0  0  0  0  0  0
    9.8139  -15.5850   23.1475 C   0  0  0  0  0  0  0  0  0  0  0  0
   10.1409  -14.3986   23.4517 O   0  0  0  0  0  0  0  0  0  0  0  0
    9.7352  -16.5093   24.2218 N   0  0  0  0  0  0  0  0  0  0  0  0
   10.1533  -16.1048   25.5789 C   0  0  1  0  0  0  0  0  0  0  0  0
    8.9782  -16.3169   26.4944 C   0  0  0  0  0  0  0  0  0  0  0  0
    7.8384  -15.4696   26.1106 C   0  0  0  0  0  0  0  0  0  0  0  0
    6.6614  -15.9499   25.5397 C   0  0  0  0  0  0  0  0  0  0  0  0
    5.8234  -14.9368   25.3673 N   0  0  0  0  0  0  0  0  0  0  0  0
    6.4110  -13.8062   25.8051 C   0  0  0  0  0  0  0  0  0  0  0  0
    5.9714  -12.5086   25.8343 C   0  0  0  0  0  0  0  0  0  0  0  0
    6.7777  -11.5018   26.3265 C   0  0  0  0  0  0  0  0  0  0  0  0
    8.0247  -11.8189   26.7852 C   0  0  0  0  0  0  0  0  0  0  0  0
    8.4806  -13.1082   26.7644 C   0  0  0  0  0  0  0  0  0  0  0  0
    7.6781  -14.1317   26.2731 C   0  0  0  0  0  0  0  0  0  0  0  0
   11.3445  -16.8683   25.9150 C   0  0  0  0  0  0  0  0  0  0  0  0
   11.9008  -16.7117   27.0287 O   0  0  0  0  0  0  0  0  0  0  0  0
   11.9388  -17.7979   25.0738 O   0  0  0  0  0  0  0  0  0  0  0  0
  2  1  1  0
  3  2  2  0
  4  2  1  0
  5  4  1  0
  6  5  1  0
  6  7  1  6
  8  9  2  0
  8  6  1  0
 10 11  1  0
 11 12  2  0
 11 13  1  0
 13 14  1  0
 15 14  1  1
 15 16  1  0
 16  8  1  0
 17 15  1  0
 17 19  1  0
 18 17  2  0
 20 19  1  0
 20 31  1  0
 20 21  1  1
 22 21  1  0
 23 22  2  0
 24 23  1  0
 24 25  1  0
 25 30  2  0
 26 25  1  0
 26 27  2  0
 27 28  1  0
 28 29  2  0
 30 22  1  0
 30 29  1  0
 31 33  1  0
 32 31  2  0
M  END
$$$$
