QQW.pdb
     RDKit          3D

 33 34  0  0  1  0  0  0  0  0999 V2000
    8.2816  -12.3859   17.6201 N   0  0  0  0  0  0  0  0  0  0  0  0
    7.7570  -13.4188   16.7667 C   0  0  0  0  0  0  0  0  0  0  0  0
    7.7763  -13.2189   15.5318 O   0  0  0  0  0  0  0  0  0  0  0  0
    7.2477  -14.6176   17.4245 C   0  0  0  0  0  0  0  0  0  0  0  0
    7.5354  -14.6035   18.8991 C   0  0  0  0  0  0  0  0  0  0  0  0
    8.7447  -15.4000   19.2156 C   0  0  2  0  0  0  0  0  0  0  0  0
    9.0255  -16.4278   18.2311 N   0  0  0  0  0  0  0  0  0  0  0  0
    8.6799  -16.0570   20.5523 C   0  0  0  0  0  0  0  0  0  0  0  0
    7.7011  -15.8024   21.2790 O   0  0  0  0  0  0  0  0  0  0  0  0
   11.3904  -21.5795   21.5566 N   0  0  0  0  0  0  0  0  0  0  0  0
   10.1547  -21.2661   20.9469 C   0  0  0  0  0  0  0  0  0  0  0  0
    9.5174  -22.1067   20.2433 O   0  0  0  0  0  0  0  0  0  0  0  0
    9.5794  -19.9137   21.1316 C   0  0  0  0  0  0  0  0  0  0  0  0
   10.4268  -19.0499   22.0293 C   0  0  0  0  0  0  0  0  0  0  0  0
    9.8152  -17.6714   22.1806 C   0  0  2  0  0  0  0  0  0  0  0  0
    9.6994  -16.9326   20.9620 N   0  0  0  0  0  0  0  0  0  0  0  0
   10.2925  -16.9088   23.3253 C   0  0  0  0  0  0  0  0  0  0  0  0
   11.1148  -15.9485   23.2322 O   0  0  0  0  0  0  0  0  0  0  0  0
    9.8396  -17.2226   24.6334 N   0  0  0  0  0  0  0  0  0  0  0  0
   10.3113  -16.4343   25.7893 C   0  0  1  0  0  0  0  0  0  0  0  0
    9.9704  -14.9934   25.5214 C   0  0  0  0  0  0  0  0  0  0  0  0
    8.5392  -14.7307   25.7384 C   0  0  0  0  0  0  0  0  0  0  0  0
    7.5411  -15.6988   25.6442 C   0  0  0  0  0  0  0  0  0  0  0  0
    6.3757  -15.1447   25.9493 N   0  0  0  0  0  0  0  0  0  0  0  0
    6.5745  -13.8442   26.2400 C   0  0  0  0  0  0  0  0  0  0  0  0
    5.7005  -12.8516   26.5989 C   0  0  0  0  0  0  0  0  0  0  0  0
    6.1501  -11.5678   26.8352 C   0  0  0  0  0  0  0  0  0  0  0  0
    7.4833  -11.3003   26.7049 C   0  0  0  0  0  0  0  0  0  0  0  0
    8.3705  -12.2779   26.3479 C   0  0  0  0  0  0  0  0  0  0  0  0
    7.9313  -13.5753   26.1090 C   0  0  0  0  0  0  0  0  0  0  0  0
    9.7037  -17.0017   26.9825 C   0  0  0  0  0  0  0  0  0  0  0  0
    9.9691  -16.5261   28.1129 O   0  0  0  0  0  0  0  0  0  0  0  0
    8.8138  -18.0662   26.9743 O   0  0  0  0  0  0  0  0  0  0  0  0
  2  1  1  0
  3  2  2  0
  4  2  1  0
  5  4  1  0
  6  5  1  0
  6  7  1  6
  8  9  2  0
  8  6  1  0
 10 11  1  0
 11 12  2  0
 11 13  1  0
 13 14  1  0
 15 14  1  6
 15 16  1  0
 16  8  1  0
 17 15  1  0
 17 19  1  0
 18 17  2  0
 20 19  1  0
 20 31  1  0
 20 21  1  6
 22 21  1  0
 23 22  2  0
 24 23  1  0
 24 25  1  0
 25 30  2  0
 26 25  1  0
 26 27  2  0
 27 28  1  0
 28 29  2  0
 30 22  1  0
 30 29  1  0
 31 33  1  0
 32 31  2  0
M  END
$$$$
