QQW.pdb
     RDKit          3D

 33 34  0  0  1  0  0  0  0  0999 V2000
   11.6652  -19.6871   16.0331 N   0  0  0  0  0  0  0  0  0  0  0  0
   11.1274  -20.7518   16.8378 C   0  0  0  0  0  0  0  0  0  0  0  0
   11.1087  -21.9015   16.3448 O   0  0  0  0  0  0  0  0  0  0  0  0
   10.6505  -20.3914   18.1690 C   0  0  0  0  0  0  0  0  0  0  0  0
   10.7490  -18.9115   18.4095 C   0  0  0  0  0  0  0  0  0  0  0  0
   10.7298  -18.6030   19.8591 C   0  0  2  0  0  0  0  0  0  0  0  0
    9.5168  -19.0444   20.5211 N   0  0  0  0  0  0  0  0  0  0  0  0
   10.9042  -17.1515   20.1513 C   0  0  0  0  0  0  0  0  0  0  0  0
   11.9482  -16.5996   19.7555 O   0  0  0  0  0  0  0  0  0  0  0  0
    7.1704  -12.3801   18.9188 N   0  0  0  0  0  0  0  0  0  0  0  0
    7.6832  -13.6049   18.4350 C   0  0  0  0  0  0  0  0  0  0  0  0
    7.1584  -14.2160   17.4556 O   0  0  0  0  0  0  0  0  0  0  0  0
    8.8721  -14.1998   19.0884 C   0  0  0  0  0  0  0  0  0  0  0  0
    8.7177  -14.2880   20.5846 C   0  0  0  0  0  0  0  0  0  0  0  0
    9.8695  -15.0586   21.1982 C   0  0  2  0  0  0  0  0  0  0  0  0
    9.9120  -16.4451   20.8517 N   0  0  0  0  0  0  0  0  0  0  0  0
   10.1320  -14.7610   22.5990 C   0  0  0  0  0  0  0  0  0  0  0  0
   10.1172  -13.5881   23.0795 O   0  0  0  0  0  0  0  0  0  0  0  0
   10.4243  -15.8090   23.5107 N   0  0  0  0  0  0  0  0  0  0  0  0
    9.5843  -16.0037   24.7092 C   0  0  1  0  0  0  0  0  0  0  0  0
    8.1474  -15.9144   24.2716 C   0  0  0  0  0  0  0  0  0  0  0  0
    7.3588  -15.0734   25.1855 C   0  0  0  0  0  0  0  0  0  0  0  0
    6.2245  -15.5077   25.8688 C   0  0  0  0  0  0  0  0  0  0  0  0
    5.7879  -14.5247   26.6443 N   0  0  0  0  0  0  0  0  0  0  0  0
    6.5971  -13.4581   26.4926 C   0  0  0  0  0  0  0  0  0  0  0  0
    6.5668  -12.2096   27.0566 C   0  0  0  0  0  0  0  0  0  0  0  0
    7.5157  -11.2630   26.7253 C   0  0  0  0  0  0  0  0  0  0  0  0
    8.4882  -11.5900   25.8236 C   0  0  0  0  0  0  0  0  0  0  0  0
    8.5348  -12.8309   25.2505 C   0  0  0  0  0  0  0  0  0  0  0  0
    7.5865  -13.7940   25.5767 C   0  0  0  0  0  0  0  0  0  0  0  0
    9.9694  -17.2698   25.3119 C   0  0  0  0  0  0  0  0  0  0  0  0
    9.7045  -17.5018   26.5162 O   0  0  0  0  0  0  0  0  0  0  0  0
   10.6282  -18.2872   24.6367 O   0  0  0  0  0  0  0  0  0  0  0  0
  2  1  1  0
  3  2  2  0
  4  2  1  0
  5  4  1  0
  6  5  1  0
  6  7  1  6
  8  9  2  0
  8  6  1  0
 10 11  1  0
 11 12  2  0
 11 13  1  0
 13 14  1  0
 15 14  1  1
 15 16  1  0
 16  8  1  0
 17 15  1  0
 17 19  1  0
 18 17  2  0
 20 19  1  0
 20 31  1  0
 20 21  1  6
 22 21  1  0
 23 22  2  0
 24 23  1  0
 24 25  1  0
 25 30  2  0
 26 25  1  0
 26 27  2  0
 27 28  1  0
 28 29  2  0
 30 22  1  0
 30 29  1  0
 31 33  1  0
 32 31  2  0
M  END
$$$$
