QQW.pdb
     RDKit          3D

 33 34  0  0  1  0  0  0  0  0999 V2000
    8.6029  -12.4781   18.1323 N   0  0  0  0  0  0  0  0  0  0  0  0
    8.1653  -13.4134   17.1303 C   0  0  0  0  0  0  0  0  0  0  0  0
    8.2982  -13.0854   15.9303 O   0  0  0  0  0  0  0  0  0  0  0  0
    7.6030  -14.6722   17.6086 C   0  0  0  0  0  0  0  0  0  0  0  0
    7.5661  -14.7260   19.1097 C   0  0  0  0  0  0  0  0  0  0  0  0
    8.7829  -15.3763   19.6515 C   0  0  2  0  0  0  0  0  0  0  0  0
    9.5539  -16.0768   18.6419 N   0  0  0  0  0  0  0  0  0  0  0  0
    8.4916  -16.3405   20.7506 C   0  0  0  0  0  0  0  0  0  0  0  0
    7.7218  -17.2881   20.5047 O   0  0  0  0  0  0  0  0  0  0  0  0
   11.9860  -20.2913   21.3625 N   0  0  0  0  0  0  0  0  0  0  0  0
   11.6436  -20.3503   22.7324 C   0  0  0  0  0  0  0  0  0  0  0  0
   12.0487  -21.2836   23.4892 O   0  0  0  0  0  0  0  0  0  0  0  0
   10.7841  -19.2908   23.3094 C   0  0  0  0  0  0  0  0  0  0  0  0
   10.3857  -18.2582   22.2870 C   0  0  0  0  0  0  0  0  0  0  0  0
    9.5579  -17.1616   22.9267 C   0  0  2  0  0  0  0  0  0  0  0  0
    9.0759  -16.1696   22.0169 N   0  0  0  0  0  0  0  0  0  0  0  0
   10.0834  -16.6476   24.1834 C   0  0  0  0  0  0  0  0  0  0  0  0
   11.0733  -15.8591   24.2573 O   0  0  0  0  0  0  0  0  0  0  0  0
    9.4868  -17.0228   25.4155 N   0  0  0  0  0  0  0  0  0  0  0  0
    9.8800  -16.3433   26.6660 C   0  0  1  0  0  0  0  0  0  0  0  0
    8.6265  -16.1082   27.4645 C   0  0  0  0  0  0  0  0  0  0  0  0
    7.6902  -15.2284   26.7478 C   0  0  0  0  0  0  0  0  0  0  0  0
    6.5449  -15.6723   26.0895 C   0  0  0  0  0  0  0  0  0  0  0  0
    5.8996  -14.6240   25.5967 N   0  0  0  0  0  0  0  0  0  0  0  0
    6.5834  -13.5057   25.9083 C   0  0  0  0  0  0  0  0  0  0  0  0
    6.3427  -12.1869   25.6238 C   0  0  0  0  0  0  0  0  0  0  0  0
    7.2146  -11.2038   26.0472 C   0  0  0  0  0  0  0  0  0  0  0  0
    8.3248  -11.5659   26.7559 C   0  0  0  0  0  0  0  0  0  0  0  0
    8.5815  -12.8767   27.0497 C   0  0  0  0  0  0  0  0  0  0  0  0
    7.7107  -13.8765   26.6310 C   0  0  0  0  0  0  0  0  0  0  0  0
   10.8816  -17.1723   27.3176 C   0  0  0  0  0  0  0  0  0  0  0  0
   11.1825  -18.2921   26.8384 O   0  0  0  0  0  0  0  0  0  0  0  0
   11.5642  -16.8107   28.4701 O   0  0  0  0  0  0  0  0  0  0  0  0
  2  1  1  0
  3  2  2  0
  4  2  1  0
  5  4  1  0
  6  5  1  0
  6  7  1  6
  8  9  2  0
  8  6  1  0
 10 11  1  0
 11 12  2  0
 11 13  1  0
 13 14  1  0
 15 14  1  6
 15 16  1  0
 16  8  1  0
 17 15  1  0
 17 19  1  0
 18 17  2  0
 20 19  1  0
 20 31  1  0
 20 21  1  1
 22 21  1  0
 23 22  2  0
 24 23  1  0
 24 25  1  0
 25 30  2  0
 26 25  1  0
 26 27  2  0
 27 28  1  0
 28 29  2  0
 30 22  1  0
 30 29  1  0
 31 33  1  0
 32 31  2  0
M  END
$$$$
