QQW.pdb
     RDKit          3D

 33 34  0  0  1  0  0  0  0  0999 V2000
    7.0096  -12.3480   16.4100 N   0  0  0  0  0  0  0  0  0  0  0  0
    7.3096  -13.6518   16.9396 C   0  0  0  0  0  0  0  0  0  0  0  0
    6.5776  -14.6044   16.5903 O   0  0  0  0  0  0  0  0  0  0  0  0
    8.4521  -13.7463   17.8425 C   0  0  0  0  0  0  0  0  0  0  0  0
    8.0753  -14.3940   19.1448 C   0  0  0  0  0  0  0  0  0  0  0  0
    9.2104  -14.3787   20.0977 C   0  0  2  0  0  0  0  0  0  0  0  0
   10.4915  -14.6272   19.4642 N   0  0  0  0  0  0  0  0  0  0  0  0
    9.0553  -15.3602   21.2091 C   0  0  0  0  0  0  0  0  0  0  0  0
    8.0519  -15.2582   21.9397 O   0  0  0  0  0  0  0  0  0  0  0  0
   12.0471  -21.0164   21.6977 N   0  0  0  0  0  0  0  0  0  0  0  0
   11.5220  -20.8115   22.9936 C   0  0  0  0  0  0  0  0  0  0  0  0
   11.5788  -21.7034   23.8931 O   0  0  0  0  0  0  0  0  0  0  0  0
   10.8832  -19.5152   23.3186 C   0  0  0  0  0  0  0  0  0  0  0  0
   10.8667  -18.5751   22.1412 C   0  0  0  0  0  0  0  0  0  0  0  0
   10.1400  -17.2916   22.4897 C   0  0  2  0  0  0  0  0  0  0  0  0
   10.0202  -16.3614   21.4105 N   0  0  0  0  0  0  0  0  0  0  0  0
   10.5022  -16.7086   23.7737 C   0  0  0  0  0  0  0  0  0  0  0  0
   11.4027  -15.8273   23.9125 O   0  0  0  0  0  0  0  0  0  0  0  0
    9.8379  -17.1192   24.9590 N   0  0  0  0  0  0  0  0  0  0  0  0
   10.1777  -16.4940   26.2527 C   0  0  1  0  0  0  0  0  0  0  0  0
    9.9359  -15.0152   26.1159 C   0  0  0  0  0  0  0  0  0  0  0  0
    8.5139  -14.7232   25.8771 C   0  0  0  0  0  0  0  0  0  0  0  0
    7.5499  -15.6914   25.6025 C   0  0  0  0  0  0  0  0  0  0  0  0
    6.3676  -15.1010   25.4930 N   0  0  0  0  0  0  0  0  0  0  0  0
    6.5226  -13.7765   25.6857 C   0  0  0  0  0  0  0  0  0  0  0  0
    5.6202  -12.7455   25.6646 C   0  0  0  0  0  0  0  0  0  0  0  0
    6.0303  -11.4450   25.8803 C   0  0  0  0  0  0  0  0  0  0  0  0
    7.3534  -11.1999   26.1153 C   0  0  0  0  0  0  0  0  0  0  0  0
    8.2686  -12.2159   26.1405 C   0  0  0  0  0  0  0  0  0  0  0  0
    7.8687  -13.5302   25.9268 C   0  0  0  0  0  0  0  0  0  0  0  0
    9.3889  -17.1569   27.2790 C   0  0  0  0  0  0  0  0  0  0  0  0
    9.4652  -16.7818   28.4740 O   0  0  0  0  0  0  0  0  0  0  0  0
    8.5190  -18.2101   27.0360 O   0  0  0  0  0  0  0  0  0  0  0  0
  2  1  1  0
  3  2  2  0
  4  2  1  0
  5  4  1  0
  6  5  1  0
  6  7  1  6
  8  9  2  0
  8  6  1  0
 10 11  1  0
 11 12  2  0
 11 13  1  0
 13 14  1  0
 15 14  1  6
 15 16  1  0
 16  8  1  0
 17 15  1  0
 17 19  1  0
 18 17  2  0
 20 19  1  0
 20 31  1  0
 20 21  1  6
 22 21  1  0
 23 22  2  0
 24 23  1  0
 24 25  1  0
 25 30  2  0
 26 25  1  0
 26 27  2  0
 27 28  1  0
 28 29  2  0
 30 22  1  0
 30 29  1  0
 31 33  1  0
 32 31  2  0
M  END
$$$$
