QQW.pdb
     RDKit          3D

 33 34  0  0  1  0  0  0  0  0999 V2000
    7.8559  -12.3675   16.8307 N   0  0  0  0  0  0  0  0  0  0  0  0
    8.2702  -13.7384   16.6916 C   0  0  0  0  0  0  0  0  0  0  0  0
    8.2859  -14.2277   15.5402 O   0  0  0  0  0  0  0  0  0  0  0  0
    8.6401  -14.4395   17.9167 C   0  0  0  0  0  0  0  0  0  0  0  0
    8.5350  -13.5444   19.1189 C   0  0  0  0  0  0  0  0  0  0  0  0
    8.9237  -14.2627   20.3559 C   0  0  2  0  0  0  0  0  0  0  0  0
    9.6448  -15.4947   20.0984 N   0  0  0  0  0  0  0  0  0  0  0  0
    7.7629  -14.5904   21.2321 C   0  0  0  0  0  0  0  0  0  0  0  0
    6.6973  -13.9747   21.0409 O   0  0  0  0  0  0  0  0  0  0  0  0
    7.6584  -19.1982   18.6751 N   0  0  0  0  0  0  0  0  0  0  0  0
    6.9054  -19.7354   19.7435 C   0  0  0  0  0  0  0  0  0  0  0  0
    6.2878  -20.8385   19.6457 O   0  0  0  0  0  0  0  0  0  0  0  0
    6.8311  -18.9911   21.0221 C   0  0  0  0  0  0  0  0  0  0  0  0
    7.5046  -17.6458   20.9402 C   0  0  0  0  0  0  0  0  0  0  0  0
    7.3833  -16.9042   22.2564 C   0  0  2  0  0  0  0  0  0  0  0  0
    7.8856  -15.5657   22.2360 N   0  0  0  0  0  0  0  0  0  0  0  0
    7.7370  -17.6815   23.4355 C   0  0  0  0  0  0  0  0  0  0  0  0
    6.8895  -18.3061   24.1416 O   0  0  0  0  0  0  0  0  0  0  0  0
    9.0906  -17.7724   23.8532 N   0  0  0  0  0  0  0  0  0  0  0  0
    9.8011  -16.5689   24.3294 C   0  0  1  0  0  0  0  0  0  0  0  0
    8.9316  -15.3805   24.0199 C   0  0  0  0  0  0  0  0  0  0  0  0
    8.0694  -15.0341   25.1605 C   0  0  0  0  0  0  0  0  0  0  0  0
    7.5989  -15.9541   26.0956 C   0  0  0  0  0  0  0  0  0  0  0  0
    6.8972  -15.3086   27.0172 N   0  0  0  0  0  0  0  0  0  0  0  0
    6.8900  -13.9949   26.7183 C   0  0  0  0  0  0  0  0  0  0  0  0
    6.3032  -12.9260   27.3437 C   0  0  0  0  0  0  0  0  0  0  0  0
    6.4279  -11.6516   26.8274 C   0  0  0  0  0  0  0  0  0  0  0  0
    7.1467  -11.4710   25.6800 C   0  0  0  0  0  0  0  0  0  0  0  0
    7.7397  -12.5255   25.0421 C   0  0  0  0  0  0  0  0  0  0  0  0
    7.6236  -13.8136   25.5523 C   0  0  0  0  0  0  0  0  0  0  0  0
   10.0991  -16.7664   25.7390 C   0  0  0  0  0  0  0  0  0  0  0  0
   10.8556  -15.9673   26.3419 O   0  0  0  0  0  0  0  0  0  0  0  0
    9.5914  -17.8053   26.5059 O   0  0  0  0  0  0  0  0  0  0  0  0
  2  1  1  0
  3  2  2  0
  4  2  1  0
  5  4  1  0
  6  5  1  0
  6  7  1  6
  8  9  2  0
  8  6  1  0
 10 11  1  0
 11 12  2  0
 11 13  1  0
 13 14  1  0
 15 14  1  6
 15 16  1  0
 16  8  1  0
 17 15  1  0
 17 19  1  0
 18 17  2  0
 20 19  1  0
 20 31  1  0
 20 21  1  1
 22 21  1  0
 23 22  2  0
 24 23  1  0
 24 25  1  0
 25 30  2  0
 26 25  1  0
 26 27  2  0
 27 28  1  0
 28 29  2  0
 30 22  1  0
 30 29  1  0
 31 33  1  0
 32 31  2  0
M  END
$$$$
