QQW.pdb
     RDKit          3D

 33 34  0  0  1  0  0  0  0  0999 V2000
    8.4825  -12.5336   15.2551 N   0  0  0  0  0  0  0  0  0  0  0  0
    8.0764  -13.8834   14.9662 C   0  0  0  0  0  0  0  0  0  0  0  0
    8.6479  -14.4738   14.0227 O   0  0  0  0  0  0  0  0  0  0  0  0
    7.0271  -14.4475   15.8089 C   0  0  0  0  0  0  0  0  0  0  0  0
    7.4236  -14.4496   17.2582 C   0  0  0  0  0  0  0  0  0  0  0  0
    8.6810  -15.2061   17.4674 C   0  0  2  0  0  0  0  0  0  0  0  0
    8.9637  -16.1499   16.4027 N   0  0  0  0  0  0  0  0  0  0  0  0
    8.7066  -15.9544   18.7565 C   0  0  0  0  0  0  0  0  0  0  0  0
    7.6954  -15.8995   19.4814 O   0  0  0  0  0  0  0  0  0  0  0  0
   13.2096  -19.6797   22.8302 N   0  0  0  0  0  0  0  0  0  0  0  0
   12.5113  -19.9867   21.6406 C   0  0  0  0  0  0  0  0  0  0  0  0
   12.9929  -20.7562   20.7553 O   0  0  0  0  0  0  0  0  0  0  0  0
   11.1728  -19.3939   21.4141 C   0  0  0  0  0  0  0  0  0  0  0  0
   11.1311  -18.5321   20.1789 C   0  0  0  0  0  0  0  0  0  0  0  0
   10.0776  -17.4509   20.3145 C   0  0  2  0  0  0  0  0  0  0  0  0
    9.8437  -16.6926   19.1252 N   0  0  0  0  0  0  0  0  0  0  0  0
   10.1499  -16.6721   21.5425 C   0  0  0  0  0  0  0  0  0  0  0  0
   11.0385  -15.7955   21.7635 O   0  0  0  0  0  0  0  0  0  0  0  0
    9.1953  -16.8718   22.5739 N   0  0  0  0  0  0  0  0  0  0  0  0
    9.2374  -16.0401   23.7931 C   0  0  1  0  0  0  0  0  0  0  0  0
    7.8634  -15.4591   23.9899 C   0  0  0  0  0  0  0  0  0  0  0  0
    7.7237  -14.8494   25.3215 C   0  0  0  0  0  0  0  0  0  0  0  0
    7.8695  -15.5436   26.5210 C   0  0  0  0  0  0  0  0  0  0  0  0
    7.7341  -14.6923   27.5288 N   0  0  0  0  0  0  0  0  0  0  0  0
    7.5031  -13.4617   27.0313 C   0  0  0  0  0  0  0  0  0  0  0  0
    7.2859  -12.2591   27.6515 C   0  0  0  0  0  0  0  0  0  0  0  0
    7.0528  -11.1166   26.9123 C   0  0  0  0  0  0  0  0  0  0  0  0
    7.0411  -11.2026   25.5491 C   0  0  0  0  0  0  0  0  0  0  0  0
    7.2560  -12.3938   24.9125 C   0  0  0  0  0  0  0  0  0  0  0  0
    7.4939  -13.5515   25.6448 C   0  0  0  0  0  0  0  0  0  0  0  0
    9.7145  -16.8809   24.8795 C   0  0  0  0  0  0  0  0  0  0  0  0
    9.4910  -18.1154   24.8668 O   0  0  0  0  0  0  0  0  0  0  0  0
   10.4305  -16.4128   25.9720 O   0  0  0  0  0  0  0  0  0  0  0  0
  2  1  1  0
  3  2  2  0
  4  2  1  0
  5  4  1  0
  6  5  1  0
  6  7  1  6
  8  9  2  0
  8  6  1  0
 10 11  1  0
 11 12  2  0
 11 13  1  0
 13 14  1  0
 15 14  1  6
 15 16  1  0
 16  8  1  0
 17 15  1  0
 17 19  1  0
 18 17  2  0
 20 19  1  0
 20 31  1  0
 20 21  1  1
 22 21  1  0
 23 22  2  0
 24 23  1  0
 24 25  1  0
 25 30  2  0
 26 25  1  0
 26 27  2  0
 27 28  1  0
 28 29  2  0
 30 22  1  0
 30 29  1  0
 31 33  1  0
 32 31  2  0
M  END
$$$$
