SAT.pdb
     RDKit          3D

 19 18  0  0  1  0  0  0  0  0999 V2000
    8.3670  -17.0542   15.4860 O   0  0  0  0  0  0  0  0  0  0  0  0
    7.3745  -16.0756   15.3968 C   0  0  0  0  0  0  0  0  0  0  0  0
    8.0833  -14.7397   15.2633 C   0  0  2  0  0  0  0  0  0  0  0  0
    9.0296  -14.8564   14.1890 N   0  0  0  0  0  0  0  0  0  0  0  0
    8.7829  -14.4782   16.5723 C   0  0  0  0  0  0  0  0  0  0  0  0
   10.0041  -14.7556   16.6873 O   0  0  0  0  0  0  0  0  0  0  0  0
    7.7704  -12.8552   19.7749 C   0  0  0  0  0  0  0  0  0  0  0  0
    8.7608  -13.5961   18.8687 C   0  0  2  0  0  0  0  0  0  0  0  0
    8.0649  -13.9241   17.6617 N   0  0  0  0  0  0  0  0  0  0  0  0
    9.2709  -14.7888   19.5840 C   0  0  0  0  0  0  0  0  0  0  0  0
    8.6516  -15.8888   19.5731 O   0  0  0  0  0  0  0  0  0  0  0  0
   12.8372  -16.2400   19.3355 C   0  0  0  0  0  0  0  0  0  0  0  0
   12.4926  -16.0178   20.7684 C   0  0  1  0  0  0  0  0  0  0  0  0
   13.1298  -14.8552   21.2092 O   0  0  0  0  0  0  0  0  0  0  0  0
   11.0097  -15.8482   21.0034 C   0  0  2  0  0  0  0  0  0  0  0  0
   10.4763  -14.7073   20.2983 N   0  0  0  0  0  0  0  0  0  0  0  0
   10.7418  -15.7238   22.4568 C   0  0  0  0  0  0  0  0  0  0  0  0
   11.0294  -16.7376   23.3388 O   0  0  0  0  0  0  0  0  0  0  0  0
   10.2372  -14.6555   22.8795 O   0  0  0  0  0  0  0  0  0  0  0  0
  2  1  1  0
  3  2  1  0
  3  4  1  6
  5  6  2  0
  5  3  1  0
  8  7  1  1
  8  9  1  0
  9  5  1  0
 10  8  1  0
 10 11  2  0
 13 12  1  6
 13 14  1  0
 15 16  1  6
 15 13  1  0
 16 10  1  0
 17 15  1  0
 18 17  1  0
 19 17  2  0
M  END
$$$$
