SAT.pdb
     RDKit          3D

 19 18  0  0  1  0  0  0  0  0999 V2000
   11.2414  -16.1104   20.2213 O   0  0  0  0  0  0  0  0  0  0  0  0
   10.5342  -17.2763   19.9196 C   0  0  0  0  0  0  0  0  0  0  0  0
    9.1685  -16.8457   19.4154 C   0  0  2  0  0  0  0  0  0  0  0  0
    9.3716  -15.7955   18.4566 N   0  0  0  0  0  0  0  0  0  0  0  0
    8.3953  -16.3450   20.6082 C   0  0  0  0  0  0  0  0  0  0  0  0
    8.2582  -15.1069   20.7812 O   0  0  0  0  0  0  0  0  0  0  0  0
    6.3259  -17.9954   23.2283 C   0  0  0  0  0  0  0  0  0  0  0  0
    7.0243  -16.7816   22.6036 C   0  0  2  0  0  0  0  0  0  0  0  0
    7.8294  -17.2669   21.5243 N   0  0  0  0  0  0  0  0  0  0  0  0
    7.8142  -16.0886   23.6477 C   0  0  0  0  0  0  0  0  0  0  0  0
    9.0679  -16.2129   23.7282 O   0  0  0  0  0  0  0  0  0  0  0  0
    6.9906  -12.2385   25.1506 C   0  0  0  0  0  0  0  0  0  0  0  0
    7.1139  -13.3625   26.1214 C   0  0  1  0  0  0  0  0  0  0  0  0
    5.8341  -13.8224   26.4419 O   0  0  0  0  0  0  0  0  0  0  0  0
    7.9017  -14.5322   25.5791 C   0  0  2  0  0  0  0  0  0  0  0  0
    7.1626  -15.2671   24.5807 N   0  0  0  0  0  0  0  0  0  0  0  0
    8.2958  -15.4317   26.6905 C   0  0  0  0  0  0  0  0  0  0  0  0
    9.1680  -15.0328   27.6747 O   0  0  0  0  0  0  0  0  0  0  0  0
    7.8108  -16.5885   26.7202 O   0  0  0  0  0  0  0  0  0  0  0  0
  2  1  1  0
  3  2  1  0
  3  4  1  6
  5  6  2  0
  5  3  1  0
  8  7  1  1
  8  9  1  0
  9  5  1  0
 10  8  1  0
 10 11  2  0
 13 12  1  6
 13 14  1  0
 15 16  1  6
 15 13  1  0
 16 10  1  0
 17 15  1  0
 18 17  1  0
 19 17  2  0
M  END
$$$$
