SAT.pdb
     RDKit          3D

 19 18  0  0  1  0  0  0  0  0999 V2000
    7.8973  -18.1646   17.2724 O   0  0  0  0  0  0  0  0  0  0  0  0
    6.9302  -17.2730   16.8031 C   0  0  0  0  0  0  0  0  0  0  0  0
    7.6628  -16.0162   16.3689 C   0  0  2  0  0  0  0  0  0  0  0  0
    8.6034  -16.3926   15.3506 N   0  0  0  0  0  0  0  0  0  0  0  0
    8.3711  -15.4758   17.5845 C   0  0  0  0  0  0  0  0  0  0  0  0
    9.5421  -15.8575   17.8387 O   0  0  0  0  0  0  0  0  0  0  0  0
    7.4856  -13.0033   20.2373 C   0  0  0  0  0  0  0  0  0  0  0  0
    8.3892  -14.0658   19.6003 C   0  0  2  0  0  0  0  0  0  0  0  0
    7.7177  -14.5451   18.4307 N   0  0  0  0  0  0  0  0  0  0  0  0
    8.6537  -15.1331   20.5930 C   0  0  0  0  0  0  0  0  0  0  0  0
    7.8653  -16.1061   20.7525 O   0  0  0  0  0  0  0  0  0  0  0  0
   11.9246  -17.2544   23.6370 C   0  0  0  0  0  0  0  0  0  0  0  0
   11.5899  -16.2059   22.6321 C   0  0  1  0  0  0  0  0  0  0  0  0
   12.2241  -16.5189   21.4271 O   0  0  0  0  0  0  0  0  0  0  0  0
   10.1080  -16.0969   22.3583 C   0  0  2  0  0  0  0  0  0  0  0  0
    9.8104  -15.0730   21.3856 N   0  0  0  0  0  0  0  0  0  0  0  0
    9.3812  -15.8291   23.6231 C   0  0  0  0  0  0  0  0  0  0  0  0
    8.9851  -16.8423   24.4629 O   0  0  0  0  0  0  0  0  0  0  0  0
    9.1272  -14.6374   23.9226 O   0  0  0  0  0  0  0  0  0  0  0  0
  2  1  1  0
  3  2  1  0
  3  4  1  6
  5  6  2  0
  5  3  1  0
  8  7  1  1
  8  9  1  0
  9  5  1  0
 10  8  1  0
 10 11  2  0
 13 12  1  1
 13 14  1  0
 15 16  1  6
 15 13  1  0
 16 10  1  0
 17 15  1  0
 18 17  1  0
 19 17  2  0
M  END
$$$$
