SAT.pdb
     RDKit          3D

 19 18  0  0  1  0  0  0  0  0999 V2000
    9.5062  -14.4040   20.1414 O   0  0  0  0  0  0  0  0  0  0  0  0
    9.3683  -15.7786   20.3461 C   0  0  0  0  0  0  0  0  0  0  0  0
    7.8817  -16.0840   20.3026 C   0  0  2  0  0  0  0  0  0  0  0  0
    7.2862  -15.2027   19.3372 N   0  0  0  0  0  0  0  0  0  0  0  0
    7.3363  -15.8202   21.6825 C   0  0  0  0  0  0  0  0  0  0  0  0
    6.6615  -14.7799   21.8925 O   0  0  0  0  0  0  0  0  0  0  0  0
    7.1877  -17.7828   24.8410 C   0  0  0  0  0  0  0  0  0  0  0  0
    7.0436  -16.4883   24.0319 C   0  0  2  0  0  0  0  0  0  0  0  0
    7.5850  -16.7408   22.7313 N   0  0  0  0  0  0  0  0  0  0  0  0
    7.7404  -15.3928   24.7453 C   0  0  0  0  0  0  0  0  0  0  0  0
    8.9401  -15.0904   24.4943 O   0  0  0  0  0  0  0  0  0  0  0  0
    6.2724  -11.6599   25.7387 C   0  0  0  0  0  0  0  0  0  0  0  0
    6.7228  -12.5190   26.8702 C   0  0  1  0  0  0  0  0  0  0  0  0
    5.6084  -13.1551   27.4233 O   0  0  0  0  0  0  0  0  0  0  0  0
    7.7031  -13.5892   26.4500 C   0  0  2  0  0  0  0  0  0  0  0  0
    7.0588  -14.6620   25.7308 N   0  0  0  0  0  0  0  0  0  0  0  0
    8.4080  -14.1215   27.6413 C   0  0  0  0  0  0  0  0  0  0  0  0
    8.3288  -15.4451   28.0023 O   0  0  0  0  0  0  0  0  0  0  0  0
    9.0934  -13.3283   28.3308 O   0  0  0  0  0  0  0  0  0  0  0  0
  2  1  1  0
  3  2  1  0
  3  4  1  6
  5  6  2  0
  5  3  1  0
  8  7  1  1
  8  9  1  0
  9  5  1  0
 10  8  1  0
 10 11  2  0
 13 12  1  6
 13 14  1  0
 15 16  1  1
 15 13  1  0
 16 10  1  0
 17 15  1  0
 18 17  1  0
 19 17  2  0
M  END
$$$$
