SAT.pdb
     RDKit          3D

 19 18  0  0  1  0  0  0  0  0999 V2000
    7.9573  -12.9889   17.9696 O   0  0  0  0  0  0  0  0  0  0  0  0
    9.1936  -13.3441   17.4256 C   0  0  0  0  0  0  0  0  0  0  0  0
    9.0922  -14.8023   17.0154 C   0  0  2  0  0  0  0  0  0  0  0  0
    7.8924  -14.9521   16.2398 N   0  0  0  0  0  0  0  0  0  0  0  0
    9.0196  -15.6137   18.2833 C   0  0  0  0  0  0  0  0  0  0  0  0
    7.8961  -15.9149   18.7615 O   0  0  0  0  0  0  0  0  0  0  0  0
   11.3488  -17.6983   20.2006 C   0  0  0  0  0  0  0  0  0  0  0  0
   10.1283  -16.7715   20.1493 C   0  0  2  0  0  0  0  0  0  0  0  0
   10.2114  -16.0310   18.9273 N   0  0  0  0  0  0  0  0  0  0  0  0
   10.1288  -15.9052   21.3511 C   0  0  0  0  0  0  0  0  0  0  0  0
   10.8960  -14.9080   21.4543 O   0  0  0  0  0  0  0  0  0  0  0  0
    7.5256  -13.7010   22.9112 C   0  0  0  0  0  0  0  0  0  0  0  0
    7.8833  -14.7813   23.8736 C   0  0  1  0  0  0  0  0  0  0  0  0
    6.9364  -15.8039   23.7742 O   0  0  0  0  0  0  0  0  0  0  0  0
    9.2432  -15.3850   23.6106 C   0  0  2  0  0  0  0  0  0  0  0  0
    9.2562  -16.1902   22.4128 N   0  0  0  0  0  0  0  0  0  0  0  0
    9.6680  -16.1955   24.7777 C   0  0  0  0  0  0  0  0  0  0  0  0
    9.9209  -15.6284   26.0037 O   0  0  0  0  0  0  0  0  0  0  0  0
    9.7963  -17.4345   24.6267 O   0  0  0  0  0  0  0  0  0  0  0  0
  2  1  1  0
  3  2  1  0
  3  4  1  6
  5  6  2  0
  5  3  1  0
  8  7  1  1
  8  9  1  0
  9  5  1  0
 10  8  1  0
 10 11  2  0
 13 12  1  6
 13 14  1  0
 15 16  1  6
 15 13  1  0
 16 10  1  0
 17 15  1  0
 18 17  1  0
 19 17  2  0
M  END
$$$$
