SAT.pdb
     RDKit          3D

 19 18  0  0  1  0  0  0  0  0999 V2000
   10.4774  -15.5766   18.6606 O   0  0  0  0  0  0  0  0  0  0  0  0
    9.4790  -15.1966   19.5602 C   0  0  0  0  0  0  0  0  0  0  0  0
    8.6961  -16.4507   19.9056 C   0  0  2  0  0  0  0  0  0  0  0  0
    7.7521  -16.6777   18.8470 N   0  0  0  0  0  0  0  0  0  0  0  0
    7.9901  -16.1851   21.2103 C   0  0  0  0  0  0  0  0  0  0  0  0
    6.8732  -15.6071   21.2028 O   0  0  0  0  0  0  0  0  0  0  0  0
    7.9629  -17.7681   24.4103 C   0  0  0  0  0  0  0  0  0  0  0  0
    7.8516  -16.4393   23.6532 C   0  0  2  0  0  0  0  0  0  0  0  0
    8.5850  -16.5859   22.4329 N   0  0  0  0  0  0  0  0  0  0  0  0
    8.3704  -15.3493   24.5119 C   0  0  0  0  0  0  0  0  0  0  0  0
    9.5891  -15.0197   24.5082 O   0  0  0  0  0  0  0  0  0  0  0  0
    6.4268  -11.7325   25.4822 C   0  0  0  0  0  0  0  0  0  0  0  0
    6.8396  -12.6398   26.5903 C   0  0  1  0  0  0  0  0  0  0  0  0
    5.7412  -13.4158   26.9690 O   0  0  0  0  0  0  0  0  0  0  0  0
    7.9569  -13.5803   26.2030 C   0  0  2  0  0  0  0  0  0  0  0  0
    7.4926  -14.6549   25.3587 N   0  0  0  0  0  0  0  0  0  0  0  0
    8.5992  -14.1276   27.4227 C   0  0  0  0  0  0  0  0  0  0  0  0
    9.2546  -13.3225   28.3233 O   0  0  0  0  0  0  0  0  0  0  0  0
    8.5343  -15.3641   27.6255 O   0  0  0  0  0  0  0  0  0  0  0  0
  2  1  1  0
  3  2  1  0
  3  4  1  6
  5  6  2  0
  5  3  1  0
  8  7  1  1
  8  9  1  0
  9  5  1  0
 10  8  1  0
 10 11  2  0
 13 12  1  6
 13 14  1  0
 15 16  1  6
 15 13  1  0
 16 10  1  0
 17 15  1  0
 18 17  1  0
 19 17  2  0
M  END
$$$$
