SAT.pdb
     RDKit          3D

 19 18  0  0  1  0  0  0  0  0999 V2000
    8.5748  -16.2250   18.0105 O   0  0  0  0  0  0  0  0  0  0  0  0
    7.8141  -16.0013   19.1602 C   0  0  0  0  0  0  0  0  0  0  0  0
    8.7753  -16.0196   20.3353 C   0  0  2  0  0  0  0  0  0  0  0  0
    9.4030  -17.3113   20.3618 N   0  0  0  0  0  0  0  0  0  0  0  0
    7.9558  -15.7924   21.5795 C   0  0  0  0  0  0  0  0  0  0  0  0
    7.2779  -14.7388   21.6899 O   0  0  0  0  0  0  0  0  0  0  0  0
    7.2682  -17.7649   24.6678 C   0  0  0  0  0  0  0  0  0  0  0  0
    7.3005  -16.4665   23.8528 C   0  0  2  0  0  0  0  0  0  0  0  0
    7.9530  -16.7618   22.6136 N   0  0  0  0  0  0  0  0  0  0  0  0
    7.9969  -15.4208   24.6377 C   0  0  0  0  0  0  0  0  0  0  0  0
    9.2392  -15.2233   24.5316 O   0  0  0  0  0  0  0  0  0  0  0  0
    6.5866  -11.5897   25.5269 C   0  0  0  0  0  0  0  0  0  0  0  0
    6.9381  -12.4769   26.6716 C   0  0  1  0  0  0  0  0  0  0  0  0
    5.7712  -13.0791   27.1488 O   0  0  0  0  0  0  0  0  0  0  0  0
    7.9040  -13.5765   26.2962 C   0  0  2  0  0  0  0  0  0  0  0  0
    7.2663  -14.6193   25.5287 N   0  0  0  0  0  0  0  0  0  0  0  0
    8.5200  -14.1445   27.5200 C   0  0  0  0  0  0  0  0  0  0  0  0
    9.2697  -13.3781   28.3798 O   0  0  0  0  0  0  0  0  0  0  0  0
    8.3430  -15.3622   27.7650 O   0  0  0  0  0  0  0  0  0  0  0  0
  2  1  1  0
  3  2  1  0
  3  4  1  1
  5  6  2  0
  5  3  1  0
  8  7  1  1
  8  9  1  0
  9  5  1  0
 10  8  1  0
 10 11  2  0
 13 12  1  6
 13 14  1  0
 15 16  1  1
 15 13  1  0
 16 10  1  0
 17 15  1  0
 18 17  1  0
 19 17  2  0
M  END
$$$$
