SAT.pdb
     RDKit          3D

 19 18  0  0  1  0  0  0  0  0999 V2000
   12.3121  -16.8543   21.5060 O   0  0  0  0  0  0  0  0  0  0  0  0
   11.5641  -18.0330   21.5472 C   0  0  0  0  0  0  0  0  0  0  0  0
   10.1183  -17.6469   21.2915 C   0  0  2  0  0  0  0  0  0  0  0  0
   10.1188  -16.5698   20.3412 N   0  0  0  0  0  0  0  0  0  0  0  0
    9.5402  -17.2024   22.6104 C   0  0  0  0  0  0  0  0  0  0  0  0
    9.3142  -15.9809   22.8065 O   0  0  0  0  0  0  0  0  0  0  0  0
    8.1054  -18.9913   25.5357 C   0  0  0  0  0  0  0  0  0  0  0  0
    8.6306  -17.7334   24.8336 C   0  0  2  0  0  0  0  0  0  0  0  0
    9.2554  -18.1580   23.6179 N   0  0  0  0  0  0  0  0  0  0  0  0
    9.5598  -17.0245   25.7439 C   0  0  0  0  0  0  0  0  0  0  0  0
   10.8123  -17.1529   25.6512 O   0  0  0  0  0  0  0  0  0  0  0  0
   10.1107  -13.3123   28.9618 C   0  0  0  0  0  0  0  0  0  0  0  0
    9.2259  -14.1590   28.1124 C   0  0  1  0  0  0  0  0  0  0  0  0
    8.7966  -13.4041   27.0179 O   0  0  0  0  0  0  0  0  0  0  0  0
    9.9172  -15.3922   27.5793 C   0  0  2  0  0  0  0  0  0  0  0  0
    9.0463  -16.1827   26.7427 N   0  0  0  0  0  0  0  0  0  0  0  0
   10.4264  -16.2104   28.7066 C   0  0  0  0  0  0  0  0  0  0  0  0
   11.5468  -15.8523   29.4173 O   0  0  0  0  0  0  0  0  0  0  0  0
    9.8059  -17.2581   29.0093 O   0  0  0  0  0  0  0  0  0  0  0  0
  2  1  1  0
  3  2  1  0
  3  4  1  6
  5  6  2  0
  5  3  1  0
  8  7  1  1
  8  9  1  0
  9  5  1  0
 10  8  1  0
 10 11  2  0
 13 12  1  6
 13 14  1  0
 15 16  1  1
 15 13  1  0
 16 10  1  0
 17 15  1  0
 18 17  1  0
 19 17  2  0
M  END
$$$$
