SAT.pdb
     RDKit          3D

 19 18  0  0  1  0  0  0  0  0999 V2000
    8.6533  -12.5818   16.8691 O   0  0  0  0  0  0  0  0  0  0  0  0
    9.3187  -13.5614   17.6095 C   0  0  0  0  0  0  0  0  0  0  0  0
    8.4941  -14.8315   17.5018 C   0  0  2  0  0  0  0  0  0  0  0  0
    7.1928  -14.4638   17.0175 N   0  0  0  0  0  0  0  0  0  0  0  0
    8.4079  -15.4207   18.8862 C   0  0  0  0  0  0  0  0  0  0  0  0
    7.5194  -15.0132   19.6776 O   0  0  0  0  0  0  0  0  0  0  0  0
   10.1222  -18.2466   20.6070 C   0  0  0  0  0  0  0  0  0  0  0  0
    9.1718  -17.0438   20.5695 C   0  0  2  0  0  0  0  0  0  0  0  0
    9.3234  -16.4256   19.2876 N   0  0  0  0  0  0  0  0  0  0  0  0
    9.4993  -16.1343   21.6921 C   0  0  0  0  0  0  0  0  0  0  0  0
   10.3930  -15.2481   21.5938 O   0  0  0  0  0  0  0  0  0  0  0  0
    6.6297  -15.1046   24.6031 C   0  0  0  0  0  0  0  0  0  0  0  0
    7.8904  -14.4025   24.2302 C   0  0  1  0  0  0  0  0  0  0  0  0
    8.2446  -13.5339   25.2657 O   0  0  0  0  0  0  0  0  0  0  0  0
    9.0496  -15.3442   24.0016 C   0  0  2  0  0  0  0  0  0  0  0  0
    8.8036  -16.2504   22.9055 N   0  0  0  0  0  0  0  0  0  0  0  0
    9.3315  -16.1056   25.2428 C   0  0  0  0  0  0  0  0  0  0  0  0
    9.1415  -17.4644   25.3215 O   0  0  0  0  0  0  0  0  0  0  0  0
    9.7556  -15.4774   26.2427 O   0  0  0  0  0  0  0  0  0  0  0  0
  2  1  1  0
  3  2  1  0
  3  4  1  1
  5  6  2  0
  5  3  1  0
  8  7  1  6
  8  9  1  0
  9  5  1  0
 10  8  1  0
 10 11  2  0
 13 12  1  1
 13 14  1  0
 15 16  1  6
 15 13  1  0
 16 10  1  0
 17 15  1  0
 18 17  1  0
 19 17  2  0
M  END
$$$$
