TKK.pdb
     RDKit          3D

 26 25  0  0  1  0  0  0  0  0999 V2000
    8.2066  -20.1387   18.9407 C   0  0  0  0  0  0  0  0  0  0  0  0
    7.0468  -19.2998   18.4475 C   0  0  1  0  0  0  0  0  0  0  0  0
    7.0551  -19.3212   17.0603 O   0  0  0  0  0  0  0  0  0  0  0  0
    5.7851  -19.8932   19.0237 C   0  0  2  0  0  0  0  0  0  0  0  0
    4.5873  -19.3687   18.4344 N   0  0  0  0  0  0  0  0  0  0  0  0
    5.7060  -19.8060   20.4809 C   0  0  0  0  0  0  0  0  0  0  0  0
    5.4774  -18.6859   21.0049 O   0  0  0  0  0  0  0  0  0  0  0  0
    5.8698  -20.9044   21.3666 N   0  0  0  0  0  0  0  0  0  0  0  0
    5.8050  -20.8161   22.8110 C   0  0  1  0  0  0  0  0  0  0  0  0
    5.1839  -22.0441   23.4262 C   0  0  0  0  0  0  0  0  0  0  0  0
    3.7775  -22.2757   23.0433 C   0  0  0  0  0  0  0  0  0  0  0  0
    3.1074  -23.4515   23.6450 C   0  0  0  0  0  0  0  0  0  0  0  0
    1.6890  -23.6569   23.1637 C   0  0  0  0  0  0  0  0  0  0  0  0
    1.1480  -24.7627   23.9660 N   0  0  0  0  0  0  0  0  0  0  0  0
    7.1561  -20.5474   23.3931 C   0  0  0  0  0  0  0  0  0  0  0  0
    8.1349  -21.2788   23.0410 O   0  0  0  0  0  0  0  0  0  0  0  0
    7.4113  -19.5209   24.3187 N   0  0  0  0  0  0  0  0  0  0  0  0
    8.7391  -19.2718   24.8989 C   0  0  1  0  0  0  0  0  0  0  0  0
    9.2076  -17.8968   24.5644 C   0  0  0  0  0  0  0  0  0  0  0  0
    9.7633  -17.8385   23.1762 C   0  0  0  0  0  0  0  0  0  0  0  0
    9.9748  -16.4082   22.7040 C   0  0  0  0  0  0  0  0  0  0  0  0
   10.5472  -16.3610   21.3172 C   0  0  0  0  0  0  0  0  0  0  0  0
   10.6333  -14.9385   20.9558 N   0  0  0  0  0  0  0  0  0  0  0  0
    8.7464  -19.5464   26.3339 C   0  0  0  0  0  0  0  0  0  0  0  0
    7.6896  -19.8369   27.1467 O   0  0  0  0  0  0  0  0  0  0  0  0
    9.8985  -19.5066   26.9070 O   0  0  0  0  0  0  0  0  0  0  0  0
  2  1  1  1
  2  4  1  0
  2  3  1  0
  4  5  1  6
  6  4  1  0
  7  6  2  0
  8  6  1  0
  9  8  1  0
  9 10  1  1
 10 11  1  0
 11 12  1  0
 12 13  1  0
 13 14  1  0
 15  9  1  0
 16 15  2  0
 17 15  1  0
 18 24  1  0
 18 17  1  0
 18 19  1  1
 20 19  1  0
 21 22  1  0
 21 20  1  0
 23 22  1  0
 24 25  1  0
 26 24  2  0
M  END
$$$$
