TKK.pdb
     RDKit          3D

 26 25  0  0  1  0  0  0  0  0999 V2000
   10.7619  -13.6259   19.9523 C   0  0  0  0  0  0  0  0  0  0  0  0
    9.5699  -12.9521   19.3063 C   0  0  1  0  0  0  0  0  0  0  0  0
    9.9977  -12.3438   18.1350 O   0  0  0  0  0  0  0  0  0  0  0  0
    8.5322  -14.0177   19.0546 C   0  0  2  0  0  0  0  0  0  0  0  0
    7.4133  -13.5542   18.2864 N   0  0  0  0  0  0  0  0  0  0  0  0
    8.0644  -14.6824   20.2698 C   0  0  0  0  0  0  0  0  0  0  0  0
    7.2604  -14.0705   21.0185 O   0  0  0  0  0  0  0  0  0  0  0  0
    8.4528  -15.9861   20.6789 N   0  0  0  0  0  0  0  0  0  0  0  0
    7.9505  -16.6652   21.8556 C   0  0  1  0  0  0  0  0  0  0  0  0
    8.0702  -18.1634   21.7391 C   0  0  0  0  0  0  0  0  0  0  0  0
    7.0376  -18.7959   20.8952 C   0  0  0  0  0  0  0  0  0  0  0  0
    7.1158  -20.2663   20.7354 C   0  0  0  0  0  0  0  0  0  0  0  0
    6.0818  -20.8319   19.7885 C   0  0  0  0  0  0  0  0  0  0  0  0
    6.3865  -22.2645   19.6691 N   0  0  0  0  0  0  0  0  0  0  0  0
    8.6264  -16.1660   23.0926 C   0  0  0  0  0  0  0  0  0  0  0  0
    9.8876  -16.0041   23.0826 O   0  0  0  0  0  0  0  0  0  0  0  0
    7.9412  -15.8616   24.2814 N   0  0  0  0  0  0  0  0  0  0  0  0
    8.6069  -15.3362   25.4826 C   0  0  1  0  0  0  0  0  0  0  0  0
    7.6463  -14.5591   26.3165 C   0  0  0  0  0  0  0  0  0  0  0  0
    7.4770  -13.1684   25.7907 C   0  0  0  0  0  0  0  0  0  0  0  0
    6.4682  -12.3690   26.6011 C   0  0  0  0  0  0  0  0  0  0  0  0
    6.3753  -10.9485   26.1250 C   0  0  0  0  0  0  0  0  0  0  0  0
    5.3633  -10.2969   26.9693 N   0  0  0  0  0  0  0  0  0  0  0  0
    9.2756  -16.4035   26.2230 C   0  0  0  0  0  0  0  0  0  0  0  0
   10.2778  -16.2977   27.1429 O   0  0  0  0  0  0  0  0  0  0  0  0
    8.8689  -17.5993   25.9738 O   0  0  0  0  0  0  0  0  0  0  0  0
  2  1  1  6
  2  4  1  0
  2  3  1  0
  4  5  1  1
  6  4  1  0
  7  6  2  0
  8  6  1  0
  9  8  1  0
  9 10  1  6
 10 11  1  0
 11 12  1  0
 12 13  1  0
 13 14  1  0
 15  9  1  0
 16 15  2  0
 17 15  1  0
 18 24  1  0
 18 17  1  0
 18 19  1  1
 20 19  1  0
 21 22  1  0
 21 20  1  0
 23 22  1  0
 24 25  1  0
 26 24  2  0
M  END
$$$$
