TKK.pdb
     RDKit          3D

 26 25  0  0  1  0  0  0  0  0999 V2000
    6.6737  -18.2079   18.2963 C   0  0  0  0  0  0  0  0  0  0  0  0
    7.2653  -17.7814   19.6230 C   0  0  1  0  0  0  0  0  0  0  0  0
    8.1962  -18.7349   20.0094 O   0  0  0  0  0  0  0  0  0  0  0  0
    7.8857  -16.4209   19.4228 C   0  0  2  0  0  0  0  0  0  0  0  0
    8.8664  -16.3895   18.3767 N   0  0  0  0  0  0  0  0  0  0  0  0
    8.4388  -15.8407   20.6453 C   0  0  0  0  0  0  0  0  0  0  0  0
    9.6754  -15.9386   20.8515 O   0  0  0  0  0  0  0  0  0  0  0  0
    7.6774  -15.1640   21.6354 N   0  0  0  0  0  0  0  0  0  0  0  0
    8.2036  -14.6887   22.8986 C   0  0  1  0  0  0  0  0  0  0  0  0
    7.2179  -13.8128   23.6289 C   0  0  0  0  0  0  0  0  0  0  0  0
    7.7100  -13.2764   24.9129 C   0  0  0  0  0  0  0  0  0  0  0  0
    6.7572  -12.4664   25.7064 C   0  0  0  0  0  0  0  0  0  0  0  0
    7.3557  -11.8823   26.9658 C   0  0  0  0  0  0  0  0  0  0  0  0
    6.3161  -11.0182   27.5420 N   0  0  0  0  0  0  0  0  0  0  0  0
    8.6493  -15.8291   23.7572 C   0  0  0  0  0  0  0  0  0  0  0  0
    7.8545  -16.8031   23.9488 O   0  0  0  0  0  0  0  0  0  0  0  0
    9.9111  -15.8886   24.3734 N   0  0  0  0  0  0  0  0  0  0  0  0
   10.4146  -17.0856   25.0631 C   0  0  1  0  0  0  0  0  0  0  0  0
   11.8056  -17.3959   24.6262 C   0  0  0  0  0  0  0  0  0  0  0  0
   12.3406  -18.5972   25.3404 C   0  0  0  0  0  0  0  0  0  0  0  0
   13.7622  -18.9304   24.9143 C   0  0  0  0  0  0  0  0  0  0  0  0
   14.2968  -20.1234   25.6518 C   0  0  0  0  0  0  0  0  0  0  0  0
   15.5884  -20.4475   25.0286 N   0  0  0  0  0  0  0  0  0  0  0  0
   10.2857  -16.9513   26.5122 C   0  0  0  0  0  0  0  0  0  0  0  0
   10.3465  -17.9283   27.4628 O   0  0  0  0  0  0  0  0  0  0  0  0
   10.0860  -15.7569   26.9495 O   0  0  0  0  0  0  0  0  0  0  0  0
  2  1  1  6
  2  4  1  0
  2  3  1  0
  4  5  1  6
  6  4  1  0
  7  6  2  0
  8  6  1  0
  9  8  1  0
  9 10  1  1
 10 11  1  0
 11 12  1  0
 12 13  1  0
 13 14  1  0
 15  9  1  0
 16 15  2  0
 17 15  1  0
 18 24  1  0
 18 17  1  0
 18 19  1  1
 20 19  1  0
 21 22  1  0
 21 20  1  0
 23 22  1  0
 24 25  1  0
 26 24  2  0
M  END
$$$$
