TKK.pdb
     RDKit          3D

 26 25  0  0  1  0  0  0  0  0999 V2000
    8.5745  -18.5366   17.7347 C   0  0  0  0  0  0  0  0  0  0  0  0
    7.6315  -19.6307   18.1884 C   0  0  1  0  0  0  0  0  0  0  0  0
    8.3925  -20.6995   18.6396 O   0  0  0  0  0  0  0  0  0  0  0  0
    6.7567  -19.0504   19.2717 C   0  0  2  0  0  0  0  0  0  0  0  0
    5.9237  -17.9749   18.8173 N   0  0  0  0  0  0  0  0  0  0  0  0
    7.4928  -18.6429   20.4673 C   0  0  0  0  0  0  0  0  0  0  0  0
    8.3950  -17.7747   20.3513 O   0  0  0  0  0  0  0  0  0  0  0  0
    7.2660  -19.1588   21.7713 N   0  0  0  0  0  0  0  0  0  0  0  0
    8.0673  -18.8400   22.9352 C   0  0  1  0  0  0  0  0  0  0  0  0
    7.3472  -19.1543   24.2217 C   0  0  0  0  0  0  0  0  0  0  0  0
    8.1363  -18.8995   25.4426 C   0  0  0  0  0  0  0  0  0  0  0  0
    7.5153  -19.2853   26.7307 C   0  0  0  0  0  0  0  0  0  0  0  0
    8.4209  -19.0919   27.9257 C   0  0  0  0  0  0  0  0  0  0  0  0
    7.6427  -19.5250   29.0946 N   0  0  0  0  0  0  0  0  0  0  0  0
    9.3933  -19.5289   22.8787 C   0  0  0  0  0  0  0  0  0  0  0  0
    9.4265  -20.7871   22.6979 O   0  0  0  0  0  0  0  0  0  0  0  0
   10.6214  -18.8591   23.0156 N   0  0  0  0  0  0  0  0  0  0  0  0
   11.9202  -19.5483   23.0028 C   0  0  1  0  0  0  0  0  0  0  0  0
   12.8182  -18.9547   21.9716 C   0  0  0  0  0  0  0  0  0  0  0  0
   12.5887  -19.5795   20.6314 C   0  0  0  0  0  0  0  0  0  0  0  0
   13.3764  -18.8827   19.5326 C   0  0  0  0  0  0  0  0  0  0  0  0
   13.1032  -19.4870   18.1861 C   0  0  0  0  0  0  0  0  0  0  0  0
   13.8636  -18.6876   17.2143 N   0  0  0  0  0  0  0  0  0  0  0  0
   12.5163  -19.5725   24.3364 C   0  0  0  0  0  0  0  0  0  0  0  0
   12.0636  -18.9783   25.4782 O   0  0  0  0  0  0  0  0  0  0  0  0
   13.6124  -20.2385   24.4491 O   0  0  0  0  0  0  0  0  0  0  0  0
  2  1  1  1
  2  4  1  0
  2  3  1  0
  4  5  1  6
  6  4  1  0
  7  6  2  0
  8  6  1  0
  9  8  1  0
  9 10  1  1
 10 11  1  0
 11 12  1  0
 12 13  1  0
 13 14  1  0
 15  9  1  0
 16 15  2  0
 17 15  1  0
 18 24  1  0
 18 17  1  0
 18 19  1  6
 20 19  1  0
 21 22  1  0
 21 20  1  0
 23 22  1  0
 24 25  1  0
 26 24  2  0
M  END
$$$$
