TKK.pdb
     RDKit          3D

 26 25  0  0  1  0  0  0  0  0999 V2000
    3.1819  -18.8675   22.5910 C   0  0  0  0  0  0  0  0  0  0  0  0
    4.5525  -18.2251   22.6211 C   0  0  1  0  0  0  0  0  0  0  0  0
    5.3002  -18.8446   23.6122 O   0  0  0  0  0  0  0  0  0  0  0  0
    5.1602  -18.3965   21.2511 C   0  0  2  0  0  0  0  0  0  0  0  0
    5.1616  -19.7558   20.7936 N   0  0  0  0  0  0  0  0  0  0  0  0
    6.4999  -17.8247   21.1258 C   0  0  0  0  0  0  0  0  0  0  0  0
    7.4885  -18.6017   21.1326 O   0  0  0  0  0  0  0  0  0  0  0  0
    6.7779  -16.4378   20.9950 N   0  0  0  0  0  0  0  0  0  0  0  0
    8.1071  -15.8646   20.9401 C   0  0  1  0  0  0  0  0  0  0  0  0
    8.1146  -14.5153   20.2681 C   0  0  0  0  0  0  0  0  0  0  0  0
    8.1722  -14.5662   18.7941 C   0  0  0  0  0  0  0  0  0  0  0  0
    8.1743  -13.2677   18.0816 C   0  0  0  0  0  0  0  0  0  0  0  0
    8.2404  -13.3986   16.5769 C   0  0  0  0  0  0  0  0  0  0  0  0
    8.2445  -12.0256   16.0534 N   0  0  0  0  0  0  0  0  0  0  0  0
    8.7158  -15.7899   22.3040 C   0  0  0  0  0  0  0  0  0  0  0  0
    7.9929  -15.4173   23.2814 O   0  0  0  0  0  0  0  0  0  0  0  0
   10.0575  -16.1109   22.5728 N   0  0  0  0  0  0  0  0  0  0  0  0
   10.5932  -16.2569   23.9343 C   0  0  1  0  0  0  0  0  0  0  0  0
   10.1466  -17.5446   24.5379 C   0  0  0  0  0  0  0  0  0  0  0  0
   10.7023  -17.7160   25.9167 C   0  0  0  0  0  0  0  0  0  0  0  0
   10.3247  -19.0588   26.5231 C   0  0  0  0  0  0  0  0  0  0  0  0
   10.9297  -19.2422   27.8845 C   0  0  0  0  0  0  0  0  0  0  0  0
   10.5836  -20.6068   28.3082 N   0  0  0  0  0  0  0  0  0  0  0  0
   12.0445  -16.0897   23.9495 C   0  0  0  0  0  0  0  0  0  0  0  0
   12.8552  -15.8156   25.0124 O   0  0  0  0  0  0  0  0  0  0  0  0
   12.6357  -16.2142   22.8126 O   0  0  0  0  0  0  0  0  0  0  0  0
  2  1  1  6
  2  4  1  0
  2  3  1  0
  4  5  1  1
  6  4  1  0
  7  6  2  0
  8  6  1  0
  9  8  1  0
  9 10  1  1
 10 11  1  0
 11 12  1  0
 12 13  1  0
 13 14  1  0
 15  9  1  0
 16 15  2  0
 17 15  1  0
 18 24  1  0
 18 17  1  0
 18 19  1  6
 20 19  1  0
 21 22  1  0
 21 20  1  0
 23 22  1  0
 24 25  1  0
 26 24  2  0
M  END
$$$$
