IHG.pdb
     RDKit          3D

 23 23  0  0  1  0  0  0  0  0999 V2000
    7.6179  -11.7903   20.3933 C   0  0  0  0  0  0  0  0  0  0  0  0
    7.4147  -13.1999   19.9533 C   0  0  0  0  0  0  0  0  0  0  0  0
    8.0412  -14.2206   20.8751 C   0  0  2  0  0  0  0  0  0  0  0  0
    9.5422  -14.0948   20.9252 C   0  0  0  0  0  0  0  0  0  0  0  0
    7.7000  -15.5823   20.3673 C   0  0  2  0  0  0  0  0  0  0  0  0
    6.2926  -15.8365   20.2858 N   0  0  0  0  0  0  0  0  0  0  0  0
    8.3902  -16.6634   21.1253 C   0  0  0  0  0  0  0  0  0  0  0  0
    7.8505  -17.2444   22.1041 O   0  0  0  0  0  0  0  0  0  0  0  0
    9.6739  -17.0562   20.7524 N   0  0  0  0  0  0  0  0  0  0  0  0
   10.3663  -18.2395   21.4081 C   0  0  1  0  0  0  0  0  0  0  0  0
   11.3420  -18.6235   20.3373 C   0  0  0  0  0  0  0  0  0  0  0  0
   10.8749  -19.5164   19.3020 C   0  0  0  0  0  0  0  0  0  0  0  0
    9.7534  -20.2692   19.1419 C   0  0  0  0  0  0  0  0  0  0  0  0
    9.7394  -20.8910   17.9376 N   0  0  0  0  0  0  0  0  0  0  0  0
   10.8633  -20.5226   17.3366 C   0  0  0  0  0  0  0  0  0  0  0  0
   11.5654  -19.7012   18.1233 N   0  0  0  0  0  0  0  0  0  0  0  0
   11.0495  -17.5657   22.5412 C   0  0  0  0  0  0  0  0  0  0  0  0
   11.5698  -16.4127   22.2955 O   0  0  0  0  0  0  0  0  0  0  0  0
   11.1955  -18.0344   23.8591 N   0  0  0  0  0  0  0  0  0  0  0  0
   11.8673  -17.2059   24.8813 C   0  0  0  0  0  0  0  0  0  0  0  0
   12.0233  -17.9319   26.1379 C   0  0  0  0  0  0  0  0  0  0  0  0
   12.7651  -17.3940   27.1691 O   0  0  0  0  0  0  0  0  0  0  0  0
   11.4878  -19.0513   26.2991 O   0  0  0  0  0  0  0  0  0  0  0  0
  1  2  1  0
  2  3  1  0
  3  4  1  6
  5  7  1  0
  5  6  1  1
  5  3  1  0
  7  8  2  0
  9 10  1  0
  9  7  1  0
 10 17  1  0
 10 11  1  6
 12 11  1  0
 12 16  1  0
 13 14  1  0
 13 12  2  0
 14 15  1  0
 15 16  2  0
 17 18  2  0
 19 20  1  0
 19 17  1  0
 21 20  1  0
 22 21  1  0
 23 21  2  0
M  END
$$$$
