IHG.pdb
     RDKit          3D

 23 23  0  0  1  0  0  0  0  0999 V2000
    8.4653  -11.9373   27.6149 C   0  0  0  0  0  0  0  0  0  0  0  0
    7.5321  -13.0079   27.1623 C   0  0  0  0  0  0  0  0  0  0  0  0
    6.9981  -12.7974   25.7643 C   0  0  2  0  0  0  0  0  0  0  0  0
    6.1412  -11.5618   25.6638 C   0  0  0  0  0  0  0  0  0  0  0  0
    6.1632  -13.9798   25.3987 C   0  0  2  0  0  0  0  0  0  0  0  0
    5.1596  -14.3046   26.3680 N   0  0  0  0  0  0  0  0  0  0  0  0
    6.9846  -15.1772   25.0656 C   0  0  0  0  0  0  0  0  0  0  0  0
    6.8691  -16.2639   25.6922 O   0  0  0  0  0  0  0  0  0  0  0  0
    7.9148  -15.1096   24.0306 N   0  0  0  0  0  0  0  0  0  0  0  0
    8.7038  -16.3309   23.5882 C   0  0  1  0  0  0  0  0  0  0  0  0
    8.8850  -16.0361   22.1301 C   0  0  0  0  0  0  0  0  0  0  0  0
    9.5414  -17.0407   21.3256 C   0  0  0  0  0  0  0  0  0  0  0  0
   10.0261  -18.2853   21.5828 C   0  0  0  0  0  0  0  0  0  0  0  0
   10.4925  -18.8798   20.4575 N   0  0  0  0  0  0  0  0  0  0  0  0
   10.2966  -17.9988   19.4852 C   0  0  0  0  0  0  0  0  0  0  0  0
    9.7298  -16.8889   19.9685 N   0  0  0  0  0  0  0  0  0  0  0  0
    9.9689  -16.1282   24.3387 C   0  0  0  0  0  0  0  0  0  0  0  0
   10.8308  -15.3308   23.8082 O   0  0  0  0  0  0  0  0  0  0  0  0
   10.3413  -16.7017   25.5677 N   0  0  0  0  0  0  0  0  0  0  0  0
   10.3327  -18.1682   25.7460 C   0  0  0  0  0  0  0  0  0  0  0  0
   11.6806  -18.7228   25.6680 C   0  0  0  0  0  0  0  0  0  0  0  0
   12.4121  -18.6222   24.5028 O   0  0  0  0  0  0  0  0  0  0  0  0
   12.1926  -19.2970   26.6549 O   0  0  0  0  0  0  0  0  0  0  0  0
  1  2  1  0
  2  3  1  0
  3  4  1  1
  5  7  1  0
  5  6  1  1
  5  3  1  0
  7  8  2  0
  9 10  1  0
  9  7  1  0
 10 17  1  0
 10 11  1  6
 12 11  1  0
 12 16  1  0
 13 14  1  0
 13 12  2  0
 14 15  1  0
 15 16  2  0
 17 18  2  0
 19 20  1  0
 19 17  1  0
 21 20  1  0
 22 21  1  0
 23 21  2  0
M  END
$$$$
