IHG.pdb
     RDKit          3D

 23 23  0  0  1  0  0  0  0  0999 V2000
    6.7958  -12.1724   28.1214 C   0  0  0  0  0  0  0  0  0  0  0  0
    6.2268  -12.9288   26.9698 C   0  0  0  0  0  0  0  0  0  0  0  0
    7.2352  -13.8005   26.2576 C   0  0  2  0  0  0  0  0  0  0  0  0
    8.3647  -12.9961   25.6674 C   0  0  0  0  0  0  0  0  0  0  0  0
    6.5365  -14.5145   25.1481 C   0  0  2  0  0  0  0  0  0  0  0  0
    5.4311  -15.3173   25.5789 N   0  0  0  0  0  0  0  0  0  0  0  0
    7.4712  -15.3099   24.3037 C   0  0  0  0  0  0  0  0  0  0  0  0
    7.5910  -16.5575   24.4303 O   0  0  0  0  0  0  0  0  0  0  0  0
    8.2447  -14.6687   23.3385 N   0  0  0  0  0  0  0  0  0  0  0  0
    9.2001  -15.4397   22.4428 C   0  0  1  0  0  0  0  0  0  0  0  0
    9.5239  -14.3987   21.4144 C   0  0  0  0  0  0  0  0  0  0  0  0
    8.5962  -14.2359   20.3188 C   0  0  0  0  0  0  0  0  0  0  0  0
    8.0478  -13.1553   19.7009 C   0  0  0  0  0  0  0  0  0  0  0  0
    7.2769  -13.5224   18.6482 N   0  0  0  0  0  0  0  0  0  0  0  0
    7.3443  -14.8467   18.6056 C   0  0  0  0  0  0  0  0  0  0  0  0
    8.1243  -15.3060   19.5891 N   0  0  0  0  0  0  0  0  0  0  0  0
   10.3393  -15.6501   23.3716 C   0  0  0  0  0  0  0  0  0  0  0  0
   10.8681  -14.5917   23.8821 O   0  0  0  0  0  0  0  0  0  0  0  0
   10.9123  -16.8720   23.7671 N   0  0  0  0  0  0  0  0  0  0  0  0
   12.0651  -16.8974   24.6906 C   0  0  0  0  0  0  0  0  0  0  0  0
   12.4479  -18.2649   25.0282 C   0  0  0  0  0  0  0  0  0  0  0  0
   13.5518  -18.5073   25.8192 O   0  0  0  0  0  0  0  0  0  0  0  0
   11.7822  -19.2368   24.6062 O   0  0  0  0  0  0  0  0  0  0  0  0
  1  2  1  0
  2  3  1  0
  3  4  1  6
  5  7  1  0
  5  6  1  1
  5  3  1  0
  7  8  2  0
  9 10  1  0
  9  7  1  0
 10 17  1  0
 10 11  1  6
 12 11  1  0
 12 16  1  0
 13 14  1  0
 13 12  2  0
 14 15  1  0
 15 16  2  0
 17 18  2  0
 19 20  1  0
 19 17  1  0
 21 20  1  0
 22 21  1  0
 23 21  2  0
M  END
$$$$
