IHG.pdb
     RDKit          3D

 23 23  0  0  1  0  0  0  0  0999 V2000
    6.4979  -12.0154   27.4525 C   0  0  0  0  0  0  0  0  0  0  0  0
    6.0808  -13.0802   26.4962 C   0  0  0  0  0  0  0  0  0  0  0  0
    7.2368  -13.7445   25.7846 C   0  0  2  0  0  0  0  0  0  0  0  0
    8.0584  -12.7593   24.9937 C   0  0  0  0  0  0  0  0  0  0  0  0
    6.6842  -14.7607   24.8408 C   0  0  2  0  0  0  0  0  0  0  0  0
    5.7865  -15.6945   25.4526 N   0  0  0  0  0  0  0  0  0  0  0  0
    7.7497  -15.4714   24.0798 C   0  0  0  0  0  0  0  0  0  0  0  0
    7.9783  -16.7003   24.2367 O   0  0  0  0  0  0  0  0  0  0  0  0
    8.5269  -14.7690   23.1613 N   0  0  0  0  0  0  0  0  0  0  0  0
    9.4221  -15.4851   22.1636 C   0  0  1  0  0  0  0  0  0  0  0  0
    9.5092  -14.4581   21.0757 C   0  0  0  0  0  0  0  0  0  0  0  0
    8.3138  -14.2033   20.3053 C   0  0  0  0  0  0  0  0  0  0  0  0
    7.6592  -13.0724   19.9275 C   0  0  0  0  0  0  0  0  0  0  0  0
    6.6027  -13.3533   19.1261 N   0  0  0  0  0  0  0  0  0  0  0  0
    6.5965  -14.6739   18.9996 C   0  0  0  0  0  0  0  0  0  0  0  0
    7.6052  -15.2136   19.6909 N   0  0  0  0  0  0  0  0  0  0  0  0
   10.6890  -15.5601   22.9345 C   0  0  0  0  0  0  0  0  0  0  0  0
   11.7609  -15.7920   22.2580 O   0  0  0  0  0  0  0  0  0  0  0  0
   10.8625  -15.4043   24.3214 N   0  0  0  0  0  0  0  0  0  0  0  0
   12.1789  -15.6480   24.9460 C   0  0  0  0  0  0  0  0  0  0  0  0
   12.3972  -17.0700   25.1923 C   0  0  0  0  0  0  0  0  0  0  0  0
   13.5264  -17.4994   25.8583 O   0  0  0  0  0  0  0  0  0  0  0  0
   11.5653  -17.9202   24.8039 O   0  0  0  0  0  0  0  0  0  0  0  0
  1  2  1  0
  2  3  1  0
  3  4  1  6
  5  7  1  0
  5  6  1  1
  5  3  1  0
  7  8  2  0
  9 10  1  0
  9  7  1  0
 10 17  1  0
 10 11  1  6
 12 11  1  0
 12 16  1  0
 13 14  1  0
 13 12  2  0
 14 15  1  0
 15 16  2  0
 17 18  2  0
 19 20  1  0
 19 17  1  0
 21 20  1  0
 22 21  1  0
 23 21  2  0
M  END
$$$$
