IHG.pdb
     RDKit          3D

 23 23  0  0  1  0  0  0  0  0999 V2000
    8.6496  -13.0404   28.0290 C   0  0  0  0  0  0  0  0  0  0  0  0
    7.8969  -13.9677   27.1370 C   0  0  0  0  0  0  0  0  0  0  0  0
    7.3521  -13.3053   25.8927 C   0  0  2  0  0  0  0  0  0  0  0  0
    6.3884  -12.1930   26.2171 C   0  0  0  0  0  0  0  0  0  0  0  0
    6.6279  -14.3364   25.0919 C   0  0  2  0  0  0  0  0  0  0  0  0
    5.6812  -15.1003   25.8483 N   0  0  0  0  0  0  0  0  0  0  0  0
    7.5541  -15.2320   24.3439 C   0  0  0  0  0  0  0  0  0  0  0  0
    7.5978  -16.4738   24.5512 O   0  0  0  0  0  0  0  0  0  0  0  0
    8.4057  -14.6949   23.3809 N   0  0  0  0  0  0  0  0  0  0  0  0
    9.2447  -15.5821   22.4761 C   0  0  1  0  0  0  0  0  0  0  0  0
    9.4969  -14.6539   21.3269 C   0  0  0  0  0  0  0  0  0  0  0  0
    8.3719  -14.3174   20.4852 C   0  0  0  0  0  0  0  0  0  0  0  0
    7.0700  -14.7099   20.4506 C   0  0  0  0  0  0  0  0  0  0  0  0
    6.3726  -14.0371   19.5029 N   0  0  0  0  0  0  0  0  0  0  0  0
    7.2466  -13.2137   18.9389 C   0  0  0  0  0  0  0  0  0  0  0  0
    8.4508  -13.3547   19.5017 N   0  0  0  0  0  0  0  0  0  0  0  0
   10.4628  -15.7507   23.3082 C   0  0  0  0  0  0  0  0  0  0  0  0
   10.9234  -14.6892   23.8751 O   0  0  0  0  0  0  0  0  0  0  0  0
   11.1772  -16.9362   23.5571 N   0  0  0  0  0  0  0  0  0  0  0  0
   12.3519  -16.9317   24.4531 C   0  0  0  0  0  0  0  0  0  0  0  0
   13.5747  -16.6020   23.7275 C   0  0  0  0  0  0  0  0  0  0  0  0
   14.7836  -16.5341   24.3885 O   0  0  0  0  0  0  0  0  0  0  0  0
   13.5456  -16.3761   22.4971 O   0  0  0  0  0  0  0  0  0  0  0  0
  1  2  1  0
  2  3  1  0
  3  4  1  1
  5  7  1  0
  5  6  1  1
  5  3  1  0
  7  8  2  0
  9 10  1  0
  9  7  1  0
 10 17  1  0
 10 11  1  6
 12 11  1  0
 12 16  1  0
 13 14  1  0
 13 12  2  0
 14 15  1  0
 15 16  2  0
 17 18  2  0
 19 20  1  0
 19 17  1  0
 21 20  1  0
 22 21  1  0
 23 21  2  0
M  END
$$$$
