AGE.pdb
     RDKit          3D

 19 18  0  0  1  0  0  0  0  0999 V2000
   25.4720  -33.4546  -12.2310 C   0  0  0  0  0  0  0  0  0  0  0  0
   25.1816  -34.2271  -10.9676 C   0  0  2  0  0  0  0  0  0  0  0  0
   23.8889  -33.9504  -10.4162 N   0  0  0  0  0  0  0  0  0  0  0  0
   26.2268  -33.8460   -9.9597 C   0  0  0  0  0  0  0  0  0  0  0  0
   27.4542  -34.0576  -10.1965 O   0  0  0  0  0  0  0  0  0  0  0  0
   25.8981  -33.2470   -8.7277 N   0  0  0  0  0  0  0  0  0  0  0  0
   26.9083  -33.0069   -7.7408 C   0  0  0  0  0  0  0  0  0  0  0  0
   26.5655  -33.7013   -6.4496 C   0  0  0  0  0  0  0  0  0  0  0  0
   25.4247  -34.2174   -6.2613 O   0  0  0  0  0  0  0  0  0  0  0  0
   27.4983  -33.8072   -5.3933 N   0  0  0  0  0  0  0  0  0  0  0  0
   27.1976  -34.4499   -4.1144 C   0  0  1  0  0  0  0  0  0  0  0  0
   28.5000  -34.6053   -3.4033 C   0  0  0  0  0  0  0  0  0  0  0  0
   29.4597  -35.5729   -4.0298 C   0  0  0  0  0  0  0  0  0  0  0  0
   30.6973  -35.5788   -3.2187 C   0  0  0  0  0  0  0  0  0  0  0  0
   30.7157  -36.0887   -2.0756 O   0  0  0  0  0  0  0  0  0  0  0  0
   26.2153  -33.6283   -3.3960 C   0  0  0  0  0  0  0  0  0  0  0  0
   25.4923  -34.1429   -2.5182 O   0  0  0  0  0  0  0  0  0  0  0  0
   31.8634  -35.0209   -3.7047 O   0  0  0  0  0  0  0  0  0  0  0  0
   26.0502  -32.2824   -3.6518 O   0  0  0  0  0  0  0  0  0  0  0  0
  2  3  1  0
  2  1  1  6
  4  2  1  0
  5  4  2  0
  6  4  1  0
  7  6  1  0
  8 10  1  0
  8  7  1  0
  9  8  2  0
 11 16  1  0
 11 10  1  0
 11 12  1  1
 12 13  1  0
 13 14  1  0
 14 15  2  0
 14 18  1  0
 16 19  1  0
 17 16  2  0
M  END
$$$$
