AGE.pdb
     RDKit          3D

 19 18  0  0  1  0  0  0  0  0999 V2000
   15.7859  -12.0979  -15.8808 C   0  0  0  0  0  0  0  0  0  0  0  0
   17.1918  -11.6871  -16.2440 C   0  0  2  0  0  0  0  0  0  0  0  0
   18.1993  -12.4293  -15.5470 N   0  0  0  0  0  0  0  0  0  0  0  0
   17.3373  -10.2339  -15.8966 C   0  0  0  0  0  0  0  0  0  0  0  0
   16.6700   -9.3547  -16.5204 O   0  0  0  0  0  0  0  0  0  0  0  0
   18.2056   -9.7886  -14.8805 N   0  0  0  0  0  0  0  0  0  0  0  0
   18.2573   -8.4029  -14.5206 C   0  0  0  0  0  0  0  0  0  0  0  0
   19.6632   -7.9987  -14.1641 C   0  0  0  0  0  0  0  0  0  0  0  0
   20.3810   -8.7111  -13.4021 O   0  0  0  0  0  0  0  0  0  0  0  0
   20.2424   -6.8096  -14.6618 N   0  0  0  0  0  0  0  0  0  0  0  0
   21.6288   -6.4203  -14.4057 C   0  0  1  0  0  0  0  0  0  0  0  0
   22.2198   -6.0676  -15.7295 C   0  0  0  0  0  0  0  0  0  0  0  0
   23.6412   -5.5904  -15.6892 C   0  0  0  0  0  0  0  0  0  0  0  0
   24.0711   -5.3173  -17.0784 C   0  0  0  0  0  0  0  0  0  0  0  0
   24.9941   -5.9761  -17.6083 O   0  0  0  0  0  0  0  0  0  0  0  0
   21.6352   -5.3206  -13.4328 C   0  0  0  0  0  0  0  0  0  0  0  0
   22.6366   -5.1289  -12.7126 O   0  0  0  0  0  0  0  0  0  0  0  0
   23.4627   -4.3270  -17.8246 O   0  0  0  0  0  0  0  0  0  0  0  0
   20.5610   -4.4693  -13.2736 O   0  0  0  0  0  0  0  0  0  0  0  0
  2  3  1  0
  2  1  1  1
  4  2  1  0
  5  4  2  0
  6  4  1  0
  7  6  1  0
  8 10  1  0
  8  7  1  0
  9  8  2  0
 11 16  1  0
 11 10  1  0
 11 12  1  6
 12 13  1  0
 13 14  1  0
 14 15  2  0
 14 18  1  0
 16 19  1  0
 17 16  2  0
M  END
$$$$
