AGE.pdb
     RDKit          3D

 19 18  0  0  1  0  0  0  0  0999 V2000
   16.2335  -14.6906  -17.1160 C   0  0  0  0  0  0  0  0  0  0  0  0
   17.3318  -14.4006  -16.1226 C   0  0  2  0  0  0  0  0  0  0  0  0
   16.8503  -14.1702  -14.7934 N   0  0  0  0  0  0  0  0  0  0  0  0
   18.0492  -13.1696  -16.5952 C   0  0  0  0  0  0  0  0  0  0  0  0
   18.6750  -13.1747  -17.6978 O   0  0  0  0  0  0  0  0  0  0  0  0
   18.0598  -11.9744  -15.8494 N   0  0  0  0  0  0  0  0  0  0  0  0
   18.7841  -10.8299  -16.3159 C   0  0  0  0  0  0  0  0  0  0  0  0
   18.5945   -9.6642  -15.3820 C   0  0  0  0  0  0  0  0  0  0  0  0
   17.7566   -9.7086  -14.4337 O   0  0  0  0  0  0  0  0  0  0  0  0
   19.3404   -8.4721  -15.5219 N   0  0  0  0  0  0  0  0  0  0  0  0
   19.2298   -7.3400  -14.6024 C   0  0  1  0  0  0  0  0  0  0  0  0
   20.5848   -6.7196  -14.5315 C   0  0  0  0  0  0  0  0  0  0  0  0
   20.7188   -5.5837  -13.5612 C   0  0  0  0  0  0  0  0  0  0  0  0
   22.1041   -5.0709  -13.6463 C   0  0  0  0  0  0  0  0  0  0  0  0
   23.0755   -5.7788  -13.2968 O   0  0  0  0  0  0  0  0  0  0  0  0
   18.1809   -6.4375  -15.0935 C   0  0  0  0  0  0  0  0  0  0  0  0
   17.9132   -6.3945  -16.3120 O   0  0  0  0  0  0  0  0  0  0  0  0
   22.3585   -3.7967  -14.1144 O   0  0  0  0  0  0  0  0  0  0  0  0
   17.4604   -5.6154  -14.2514 O   0  0  0  0  0  0  0  0  0  0  0  0
  2  3  1  0
  2  1  1  6
  4  2  1  0
  5  4  2  0
  6  4  1  0
  7  6  1  0
  8 10  1  0
  8  7  1  0
  9  8  2  0
 11 16  1  0
 11 10  1  0
 11 12  1  6
 12 13  1  0
 13 14  1  0
 14 15  2  0
 14 18  1  0
 16 19  1  0
 17 16  2  0
M  END
$$$$
