AGE.pdb
     RDKit          3D

 19 18  0  0  1  0  0  0  0  0999 V2000
   18.3278  -15.1511  -16.1007 C   0  0  0  0  0  0  0  0  0  0  0  0
   17.3103  -14.0554  -15.8975 C   0  0  2  0  0  0  0  0  0  0  0  0
   16.0722  -14.2958  -16.5763 N   0  0  0  0  0  0  0  0  0  0  0  0
   17.9099  -12.7843  -16.4250 C   0  0  0  0  0  0  0  0  0  0  0  0
   18.2567  -12.6945  -17.6412 O   0  0  0  0  0  0  0  0  0  0  0  0
   18.1111  -11.6541  -15.6085 N   0  0  0  0  0  0  0  0  0  0  0  0
   18.5770  -10.4216  -16.1707 C   0  0  0  0  0  0  0  0  0  0  0  0
   18.5686   -9.3285  -15.1353 C   0  0  0  0  0  0  0  0  0  0  0  0
   18.1068   -9.5250  -13.9728 O   0  0  0  0  0  0  0  0  0  0  0  0
   19.0734   -8.0383  -15.4140 N   0  0  0  0  0  0  0  0  0  0  0  0
   19.0573   -6.9408  -14.4473 C   0  0  1  0  0  0  0  0  0  0  0  0
   20.3998   -6.2941  -14.5201 C   0  0  0  0  0  0  0  0  0  0  0  0
   20.6127   -5.1524  -13.5709 C   0  0  0  0  0  0  0  0  0  0  0  0
   21.9776   -4.6248  -13.7895 C   0  0  0  0  0  0  0  0  0  0  0  0
   22.9563   -5.0911  -13.1637 O   0  0  0  0  0  0  0  0  0  0  0  0
   17.9405   -6.0450  -14.7732 C   0  0  0  0  0  0  0  0  0  0  0  0
   17.4992   -5.9948  -15.9398 O   0  0  0  0  0  0  0  0  0  0  0  0
   22.2045   -3.6033  -14.6910 O   0  0  0  0  0  0  0  0  0  0  0  0
   17.3421   -5.2369  -13.8282 O   0  0  0  0  0  0  0  0  0  0  0  0
  2  3  1  0
  2  1  1  6
  4  2  1  0
  5  4  2  0
  6  4  1  0
  7  6  1  0
  8 10  1  0
  8  7  1  0
  9  8  2  0
 11 16  1  0
 11 10  1  0
 11 12  1  6
 12 13  1  0
 13 14  1  0
 14 15  2  0
 14 18  1  0
 16 19  1  0
 17 16  2  0
M  END
$$$$
