AGE.pdb
     RDKit          3D

 19 18  0  0  1  0  0  0  0  0999 V2000
   29.4536  -23.3122  -16.0190 C   0  0  0  0  0  0  0  0  0  0  0  0
   28.3730  -22.8424  -16.9617 C   0  0  2  0  0  0  0  0  0  0  0  0
   28.8752  -22.0943  -18.0752 N   0  0  0  0  0  0  0  0  0  0  0  0
   27.4416  -21.9671  -16.1743 C   0  0  0  0  0  0  0  0  0  0  0  0
   27.5962  -20.7088  -16.1661 O   0  0  0  0  0  0  0  0  0  0  0  0
   26.3731  -22.4938  -15.4223 N   0  0  0  0  0  0  0  0  0  0  0  0
   25.5467  -21.6344  -14.6281 C   0  0  0  0  0  0  0  0  0  0  0  0
   24.1137  -21.7048  -15.0846 C   0  0  0  0  0  0  0  0  0  0  0  0
   23.7962  -22.2613  -16.1767 O   0  0  0  0  0  0  0  0  0  0  0  0
   23.0623  -21.1542  -14.3173 N   0  0  0  0  0  0  0  0  0  0  0  0
   21.6528  -21.2505  -14.6958 C   0  0  1  0  0  0  0  0  0  0  0  0
   20.9166  -21.6888  -13.4743 C   0  0  0  0  0  0  0  0  0  0  0  0
   19.4443  -21.9083  -13.6586 C   0  0  0  0  0  0  0  0  0  0  0  0
   18.8683  -22.2706  -12.3447 C   0  0  0  0  0  0  0  0  0  0  0  0
   19.5904  -22.3524  -11.3255 O   0  0  0  0  0  0  0  0  0  0  0  0
   21.2192  -19.9512  -15.2246 C   0  0  0  0  0  0  0  0  0  0  0  0
   21.7277  -18.8977  -14.7891 O   0  0  0  0  0  0  0  0  0  0  0  0
   17.5179  -22.5275  -12.2118 O   0  0  0  0  0  0  0  0  0  0  0  0
   20.2532  -19.8376  -16.2035 O   0  0  0  0  0  0  0  0  0  0  0  0
  2  3  1  0
  2  1  1  1
  4  2  1  0
  5  4  2  0
  6  4  1  0
  7  6  1  0
  8 10  1  0
  8  7  1  0
  9  8  2  0
 11 16  1  0
 11 10  1  0
 11 12  1  1
 12 13  1  0
 13 14  1  0
 14 15  2  0
 14 18  1  0
 16 19  1  0
 17 16  2  0
M  END
$$$$
