AGE.pdb
     RDKit          3D

 19 18  0  0  1  0  0  0  0  0999 V2000
   20.7276  -15.1660  -18.8802 C   0  0  0  0  0  0  0  0  0  0  0  0
   22.0475  -15.1209  -18.1501 C   0  0  2  0  0  0  0  0  0  0  0  0
   22.5529  -16.4168  -17.8081 N   0  0  0  0  0  0  0  0  0  0  0  0
   21.8337  -14.3385  -16.8869 C   0  0  0  0  0  0  0  0  0  0  0  0
   21.8514  -14.9203  -15.7606 O   0  0  0  0  0  0  0  0  0  0  0  0
   21.6079  -12.9479  -16.8947 N   0  0  0  0  0  0  0  0  0  0  0  0
   21.4590  -12.2262  -15.6663 C   0  0  0  0  0  0  0  0  0  0  0  0
   21.1131  -10.7857  -15.9349 C   0  0  0  0  0  0  0  0  0  0  0  0
   21.6405  -10.1487  -16.8937 O   0  0  0  0  0  0  0  0  0  0  0  0
   20.1876  -10.0822  -15.1312 N   0  0  0  0  0  0  0  0  0  0  0  0
   19.6902   -8.7460  -15.4570 C   0  0  1  0  0  0  0  0  0  0  0  0
   18.3268   -8.6457  -14.8595 C   0  0  0  0  0  0  0  0  0  0  0  0
   17.2459   -9.3696  -15.6060 C   0  0  0  0  0  0  0  0  0  0  0  0
   15.9693   -9.1467  -14.8919 C   0  0  0  0  0  0  0  0  0  0  0  0
   15.1106   -8.3537  -15.3400 O   0  0  0  0  0  0  0  0  0  0  0  0
   20.6441   -7.7531  -14.9471 C   0  0  0  0  0  0  0  0  0  0  0  0
   21.4292   -8.0562  -14.0252 O   0  0  0  0  0  0  0  0  0  0  0  0
   15.6945   -9.8097  -13.7119 O   0  0  0  0  0  0  0  0  0  0  0  0
   20.7148   -6.4704  -15.4509 O   0  0  0  0  0  0  0  0  0  0  0  0
  2  3  1  0
  2  1  1  1
  4  2  1  0
  5  4  2  0
  6  4  1  0
  7  6  1  0
  8 10  1  0
  8  7  1  0
  9  8  2  0
 11 16  1  0
 11 10  1  0
 11 12  1  1
 12 13  1  0
 13 14  1  0
 14 15  2  0
 14 18  1  0
 16 19  1  0
 17 16  2  0
M  END
$$$$
