AGE.pdb
     RDKit          3D

 19 18  0  0  1  0  0  0  0  0999 V2000
   15.4947  -14.5890  -17.6115 C   0  0  0  0  0  0  0  0  0  0  0  0
   16.9904  -14.5653  -17.4129 C   0  0  2  0  0  0  0  0  0  0  0  0
   17.4019  -15.0551  -16.1313 N   0  0  0  0  0  0  0  0  0  0  0  0
   17.4376  -13.1388  -17.5496 C   0  0  0  0  0  0  0  0  0  0  0  0
   17.3684  -12.5489  -18.6697 O   0  0  0  0  0  0  0  0  0  0  0  0
   17.9451  -12.4038  -16.4602 N   0  0  0  0  0  0  0  0  0  0  0  0
   18.4086  -11.0602  -16.6393 C   0  0  0  0  0  0  0  0  0  0  0  0
   18.8534  -10.4722  -15.3266 C   0  0  0  0  0  0  0  0  0  0  0  0
   18.6577  -11.0786  -14.2324 O   0  0  0  0  0  0  0  0  0  0  0  0
   19.5066   -9.2209  -15.2571 N   0  0  0  0  0  0  0  0  0  0  0  0
   19.9517   -8.6130  -14.0034 C   0  0  1  0  0  0  0  0  0  0  0  0
   20.8605   -7.4905  -14.3777 C   0  0  0  0  0  0  0  0  0  0  0  0
   21.4506   -6.7332  -13.2253 C   0  0  0  0  0  0  0  0  0  0  0  0
   22.2729   -5.6326  -13.7748 C   0  0  0  0  0  0  0  0  0  0  0  0
   22.7499   -5.7001  -14.9301 O   0  0  0  0  0  0  0  0  0  0  0  0
   18.7697   -8.1989  -13.2372 C   0  0  0  0  0  0  0  0  0  0  0  0
   17.7354   -7.8329  -13.8324 O   0  0  0  0  0  0  0  0  0  0  0  0
   22.5337   -4.5028  -13.0245 O   0  0  0  0  0  0  0  0  0  0  0  0
   18.7482   -8.1953  -11.8574 O   0  0  0  0  0  0  0  0  0  0  0  0
  2  3  1  0
  2  1  1  1
  4  2  1  0
  5  4  2  0
  6  4  1  0
  7  6  1  0
  8 10  1  0
  8  7  1  0
  9  8  2  0
 11 16  1  0
 11 10  1  0
 11 12  1  6
 12 13  1  0
 13 14  1  0
 14 15  2  0
 14 18  1  0
 16 19  1  0
 17 16  2  0
M  END
$$$$
