AGE.pdb
     RDKit          3D

 19 18  0  0  1  0  0  0  0  0999 V2000
   17.3056  -13.1747  -15.4177 C   0  0  0  0  0  0  0  0  0  0  0  0
   18.2441  -12.3665  -16.2798 C   0  0  2  0  0  0  0  0  0  0  0  0
   19.6257  -12.6734  -16.0592 N   0  0  0  0  0  0  0  0  0  0  0  0
   18.0146  -10.9188  -15.9557 C   0  0  0  0  0  0  0  0  0  0  0  0
   16.8602  -10.4089  -16.0771 O   0  0  0  0  0  0  0  0  0  0  0  0
   19.0519  -10.0760  -15.5102 N   0  0  0  0  0  0  0  0  0  0  0  0
   18.8064   -8.6872  -15.2592 C   0  0  0  0  0  0  0  0  0  0  0  0
   20.0598   -8.0041  -14.7805 C   0  0  0  0  0  0  0  0  0  0  0  0
   20.9559   -8.6376  -14.1488 O   0  0  0  0  0  0  0  0  0  0  0  0
   20.2913   -6.6295  -15.0135 N   0  0  0  0  0  0  0  0  0  0  0  0
   21.5181   -5.9402  -14.6145 C   0  0  1  0  0  0  0  0  0  0  0  0
   21.5291   -4.6402  -15.3464 C   0  0  0  0  0  0  0  0  0  0  0  0
   22.7214   -3.7684  -15.0849 C   0  0  0  0  0  0  0  0  0  0  0  0
   22.5643   -2.5294  -15.8782 C   0  0  0  0  0  0  0  0  0  0  0  0
   22.0676   -1.4984  -15.3709 O   0  0  0  0  0  0  0  0  0  0  0  0
   21.5266   -5.8064  -13.1523 C   0  0  0  0  0  0  0  0  0  0  0  0
   20.4531   -5.8320  -12.5158 O   0  0  0  0  0  0  0  0  0  0  0  0
   22.9629   -2.4810  -17.1997 O   0  0  0  0  0  0  0  0  0  0  0  0
   22.6932   -5.6501  -12.4320 O   0  0  0  0  0  0  0  0  0  0  0  0
  2  3  1  0
  2  1  1  1
  4  2  1  0
  5  4  2  0
  6  4  1  0
  7  6  1  0
  8 10  1  0
  8  7  1  0
  9  8  2  0
 11 16  1  0
 11 10  1  0
 11 12  1  6
 12 13  1  0
 13 14  1  0
 14 15  2  0
 14 18  1  0
 16 19  1  0
 17 16  2  0
M  END
$$$$
