AGE.pdb
     RDKit          3D

 19 18  0  0  1  0  0  0  0  0999 V2000
   19.2822  -12.6171  -17.3589 C   0  0  0  0  0  0  0  0  0  0  0  0
   19.4642  -11.1826  -17.7905 C   0  0  2  0  0  0  0  0  0  0  0  0
   20.2663  -11.0404  -18.9687 N   0  0  0  0  0  0  0  0  0  0  0  0
   20.1353  -10.4570  -16.6605 C   0  0  0  0  0  0  0  0  0  0  0  0
   19.5126  -10.2387  -15.5779 O   0  0  0  0  0  0  0  0  0  0  0  0
   21.4628   -9.9940  -16.7494 N   0  0  0  0  0  0  0  0  0  0  0  0
   22.0979   -9.3787  -15.6223 C   0  0  0  0  0  0  0  0  0  0  0  0
   21.9812   -7.8796  -15.6995 C   0  0  0  0  0  0  0  0  0  0  0  0
   22.0458   -7.2695  -16.8071 O   0  0  0  0  0  0  0  0  0  0  0  0
   21.7958   -7.0890  -14.5429 N   0  0  0  0  0  0  0  0  0  0  0  0
   21.6272   -5.6365  -14.5785 C   0  0  1  0  0  0  0  0  0  0  0  0
   20.1764   -5.3856  -14.8194 C   0  0  0  0  0  0  0  0  0  0  0  0
   19.7632   -3.9439  -14.7938 C   0  0  0  0  0  0  0  0  0  0  0  0
   18.3612   -3.8620  -15.2596 C   0  0  0  0  0  0  0  0  0  0  0  0
   17.9961   -4.4399  -16.3082 O   0  0  0  0  0  0  0  0  0  0  0  0
   22.1331   -5.0746  -13.3199 C   0  0  0  0  0  0  0  0  0  0  0  0
   22.3832   -3.8545  -13.2358 O   0  0  0  0  0  0  0  0  0  0  0  0
   17.4205   -3.1446  -14.5469 O   0  0  0  0  0  0  0  0  0  0  0  0
   22.3502   -5.8502  -12.1994 O   0  0  0  0  0  0  0  0  0  0  0  0
  2  3  1  0
  2  1  1  1
  4  2  1  0
  5  4  2  0
  6  4  1  0
  7  6  1  0
  8 10  1  0
  8  7  1  0
  9  8  2  0
 11 16  1  0
 11 10  1  0
 11 12  1  1
 12 13  1  0
 13 14  1  0
 14 15  2  0
 14 18  1  0
 16 19  1  0
 17 16  2  0
M  END
$$$$
