AGE.pdb
     RDKit          3D

 19 18  0  0  1  0  0  0  0  0999 V2000
   20.5216  -12.7820  -17.8930 C   0  0  0  0  0  0  0  0  0  0  0  0
   20.2940  -11.2969  -18.0340 C   0  0  2  0  0  0  0  0  0  0  0  0
   20.9313  -10.7304  -19.1849 N   0  0  0  0  0  0  0  0  0  0  0  0
   20.8497  -10.6402  -16.8037 C   0  0  0  0  0  0  0  0  0  0  0  0
   20.4250  -10.9664  -15.6545 O   0  0  0  0  0  0  0  0  0  0  0  0
   21.8496   -9.6500  -16.8683 N   0  0  0  0  0  0  0  0  0  0  0  0
   22.3762   -9.0658  -15.6709 C   0  0  0  0  0  0  0  0  0  0  0  0
   22.2865   -7.5640  -15.7285 C   0  0  0  0  0  0  0  0  0  0  0  0
   22.7688   -6.9114  -16.7005 O   0  0  0  0  0  0  0  0  0  0  0  0
   21.6626   -6.8178  -14.7032 N   0  0  0  0  0  0  0  0  0  0  0  0
   21.4781   -5.3680  -14.7601 C   0  0  1  0  0  0  0  0  0  0  0  0
   20.0054   -5.1294  -14.7612 C   0  0  0  0  0  0  0  0  0  0  0  0
   19.2810   -5.6038  -15.9860 C   0  0  0  0  0  0  0  0  0  0  0  0
   18.0753   -6.3407  -15.5471 C   0  0  0  0  0  0  0  0  0  0  0  0
   18.1707   -7.4530  -14.9810 O   0  0  0  0  0  0  0  0  0  0  0  0
   22.1843   -4.7603  -13.6253 C   0  0  0  0  0  0  0  0  0  0  0  0
   22.5662   -5.4714  -12.6732 O   0  0  0  0  0  0  0  0  0  0  0  0
   16.8137   -5.8173  -15.7520 O   0  0  0  0  0  0  0  0  0  0  0  0
   22.4517   -3.4081  -13.5605 O   0  0  0  0  0  0  0  0  0  0  0  0
  2  3  1  0
  2  1  1  1
  4  2  1  0
  5  4  2  0
  6  4  1  0
  7  6  1  0
  8 10  1  0
  8  7  1  0
  9  8  2  0
 11 16  1  0
 11 10  1  0
 11 12  1  1
 12 13  1  0
 13 14  1  0
 14 15  2  0
 14 18  1  0
 16 19  1  0
 17 16  2  0
M  END
$$$$
