IIC.pdb
     RDKit          3D

 23 22  0  0  1  0  0  0  0  0999 V2000
    7.9639  -12.0204   19.7341 C   0  0  0  0  0  0  0  0  0  0  0  0
    7.6396  -13.1097   20.7259 C   0  0  0  0  0  0  0  0  0  0  0  0
    8.0831  -14.4750   20.2394 C   0  0  2  0  0  0  0  0  0  0  0  0
    7.4563  -14.7317   18.9110 C   0  0  0  0  0  0  0  0  0  0  0  0
    7.8077  -15.5348   21.2834 C   0  0  2  0  0  0  0  0  0  0  0  0
    6.3376  -15.4851   21.4543 N   0  0  0  0  0  0  0  0  0  0  0  0
    8.3932  -15.1672   22.5765 C   0  0  0  0  0  0  0  0  0  0  0  0
    9.6641  -15.1044   22.7090 O   0  0  0  0  0  0  0  0  0  0  0  0
    5.8629  -11.8197   25.9832 C   0  0  0  0  0  0  0  0  0  0  0  0
    6.9456  -12.5423   25.2141 C   0  0  0  0  0  0  0  0  0  0  0  0
    7.3884  -13.8009   25.9317 C   0  0  2  0  0  0  0  0  0  0  0  0
    8.0314  -13.4402   27.2288 C   0  0  0  0  0  0  0  0  0  0  0  0
    8.3430  -14.6081   25.0297 C   0  0  2  0  0  0  0  0  0  0  0  0
    7.6786  -14.8514   23.7693 N   0  0  0  0  0  0  0  0  0  0  0  0
    8.7061  -15.7944   25.7965 C   0  0  0  0  0  0  0  0  0  0  0  0
    7.7205  -16.5334   26.1436 O   0  0  0  0  0  0  0  0  0  0  0  0
    9.9887  -16.2110   26.1897 N   0  0  0  0  0  0  0  0  0  0  0  0
   10.2452  -17.6311   26.4235 C   0  0  1  0  0  0  0  0  0  0  0  0
   10.6318  -18.3383   25.1457 C   0  0  0  0  0  0  0  0  0  0  0  0
    9.1157  -19.0597   24.4534 S   0  0  0  0  0  0  0  0  0  0  0  0
   11.4031  -17.7227   27.3446 C   0  0  0  0  0  0  0  0  0  0  0  0
   11.8498  -18.8244   27.7636 O   0  0  0  0  0  0  0  0  0  0  0  0
   12.0497  -16.5802   27.7879 O   0  0  0  0  0  0  0  0  0  0  0  0
  1  2  1  0
  3  2  1  0
  3  4  1  6
  5  3  1  0
  5  6  1  1
  7  8  2  0
  7  5  1  0
  9 10  1  0
 10 11  1  0
 11 13  1  0
 11 12  1  1
 13 14  1  6
 14  7  1  0
 15 17  1  0
 15 13  1  0
 16 15  2  0
 18 17  1  0
 18 21  1  0
 18 19  1  6
 20 19  1  0
 21 23  1  0
 22 21  2  0
M  END
$$$$
