IIC.pdb
     RDKit          3D

 23 22  0  0  1  0  0  0  0  0999 V2000
    2.4402  -17.9250   21.6438 C   0  0  0  0  0  0  0  0  0  0  0  0
    3.9008  -18.2840   21.5299 C   0  0  0  0  0  0  0  0  0  0  0  0
    4.8006  -17.1957   22.0810 C   0  0  2  0  0  0  0  0  0  0  0  0
    5.4394  -16.4841   20.9370 C   0  0  0  0  0  0  0  0  0  0  0  0
    5.7709  -17.7608   23.0949 C   0  0  2  0  0  0  0  0  0  0  0  0
    4.9300  -17.9997   24.2901 N   0  0  0  0  0  0  0  0  0  0  0  0
    6.7736  -16.7625   23.4799 C   0  0  0  0  0  0  0  0  0  0  0  0
    7.7756  -16.5348   22.7179 O   0  0  0  0  0  0  0  0  0  0  0  0
    5.7544  -12.5824   26.8950 C   0  0  0  0  0  0  0  0  0  0  0  0
    6.3141  -13.4201   25.7678 C   0  0  0  0  0  0  0  0  0  0  0  0
    7.4790  -14.2690   26.2344 C   0  0  2  0  0  0  0  0  0  0  0  0
    8.5971  -13.3870   26.6794 C   0  0  0  0  0  0  0  0  0  0  0  0
    7.9202  -15.2181   25.1027 C   0  0  2  0  0  0  0  0  0  0  0  0
    6.7655  -15.9690   24.6646 N   0  0  0  0  0  0  0  0  0  0  0  0
    9.0200  -16.0044   25.6497 C   0  0  0  0  0  0  0  0  0  0  0  0
    8.8774  -16.3506   26.8736 O   0  0  0  0  0  0  0  0  0  0  0  0
   10.1947  -16.4178   24.9999 N   0  0  0  0  0  0  0  0  0  0  0  0
   11.1561  -17.2569   25.7132 C   0  0  1  0  0  0  0  0  0  0  0  0
   11.3843  -18.5657   24.9939 C   0  0  0  0  0  0  0  0  0  0  0  0
    9.7707  -19.3872   24.8525 S   0  0  0  0  0  0  0  0  0  0  0  0
   12.4484  -16.5309   25.7261 C   0  0  0  0  0  0  0  0  0  0  0  0
   12.6066  -15.4193   25.1532 O   0  0  0  0  0  0  0  0  0  0  0  0
   13.5513  -17.0561   26.3801 O   0  0  0  0  0  0  0  0  0  0  0  0
  1  2  1  0
  3  2  1  0
  3  4  1  6
  5  3  1  0
  5  6  1  1
  7  8  2  0
  7  5  1  0
  9 10  1  0
 10 11  1  0
 11 13  1  0
 11 12  1  6
 13 14  1  1
 14  7  1  0
 15 17  1  0
 15 13  1  0
 16 15  2  0
 18 17  1  0
 18 21  1  0
 18 19  1  6
 20 19  1  0
 21 23  1  0
 22 21  2  0
M  END
$$$$
