IIC.pdb
     RDKit          3D

 23 22  0  0  1  0  0  0  0  0999 V2000
    7.8580  -11.3379   27.2594 C   0  0  0  0  0  0  0  0  0  0  0  0
    8.0783  -12.8247   27.1316 C   0  0  0  0  0  0  0  0  0  0  0  0
    7.2052  -13.4406   26.0565 C   0  0  2  0  0  0  0  0  0  0  0  0
    5.7785  -13.1568   26.3840 C   0  0  0  0  0  0  0  0  0  0  0  0
    7.5315  -14.9063   25.8714 C   0  0  2  0  0  0  0  0  0  0  0  0
    8.9966  -14.9683   26.0772 N   0  0  0  0  0  0  0  0  0  0  0  0
    7.2832  -15.3324   24.4904 C   0  0  0  0  0  0  0  0  0  0  0  0
    6.2372  -16.0130   24.2088 O   0  0  0  0  0  0  0  0  0  0  0  0
    8.0891  -11.9225   20.6636 C   0  0  0  0  0  0  0  0  0  0  0  0
    7.5613  -13.0766   21.4853 C   0  0  0  0  0  0  0  0  0  0  0  0
    8.1553  -14.3951   21.0336 C   0  0  2  0  0  0  0  0  0  0  0  0
    7.6902  -14.7085   19.6510 C   0  0  0  0  0  0  0  0  0  0  0  0
    7.7717  -15.5088   22.0280 C   0  0  2  0  0  0  0  0  0  0  0  0
    8.1104  -15.0633   23.3607 N   0  0  0  0  0  0  0  0  0  0  0  0
    8.4589  -16.7089   21.5648 C   0  0  0  0  0  0  0  0  0  0  0  0
    8.2881  -16.9827   20.3263 O   0  0  0  0  0  0  0  0  0  0  0  0
    9.2713  -17.5816   22.3075 N   0  0  0  0  0  0  0  0  0  0  0  0
   10.5305  -18.0561   21.7361 C   0  0  1  0  0  0  0  0  0  0  0  0
   11.4404  -16.9048   21.3770 C   0  0  0  0  0  0  0  0  0  0  0  0
   13.0015  -17.6205   20.7862 S   0  0  0  0  0  0  0  0  0  0  0  0
   11.2170  -18.8493   22.7835 C   0  0  0  0  0  0  0  0  0  0  0  0
   11.0254  -18.6558   24.0143 O   0  0  0  0  0  0  0  0  0  0  0  0
   12.1114  -19.8513   22.4432 O   0  0  0  0  0  0  0  0  0  0  0  0
  1  2  1  0
  3  2  1  0
  3  4  1  1
  5  3  1  0
  5  6  1  6
  7  8  2  0
  7  5  1  0
  9 10  1  0
 10 11  1  0
 11 13  1  0
 11 12  1  6
 13 14  1  1
 14  7  1  0
 15 17  1  0
 15 13  1  0
 16 15  2  0
 18 17  1  0
 18 21  1  0
 18 19  1  1
 20 19  1  0
 21 23  1  0
 22 21  2  0
M  END
$$$$
