IIC.pdb
     RDKit          3D

 23 22  0  0  1  0  0  0  0  0999 V2000
    6.6931  -18.0601   18.9022 C   0  0  0  0  0  0  0  0  0  0  0  0
    6.6709  -16.6022   19.2890 C   0  0  0  0  0  0  0  0  0  0  0  0
    7.3772  -16.3505   20.6063 C   0  0  2  0  0  0  0  0  0  0  0  0
    6.9352  -17.3837   21.5863 C   0  0  0  0  0  0  0  0  0  0  0  0
    7.1765  -14.9216   21.0610 C   0  0  2  0  0  0  0  0  0  0  0  0
    7.8168  -14.1203   19.9929 N   0  0  0  0  0  0  0  0  0  0  0  0
    7.9223  -14.6498   22.2939 C   0  0  0  0  0  0  0  0  0  0  0  0
    9.1980  -14.5592   22.2635 O   0  0  0  0  0  0  0  0  0  0  0  0
    5.8898  -11.7278   26.4115 C   0  0  0  0  0  0  0  0  0  0  0  0
    6.8983  -12.3147   25.4500 C   0  0  0  0  0  0  0  0  0  0  0  0
    7.3456  -13.6935   25.8902 C   0  0  2  0  0  0  0  0  0  0  0  0
    8.1076  -13.5904   27.1689 C   0  0  0  0  0  0  0  0  0  0  0  0
    8.1882  -14.3492   24.7783 C   0  0  2  0  0  0  0  0  0  0  0  0
    7.3675  -14.4612   23.5938 N   0  0  0  0  0  0  0  0  0  0  0  0
    8.6740  -15.6059   25.3366 C   0  0  0  0  0  0  0  0  0  0  0  0
    7.7612  -16.4557   25.6238 O   0  0  0  0  0  0  0  0  0  0  0  0
   10.0031  -15.9835   25.5897 N   0  0  0  0  0  0  0  0  0  0  0  0
   10.2958  -17.3520   26.0124 C   0  0  1  0  0  0  0  0  0  0  0  0
   11.5318  -17.8870   25.3280 C   0  0  0  0  0  0  0  0  0  0  0  0
   11.9629  -19.4498   26.1467 S   0  0  0  0  0  0  0  0  0  0  0  0
   10.5808  -17.3113   27.4665 C   0  0  0  0  0  0  0  0  0  0  0  0
   10.7463  -16.2308   28.0943 O   0  0  0  0  0  0  0  0  0  0  0  0
   10.6779  -18.4803   28.2040 O   0  0  0  0  0  0  0  0  0  0  0  0
  1  2  1  0
  3  2  1  0
  3  4  1  1
  5  3  1  0
  5  6  1  6
  7  8  2  0
  7  5  1  0
  9 10  1  0
 10 11  1  0
 11 13  1  0
 11 12  1  1
 13 14  1  6
 14  7  1  0
 15 17  1  0
 15 13  1  0
 16 15  2  0
 18 17  1  0
 18 21  1  0
 18 19  1  6
 20 19  1  0
 21 23  1  0
 22 21  2  0
M  END
$$$$
