IIC.pdb
     RDKit          3D

 23 22  0  0  1  0  0  0  0  0999 V2000
    6.7508  -11.7599   27.9802 C   0  0  0  0  0  0  0  0  0  0  0  0
    5.9978  -12.6815   27.0533 C   0  0  0  0  0  0  0  0  0  0  0  0
    6.9295  -13.5077   26.1891 C   0  0  2  0  0  0  0  0  0  0  0  0
    7.9635  -12.6040   25.6082 C   0  0  0  0  0  0  0  0  0  0  0  0
    6.1498  -14.3118   25.1721 C   0  0  2  0  0  0  0  0  0  0  0  0
    5.4769  -15.3495   25.9865 N   0  0  0  0  0  0  0  0  0  0  0  0
    7.0497  -15.0171   24.2540 C   0  0  0  0  0  0  0  0  0  0  0  0
    7.4731  -16.1884   24.5463 O   0  0  0  0  0  0  0  0  0  0  0  0
    7.7823  -12.5278   19.6632 C   0  0  0  0  0  0  0  0  0  0  0  0
    7.4913  -13.8332   20.3682 C   0  0  0  0  0  0  0  0  0  0  0  0
    8.7568  -14.4611   20.9153 C   0  0  2  0  0  0  0  0  0  0  0  0
    9.4067  -15.2870   19.8561 C   0  0  0  0  0  0  0  0  0  0  0  0
    8.4257  -15.2995   22.1658 C   0  0  2  0  0  0  0  0  0  0  0  0
    7.5350  -14.5301   23.0048 N   0  0  0  0  0  0  0  0  0  0  0  0
    9.7104  -15.6534   22.7586 C   0  0  0  0  0  0  0  0  0  0  0  0
   10.4537  -14.6579   23.0660 O   0  0  0  0  0  0  0  0  0  0  0  0
   10.2154  -16.9365   23.0262 N   0  0  0  0  0  0  0  0  0  0  0  0
   11.5191  -17.0778   23.6724 C   0  0  1  0  0  0  0  0  0  0  0  0
   11.5117  -18.1962   24.6880 C   0  0  0  0  0  0  0  0  0  0  0  0
   10.2810  -17.7636   25.9516 S   0  0  0  0  0  0  0  0  0  0  0  0
   12.4941  -17.4470   22.6186 C   0  0  0  0  0  0  0  0  0  0  0  0
   12.1473  -17.6989   21.4332 O   0  0  0  0  0  0  0  0  0  0  0  0
   13.8479  -17.5307   22.9017 O   0  0  0  0  0  0  0  0  0  0  0  0
  1  2  1  0
  3  2  1  0
  3  4  1  6
  5  3  1  0
  5  6  1  1
  7  8  2  0
  7  5  1  0
  9 10  1  0
 10 11  1  0
 11 13  1  0
 11 12  1  6
 13 14  1  1
 14  7  1  0
 15 17  1  0
 15 13  1  0
 16 15  2  0
 18 17  1  0
 18 21  1  0
 18 19  1  1
 20 19  1  0
 21 23  1  0
 22 21  2  0
M  END
$$$$
