EAI.pdb
     RDKit          3D

 23 22  0  0  1  0  0  0  0  0999 V2000
   20.0199  -14.5617  -16.4662 N   0  0  0  0  0  0  0  0  0  0  0  0
   19.5497  -13.5964  -17.4173 C   0  0  1  0  0  0  0  0  0  0  0  0
   18.1049  -13.8034  -17.7067 C   0  0  0  0  0  0  0  0  0  0  0  0
   17.7589  -14.5147  -18.9560 C   0  0  0  0  0  0  0  0  0  0  0  0
   16.7761  -15.5928  -18.8617 C   0  0  0  0  0  0  0  0  0  0  0  0
   16.3850  -15.9001  -17.6827 O   0  0  0  0  0  0  0  0  0  0  0  0
   19.8054  -12.2244  -16.9077 C   0  0  0  0  0  0  0  0  0  0  0  0
   19.4124  -11.9800  -15.7089 O   0  0  0  0  0  0  0  0  0  0  0  0
   16.2185  -16.3142  -19.8812 O   0  0  0  0  0  0  0  0  0  0  0  0
   21.5771   -9.0674  -17.7493 C   0  0  0  0  0  0  0  0  0  0  0  0
   20.5691   -9.8747  -16.9722 C   0  0  2  0  0  0  0  0  0  0  0  0
   20.4269  -11.1776  -17.6012 N   0  0  0  0  0  0  0  0  0  0  0  0
   19.2574   -9.1818  -16.8602 C   0  0  0  0  0  0  0  0  0  0  0  0
   18.4440   -9.3117  -17.7929 O   0  0  0  0  0  0  0  0  0  0  0  0
   15.4717  -10.3234  -13.8992 C   0  0  0  0  0  0  0  0  0  0  0  0
   16.2618   -9.6300  -14.9509 C   0  0  0  0  0  0  0  0  0  0  0  0
   16.7674   -8.2755  -14.6417 C   0  0  2  0  0  0  0  0  0  0  0  0
   15.7464   -7.3596  -13.9998 C   0  0  0  0  0  0  0  0  0  0  0  0
   17.6490   -7.6253  -15.6498 C   0  0  2  0  0  0  0  0  0  0  0  0
   18.8928   -8.3881  -15.7530 N   0  0  0  0  0  0  0  0  0  0  0  0
   17.8947   -6.1974  -15.5187 C   0  0  0  0  0  0  0  0  0  0  0  0
   17.0924   -5.3320  -16.0295 O   0  0  0  0  0  0  0  0  0  0  0  0
   18.9666   -5.6286  -14.8577 O   0  0  0  0  0  0  0  0  0  0  0  0
  2  3  1  0
  2  1  1  1
  4  5  1  0
  4  3  1  0
  5  6  2  0
  7  2  1  0
  8  7  2  0
  9  5  1  0
 11 10  1  6
 11 12  1  0
 12  7  1  0
 13 11  1  0
 13 20  1  0
 14 13  2  0
 16 15  1  0
 17 18  1  6
 17 16  1  0
 19 20  1  1
 19 17  1  0
 21 23  1  0
 21 19  1  0
 22 21  2  0
M  END
$$$$
