EAI.pdb
     RDKit          3D

 23 22  0  0  1  0  0  0  0  0999 V2000
   17.0519  -13.7876  -17.2898 N   0  0  0  0  0  0  0  0  0  0  0  0
   16.5258  -12.4532  -17.2787 C   0  0  1  0  0  0  0  0  0  0  0  0
   15.6503  -12.2425  -16.0942 C   0  0  0  0  0  0  0  0  0  0  0  0
   14.4155  -13.0518  -16.0113 C   0  0  0  0  0  0  0  0  0  0  0  0
   14.1802  -13.7878  -14.7704 C   0  0  0  0  0  0  0  0  0  0  0  0
   14.5499  -15.0128  -14.7605 O   0  0  0  0  0  0  0  0  0  0  0  0
   17.6425  -11.4735  -17.3038 C   0  0  0  0  0  0  0  0  0  0  0  0
   18.7557  -11.8662  -16.7958 O   0  0  0  0  0  0  0  0  0  0  0  0
   13.6145  -13.3269  -13.6135 O   0  0  0  0  0  0  0  0  0  0  0  0
   18.5545   -8.1282  -18.6646 C   0  0  0  0  0  0  0  0  0  0  0  0
   18.8032   -9.3545  -17.8243 C   0  0  2  0  0  0  0  0  0  0  0  0
   17.6013  -10.1722  -17.8214 N   0  0  0  0  0  0  0  0  0  0  0  0
   19.2284   -9.0128  -16.4402 C   0  0  0  0  0  0  0  0  0  0  0  0
   18.3511   -8.9236  -15.5623 O   0  0  0  0  0  0  0  0  0  0  0  0
   21.7743  -10.1301  -11.7704 C   0  0  0  0  0  0  0  0  0  0  0  0
   22.4492   -9.3651  -12.8523 C   0  0  0  0  0  0  0  0  0  0  0  0
   21.9165   -9.5102  -14.2238 C   0  0  2  0  0  0  0  0  0  0  0  0
   22.9191  -10.0336  -15.2308 C   0  0  0  0  0  0  0  0  0  0  0  0
   21.0213   -8.4337  -14.7298 C   0  0  2  0  0  0  0  0  0  0  0  0
   20.5720   -8.7858  -16.0766 N   0  0  0  0  0  0  0  0  0  0  0  0
   21.4982   -7.0614  -14.6559 C   0  0  0  0  0  0  0  0  0  0  0  0
   21.4997   -6.4138  -13.5449 O   0  0  0  0  0  0  0  0  0  0  0  0
   21.9868   -6.3270  -15.7195 O   0  0  0  0  0  0  0  0  0  0  0  0
  2  3  1  0
  2  1  1  1
  4  5  1  0
  4  3  1  0
  5  6  2  0
  7  2  1  0
  8  7  2  0
  9  5  1  0
 11 10  1  6
 11 12  1  0
 12  7  1  0
 13 11  1  0
 13 20  1  0
 14 13  2  0
 16 15  1  0
 17 18  1  6
 17 16  1  0
 19 20  1  6
 19 17  1  0
 21 23  1  0
 21 19  1  0
 22 21  2  0
M  END
$$$$
