EAI.pdb
     RDKit          3D

 23 22  0  0  1  0  0  0  0  0999 V2000
   16.9040  -10.8272  -18.0418 N   0  0  0  0  0  0  0  0  0  0  0  0
   16.5560   -9.9946  -16.9269 C   0  0  1  0  0  0  0  0  0  0  0  0
   16.4386  -10.8027  -15.6831 C   0  0  0  0  0  0  0  0  0  0  0  0
   15.2093  -11.6061  -15.5101 C   0  0  0  0  0  0  0  0  0  0  0  0
   15.0557  -12.3310  -14.2500 C   0  0  0  0  0  0  0  0  0  0  0  0
   14.4661  -13.4646  -14.3178 O   0  0  0  0  0  0  0  0  0  0  0  0
   17.5642   -8.9141  -16.7737 C   0  0  0  0  0  0  0  0  0  0  0  0
   18.7881   -9.2434  -16.9858 O   0  0  0  0  0  0  0  0  0  0  0  0
   15.4684  -11.9478  -13.0036 O   0  0  0  0  0  0  0  0  0  0  0  0
   17.8435   -5.2419  -16.6328 C   0  0  0  0  0  0  0  0  0  0  0  0
   18.4049   -6.6207  -16.3972 C   0  0  2  0  0  0  0  0  0  0  0  0
   17.3141   -7.5813  -16.4215 N   0  0  0  0  0  0  0  0  0  0  0  0
   19.1736   -6.7069  -15.1264 C   0  0  0  0  0  0  0  0  0  0  0  0
   18.5448   -6.9193  -14.0739 O   0  0  0  0  0  0  0  0  0  0  0  0
   23.8259   -9.5966  -14.3797 C   0  0  0  0  0  0  0  0  0  0  0  0
   23.1612   -8.2778  -14.5538 C   0  0  0  0  0  0  0  0  0  0  0  0
   21.9613   -8.0059  -13.7339 C   0  0  2  0  0  0  0  0  0  0  0  0
   20.9637   -9.1444  -13.6906 C   0  0  0  0  0  0  0  0  0  0  0  0
   21.3603   -6.6470  -13.8265 C   0  0  2  0  0  0  0  0  0  0  0  0
   20.5745   -6.5599  -15.0572 N   0  0  0  0  0  0  0  0  0  0  0  0
   22.2406   -5.5009  -13.6598 C   0  0  0  0  0  0  0  0  0  0  0  0
   22.4757   -4.6925  -14.6318 O   0  0  0  0  0  0  0  0  0  0  0  0
   22.8946   -5.1590  -12.4916 O   0  0  0  0  0  0  0  0  0  0  0  0
  2  3  1  0
  2  1  1  6
  4  5  1  0
  4  3  1  0
  5  6  2  0
  7  2  1  0
  8  7  2  0
  9  5  1  0
 11 10  1  1
 11 12  1  0
 12  7  1  0
 13 11  1  0
 13 20  1  0
 14 13  2  0
 16 15  1  0
 17 18  1  6
 17 16  1  0
 19 20  1  6
 19 17  1  0
 21 23  1  0
 21 19  1  0
 22 21  2  0
M  END
$$$$
