EAI.pdb
     RDKit          3D

 23 22  0  0  1  0  0  0  0  0999 V2000
   16.4147  -13.0628  -17.8321 N   0  0  0  0  0  0  0  0  0  0  0  0
   16.0160  -11.7050  -17.5976 C   0  0  1  0  0  0  0  0  0  0  0  0
   15.3888  -11.5651  -16.2557 C   0  0  0  0  0  0  0  0  0  0  0  0
   14.1463  -12.3268  -16.0053 C   0  0  0  0  0  0  0  0  0  0  0  0
   13.4591  -12.0877  -14.7374 C   0  0  0  0  0  0  0  0  0  0  0  0
   12.3933  -11.3822  -14.7960 O   0  0  0  0  0  0  0  0  0  0  0  0
   17.1902  -10.8057  -17.7394 C   0  0  0  0  0  0  0  0  0  0  0  0
   18.3441  -11.3453  -17.5696 O   0  0  0  0  0  0  0  0  0  0  0  0
   13.8138  -12.5290  -13.4923 O   0  0  0  0  0  0  0  0  0  0  0  0
   18.1446   -7.3676  -18.7801 C   0  0  0  0  0  0  0  0  0  0  0  0
   18.4048   -8.6821  -18.0901 C   0  0  2  0  0  0  0  0  0  0  0  0
   17.1635   -9.4367  -18.0361 N   0  0  0  0  0  0  0  0  0  0  0  0
   18.9873   -8.5010  -16.7331 C   0  0  0  0  0  0  0  0  0  0  0  0
   18.2103   -8.4596  -15.7621 O   0  0  0  0  0  0  0  0  0  0  0  0
   22.8680  -11.5724  -15.2118 C   0  0  0  0  0  0  0  0  0  0  0  0
   21.7967  -10.5651  -15.4336 C   0  0  0  0  0  0  0  0  0  0  0  0
   22.0626   -9.1792  -14.9928 C   0  0  2  0  0  0  0  0  0  0  0  0
   22.8117   -9.0742  -13.6808 C   0  0  0  0  0  0  0  0  0  0  0  0
   20.9747   -8.1798  -15.1768 C   0  0  2  0  0  0  0  0  0  0  0  0
   20.3716   -8.3742  -16.4952 N   0  0  0  0  0  0  0  0  0  0  0  0
   21.2844   -6.7818  -14.9200 C   0  0  0  0  0  0  0  0  0  0  0  0
   21.6492   -5.9936  -15.8683 O   0  0  0  0  0  0  0  0  0  0  0  0
   21.2225   -6.1634  -13.6859 O   0  0  0  0  0  0  0  0  0  0  0  0
  2  3  1  0
  2  1  1  1
  4  5  1  0
  4  3  1  0
  5  6  2  0
  7  2  1  0
  8  7  2  0
  9  5  1  0
 11 10  1  1
 11 12  1  0
 12  7  1  0
 13 11  1  0
 13 20  1  0
 14 13  2  0
 16 15  1  0
 17 18  1  1
 17 16  1  0
 19 20  1  6
 19 17  1  0
 21 23  1  0
 21 19  1  0
 22 21  2  0
M  END
$$$$
