EAI.pdb
     RDKit          3D

 23 22  0  0  1  0  0  0  0  0999 V2000
   14.5803  -17.8441    4.5878 N   0  0  0  0  0  0  0  0  0  0  0  0
   15.3845  -18.1518    5.7350 C   0  0  1  0  0  0  0  0  0  0  0  0
   16.5751  -18.9536    5.3432 C   0  0  0  0  0  0  0  0  0  0  0  0
   16.3420  -20.3513    4.9205 C   0  0  0  0  0  0  0  0  0  0  0  0
   17.4909  -21.0953    4.4071 C   0  0  0  0  0  0  0  0  0  0  0  0
   17.8616  -20.8121    3.2156 O   0  0  0  0  0  0  0  0  0  0  0  0
   15.7834  -16.8950    6.4197 C   0  0  0  0  0  0  0  0  0  0  0  0
   15.9370  -15.8625    5.6701 O   0  0  0  0  0  0  0  0  0  0  0  0
   18.2231  -22.0578    5.0459 O   0  0  0  0  0  0  0  0  0  0  0  0
   16.0254  -15.3716    9.7827 C   0  0  0  0  0  0  0  0  0  0  0  0
   16.3593  -15.4153    8.3136 C   0  0  2  0  0  0  0  0  0  0  0  0
   16.0088  -16.7262    7.7922 N   0  0  0  0  0  0  0  0  0  0  0  0
   17.7875  -15.0925    8.0502 C   0  0  0  0  0  0  0  0  0  0  0  0
   18.5925  -16.0357    7.9459 O   0  0  0  0  0  0  0  0  0  0  0  0
   18.9297  -11.6463    4.2603 C   0  0  0  0  0  0  0  0  0  0  0  0
   18.9458  -12.6937    5.3157 C   0  0  0  0  0  0  0  0  0  0  0  0
   19.6965  -12.4007    6.5553 C   0  0  2  0  0  0  0  0  0  0  0  0
   21.0464  -11.7527    6.3292 C   0  0  0  0  0  0  0  0  0  0  0  0
   19.6639  -13.4245    7.6356 C   0  0  2  0  0  0  0  0  0  0  0  0
   18.2713  -13.7748    7.9138 N   0  0  0  0  0  0  0  0  0  0  0  0
   20.4111  -13.1522    8.8537 C   0  0  0  0  0  0  0  0  0  0  0  0
   19.8977  -12.4669    9.8130 O   0  0  0  0  0  0  0  0  0  0  0  0
   21.6989  -13.5807    9.1137 O   0  0  0  0  0  0  0  0  0  0  0  0
  2  3  1  0
  2  1  1  6
  4  5  1  0
  4  3  1  0
  5  6  2  0
  7  2  1  0
  8  7  2  0
  9  5  1  0
 11 10  1  1
 11 12  1  0
 12  7  1  0
 13 11  1  0
 13 20  1  0
 14 13  2  0
 16 15  1  0
 17 18  1  6
 17 16  1  0
 19 20  1  1
 19 17  1  0
 21 23  1  0
 21 19  1  0
 22 21  2  0
M  END
$$$$
