EAI.pdb
     RDKit          3D

 23 22  0  0  1  0  0  0  0  0999 V2000
   17.7291  -12.5261  -20.1877 N   0  0  0  0  0  0  0  0  0  0  0  0
   19.1082  -12.5412  -19.7933 C   0  0  1  0  0  0  0  0  0  0  0  0
   19.9644  -13.0614  -20.8934 C   0  0  0  0  0  0  0  0  0  0  0  0
   19.7561  -14.4652  -21.3087 C   0  0  0  0  0  0  0  0  0  0  0  0
   20.1956  -15.5086  -20.3839 C   0  0  0  0  0  0  0  0  0  0  0  0
   21.4602  -15.6446  -20.2442 O   0  0  0  0  0  0  0  0  0  0  0  0
   19.5279  -11.1761  -19.3840 C   0  0  0  0  0  0  0  0  0  0  0  0
   20.7355  -11.0546  -18.9617 O   0  0  0  0  0  0  0  0  0  0  0  0
   19.4198  -16.3583  -19.6444 O   0  0  0  0  0  0  0  0  0  0  0  0
   18.3268   -7.6489  -19.2724 C   0  0  0  0  0  0  0  0  0  0  0  0
   19.2900   -8.7577  -18.9337 C   0  0  2  0  0  0  0  0  0  0  0  0
   18.7420  -10.0166  -19.4113 N   0  0  0  0  0  0  0  0  0  0  0  0
   19.5925   -8.8167  -17.4783 C   0  0  0  0  0  0  0  0  0  0  0  0
   18.7632   -9.3630  -16.7285 O   0  0  0  0  0  0  0  0  0  0  0  0
   23.3945  -10.7489  -13.5485 C   0  0  0  0  0  0  0  0  0  0  0  0
   22.4584   -9.6242  -13.8132 C   0  0  0  0  0  0  0  0  0  0  0  0
   22.1067   -9.3475  -15.2223 C   0  0  2  0  0  0  0  0  0  0  0  0
   23.2883   -9.3332  -16.1694 C   0  0  0  0  0  0  0  0  0  0  0  0
   21.0816   -8.2994  -15.4808 C   0  0  2  0  0  0  0  0  0  0  0  0
   20.7687   -8.2855  -16.9096 N   0  0  0  0  0  0  0  0  0  0  0  0
   21.3305   -6.9623  -14.9645 C   0  0  0  0  0  0  0  0  0  0  0  0
   21.1844   -6.6905  -13.7162 O   0  0  0  0  0  0  0  0  0  0  0  0
   21.7380   -5.8779  -15.7179 O   0  0  0  0  0  0  0  0  0  0  0  0
  2  3  1  0
  2  1  1  6
  4  5  1  0
  4  3  1  0
  5  6  2  0
  7  2  1  0
  8  7  2  0
  9  5  1  0
 11 10  1  1
 11 12  1  0
 12  7  1  0
 13 11  1  0
 13 20  1  0
 14 13  2  0
 16 15  1  0
 17 18  1  6
 17 16  1  0
 19 20  1  6
 19 17  1  0
 21 23  1  0
 21 19  1  0
 22 21  2  0
M  END
$$$$
