QLL.pdb
     RDKit          3D

 26 25  0  0  1  0  0  0  0  0999 V2000
   12.8735  -18.8359   17.4642 N   0  0  0  0  0  0  0  0  0  0  0  0
   12.2493  -19.9989   18.0019 C   0  0  0  0  0  0  0  0  0  0  0  0
   12.4659  -21.1011   17.4436 O   0  0  0  0  0  0  0  0  0  0  0  0
   11.3670  -19.9528   19.1791 C   0  0  0  0  0  0  0  0  0  0  0  0
   11.2170  -18.5492   19.6583 C   0  0  0  0  0  0  0  0  0  0  0  0
   10.5496  -18.4470   21.0042 C   0  0  2  0  0  0  0  0  0  0  0  0
    9.2736  -19.1039   20.9785 N   0  0  0  0  0  0  0  0  0  0  0  0
   10.4707  -17.0351   21.4339 C   0  0  0  0  0  0  0  0  0  0  0  0
   11.5476  -16.4714   21.7554 O   0  0  0  0  0  0  0  0  0  0  0  0
    8.6903  -13.8933   19.2071 C   0  0  0  0  0  0  0  0  0  0  0  0
    7.9929  -13.2869   20.4110 C   0  0  1  0  0  0  0  0  0  0  0  0
    6.7680  -12.5381   20.0216 C   0  0  0  0  0  0  0  0  0  0  0  0
    7.8535  -14.2584   21.5257 C   0  0  0  0  0  0  0  0  0  0  0  0
    9.1279  -14.9626   21.9301 C   0  0  2  0  0  0  0  0  0  0  0  0
    9.2396  -16.3128   21.4928 N   0  0  0  0  0  0  0  0  0  0  0  0
    9.3501  -14.7840   23.3750 C   0  0  0  0  0  0  0  0  0  0  0  0
   10.2483  -13.9973   23.8243 O   0  0  0  0  0  0  0  0  0  0  0  0
    6.5144  -12.3668   26.6687 C   0  0  0  0  0  0  0  0  0  0  0  0
    7.8183  -12.9323   26.0549 C   0  0  1  0  0  0  0  0  0  0  0  0
    8.9412  -12.1746   26.7248 C   0  0  0  0  0  0  0  0  0  0  0  0
    7.8583  -14.3584   26.4431 C   0  0  0  0  0  0  0  0  0  0  0  0
    8.8124  -15.2578   25.7479 C   0  0  2  0  0  0  0  0  0  0  0  0
    8.5783  -15.4751   24.3421 N   0  0  0  0  0  0  0  0  0  0  0  0
    8.8358  -16.5593   26.4461 C   0  0  0  0  0  0  0  0  0  0  0  0
    8.6237  -17.7301   25.7462 O   0  0  0  0  0  0  0  0  0  0  0  0
    9.0486  -16.5955   27.6726 O   0  0  0  0  0  0  0  0  0  0  0  0
  2  1  1  0
  3  2  2  0
  4  2  1  0
  5  4  1  0
  5  6  1  0
  6  8  1  0
  6  7  1  6
  8  9  2  0
 11 10  1  6
 12 11  1  0
 13 11  1  0
 14 13  1  1
 15  8  1  0
 15 14  1  0
 16 14  1  0
 16 17  2  0
 19 18  1  1
 19 21  1  0
 19 20  1  0
 22 21  1  1
 22 23  1  0
 23 16  1  0
 24 25  1  0
 24 22  1  0
 26 24  2  0
M  END
$$$$
