QLL.pdb
     RDKit          3D

 26 25  0  0  1  0  0  0  0  0999 V2000
   10.7293  -17.7925   17.6601 N   0  0  0  0  0  0  0  0  0  0  0  0
    9.7424  -18.7753   17.9625 C   0  0  0  0  0  0  0  0  0  0  0  0
    9.3596  -19.5356   17.0412 O   0  0  0  0  0  0  0  0  0  0  0  0
    9.1616  -18.9284   19.3063 C   0  0  0  0  0  0  0  0  0  0  0  0
    9.6859  -17.8734   20.2196 C   0  0  0  0  0  0  0  0  0  0  0  0
    9.3197  -18.0984   21.6627 C   0  0  2  0  0  0  0  0  0  0  0  0
    7.9970  -18.6472   21.7610 N   0  0  0  0  0  0  0  0  0  0  0  0
    9.4939  -16.8526   22.4385 C   0  0  0  0  0  0  0  0  0  0  0  0
   10.6310  -16.3167   22.4172 O   0  0  0  0  0  0  0  0  0  0  0  0
    8.0326  -12.1555   24.4603 C   0  0  0  0  0  0  0  0  0  0  0  0
    7.4625  -13.2630   25.3274 C   0  0  1  0  0  0  0  0  0  0  0  0
    6.2807  -12.8036   26.1053 C   0  0  0  0  0  0  0  0  0  0  0  0
    7.3139  -14.5385   24.5811 C   0  0  0  0  0  0  0  0  0  0  0  0
    8.5951  -15.1095   24.0192 C   0  0  2  0  0  0  0  0  0  0  0  0
    8.4360  -16.2565   23.1910 N   0  0  0  0  0  0  0  0  0  0  0  0
    9.5704  -15.2912   25.1076 C   0  0  0  0  0  0  0  0  0  0  0  0
   10.4873  -14.4345   25.3381 O   0  0  0  0  0  0  0  0  0  0  0  0
    8.9825  -13.6982   29.2145 C   0  0  0  0  0  0  0  0  0  0  0  0
    9.9464  -14.1978   28.1109 C   0  0  1  0  0  0  0  0  0  0  0  0
   11.2835  -13.5693   28.4283 C   0  0  0  0  0  0  0  0  0  0  0  0
   10.0172  -15.6655   28.2750 C   0  0  0  0  0  0  0  0  0  0  0  0
   10.4080  -16.4934   27.1070 C   0  0  2  0  0  0  0  0  0  0  0  0
    9.5419  -16.4258   25.9565 N   0  0  0  0  0  0  0  0  0  0  0  0
   10.5354  -17.8997   27.5405 C   0  0  0  0  0  0  0  0  0  0  0  0
    9.8071  -18.8912   26.9144 O   0  0  0  0  0  0  0  0  0  0  0  0
   11.3053  -18.1874   28.4761 O   0  0  0  0  0  0  0  0  0  0  0  0
  2  1  1  0
  3  2  2  0
  4  2  1  0
  5  4  1  0
  5  6  1  0
  6  8  1  0
  6  7  1  6
  8  9  2  0
 11 10  1  6
 12 11  1  0
 13 11  1  0
 14 13  1  1
 15  8  1  0
 15 14  1  0
 16 14  1  0
 16 17  2  0
 19 18  1  1
 19 21  1  0
 19 20  1  0
 22 21  1  1
 22 23  1  0
 23 16  1  0
 24 25  1  0
 24 22  1  0
 26 24  2  0
M  END
$$$$
