QLL.pdb
     RDKit          3D

 26 25  0  0  1  0  0  0  0  0999 V2000
   11.1358  -19.3193   16.4717 N   0  0  0  0  0  0  0  0  0  0  0  0
    9.9282  -19.0350   17.1732 C   0  0  0  0  0  0  0  0  0  0  0  0
    9.0016  -18.4615   16.5521 O   0  0  0  0  0  0  0  0  0  0  0  0
    9.7317  -19.3876   18.5887 C   0  0  0  0  0  0  0  0  0  0  0  0
   10.7243  -18.6745   19.4420 C   0  0  0  0  0  0  0  0  0  0  0  0
   10.2936  -18.5491   20.8794 C   0  0  2  0  0  0  0  0  0  0  0  0
    9.0028  -19.1482   21.0666 N   0  0  0  0  0  0  0  0  0  0  0  0
   10.3502  -17.1372   21.3126 C   0  0  0  0  0  0  0  0  0  0  0  0
   11.4802  -16.5864   21.3300 O   0  0  0  0  0  0  0  0  0  0  0  0
    6.2828  -13.3070   20.2226 C   0  0  0  0  0  0  0  0  0  0  0  0
    7.6428  -13.9548   20.4082 C   0  0  1  0  0  0  0  0  0  0  0  0
    8.7080  -13.2265   19.6681 C   0  0  0  0  0  0  0  0  0  0  0  0
    7.9208  -14.2756   21.8314 C   0  0  0  0  0  0  0  0  0  0  0  0
    9.2060  -15.0295   22.0830 C   0  0  2  0  0  0  0  0  0  0  0  0
    9.1893  -16.4010   21.7014 N   0  0  0  0  0  0  0  0  0  0  0  0
    9.6448  -14.8025   23.4703 C   0  0  0  0  0  0  0  0  0  0  0  0
   10.1520  -13.6922   23.8413 O   0  0  0  0  0  0  0  0  0  0  0  0
   10.2345  -13.2307   27.9337 C   0  0  0  0  0  0  0  0  0  0  0  0
    8.9203  -14.0410   27.8207 C   0  0  1  0  0  0  0  0  0  0  0  0
    7.8195  -13.0801   28.2061 C   0  0  0  0  0  0  0  0  0  0  0  0
    8.8005  -14.4135   26.3948 C   0  0  0  0  0  0  0  0  0  0  0  0
    9.6966  -15.4675   25.8577 C   0  0  2  0  0  0  0  0  0  0  0  0
    9.5264  -15.8039   24.4662 N   0  0  0  0  0  0  0  0  0  0  0  0
    9.5435  -16.6867   26.6773 C   0  0  0  0  0  0  0  0  0  0  0  0
    9.9797  -16.7061   27.9869 O   0  0  0  0  0  0  0  0  0  0  0  0
    9.0175  -17.7001   26.1799 O   0  0  0  0  0  0  0  0  0  0  0  0
  2  1  1  0
  3  2  2  0
  4  2  1  0
  5  4  1  0
  5  6  1  0
  6  8  1  0
  6  7  1  6
  8  9  2  0
 11 10  1  1
 12 11  1  0
 13 11  1  0
 14 13  1  1
 15  8  1  0
 15 14  1  0
 16 14  1  0
 16 17  2  0
 19 18  1  6
 19 21  1  0
 19 20  1  0
 22 21  1  1
 22 23  1  0
 23 16  1  0
 24 25  1  0
 24 22  1  0
 26 24  2  0
M  END
$$$$
