QLL.pdb
     RDKit          3D

 26 25  0  0  1  0  0  0  0  0999 V2000
   15.5781  -19.5543   19.8379 N   0  0  0  0  0  0  0  0  0  0  0  0
   14.6919  -18.8311   18.9877 C   0  0  0  0  0  0  0  0  0  0  0  0
   15.1878  -18.0979   18.0989 O   0  0  0  0  0  0  0  0  0  0  0  0
   13.2278  -18.9134   19.1147 C   0  0  0  0  0  0  0  0  0  0  0  0
   12.6987  -17.6985   19.7975 C   0  0  0  0  0  0  0  0  0  0  0  0
   11.2054  -17.7247   19.9883 C   0  0  2  0  0  0  0  0  0  0  0  0
   10.5480  -17.9803   18.7382 N   0  0  0  0  0  0  0  0  0  0  0  0
   10.7483  -16.4819   20.6448 C   0  0  0  0  0  0  0  0  0  0  0  0
   11.6340  -15.6860   21.0484 O   0  0  0  0  0  0  0  0  0  0  0  0
    6.5132  -13.2882   18.8991 C   0  0  0  0  0  0  0  0  0  0  0  0
    7.8315  -13.7157   19.5177 C   0  0  1  0  0  0  0  0  0  0  0  0
    8.8458  -12.6289   19.4642 C   0  0  0  0  0  0  0  0  0  0  0  0
    7.6432  -14.3870   20.8291 C   0  0  0  0  0  0  0  0  0  0  0  0
    8.8958  -14.9716   21.4396 C   0  0  2  0  0  0  0  0  0  0  0  0
    9.3668  -16.1681   20.8287 N   0  0  0  0  0  0  0  0  0  0  0  0
    8.7288  -15.0738   22.8993 C   0  0  0  0  0  0  0  0  0  0  0  0
    9.2587  -16.0197   23.5715 O   0  0  0  0  0  0  0  0  0  0  0  0
    8.1014  -12.8740   27.9191 C   0  0  0  0  0  0  0  0  0  0  0  0
    6.8079  -13.3334   27.2031 C   0  0  1  0  0  0  0  0  0  0  0  0
    5.7389  -12.3569   27.6356 C   0  0  0  0  0  0  0  0  0  0  0  0
    7.0784  -13.1908   25.7564 C   0  0  0  0  0  0  0  0  0  0  0  0
    7.7981  -14.2838   25.0566 C   0  0  2  0  0  0  0  0  0  0  0  0
    7.9719  -14.1273   23.6341 N   0  0  0  0  0  0  0  0  0  0  0  0
    7.1053  -15.5601   25.3266 C   0  0  0  0  0  0  0  0  0  0  0  0
    6.2248  -16.0849   24.4019 O   0  0  0  0  0  0  0  0  0  0  0  0
    7.3198  -16.1623   26.3953 O   0  0  0  0  0  0  0  0  0  0  0  0
  2  1  1  0
  3  2  2  0
  4  2  1  0
  5  4  1  0
  5  6  1  0
  6  8  1  0
  6  7  1  6
  8  9  2  0
 11 10  1  1
 12 11  1  0
 13 11  1  0
 14 13  1  6
 15  8  1  0
 15 14  1  0
 16 14  1  0
 16 17  2  0
 19 18  1  1
 19 21  1  0
 19 20  1  0
 22 21  1  6
 22 23  1  0
 23 16  1  0
 24 25  1  0
 24 22  1  0
 26 24  2  0
M  END
$$$$
