QLL.pdb
     RDKit          3D

 26 25  0  0  1  0  0  0  0  0999 V2000
   10.4886  -21.5302   19.5574 N   0  0  0  0  0  0  0  0  0  0  0  0
   10.4351  -20.2930   20.2629 C   0  0  0  0  0  0  0  0  0  0  0  0
   11.4269  -19.5279   20.1960 O   0  0  0  0  0  0  0  0  0  0  0  0
    9.2673  -19.8848   21.0603 C   0  0  0  0  0  0  0  0  0  0  0  0
    9.5813  -18.6581   21.8470 C   0  0  0  0  0  0  0  0  0  0  0  0
    8.4609  -17.6522   21.8552 C   0  0  2  0  0  0  0  0  0  0  0  0
    8.0487  -17.3548   20.5129 N   0  0  0  0  0  0  0  0  0  0  0  0
    8.8515  -16.4527   22.6252 C   0  0  0  0  0  0  0  0  0  0  0  0
    9.9362  -15.8983   22.3141 O   0  0  0  0  0  0  0  0  0  0  0  0
    5.6007  -12.6481   25.7829 C   0  0  0  0  0  0  0  0  0  0  0  0
    6.6988  -13.1646   24.8714 C   0  0  1  0  0  0  0  0  0  0  0  0
    7.5328  -12.0589   24.3285 C   0  0  0  0  0  0  0  0  0  0  0  0
    7.4245  -14.3162   25.4656 C   0  0  0  0  0  0  0  0  0  0  0  0
    8.5004  -14.9198   24.5929 C   0  0  2  0  0  0  0  0  0  0  0  0
    8.0535  -15.9200   23.6837 N   0  0  0  0  0  0  0  0  0  0  0  0
    9.6342  -15.3417   25.4326 C   0  0  0  0  0  0  0  0  0  0  0  0
   10.7395  -14.7046   25.4384 O   0  0  0  0  0  0  0  0  0  0  0  0
   11.9319  -14.7401   29.2822 C   0  0  0  0  0  0  0  0  0  0  0  0
   10.3979  -14.7516   29.0737 C   0  0  1  0  0  0  0  0  0  0  0  0
   10.1405  -13.8099   27.9202 C   0  0  0  0  0  0  0  0  0  0  0  0
   10.0560  -16.1381   28.6905 C   0  0  0  0  0  0  0  0  0  0  0  0
   10.4936  -16.6373   27.3632 C   0  0  2  0  0  0  0  0  0  0  0  0
    9.5577  -16.4762   26.2786 N   0  0  0  0  0  0  0  0  0  0  0  0
   10.8577  -18.0635   27.4865 C   0  0  0  0  0  0  0  0  0  0  0  0
   10.2170  -19.0156   26.7193 O   0  0  0  0  0  0  0  0  0  0  0  0
   11.7478  -18.4040   28.2882 O   0  0  0  0  0  0  0  0  0  0  0  0
  2  1  1  0
  3  2  2  0
  4  2  1  0
  5  4  1  0
  5  6  1  0
  6  8  1  0
  6  7  1  6
  8  9  2  0
 11 10  1  1
 12 11  1  0
 13 11  1  0
 14 13  1  1
 15  8  1  0
 15 14  1  0
 16 14  1  0
 16 17  2  0
 19 18  1  6
 19 21  1  0
 19 20  1  0
 22 21  1  1
 22 23  1  0
 23 16  1  0
 24 25  1  0
 24 22  1  0
 26 24  2  0
M  END
$$$$
