QLL.pdb
     RDKit          3D

 26 25  0  0  1  0  0  0  0  0999 V2000
   13.5827  -19.6726   17.9200 N   0  0  0  0  0  0  0  0  0  0  0  0
   12.1996  -19.3302   17.8878 C   0  0  0  0  0  0  0  0  0  0  0  0
   11.6977  -18.9885   16.7902 O   0  0  0  0  0  0  0  0  0  0  0  0
   11.3466  -19.3630   19.0869 C   0  0  0  0  0  0  0  0  0  0  0  0
   11.2546  -18.0045   19.6936 C   0  0  0  0  0  0  0  0  0  0  0  0
   10.3778  -17.9561   20.9167 C   0  0  2  0  0  0  0  0  0  0  0  0
    9.0995  -18.5461   20.6368 N   0  0  0  0  0  0  0  0  0  0  0  0
   10.2827  -16.5726   21.4277 C   0  0  0  0  0  0  0  0  0  0  0  0
   11.3593  -15.9930   21.7205 O   0  0  0  0  0  0  0  0  0  0  0  0
    6.4857  -12.9485   19.5095 C   0  0  0  0  0  0  0  0  0  0  0  0
    7.7870  -13.5293   20.0318 C   0  0  1  0  0  0  0  0  0  0  0  0
    8.9692  -12.7836   19.5227 C   0  0  0  0  0  0  0  0  0  0  0  0
    7.7395  -13.7843   21.4942 C   0  0  0  0  0  0  0  0  0  0  0  0
    8.9150  -14.5519   22.0531 C   0  0  2  0  0  0  0  0  0  0  0  0
    9.0366  -15.8939   21.5937 N   0  0  0  0  0  0  0  0  0  0  0  0
    8.9347  -14.4201   23.5197 C   0  0  0  0  0  0  0  0  0  0  0  0
    9.0140  -13.2821   24.0909 O   0  0  0  0  0  0  0  0  0  0  0  0
    5.5542  -13.1818   26.3493 C   0  0  0  0  0  0  0  0  0  0  0  0
    7.0526  -13.3892   26.0203 C   0  0  1  0  0  0  0  0  0  0  0  0
    7.8083  -12.6190   27.0784 C   0  0  0  0  0  0  0  0  0  0  0  0
    7.2983  -14.8397   26.1677 C   0  0  0  0  0  0  0  0  0  0  0  0
    8.6272  -15.3781   25.7851 C   0  0  2  0  0  0  0  0  0  0  0  0
    8.8660  -15.5491   24.3737 N   0  0  0  0  0  0  0  0  0  0  0  0
    8.8362  -16.6671   26.4755 C   0  0  0  0  0  0  0  0  0  0  0  0
    8.8723  -16.7219   27.8544 O   0  0  0  0  0  0  0  0  0  0  0  0
    8.9802  -17.7072   25.8059 O   0  0  0  0  0  0  0  0  0  0  0  0
  2  1  1  0
  3  2  2  0
  4  2  1  0
  5  4  1  0
  5  6  1  0
  6  8  1  0
  6  7  1  6
  8  9  2  0
 11 10  1  1
 12 11  1  0
 13 11  1  0
 14 13  1  1
 15  8  1  0
 15 14  1  0
 16 14  1  0
 16 17  2  0
 19 18  1  1
 19 21  1  0
 19 20  1  0
 22 21  1  6
 22 23  1  0
 23 16  1  0
 24 25  1  0
 24 22  1  0
 26 24  2  0
M  END
$$$$
