QLL.pdb
     RDKit          3D

 26 25  0  0  1  0  0  0  0  0999 V2000
    7.7768  -19.2099   16.6664 N   0  0  0  0  0  0  0  0  0  0  0  0
    9.0168  -19.7248   17.1446 C   0  0  0  0  0  0  0  0  0  0  0  0
    9.3326  -20.8979   16.8326 O   0  0  0  0  0  0  0  0  0  0  0  0
    9.9320  -18.9352   17.9844 C   0  0  0  0  0  0  0  0  0  0  0  0
    9.2147  -18.4140   19.1827 C   0  0  0  0  0  0  0  0  0  0  0  0
   10.0115  -18.5362   20.4544 C   0  0  2  0  0  0  0  0  0  0  0  0
    9.3565  -19.4277   21.3689 N   0  0  0  0  0  0  0  0  0  0  0  0
   10.2730  -17.1996   21.0286 C   0  0  0  0  0  0  0  0  0  0  0  0
   11.4279  -16.7258   20.8785 O   0  0  0  0  0  0  0  0  0  0  0  0
    6.2763  -13.3943   20.8942 C   0  0  0  0  0  0  0  0  0  0  0  0
    7.6638  -14.0056   20.8258 C   0  0  1  0  0  0  0  0  0  0  0  0
    8.5331  -13.2964   19.8490 C   0  0  0  0  0  0  0  0  0  0  0  0
    8.2367  -14.2470   22.1746 C   0  0  0  0  0  0  0  0  0  0  0  0
    9.4676  -15.1229   22.2047 C   0  0  2  0  0  0  0  0  0  0  0  0
    9.2783  -16.4516   21.7298 N   0  0  0  0  0  0  0  0  0  0  0  0
   10.0897  -15.0496   23.5376 C   0  0  0  0  0  0  0  0  0  0  0  0
   10.6900  -13.9991   23.9419 O   0  0  0  0  0  0  0  0  0  0  0  0
   11.1413  -13.9560   28.0436 C   0  0  0  0  0  0  0  0  0  0  0  0
    9.7507  -14.6308   27.9563 C   0  0  1  0  0  0  0  0  0  0  0  0
    8.7705  -13.6031   28.4729 C   0  0  0  0  0  0  0  0  0  0  0  0
    9.5180  -14.8847   26.5184 C   0  0  0  0  0  0  0  0  0  0  0  0
   10.3229  -15.9322   25.8422 C   0  0  2  0  0  0  0  0  0  0  0  0
   10.0539  -16.1408   24.4413 N   0  0  0  0  0  0  0  0  0  0  0  0
   10.1519  -17.2075   26.5676 C   0  0  0  0  0  0  0  0  0  0  0  0
    9.7132  -18.3348   25.9026 O   0  0  0  0  0  0  0  0  0  0  0  0
   10.4062  -17.2610   27.7856 O   0  0  0  0  0  0  0  0  0  0  0  0
  2  1  1  0
  3  2  2  0
  4  2  1  0
  5  4  1  0
  5  6  1  0
  6  8  1  0
  6  7  1  1
  8  9  2  0
 11 10  1  1
 12 11  1  0
 13 11  1  0
 14 13  1  1
 15  8  1  0
 15 14  1  0
 16 14  1  0
 16 17  2  0
 19 18  1  6
 19 21  1  0
 19 20  1  0
 22 21  1  1
 22 23  1  0
 23 16  1  0
 24 25  1  0
 24 22  1  0
 26 24  2  0
M  END
$$$$
