LGM.pdb
     RDKit          3D

 21 20  0  0  1  0  0  0  0  0999 V2000
    6.7180  -14.0831   21.0275 C   0  0  0  0  0  0  0  0  0  0  0  0
    7.9127  -13.5460   20.2132 C   0  0  2  0  0  0  0  0  0  0  0  0
    7.5419  -12.1899   19.7327 C   0  0  0  0  0  0  0  0  0  0  0  0
    8.2241  -14.5769   19.2015 C   0  0  0  0  0  0  0  0  0  0  0  0
    8.6042  -15.9281   19.7333 C   0  0  2  0  0  0  0  0  0  0  0  0
    7.5051  -16.5680   20.4299 N   0  0  0  0  0  0  0  0  0  0  0  0
    9.7738  -15.8815   20.5915 C   0  0  0  0  0  0  0  0  0  0  0  0
   10.8822  -15.3873   20.1856 O   0  0  0  0  0  0  0  0  0  0  0  0
    9.6976  -16.3990   21.9375 N   0  0  0  0  0  0  0  0  0  0  0  0
   10.8442  -16.2513   22.7560 C   0  0  0  0  0  0  0  0  0  0  0  0
   10.6023  -16.0553   24.1949 C   0  0  0  0  0  0  0  0  0  0  0  0
   11.6354  -15.8815   24.9375 O   0  0  0  0  0  0  0  0  0  0  0  0
    6.8951  -10.9982   26.0431 C   0  0  0  0  0  0  0  0  0  0  0  0
    6.7366  -12.6937   26.5587 S   0  0  0  0  0  0  0  0  0  0  0  0
    8.1287  -13.7270   26.2440 C   0  0  0  0  0  0  0  0  0  0  0  0
    8.1369  -15.1166   26.7050 C   0  0  0  0  0  0  0  0  0  0  0  0
    9.3060  -15.9746   26.3443 C   0  0  2  0  0  0  0  0  0  0  0  0
    9.3686  -16.0370   24.8447 N   0  0  0  0  0  0  0  0  0  0  0  0
    9.1689  -17.3629   26.7580 C   0  0  0  0  0  0  0  0  0  0  0  0
    9.3791  -17.7708   28.0490 O   0  0  0  0  0  0  0  0  0  0  0  0
    8.8542  -18.2443   25.9300 O   0  0  0  0  0  0  0  0  0  0  0  0
  2  3  1  6
  2  1  1  0
  4  2  1  0
  5  4  1  0
  5  6  1  1
  7  5  1  0
  7  8  2  0
  9  7  1  0
 10  9  1  0
 10 11  1  0
 11 18  1  0
 12 11  2  0
 14 13  1  0
 15 14  1  0
 16 15  1  0
 17 16  1  6
 18 17  1  0
 19 20  1  0
 19 17  1  0
 21 19  2  0
M  END
$$$$
