LGM.pdb
     RDKit          3D

 21 20  0  0  1  0  0  0  0  0999 V2000
    9.3497  -13.0805   18.5896 C   0  0  0  0  0  0  0  0  0  0  0  0
    7.8699  -13.3136   18.9568 C   0  0  2  0  0  0  0  0  0  0  0  0
    7.2386  -11.9767   19.1040 C   0  0  0  0  0  0  0  0  0  0  0  0
    7.8685  -14.2118   20.1299 C   0  0  0  0  0  0  0  0  0  0  0  0
    8.4659  -15.5725   19.9184 C   0  0  2  0  0  0  0  0  0  0  0  0
    7.7886  -16.3073   18.8676 N   0  0  0  0  0  0  0  0  0  0  0  0
    8.4970  -16.3638   21.1347 C   0  0  0  0  0  0  0  0  0  0  0  0
    7.4217  -16.7792   21.6902 O   0  0  0  0  0  0  0  0  0  0  0  0
    9.7642  -16.6993   21.7405 N   0  0  0  0  0  0  0  0  0  0  0  0
    9.7309  -17.3428   23.0020 C   0  0  0  0  0  0  0  0  0  0  0  0
    9.8123  -16.4710   24.1855 C   0  0  0  0  0  0  0  0  0  0  0  0
   10.8128  -15.6683   24.2460 O   0  0  0  0  0  0  0  0  0  0  0  0
    6.5570  -10.7839   26.0507 C   0  0  0  0  0  0  0  0  0  0  0  0
    6.5111  -12.4573   26.6535 S   0  0  0  0  0  0  0  0  0  0  0  0
    7.9753  -13.4055   26.4041 C   0  0  0  0  0  0  0  0  0  0  0  0
    8.0253  -14.8097   26.8151 C   0  0  0  0  0  0  0  0  0  0  0  0
    9.2440  -15.6039   26.4729 C   0  0  2  0  0  0  0  0  0  0  0  0
    8.9181  -16.4197   25.2544 N   0  0  0  0  0  0  0  0  0  0  0  0
    9.6085  -16.5889   27.4800 C   0  0  0  0  0  0  0  0  0  0  0  0
   10.3577  -16.2723   28.5826 O   0  0  0  0  0  0  0  0  0  0  0  0
    9.2463  -17.7792   27.3646 O   0  0  0  0  0  0  0  0  0  0  0  0
  2  3  1  1
  2  1  1  0
  4  2  1  0
  5  4  1  0
  5  6  1  6
  7  5  1  0
  7  8  2  0
  9  7  1  0
 10  9  1  0
 10 11  1  0
 11 18  1  0
 12 11  2  0
 14 13  1  0
 15 14  1  0
 16 15  1  0
 17 16  1  1
 18 17  1  0
 19 20  1  0
 19 17  1  0
 21 19  2  0
M  END
$$$$
