LGM.pdb
     RDKit          3D

 21 20  0  0  1  0  0  0  0  0999 V2000
    6.0059  -12.7992   27.5938 C   0  0  0  0  0  0  0  0  0  0  0  0
    7.1612  -12.7245   26.5747 C   0  0  2  0  0  0  0  0  0  0  0  0
    7.0185  -11.4393   25.8431 C   0  0  0  0  0  0  0  0  0  0  0  0
    7.1068  -13.9760   25.7911 C   0  0  0  0  0  0  0  0  0  0  0  0
    7.4708  -15.2314   26.5289 C   0  0  2  0  0  0  0  0  0  0  0  0
    8.7097  -15.0884   27.2688 N   0  0  0  0  0  0  0  0  0  0  0  0
    7.5459  -16.3894   25.6571 C   0  0  0  0  0  0  0  0  0  0  0  0
    8.6466  -17.0140   25.4676 O   0  0  0  0  0  0  0  0  0  0  0  0
    6.3578  -16.8595   24.9843 N   0  0  0  0  0  0  0  0  0  0  0  0
    6.4970  -17.9775   24.1257 C   0  0  0  0  0  0  0  0  0  0  0  0
    7.4445  -17.8326   23.0082 C   0  0  0  0  0  0  0  0  0  0  0  0
    7.4793  -18.7879   22.1508 O   0  0  0  0  0  0  0  0  0  0  0  0
    7.7655  -11.4486   20.8183 C   0  0  0  0  0  0  0  0  0  0  0  0
    8.1018  -13.0155   20.0452 S   0  0  0  0  0  0  0  0  0  0  0  0
    8.5597  -14.3263   21.1300 C   0  0  0  0  0  0  0  0  0  0  0  0
    8.6387  -15.7018   20.6350 C   0  0  0  0  0  0  0  0  0  0  0  0
    9.1799  -16.7526   21.5493 C   0  0  2  0  0  0  0  0  0  0  0  0
    8.3134  -16.7669   22.7762 N   0  0  0  0  0  0  0  0  0  0  0  0
   10.5145  -16.4659   22.0531 C   0  0  0  0  0  0  0  0  0  0  0  0
   10.7724  -16.2674   23.3840 O   0  0  0  0  0  0  0  0  0  0  0  0
   11.4852  -16.3847   21.2703 O   0  0  0  0  0  0  0  0  0  0  0  0
  2  3  1  6
  2  1  1  0
  4  2  1  0
  5  4  1  0
  5  6  1  6
  7  5  1  0
  7  8  2  0
  9  7  1  0
 10  9  1  0
 10 11  1  0
 11 18  1  0
 12 11  2  0
 14 13  1  0
 15 14  1  0
 16 15  1  0
 17 16  1  6
 18 17  1  0
 19 20  1  0
 19 17  1  0
 21 19  2  0
M  END
$$$$
