LGM.pdb
     RDKit          3D

 21 20  0  0  1  0  0  0  0  0999 V2000
    7.1952  -13.6976   17.9222 C   0  0  0  0  0  0  0  0  0  0  0  0
    7.4632  -13.3221   19.3940 C   0  0  2  0  0  0  0  0  0  0  0  0
    7.2112  -11.8640   19.5277 C   0  0  0  0  0  0  0  0  0  0  0  0
    8.8170  -13.8218   19.7112 C   0  0  0  0  0  0  0  0  0  0  0  0
    8.9159  -15.2772   20.0648 C   0  0  2  0  0  0  0  0  0  0  0  0
    7.6941  -15.7758   20.6658 N   0  0  0  0  0  0  0  0  0  0  0  0
   10.0460  -15.5663   20.9285 C   0  0  0  0  0  0  0  0  0  0  0  0
   11.2467  -15.3107   20.5673 O   0  0  0  0  0  0  0  0  0  0  0  0
    9.8238  -16.1534   22.2290 N   0  0  0  0  0  0  0  0  0  0  0  0
   10.9514  -16.3110   23.0717 C   0  0  0  0  0  0  0  0  0  0  0  0
   10.6797  -16.4509   24.5119 C   0  0  0  0  0  0  0  0  0  0  0  0
   11.6818  -16.7256   25.2664 O   0  0  0  0  0  0  0  0  0  0  0  0
    7.6210  -11.9469   27.5520 C   0  0  0  0  0  0  0  0  0  0  0  0
    6.5879  -13.2980   27.0293 S   0  0  0  0  0  0  0  0  0  0  0  0
    7.4316  -14.7505   26.4972 C   0  0  0  0  0  0  0  0  0  0  0  0
    8.6980  -15.1397   27.1202 C   0  0  0  0  0  0  0  0  0  0  0  0
    9.3624  -16.3926   26.6492 C   0  0  2  0  0  0  0  0  0  0  0  0
    9.4477  -16.3172   25.1514 N   0  0  0  0  0  0  0  0  0  0  0  0
    8.5937  -17.6008   26.9068 C   0  0  0  0  0  0  0  0  0  0  0  0
    8.5088  -18.1686   28.1509 O   0  0  0  0  0  0  0  0  0  0  0  0
    7.9792  -18.1722   25.9808 O   0  0  0  0  0  0  0  0  0  0  0  0
  2  3  1  6
  2  1  1  0
  4  2  1  0
  5  4  1  0
  5  6  1  1
  7  5  1  0
  7  8  2  0
  9  7  1  0
 10  9  1  0
 10 11  1  0
 11 18  1  0
 12 11  2  0
 14 13  1  0
 15 14  1  0
 16 15  1  0
 17 16  1  6
 18 17  1  0
 19 20  1  0
 19 17  1  0
 21 19  2  0
M  END
$$$$
