LGM.pdb
     RDKit          3D

 21 20  0  0  1  0  0  0  0  0999 V2000
    9.0190  -12.2053   18.8747 C   0  0  0  0  0  0  0  0  0  0  0  0
    8.2729  -13.4711   18.4056 C   0  0  2  0  0  0  0  0  0  0  0  0
    7.0261  -13.0218   17.7339 C   0  0  0  0  0  0  0  0  0  0  0  0
    8.1438  -14.3421   19.5921 C   0  0  0  0  0  0  0  0  0  0  0  0
    9.4153  -14.6402   20.3319 C   0  0  2  0  0  0  0  0  0  0  0  0
   10.3777  -15.3379   19.5014 N   0  0  0  0  0  0  0  0  0  0  0  0
    9.1871  -15.3846   21.5568 C   0  0  0  0  0  0  0  0  0  0  0  0
    8.3093  -15.0142   22.4111 O   0  0  0  0  0  0  0  0  0  0  0  0
    9.9598  -16.5738   21.8286 N   0  0  0  0  0  0  0  0  0  0  0  0
    9.7209  -17.2369   23.0573 C   0  0  0  0  0  0  0  0  0  0  0  0
    9.9221  -16.4434   24.2810 C   0  0  0  0  0  0  0  0  0  0  0  0
   11.0708  -15.8891   24.4296 O   0  0  0  0  0  0  0  0  0  0  0  0
    6.2042  -10.8237   28.2396 C   0  0  0  0  0  0  0  0  0  0  0  0
    6.2203  -12.2372   27.1591 S   0  0  0  0  0  0  0  0  0  0  0  0
    7.7140  -13.1715   27.1366 C   0  0  0  0  0  0  0  0  0  0  0  0
    7.8664  -14.2994   26.2156 C   0  0  0  0  0  0  0  0  0  0  0  0
    9.1572  -15.0523   26.2269 C   0  0  2  0  0  0  0  0  0  0  0  0
    8.9981  -16.2257   25.3025 N   0  0  0  0  0  0  0  0  0  0  0  0
    9.4815  -15.6482   27.5141 C   0  0  0  0  0  0  0  0  0  0  0  0
    9.3741  -16.9934   27.7510 O   0  0  0  0  0  0  0  0  0  0  0  0
    9.8707  -14.9355   28.4639 O   0  0  0  0  0  0  0  0  0  0  0  0
  2  3  1  1
  2  1  1  0
  4  2  1  0
  5  4  1  0
  5  6  1  6
  7  5  1  0
  7  8  2  0
  9  7  1  0
 10  9  1  0
 10 11  1  0
 11 18  1  0
 12 11  2  0
 14 13  1  0
 15 14  1  0
 16 15  1  0
 17 16  1  1
 18 17  1  0
 19 20  1  0
 19 17  1  0
 21 19  2  0
M  END
$$$$
