LGM.pdb
     RDKit          3D

 21 20  0  0  1  0  0  0  0  0999 V2000
    6.8542  -13.7906   20.4282 C   0  0  0  0  0  0  0  0  0  0  0  0
    8.3585  -13.5143   20.2292 C   0  0  2  0  0  0  0  0  0  0  0  0
    8.5348  -12.0392   20.2095 C   0  0  0  0  0  0  0  0  0  0  0  0
    8.7666  -14.2755   19.0304 C   0  0  0  0  0  0  0  0  0  0  0  0
    8.6909  -15.7704   19.1420 C   0  0  2  0  0  0  0  0  0  0  0  0
    7.3354  -16.2315   19.3717 N   0  0  0  0  0  0  0  0  0  0  0  0
    9.5736  -16.2992   20.1657 C   0  0  0  0  0  0  0  0  0  0  0  0
   10.8307  -16.0604   20.1537 O   0  0  0  0  0  0  0  0  0  0  0  0
    9.0330  -17.1127   21.2293 N   0  0  0  0  0  0  0  0  0  0  0  0
    9.9132  -17.4823   22.2758 C   0  0  0  0  0  0  0  0  0  0  0  0
   10.0273  -16.5397   23.4009 C   0  0  0  0  0  0  0  0  0  0  0  0
   11.2114  -16.1585   23.7194 O   0  0  0  0  0  0  0  0  0  0  0  0
    5.3075  -12.4623   27.2749 C   0  0  0  0  0  0  0  0  0  0  0  0
    6.8014  -11.9048   26.4852 S   0  0  0  0  0  0  0  0  0  0  0  0
    8.1085  -13.0828   26.3927 C   0  0  0  0  0  0  0  0  0  0  0  0
    8.1647  -14.0390   25.2854 C   0  0  0  0  0  0  0  0  0  0  0  0
    9.2783  -15.0353   25.2670 C   0  0  2  0  0  0  0  0  0  0  0  0
    8.9860  -16.0117   24.1635 N   0  0  0  0  0  0  0  0  0  0  0  0
    9.3546  -15.8570   26.4654 C   0  0  0  0  0  0  0  0  0  0  0  0
    8.8690  -17.1373   26.5126 O   0  0  0  0  0  0  0  0  0  0  0  0
    9.8712  -15.4087   27.5112 O   0  0  0  0  0  0  0  0  0  0  0  0
  2  3  1  6
  2  1  1  0
  4  2  1  0
  5  4  1  0
  5  6  1  1
  7  5  1  0
  7  8  2  0
  9  7  1  0
 10  9  1  0
 10 11  1  0
 11 18  1  0
 12 11  2  0
 14 13  1  0
 15 14  1  0
 16 15  1  0
 17 16  1  1
 18 17  1  0
 19 20  1  0
 19 17  1  0
 21 19  2  0
M  END
$$$$
