LGM.pdb
     RDKit          3D

 21 20  0  0  1  0  0  0  0  0999 V2000
    8.0216  -13.8879   18.9551 C   0  0  0  0  0  0  0  0  0  0  0  0
    7.7056  -13.4487   20.3994 C   0  0  2  0  0  0  0  0  0  0  0  0
    7.5560  -11.9706   20.3857 C   0  0  0  0  0  0  0  0  0  0  0  0
    8.7639  -14.0287   21.2519 C   0  0  0  0  0  0  0  0  0  0  0  0
    8.8292  -15.5277   21.2927 C   0  0  2  0  0  0  0  0  0  0  0  0
    7.5317  -16.1225   21.5483 N   0  0  0  0  0  0  0  0  0  0  0  0
    9.7971  -16.0183   22.2566 C   0  0  0  0  0  0  0  0  0  0  0  0
   11.0287  -15.6753   22.2020 O   0  0  0  0  0  0  0  0  0  0  0  0
    9.3729  -16.9125   23.3081 N   0  0  0  0  0  0  0  0  0  0  0  0
   10.3658  -17.3778   24.2049 C   0  0  0  0  0  0  0  0  0  0  0  0
   10.7153  -16.4815   25.3193 C   0  0  0  0  0  0  0  0  0  0  0  0
   11.9612  -16.2154   25.4798 O   0  0  0  0  0  0  0  0  0  0  0  0
    6.1333  -12.3968   25.6792 C   0  0  0  0  0  0  0  0  0  0  0  0
    7.3188  -12.2799   27.0008 S   0  0  0  0  0  0  0  0  0  0  0  0
    8.8311  -13.1509   26.7572 C   0  0  0  0  0  0  0  0  0  0  0  0
    9.3057  -14.1033   27.7627 C   0  0  0  0  0  0  0  0  0  0  0  0
   10.3724  -15.0734   27.3703 C   0  0  2  0  0  0  0  0  0  0  0  0
    9.8383  -15.8858   26.2252 N   0  0  0  0  0  0  0  0  0  0  0  0
   10.6823  -16.0568   28.3970 C   0  0  0  0  0  0  0  0  0  0  0  0
   11.4664  -15.7663   29.4824 O   0  0  0  0  0  0  0  0  0  0  0  0
   10.2379  -17.2219   28.3154 O   0  0  0  0  0  0  0  0  0  0  0  0
  2  3  1  6
  2  1  1  0
  4  2  1  0
  5  4  1  0
  5  6  1  1
  7  5  1  0
  7  8  2  0
  9  7  1  0
 10  9  1  0
 10 11  1  0
 11 18  1  0
 12 11  2  0
 14 13  1  0
 15 14  1  0
 16 15  1  0
 17 16  1  1
 18 17  1  0
 19 20  1  0
 19 17  1  0
 21 19  2  0
M  END
$$$$
