LGM.pdb
     RDKit          3D

 21 20  0  0  1  0  0  0  0  0999 V2000
    5.9644  -13.6382   26.2577 C   0  0  0  0  0  0  0  0  0  0  0  0
    7.2465  -13.4707   25.4169 C   0  0  2  0  0  0  0  0  0  0  0  0
    7.8699  -12.1834   25.8190 C   0  0  0  0  0  0  0  0  0  0  0  0
    6.8425  -13.6321   24.0049 C   0  0  0  0  0  0  0  0  0  0  0  0
    7.0818  -14.9856   23.4018 C   0  0  2  0  0  0  0  0  0  0  0  0
    6.5059  -16.0483   24.2029 N   0  0  0  0  0  0  0  0  0  0  0  0
    8.4891  -15.2508   23.1660 C   0  0  0  0  0  0  0  0  0  0  0  0
    9.2483  -14.3860   22.6062 O   0  0  0  0  0  0  0  0  0  0  0  0
    9.0589  -16.5147   23.5700 N   0  0  0  0  0  0  0  0  0  0  0  0
   10.4492  -16.6948   23.3674 C   0  0  0  0  0  0  0  0  0  0  0  0
   11.2487  -17.0239   24.5590 C   0  0  0  0  0  0  0  0  0  0  0  0
   12.5248  -17.0330   24.4160 O   0  0  0  0  0  0  0  0  0  0  0  0
    9.2161  -12.9953   29.0677 C   0  0  0  0  0  0  0  0  0  0  0  0
   10.7068  -13.9648   29.0076 S   0  0  0  0  0  0  0  0  0  0  0  0
   10.6196  -15.4527   28.0677 C   0  0  0  0  0  0  0  0  0  0  0  0
   11.8452  -16.1205   27.6256 C   0  0  0  0  0  0  0  0  0  0  0  0
   11.7263  -17.4652   26.9847 C   0  0  2  0  0  0  0  0  0  0  0  0
   10.7712  -17.3285   25.8333 N   0  0  0  0  0  0  0  0  0  0  0  0
   11.1195  -18.4745   27.8393 C   0  0  0  0  0  0  0  0  0  0  0  0
   11.7653  -19.0053   28.9249 O   0  0  0  0  0  0  0  0  0  0  0  0
    9.9693  -18.9006   27.6009 O   0  0  0  0  0  0  0  0  0  0  0  0
  2  3  1  6
  2  1  1  0
  4  2  1  0
  5  4  1  0
  5  6  1  1
  7  5  1  0
  7  8  2  0
  9  7  1  0
 10  9  1  0
 10 11  1  0
 11 18  1  0
 12 11  2  0
 14 13  1  0
 15 14  1  0
 16 15  1  0
 17 16  1  1
 18 17  1  0
 19 20  1  0
 19 17  1  0
 21 19  2  0
M  END
$$$$
