LGM.pdb
     RDKit          3D

 21 20  0  0  1  0  0  0  0  0999 V2000
    7.1083  -12.5665   18.7173 C   0  0  0  0  0  0  0  0  0  0  0  0
    7.5063  -13.5965   19.7940 C   0  0  2  0  0  0  0  0  0  0  0  0
    8.5425  -12.9605   20.6480 C   0  0  0  0  0  0  0  0  0  0  0  0
    7.8690  -14.8339   19.0727 C   0  0  0  0  0  0  0  0  0  0  0  0
    8.1013  -16.0484   19.9236 C   0  0  2  0  0  0  0  0  0  0  0  0
    7.0344  -16.2524   20.8843 N   0  0  0  0  0  0  0  0  0  0  0  0
    9.3819  -16.0155   20.6059 C   0  0  0  0  0  0  0  0  0  0  0  0
   10.4856  -16.0431   19.9588 O   0  0  0  0  0  0  0  0  0  0  0  0
    9.4256  -15.9471   22.0476 N   0  0  0  0  0  0  0  0  0  0  0  0
   10.7033  -15.9016   22.6573 C   0  0  0  0  0  0  0  0  0  0  0  0
   10.7299  -15.9384   24.1289 C   0  0  0  0  0  0  0  0  0  0  0  0
   11.8837  -15.8762   24.6891 O   0  0  0  0  0  0  0  0  0  0  0  0
    6.5601  -11.6154   26.3617 C   0  0  0  0  0  0  0  0  0  0  0  0
    6.8127  -12.6662   27.7751 S   0  0  0  0  0  0  0  0  0  0  0  0
    8.1566  -13.8001   27.6605 C   0  0  0  0  0  0  0  0  0  0  0  0
    8.4637  -14.4560   26.3882 C   0  0  0  0  0  0  0  0  0  0  0  0
    9.6606  -15.3484   26.3232 C   0  0  2  0  0  0  0  0  0  0  0  0
    9.6347  -16.0339   24.9868 N   0  0  0  0  0  0  0  0  0  0  0  0
    9.6377  -16.4373   27.2881 C   0  0  0  0  0  0  0  0  0  0  0  0
    9.5595  -17.7526   26.9125 O   0  0  0  0  0  0  0  0  0  0  0  0
    9.6842  -16.2005   28.5142 O   0  0  0  0  0  0  0  0  0  0  0  0
  2  3  1  6
  2  1  1  0
  4  2  1  0
  5  4  1  0
  5  6  1  1
  7  5  1  0
  7  8  2  0
  9  7  1  0
 10  9  1  0
 10 11  1  0
 11 18  1  0
 12 11  2  0
 14 13  1  0
 15 14  1  0
 16 15  1  0
 17 16  1  1
 18 17  1  0
 19 20  1  0
 19 17  1  0
 21 19  2  0
M  END
$$$$
