CIS.pdb
     RDKit          3D

 21 20  0  0  1  0  0  0  0  0999 V2000
    8.2588  -14.8309   19.9957 N   0  0  0  0  0  0  0  0  0  0  0  0
    7.3262  -14.8069   21.0787 C   0  0  1  0  0  0  0  0  0  0  0  0
    6.4132  -16.0276   21.0533 C   0  0  0  0  0  0  0  0  0  0  0  0
    7.3509  -17.5337   21.4231 S   0  0  0  0  0  0  0  0  0  0  0  0
    7.9970  -14.6867   22.4038 C   0  0  0  0  0  0  0  0  0  0  0  0
    9.2427  -14.8223   22.5072 O   0  0  0  0  0  0  0  0  0  0  0  0
    5.8668  -11.5165   26.4427 C   0  0  0  0  0  0  0  0  0  0  0  0
    6.8322  -12.1300   25.4438 C   0  0  0  0  0  0  0  0  0  0  0  0
    7.1294  -13.5196   25.8901 C   0  0  2  0  0  0  0  0  0  0  0  0
    7.9378  -13.4413   27.1693 C   0  0  0  0  0  0  0  0  0  0  0  0
    7.9256  -14.3245   24.9026 C   0  0  2  0  0  0  0  0  0  0  0  0
    7.2835  -14.4168   23.6071 N   0  0  0  0  0  0  0  0  0  0  0  0
    8.2084  -15.7011   25.3806 C   0  0  0  0  0  0  0  0  0  0  0  0
    7.2791  -16.4965   25.6827 O   0  0  0  0  0  0  0  0  0  0  0  0
   12.0343  -17.3488   25.0598 O   0  0  0  0  0  0  0  0  0  0  0  0
   10.8927  -18.1219   25.0464 C   0  0  0  0  0  0  0  0  0  0  0  0
    9.8229  -17.5467   25.9797 C   0  0  2  0  0  0  0  0  0  0  0  0
    9.5320  -16.2030   25.5259 N   0  0  0  0  0  0  0  0  0  0  0  0
   10.2711  -17.5801   27.3873 C   0  0  0  0  0  0  0  0  0  0  0  0
   10.4667  -18.7664   28.0600 O   0  0  0  0  0  0  0  0  0  0  0  0
   10.4807  -16.5072   27.9918 O   0  0  0  0  0  0  0  0  0  0  0  0
  2  1  1  6
  3  2  1  0
  4  3  1  0
  5  2  1  0
  6  5  2  0
  7  8  1  0
  8  9  1  0
  9 11  1  0
  9 10  1  1
 11 13  1  0
 11 12  1  6
 12  5  1  0
 13 18  1  0
 14 13  2  0
 15 16  1  0
 17 19  1  0
 17 16  1  6
 18 17  1  0
 19 21  2  0
 19 20  1  0
M  END
$$$$
