CIS.pdb
     RDKit          3D

 21 20  0  0  1  0  0  0  0  0999 V2000
   10.6763  -16.7285   15.0562 N   0  0  0  0  0  0  0  0  0  0  0  0
    9.5400  -16.7387   15.9233 C   0  0  1  0  0  0  0  0  0  0  0  0
    8.8589  -18.1027   15.9311 C   0  0  0  0  0  0  0  0  0  0  0  0
    9.2757  -19.0328   14.4326 S   0  0  0  0  0  0  0  0  0  0  0  0
    9.8810  -16.3197   17.3120 C   0  0  0  0  0  0  0  0  0  0  0  0
   11.0708  -16.3489   17.7173 O   0  0  0  0  0  0  0  0  0  0  0  0
    6.9703  -12.2495   19.5316 C   0  0  0  0  0  0  0  0  0  0  0  0
    8.1132  -13.1192   19.0381 C   0  0  0  0  0  0  0  0  0  0  0  0
    8.2625  -14.2586   19.9857 C   0  0  2  0  0  0  0  0  0  0  0  0
    8.7616  -13.7104   21.3072 C   0  0  0  0  0  0  0  0  0  0  0  0
    9.2390  -15.3076   19.5355 C   0  0  2  0  0  0  0  0  0  0  0  0
    8.9013  -15.8707   18.2439 N   0  0  0  0  0  0  0  0  0  0  0  0
    9.3727  -16.4213   20.5077 C   0  0  0  0  0  0  0  0  0  0  0  0
    8.7283  -17.4953   20.3706 O   0  0  0  0  0  0  0  0  0  0  0  0
   11.8807  -19.4250   21.0472 O   0  0  0  0  0  0  0  0  0  0  0  0
   11.7626  -18.0552   20.9443 C   0  0  0  0  0  0  0  0  0  0  0  0
   10.9912  -17.4746   22.1335 C   0  0  2  0  0  0  0  0  0  0  0  0
   10.2276  -16.3466   21.6429 N   0  0  0  0  0  0  0  0  0  0  0  0
   11.9077  -17.0988   23.2299 C   0  0  0  0  0  0  0  0  0  0  0  0
   11.9777  -17.8238   24.3994 O   0  0  0  0  0  0  0  0  0  0  0  0
   12.6430  -16.0972   23.1012 O   0  0  0  0  0  0  0  0  0  0  0  0
  2  1  1  6
  3  2  1  0
  4  3  1  0
  5  2  1  0
  6  5  2  0
  7  8  1  0
  8  9  1  0
  9 11  1  0
  9 10  1  1
 11 13  1  0
 11 12  1  6
 12  5  1  0
 13 18  1  0
 14 13  2  0
 15 16  1  0
 17 19  1  0
 17 16  1  6
 18 17  1  0
 19 21  2  0
 19 20  1  0
M  END
$$$$
