CIS.pdb
     RDKit          3D

 21 20  0  0  1  0  0  0  0  0999 V2000
    7.3162  -14.7691   19.8518 N   0  0  0  0  0  0  0  0  0  0  0  0
    6.9655  -15.3117   21.1268 C   0  0  1  0  0  0  0  0  0  0  0  0
    6.8698  -16.8325   21.0765 C   0  0  0  0  0  0  0  0  0  0  0  0
    5.3256  -17.4002   21.8364 S   0  0  0  0  0  0  0  0  0  0  0  0
    7.9029  -14.8849   22.2035 C   0  0  0  0  0  0  0  0  0  0  0  0
    9.1307  -14.7491   21.9689 O   0  0  0  0  0  0  0  0  0  0  0  0
    6.1899  -12.4706   27.1249 C   0  0  0  0  0  0  0  0  0  0  0  0
    6.5278  -13.5580   26.1201 C   0  0  0  0  0  0  0  0  0  0  0  0
    7.8637  -13.2454   25.5405 C   0  0  2  0  0  0  0  0  0  0  0  0
    7.7442  -11.9605   24.7464 C   0  0  0  0  0  0  0  0  0  0  0  0
    8.3924  -14.3014   24.6119 C   0  0  2  0  0  0  0  0  0  0  0  0
    7.4746  -14.6110   23.5344 N   0  0  0  0  0  0  0  0  0  0  0  0
    8.7291  -15.5653   25.3135 C   0  0  0  0  0  0  0  0  0  0  0  0
    7.8418  -16.4084   25.6124 O   0  0  0  0  0  0  0  0  0  0  0  0
   11.9559  -17.4081   24.4722 O   0  0  0  0  0  0  0  0  0  0  0  0
   11.8356  -17.5092   25.8420 C   0  0  0  0  0  0  0  0  0  0  0  0
   10.4156  -17.1632   26.3006 C   0  0  2  0  0  0  0  0  0  0  0  0
   10.0604  -15.9002   25.6884 N   0  0  0  0  0  0  0  0  0  0  0  0
   10.3289  -17.1174   27.7750 C   0  0  0  0  0  0  0  0  0  0  0  0
   10.5417  -18.2359   28.5507 O   0  0  0  0  0  0  0  0  0  0  0  0
   10.0555  -16.0384   28.3419 O   0  0  0  0  0  0  0  0  0  0  0  0
  2  1  1  6
  3  2  1  0
  4  3  1  0
  5  2  1  0
  6  5  2  0
  7  8  1  0
  8  9  1  0
  9 11  1  0
  9 10  1  6
 11 13  1  0
 11 12  1  6
 12  5  1  0
 13 18  1  0
 14 13  2  0
 15 16  1  0
 17 19  1  0
 17 16  1  1
 18 17  1  0
 19 21  2  0
 19 20  1  0
M  END
$$$$
