CIS.pdb
     RDKit          3D

 21 20  0  0  1  0  0  0  0  0999 V2000
    8.2057  -14.9707   19.7343 N   0  0  0  0  0  0  0  0  0  0  0  0
    7.4804  -15.4063   20.8864 C   0  0  1  0  0  0  0  0  0  0  0  0
    7.1746  -16.8984   20.8194 C   0  0  0  0  0  0  0  0  0  0  0  0
    6.1794  -17.4104   22.2448 S   0  0  0  0  0  0  0  0  0  0  0  0
    8.1823  -15.0758   22.1585 C   0  0  0  0  0  0  0  0  0  0  0  0
    9.4372  -15.1131   22.2275 O   0  0  0  0  0  0  0  0  0  0  0  0
    7.2553  -11.8699   27.3180 C   0  0  0  0  0  0  0  0  0  0  0  0
    8.0973  -12.9450   26.6535 C   0  0  0  0  0  0  0  0  0  0  0  0
    7.4056  -13.3574   25.4005 C   0  0  2  0  0  0  0  0  0  0  0  0
    6.0818  -13.9899   25.7789 C   0  0  0  0  0  0  0  0  0  0  0  0
    8.1664  -14.3608   24.5811 C   0  0  2  0  0  0  0  0  0  0  0  0
    7.4897  -14.7058   23.3472 N   0  0  0  0  0  0  0  0  0  0  0  0
    8.4455  -15.6147   25.3247 C   0  0  0  0  0  0  0  0  0  0  0  0
    7.5365  -16.4535   25.5648 O   0  0  0  0  0  0  0  0  0  0  0  0
   11.1524  -17.9278   24.5559 O   0  0  0  0  0  0  0  0  0  0  0  0
   11.2880  -17.7783   25.9199 C   0  0  0  0  0  0  0  0  0  0  0  0
   10.0293  -17.1616   26.5375 C   0  0  2  0  0  0  0  0  0  0  0  0
    9.7428  -15.9444   25.8078 N   0  0  0  0  0  0  0  0  0  0  0  0
   10.2098  -16.9204   27.9842 C   0  0  0  0  0  0  0  0  0  0  0  0
   10.3884  -17.9546   28.8768 O   0  0  0  0  0  0  0  0  0  0  0  0
   10.2015  -15.7492   28.4184 O   0  0  0  0  0  0  0  0  0  0  0  0
  2  1  1  6
  3  2  1  0
  4  3  1  0
  5  2  1  0
  6  5  2  0
  7  8  1  0
  8  9  1  0
  9 11  1  0
  9 10  1  1
 11 13  1  0
 11 12  1  6
 12  5  1  0
 13 18  1  0
 14 13  2  0
 15 16  1  0
 17 19  1  0
 17 16  1  6
 18 17  1  0
 19 21  2  0
 19 20  1  0
M  END
$$$$
