CIS.pdb
     RDKit          3D

 21 20  0  0  1  0  0  0  0  0999 V2000
    7.6816  -14.6306   19.9119 N   0  0  0  0  0  0  0  0  0  0  0  0
    6.9470  -14.8445   21.1192 C   0  0  1  0  0  0  0  0  0  0  0  0
    6.4273  -16.2751   21.2077 C   0  0  0  0  0  0  0  0  0  0  0  0
    7.7970  -17.4584   21.1178 S   0  0  0  0  0  0  0  0  0  0  0  0
    7.7387  -14.5028   22.3344 C   0  0  0  0  0  0  0  0  0  0  0  0
    8.9934  -14.4376   22.2856 O   0  0  0  0  0  0  0  0  0  0  0  0
    5.7488  -11.4393   26.5753 C   0  0  0  0  0  0  0  0  0  0  0  0
    6.6495  -11.9663   25.4721 C   0  0  0  0  0  0  0  0  0  0  0  0
    7.1252  -13.3183   25.8775 C   0  0  2  0  0  0  0  0  0  0  0  0
    8.0402  -13.1568   27.0744 C   0  0  0  0  0  0  0  0  0  0  0  0
    7.8999  -14.0413   24.8126 C   0  0  2  0  0  0  0  0  0  0  0  0
    7.1356  -14.2350   23.5971 N   0  0  0  0  0  0  0  0  0  0  0  0
    8.3978  -15.3646   25.2646 C   0  0  0  0  0  0  0  0  0  0  0  0
    7.6076  -16.2737   25.6342 O   0  0  0  0  0  0  0  0  0  0  0  0
   12.2344  -18.3550   25.5129 O   0  0  0  0  0  0  0  0  0  0  0  0
   11.6617  -17.1676   25.1090 C   0  0  0  0  0  0  0  0  0  0  0  0
   10.2838  -16.9711   25.7485 C   0  0  2  0  0  0  0  0  0  0  0  0
    9.7834  -15.6858   25.3084 N   0  0  0  0  0  0  0  0  0  0  0  0
   10.3615  -17.0700   27.2208 C   0  0  0  0  0  0  0  0  0  0  0  0
   10.4737  -18.2838   27.8629 O   0  0  0  0  0  0  0  0  0  0  0  0
   10.3251  -16.0289   27.9101 O   0  0  0  0  0  0  0  0  0  0  0  0
  2  1  1  6
  3  2  1  0
  4  3  1  0
  5  2  1  0
  6  5  2  0
  7  8  1  0
  8  9  1  0
  9 11  1  0
  9 10  1  1
 11 13  1  0
 11 12  1  6
 12  5  1  0
 13 18  1  0
 14 13  2  0
 15 16  1  0
 17 19  1  0
 17 16  1  6
 18 17  1  0
 19 21  2  0
 19 20  1  0
M  END
$$$$
