CIS.pdb
     RDKit          3D

 21 20  0  0  1  0  0  0  0  0999 V2000
    5.2977  -17.9980   21.1337 N   0  0  0  0  0  0  0  0  0  0  0  0
    5.5226  -17.9258   22.5434 C   0  0  1  0  0  0  0  0  0  0  0  0
    5.8870  -19.2899   23.1188 C   0  0  0  0  0  0  0  0  0  0  0  0
    5.9169  -19.2311   24.9299 S   0  0  0  0  0  0  0  0  0  0  0  0
    6.5581  -16.9164   22.9027 C   0  0  0  0  0  0  0  0  0  0  0  0
    7.6015  -16.7934   22.2121 O   0  0  0  0  0  0  0  0  0  0  0  0
    7.2552  -11.9642   26.5789 C   0  0  0  0  0  0  0  0  0  0  0  0
    7.9505  -13.0253   25.7441 C   0  0  0  0  0  0  0  0  0  0  0  0
    6.9229  -14.0137   25.3134 C   0  0  2  0  0  0  0  0  0  0  0  0
    6.3828  -14.7018   26.5505 C   0  0  0  0  0  0  0  0  0  0  0  0
    7.4454  -15.0820   24.3955 C   0  0  2  0  0  0  0  0  0  0  0  0
    6.4314  -16.0486   24.0256 N   0  0  0  0  0  0  0  0  0  0  0  0
    8.6005  -15.8164   24.9697 C   0  0  0  0  0  0  0  0  0  0  0  0
    8.4499  -16.6628   25.8908 O   0  0  0  0  0  0  0  0  0  0  0  0
   10.9145  -17.7056   22.8318 O   0  0  0  0  0  0  0  0  0  0  0  0
   10.8118  -17.8250   24.2016 C   0  0  0  0  0  0  0  0  0  0  0  0
   11.0357  -16.4769   24.8935 C   0  0  2  0  0  0  0  0  0  0  0  0
    9.9354  -15.6128   24.5207 N   0  0  0  0  0  0  0  0  0  0  0  0
   12.3484  -15.9040   24.5306 C   0  0  0  0  0  0  0  0  0  0  0  0
   13.5313  -16.4866   24.9298 O   0  0  0  0  0  0  0  0  0  0  0  0
   12.3961  -14.8623   23.8427 O   0  0  0  0  0  0  0  0  0  0  0  0
  2  1  1  6
  3  2  1  0
  4  3  1  0
  5  2  1  0
  6  5  2  0
  7  8  1  0
  8  9  1  0
  9 11  1  0
  9 10  1  1
 11 13  1  0
 11 12  1  1
 12  5  1  0
 13 18  1  0
 14 13  2  0
 15 16  1  0
 17 19  1  0
 17 16  1  6
 18 17  1  0
 19 21  2  0
 19 20  1  0
M  END
$$$$
