SVT.pdb
     RDKit          3D

 21 20  0  0  1  0  0  0  0  0999 V2000
   18.2474   -9.7666  -20.3326 O   0  0  0  0  0  0  0  0  0  0  0  0
   18.6307   -9.3905  -19.0701 C   0  0  0  0  0  0  0  0  0  0  0  0
   18.8953  -10.5488  -18.1396 C   0  0  2  0  0  0  0  0  0  0  0  0
   17.7346  -11.3399  -17.8883 N   0  0  0  0  0  0  0  0  0  0  0  0
   19.5049  -10.1086  -16.8594 C   0  0  0  0  0  0  0  0  0  0  0  0
   18.7735   -9.7254  -15.9210 O   0  0  0  0  0  0  0  0  0  0  0  0
   23.6404  -10.8492  -16.1155 C   0  0  0  0  0  0  0  0  0  0  0  0
   22.6397  -10.6226  -14.9873 C   0  0  1  0  0  0  0  0  0  0  0  0
   23.3711  -10.2476  -13.7602 C   0  0  0  0  0  0  0  0  0  0  0  0
   21.6088   -9.6775  -15.4959 C   0  0  2  0  0  0  0  0  0  0  0  0
   20.9154  -10.1154  -16.6809 N   0  0  0  0  0  0  0  0  0  0  0  0
   22.0609   -8.2570  -15.5541 C   0  0  0  0  0  0  0  0  0  0  0  0
   23.0310   -7.9744  -16.3032 O   0  0  0  0  0  0  0  0  0  0  0  0
   20.6096   -5.1606  -16.9809 C   0  0  0  0  0  0  0  0  0  0  0  0
   20.8264   -4.9464  -15.5087 C   0  0  1  0  0  0  0  0  0  0  0  0
   19.6771   -5.1887  -14.7491 O   0  0  0  0  0  0  0  0  0  0  0  0
   21.9396   -5.8183  -14.9502 C   0  0  2  0  0  0  0  0  0  0  0  0
   21.4836   -7.1898  -14.8266 N   0  0  0  0  0  0  0  0  0  0  0  0
   22.2284   -5.3179  -13.5842 C   0  0  0  0  0  0  0  0  0  0  0  0
   21.9299   -6.0217  -12.5839 O   0  0  0  0  0  0  0  0  0  0  0  0
   22.8266   -4.0799  -13.3628 O   0  0  0  0  0  0  0  0  0  0  0  0
  2  3  1  0
  2  1  1  0
  3  4  1  1
  5  6  2  0
  5  3  1  0
  8  7  1  6
  8 10  1  0
  9  8  1  0
 10 12  1  0
 10 11  1  6
 11  5  1  0
 12 18  1  0
 13 12  2  0
 15 16  1  0
 15 14  1  6
 17 15  1  0
 17 18  1  1
 19 21  1  0
 19 17  1  0
 20 19  2  0
M  END
$$$$
