SVT.pdb
     RDKit          3D

 21 20  0  0  1  0  0  0  0  0999 V2000
   18.4421  -10.3636  -19.8889 O   0  0  0  0  0  0  0  0  0  0  0  0
   18.8810   -9.7847  -18.7251 C   0  0  0  0  0  0  0  0  0  0  0  0
   19.1391  -10.7689  -17.6106 C   0  0  2  0  0  0  0  0  0  0  0  0
   17.9638  -11.4637  -17.1957 N   0  0  0  0  0  0  0  0  0  0  0  0
   19.7982  -10.1305  -16.4434 C   0  0  0  0  0  0  0  0  0  0  0  0
   19.1281   -9.8510  -15.4260 O   0  0  0  0  0  0  0  0  0  0  0  0
   22.5661  -11.3397  -14.3722 C   0  0  0  0  0  0  0  0  0  0  0  0
   23.0983  -10.0153  -14.9092 C   0  0  1  0  0  0  0  0  0  0  0  0
   24.1805  -10.2858  -15.8772 C   0  0  0  0  0  0  0  0  0  0  0  0
   21.9266   -9.2286  -15.3814 C   0  0  2  0  0  0  0  0  0  0  0  0
   21.1877   -9.8295  -16.4628 N   0  0  0  0  0  0  0  0  0  0  0  0
   22.2077   -7.7769  -15.5789 C   0  0  0  0  0  0  0  0  0  0  0  0
   22.9585   -7.4432  -16.5313 O   0  0  0  0  0  0  0  0  0  0  0  0
   20.3528   -5.0040  -16.9380 C   0  0  0  0  0  0  0  0  0  0  0  0
   20.7038   -4.6388  -15.5225 C   0  0  1  0  0  0  0  0  0  0  0  0
   19.6818   -4.9363  -14.6149 O   0  0  0  0  0  0  0  0  0  0  0  0
   21.9666   -5.3325  -15.0373 C   0  0  2  0  0  0  0  0  0  0  0  0
   21.6956   -6.7328  -14.7732 N   0  0  0  0  0  0  0  0  0  0  0  0
   22.3337   -4.6968  -13.7485 C   0  0  0  0  0  0  0  0  0  0  0  0
   22.2229   -5.3471  -12.6762 O   0  0  0  0  0  0  0  0  0  0  0  0
   22.8037   -3.3877  -13.6786 O   0  0  0  0  0  0  0  0  0  0  0  0
  2  3  1  0
  2  1  1  0
  3  4  1  1
  5  6  2  0
  5  3  1  0
  8  7  1  6
  8 10  1  0
  9  8  1  0
 10 12  1  0
 10 11  1  6
 11  5  1  0
 12 18  1  0
 13 12  2  0
 15 16  1  0
 15 14  1  6
 17 15  1  0
 17 18  1  1
 19 21  1  0
 19 17  1  0
 20 19  2  0
M  END
$$$$
