SVT.pdb
     RDKit          3D

 21 20  0  0  1  0  0  0  0  0999 V2000
   21.4707  -30.4492   -8.8781 O   0  0  0  0  0  0  0  0  0  0  0  0
   22.1042  -31.5788   -8.4256 C   0  0  0  0  0  0  0  0  0  0  0  0
   22.6830  -32.4379   -9.5231 C   0  0  2  0  0  0  0  0  0  0  0  0
   21.6845  -33.0665  -10.3258 N   0  0  0  0  0  0  0  0  0  0  0  0
   23.6329  -33.4506   -8.9973 C   0  0  0  0  0  0  0  0  0  0  0  0
   23.2176  -34.5834   -8.6710 O   0  0  0  0  0  0  0  0  0  0  0  0
   27.2545  -33.2187  -10.1773 C   0  0  0  0  0  0  0  0  0  0  0  0
   27.3783  -33.8703   -8.8041 C   0  0  1  0  0  0  0  0  0  0  0  0
   28.3576  -33.1150   -7.9969 C   0  0  0  0  0  0  0  0  0  0  0  0
   26.0006  -34.0194   -8.2614 C   0  0  2  0  0  0  0  0  0  0  0  0
   25.0160  -33.1523   -8.8574 N   0  0  0  0  0  0  0  0  0  0  0  0
   25.9352  -34.0691   -6.7719 C   0  0  0  0  0  0  0  0  0  0  0  0
   25.8740  -32.9803   -6.1450 O   0  0  0  0  0  0  0  0  0  0  0  0
   24.9859  -36.5408   -2.5719 C   0  0  0  0  0  0  0  0  0  0  0  0
   25.1645  -36.5161   -4.0645 C   0  0  1  0  0  0  0  0  0  0  0  0
   23.9570  -36.6452   -4.7587 O   0  0  0  0  0  0  0  0  0  0  0  0
   25.8408  -35.2440   -4.5499 C   0  0  2  0  0  0  0  0  0  0  0  0
   25.9384  -35.2529   -5.9971 N   0  0  0  0  0  0  0  0  0  0  0  0
   27.2214  -35.2618   -4.0080 C   0  0  0  0  0  0  0  0  0  0  0  0
   28.1253  -35.8901   -4.6191 O   0  0  0  0  0  0  0  0  0  0  0  0
   27.5609  -34.5997   -2.8309 O   0  0  0  0  0  0  0  0  0  0  0  0
  2  3  1  0
  2  1  1  0
  3  4  1  1
  5  6  2  0
  5  3  1  0
  8  7  1  6
  8 10  1  0
  9  8  1  0
 10 12  1  0
 10 11  1  1
 11  5  1  0
 12 18  1  0
 13 12  2  0
 15 16  1  0
 15 14  1  1
 17 15  1  0
 17 18  1  6
 19 21  1  0
 19 17  1  0
 20 19  2  0
M  END
$$$$
