SVT.pdb
     RDKit          3D

 21 20  0  0  1  0  0  0  0  0999 V2000
   19.2080  -22.2007  -14.0929 O   0  0  0  0  0  0  0  0  0  0  0  0
   20.0929  -22.6848  -13.1630 C   0  0  0  0  0  0  0  0  0  0  0  0
   20.4517  -21.6927  -12.0839 C   0  0  2  0  0  0  0  0  0  0  0  0
   19.3612  -20.8493  -11.7155 N   0  0  0  0  0  0  0  0  0  0  0  0
   21.6348  -20.8735  -12.4496 C   0  0  0  0  0  0  0  0  0  0  0  0
   21.5289  -19.6311  -12.5362 O   0  0  0  0  0  0  0  0  0  0  0  0
   25.5810  -22.6558  -12.6858 C   0  0  0  0  0  0  0  0  0  0  0  0
   25.3225  -21.1880  -12.3630 C   0  0  1  0  0  0  0  0  0  0  0  0
   26.5561  -20.4142  -12.6094 C   0  0  0  0  0  0  0  0  0  0  0  0
   24.0930  -20.7850  -13.0982 C   0  0  2  0  0  0  0  0  0  0  0  0
   22.8944  -21.4816  -12.7047 N   0  0  0  0  0  0  0  0  0  0  0  0
   24.2725  -20.6847  -14.5757 C   0  0  0  0  0  0  0  0  0  0  0  0
   24.3952  -21.7512  -15.2313 O   0  0  0  0  0  0  0  0  0  0  0  0
   21.9525  -19.3164  -17.3524 C   0  0  0  0  0  0  0  0  0  0  0  0
   23.2653  -18.5847  -17.3153 C   0  0  1  0  0  0  0  0  0  0  0  0
   23.2107  -17.4082  -16.5606 O   0  0  0  0  0  0  0  0  0  0  0  0
   24.3929  -19.4378  -16.7569 C   0  0  2  0  0  0  0  0  0  0  0  0
   24.3188  -19.4755  -15.3088 N   0  0  0  0  0  0  0  0  0  0  0  0
   25.6609  -18.7609  -17.1228 C   0  0  0  0  0  0  0  0  0  0  0  0
   26.0504  -18.7666  -18.3200 O   0  0  0  0  0  0  0  0  0  0  0  0
   26.4491  -18.1092  -16.1775 O   0  0  0  0  0  0  0  0  0  0  0  0
  2  3  1  0
  2  1  1  0
  3  4  1  6
  5  6  2  0
  5  3  1  0
  8  7  1  6
  8 10  1  0
  9  8  1  0
 10 12  1  0
 10 11  1  6
 11  5  1  0
 12 18  1  0
 13 12  2  0
 15 16  1  0
 15 14  1  1
 17 15  1  0
 17 18  1  1
 19 21  1  0
 19 17  1  0
 20 19  2  0
M  END
$$$$
