SVT.pdb
     RDKit          3D

 21 20  0  0  1  0  0  0  0  0999 V2000
   16.7464  -12.4942  -15.0536 O   0  0  0  0  0  0  0  0  0  0  0  0
   17.7227  -11.5463  -15.2285 C   0  0  0  0  0  0  0  0  0  0  0  0
   18.4415  -11.6441  -16.5518 C   0  0  2  0  0  0  0  0  0  0  0  0
   19.1144  -12.8895  -16.7314 N   0  0  0  0  0  0  0  0  0  0  0  0
   19.3836  -10.5156  -16.7602 C   0  0  0  0  0  0  0  0  0  0  0  0
   20.6050  -10.6775  -16.5499 O   0  0  0  0  0  0  0  0  0  0  0  0
   18.0309   -7.1000  -18.8193 C   0  0  0  0  0  0  0  0  0  0  0  0
   19.5247   -7.3838  -18.7024 C   0  0  1  0  0  0  0  0  0  0  0  0
   20.2747   -6.1348  -18.9452 C   0  0  0  0  0  0  0  0  0  0  0  0
   19.7406   -8.0810  -17.4054 C   0  0  2  0  0  0  0  0  0  0  0  0
   18.9177   -9.2456  -17.1978 N   0  0  0  0  0  0  0  0  0  0  0  0
   19.8001   -7.1689  -16.2265 C   0  0  0  0  0  0  0  0  0  0  0  0
   18.7208   -6.6901  -15.7928 O   0  0  0  0  0  0  0  0  0  0  0  0
   20.6027   -7.9993  -12.7647 C   0  0  0  0  0  0  0  0  0  0  0  0
   21.5384   -6.8986  -13.1807 C   0  0  1  0  0  0  0  0  0  0  0  0
   22.7864   -7.3743  -13.5966 O   0  0  0  0  0  0  0  0  0  0  0  0
   20.9728   -6.0462  -14.3052 C   0  0  2  0  0  0  0  0  0  0  0  0
   20.9837   -6.7918  -15.5494 N   0  0  0  0  0  0  0  0  0  0  0  0
   21.8895   -4.8915  -14.4674 C   0  0  0  0  0  0  0  0  0  0  0  0
   22.5486   -4.7606  -15.5320 O   0  0  0  0  0  0  0  0  0  0  0  0
   22.0511   -3.9318  -13.4712 O   0  0  0  0  0  0  0  0  0  0  0  0
  2  3  1  0
  2  1  1  0
  3  4  1  1
  5  6  2  0
  5  3  1  0
  8  7  1  1
  8 10  1  0
  9  8  1  0
 10 12  1  0
 10 11  1  1
 11  5  1  0
 12 18  1  0
 13 12  2  0
 15 16  1  0
 15 14  1  6
 17 15  1  0
 17 18  1  6
 19 21  1  0
 19 17  1  0
 20 19  2  0
M  END
$$$$
