SVT.pdb
     RDKit          3D

 21 20  0  0  1  0  0  0  0  0999 V2000
   26.7503  -19.8307  -20.5049 O   0  0  0  0  0  0  0  0  0  0  0  0
   26.1906  -20.3110  -19.3481 C   0  0  0  0  0  0  0  0  0  0  0  0
   27.1951  -20.8495  -18.3589 C   0  0  2  0  0  0  0  0  0  0  0  0
   28.0039  -21.8947  -18.8970 N   0  0  0  0  0  0  0  0  0  0  0  0
   26.5525  -21.2942  -17.0966 C   0  0  0  0  0  0  0  0  0  0  0  0
   26.0010  -22.4144  -17.0399 O   0  0  0  0  0  0  0  0  0  0  0  0
   28.0812  -21.3131  -13.6908 C   0  0  0  0  0  0  0  0  0  0  0  0
   26.7821  -20.5412  -13.4856 C   0  0  1  0  0  0  0  0  0  0  0  0
   27.1009  -19.1413  -13.1392 C   0  0  0  0  0  0  0  0  0  0  0  0
   25.9322  -20.7827  -14.6831 C   0  0  2  0  0  0  0  0  0  0  0  0
   26.5536  -20.4627  -15.9433 N   0  0  0  0  0  0  0  0  0  0  0  0
   24.5374  -20.2698  -14.5532 C   0  0  0  0  0  0  0  0  0  0  0  0
   24.3006  -19.0943  -14.9332 O   0  0  0  0  0  0  0  0  0  0  0  0
   21.2885  -22.6913  -14.7622 C   0  0  0  0  0  0  0  0  0  0  0  0
   21.1774  -21.1976  -14.8912 C   0  0  1  0  0  0  0  0  0  0  0  0
   19.8792  -20.7277  -14.6663 O   0  0  0  0  0  0  0  0  0  0  0  0
   22.1054  -20.4594  -13.9399 C   0  0  2  0  0  0  0  0  0  0  0  0
   23.4468  -21.0037  -14.0300 N   0  0  0  0  0  0  0  0  0  0  0  0
   21.6067  -20.7227  -12.5680 C   0  0  0  0  0  0  0  0  0  0  0  0
   22.2804  -21.4422  -11.7848 O   0  0  0  0  0  0  0  0  0  0  0  0
   20.4030  -20.1961  -12.1064 O   0  0  0  0  0  0  0  0  0  0  0  0
  2  3  1  0
  2  1  1  0
  3  4  1  6
  5  6  2  0
  5  3  1  0
  8  7  1  6
  8 10  1  0
  9  8  1  0
 10 12  1  0
 10 11  1  6
 11  5  1  0
 12 18  1  0
 13 12  2  0
 15 16  1  0
 15 14  1  1
 17 15  1  0
 17 18  1  1
 19 21  1  0
 19 17  1  0
 20 19  2  0
M  END
$$$$
