SVT.pdb
     RDKit          3D

 21 20  0  0  1  0  0  0  0  0999 V2000
   23.0297  -11.8012  -14.4504 O   0  0  0  0  0  0  0  0  0  0  0  0
   22.6625  -10.5639  -14.9158 C   0  0  0  0  0  0  0  0  0  0  0  0
   22.1502  -10.5705  -16.3352 C   0  0  2  0  0  0  0  0  0  0  0  0
   23.1159  -11.0392  -17.2755 N   0  0  0  0  0  0  0  0  0  0  0  0
   21.6328   -9.2417  -16.7484 C   0  0  0  0  0  0  0  0  0  0  0  0
   22.3441   -8.4856  -17.4445 O   0  0  0  0  0  0  0  0  0  0  0  0
   17.5246   -8.5607  -16.6540 C   0  0  0  0  0  0  0  0  0  0  0  0
   18.4482   -7.6644  -17.4720 C   0  0  1  0  0  0  0  0  0  0  0  0
   17.7366   -6.4143  -17.8071 C   0  0  0  0  0  0  0  0  0  0  0  0
   19.7301   -7.5533  -16.7244 C   0  0  2  0  0  0  0  0  0  0  0  0
   20.3335   -8.8112  -16.3634 N   0  0  0  0  0  0  0  0  0  0  0  0
   19.7024   -6.5588  -15.6128 C   0  0  0  0  0  0  0  0  0  0  0  0
   19.1792   -6.9038  -14.5222 O   0  0  0  0  0  0  0  0  0  0  0  0
   22.3355   -5.2380  -13.4246 C   0  0  0  0  0  0  0  0  0  0  0  0
   21.7054   -4.0796  -14.1468 C   0  0  1  0  0  0  0  0  0  0  0  0
   22.4003   -3.7188  -15.3060 O   0  0  0  0  0  0  0  0  0  0  0  0
   20.2630   -4.3533  -14.5412 C   0  0  2  0  0  0  0  0  0  0  0  0
   20.2198   -5.2440  -15.6852 N   0  0  0  0  0  0  0  0  0  0  0  0
   19.6826   -3.0550  -14.9626 C   0  0  0  0  0  0  0  0  0  0  0  0
   19.3718   -2.8707  -16.1686 O   0  0  0  0  0  0  0  0  0  0  0  0
   19.4652   -2.0162  -14.0609 O   0  0  0  0  0  0  0  0  0  0  0  0
  2  3  1  0
  2  1  1  0
  3  4  1  6
  5  6  2  0
  5  3  1  0
  8  7  1  1
  8 10  1  0
  9  8  1  0
 10 12  1  0
 10 11  1  1
 11  5  1  0
 12 18  1  0
 13 12  2  0
 15 16  1  0
 15 14  1  6
 17 15  1  0
 17 18  1  6
 19 21  1  0
 19 17  1  0
 20 19  2  0
M  END
$$$$
