SVT.pdb
     RDKit          3D

 21 20  0  0  1  0  0  0  0  0999 V2000
   19.5212   -9.7719  -21.5273 O   0  0  0  0  0  0  0  0  0  0  0  0
   19.6766   -9.5978  -20.1754 C   0  0  0  0  0  0  0  0  0  0  0  0
   20.0993  -10.8468  -19.4413 C   0  0  2  0  0  0  0  0  0  0  0  0
   19.1199  -11.8834  -19.4927 N   0  0  0  0  0  0  0  0  0  0  0  0
   20.4777  -10.5660  -18.0334 C   0  0  0  0  0  0  0  0  0  0  0  0
   19.5888  -10.4274  -17.1657 O   0  0  0  0  0  0  0  0  0  0  0  0
   23.8642  -10.3083  -14.4936 C   0  0  0  0  0  0  0  0  0  0  0  0
   23.3433  -10.9751  -15.7623 C   0  0  1  0  0  0  0  0  0  0  0  0
   22.9425  -12.3619  -15.4501 C   0  0  0  0  0  0  0  0  0  0  0  0
   22.3150  -10.0709  -16.3451 C   0  0  2  0  0  0  0  0  0  0  0  0
   21.8427  -10.4512  -17.6523 N   0  0  0  0  0  0  0  0  0  0  0  0
   22.6397   -8.6201  -16.2217 C   0  0  0  0  0  0  0  0  0  0  0  0
   23.6147   -8.1733  -16.8791 O   0  0  0  0  0  0  0  0  0  0  0  0
   19.7212   -5.8720  -15.5715 C   0  0  0  0  0  0  0  0  0  0  0  0
   21.0695   -5.5400  -16.1478 C   0  0  1  0  0  0  0  0  0  0  0  0
   21.3565   -4.1716  -16.1060 O   0  0  0  0  0  0  0  0  0  0  0  0
   22.2012   -6.2694  -15.4417 C   0  0  2  0  0  0  0  0  0  0  0  0
   21.9352   -7.6951  -15.4157 N   0  0  0  0  0  0  0  0  0  0  0  0
   22.2074   -5.7896  -14.0382 C   0  0  0  0  0  0  0  0  0  0  0  0
   21.8631   -6.5670  -13.1097 O   0  0  0  0  0  0  0  0  0  0  0  0
   22.5854   -4.4917  -13.7035 O   0  0  0  0  0  0  0  0  0  0  0  0
  2  3  1  0
  2  1  1  0
  3  4  1  1
  5  6  2  0
  5  3  1  0
  8  7  1  1
  8 10  1  0
  9  8  1  0
 10 12  1  0
 10 11  1  6
 11  5  1  0
 12 18  1  0
 13 12  2  0
 15 16  1  0
 15 14  1  1
 17 15  1  0
 17 18  1  1
 19 21  1  0
 19 17  1  0
 20 19  2  0
M  END
$$$$
