SVT.pdb
     RDKit          3D

 21 20  0  0  1  0  0  0  0  0999 V2000
   17.6040  -13.7137  -16.7031 O   0  0  0  0  0  0  0  0  0  0  0  0
   17.8762  -12.4113  -17.0378 C   0  0  0  0  0  0  0  0  0  0  0  0
   18.4517  -11.5954  -15.9061 C   0  0  2  0  0  0  0  0  0  0  0  0
   17.6925  -11.6966  -14.7021 N   0  0  0  0  0  0  0  0  0  0  0  0
   18.6337  -10.1705  -16.2814 C   0  0  0  0  0  0  0  0  0  0  0  0
   19.2623   -9.8759  -17.3207 O   0  0  0  0  0  0  0  0  0  0  0  0
   16.0794   -7.4100  -14.6914 C   0  0  0  0  0  0  0  0  0  0  0  0
   16.9743   -6.9622  -15.8421 C   0  0  1  0  0  0  0  0  0  0  0  0
   17.0460   -5.4871  -15.8532 C   0  0  0  0  0  0  0  0  0  0  0  0
   18.2515   -7.7174  -15.7267 C   0  0  2  0  0  0  0  0  0  0  0  0
   18.1019   -9.1282  -15.4737 N   0  0  0  0  0  0  0  0  0  0  0  0
   19.2736   -7.0568  -14.8640 C   0  0  0  0  0  0  0  0  0  0  0  0
   19.2714   -7.3218  -13.6343 O   0  0  0  0  0  0  0  0  0  0  0  0
   23.0865   -7.3632  -15.1540 C   0  0  0  0  0  0  0  0  0  0  0  0
   22.6750   -5.9173  -15.1746 C   0  0  1  0  0  0  0  0  0  0  0  0
   22.5758   -5.3988  -16.4700 O   0  0  0  0  0  0  0  0  0  0  0  0
   21.3434   -5.6801  -14.4806 C   0  0  2  0  0  0  0  0  0  0  0  0
   20.2549   -6.1451  -15.3191 N   0  0  0  0  0  0  0  0  0  0  0  0
   21.1968   -4.2118  -14.3302 C   0  0  0  0  0  0  0  0  0  0  0  0
   20.3435   -3.5943  -15.0199 O   0  0  0  0  0  0  0  0  0  0  0  0
   21.9793   -3.4791  -13.4412 O   0  0  0  0  0  0  0  0  0  0  0  0
  2  3  1  0
  2  1  1  0
  3  4  1  1
  5  6  2  0
  5  3  1  0
  8  7  1  1
  8 10  1  0
  9  8  1  0
 10 12  1  0
 10 11  1  1
 11  5  1  0
 12 18  1  0
 13 12  2  0
 15 16  1  0
 15 14  1  6
 17 15  1  0
 17 18  1  6
 19 21  1  0
 19 17  1  0
 20 19  2  0
M  END
$$$$
