TGW.pdb
     RDKit          3D

 26 27  0  0  1  0  0  0  0  0999 V2000
    5.6413  -16.0672   20.6009 C   0  0  0  0  0  0  0  0  0  0  0  0
    7.0280  -15.6200   20.9689 C   0  0  1  0  0  0  0  0  0  0  0  0
    7.0341  -14.7447   22.0660 O   0  0  0  0  0  0  0  0  0  0  0  0
    7.9827  -16.7792   21.1726 C   0  0  2  0  0  0  0  0  0  0  0  0
    7.4408  -17.5774   22.2566 N   0  0  0  0  0  0  0  0  0  0  0  0
    9.3365  -16.3584   21.5324 C   0  0  0  0  0  0  0  0  0  0  0  0
   10.1955  -16.0462   20.6423 O   0  0  0  0  0  0  0  0  0  0  0  0
    9.8091  -16.2608   22.8776 N   0  0  0  0  0  0  0  0  0  0  0  0
   11.1672  -15.9310   23.1845 C   0  0  0  0  0  0  0  0  0  0  0  0
   11.4674  -15.8666   24.6241 C   0  0  0  0  0  0  0  0  0  0  0  0
   12.5963  -15.5908   25.0983 O   0  0  0  0  0  0  0  0  0  0  0  0
   10.4125  -16.1331   25.5306 N   0  0  0  0  0  0  0  0  0  0  0  0
   10.6450  -16.2694   26.9690 C   0  0  1  0  0  0  0  0  0  0  0  0
    9.8463  -15.2207   27.6482 C   0  0  0  0  0  0  0  0  0  0  0  0
    8.5678  -14.9620   26.9763 C   0  0  0  0  0  0  0  0  0  0  0  0
    7.7290  -15.9529   26.4742 C   0  0  0  0  0  0  0  0  0  0  0  0
    6.6911  -15.3668   25.9036 N   0  0  0  0  0  0  0  0  0  0  0  0
    6.7708  -14.0268   25.9868 C   0  0  0  0  0  0  0  0  0  0  0  0
    5.9597  -13.0072   25.5759 C   0  0  0  0  0  0  0  0  0  0  0  0
    6.3223  -11.7089   25.8387 C   0  0  0  0  0  0  0  0  0  0  0  0
    7.4964  -11.4245   26.5131 C   0  0  0  0  0  0  0  0  0  0  0  0
    8.3010  -12.4638   26.9186 C   0  0  0  0  0  0  0  0  0  0  0  0
    7.9480  -13.7595   26.6603 C   0  0  0  0  0  0  0  0  0  0  0  0
   10.3774  -17.6613   27.3269 C   0  0  0  0  0  0  0  0  0  0  0  0
   10.8193  -18.2044   28.5532 O   0  0  0  0  0  0  0  0  0  0  0  0
    9.7523  -18.4774   26.6059 O   0  0  0  0  0  0  0  0  0  0  0  0
  2  1  1  1
  3  2  1  0
  4  2  1  0
  4  5  1  1
  6  4  1  0
  7  6  2  0
  8  6  1  0
  9  8  1  0
 10  9  1  0
 10 12  1  0
 11 10  2  0
 13 12  1  0
 13 14  1  1
 15 14  1  0
 15 16  2  0
 17 16  1  0
 18 17  1  0
 19 18  2  0
 20 19  1  0
 21 20  2  0
 21 22  1  0
 22 23  2  0
 23 18  1  0
 23 15  1  0
 24 25  1  0
 24 13  1  0
 26 24  2  0
M  END
$$$$
