TGW.pdb
     RDKit          3D

 26 27  0  0  1  0  0  0  0  0999 V2000
    7.4298  -12.2211   19.5187 C   0  0  0  0  0  0  0  0  0  0  0  0
    8.3530  -13.2656   20.0798 C   0  0  1  0  0  0  0  0  0  0  0  0
    8.8299  -12.9278   21.3559 O   0  0  0  0  0  0  0  0  0  0  0  0
    7.7481  -14.6550   20.0581 C   0  0  2  0  0  0  0  0  0  0  0  0
    6.5994  -14.6211   20.9443 N   0  0  0  0  0  0  0  0  0  0  0  0
    8.6668  -15.6942   20.5220 C   0  0  0  0  0  0  0  0  0  0  0  0
    9.6849  -16.0382   19.8344 O   0  0  0  0  0  0  0  0  0  0  0  0
    8.5130  -16.4009   21.7545 N   0  0  0  0  0  0  0  0  0  0  0  0
    9.4804  -17.3507   22.2124 C   0  0  0  0  0  0  0  0  0  0  0  0
   10.2910  -16.8924   23.3524 C   0  0  0  0  0  0  0  0  0  0  0  0
   11.5347  -16.7281   23.3136 O   0  0  0  0  0  0  0  0  0  0  0  0
    9.6219  -16.6194   24.5704 N   0  0  0  0  0  0  0  0  0  0  0  0
   10.3428  -16.4967   25.8379 C   0  0  1  0  0  0  0  0  0  0  0  0
    9.8568  -15.2655   26.5066 C   0  0  0  0  0  0  0  0  0  0  0  0
    8.4595  -14.9602   26.1793 C   0  0  0  0  0  0  0  0  0  0  0  0
    7.5055  -15.9146   25.8378 C   0  0  0  0  0  0  0  0  0  0  0  0
    6.3724  -15.2899   25.5695 N   0  0  0  0  0  0  0  0  0  0  0  0
    6.4956  -13.9578   25.7088 C   0  0  0  0  0  0  0  0  0  0  0  0
    5.6294  -12.9112   25.5657 C   0  0  0  0  0  0  0  0  0  0  0  0
    6.0695  -11.6331   25.8082 C   0  0  0  0  0  0  0  0  0  0  0  0
    7.3766  -11.3960   26.1948 C   0  0  0  0  0  0  0  0  0  0  0  0
    8.2349  -12.4619   26.3330 C   0  0  0  0  0  0  0  0  0  0  0  0
    7.8052  -13.7377   26.0927 C   0  0  0  0  0  0  0  0  0  0  0  0
   10.1887  -17.7614   26.5547 C   0  0  0  0  0  0  0  0  0  0  0  0
   10.9660  -18.0611   27.6950 O   0  0  0  0  0  0  0  0  0  0  0  0
    9.3810  -18.6690   26.2379 O   0  0  0  0  0  0  0  0  0  0  0  0
  2  1  1  1
  3  2  1  0
  4  2  1  0
  4  5  1  1
  6  4  1  0
  7  6  2  0
  8  6  1  0
  9  8  1  0
 10  9  1  0
 10 12  1  0
 11 10  2  0
 13 12  1  0
 13 14  1  1
 15 14  1  0
 15 16  2  0
 17 16  1  0
 18 17  1  0
 19 18  2  0
 20 19  1  0
 21 20  2  0
 21 22  1  0
 22 23  2  0
 23 18  1  0
 23 15  1  0
 24 25  1  0
 24 13  1  0
 26 24  2  0
M  END
$$$$
