TGW.pdb
     RDKit          3D

 26 27  0  0  1  0  0  0  0  0999 V2000
    5.4742  -17.1456   19.9548 C   0  0  0  0  0  0  0  0  0  0  0  0
    6.1199  -18.4818   19.7177 C   0  0  1  0  0  0  0  0  0  0  0  0
    6.6319  -18.6048   18.4167 O   0  0  0  0  0  0  0  0  0  0  0  0
    7.1619  -18.8229   20.7638 C   0  0  2  0  0  0  0  0  0  0  0  0
    6.4728  -18.8553   22.0405 N   0  0  0  0  0  0  0  0  0  0  0  0
    8.2465  -17.8447   20.8418 C   0  0  0  0  0  0  0  0  0  0  0  0
    9.2618  -17.9135   20.0724 O   0  0  0  0  0  0  0  0  0  0  0  0
    8.2683  -16.7515   21.7618 N   0  0  0  0  0  0  0  0  0  0  0  0
    9.3359  -15.7989   21.7860 C   0  0  0  0  0  0  0  0  0  0  0  0
   10.0534  -15.7214   23.0689 C   0  0  0  0  0  0  0  0  0  0  0  0
   11.1238  -15.0895   23.2420 O   0  0  0  0  0  0  0  0  0  0  0  0
    9.4976  -16.4045   24.1781 N   0  0  0  0  0  0  0  0  0  0  0  0
   10.1205  -16.3651   25.5016 C   0  0  1  0  0  0  0  0  0  0  0  0
    9.0333  -16.4591   26.5058 C   0  0  0  0  0  0  0  0  0  0  0  0
    7.9026  -15.5766   26.1969 C   0  0  0  0  0  0  0  0  0  0  0  0
    6.6960  -16.0064   25.6519 C   0  0  0  0  0  0  0  0  0  0  0  0
    5.9243  -14.9493   25.4694 N   0  0  0  0  0  0  0  0  0  0  0  0
    6.5348  -13.8163   25.8600 C   0  0  0  0  0  0  0  0  0  0  0  0
    6.1570  -12.5038   25.8881 C   0  0  0  0  0  0  0  0  0  0  0  0
    7.0268  -11.5618   26.3802 C   0  0  0  0  0  0  0  0  0  0  0  0
    8.2771  -11.9277   26.8461 C   0  0  0  0  0  0  0  0  0  0  0  0
    8.6407  -13.2537   26.8093 C   0  0  0  0  0  0  0  0  0  0  0  0
    7.7811  -14.1982   26.3202 C   0  0  0  0  0  0  0  0  0  0  0  0
   11.1578  -17.3947   25.5294 C   0  0  0  0  0  0  0  0  0  0  0  0
   12.0844  -17.4782   26.5918 O   0  0  0  0  0  0  0  0  0  0  0  0
   11.3189  -18.2714   24.6450 O   0  0  0  0  0  0  0  0  0  0  0  0
  2  1  1  1
  3  2  1  0
  4  2  1  0
  4  5  1  1
  6  4  1  0
  7  6  2  0
  8  6  1  0
  9  8  1  0
 10  9  1  0
 10 12  1  0
 11 10  2  0
 13 12  1  0
 13 14  1  1
 15 14  1  0
 15 16  2  0
 17 16  1  0
 18 17  1  0
 19 18  2  0
 20 19  1  0
 21 20  2  0
 21 22  1  0
 22 23  2  0
 23 18  1  0
 23 15  1  0
 24 25  1  0
 24 13  1  0
 26 24  2  0
M  END
$$$$
