TGW.pdb
     RDKit          3D

 26 27  0  0  1  0  0  0  0  0999 V2000
    6.8686  -15.5608   17.6262 C   0  0  0  0  0  0  0  0  0  0  0  0
    7.7548  -14.3472   17.6459 C   0  0  1  0  0  0  0  0  0  0  0  0
    7.3297  -13.3600   16.7435 O   0  0  0  0  0  0  0  0  0  0  0  0
    7.9479  -13.7853   19.0400 C   0  0  2  0  0  0  0  0  0  0  0  0
    8.6631  -12.5319   18.8867 N   0  0  0  0  0  0  0  0  0  0  0  0
    8.7236  -14.6629   19.9161 C   0  0  0  0  0  0  0  0  0  0  0  0
    9.9986  -14.6235   19.9383 O   0  0  0  0  0  0  0  0  0  0  0  0
    8.1409  -15.6192   20.8038 N   0  0  0  0  0  0  0  0  0  0  0  0
    8.9367  -16.5212   21.5788 C   0  0  0  0  0  0  0  0  0  0  0  0
    9.4899  -15.9388   22.8122 C   0  0  0  0  0  0  0  0  0  0  0  0
   10.2736  -14.9589   22.8406 O   0  0  0  0  0  0  0  0  0  0  0  0
    9.1116  -16.5236   24.0454 N   0  0  0  0  0  0  0  0  0  0  0  0
    9.8708  -16.2940   25.2751 C   0  0  1  0  0  0  0  0  0  0  0  0
    8.8933  -16.1796   26.3844 C   0  0  0  0  0  0  0  0  0  0  0  0
    7.7735  -15.2890   26.0595 C   0  0  0  0  0  0  0  0  0  0  0  0
    6.5650  -15.7125   25.5137 C   0  0  0  0  0  0  0  0  0  0  0  0
    5.8054  -14.6497   25.3149 N   0  0  0  0  0  0  0  0  0  0  0  0
    6.4260  -13.5186   25.6951 C   0  0  0  0  0  0  0  0  0  0  0  0
    6.0620  -12.2019   25.7057 C   0  0  0  0  0  0  0  0  0  0  0  0
    6.9393  -11.2633   26.1909 C   0  0  0  0  0  0  0  0  0  0  0  0
    8.1834  -11.6367   26.6673 C   0  0  0  0  0  0  0  0  0  0  0  0
    8.5331  -12.9669   26.6480 C   0  0  0  0  0  0  0  0  0  0  0  0
    7.6659  -13.9080   26.1659 C   0  0  0  0  0  0  0  0  0  0  0  0
   10.8814  -17.3460   25.3699 C   0  0  0  0  0  0  0  0  0  0  0  0
   11.8989  -17.3038   26.3483 O   0  0  0  0  0  0  0  0  0  0  0  0
   10.9400  -18.3508   24.6193 O   0  0  0  0  0  0  0  0  0  0  0  0
  2  1  1  1
  3  2  1  0
  4  2  1  0
  4  5  1  6
  6  4  1  0
  7  6  2  0
  8  6  1  0
  9  8  1  0
 10  9  1  0
 10 12  1  0
 11 10  2  0
 13 12  1  0
 13 14  1  1
 15 14  1  0
 15 16  2  0
 17 16  1  0
 18 17  1  0
 19 18  2  0
 20 19  1  0
 21 20  2  0
 21 22  1  0
 22 23  2  0
 23 18  1  0
 23 15  1  0
 24 25  1  0
 24 13  1  0
 26 24  2  0
M  END
$$$$
