TGW.pdb
     RDKit          3D

 26 27  0  0  1  0  0  0  0  0999 V2000
    9.0791  -13.1106   17.0420 C   0  0  0  0  0  0  0  0  0  0  0  0
    9.0408  -13.8166   18.3681 C   0  0  1  0  0  0  0  0  0  0  0  0
    9.5083  -13.0099   19.4171 O   0  0  0  0  0  0  0  0  0  0  0  0
    7.6795  -14.4057   18.6791 C   0  0  2  0  0  0  0  0  0  0  0  0
    6.7310  -13.3087   18.6265 N   0  0  0  0  0  0  0  0  0  0  0  0
    7.6051  -15.0260   20.0016 C   0  0  0  0  0  0  0  0  0  0  0  0
    7.2017  -14.3739   21.0212 O   0  0  0  0  0  0  0  0  0  0  0  0
    7.9675  -16.3827   20.2663 N   0  0  0  0  0  0  0  0  0  0  0  0
    7.9397  -16.9335   21.5868 C   0  0  0  0  0  0  0  0  0  0  0  0
    8.9092  -16.3329   22.5173 C   0  0  0  0  0  0  0  0  0  0  0  0
    9.7849  -15.4982   22.1829 O   0  0  0  0  0  0  0  0  0  0  0  0
    8.8476  -16.7233   23.8772 N   0  0  0  0  0  0  0  0  0  0  0  0
    9.8191  -16.2480   24.8629 C   0  0  1  0  0  0  0  0  0  0  0  0
    9.1142  -16.1393   26.1631 C   0  0  0  0  0  0  0  0  0  0  0  0
    7.9189  -15.2917   26.0872 C   0  0  0  0  0  0  0  0  0  0  0  0
    6.6340  -15.7652   25.8376 C   0  0  0  0  0  0  0  0  0  0  0  0
    5.8118  -14.7313   25.7998 N   0  0  0  0  0  0  0  0  0  0  0  0
    6.4619  -13.5730   26.0106 C   0  0  0  0  0  0  0  0  0  0  0  0
    6.0633  -12.2683   26.0827 C   0  0  0  0  0  0  0  0  0  0  0  0
    6.9940  -11.2917   26.3403 C   0  0  0  0  0  0  0  0  0  0  0  0
    8.3262  -11.6152   26.5271 C   0  0  0  0  0  0  0  0  0  0  0  0
    8.7094  -12.9340   26.4501 C   0  0  0  0  0  0  0  0  0  0  0  0
    7.7894  -13.9126   26.1931 C   0  0  0  0  0  0  0  0  0  0  0  0
   10.9813  -17.1322   24.7955 C   0  0  0  0  0  0  0  0  0  0  0  0
   12.1852  -16.8184   25.4637 O   0  0  0  0  0  0  0  0  0  0  0  0
   11.0199  -18.2151   24.1612 O   0  0  0  0  0  0  0  0  0  0  0  0
  2  1  1  6
  3  2  1  0
  4  2  1  0
  4  5  1  1
  6  4  1  0
  7  6  2  0
  8  6  1  0
  9  8  1  0
 10  9  1  0
 10 12  1  0
 11 10  2  0
 13 12  1  0
 13 14  1  1
 15 14  1  0
 15 16  2  0
 17 16  1  0
 18 17  1  0
 19 18  2  0
 20 19  1  0
 21 20  2  0
 21 22  1  0
 22 23  2  0
 23 18  1  0
 23 15  1  0
 24 25  1  0
 24 13  1  0
 26 24  2  0
M  END
$$$$
