TGW.pdb
     RDKit          3D

 26 27  0  0  1  0  0  0  0  0999 V2000
    7.4499  -20.8238   18.5746 C   0  0  0  0  0  0  0  0  0  0  0  0
    7.9383  -19.4217   18.8071 C   0  0  1  0  0  0  0  0  0  0  0  0
    7.0472  -18.4563   18.3133 O   0  0  0  0  0  0  0  0  0  0  0  0
    8.3007  -19.1601   20.2552 C   0  0  2  0  0  0  0  0  0  0  0  0
    7.0880  -19.3549   21.0280 N   0  0  0  0  0  0  0  0  0  0  0  0
    8.7947  -17.8041   20.4929 C   0  0  0  0  0  0  0  0  0  0  0  0
    9.9388  -17.4287   20.0710 O   0  0  0  0  0  0  0  0  0  0  0  0
    8.0615  -16.8020   21.2002 N   0  0  0  0  0  0  0  0  0  0  0  0
    8.5187  -15.4492   21.2941 C   0  0  0  0  0  0  0  0  0  0  0  0
    9.2394  -15.1355   22.5386 C   0  0  0  0  0  0  0  0  0  0  0  0
    9.7640  -14.0232   22.7894 O   0  0  0  0  0  0  0  0  0  0  0  0
    9.3459  -16.1561   23.5147 N   0  0  0  0  0  0  0  0  0  0  0  0
   10.1146  -15.9711   24.7460 C   0  0  1  0  0  0  0  0  0  0  0  0
    9.2258  -16.3221   25.8801 C   0  0  0  0  0  0  0  0  0  0  0  0
    7.9746  -15.5557   25.8739 C   0  0  0  0  0  0  0  0  0  0  0  0
    6.7259  -16.0918   25.5725 C   0  0  0  0  0  0  0  0  0  0  0  0
    5.8340  -15.1182   25.6240 N   0  0  0  0  0  0  0  0  0  0  0  0
    6.4018  -13.9421   25.9451 C   0  0  0  0  0  0  0  0  0  0  0  0
    5.9135  -12.6802   26.1341 C   0  0  0  0  0  0  0  0  0  0  0  0
    6.7738  -11.6697   26.4872 C   0  0  0  0  0  0  0  0  0  0  0  0
    8.1251  -11.9161   26.6530 C   0  0  0  0  0  0  0  0  0  0  0  0
    8.5990  -13.1926   26.4578 C   0  0  0  0  0  0  0  0  0  0  0  0
    7.7495  -14.2045   26.1053 C   0  0  0  0  0  0  0  0  0  0  0  0
   11.3592  -16.7246   24.6039 C   0  0  0  0  0  0  0  0  0  0  0  0
   11.5684  -17.6030   23.5181 O   0  0  0  0  0  0  0  0  0  0  0  0
   12.3259  -16.6657   25.4030 O   0  0  0  0  0  0  0  0  0  0  0  0
  2  1  1  1
  3  2  1  0
  4  2  1  0
  4  5  1  1
  6  4  1  0
  7  6  2  0
  8  6  1  0
  9  8  1  0
 10  9  1  0
 10 12  1  0
 11 10  2  0
 13 12  1  0
 13 14  1  1
 15 14  1  0
 15 16  2  0
 17 16  1  0
 18 17  1  0
 19 18  2  0
 20 19  1  0
 21 20  2  0
 21 22  1  0
 22 23  2  0
 23 18  1  0
 23 15  1  0
 24 25  1  0
 24 13  1  0
 26 24  2  0
M  END
$$$$
