TGW.pdb
     RDKit          3D

 26 27  0  0  1  0  0  0  0  0999 V2000
    2.2987  -18.0759   20.2223 C   0  0  0  0  0  0  0  0  0  0  0  0
    2.4573  -19.4109   20.8940 C   0  0  1  0  0  0  0  0  0  0  0  0
    1.7264  -20.4226   20.2522 O   0  0  0  0  0  0  0  0  0  0  0  0
    3.9090  -19.8029   21.0828 C   0  0  2  0  0  0  0  0  0  0  0  0
    3.9073  -21.0858   21.7611 N   0  0  0  0  0  0  0  0  0  0  0  0
    4.6669  -18.8474   21.8902 C   0  0  0  0  0  0  0  0  0  0  0  0
    4.9375  -17.6779   21.4583 O   0  0  0  0  0  0  0  0  0  0  0  0
    5.1607  -19.1281   23.2015 N   0  0  0  0  0  0  0  0  0  0  0  0
    5.8196  -18.1358   23.9946 C   0  0  0  0  0  0  0  0  0  0  0  0
    7.1226  -17.7007   23.4657 C   0  0  0  0  0  0  0  0  0  0  0  0
    7.6193  -18.1095   22.3881 O   0  0  0  0  0  0  0  0  0  0  0  0
    7.8612  -16.7595   24.2235 N   0  0  0  0  0  0  0  0  0  0  0  0
    9.1323  -16.2115   23.7489 C   0  0  1  0  0  0  0  0  0  0  0  0
    9.1301  -14.7600   24.0528 C   0  0  0  0  0  0  0  0  0  0  0  0
    8.4965  -14.4546   25.3405 C   0  0  0  0  0  0  0  0  0  0  0  0
    8.4675  -15.3230   26.4279 C   0  0  0  0  0  0  0  0  0  0  0  0
    7.7864  -14.7448   27.4015 N   0  0  0  0  0  0  0  0  0  0  0  0
    7.3462  -13.5256   27.0425 C   0  0  0  0  0  0  0  0  0  0  0  0
    6.6318  -12.5546   27.6852 C   0  0  0  0  0  0  0  0  0  0  0  0
    6.3545  -11.3780   27.0334 C   0  0  0  0  0  0  0  0  0  0  0  0
    6.7900  -11.1672   25.7372 C   0  0  0  0  0  0  0  0  0  0  0  0
    7.5073  -12.1564   25.1055 C   0  0  0  0  0  0  0  0  0  0  0  0
    7.7872  -13.3313   25.7468 C   0  0  0  0  0  0  0  0  0  0  0  0
   10.2028  -17.0219   24.3271 C   0  0  0  0  0  0  0  0  0  0  0  0
    9.9510  -17.9370   25.3728 O   0  0  0  0  0  0  0  0  0  0  0  0
   11.4040  -16.9842   23.9635 O   0  0  0  0  0  0  0  0  0  0  0  0
  2  1  1  6
  3  2  1  0
  4  2  1  0
  4  5  1  1
  6  4  1  0
  7  6  2  0
  8  6  1  0
  9  8  1  0
 10  9  1  0
 10 12  1  0
 11 10  2  0
 13 12  1  0
 13 14  1  1
 15 14  1  0
 15 16  2  0
 17 16  1  0
 18 17  1  0
 19 18  2  0
 20 19  1  0
 21 20  2  0
 21 22  1  0
 22 23  2  0
 23 18  1  0
 23 15  1  0
 24 25  1  0
 24 13  1  0
 26 24  2  0
M  END
$$$$
