QGV.pdb
     RDKit          3D

 21 20  0  0  1  0  0  0  0  0999 V2000
    7.3228  -19.2768   28.4058 N   0  0  0  0  0  0  0  0  0  0  0  0
    8.4382  -19.0349   27.5597 C   0  0  0  0  0  0  0  0  0  0  0  0
    9.5925  -18.9471   28.0374 O   0  0  0  0  0  0  0  0  0  0  0  0
    8.2356  -18.8864   26.1120 C   0  0  0  0  0  0  0  0  0  0  0  0
    6.7766  -18.9520   25.7229 C   0  0  0  0  0  0  0  0  0  0  0  0
    6.7068  -18.7700   24.2232 C   0  0  2  0  0  0  0  0  0  0  0  0
    7.9890  -19.1848   23.6794 N   0  0  0  0  0  0  0  0  0  0  0  0
    6.4600  -17.3579   23.8363 C   0  0  0  0  0  0  0  0  0  0  0  0
    5.4225  -16.7246   24.2047 O   0  0  0  0  0  0  0  0  0  0  0  0
    7.3880  -16.6587   23.0305 N   0  0  0  0  0  0  0  0  0  0  0  0
    7.1714  -15.2884   22.6081 C   0  0  0  0  0  0  0  0  0  0  0  0
    7.7704  -14.3354   23.5861 C   0  0  0  0  0  0  0  0  0  0  0  0
    8.6013  -13.4662   23.2153 O   0  0  0  0  0  0  0  0  0  0  0  0
    6.4989  -11.6484   25.3793 C   0  0  0  0  0  0  0  0  0  0  0  0
    7.1069  -12.4700   26.4680 C   0  0  1  0  0  0  0  0  0  0  0  0
    6.0146  -13.1081   27.2720 C   0  0  0  0  0  0  0  0  0  0  0  0
    8.0869  -13.4775   25.9040 C   0  0  2  0  0  0  0  0  0  0  0  0
    7.4377  -14.3613   24.9635 N   0  0  0  0  0  0  0  0  0  0  0  0
    8.7994  -14.2109   26.9711 C   0  0  0  0  0  0  0  0  0  0  0  0
    8.7833  -15.5928   27.0930 O   0  0  0  0  0  0  0  0  0  0  0  0
    9.4656  -13.5834   27.8318 O   0  0  0  0  0  0  0  0  0  0  0  0
  1  2  1  0
  2  3  2  0
  4  5  1  0
  4  2  1  0
  6  7  1  6
  6  8  1  0
  6  5  1  0
  8 10  1  0
  8  9  2  0
 10 11  1  0
 11 12  1  0
 12 18  1  0
 12 13  2  0
 15 14  1  6
 15 17  1  0
 16 15  1  0
 17 19  1  0
 17 18  1  6
 19 20  1  0
 21 19  2  0
M  END
$$$$
