QGV.pdb
     RDKit          3D

 21 20  0  0  1  0  0  0  0  0999 V2000
    8.1272  -13.8560   16.9563 N   0  0  0  0  0  0  0  0  0  0  0  0
    8.1738  -13.4631   18.3209 C   0  0  0  0  0  0  0  0  0  0  0  0
    8.0477  -12.2591   18.6414 O   0  0  0  0  0  0  0  0  0  0  0  0
    8.3715  -14.4781   19.3648 C   0  0  0  0  0  0  0  0  0  0  0  0
    7.4077  -15.6351   19.2356 C   0  0  0  0  0  0  0  0  0  0  0  0
    7.0730  -16.0947   20.6371 C   0  0  2  0  0  0  0  0  0  0  0  0
    6.3841  -14.9979   21.2963 N   0  0  0  0  0  0  0  0  0  0  0  0
    8.2847  -16.4373   21.4238 C   0  0  0  0  0  0  0  0  0  0  0  0
    9.1532  -17.2648   21.0067 O   0  0  0  0  0  0  0  0  0  0  0  0
    8.5163  -15.8433   22.6860 N   0  0  0  0  0  0  0  0  0  0  0  0
    9.7168  -16.1023   23.4571 C   0  0  0  0  0  0  0  0  0  0  0  0
    9.6844  -15.3561   24.7477 C   0  0  0  0  0  0  0  0  0  0  0  0
   10.6432  -15.4273   25.5594 O   0  0  0  0  0  0  0  0  0  0  0  0
    7.5920  -11.8901   25.3909 C   0  0  0  0  0  0  0  0  0  0  0  0
    7.4254  -12.8892   26.4882 C   0  0  1  0  0  0  0  0  0  0  0  0
    6.0462  -13.4719   26.4184 C   0  0  0  0  0  0  0  0  0  0  0  0
    8.5121  -13.9425   26.4317 C   0  0  2  0  0  0  0  0  0  0  0  0
    8.5863  -14.5406   25.1188 N   0  0  0  0  0  0  0  0  0  0  0  0
    8.3617  -14.9482   27.5044 C   0  0  0  0  0  0  0  0  0  0  0  0
    8.7796  -14.7426   28.8112 O   0  0  0  0  0  0  0  0  0  0  0  0
    7.8318  -16.0602   27.2572 O   0  0  0  0  0  0  0  0  0  0  0  0
  1  2  1  0
  2  3  2  0
  4  5  1  0
  4  2  1  0
  6  7  1  1
  6  8  1  0
  6  5  1  0
  8 10  1  0
  8  9  2  0
 10 11  1  0
 11 12  1  0
 12 18  1  0
 12 13  2  0
 15 14  1  6
 15 17  1  0
 16 15  1  0
 17 19  1  0
 17 18  1  6
 19 20  1  0
 21 19  2  0
M  END
$$$$
