QGV.pdb
     RDKit          3D

 21 20  0  0  1  0  0  0  0  0999 V2000
    9.3284  -13.0916   16.4265 N   0  0  0  0  0  0  0  0  0  0  0  0
    8.5332  -14.2371   16.1545 C   0  0  0  0  0  0  0  0  0  0  0  0
    8.7409  -14.9278   15.1307 O   0  0  0  0  0  0  0  0  0  0  0  0
    7.4582  -14.6146   17.0823 C   0  0  0  0  0  0  0  0  0  0  0  0
    7.3778  -13.6944   18.2786 C   0  0  0  0  0  0  0  0  0  0  0  0
    8.2315  -14.3041   19.3679 C   0  0  2  0  0  0  0  0  0  0  0  0
    8.4356  -15.7011   19.0232 N   0  0  0  0  0  0  0  0  0  0  0  0
    7.5820  -14.2328   20.7012 C   0  0  0  0  0  0  0  0  0  0  0  0
    7.2888  -13.1281   21.2552 O   0  0  0  0  0  0  0  0  0  0  0  0
    7.2625  -15.4131   21.4113 N   0  0  0  0  0  0  0  0  0  0  0  0
    6.6362  -15.3867   22.7190 C   0  0  0  0  0  0  0  0  0  0  0  0
    7.5546  -14.7890   23.7303 C   0  0  0  0  0  0  0  0  0  0  0  0
    8.7859  -14.6755   23.4975 O   0  0  0  0  0  0  0  0  0  0  0  0
    7.1638  -11.4368   25.6798 C   0  0  0  0  0  0  0  0  0  0  0  0
    7.3805  -12.5574   26.6427 C   0  0  1  0  0  0  0  0  0  0  0  0
    6.0828  -12.8851   27.3173 C   0  0  0  0  0  0  0  0  0  0  0  0
    8.0022  -13.7531   25.9518 C   0  0  2  0  0  0  0  0  0  0  0  0
    7.0919  -14.3253   24.9871 N   0  0  0  0  0  0  0  0  0  0  0  0
    8.5019  -14.7515   26.9203 C   0  0  0  0  0  0  0  0  0  0  0  0
    9.5797  -14.5271   27.7645 O   0  0  0  0  0  0  0  0  0  0  0  0
    7.9462  -15.8746   27.0126 O   0  0  0  0  0  0  0  0  0  0  0  0
  1  2  1  0
  2  3  2  0
  4  5  1  0
  4  2  1  0
  6  7  1  6
  6  8  1  0
  6  5  1  0
  8 10  1  0
  8  9  2  0
 10 11  1  0
 11 12  1  0
 12 18  1  0
 12 13  2  0
 15 14  1  6
 15 17  1  0
 16 15  1  0
 17 19  1  0
 17 18  1  6
 19 20  1  0
 21 19  2  0
M  END
$$$$
