QGV.pdb
     RDKit          3D

 21 20  0  0  1  0  0  0  0  0999 V2000
   10.4639  -20.0594   22.8418 N   0  0  0  0  0  0  0  0  0  0  0  0
   10.8664  -19.0163   21.9652 C   0  0  0  0  0  0  0  0  0  0  0  0
   11.2602  -17.9183   22.4208 O   0  0  0  0  0  0  0  0  0  0  0  0
   10.8201  -19.2276   20.5119 C   0  0  0  0  0  0  0  0  0  0  0  0
    9.4379  -19.0107   19.9402 C   0  0  0  0  0  0  0  0  0  0  0  0
    9.3065  -17.5342   19.6402 C   0  0  2  0  0  0  0  0  0  0  0  0
   10.5471  -16.8994   20.0525 N   0  0  0  0  0  0  0  0  0  0  0  0
    8.1819  -16.9057   20.3783 C   0  0  0  0  0  0  0  0  0  0  0  0
    6.9673  -17.1142   20.0709 O   0  0  0  0  0  0  0  0  0  0  0  0
    8.4298  -16.0386   21.4674 N   0  0  0  0  0  0  0  0  0  0  0  0
    7.3631  -15.4994   22.2886 C   0  0  0  0  0  0  0  0  0  0  0  0
    7.9198  -14.6769   23.4009 C   0  0  0  0  0  0  0  0  0  0  0  0
    9.1523  -14.6821   23.6540 O   0  0  0  0  0  0  0  0  0  0  0  0
    5.4263  -12.8790   26.4936 C   0  0  0  0  0  0  0  0  0  0  0  0
    6.6449  -12.2065   25.9525 C   0  0  1  0  0  0  0  0  0  0  0  0
    7.2433  -11.3393   27.0186 C   0  0  0  0  0  0  0  0  0  0  0  0
    7.6247  -13.2214   25.4017 C   0  0  2  0  0  0  0  0  0  0  0  0
    7.0986  -13.8596   24.2172 N   0  0  0  0  0  0  0  0  0  0  0  0
    8.0461  -14.1957   26.4300 C   0  0  0  0  0  0  0  0  0  0  0  0
    9.0538  -13.9495   27.3513 O   0  0  0  0  0  0  0  0  0  0  0  0
    7.4848  -15.3173   26.5046 O   0  0  0  0  0  0  0  0  0  0  0  0
  1  2  1  0
  2  3  2  0
  4  5  1  0
  4  2  1  0
  6  7  1  1
  6  8  1  0
  6  5  1  0
  8 10  1  0
  8  9  2  0
 10 11  1  0
 11 12  1  0
 12 18  1  0
 12 13  2  0
 15 14  1  1
 15 17  1  0
 16 15  1  0
 17 19  1  0
 17 18  1  6
 19 20  1  0
 21 19  2  0
M  END
$$$$
