QGV.pdb
     RDKit          3D

 21 20  0  0  1  0  0  0  0  0999 V2000
    8.3677  -14.9240   17.2741 N   0  0  0  0  0  0  0  0  0  0  0  0
    8.0497  -13.9014   18.2077 C   0  0  0  0  0  0  0  0  0  0  0  0
    7.3983  -12.8933   17.8505 O   0  0  0  0  0  0  0  0  0  0  0  0
    8.4890  -14.0278   19.6042 C   0  0  0  0  0  0  0  0  0  0  0  0
    9.4024  -15.2129   19.8176 C   0  0  0  0  0  0  0  0  0  0  0  0
    8.5286  -16.3844   20.2070 C   0  0  2  0  0  0  0  0  0  0  0  0
    7.2715  -16.2396   19.4922 N   0  0  0  0  0  0  0  0  0  0  0  0
    8.2465  -16.4188   21.6643 C   0  0  0  0  0  0  0  0  0  0  0  0
    9.1490  -16.6595   22.5249 O   0  0  0  0  0  0  0  0  0  0  0  0
    6.9405  -16.1807   22.1513 N   0  0  0  0  0  0  0  0  0  0  0  0
    6.6311  -16.1663   23.5681 C   0  0  0  0  0  0  0  0  0  0  0  0
    7.4224  -15.1145   24.2688 C   0  0  0  0  0  0  0  0  0  0  0  0
    8.4319  -14.5961   23.7254 O   0  0  0  0  0  0  0  0  0  0  0  0
    6.4876  -11.7937   25.4548 C   0  0  0  0  0  0  0  0  0  0  0  0
    7.0719  -12.4694   26.6516 C   0  0  1  0  0  0  0  0  0  0  0  0
    5.9713  -12.8130   27.6094 C   0  0  0  0  0  0  0  0  0  0  0  0
    7.8955  -13.6737   26.2459 C   0  0  2  0  0  0  0  0  0  0  0  0
    7.0808  -14.6530   25.5645 N   0  0  0  0  0  0  0  0  0  0  0  0
    8.6330  -14.2485   27.3905 C   0  0  0  0  0  0  0  0  0  0  0  0
    9.6039  -13.5576   28.1010 O   0  0  0  0  0  0  0  0  0  0  0  0
    8.3950  -15.4226   27.7693 O   0  0  0  0  0  0  0  0  0  0  0  0
  1  2  1  0
  2  3  2  0
  4  5  1  0
  4  2  1  0
  6  7  1  6
  6  8  1  0
  6  5  1  0
  8 10  1  0
  8  9  2  0
 10 11  1  0
 11 12  1  0
 12 18  1  0
 12 13  2  0
 15 14  1  6
 15 17  1  0
 16 15  1  0
 17 19  1  0
 17 18  1  1
 19 20  1  0
 21 19  2  0
M  END
$$$$
