QGV.pdb
     RDKit          3D

 21 20  0  0  1  0  0  0  0  0999 V2000
    8.0989  -12.0922   18.5745 N   0  0  0  0  0  0  0  0  0  0  0  0
    7.8078  -13.4813   18.5111 C   0  0  0  0  0  0  0  0  0  0  0  0
    7.6641  -14.0519   17.4056 O   0  0  0  0  0  0  0  0  0  0  0  0
    7.6743  -14.2550   19.7532 C   0  0  0  0  0  0  0  0  0  0  0  0
    7.0431  -15.6092   19.5253 C   0  0  0  0  0  0  0  0  0  0  0  0
    7.0818  -16.3466   20.8451 C   0  0  2  0  0  0  0  0  0  0  0  0
    6.1758  -15.6581   21.7491 N   0  0  0  0  0  0  0  0  0  0  0  0
    8.4389  -16.3563   21.4473 C   0  0  0  0  0  0  0  0  0  0  0  0
    9.4330  -16.8984   20.8719 O   0  0  0  0  0  0  0  0  0  0  0  0
    8.6742  -15.7516   22.7037 N   0  0  0  0  0  0  0  0  0  0  0  0
    9.9967  -15.6789   23.2945 C   0  0  0  0  0  0  0  0  0  0  0  0
    9.9368  -15.0422   24.6416 C   0  0  0  0  0  0  0  0  0  0  0  0
   10.9796  -14.8816   25.3271 O   0  0  0  0  0  0  0  0  0  0  0  0
    7.7058  -11.8717   25.8660 C   0  0  0  0  0  0  0  0  0  0  0  0
    7.5122  -13.0913   26.7059 C   0  0  1  0  0  0  0  0  0  0  0  0
    6.1923  -13.7167   26.3692 C   0  0  0  0  0  0  0  0  0  0  0  0
    8.6743  -14.0492   26.5464 C   0  0  2  0  0  0  0  0  0  0  0  0
    8.7183  -14.5924   25.2085 N   0  0  0  0  0  0  0  0  0  0  0  0
    8.6684  -15.1010   27.5847 C   0  0  0  0  0  0  0  0  0  0  0  0
    8.9707  -14.8633   28.9177 O   0  0  0  0  0  0  0  0  0  0  0  0
    8.3792  -16.2855   27.2816 O   0  0  0  0  0  0  0  0  0  0  0  0
  1  2  1  0
  2  3  2  0
  4  5  1  0
  4  2  1  0
  6  7  1  1
  6  8  1  0
  6  5  1  0
  8 10  1  0
  8  9  2  0
 10 11  1  0
 11 12  1  0
 12 18  1  0
 12 13  2  0
 15 14  1  6
 15 17  1  0
 16 15  1  0
 17 19  1  0
 17 18  1  6
 19 20  1  0
 21 19  2  0
M  END
$$$$
