QGV.pdb
     RDKit          3D

 21 20  0  0  1  0  0  0  0  0999 V2000
    8.1100  -12.7650   17.6382 N   0  0  0  0  0  0  0  0  0  0  0  0
    8.2916  -13.9722   16.9114 C   0  0  0  0  0  0  0  0  0  0  0  0
    8.9473  -13.9805   15.8445 O   0  0  0  0  0  0  0  0  0  0  0  0
    7.7049  -15.2214   17.4158 C   0  0  0  0  0  0  0  0  0  0  0  0
    6.9894  -15.0329   18.7337 C   0  0  0  0  0  0  0  0  0  0  0  0
    7.9821  -15.3517   19.8292 C   0  0  2  0  0  0  0  0  0  0  0  0
    8.3332  -16.7556   19.6963 N   0  0  0  0  0  0  0  0  0  0  0  0
    7.4188  -15.1280   21.1846 C   0  0  0  0  0  0  0  0  0  0  0  0
    7.0614  -13.9786   21.5900 O   0  0  0  0  0  0  0  0  0  0  0  0
    7.2585  -16.2062   22.0854 N   0  0  0  0  0  0  0  0  0  0  0  0
    6.6909  -16.0341   23.4088 C   0  0  0  0  0  0  0  0  0  0  0  0
    7.6003  -15.2252   24.2702 C   0  0  0  0  0  0  0  0  0  0  0  0
    8.8231  -15.1155   23.9946 O   0  0  0  0  0  0  0  0  0  0  0  0
    7.0246  -11.6429   25.4539 C   0  0  0  0  0  0  0  0  0  0  0  0
    7.3957  -12.4549   26.6510 C   0  0  1  0  0  0  0  0  0  0  0  0
    6.1835  -12.6459   27.5116 C   0  0  0  0  0  0  0  0  0  0  0  0
    8.0373  -13.7638   26.2405 C   0  0  2  0  0  0  0  0  0  0  0  0
    7.1381  -14.5489   25.4267 N   0  0  0  0  0  0  0  0  0  0  0  0
    8.5498  -14.5159   27.4050 C   0  0  0  0  0  0  0  0  0  0  0  0
    9.6025  -14.0790   28.1960 O   0  0  0  0  0  0  0  0  0  0  0  0
    8.0296  -15.6135   27.7261 O   0  0  0  0  0  0  0  0  0  0  0  0
  1  2  1  0
  2  3  2  0
  4  5  1  0
  4  2  1  0
  6  7  1  1
  6  8  1  0
  6  5  1  0
  8 10  1  0
  8  9  2  0
 10 11  1  0
 11 12  1  0
 12 18  1  0
 12 13  2  0
 15 14  1  6
 15 17  1  0
 16 15  1  0
 17 19  1  0
 17 18  1  1
 19 20  1  0
 21 19  2  0
M  END
$$$$
