QGV.pdb
     RDKit          3D

 21 20  0  0  1  0  0  0  0  0999 V2000
    9.5552  -18.8784   17.5427 N   0  0  0  0  0  0  0  0  0  0  0  0
    8.1564  -18.7310   17.7426 C   0  0  0  0  0  0  0  0  0  0  0  0
    7.4399  -18.2004   16.8631 O   0  0  0  0  0  0  0  0  0  0  0  0
    7.5452  -19.2050   18.9919 C   0  0  0  0  0  0  0  0  0  0  0  0
    6.8963  -18.0887   19.7776 C   0  0  0  0  0  0  0  0  0  0  0  0
    7.8818  -17.6621   20.8425 C   0  0  2  0  0  0  0  0  0  0  0  0
    8.4178  -18.8726   21.4422 N   0  0  0  0  0  0  0  0  0  0  0  0
    7.2453  -16.8453   21.9066 C   0  0  0  0  0  0  0  0  0  0  0  0
    6.7633  -15.6922   21.6802 O   0  0  0  0  0  0  0  0  0  0  0  0
    7.1529  -17.3323   23.2308 N   0  0  0  0  0  0  0  0  0  0  0  0
    6.5327  -16.5694   24.2969 C   0  0  0  0  0  0  0  0  0  0  0  0
    7.4565  -15.5082   24.7906 C   0  0  0  0  0  0  0  0  0  0  0  0
    8.6451  -15.4454   24.3828 O   0  0  0  0  0  0  0  0  0  0  0  0
    6.5959  -11.6812   25.3354 C   0  0  0  0  0  0  0  0  0  0  0  0
    7.2588  -12.2427   26.5501 C   0  0  1  0  0  0  0  0  0  0  0  0
    6.2419  -12.3940   27.6407 C   0  0  0  0  0  0  0  0  0  0  0  0
    7.9723  -13.5391   26.2277 C   0  0  2  0  0  0  0  0  0  0  0  0
    7.0464  -14.5306   25.7313 N   0  0  0  0  0  0  0  0  0  0  0  0
    8.7679  -14.0302   27.3725 C   0  0  0  0  0  0  0  0  0  0  0  0
    9.8786  -13.3671   27.8740 O   0  0  0  0  0  0  0  0  0  0  0  0
    8.4518  -15.1016   27.9475 O   0  0  0  0  0  0  0  0  0  0  0  0
  1  2  1  0
  2  3  2  0
  4  5  1  0
  4  2  1  0
  6  7  1  1
  6  8  1  0
  6  5  1  0
  8 10  1  0
  8  9  2  0
 10 11  1  0
 11 12  1  0
 12 18  1  0
 12 13  2  0
 15 14  1  6
 15 17  1  0
 16 15  1  0
 17 19  1  0
 17 18  1  1
 19 20  1  0
 21 19  2  0
M  END
$$$$
