DPV.pdb
     RDKit          3D

 23 23  0  0  1  0  0  0  0  0999 V2000
   16.1648  -11.9437  -16.1857 N   0  0  0  0  0  0  0  0  0  0  0  0
   16.1648  -10.4619  -16.2965 C   0  0  1  0  0  0  0  0  0  0  0  0
   15.4261  -10.0235  -15.0518 C   0  0  0  0  0  0  0  0  0  0  0  0
   14.0192  -10.4189  -15.0371 C   0  0  0  0  0  0  0  0  0  0  0  0
   13.1834   -9.9949  -15.8351 O   0  0  0  0  0  0  0  0  0  0  0  0
   17.5724   -9.9866  -16.2415 C   0  0  0  0  0  0  0  0  0  0  0  0
   18.4061  -10.8217  -15.7835 O   0  0  0  0  0  0  0  0  0  0  0  0
   13.5857  -11.3427  -14.0506 O   0  0  0  0  0  0  0  0  0  0  0  0
   18.0437   -8.7375  -16.6436 N   0  0  0  0  0  0  0  0  0  0  0  0
   17.2856   -7.6250  -17.1457 C   0  0  0  0  0  0  0  0  0  0  0  0
   18.1697   -7.0921  -18.2617 C   0  0  0  0  0  0  0  0  0  0  0  0
   19.5248   -7.7342  -18.0793 C   0  0  0  0  0  0  0  0  0  0  0  0
   19.4201   -8.3146  -16.6813 C   0  0  1  0  0  0  0  0  0  0  0  0
   19.7112   -7.2935  -15.6335 C   0  0  0  0  0  0  0  0  0  0  0  0
   18.8388   -6.5235  -15.1600 O   0  0  0  0  0  0  0  0  0  0  0  0
   22.9630   -8.5018  -13.6189 C   0  0  0  0  0  0  0  0  0  0  0  0
   21.8139   -7.8063  -12.9287 C   0  0  2  0  0  0  0  0  0  0  0  0
   20.7471   -8.8315  -12.6021 C   0  0  0  0  0  0  0  0  0  0  0  0
   21.2492   -6.6940  -13.7840 C   0  0  2  0  0  0  0  0  0  0  0  0
   21.0227   -7.1686  -15.1355 N   0  0  0  0  0  0  0  0  0  0  0  0
   22.2538   -5.6151  -13.8584 C   0  0  0  0  0  0  0  0  0  0  0  0
   22.9669   -5.3484  -15.0071 O   0  0  0  0  0  0  0  0  0  0  0  0
   22.4691   -4.9154  -12.8457 O   0  0  0  0  0  0  0  0  0  0  0  0
  2  1  1  1
  2  3  1  0
  3  4  1  0
  4  5  2  0
  4  8  1  0
  6  9  1  0
  6  2  1  0
  7  6  2  0
  9 13  1  0
 10  9  1  0
 10 11  1  0
 11 12  1  0
 12 13  1  0
 13 14  1  1
 14 15  2  0
 17 16  1  6
 17 18  1  0
 19 17  1  0
 19 21  1  0
 20 14  1  0
 19 20  1  6
 21 22  1  0
 23 21  2  0
M  END
$$$$
