DPV.pdb
     RDKit          3D

 23 23  0  0  1  0  0  0  0  0999 V2000
   16.9442  -14.4285  -18.1182 N   0  0  0  0  0  0  0  0  0  0  0  0
   16.5947  -13.1716  -17.4068 C   0  0  1  0  0  0  0  0  0  0  0  0
   16.5033  -13.6079  -15.9616 C   0  0  0  0  0  0  0  0  0  0  0  0
   15.4157  -14.5490  -15.7026 C   0  0  0  0  0  0  0  0  0  0  0  0
   15.5773  -15.6498  -15.1760 O   0  0  0  0  0  0  0  0  0  0  0  0
   17.7159  -12.2098  -17.5735 C   0  0  0  0  0  0  0  0  0  0  0  0
   18.8004  -12.7127  -17.9897 O   0  0  0  0  0  0  0  0  0  0  0  0
   14.0972  -14.1797  -16.0764 O   0  0  0  0  0  0  0  0  0  0  0  0
   17.6784  -10.8386  -17.3235 N   0  0  0  0  0  0  0  0  0  0  0  0
   16.5728  -10.0562  -16.8439 C   0  0  0  0  0  0  0  0  0  0  0  0
   16.6756   -8.7858  -17.6725 C   0  0  0  0  0  0  0  0  0  0  0  0
   18.0416   -8.8034  -18.3172 C   0  0  0  0  0  0  0  0  0  0  0  0
   18.7487   -9.8999  -17.5427 C   0  0  1  0  0  0  0  0  0  0  0  0
   19.3113   -9.3961  -16.2562 C   0  0  0  0  0  0  0  0  0  0  0  0
   18.6541   -9.3529  -15.1864 O   0  0  0  0  0  0  0  0  0  0  0  0
   22.5144  -11.1863  -15.6417 C   0  0  0  0  0  0  0  0  0  0  0  0
   22.7277   -9.7416  -15.2575 C   0  0  2  0  0  0  0  0  0  0  0  0
   23.6258   -9.6874  -14.0384 C   0  0  0  0  0  0  0  0  0  0  0  0
   21.4133   -9.0424  -14.9907 C   0  0  2  0  0  0  0  0  0  0  0  0
   20.6434   -8.9411  -16.2155 N   0  0  0  0  0  0  0  0  0  0  0  0
   21.7063   -7.6679  -14.5394 C   0  0  0  0  0  0  0  0  0  0  0  0
   21.9507   -7.3609  -13.2184 O   0  0  0  0  0  0  0  0  0  0  0  0
   21.7349   -6.7456  -15.3821 O   0  0  0  0  0  0  0  0  0  0  0  0
  2  1  1  6
  2  3  1  0
  3  4  1  0
  4  5  2  0
  4  8  1  0
  6  9  1  0
  6  2  1  0
  7  6  2  0
  9 13  1  0
 10  9  1  0
 10 11  1  0
 11 12  1  0
 12 13  1  0
 13 14  1  1
 14 15  2  0
 17 16  1  1
 17 18  1  0
 19 17  1  0
 19 21  1  0
 20 14  1  0
 19 20  1  6
 21 22  1  0
 23 21  2  0
M  END
$$$$
