DPV.pdb
     RDKit          3D

 23 23  0  0  1  0  0  0  0  0999 V2000
   16.8543  -14.7313  -17.5363 N   0  0  0  0  0  0  0  0  0  0  0  0
   16.4990  -13.3455  -17.1345 C   0  0  1  0  0  0  0  0  0  0  0  0
   16.1638  -13.4878  -15.6667 C   0  0  0  0  0  0  0  0  0  0  0  0
   15.0037  -14.3393  -15.4117 C   0  0  0  0  0  0  0  0  0  0  0  0
   13.8664  -14.0772  -15.8026 O   0  0  0  0  0  0  0  0  0  0  0  0
   17.7014  -12.4863  -17.2965 C   0  0  0  0  0  0  0  0  0  0  0  0
   18.7863  -13.1085  -17.4919 O   0  0  0  0  0  0  0  0  0  0  0  0
   15.1918  -15.5365  -14.6729 O   0  0  0  0  0  0  0  0  0  0  0  0
   17.7382  -11.0931  -17.2581 N   0  0  0  0  0  0  0  0  0  0  0  0
   16.6483  -10.1847  -17.0311 C   0  0  0  0  0  0  0  0  0  0  0  0
   16.9313   -9.0661  -18.0209 C   0  0  0  0  0  0  0  0  0  0  0  0
   18.3530   -9.2605  -18.4930 C   0  0  0  0  0  0  0  0  0  0  0  0
   18.8916  -10.2616  -17.4881 C   0  0  1  0  0  0  0  0  0  0  0  0
   19.3499   -9.5967  -16.2338 C   0  0  0  0  0  0  0  0  0  0  0  0
   18.5926   -9.3697  -15.2575 O   0  0  0  0  0  0  0  0  0  0  0  0
   23.2342  -10.0514  -13.4624 C   0  0  0  0  0  0  0  0  0  0  0  0
   22.5316  -10.0846  -14.7987 C   0  0  2  0  0  0  0  0  0  0  0  0
   23.5222   -9.7075  -15.8814 C   0  0  0  0  0  0  0  0  0  0  0  0
   21.3356   -9.1590  -14.8158 C   0  0  2  0  0  0  0  0  0  0  0  0
   20.6945   -9.1947  -16.1162 N   0  0  0  0  0  0  0  0  0  0  0  0
   21.8170   -7.7805  -14.5996 C   0  0  0  0  0  0  0  0  0  0  0  0
   22.1099   -7.2889  -13.3459 O   0  0  0  0  0  0  0  0  0  0  0  0
   21.9662   -7.0280  -15.5860 O   0  0  0  0  0  0  0  0  0  0  0  0
  2  1  1  1
  2  3  1  0
  3  4  1  0
  4  5  2  0
  4  8  1  0
  6  9  1  0
  6  2  1  0
  7  6  2  0
  9 13  1  0
 10  9  1  0
 10 11  1  0
 11 12  1  0
 12 13  1  0
 13 14  1  1
 14 15  2  0
 17 16  1  1
 17 18  1  0
 19 17  1  0
 19 21  1  0
 20 14  1  0
 19 20  1  6
 21 22  1  0
 23 21  2  0
M  END
$$$$
