DPV.pdb
     RDKit          3D

 23 23  0  0  1  0  0  0  0  0999 V2000
   37.0960  -29.0911    4.7113 N   0  0  0  0  0  0  0  0  0  0  0  0
   36.9274  -27.6695    4.3132 C   0  0  1  0  0  0  0  0  0  0  0  0
   35.5508  -27.6481    3.6874 C   0  0  0  0  0  0  0  0  0  0  0  0
   35.4347  -28.4934    2.5009 C   0  0  0  0  0  0  0  0  0  0  0  0
   36.2447  -28.4828    1.5741 O   0  0  0  0  0  0  0  0  0  0  0  0
   36.9360  -26.8331    5.5422 C   0  0  0  0  0  0  0  0  0  0  0  0
   36.7741  -27.4660    6.6264 O   0  0  0  0  0  0  0  0  0  0  0  0
   34.3289  -29.3781    2.4054 O   0  0  0  0  0  0  0  0  0  0  0  0
   37.1069  -25.4507    5.6051 N   0  0  0  0  0  0  0  0  0  0  0  0
   37.1437  -24.5129    4.5172 C   0  0  0  0  0  0  0  0  0  0  0  0
   38.2550  -23.5617    4.9308 C   0  0  0  0  0  0  0  0  0  0  0  0
   38.5311  -23.8335    6.3909 C   0  0  0  0  0  0  0  0  0  0  0  0
   37.3317  -24.6703    6.7947 C   0  0  1  0  0  0  0  0  0  0  0  0
   36.1505  -23.8223    7.1281 C   0  0  0  0  0  0  0  0  0  0  0  0
   35.3678  -23.3591    6.2616 O   0  0  0  0  0  0  0  0  0  0  0  0
   32.9391  -24.3051   10.6938 C   0  0  0  0  0  0  0  0  0  0  0  0
   34.3048  -24.4544   10.0669 C   0  0  2  0  0  0  0  0  0  0  0  0
   35.3578  -24.2880   11.1437 C   0  0  0  0  0  0  0  0  0  0  0  0
   34.5116  -23.4543    8.9512 C   0  0  2  0  0  0  0  0  0  0  0  0
   35.8802  -23.5126    8.4751 N   0  0  0  0  0  0  0  0  0  0  0  0
   34.2929  -22.1014    9.4993 C   0  0  0  0  0  0  0  0  0  0  0  0
   33.0366  -21.5478    9.6197 O   0  0  0  0  0  0  0  0  0  0  0  0
   35.2795  -21.4295    9.8689 O   0  0  0  0  0  0  0  0  0  0  0  0
  2  1  1  1
  2  3  1  0
  3  4  1  0
  4  5  2  0
  4  8  1  0
  6  9  1  0
  6  2  1  0
  7  6  2  0
  9 13  1  0
 10  9  1  0
 10 11  1  0
 11 12  1  0
 12 13  1  0
 13 14  1  6
 14 15  2  0
 17 16  1  1
 17 18  1  0
 19 17  1  0
 19 21  1  0
 20 14  1  0
 19 20  1  1
 21 22  1  0
 23 21  2  0
M  END
$$$$
