DPV.pdb
     RDKit          3D

 23 23  0  0  1  0  0  0  0  0999 V2000
   27.8059  -20.6644  -17.9340 N   0  0  0  0  0  0  0  0  0  0  0  0
   28.1145  -19.8325  -16.7421 C   0  0  1  0  0  0  0  0  0  0  0  0
   27.1305  -18.6898  -16.8556 C   0  0  0  0  0  0  0  0  0  0  0  0
   27.3632  -17.8306  -18.0147 C   0  0  0  0  0  0  0  0  0  0  0  0
   26.4639  -17.4037  -18.7386 O   0  0  0  0  0  0  0  0  0  0  0  0
   27.8218  -20.6312  -15.5228 C   0  0  0  0  0  0  0  0  0  0  0  0
   27.0864  -21.6451  -15.7060 O   0  0  0  0  0  0  0  0  0  0  0  0
   28.6980  -17.4643  -18.3289 O   0  0  0  0  0  0  0  0  0  0  0  0
   28.2774  -20.3722  -14.2308 N   0  0  0  0  0  0  0  0  0  0  0  0
   29.1135  -19.2912  -13.7871 C   0  0  0  0  0  0  0  0  0  0  0  0
   30.0421  -19.9705  -12.7934 C   0  0  0  0  0  0  0  0  0  0  0  0
   29.4343  -21.3201  -12.4917 C   0  0  0  0  0  0  0  0  0  0  0  0
   28.0352  -21.1774  -13.0613 C   0  0  1  0  0  0  0  0  0  0  0  0
   27.1138  -20.4971  -12.1055 C   0  0  0  0  0  0  0  0  0  0  0  0
   27.2179  -19.2850  -11.7921 O   0  0  0  0  0  0  0  0  0  0  0  0
   22.3907  -20.4060  -11.3755 C   0  0  0  0  0  0  0  0  0  0  0  0
   23.6725  -21.0349  -11.8674 C   0  0  2  0  0  0  0  0  0  0  0  0
   23.5389  -22.5422  -11.7893 C   0  0  0  0  0  0  0  0  0  0  0  0
   24.8636  -20.5567  -11.0672 C   0  0  2  0  0  0  0  0  0  0  0  0
   26.0680  -21.2307  -11.5128 N   0  0  0  0  0  0  0  0  0  0  0  0
   24.6481  -20.9273   -9.6548 C   0  0  0  0  0  0  0  0  0  0  0  0
   25.2863  -21.9980   -9.0669 O   0  0  0  0  0  0  0  0  0  0  0  0
   23.8595  -20.2487   -8.9628 O   0  0  0  0  0  0  0  0  0  0  0  0
  2  1  1  6
  2  3  1  0
  3  4  1  0
  4  5  2  0
  4  8  1  0
  6  9  1  0
  6  2  1  0
  7  6  2  0
  9 13  1  0
 10  9  1  0
 10 11  1  0
 11 12  1  0
 12 13  1  0
 13 14  1  1
 14 15  2  0
 17 16  1  1
 17 18  1  0
 19 17  1  0
 19 21  1  0
 20 14  1  0
 19 20  1  6
 21 22  1  0
 23 21  2  0
M  END
$$$$
