DPV.pdb
     RDKit          3D

 23 23  0  0  1  0  0  0  0  0999 V2000
   23.6348  -22.1511  -12.6213 N   0  0  0  0  0  0  0  0  0  0  0  0
   24.4325  -20.9662  -12.2118 C   0  0  1  0  0  0  0  0  0  0  0  0
   23.3795  -19.9880  -11.7413 C   0  0  0  0  0  0  0  0  0  0  0  0
   22.5421  -19.4667  -12.8197 C   0  0  0  0  0  0  0  0  0  0  0  0
   22.9911  -18.9879  -13.8609 O   0  0  0  0  0  0  0  0  0  0  0  0
   25.3034  -21.3570  -11.0721 C   0  0  0  0  0  0  0  0  0  0  0  0
   24.8043  -22.2081  -10.2791 O   0  0  0  0  0  0  0  0  0  0  0  0
   21.1321  -19.5121  -12.6643 O   0  0  0  0  0  0  0  0  0  0  0  0
   26.5889  -20.8854  -10.8089 N   0  0  0  0  0  0  0  0  0  0  0  0
   27.3427  -19.9108  -11.5480 C   0  0  0  0  0  0  0  0  0  0  0  0
   28.7462  -20.4946  -11.5400 C   0  0  0  0  0  0  0  0  0  0  0  0
   28.7500  -21.5881  -10.4978 C   0  0  0  0  0  0  0  0  0  0  0  0
   27.4588  -21.3213   -9.7470 C   0  0  1  0  0  0  0  0  0  0  0  0
   27.6298  -20.2656   -8.7069 C   0  0  0  0  0  0  0  0  0  0  0  0
   27.4310  -19.0445   -8.9250 O   0  0  0  0  0  0  0  0  0  0  0  0
   26.8501  -19.7849   -3.9303 C   0  0  0  0  0  0  0  0  0  0  0  0
   27.1254  -20.6238   -5.1555 C   0  0  2  0  0  0  0  0  0  0  0  0
   28.0658  -21.7496   -4.7759 C   0  0  0  0  0  0  0  0  0  0  0  0
   27.7068  -19.7897   -6.2753 C   0  0  2  0  0  0  0  0  0  0  0  0
   28.0337  -20.6332   -7.4088 N   0  0  0  0  0  0  0  0  0  0  0  0
   28.9667  -19.1887   -5.7955 C   0  0  0  0  0  0  0  0  0  0  0  0
   30.2030  -19.6528   -6.1895 O   0  0  0  0  0  0  0  0  0  0  0  0
   28.9157  -18.2238   -5.0031 O   0  0  0  0  0  0  0  0  0  0  0  0
  2  1  1  1
  2  3  1  0
  3  4  1  0
  4  5  2  0
  4  8  1  0
  6  9  1  0
  6  2  1  0
  7  6  2  0
  9 13  1  0
 10  9  1  0
 10 11  1  0
 11 12  1  0
 12 13  1  0
 13 14  1  1
 14 15  2  0
 17 16  1  1
 17 18  1  0
 19 17  1  0
 19 21  1  0
 20 14  1  0
 19 20  1  6
 21 22  1  0
 23 21  2  0
M  END
$$$$
