DPV.pdb
     RDKit          3D

 23 23  0  0  1  0  0  0  0  0999 V2000
   26.7418  -19.2325  -14.2126 N   0  0  0  0  0  0  0  0  0  0  0  0
   26.0297  -20.2088  -13.3479 C   0  0  1  0  0  0  0  0  0  0  0  0
   26.7885  -21.4954  -13.5840 C   0  0  0  0  0  0  0  0  0  0  0  0
   28.2356  -21.3125  -13.6760 C   0  0  0  0  0  0  0  0  0  0  0  0
   28.7721  -20.4728  -14.3985 O   0  0  0  0  0  0  0  0  0  0  0  0
   26.1856  -19.7836  -11.9319 C   0  0  0  0  0  0  0  0  0  0  0  0
   26.9151  -18.7649  -11.7519 O   0  0  0  0  0  0  0  0  0  0  0  0
   29.0747  -22.1459  -12.8914 O   0  0  0  0  0  0  0  0  0  0  0  0
   25.6110  -20.3885  -10.8148 N   0  0  0  0  0  0  0  0  0  0  0  0
   25.0377  -21.7023  -10.7163 C   0  0  0  0  0  0  0  0  0  0  0  0
   23.8094  -21.4691   -9.8514 C   0  0  0  0  0  0  0  0  0  0  0  0
   23.9706  -20.0981   -9.2380 C   0  0  0  0  0  0  0  0  0  0  0  0
   25.4299  -19.7905   -9.5169 C   0  0  1  0  0  0  0  0  0  0  0  0
   26.3307  -20.4034   -8.4979 C   0  0  0  0  0  0  0  0  0  0  0  0
   26.6362  -21.6219   -8.4916 O   0  0  0  0  0  0  0  0  0  0  0  0
   29.5410  -18.4427   -7.0487 C   0  0  0  0  0  0  0  0  0  0  0  0
   28.7001  -19.0722   -5.9638 C   0  0  2  0  0  0  0  0  0  0  0  0
   29.6180  -19.6257   -4.8929 C   0  0  0  0  0  0  0  0  0  0  0  0
   27.8047  -20.1569   -6.5201 C   0  0  2  0  0  0  0  0  0  0  0  0
   26.8773  -19.5945   -7.4828 N   0  0  0  0  0  0  0  0  0  0  0  0
   27.0053  -20.7089   -5.4088 C   0  0  0  0  0  0  0  0  0  0  0  0
   27.5711  -21.4279   -4.3783 O   0  0  0  0  0  0  0  0  0  0  0  0
   25.7700  -20.5201   -5.3975 O   0  0  0  0  0  0  0  0  0  0  0  0
  2  1  1  6
  2  3  1  0
  3  4  1  0
  4  5  2  0
  4  8  1  0
  6  9  1  0
  6  2  1  0
  7  6  2  0
  9 13  1  0
 10  9  1  0
 10 11  1  0
 11 12  1  0
 12 13  1  0
 13 14  1  1
 14 15  2  0
 17 16  1  6
 17 18  1  0
 19 17  1  0
 19 21  1  0
 20 14  1  0
 19 20  1  6
 21 22  1  0
 23 21  2  0
M  END
$$$$
