DPV.pdb
     RDKit          3D

 23 23  0  0  1  0  0  0  0  0999 V2000
   16.7204  -12.2040  -16.9285 N   0  0  0  0  0  0  0  0  0  0  0  0
   16.6280  -10.7245  -17.0310 C   0  0  1  0  0  0  0  0  0  0  0  0
   15.8585  -10.3405  -15.7871 C   0  0  0  0  0  0  0  0  0  0  0  0
   14.4911  -10.8558  -15.7630 C   0  0  0  0  0  0  0  0  0  0  0  0
   13.6133  -10.4970  -16.5478 O   0  0  0  0  0  0  0  0  0  0  0  0
   18.0028  -10.1622  -16.9676 C   0  0  0  0  0  0  0  0  0  0  0  0
   18.9126  -10.9934  -16.6784 O   0  0  0  0  0  0  0  0  0  0  0  0
   14.1494  -11.8238  -14.7829 O   0  0  0  0  0  0  0  0  0  0  0  0
   18.3696   -8.8367  -17.1970 N   0  0  0  0  0  0  0  0  0  0  0  0
   17.5159   -7.7223  -17.5030 C   0  0  0  0  0  0  0  0  0  0  0  0
   18.3106   -6.9698  -18.5581 C   0  0  0  0  0  0  0  0  0  0  0  0
   19.7130   -7.5298  -18.5193 C   0  0  0  0  0  0  0  0  0  0  0  0
   19.7110   -8.3125  -17.2195 C   0  0  1  0  0  0  0  0  0  0  0  0
   19.9790   -7.4350  -16.0432 C   0  0  0  0  0  0  0  0  0  0  0  0
   19.0869   -6.7656  -15.4651 O   0  0  0  0  0  0  0  0  0  0  0  0
   23.3419   -8.7048  -14.1750 C   0  0  0  0  0  0  0  0  0  0  0  0
   22.1429   -8.1764  -13.4242 C   0  0  2  0  0  0  0  0  0  0  0  0
   21.1432   -9.3010  -13.2458 C   0  0  0  0  0  0  0  0  0  0  0  0
   21.5139   -7.0048  -14.1447 C   0  0  2  0  0  0  0  0  0  0  0  0
   21.2901   -7.3369  -15.5386 N   0  0  0  0  0  0  0  0  0  0  0  0
   22.4653   -5.8769  -14.1077 C   0  0  0  0  0  0  0  0  0  0  0  0
   22.6599   -5.1119  -12.9780 O   0  0  0  0  0  0  0  0  0  0  0  0
   23.1204   -5.6015  -15.1356 O   0  0  0  0  0  0  0  0  0  0  0  0
  2  1  1  1
  2  3  1  0
  3  4  1  0
  4  5  2  0
  4  8  1  0
  6  9  1  0
  6  2  1  0
  7  6  2  0
  9 13  1  0
 10  9  1  0
 10 11  1  0
 11 12  1  0
 12 13  1  0
 13 14  1  1
 14 15  2  0
 17 16  1  6
 17 18  1  0
 19 17  1  0
 19 21  1  0
 20 14  1  0
 19 20  1  6
 21 22  1  0
 23 21  2  0
M  END
$$$$
