DPV.pdb
     RDKit          3D

 23 23  0  0  1  0  0  0  0  0999 V2000
   18.4996  -12.4914  -15.6621 N   0  0  0  0  0  0  0  0  0  0  0  0
   18.4268  -11.0101  -15.7539 C   0  0  1  0  0  0  0  0  0  0  0  0
   17.0859  -10.7713  -16.4113 C   0  0  0  0  0  0  0  0  0  0  0  0
   17.0279  -11.2200  -17.8010 C   0  0  0  0  0  0  0  0  0  0  0  0
   17.7721  -10.7973  -18.6856 O   0  0  0  0  0  0  0  0  0  0  0  0
   18.4191  -10.4535  -14.3754 C   0  0  0  0  0  0  0  0  0  0  0  0
   18.0055  -11.2437  -13.4771 O   0  0  0  0  0  0  0  0  0  0  0  0
   16.0621  -12.1972  -18.1573 O   0  0  0  0  0  0  0  0  0  0  0  0
   18.8209   -9.1741  -13.9937 N   0  0  0  0  0  0  0  0  0  0  0  0
   19.2955   -8.1083  -14.8324 C   0  0  0  0  0  0  0  0  0  0  0  0
   20.4269   -7.5122  -14.0105 C   0  0  0  0  0  0  0  0  0  0  0  0
   20.2815   -8.0682  -12.6135 C   0  0  0  0  0  0  0  0  0  0  0  0
   18.8867   -8.6644  -12.6482 C   0  0  1  0  0  0  0  0  0  0  0  0
   17.8369   -7.6345  -12.3976 C   0  0  0  0  0  0  0  0  0  0  0  0
   17.4547   -6.8137  -13.2684 O   0  0  0  0  0  0  0  0  0  0  0  0
   13.8900   -6.7615   -9.5736 C   0  0  0  0  0  0  0  0  0  0  0  0
   15.1676   -7.5193   -9.8455 C   0  0  2  0  0  0  0  0  0  0  0  0
   15.9835   -7.5757   -8.5700 C   0  0  0  0  0  0  0  0  0  0  0  0
   15.9597   -6.8806  -10.9646 C   0  0  2  0  0  0  0  0  0  0  0  0
   17.2302   -7.5605  -11.1287 N   0  0  0  0  0  0  0  0  0  0  0  0
   16.2528   -5.4852  -10.5832 C   0  0  0  0  0  0  0  0  0  0  0  0
   15.4070   -4.4421  -10.8927 O   0  0  0  0  0  0  0  0  0  0  0  0
   17.3047   -5.2353   -9.9566 O   0  0  0  0  0  0  0  0  0  0  0  0
  2  1  1  1
  2  3  1  0
  3  4  1  0
  4  5  2  0
  4  8  1  0
  6  9  1  0
  6  2  1  0
  7  6  2  0
  9 13  1  0
 10  9  1  0
 10 11  1  0
 11 12  1  0
 12 13  1  0
 13 14  1  6
 14 15  2  0
 17 16  1  1
 17 18  1  0
 19 17  1  0
 19 21  1  0
 20 14  1  0
 19 20  1  1
 21 22  1  0
 23 21  2  0
M  END
$$$$
