DPV.pdb
     RDKit          3D

 23 23  0  0  1  0  0  0  0  0999 V2000
   22.8263   -4.3590  -17.4613 N   0  0  0  0  0  0  0  0  0  0  0  0
   22.3499   -4.9114  -16.1667 C   0  0  1  0  0  0  0  0  0  0  0  0
   21.4125   -3.8389  -15.6588 C   0  0  0  0  0  0  0  0  0  0  0  0
   22.0784   -2.5717  -15.3645 C   0  0  0  0  0  0  0  0  0  0  0  0
   21.5940   -1.4704  -15.6243 O   0  0  0  0  0  0  0  0  0  0  0  0
   21.5887   -6.1589  -16.4397 C   0  0  0  0  0  0  0  0  0  0  0  0
   21.2813   -6.3485  -17.6529 O   0  0  0  0  0  0  0  0  0  0  0  0
   23.3549   -2.6055  -14.7449 O   0  0  0  0  0  0  0  0  0  0  0  0
   21.1980   -7.1154  -15.5035 N   0  0  0  0  0  0  0  0  0  0  0  0
   21.4192   -7.1066  -14.0839 C   0  0  0  0  0  0  0  0  0  0  0  0
   21.7622   -8.5577  -13.7881 C   0  0  0  0  0  0  0  0  0  0  0  0
   21.3704   -9.3496  -15.0134 C   0  0  0  0  0  0  0  0  0  0  0  0
   20.5188   -8.3551  -15.7802 C   0  0  1  0  0  0  0  0  0  0  0  0
   19.1111   -8.3337  -15.2868 C   0  0  0  0  0  0  0  0  0  0  0  0
   18.7585   -7.7460  -14.2340 O   0  0  0  0  0  0  0  0  0  0  0  0
   14.7605   -7.8807  -17.3439 C   0  0  0  0  0  0  0  0  0  0  0  0
   16.2100   -8.3036  -17.3657 C   0  0  2  0  0  0  0  0  0  0  0  0
   16.3418   -9.5542  -18.2110 C   0  0  0  0  0  0  0  0  0  0  0  0
   16.7364   -8.5396  -15.9675 C   0  0  2  0  0  0  0  0  0  0  0  0
   18.1109   -8.9989  -16.0219 N   0  0  0  0  0  0  0  0  0  0  0  0
   15.9365   -9.6155  -15.3499 C   0  0  0  0  0  0  0  0  0  0  0  0
   16.3652  -10.9246  -15.3108 O   0  0  0  0  0  0  0  0  0  0  0  0
   14.8296   -9.3341  -14.8428 O   0  0  0  0  0  0  0  0  0  0  0  0
  2  1  1  6
  2  3  1  0
  3  4  1  0
  4  5  2  0
  4  8  1  0
  6  9  1  0
  6  2  1  0
  7  6  2  0
  9 13  1  0
 10  9  1  0
 10 11  1  0
 11 12  1  0
 12 13  1  0
 13 14  1  1
 14 15  2  0
 17 16  1  1
 17 18  1  0
 19 17  1  0
 19 21  1  0
 20 14  1  0
 19 20  1  6
 21 22  1  0
 23 21  2  0
M  END
$$$$
