NSN.pdb
     RDKit          3D

 23 22  0  0  1  0  0  0  0  0999 V2000
    7.8103  -13.0326   14.3734 N   0  0  0  0  0  0  0  0  0  0  0  0
    7.5133  -14.1101   15.2674 C   0  0  0  0  0  0  0  0  0  0  0  0
    7.0654  -15.1694   14.7726 O   0  0  0  0  0  0  0  0  0  0  0  0
    7.7274  -13.9823   16.7309 C   0  0  0  0  0  0  0  0  0  0  0  0
    8.8914  -14.8484   17.1743 C   0  0  2  0  0  0  0  0  0  0  0  0
    8.4746  -16.2241   16.9800 N   0  0  0  0  0  0  0  0  0  0  0  0
    9.1699  -14.5584   18.6049 C   0  0  0  0  0  0  0  0  0  0  0  0
   10.2949  -14.0918   18.9727 O   0  0  0  0  0  0  0  0  0  0  0  0
    6.7028  -15.8442   21.8002 O   0  0  0  0  0  0  0  0  0  0  0  0
    7.3448  -14.6093   21.8900 C   0  0  0  0  0  0  0  0  0  0  0  0
    8.5988  -14.6090   21.0152 C   0  0  2  0  0  0  0  0  0  0  0  0
    8.2075  -14.7851   19.6412 N   0  0  0  0  0  0  0  0  0  0  0  0
    9.5457  -15.6461   21.4735 C   0  0  0  0  0  0  0  0  0  0  0  0
    9.7269  -16.7513   20.9183 O   0  0  0  0  0  0  0  0  0  0  0  0
   14.9761  -16.6231   23.0486 N   0  0  0  0  0  0  0  0  0  0  0  0
   13.7658  -16.4382   23.7518 C   0  0  0  0  0  0  0  0  0  0  0  0
   13.6561  -17.1013   24.8399 O   0  0  0  0  0  0  0  0  0  0  0  0
   12.6795  -15.5505   23.3031 C   0  0  0  0  0  0  0  0  0  0  0  0
   11.3678  -16.2340   23.1190 C   0  0  2  0  0  0  0  0  0  0  0  0
   10.3162  -15.3804   22.6343 N   0  0  0  0  0  0  0  0  0  0  0  0
   10.9377  -16.8445   24.3725 C   0  0  0  0  0  0  0  0  0  0  0  0
   11.3020  -18.1863   24.6162 O   0  0  0  0  0  0  0  0  0  0  0  0
   10.2751  -16.3079   25.2691 O   0  0  0  0  0  0  0  0  0  0  0  0
  1  2  1  0
  2  4  1  0
  3  2  2  0
  4  5  1  0
  5  6  1  1
  7  5  1  0
  8  7  2  0
  9 10  1  0
 11 10  1  1
 11 12  1  0
 11 13  1  0
 12  7  1  0
 13 20  1  0
 14 13  2  0
 15 16  1  0
 16 18  1  0
 17 16  2  0
 19 18  1  1
 19 21  1  0
 20 19  1  0
 21 22  1  0
 23 21  2  0
M  END
$$$$
