NSN.pdb
     RDKit          3D

 23 22  0  0  1  0  0  0  0  0999 V2000
    8.4607  -14.4202   12.0373 N   0  0  0  0  0  0  0  0  0  0  0  0
    7.6507  -14.6500   13.1947 C   0  0  0  0  0  0  0  0  0  0  0  0
    6.6010  -15.3162   13.0468 O   0  0  0  0  0  0  0  0  0  0  0  0
    8.0369  -14.1203   14.5267 C   0  0  0  0  0  0  0  0  0  0  0  0
    8.4445  -15.2528   15.4502 C   0  0  2  0  0  0  0  0  0  0  0  0
    7.2327  -15.9914   15.7508 N   0  0  0  0  0  0  0  0  0  0  0  0
    9.0432  -14.6628   16.6756 C   0  0  0  0  0  0  0  0  0  0  0  0
   10.2787  -14.3629   16.7231 O   0  0  0  0  0  0  0  0  0  0  0  0
    7.1280  -14.5946   20.4500 O   0  0  0  0  0  0  0  0  0  0  0  0
    7.9144  -13.5063   20.0725 C   0  0  0  0  0  0  0  0  0  0  0  0
    8.9582  -13.9486   19.0464 C   0  0  2  0  0  0  0  0  0  0  0  0
    8.2811  -14.4024   17.8600 N   0  0  0  0  0  0  0  0  0  0  0  0
    9.8431  -14.9801   19.6252 C   0  0  0  0  0  0  0  0  0  0  0  0
    9.7784  -16.2041   19.3798 O   0  0  0  0  0  0  0  0  0  0  0  0
   14.1662  -13.4349   19.3305 N   0  0  0  0  0  0  0  0  0  0  0  0
   13.7713  -14.7017   19.8128 C   0  0  0  0  0  0  0  0  0  0  0  0
   13.9400  -15.6754   19.0009 O   0  0  0  0  0  0  0  0  0  0  0  0
   13.2038  -14.9332   21.1521 C   0  0  0  0  0  0  0  0  0  0  0  0
   11.8054  -15.4488   21.1429 C   0  0  2  0  0  0  0  0  0  0  0  0
   10.8499  -14.5630   20.5330 N   0  0  0  0  0  0  0  0  0  0  0  0
   11.3693  -15.7463   22.5031 C   0  0  0  0  0  0  0  0  0  0  0  0
   10.2245  -15.0813   22.9932 O   0  0  0  0  0  0  0  0  0  0  0  0
   11.8997  -16.5344   23.2958 O   0  0  0  0  0  0  0  0  0  0  0  0
  1  2  1  0
  2  4  1  0
  3  2  2  0
  4  5  1  0
  5  6  1  1
  7  5  1  0
  8  7  2  0
  9 10  1  0
 11 10  1  1
 11 12  1  0
 11 13  1  0
 12  7  1  0
 13 20  1  0
 14 13  2  0
 15 16  1  0
 16 18  1  0
 17 16  2  0
 19 18  1  1
 19 21  1  0
 20 19  1  0
 21 22  1  0
 23 21  2  0
M  END
$$$$
