NSN.pdb
     RDKit          3D

 23 22  0  0  1  0  0  0  0  0999 V2000
    9.5414  -17.9602   11.4429 N   0  0  0  0  0  0  0  0  0  0  0  0
    9.4818  -18.0430   12.8704 C   0  0  0  0  0  0  0  0  0  0  0  0
    8.8526  -19.0026   13.3714 O   0  0  0  0  0  0  0  0  0  0  0  0
   10.1416  -17.0301   13.7322 C   0  0  0  0  0  0  0  0  0  0  0  0
    9.1198  -16.0487   14.2747 C   0  0  2  0  0  0  0  0  0  0  0  0
    8.7727  -15.1697   13.1741 N   0  0  0  0  0  0  0  0  0  0  0  0
    9.7425  -15.2997   15.3970 C   0  0  0  0  0  0  0  0  0  0  0  0
   10.8054  -14.6223   15.2237 O   0  0  0  0  0  0  0  0  0  0  0  0
    8.6280  -15.7380   19.4376 O   0  0  0  0  0  0  0  0  0  0  0  0
    8.9551  -14.4635   18.9751 C   0  0  0  0  0  0  0  0  0  0  0  0
    9.8781  -14.5706   17.7609 C   0  0  2  0  0  0  0  0  0  0  0  0
    9.1967  -15.2963   16.7211 N   0  0  0  0  0  0  0  0  0  0  0  0
   11.1605  -15.1961   18.1435 C   0  0  0  0  0  0  0  0  0  0  0  0
   11.4993  -16.3680   17.8709 O   0  0  0  0  0  0  0  0  0  0  0  0
   16.7160  -14.5349   18.9345 N   0  0  0  0  0  0  0  0  0  0  0  0
   15.7238  -14.2361   19.8935 C   0  0  0  0  0  0  0  0  0  0  0  0
   16.0752  -14.3904   21.1135 O   0  0  0  0  0  0  0  0  0  0  0  0
   14.3668  -13.7721   19.5581 C   0  0  0  0  0  0  0  0  0  0  0  0
   13.4031  -14.8681   19.2555 C   0  0  2  0  0  0  0  0  0  0  0  0
   12.0899  -14.4172   18.8791 N   0  0  0  0  0  0  0  0  0  0  0  0
   13.2824  -15.7632   20.4015 C   0  0  0  0  0  0  0  0  0  0  0  0
   14.2018  -16.8288   20.5107 O   0  0  0  0  0  0  0  0  0  0  0  0
   12.4470  -15.6935   21.3115 O   0  0  0  0  0  0  0  0  0  0  0  0
  1  2  1  0
  2  4  1  0
  3  2  2  0
  4  5  1  0
  5  6  1  6
  7  5  1  0
  8  7  2  0
  9 10  1  0
 11 10  1  1
 11 12  1  0
 11 13  1  0
 12  7  1  0
 13 20  1  0
 14 13  2  0
 15 16  1  0
 16 18  1  0
 17 16  2  0
 19 18  1  1
 19 21  1  0
 20 19  1  0
 21 22  1  0
 23 21  2  0
M  END
$$$$
