NSN.pdb
     RDKit          3D

 23 22  0  0  1  0  0  0  0  0999 V2000
    6.6832  -19.9971   18.7611 N   0  0  0  0  0  0  0  0  0  0  0  0
    7.9806  -19.4199   18.9397 C   0  0  0  0  0  0  0  0  0  0  0  0
    8.4392  -19.3691   20.1036 O   0  0  0  0  0  0  0  0  0  0  0  0
    8.7604  -18.8985   17.7890 C   0  0  0  0  0  0  0  0  0  0  0  0
    8.5236  -17.4098   17.6187 C   0  0  2  0  0  0  0  0  0  0  0  0
    9.3833  -16.9808   16.5319 N   0  0  0  0  0  0  0  0  0  0  0  0
    8.8755  -16.7327   18.8939 C   0  0  0  0  0  0  0  0  0  0  0  0
   10.0732  -16.7235   19.3229 O   0  0  0  0  0  0  0  0  0  0  0  0
    6.1771  -15.4154   21.8550 O   0  0  0  0  0  0  0  0  0  0  0  0
    7.1573  -14.5267   21.4138 C   0  0  0  0  0  0  0  0  0  0  0  0
    8.3467  -15.3022   20.8463 C   0  0  2  0  0  0  0  0  0  0  0  0
    7.9051  -16.0629   19.7069 N   0  0  0  0  0  0  0  0  0  0  0  0
    8.9552  -16.1486   21.8930 C   0  0  0  0  0  0  0  0  0  0  0  0
    8.7888  -17.3820   22.0082 O   0  0  0  0  0  0  0  0  0  0  0  0
   12.2503  -17.6516   22.3229 N   0  0  0  0  0  0  0  0  0  0  0  0
   12.7173  -16.7221   23.2776 C   0  0  0  0  0  0  0  0  0  0  0  0
   13.9878  -16.5874   23.3371 O   0  0  0  0  0  0  0  0  0  0  0  0
   11.8388  -15.9372   24.1616 C   0  0  0  0  0  0  0  0  0  0  0  0
   10.3847  -16.2049   23.9731 C   0  0  2  0  0  0  0  0  0  0  0  0
    9.7965  -15.5253   22.8499 N   0  0  0  0  0  0  0  0  0  0  0  0
    9.6461  -15.8461   25.1792 C   0  0  0  0  0  0  0  0  0  0  0  0
    8.7253  -14.7791   25.1004 O   0  0  0  0  0  0  0  0  0  0  0  0
    9.7353  -16.3833   26.2902 O   0  0  0  0  0  0  0  0  0  0  0  0
  1  2  1  0
  2  4  1  0
  3  2  2  0
  4  5  1  0
  5  6  1  6
  7  5  1  0
  8  7  2  0
  9 10  1  0
 11 10  1  1
 11 12  1  0
 11 13  1  0
 12  7  1  0
 13 20  1  0
 14 13  2  0
 15 16  1  0
 16 18  1  0
 17 16  2  0
 19 18  1  1
 19 21  1  0
 20 19  1  0
 21 22  1  0
 23 21  2  0
M  END
$$$$
