NSN.pdb
     RDKit          3D

 23 22  0  0  1  0  0  0  0  0999 V2000
    6.9723  -16.6101   13.3407 N   0  0  0  0  0  0  0  0  0  0  0  0
    7.6331  -17.4386   14.3026 C   0  0  0  0  0  0  0  0  0  0  0  0
    7.2959  -18.6430   14.3620 O   0  0  0  0  0  0  0  0  0  0  0  0
    8.6828  -16.8950   15.2007 C   0  0  0  0  0  0  0  0  0  0  0  0
    8.8291  -15.3983   15.0005 C   0  0  2  0  0  0  0  0  0  0  0  0
    9.7391  -15.2220   13.8848 N   0  0  0  0  0  0  0  0  0  0  0  0
    9.3773  -14.8120   16.2511 C   0  0  0  0  0  0  0  0  0  0  0  0
   10.6247  -14.8453   16.4994 O   0  0  0  0  0  0  0  0  0  0  0  0
    7.0018  -13.7325   19.4969 O   0  0  0  0  0  0  0  0  0  0  0  0
    8.0999  -12.9117   19.2402 C   0  0  0  0  0  0  0  0  0  0  0  0
    9.1534  -13.6840   18.4456 C   0  0  2  0  0  0  0  0  0  0  0  0
    8.5502  -14.1867   17.2392 N   0  0  0  0  0  0  0  0  0  0  0  0
    9.7407  -14.7553   19.2761 C   0  0  0  0  0  0  0  0  0  0  0  0
    9.5213  -15.9777   19.1346 O   0  0  0  0  0  0  0  0  0  0  0  0
   13.4343  -15.5642   19.3659 N   0  0  0  0  0  0  0  0  0  0  0  0
   13.6557  -15.0436   20.6595 C   0  0  0  0  0  0  0  0  0  0  0  0
   14.8564  -14.6791   20.9067 O   0  0  0  0  0  0  0  0  0  0  0  0
   12.6060  -14.9076   21.6837 C   0  0  0  0  0  0  0  0  0  0  0  0
   11.2470  -15.3120   21.2240 C   0  0  2  0  0  0  0  0  0  0  0  0
   10.6245  -14.3815   20.3206 N   0  0  0  0  0  0  0  0  0  0  0  0
   10.3672  -15.5147   22.3702 C   0  0  0  0  0  0  0  0  0  0  0  0
   10.7031  -16.5287   23.2932 O   0  0  0  0  0  0  0  0  0  0  0  0
    9.3358  -14.8841   22.6335 O   0  0  0  0  0  0  0  0  0  0  0  0
  1  2  1  0
  2  4  1  0
  3  2  2  0
  4  5  1  0
  5  6  1  6
  7  5  1  0
  8  7  2  0
  9 10  1  0
 11 10  1  1
 11 12  1  0
 11 13  1  0
 12  7  1  0
 13 20  1  0
 14 13  2  0
 15 16  1  0
 16 18  1  0
 17 16  2  0
 19 18  1  1
 19 21  1  0
 20 19  1  0
 21 22  1  0
 23 21  2  0
M  END
$$$$
