NSN.pdb
     RDKit          3D

 23 22  0  0  1  0  0  0  0  0999 V2000
    8.0354  -14.1783   15.8765 N   0  0  0  0  0  0  0  0  0  0  0  0
    8.2685  -15.1826   16.8692 C   0  0  0  0  0  0  0  0  0  0  0  0
    9.2755  -15.9138   16.7313 O   0  0  0  0  0  0  0  0  0  0  0  0
    7.3524  -15.3556   18.0245 C   0  0  0  0  0  0  0  0  0  0  0  0
    6.9909  -14.0085   18.6213 C   0  0  2  0  0  0  0  0  0  0  0  0
    7.1449  -13.0352   17.5568 N   0  0  0  0  0  0  0  0  0  0  0  0
    7.9175  -13.7349   19.7504 C   0  0  0  0  0  0  0  0  0  0  0  0
    8.2562  -12.5451   20.0475 O   0  0  0  0  0  0  0  0  0  0  0  0
    6.8012  -14.8547   23.1363 O   0  0  0  0  0  0  0  0  0  0  0  0
    7.6326  -13.8580   22.6259 C   0  0  0  0  0  0  0  0  0  0  0  0
    8.8348  -14.4907   21.9242 C   0  0  2  0  0  0  0  0  0  0  0  0
    8.4796  -14.7752   20.5586 N   0  0  0  0  0  0  0  0  0  0  0  0
    9.2836  -15.6926   22.6566 C   0  0  0  0  0  0  0  0  0  0  0  0
    8.7003  -16.7981   22.6516 O   0  0  0  0  0  0  0  0  0  0  0  0
   12.6376  -16.9669   21.6385 N   0  0  0  0  0  0  0  0  0  0  0  0
   13.2899  -16.7385   22.8696 C   0  0  0  0  0  0  0  0  0  0  0  0
   14.5638  -16.6435   22.8068 O   0  0  0  0  0  0  0  0  0  0  0  0
   12.5920  -16.6079   24.1601 C   0  0  0  0  0  0  0  0  0  0  0  0
   11.1086  -16.7189   24.0671 C   0  0  2  0  0  0  0  0  0  0  0  0
   10.4680  -15.5987   23.4312 N   0  0  0  0  0  0  0  0  0  0  0  0
   10.5326  -16.8979   25.3956 C   0  0  0  0  0  0  0  0  0  0  0  0
   10.9257  -18.0297   26.1421 O   0  0  0  0  0  0  0  0  0  0  0  0
    9.7201  -16.1531   25.9577 O   0  0  0  0  0  0  0  0  0  0  0  0
  1  2  1  0
  2  4  1  0
  3  2  2  0
  4  5  1  0
  5  6  1  6
  7  5  1  0
  8  7  2  0
  9 10  1  0
 11 10  1  1
 11 12  1  0
 11 13  1  0
 12  7  1  0
 13 20  1  0
 14 13  2  0
 15 16  1  0
 16 18  1  0
 17 16  2  0
 19 18  1  1
 19 21  1  0
 20 19  1  0
 21 22  1  0
 23 21  2  0
M  END
$$$$
