NSN.pdb
     RDKit          3D

 23 22  0  0  1  0  0  0  0  0999 V2000
   10.9437  -21.8161   11.5454 N   0  0  0  0  0  0  0  0  0  0  0  0
   10.2017  -21.6123   12.7522 C   0  0  0  0  0  0  0  0  0  0  0  0
    8.9589  -21.7555   12.7018 O   0  0  0  0  0  0  0  0  0  0  0  0
   10.8765  -21.2445   14.0224 C   0  0  0  0  0  0  0  0  0  0  0  0
    9.9699  -20.3740   14.8719 C   0  0  2  0  0  0  0  0  0  0  0  0
    9.4899  -19.3150   14.0046 N   0  0  0  0  0  0  0  0  0  0  0  0
   10.7680  -19.8344   16.0034 C   0  0  0  0  0  0  0  0  0  0  0  0
   11.5897  -18.8788   15.8296 O   0  0  0  0  0  0  0  0  0  0  0  0
    9.7293  -20.3717   19.9263 O   0  0  0  0  0  0  0  0  0  0  0  0
   10.5193  -19.3014   19.5070 C   0  0  0  0  0  0  0  0  0  0  0  0
   11.4529  -19.7517   18.3829 C   0  0  2  0  0  0  0  0  0  0  0  0
   10.6661  -20.3492   17.3360 N   0  0  0  0  0  0  0  0  0  0  0  0
   12.4870  -20.6662   18.9088 C   0  0  0  0  0  0  0  0  0  0  0  0
   12.4204  -21.9143   18.8911 O   0  0  0  0  0  0  0  0  0  0  0  0
   18.3700  -20.7404   20.8404 N   0  0  0  0  0  0  0  0  0  0  0  0
   17.1879  -21.1898   20.2128 C   0  0  0  0  0  0  0  0  0  0  0  0
   17.1177  -22.4511   20.0128 O   0  0  0  0  0  0  0  0  0  0  0  0
   16.0846  -20.3041   19.8032 C   0  0  0  0  0  0  0  0  0  0  0  0
   14.7260  -20.8616   20.0586 C   0  0  2  0  0  0  0  0  0  0  0  0
   13.6524  -20.0967   19.4826 N   0  0  0  0  0  0  0  0  0  0  0  0
   14.4954  -20.9888   21.4937 C   0  0  0  0  0  0  0  0  0  0  0  0
   14.9445  -22.1628   22.1362 O   0  0  0  0  0  0  0  0  0  0  0  0
   13.9388  -20.1656   22.2307 O   0  0  0  0  0  0  0  0  0  0  0  0
  1  2  1  0
  2  4  1  0
  3  2  2  0
  4  5  1  0
  5  6  1  6
  7  5  1  0
  8  7  2  0
  9 10  1  0
 11 10  1  1
 11 12  1  0
 11 13  1  0
 12  7  1  0
 13 20  1  0
 14 13  2  0
 15 16  1  0
 16 18  1  0
 17 16  2  0
 19 18  1  1
 19 21  1  0
 20 19  1  0
 21 22  1  0
 23 21  2  0
M  END
$$$$
