NSN.pdb
     RDKit          3D

 23 22  0  0  1  0  0  0  0  0999 V2000
    6.8260  -13.0877   15.8994 N   0  0  0  0  0  0  0  0  0  0  0  0
    7.8023  -14.0131   16.3881 C   0  0  0  0  0  0  0  0  0  0  0  0
    7.7014  -15.2083   16.0291 O   0  0  0  0  0  0  0  0  0  0  0  0
    8.8990  -13.5769   17.2886 C   0  0  0  0  0  0  0  0  0  0  0  0
    9.6807  -14.7757   17.7918 C   0  0  2  0  0  0  0  0  0  0  0  0
    8.7231  -15.8551   17.9405 N   0  0  0  0  0  0  0  0  0  0  0  0
   10.3032  -14.4143   19.0918 C   0  0  0  0  0  0  0  0  0  0  0  0
   11.2109  -13.5255   19.1599 O   0  0  0  0  0  0  0  0  0  0  0  0
    9.6026  -16.6620   22.5610 O   0  0  0  0  0  0  0  0  0  0  0  0
   10.0160  -15.3397   22.7214 C   0  0  0  0  0  0  0  0  0  0  0  0
   10.7780  -14.8774   21.4789 C   0  0  2  0  0  0  0  0  0  0  0  0
    9.9291  -15.0351   20.3272 N   0  0  0  0  0  0  0  0  0  0  0  0
   12.0508  -15.6164   21.3519 C   0  0  0  0  0  0  0  0  0  0  0  0
   12.2160  -16.6544   20.6754 O   0  0  0  0  0  0  0  0  0  0  0  0
   15.8485  -15.5888   19.0441 N   0  0  0  0  0  0  0  0  0  0  0  0
   15.4622  -14.6606   20.0353 C   0  0  0  0  0  0  0  0  0  0  0  0
   14.9934  -13.5538   19.5983 O   0  0  0  0  0  0  0  0  0  0  0  0
   15.5698  -14.9086   21.4832 C   0  0  0  0  0  0  0  0  0  0  0  0
   14.4753  -15.7520   22.0421 C   0  0  2  0  0  0  0  0  0  0  0  0
   13.1829  -15.1204   22.0478 N   0  0  0  0  0  0  0  0  0  0  0  0
   14.8027  -16.1652   23.4027 C   0  0  0  0  0  0  0  0  0  0  0  0
   15.9751  -16.9260   23.6009 O   0  0  0  0  0  0  0  0  0  0  0  0
   14.1557  -15.9186   24.4281 O   0  0  0  0  0  0  0  0  0  0  0  0
  1  2  1  0
  2  4  1  0
  3  2  2  0
  4  5  1  0
  5  6  1  1
  7  5  1  0
  8  7  2  0
  9 10  1  0
 11 10  1  1
 11 12  1  0
 11 13  1  0
 12  7  1  0
 13 20  1  0
 14 13  2  0
 15 16  1  0
 16 18  1  0
 17 16  2  0
 19 18  1  1
 19 21  1  0
 20 19  1  0
 21 22  1  0
 23 21  2  0
M  END
$$$$
