CPC.pdb
     RDKit          3D

 20 20  0  0  1  0  0  0  0  0999 V2000
    5.5368  -18.5288   19.1471 N   0  0  0  0  0  0  0  0  0  0  0  0
    5.5714  -17.1906   19.5190 C   0  0  1  0  0  0  0  0  0  0  0  0
    4.3316  -16.8883   20.3741 C   0  0  0  0  0  0  0  0  0  0  0  0
    4.4281  -17.7595   21.9694 S   0  0  0  0  0  0  0  0  0  0  0  0
    6.7252  -16.6815   20.2567 C   0  0  0  0  0  0  0  0  0  0  0  0
    7.6257  -17.5598   20.4994 O   0  0  0  0  0  0  0  0  0  0  0  0
    6.9463  -15.3734   20.7141 N   0  0  0  0  0  0  0  0  0  0  0  0
    6.0899  -14.2166   20.7505 C   0  0  0  0  0  0  0  0  0  0  0  0
    7.0233  -13.0957   20.3720 C   0  0  0  0  0  0  0  0  0  0  0  0
    8.4221  -13.6140   20.5377 C   0  0  0  0  0  0  0  0  0  0  0  0
    8.2065  -14.9057   21.2945 C   0  0  1  0  0  0  0  0  0  0  0  0
    8.1112  -14.7193   22.7538 C   0  0  0  0  0  0  0  0  0  0  0  0
    7.1267  -14.1383   23.2443 O   0  0  0  0  0  0  0  0  0  0  0  0
    9.1374  -15.2005   23.5919 N   0  0  0  0  0  0  0  0  0  0  0  0
    8.8371  -15.7406   24.9113 C   0  0  1  0  0  0  0  0  0  0  0  0
    7.8598  -16.8853   24.6924 C   0  0  0  0  0  0  0  0  0  0  0  0
    7.5296  -17.7096   26.2532 S   0  0  0  0  0  0  0  0  0  0  0  0
   10.1020  -16.2686   25.5072 C   0  0  0  0  0  0  0  0  0  0  0  0
   11.0486  -16.6814   24.7896 O   0  0  0  0  0  0  0  0  0  0  0  0
   10.2667  -16.3180   26.8670 O   0  0  0  0  0  0  0  0  0  0  0  0
  2  1  1  1
  2  3  1  0
  4  3  1  0
  5  2  1  0
  5  6  2  0
  7  5  1  0
  8  7  1  0
  9  8  1  0
 10  9  1  0
 10 11  1  0
 11  7  1  0
 11 12  1  1
 12 13  2  0
 14 12  1  0
 14 15  1  0
 15 16  1  6
 16 17  1  0
 18 15  1  0
 18 20  1  0
 19 18  2  0
M  END
$$$$
