CPC.pdb
     RDKit          3D

 20 20  0  0  1  0  0  0  0  0999 V2000
    7.3306  -18.9383   20.7142 N   0  0  0  0  0  0  0  0  0  0  0  0
    7.0058  -17.8920   21.5686 C   0  0  1  0  0  0  0  0  0  0  0  0
    6.6842  -18.4733   22.9537 C   0  0  0  0  0  0  0  0  0  0  0  0
    6.1045  -17.1635   24.0771 S   0  0  0  0  0  0  0  0  0  0  0  0
    7.9683  -16.8131   21.7786 C   0  0  0  0  0  0  0  0  0  0  0  0
    9.1743  -17.2086   21.9530 O   0  0  0  0  0  0  0  0  0  0  0  0
    7.7213  -15.4321   21.8089 N   0  0  0  0  0  0  0  0  0  0  0  0
    6.4929  -14.6812   21.8105 C   0  0  0  0  0  0  0  0  0  0  0  0
    6.8083  -13.5192   20.9044 C   0  0  0  0  0  0  0  0  0  0  0  0
    8.3020  -13.4611   20.7683 C   0  0  0  0  0  0  0  0  0  0  0  0
    8.7678  -14.4089   21.8511 C   0  0  1  0  0  0  0  0  0  0  0  0
    8.8719  -13.7747   23.1780 C   0  0  0  0  0  0  0  0  0  0  0  0
    9.0853  -12.5527   23.2690 O   0  0  0  0  0  0  0  0  0  0  0  0
    8.7291  -14.5556   24.3428 N   0  0  0  0  0  0  0  0  0  0  0  0
    8.3901  -13.9424   25.6202 C   0  0  1  0  0  0  0  0  0  0  0  0
    7.0526  -13.2468   25.4189 C   0  0  0  0  0  0  0  0  0  0  0  0
    6.6297  -12.3053   26.8884 S   0  0  0  0  0  0  0  0  0  0  0  0
    8.2439  -15.0236   26.6418 C   0  0  0  0  0  0  0  0  0  0  0  0
    7.8139  -16.1657   26.3384 O   0  0  0  0  0  0  0  0  0  0  0  0
    8.5781  -14.7973   27.9516 O   0  0  0  0  0  0  0  0  0  0  0  0
  2  1  1  6
  2  3  1  0
  4  3  1  0
  5  2  1  0
  5  6  2  0
  7  5  1  0
  8  7  1  0
  9  8  1  0
 10  9  1  0
 10 11  1  0
 11  7  1  0
 11 12  1  1
 12 13  2  0
 14 12  1  0
 14 15  1  0
 15 16  1  6
 16 17  1  0
 18 15  1  0
 18 20  1  0
 19 18  2  0
M  END
$$$$
