CPC.pdb
     RDKit          3D

 20 20  0  0  1  0  0  0  0  0999 V2000
    8.3228  -17.0843   16.2256 N   0  0  0  0  0  0  0  0  0  0  0  0
    7.7878  -16.2186   17.1715 C   0  0  1  0  0  0  0  0  0  0  0  0
    6.5382  -16.8718   17.7810 C   0  0  0  0  0  0  0  0  0  0  0  0
    7.0100  -18.1701   18.9665 S   0  0  0  0  0  0  0  0  0  0  0  0
    8.6185  -15.7762   18.2890 C   0  0  0  0  0  0  0  0  0  0  0  0
    9.8168  -16.2288   18.2672 O   0  0  0  0  0  0  0  0  0  0  0  0
    8.2558  -14.9345   19.3516 N   0  0  0  0  0  0  0  0  0  0  0  0
    6.9840  -14.3856   19.7443 C   0  0  0  0  0  0  0  0  0  0  0  0
    7.3391  -12.9831   20.1654 C   0  0  0  0  0  0  0  0  0  0  0  0
    8.8256  -12.9489   20.3702 C   0  0  0  0  0  0  0  0  0  0  0  0
    9.1941  -14.4157   20.3487 C   0  0  1  0  0  0  0  0  0  0  0  0
    9.0370  -15.0771   21.6569 C   0  0  0  0  0  0  0  0  0  0  0  0
    7.9071  -15.4157   22.0518 O   0  0  0  0  0  0  0  0  0  0  0  0
   10.1693  -15.3249   22.4591 N   0  0  0  0  0  0  0  0  0  0  0  0
   10.1713  -16.4000   23.4425 C   0  0  1  0  0  0  0  0  0  0  0  0
   11.3451  -17.3003   23.0891 C   0  0  0  0  0  0  0  0  0  0  0  0
   12.8702  -16.3530   23.1246 S   0  0  0  0  0  0  0  0  0  0  0  0
   10.3864  -15.8044   24.7964 C   0  0  0  0  0  0  0  0  0  0  0  0
   10.5741  -14.5709   24.9535 O   0  0  0  0  0  0  0  0  0  0  0  0
   10.3850  -16.5950   25.9160 O   0  0  0  0  0  0  0  0  0  0  0  0
  2  1  1  1
  2  3  1  0
  4  3  1  0
  5  2  1  0
  5  6  2  0
  7  5  1  0
  8  7  1  0
  9  8  1  0
 10  9  1  0
 10 11  1  0
 11  7  1  0
 11 12  1  1
 12 13  2  0
 14 12  1  0
 14 15  1  0
 15 16  1  6
 16 17  1  0
 18 15  1  0
 18 20  1  0
 19 18  2  0
M  END
$$$$
