CPC.pdb
     RDKit          3D

 20 20  0  0  1  0  0  0  0  0999 V2000
    6.7336  -18.3759   18.0075 N   0  0  0  0  0  0  0  0  0  0  0  0
    6.6844  -17.1056   18.5681 C   0  0  1  0  0  0  0  0  0  0  0  0
    5.9475  -17.1928   19.9132 C   0  0  0  0  0  0  0  0  0  0  0  0
    7.0442  -17.8682   21.1995 S   0  0  0  0  0  0  0  0  0  0  0  0
    7.9298  -16.3834   18.8171 C   0  0  0  0  0  0  0  0  0  0  0  0
    8.9804  -16.9817   18.3931 O   0  0  0  0  0  0  0  0  0  0  0  0
    8.0940  -15.1426   19.4515 N   0  0  0  0  0  0  0  0  0  0  0  0
    7.1660  -14.3042   20.1648 C   0  0  0  0  0  0  0  0  0  0  0  0
    7.5531  -12.9183   19.7174 C   0  0  0  0  0  0  0  0  0  0  0  0
    8.9185  -13.0205   19.1024 C   0  0  0  0  0  0  0  0  0  0  0  0
    9.3595  -14.4086   19.5104 C   0  0  1  0  0  0  0  0  0  0  0  0
    9.9687  -14.4577   20.8520 C   0  0  0  0  0  0  0  0  0  0  0  0
   10.9727  -13.7685   21.1055 O   0  0  0  0  0  0  0  0  0  0  0  0
    9.4114  -15.2868   21.8465 N   0  0  0  0  0  0  0  0  0  0  0  0
   10.0009  -15.3630   23.1767 C   0  0  1  0  0  0  0  0  0  0  0  0
    8.8847  -15.0401   24.1581 C   0  0  0  0  0  0  0  0  0  0  0  0
    8.1541  -13.4521   23.7469 S   0  0  0  0  0  0  0  0  0  0  0  0
   10.4797  -16.7604   23.4045 C   0  0  0  0  0  0  0  0  0  0  0  0
   10.3044  -17.6665   22.5502 O   0  0  0  0  0  0  0  0  0  0  0  0
   11.1299  -17.0963   24.5632 O   0  0  0  0  0  0  0  0  0  0  0  0
  2  1  1  1
  2  3  1  0
  4  3  1  0
  5  2  1  0
  5  6  2  0
  7  5  1  0
  8  7  1  0
  9  8  1  0
 10  9  1  0
 10 11  1  0
 11  7  1  0
 11 12  1  1
 12 13  2  0
 14 12  1  0
 14 15  1  0
 15 16  1  1
 16 17  1  0
 18 15  1  0
 18 20  1  0
 19 18  2  0
M  END
$$$$
