CPC.pdb
     RDKit          3D

 20 20  0  0  1  0  0  0  0  0999 V2000
    4.5508  -13.6198   26.7219 N   0  0  0  0  0  0  0  0  0  0  0  0
    5.6458  -13.3067   25.9262 C   0  0  1  0  0  0  0  0  0  0  0  0
    6.3777  -12.1091   26.5505 C   0  0  0  0  0  0  0  0  0  0  0  0
    7.9585  -11.8117   25.6983 S   0  0  0  0  0  0  0  0  0  0  0  0
    6.6574  -14.3281   25.6651 C   0  0  0  0  0  0  0  0  0  0  0  0
    6.6100  -15.3326   26.4589 O   0  0  0  0  0  0  0  0  0  0  0  0
    7.6454  -14.3271   24.6686 N   0  0  0  0  0  0  0  0  0  0  0  0
    8.1657  -13.2706   23.8403 C   0  0  0  0  0  0  0  0  0  0  0  0
    8.3355  -13.9447   22.5034 C   0  0  0  0  0  0  0  0  0  0  0  0
    8.2878  -15.4248   22.7484 C   0  0  0  0  0  0  0  0  0  0  0  0
    8.3986  -15.5123   24.2544 C   0  0  1  0  0  0  0  0  0  0  0  0
    9.7901  -15.4847   24.7406 C   0  0  0  0  0  0  0  0  0  0  0  0
   10.7251  -15.2968   23.9421 O   0  0  0  0  0  0  0  0  0  0  0  0
   10.0589  -15.6715   26.1117 N   0  0  0  0  0  0  0  0  0  0  0  0
   11.4275  -15.7714   26.6012 C   0  0  1  0  0  0  0  0  0  0  0  0
   11.4033  -15.2827   28.0413 C   0  0  0  0  0  0  0  0  0  0  0  0
   10.2839  -13.8865   28.1907 S   0  0  0  0  0  0  0  0  0  0  0  0
   11.8404  -17.2075   26.5662 C   0  0  0  0  0  0  0  0  0  0  0  0
   11.0442  -18.1156   26.2159 O   0  0  0  0  0  0  0  0  0  0  0  0
   13.1120  -17.5779   26.9189 O   0  0  0  0  0  0  0  0  0  0  0  0
  2  1  1  1
  2  3  1  0
  4  3  1  0
  5  2  1  0
  5  6  2  0
  7  5  1  0
  8  7  1  0
  9  8  1  0
 10  9  1  0
 10 11  1  0
 11  7  1  0
 11 12  1  6
 12 13  2  0
 14 12  1  0
 14 15  1  0
 15 16  1  1
 16 17  1  0
 18 15  1  0
 18 20  1  0
 19 18  2  0
M  END
$$$$
