CPC.pdb
     RDKit          3D

 20 20  0  0  1  0  0  0  0  0999 V2000
    6.3969  -18.7234   19.8146 N   0  0  0  0  0  0  0  0  0  0  0  0
    6.3864  -17.8100   20.8615 C   0  0  1  0  0  0  0  0  0  0  0  0
    6.1354  -18.5709   22.1721 C   0  0  0  0  0  0  0  0  0  0  0  0
    6.2663  -17.4471   23.5981 S   0  0  0  0  0  0  0  0  0  0  0  0
    7.5552  -16.9623   21.0846 C   0  0  0  0  0  0  0  0  0  0  0  0
    8.6731  -17.5877   21.0596 O   0  0  0  0  0  0  0  0  0  0  0  0
    7.5842  -15.5786   21.3165 N   0  0  0  0  0  0  0  0  0  0  0  0
    6.5301  -14.6284   21.5591 C   0  0  0  0  0  0  0  0  0  0  0  0
    6.9777  -13.4226   20.7739 C   0  0  0  0  0  0  0  0  0  0  0  0
    8.4347  -13.6135   20.4682 C   0  0  0  0  0  0  0  0  0  0  0  0
    8.8082  -14.7763   21.3605 C   0  0  1  0  0  0  0  0  0  0  0  0
    9.1577  -14.3703   22.7340 C   0  0  0  0  0  0  0  0  0  0  0  0
   10.1786  -13.6908   22.9417 O   0  0  0  0  0  0  0  0  0  0  0  0
    8.3330  -14.7537   23.8110 N   0  0  0  0  0  0  0  0  0  0  0  0
    8.7225  -14.4809   25.1882 C   0  0  1  0  0  0  0  0  0  0  0  0
    7.6856  -13.5161   25.7425 C   0  0  0  0  0  0  0  0  0  0  0  0
    6.0724  -14.3044   25.7654 S   0  0  0  0  0  0  0  0  0  0  0  0
    8.6766  -15.7619   25.9571 C   0  0  0  0  0  0  0  0  0  0  0  0
    9.0446  -15.8253   27.1579 O   0  0  0  0  0  0  0  0  0  0  0  0
    8.2273  -16.9149   25.3680 O   0  0  0  0  0  0  0  0  0  0  0  0
  2  1  1  6
  2  3  1  0
  4  3  1  0
  5  2  1  0
  5  6  2  0
  7  5  1  0
  8  7  1  0
  9  8  1  0
 10  9  1  0
 10 11  1  0
 11  7  1  0
 11 12  1  1
 12 13  2  0
 14 12  1  0
 14 15  1  0
 15 16  1  1
 16 17  1  0
 18 15  1  0
 18 20  1  0
 19 18  2  0
M  END
$$$$
