CPC.pdb
     RDKit          3D

 20 20  0  0  1  0  0  0  0  0999 V2000
    9.6167  -17.0234   16.8125 N   0  0  0  0  0  0  0  0  0  0  0  0
    8.7786  -17.1721   17.9106 C   0  0  1  0  0  0  0  0  0  0  0  0
    8.6047  -18.6718   18.1937 C   0  0  0  0  0  0  0  0  0  0  0  0
    7.5757  -18.9274   19.6734 S   0  0  0  0  0  0  0  0  0  0  0  0
    9.1411  -16.5441   19.1790 C   0  0  0  0  0  0  0  0  0  0  0  0
   10.4014  -16.3904   19.3504 O   0  0  0  0  0  0  0  0  0  0  0  0
    8.2832  -16.1046   20.1988 N   0  0  0  0  0  0  0  0  0  0  0  0
    6.8585  -16.2263   20.3672 C   0  0  0  0  0  0  0  0  0  0  0  0
    6.4714  -14.8846   20.9336 C   0  0  0  0  0  0  0  0  0  0  0  0
    7.7317  -14.2359   21.4271 C   0  0  0  0  0  0  0  0  0  0  0  0
    8.7247  -15.3762   21.3897 C   0  0  1  0  0  0  0  0  0  0  0  0
    8.6937  -16.2181   22.5995 C   0  0  0  0  0  0  0  0  0  0  0  0
    7.8987  -17.1719   22.6742 O   0  0  0  0  0  0  0  0  0  0  0  0
    9.5664  -15.9403   23.6711 N   0  0  0  0  0  0  0  0  0  0  0  0
   10.1003  -17.0122   24.5010 C   0  0  1  0  0  0  0  0  0  0  0  0
   11.2324  -16.4011   25.3124 C   0  0  0  0  0  0  0  0  0  0  0  0
   11.8975  -17.6248   26.4458 S   0  0  0  0  0  0  0  0  0  0  0  0
    9.0208  -17.4822   25.4218 C   0  0  0  0  0  0  0  0  0  0  0  0
    8.0669  -16.7348   25.7576 O   0  0  0  0  0  0  0  0  0  0  0  0
    9.0414  -18.7545   25.9310 O   0  0  0  0  0  0  0  0  0  0  0  0
  2  1  1  6
  2  3  1  0
  4  3  1  0
  5  2  1  0
  5  6  2  0
  7  5  1  0
  8  7  1  0
  9  8  1  0
 10  9  1  0
 10 11  1  0
 11  7  1  0
 11 12  1  1
 12 13  2  0
 14 12  1  0
 14 15  1  0
 15 16  1  1
 16 17  1  0
 18 15  1  0
 18 20  1  0
 19 18  2  0
M  END
$$$$
