MRG.pdb
     RDKit          3D

 24 23  0  0  1  0  0  0  0  0999 V2000
   28.8130  -18.8065   -5.4471 C   0  0  0  0  0  0  0  0  0  0  0  0
   27.8809  -20.3042   -5.0787 S   0  0  0  0  0  0  0  0  0  0  0  0
   26.5518  -20.5927   -6.2791 C   0  0  0  0  0  0  0  0  0  0  0  0
   26.9057  -19.9682   -7.6179 C   0  0  0  0  0  0  0  0  0  0  0  0
   25.6964  -20.1173   -8.4993 C   0  0  2  0  0  0  0  0  0  0  0  0
   25.2590  -21.4915   -8.4375 N   0  0  0  0  0  0  0  0  0  0  0  0
   26.0800  -19.7197   -9.8797 C   0  0  0  0  0  0  0  0  0  0  0  0
   26.5956  -18.6001  -10.0970 O   0  0  0  0  0  0  0  0  0  0  0  0
   27.3864  -19.8029  -16.4877 N   0  0  0  0  0  0  0  0  0  0  0  0
   28.5296  -20.6130  -16.8176 C   0  0  0  0  0  0  0  0  0  0  0  0
   29.2537  -20.2571  -17.8154 N   0  0  0  0  0  0  0  0  0  0  0  0
   28.8461  -21.7650  -16.0649 N   0  0  0  0  0  0  0  0  0  0  0  0
   27.8923  -22.2222  -15.0297 C   0  0  0  0  0  0  0  0  0  0  0  0
   28.0240  -21.3641  -13.8240 C   0  0  0  0  0  0  0  0  0  0  0  0
   26.9875  -21.4096  -12.7945 C   0  0  0  0  0  0  0  0  0  0  0  0
   26.1810  -20.2534  -12.3656 C   0  0  2  0  0  0  0  0  0  0  0  0
   25.8499  -20.6280  -10.9279 N   0  0  0  0  0  0  0  0  0  0  0  0
   24.8773  -20.0037  -12.9583 C   0  0  0  0  0  0  0  0  0  0  0  0
   24.7896  -19.6052  -14.1847 O   0  0  0  0  0  0  0  0  0  0  0  0
   30.0928  -20.7704  -18.1376 N   0  0  0  0  0  0  0  0  0  0  0  0
   23.6011  -20.1522  -12.3489 C   0  0  0  0  0  0  0  0  0  0  0  0
   22.3629  -19.8621  -13.0368 C   0  0  0  0  0  0  0  0  0  0  0  0
   21.7002  -21.0776  -13.5386 O   0  0  0  0  0  0  0  0  0  0  0  0
   20.6964  -21.7134  -12.8366 O   0  0  0  0  0  0  0  0  0  0  0  0
  2  1  1  0
  3  2  1  0
  4  3  1  0
  5  4  1  0
  5  6  1  6
  7  5  1  0
  7  8  2  0
 10  9  1  0
 11 10  2  0
 12 10  1  0
 13 14  1  0
 13 12  1  0
 14 15  1  0
 16 15  1  6
 16 17  1  0
 17  7  1  0
 18 16  1  0
 19 18  2  0
 20 18  1  0
 21 20  1  0
 22 21  1  0
 22 23  1  0
 24 22  2  0
M  END
$$$$
