MRG.pdb
     RDKit          3D

 24 23  0  0  1  0  0  0  0  0999 V2000
   30.4741  -20.0256   -6.0572 C   0  0  0  0  0  0  0  0  0  0  0  0
   29.1780  -19.3825   -4.9828 S   0  0  0  0  0  0  0  0  0  0  0  0
   27.5253  -19.8986   -5.5240 C   0  0  0  0  0  0  0  0  0  0  0  0
   27.3536  -19.6426   -7.0115 C   0  0  0  0  0  0  0  0  0  0  0  0
   25.9623  -20.0864   -7.3702 C   0  0  2  0  0  0  0  0  0  0  0  0
   25.8713  -21.5100   -7.1501 N   0  0  0  0  0  0  0  0  0  0  0  0
   25.7165  -19.7290   -8.7925 C   0  0  0  0  0  0  0  0  0  0  0  0
   25.8311  -18.5436   -9.1774 O   0  0  0  0  0  0  0  0  0  0  0  0
   27.2535  -21.3255  -16.3095 N   0  0  0  0  0  0  0  0  0  0  0  0
   28.2354  -21.6807  -15.3188 C   0  0  0  0  0  0  0  0  0  0  0  0
   29.4523  -21.3272  -15.5213 N   0  0  0  0  0  0  0  0  0  0  0  0
   27.8708  -22.3960  -14.1572 N   0  0  0  0  0  0  0  0  0  0  0  0
   26.4448  -22.7326  -13.9478 C   0  0  0  0  0  0  0  0  0  0  0  0
   25.7511  -21.5756  -13.3252 C   0  0  0  0  0  0  0  0  0  0  0  0
   25.7346  -21.4478  -11.8694 C   0  0  0  0  0  0  0  0  0  0  0  0
   24.9789  -20.4241  -11.1264 C   0  0  2  0  0  0  0  0  0  0  0  0
   25.3544  -20.7506   -9.6879 N   0  0  0  0  0  0  0  0  0  0  0  0
   23.5254  -20.4484  -11.1098 C   0  0  0  0  0  0  0  0  0  0  0  0
   22.8920  -20.5129   -9.9850 O   0  0  0  0  0  0  0  0  0  0  0  0
   30.2303  -21.5186  -14.8661 N   0  0  0  0  0  0  0  0  0  0  0  0
   22.6413  -20.3991  -12.2224 C   0  0  0  0  0  0  0  0  0  0  0  0
   21.2060  -20.2957  -12.0819 C   0  0  0  0  0  0  0  0  0  0  0  0
   20.5242  -20.1360  -13.3774 O   0  0  0  0  0  0  0  0  0  0  0  0
   19.1514  -20.0389  -13.4811 O   0  0  0  0  0  0  0  0  0  0  0  0
  2  1  1  0
  3  2  1  0
  4  3  1  0
  5  4  1  0
  5  6  1  6
  7  5  1  0
  7  8  2  0
 10  9  1  0
 11 10  2  0
 12 10  1  0
 13 14  1  0
 13 12  1  0
 14 15  1  0
 16 15  1  6
 16 17  1  0
 17  7  1  0
 18 16  1  0
 19 18  2  0
 20 18  1  0
 21 20  1  0
 22 21  1  0
 22 23  1  0
 24 22  2  0
M  END
$$$$
