MRG.pdb
     RDKit          3D

 24 23  0  0  1  0  0  0  0  0999 V2000
   27.1228  -16.0494  -18.7616 C   0  0  0  0  0  0  0  0  0  0  0  0
   27.6068  -17.4769  -19.7494 S   0  0  0  0  0  0  0  0  0  0  0  0
   28.1089  -18.8816  -18.7172 C   0  0  0  0  0  0  0  0  0  0  0  0
   27.6513  -18.6730  -17.2838 C   0  0  0  0  0  0  0  0  0  0  0  0
   28.1514  -19.8503  -16.4931 C   0  0  2  0  0  0  0  0  0  0  0  0
   28.5925  -20.8636  -17.4215 N   0  0  0  0  0  0  0  0  0  0  0  0
   27.0393  -20.3339  -15.6326 C   0  0  0  0  0  0  0  0  0  0  0  0
   26.3587  -21.3270  -15.9745 O   0  0  0  0  0  0  0  0  0  0  0  0
   22.7017  -21.2117  -10.3212 N   0  0  0  0  0  0  0  0  0  0  0  0
   23.3267  -21.1182   -9.0280 C   0  0  0  0  0  0  0  0  0  0  0  0
   22.5722  -21.1367   -7.9902 N   0  0  0  0  0  0  0  0  0  0  0  0
   24.7292  -21.0103   -8.9043 N   0  0  0  0  0  0  0  0  0  0  0  0
   25.5656  -21.1927  -10.1116 C   0  0  0  0  0  0  0  0  0  0  0  0
   25.5691  -19.9358  -10.9038 C   0  0  0  0  0  0  0  0  0  0  0  0
   26.2886  -19.8913  -12.1752 C   0  0  0  0  0  0  0  0  0  0  0  0
   25.6761  -20.1306  -13.4938 C   0  0  2  0  0  0  0  0  0  0  0  0
   26.7739  -19.6510  -14.4326 N   0  0  0  0  0  0  0  0  0  0  0  0
   24.5133  -19.3670  -13.9158 C   0  0  0  0  0  0  0  0  0  0  0  0
   24.6448  -18.1315  -14.2717 O   0  0  0  0  0  0  0  0  0  0  0  0
   22.9226  -21.1510   -7.0164 N   0  0  0  0  0  0  0  0  0  0  0  0
   23.1661  -19.8127  -14.0090 C   0  0  0  0  0  0  0  0  0  0  0  0
   22.0687  -18.9334  -14.3451 C   0  0  0  0  0  0  0  0  0  0  0  0
   21.7250  -18.9847  -15.7761 O   0  0  0  0  0  0  0  0  0  0  0  0
   20.4911  -18.5906  -16.2526 O   0  0  0  0  0  0  0  0  0  0  0  0
  2  1  1  0
  3  2  1  0
  4  3  1  0
  5  4  1  0
  5  6  1  6
  7  5  1  0
  7  8  2  0
 10  9  1  0
 11 10  2  0
 12 10  1  0
 13 14  1  0
 13 12  1  0
 14 15  1  0
 16 15  1  1
 16 17  1  0
 17  7  1  0
 18 16  1  0
 19 18  2  0
 20 18  1  0
 21 20  1  0
 22 21  1  0
 22 23  1  0
 24 22  2  0
M  END
$$$$
