MRG.pdb
     RDKit          3D

 24 23  0  0  1  0  0  0  0  0999 V2000
   21.4988  -22.9371  -17.4312 C   0  0  0  0  0  0  0  0  0  0  0  0
   21.2658  -21.1641  -17.6542 S   0  0  0  0  0  0  0  0  0  0  0  0
   20.7443  -20.3468  -16.1209 C   0  0  0  0  0  0  0  0  0  0  0  0
   21.2873  -21.0932  -14.9144 C   0  0  0  0  0  0  0  0  0  0  0  0
   20.6390  -20.4860  -13.7009 C   0  0  2  0  0  0  0  0  0  0  0  0
   21.0290  -19.0983  -13.6271 N   0  0  0  0  0  0  0  0  0  0  0  0
   21.0866  -21.2515  -12.5073 C   0  0  0  0  0  0  0  0  0  0  0  0
   20.9851  -22.4986  -12.4790 O   0  0  0  0  0  0  0  0  0  0  0  0
   25.4919  -22.7254  -13.2635 N   0  0  0  0  0  0  0  0  0  0  0  0
   26.4852  -21.7469  -12.9060 C   0  0  0  0  0  0  0  0  0  0  0  0
   27.2777  -21.3280  -13.8242 N   0  0  0  0  0  0  0  0  0  0  0  0
   26.5844  -21.2609  -11.5839 N   0  0  0  0  0  0  0  0  0  0  0  0
   25.4799  -21.5399  -10.6391 C   0  0  0  0  0  0  0  0  0  0  0  0
   24.5398  -20.3894  -10.6255 C   0  0  0  0  0  0  0  0  0  0  0  0
   23.3160  -20.4725   -9.8310 C   0  0  0  0  0  0  0  0  0  0  0  0
   22.1369  -21.2801  -10.1899 C   0  0  2  0  0  0  0  0  0  0  0  0
   21.6233  -20.5425  -11.4183 N   0  0  0  0  0  0  0  0  0  0  0  0
   20.9784  -21.3232   -9.3128 C   0  0  0  0  0  0  0  0  0  0  0  0
   20.3871  -20.2270   -8.9674 O   0  0  0  0  0  0  0  0  0  0  0  0
   27.9935  -20.5936  -13.6844 N   0  0  0  0  0  0  0  0  0  0  0  0
   20.3546  -22.4706   -8.7503 C   0  0  0  0  0  0  0  0  0  0  0  0
   19.3971  -22.3944   -7.6696 C   0  0  0  0  0  0  0  0  0  0  0  0
   19.3385  -23.6371   -6.8816 O   0  0  0  0  0  0  0  0  0  0  0  0
   18.5898  -23.7434   -5.7270 O   0  0  0  0  0  0  0  0  0  0  0  0
  2  1  1  0
  3  2  1  0
  4  3  1  0
  5  4  1  0
  5  6  1  1
  7  5  1  0
  7  8  2  0
 10  9  1  0
 11 10  2  0
 12 10  1  0
 13 14  1  0
 13 12  1  0
 14 15  1  0
 16 15  1  1
 16 17  1  0
 17  7  1  0
 18 16  1  0
 19 18  2  0
 20 18  1  0
 21 20  1  0
 22 21  1  0
 22 23  1  0
 24 22  2  0
M  END
$$$$
