MRG.pdb
     RDKit          3D

 24 23  0  0  1  0  0  0  0  0999 V2000
   24.4207  -20.5775  -22.5545 C   0  0  0  0  0  0  0  0  0  0  0  0
   25.8557  -19.6691  -21.9518 S   0  0  0  0  0  0  0  0  0  0  0  0
   25.9892  -19.7272  -20.1436 C   0  0  0  0  0  0  0  0  0  0  0  0
   24.6876  -20.2194  -19.5342 C   0  0  0  0  0  0  0  0  0  0  0  0
   24.0673  -19.0449  -18.8292 C   0  0  2  0  0  0  0  0  0  0  0  0
   25.0549  -18.4766  -17.9431 N   0  0  0  0  0  0  0  0  0  0  0  0
   22.8725  -19.5298  -18.0888 C   0  0  0  0  0  0  0  0  0  0  0  0
   22.1387  -20.4167  -18.5802 O   0  0  0  0  0  0  0  0  0  0  0  0
   25.4351  -21.8402  -13.7985 N   0  0  0  0  0  0  0  0  0  0  0  0
   24.6285  -22.6224  -12.8987 C   0  0  0  0  0  0  0  0  0  0  0  0
   24.9994  -23.8246  -12.6459 N   0  0  0  0  0  0  0  0  0  0  0  0
   23.4639  -22.0828  -12.3102 N   0  0  0  0  0  0  0  0  0  0  0  0
   23.0343  -20.7219  -12.7023 C   0  0  0  0  0  0  0  0  0  0  0  0
   22.4950  -20.7543  -14.0863 C   0  0  0  0  0  0  0  0  0  0  0  0
   21.9475  -19.5322  -14.6717 C   0  0  0  0  0  0  0  0  0  0  0  0
   21.3821  -19.4331  -16.0288 C   0  0  2  0  0  0  0  0  0  0  0  0
   22.5902  -18.9699  -16.8304 N   0  0  0  0  0  0  0  0  0  0  0  0
   20.3708  -18.4347  -16.3347 C   0  0  0  0  0  0  0  0  0  0  0  0
   20.6380  -17.1782  -16.1928 O   0  0  0  0  0  0  0  0  0  0  0  0
   24.4425  -24.5016  -12.0956 N   0  0  0  0  0  0  0  0  0  0  0  0
   19.0472  -18.6526  -16.8068 C   0  0  0  0  0  0  0  0  0  0  0  0
   18.0527  -19.3802  -16.0505 C   0  0  0  0  0  0  0  0  0  0  0  0
   17.1324  -18.4871  -15.3265 O   0  0  0  0  0  0  0  0  0  0  0  0
   15.7764  -18.4613  -15.5822 O   0  0  0  0  0  0  0  0  0  0  0  0
  2  1  1  0
  3  2  1  0
  4  3  1  0
  5  4  1  0
  5  6  1  1
  7  5  1  0
  7  8  2  0
 10  9  1  0
 11 10  2  0
 12 10  1  0
 13 14  1  0
 13 12  1  0
 14 15  1  0
 16 15  1  1
 16 17  1  0
 17  7  1  0
 18 16  1  0
 19 18  2  0
 20 18  1  0
 21 20  1  0
 22 21  1  0
 22 23  1  0
 24 22  2  0
M  END
$$$$
