MRG.pdb
     RDKit          3D

 24 23  0  0  1  0  0  0  0  0999 V2000
   29.6914  -20.9396   -7.0682 C   0  0  0  0  0  0  0  0  0  0  0  0
   28.4617  -19.6981   -6.6275 S   0  0  0  0  0  0  0  0  0  0  0  0
   26.8448  -20.0452   -7.3732 C   0  0  0  0  0  0  0  0  0  0  0  0
   26.9286  -19.9405   -8.8864 C   0  0  0  0  0  0  0  0  0  0  0  0
   25.5729  -20.3095   -9.4223 C   0  0  2  0  0  0  0  0  0  0  0  0
   25.4011  -21.7350   -9.2743 N   0  0  0  0  0  0  0  0  0  0  0  0
   25.5102  -19.8890  -10.8472 C   0  0  0  0  0  0  0  0  0  0  0  0
   25.8195  -18.7223  -11.1783 O   0  0  0  0  0  0  0  0  0  0  0  0
   29.4231  -21.8342  -16.0394 N   0  0  0  0  0  0  0  0  0  0  0  0
   29.7256  -22.0709  -14.6522 C   0  0  0  0  0  0  0  0  0  0  0  0
   30.5854  -22.9803  -14.3686 N   0  0  0  0  0  0  0  0  0  0  0  0
   29.0959  -21.3237  -13.6328 N   0  0  0  0  0  0  0  0  0  0  0  0
   28.1865  -20.2212  -14.0177 C   0  0  0  0  0  0  0  0  0  0  0  0
   27.0062  -20.7799  -14.7262 C   0  0  0  0  0  0  0  0  0  0  0  0
   25.8715  -21.2751  -13.9495 C   0  0  0  0  0  0  0  0  0  0  0  0
   24.8918  -20.4190  -13.2578 C   0  0  2  0  0  0  0  0  0  0  0  0
   25.0971  -20.8299  -11.8067 N   0  0  0  0  0  0  0  0  0  0  0  0
   23.4662  -20.6139  -13.4656 C   0  0  0  0  0  0  0  0  0  0  0  0
   22.7920  -21.3678  -12.6609 O   0  0  0  0  0  0  0  0  0  0  0  0
   30.8471  -23.2532  -13.4051 N   0  0  0  0  0  0  0  0  0  0  0  0
   22.6505  -20.0524  -14.4861 C   0  0  0  0  0  0  0  0  0  0  0  0
   21.2476  -20.3694  -14.6345 C   0  0  0  0  0  0  0  0  0  0  0  0
   20.6286  -19.6636  -15.7691 O   0  0  0  0  0  0  0  0  0  0  0  0
   19.3227  -19.8897  -16.1543 O   0  0  0  0  0  0  0  0  0  0  0  0
  2  1  1  0
  3  2  1  0
  4  3  1  0
  5  4  1  0
  5  6  1  6
  7  5  1  0
  7  8  2  0
 10  9  1  0
 11 10  2  0
 12 10  1  0
 13 14  1  0
 13 12  1  0
 14 15  1  0
 16 15  1  6
 16 17  1  0
 17  7  1  0
 18 16  1  0
 19 18  2  0
 20 18  1  0
 21 20  1  0
 22 21  1  0
 22 23  1  0
 24 22  2  0
M  END
$$$$
