MRG.pdb
     RDKit          3D

 24 23  0  0  1  0  0  0  0  0999 V2000
   28.7020  -18.0788   -4.5306 C   0  0  0  0  0  0  0  0  0  0  0  0
   27.5721  -19.4708   -4.3476 S   0  0  0  0  0  0  0  0  0  0  0  0
   27.5268  -20.5120   -5.8323 C   0  0  0  0  0  0  0  0  0  0  0  0
   26.9684  -19.7294   -7.0085 C   0  0  0  0  0  0  0  0  0  0  0  0
   26.9196  -20.6764   -8.1756 C   0  0  2  0  0  0  0  0  0  0  0  0
   28.2663  -21.1094   -8.4627 N   0  0  0  0  0  0  0  0  0  0  0  0
   26.3113  -19.9585   -9.3269 C   0  0  0  0  0  0  0  0  0  0  0  0
   26.6459  -18.7812   -9.5886 O   0  0  0  0  0  0  0  0  0  0  0  0
   30.6503  -20.4888  -11.6892 N   0  0  0  0  0  0  0  0  0  0  0  0
   30.0770  -21.4953  -12.5438 C   0  0  0  0  0  0  0  0  0  0  0  0
   30.7155  -22.5988  -12.6891 N   0  0  0  0  0  0  0  0  0  0  0  0
   28.8473  -21.2757  -13.2023 N   0  0  0  0  0  0  0  0  0  0  0  0
   28.3452  -19.8890  -13.3271 C   0  0  0  0  0  0  0  0  0  0  0  0
   27.3322  -19.6342  -12.2706 C   0  0  0  0  0  0  0  0  0  0  0  0
   26.0637  -20.3593  -12.3033 C   0  0  0  0  0  0  0  0  0  0  0  0
   24.9044  -20.0593  -11.4447 C   0  0  2  0  0  0  0  0  0  0  0  0
   25.3567  -20.6321  -10.1090 N   0  0  0  0  0  0  0  0  0  0  0  0
   23.6266  -20.7124  -11.6770 C   0  0  0  0  0  0  0  0  0  0  0  0
   23.4723  -21.9591  -11.3729 O   0  0  0  0  0  0  0  0  0  0  0  0
   30.3578  -23.4124  -13.2196 N   0  0  0  0  0  0  0  0  0  0  0  0
   22.4419  -20.1402  -12.2165 C   0  0  0  0  0  0  0  0  0  0  0  0
   21.2233  -20.8935  -12.4114 C   0  0  0  0  0  0  0  0  0  0  0  0
   21.1772  -21.5586  -13.7244 O   0  0  0  0  0  0  0  0  0  0  0  0
   20.0523  -22.2169  -14.1784 O   0  0  0  0  0  0  0  0  0  0  0  0
  2  1  1  0
  3  2  1  0
  4  3  1  0
  5  4  1  0
  5  6  1  6
  7  5  1  0
  7  8  2  0
 10  9  1  0
 11 10  2  0
 12 10  1  0
 13 14  1  0
 13 12  1  0
 14 15  1  0
 16 15  1  6
 16 17  1  0
 17  7  1  0
 18 16  1  0
 19 18  2  0
 20 18  1  0
 21 20  1  0
 22 21  1  0
 22 23  1  0
 24 22  2  0
M  END
$$$$
