MRG.pdb
     RDKit          3D

 24 23  0  0  1  0  0  0  0  0999 V2000
   29.6675  -20.1796   -7.3755 C   0  0  0  0  0  0  0  0  0  0  0  0
   28.2017  -20.1769   -6.3270 S   0  0  0  0  0  0  0  0  0  0  0  0
   26.6865  -20.4947   -7.2724 C   0  0  0  0  0  0  0  0  0  0  0  0
   26.8481  -20.0146   -8.7046 C   0  0  0  0  0  0  0  0  0  0  0  0
   25.5420  -20.2801   -9.4010 C   0  0  2  0  0  0  0  0  0  0  0  0
   25.2766  -21.6975   -9.3387 N   0  0  0  0  0  0  0  0  0  0  0  0
   25.6610  -19.7999  -10.8032 C   0  0  0  0  0  0  0  0  0  0  0  0
   25.9803  -18.6136  -11.0423 O   0  0  0  0  0  0  0  0  0  0  0  0
   29.0346  -22.9487  -16.0543 N   0  0  0  0  0  0  0  0  0  0  0  0
   30.0263  -22.6591  -15.0521 C   0  0  0  0  0  0  0  0  0  0  0  0
   30.8962  -23.5637  -14.7845 N   0  0  0  0  0  0  0  0  0  0  0  0
   30.0427  -21.4155  -14.3834 N   0  0  0  0  0  0  0  0  0  0  0  0
   28.9062  -20.4879  -14.5790 C   0  0  0  0  0  0  0  0  0  0  0  0
   27.8971  -20.7121  -13.5119 C   0  0  0  0  0  0  0  0  0  0  0  0
   26.5015  -20.9405  -13.8809 C   0  0  0  0  0  0  0  0  0  0  0  0
   25.3519  -20.2317  -13.2917 C   0  0  2  0  0  0  0  0  0  0  0  0
   25.4073  -20.7072  -11.8468 N   0  0  0  0  0  0  0  0  0  0  0  0
   23.9959  -20.5572  -13.7026 C   0  0  0  0  0  0  0  0  0  0  0  0
   23.4747  -21.6929  -13.3725 O   0  0  0  0  0  0  0  0  0  0  0  0
   31.6704  -23.4444  -14.1080 N   0  0  0  0  0  0  0  0  0  0  0  0
   23.0977  -19.7523  -14.4559 C   0  0  0  0  0  0  0  0  0  0  0  0
   21.8135  -20.2293  -14.9182 C   0  0  0  0  0  0  0  0  0  0  0  0
   20.7711  -20.1307  -13.8828 O   0  0  0  0  0  0  0  0  0  0  0  0
   19.4418  -19.9248  -14.1920 O   0  0  0  0  0  0  0  0  0  0  0  0
  2  1  1  0
  3  2  1  0
  4  3  1  0
  5  4  1  0
  5  6  1  6
  7  5  1  0
  7  8  2  0
 10  9  1  0
 11 10  2  0
 12 10  1  0
 13 14  1  0
 13 12  1  0
 14 15  1  0
 16 15  1  6
 16 17  1  0
 17  7  1  0
 18 16  1  0
 19 18  2  0
 20 18  1  0
 21 20  1  0
 22 21  1  0
 22 23  1  0
 24 22  2  0
M  END
$$$$
