MRG.pdb
     RDKit          3D

 24 23  0  0  1  0  0  0  0  0999 V2000
   28.9640  -21.2489   -7.8635 C   0  0  0  0  0  0  0  0  0  0  0  0
   29.6672  -22.5074   -8.9450 S   0  0  0  0  0  0  0  0  0  0  0  0
   29.4519  -22.0968  -10.6988 C   0  0  0  0  0  0  0  0  0  0  0  0
   28.1809  -21.2894  -10.8993 C   0  0  0  0  0  0  0  0  0  0  0  0
   28.0040  -21.1202  -12.3830 C   0  0  2  0  0  0  0  0  0  0  0  0
   29.1562  -20.4202  -12.8984 N   0  0  0  0  0  0  0  0  0  0  0  0
   26.7461  -20.3619  -12.6140 C   0  0  0  0  0  0  0  0  0  0  0  0
   26.6303  -19.1854  -12.2031 O   0  0  0  0  0  0  0  0  0  0  0  0
   22.3809  -17.4311  -18.3332 N   0  0  0  0  0  0  0  0  0  0  0  0
   22.7160  -18.7314  -18.8516 C   0  0  0  0  0  0  0  0  0  0  0  0
   22.7674  -18.8785  -20.1254 N   0  0  0  0  0  0  0  0  0  0  0  0
   22.9818  -19.8137  -17.9844 N   0  0  0  0  0  0  0  0  0  0  0  0
   22.5898  -19.6978  -16.5620 C   0  0  0  0  0  0  0  0  0  0  0  0
   23.6880  -19.0508  -15.7987 C   0  0  0  0  0  0  0  0  0  0  0  0
   24.6051  -19.8799  -15.0193 C   0  0  0  0  0  0  0  0  0  0  0  0
   24.4060  -20.2501  -13.6070 C   0  0  2  0  0  0  0  0  0  0  0  0
   25.6968  -20.9967  -13.3016 N   0  0  0  0  0  0  0  0  0  0  0  0
   23.3703  -21.1991  -13.2329 C   0  0  0  0  0  0  0  0  0  0  0  0
   23.6567  -22.4530  -13.1058 O   0  0  0  0  0  0  0  0  0  0  0  0
   22.9818  -19.7732  -20.5995 N   0  0  0  0  0  0  0  0  0  0  0  0
   22.0009  -20.9303  -12.9596 C   0  0  0  0  0  0  0  0  0  0  0  0
   21.0345  -21.9709  -12.6880 C   0  0  0  0  0  0  0  0  0  0  0  0
   19.6957  -21.4323  -12.3948 O   0  0  0  0  0  0  0  0  0  0  0  0
   18.5979  -22.2475  -12.2071 O   0  0  0  0  0  0  0  0  0  0  0  0
  2  1  1  0
  3  2  1  0
  4  3  1  0
  5  4  1  0
  5  6  1  1
  7  5  1  0
  7  8  2  0
 10  9  1  0
 11 10  2  0
 12 10  1  0
 13 14  1  0
 13 12  1  0
 14 15  1  0
 16 15  1  6
 16 17  1  0
 17  7  1  0
 18 16  1  0
 19 18  2  0
 20 18  1  0
 21 20  1  0
 22 21  1  0
 22 23  1  0
 24 22  2  0
M  END
$$$$
