PTV.pdb
     RDKit          3D

 22 22  0  0  1  0  0  0  0  0999 V2000
   16.6334  -11.2024  -15.4469 N   0  0  0  0  0  0  0  0  0  0  0  0
   16.0282  -12.5267  -15.3676 C   0  0  0  0  0  0  0  0  0  0  0  0
   16.7814  -13.3830  -16.3714 C   0  0  0  0  0  0  0  0  0  0  0  0
   17.9183  -12.4969  -16.8423 C   0  0  0  0  0  0  0  0  0  0  0  0
   18.0213  -11.5289  -15.6557 C   0  0  1  0  0  0  0  0  0  0  0  0
   18.8313  -10.3559  -16.0528 C   0  0  0  0  0  0  0  0  0  0  0  0
   20.0483  -10.4686  -16.3562 O   0  0  0  0  0  0  0  0  0  0  0  0
   18.3199   -8.0727  -18.9424 C   0  0  0  0  0  0  0  0  0  0  0  0
   18.1191   -7.2532  -17.7001 C   0  0  1  0  0  0  0  0  0  0  0  0
   16.7820   -7.0713  -17.4281 O   0  0  0  0  0  0  0  0  0  0  0  0
   18.8560   -7.9073  -16.5517 C   0  0  2  0  0  0  0  0  0  0  0  0
   18.1823   -9.0911  -16.0795 N   0  0  0  0  0  0  0  0  0  0  0  0
   19.0007   -6.9358  -15.4408 C   0  0  0  0  0  0  0  0  0  0  0  0
   18.0873   -6.7529  -14.5999 O   0  0  0  0  0  0  0  0  0  0  0  0
   22.7836   -5.1439  -14.6423 C   0  0  0  0  0  0  0  0  0  0  0  0
   21.7518   -5.4267  -13.5755 C   0  0  2  0  0  0  0  0  0  0  0  0
   21.9791   -6.8148  -13.0512 C   0  0  0  0  0  0  0  0  0  0  0  0
   20.3799   -5.2722  -14.2170 C   0  0  2  0  0  0  0  0  0  0  0  0
   20.1939   -6.1831  -15.3061 N   0  0  0  0  0  0  0  0  0  0  0  0
   20.1648   -3.8671  -14.6001 C   0  0  0  0  0  0  0  0  0  0  0  0
   20.1699   -3.5031  -15.7958 O   0  0  0  0  0  0  0  0  0  0  0  0
   19.9509   -2.9185  -13.6193 O   0  0  0  0  0  0  0  0  0  0  0  0
  1  5  1  0
  2  1  1  0
  3  4  1  0
  3  2  1  0
  4  5  1  0
  5  6  1  6
  6  7  2  0
  9  8  1  6
  9 11  1  0
 10  9  1  0
 11 13  1  0
 12  6  1  0
 11 12  1  1
 13 14  2  0
 13 19  1  0
 16 18  1  0
 16 15  1  6
 17 16  1  0
 18 20  1  0
 18 19  1  6
 20 22  1  0
 21 20  2  0
M  END
$$$$
