PTV.pdb
     RDKit          3D

 22 22  0  0  1  0  0  0  0  0999 V2000
   19.3253  -13.3962  -16.2261 N   0  0  0  0  0  0  0  0  0  0  0  0
   19.0865  -14.8332  -16.2911 C   0  0  0  0  0  0  0  0  0  0  0  0
   18.8761  -15.1483  -17.7624 C   0  0  0  0  0  0  0  0  0  0  0  0
   19.1946  -13.8476  -18.4740 C   0  0  0  0  0  0  0  0  0  0  0  0
   20.0914  -13.1742  -17.4262 C   0  0  1  0  0  0  0  0  0  0  0  0
   20.2334  -11.7388  -17.7568 C   0  0  0  0  0  0  0  0  0  0  0  0
   20.9310  -11.3537  -18.7319 O   0  0  0  0  0  0  0  0  0  0  0  0
   17.8793   -9.4086  -19.0050 C   0  0  0  0  0  0  0  0  0  0  0  0
   18.1984   -8.8863  -17.6337 C   0  0  1  0  0  0  0  0  0  0  0  0
   17.2165   -9.2183  -16.7277 O   0  0  0  0  0  0  0  0  0  0  0  0
   19.5616   -9.3932  -17.2163 C   0  0  2  0  0  0  0  0  0  0  0  0
   19.5501  -10.8060  -16.9294 N   0  0  0  0  0  0  0  0  0  0  0  0
   20.0233   -8.6431  -16.0233 C   0  0  0  0  0  0  0  0  0  0  0  0
   19.8666   -9.0893  -14.8608 O   0  0  0  0  0  0  0  0  0  0  0  0
   22.4668   -4.8131  -14.1568 C   0  0  0  0  0  0  0  0  0  0  0  0
   22.0993   -5.5557  -15.4202 C   0  0  2  0  0  0  0  0  0  0  0  0
   21.5462   -4.5690  -16.4071 C   0  0  0  0  0  0  0  0  0  0  0  0
   21.0809   -6.6220  -15.0414 C   0  0  2  0  0  0  0  0  0  0  0  0
   20.6608   -7.3867  -16.1769 N   0  0  0  0  0  0  0  0  0  0  0  0
   19.9578   -6.0032  -14.3181 C   0  0  0  0  0  0  0  0  0  0  0  0
   18.8836   -5.7187  -14.8904 O   0  0  0  0  0  0  0  0  0  0  0  0
   20.0850   -5.7257  -12.9711 O   0  0  0  0  0  0  0  0  0  0  0  0
  1  5  1  0
  2  1  1  0
  3  4  1  0
  3  2  1  0
  4  5  1  0
  5  6  1  6
  6  7  2  0
  9  8  1  6
  9 11  1  0
 10  9  1  0
 11 13  1  0
 12  6  1  0
 11 12  1  1
 13 14  2  0
 13 19  1  0
 16 18  1  0
 16 15  1  1
 17 16  1  0
 18 20  1  0
 18 19  1  6
 20 22  1  0
 21 20  2  0
M  END
$$$$
