PTV.pdb
     RDKit          3D

 22 22  0  0  1  0  0  0  0  0999 V2000
   28.1310  -18.7392  -18.0477 N   0  0  0  0  0  0  0  0  0  0  0  0
   29.0016  -18.3184  -19.1392 C   0  0  0  0  0  0  0  0  0  0  0  0
   29.0864  -16.8050  -19.0365 C   0  0  0  0  0  0  0  0  0  0  0  0
   28.3711  -16.4761  -17.7404 C   0  0  0  0  0  0  0  0  0  0  0  0
   28.5046  -17.8169  -17.0056 C   0  0  1  0  0  0  0  0  0  0  0  0
   27.5688  -17.8394  -15.8594 C   0  0  0  0  0  0  0  0  0  0  0  0
   27.6079  -16.9586  -14.9603 O   0  0  0  0  0  0  0  0  0  0  0  0
   23.7698  -17.9434  -16.0697 C   0  0  0  0  0  0  0  0  0  0  0  0
   24.2268  -19.1889  -15.3661 C   0  0  1  0  0  0  0  0  0  0  0  0
   24.1905  -20.2814  -16.2029 O   0  0  0  0  0  0  0  0  0  0  0  0
   25.6049  -18.9528  -14.7877 C   0  0  2  0  0  0  0  0  0  0  0  0
   26.6196  -18.8969  -15.8102 N   0  0  0  0  0  0  0  0  0  0  0  0
   25.9259  -20.0306  -13.8211 C   0  0  0  0  0  0  0  0  0  0  0  0
   26.5826  -21.0458  -14.1576 O   0  0  0  0  0  0  0  0  0  0  0  0
   26.4023  -21.6953   -9.3129 C   0  0  0  0  0  0  0  0  0  0  0  0
   26.0854  -20.4909  -10.1685 C   0  0  2  0  0  0  0  0  0  0  0  0
   24.9750  -19.7220   -9.5133 C   0  0  0  0  0  0  0  0  0  0  0  0
   25.6941  -21.0028  -11.5477 C   0  0  2  0  0  0  0  0  0  0  0  0
   25.4894  -19.9323  -12.4764 N   0  0  0  0  0  0  0  0  0  0  0  0
   24.5294  -21.8963  -11.4351 C   0  0  0  0  0  0  0  0  0  0  0  0
   23.3924  -21.5464  -11.8185 O   0  0  0  0  0  0  0  0  0  0  0  0
   24.6874  -23.1566  -10.8928 O   0  0  0  0  0  0  0  0  0  0  0  0
  1  5  1  0
  2  1  1  0
  3  4  1  0
  3  2  1  0
  4  5  1  0
  5  6  1  1
  6  7  2  0
  9  8  1  6
  9 11  1  0
 10  9  1  0
 11 13  1  0
 12  6  1  0
 11 12  1  6
 13 14  2  0
 13 19  1  0
 16 18  1  0
 16 15  1  1
 17 16  1  0
 18 20  1  0
 18 19  1  6
 20 22  1  0
 21 20  2  0
M  END
$$$$
