PTV.pdb
     RDKit          3D

 22 22  0  0  1  0  0  0  0  0999 V2000
   27.5280  -21.4747  -11.4331 N   0  0  0  0  0  0  0  0  0  0  0  0
   28.7558  -21.7385  -10.6920 C   0  0  0  0  0  0  0  0  0  0  0  0
   29.8110  -20.8384  -11.3122 C   0  0  0  0  0  0  0  0  0  0  0  0
   29.0379  -19.9677  -12.2836 C   0  0  0  0  0  0  0  0  0  0  0  0
   27.6323  -20.0577  -11.6737 C   0  0  1  0  0  0  0  0  0  0  0  0
   26.6416  -19.5705  -12.6591 C   0  0  0  0  0  0  0  0  0  0  0  0
   26.6617  -18.3843  -13.0813 O   0  0  0  0  0  0  0  0  0  0  0  0
   26.0589  -20.7732  -16.0386 C   0  0  0  0  0  0  0  0  0  0  0  0
   24.7570  -21.0179  -15.3312 C   0  0  1  0  0  0  0  0  0  0  0  0
   24.5953  -22.3494  -15.0215 O   0  0  0  0  0  0  0  0  0  0  0  0
   24.6840  -20.1297  -14.1084 C   0  0  2  0  0  0  0  0  0  0  0  0
   25.6618  -20.4950  -13.1140 N   0  0  0  0  0  0  0  0  0  0  0  0
   23.3230  -20.2045  -13.5245 C   0  0  0  0  0  0  0  0  0  0  0  0
   23.0737  -20.9118  -12.5182 O   0  0  0  0  0  0  0  0  0  0  0  0
   20.0760  -18.0866  -15.3415 C   0  0  0  0  0  0  0  0  0  0  0  0
   20.1708  -18.2173  -13.8393 C   0  0  2  0  0  0  0  0  0  0  0  0
   20.8615  -16.9988  -13.2993 C   0  0  0  0  0  0  0  0  0  0  0  0
   20.9431  -19.4949  -13.5416 C   0  0  2  0  0  0  0  0  0  0  0  0
   22.2605  -19.4656  -14.1021 N   0  0  0  0  0  0  0  0  0  0  0  0
   20.1596  -20.6630  -13.9764 C   0  0  0  0  0  0  0  0  0  0  0  0
   19.0796  -20.9718  -13.4281 O   0  0  0  0  0  0  0  0  0  0  0  0
   20.6220  -21.4447  -15.0169 O   0  0  0  0  0  0  0  0  0  0  0  0
  1  5  1  0
  2  1  1  0
  3  4  1  0
  3  2  1  0
  4  5  1  0
  5  6  1  6
  6  7  2  0
  9  8  1  1
  9 11  1  0
 10  9  1  0
 11 13  1  0
 12  6  1  0
 11 12  1  1
 13 14  2  0
 13 19  1  0
 16 18  1  0
 16 15  1  6
 17 16  1  0
 18 20  1  0
 18 19  1  6
 20 22  1  0
 21 20  2  0
M  END
$$$$
