PTV.pdb
     RDKit          3D

 22 22  0  0  1  0  0  0  0  0999 V2000
   27.3195  -20.1104  -15.6182 N   0  0  0  0  0  0  0  0  0  0  0  0
   28.0230  -21.0200  -16.5149 C   0  0  0  0  0  0  0  0  0  0  0  0
   28.9376  -21.8464  -15.6267 C   0  0  0  0  0  0  0  0  0  0  0  0
   28.5469  -21.4522  -14.2155 C   0  0  0  0  0  0  0  0  0  0  0  0
   27.1198  -20.9420  -14.4585 C   0  0  1  0  0  0  0  0  0  0  0  0
   26.6687  -20.1754  -13.2758 C   0  0  0  0  0  0  0  0  0  0  0  0
   26.7280  -18.9179  -13.2447 O   0  0  0  0  0  0  0  0  0  0  0  0
   23.6979  -19.3941  -12.2914 C   0  0  0  0  0  0  0  0  0  0  0  0
   24.0997  -20.1757  -11.0737 C   0  0  1  0  0  0  0  0  0  0  0  0
   23.5081  -21.4185  -11.0559 O   0  0  0  0  0  0  0  0  0  0  0  0
   25.6095  -20.2563  -11.0138 C   0  0  2  0  0  0  0  0  0  0  0  0
   26.1636  -20.9140  -12.1708 N   0  0  0  0  0  0  0  0  0  0  0  0
   26.0170  -20.9775   -9.7839 C   0  0  0  0  0  0  0  0  0  0  0  0
   26.0832  -22.2302   -9.7438 O   0  0  0  0  0  0  0  0  0  0  0  0
   26.8059  -19.3835   -5.5073 C   0  0  0  0  0  0  0  0  0  0  0  0
   27.6544  -20.0730   -6.5502 C   0  0  2  0  0  0  0  0  0  0  0  0
   28.3619  -19.0229   -7.3566 C   0  0  0  0  0  0  0  0  0  0  0  0
   26.7243  -20.9235   -7.4039 C   0  0  2  0  0  0  0  0  0  0  0  0
   26.3448  -20.2529   -8.6109 N   0  0  0  0  0  0  0  0  0  0  0  0
   25.5696  -21.3581   -6.6006 C   0  0  0  0  0  0  0  0  0  0  0  0
   24.4025  -21.0134   -6.8862 O   0  0  0  0  0  0  0  0  0  0  0  0
   25.7711  -22.1683   -5.5005 O   0  0  0  0  0  0  0  0  0  0  0  0
  1  5  1  0
  2  1  1  0
  3  4  1  0
  3  2  1  0
  4  5  1  0
  5  6  1  1
  6  7  2  0
  9  8  1  6
  9 11  1  0
 10  9  1  0
 11 13  1  0
 12  6  1  0
 11 12  1  6
 13 14  2  0
 13 19  1  0
 16 18  1  0
 16 15  1  1
 17 16  1  0
 18 20  1  0
 18 19  1  6
 20 22  1  0
 21 20  2  0
M  END
$$$$
