PTV.pdb
     RDKit          3D

 22 22  0  0  1  0  0  0  0  0999 V2000
   16.4537  -14.6095  -17.1376 N   0  0  0  0  0  0  0  0  0  0  0  0
   15.4054  -15.3351  -16.4297 C   0  0  0  0  0  0  0  0  0  0  0  0
   15.5179  -14.9052  -14.9769 C   0  0  0  0  0  0  0  0  0  0  0  0
   16.5482  -13.7927  -14.9933 C   0  0  0  0  0  0  0  0  0  0  0  0
   16.4398  -13.3400  -16.4558 C   0  0  1  0  0  0  0  0  0  0  0  0
   17.6085  -12.4972  -16.7927 C   0  0  0  0  0  0  0  0  0  0  0  0
   18.6988  -13.0033  -17.1681 O   0  0  0  0  0  0  0  0  0  0  0  0
   17.7496   -9.5548  -19.2382 C   0  0  0  0  0  0  0  0  0  0  0  0
   18.0673   -9.0345  -17.8657 C   0  0  1  0  0  0  0  0  0  0  0  0
   16.9950   -8.3648  -17.3210 O   0  0  0  0  0  0  0  0  0  0  0  0
   18.5302  -10.1832  -16.9963 C   0  0  2  0  0  0  0  0  0  0  0  0
   17.4547  -11.0885  -16.6764 N   0  0  0  0  0  0  0  0  0  0  0  0
   19.1240   -9.6487  -15.7471 C   0  0  0  0  0  0  0  0  0  0  0  0
   18.4798   -9.6158  -14.6706 O   0  0  0  0  0  0  0  0  0  0  0  0
   22.8173   -8.8155  -12.8726 C   0  0  0  0  0  0  0  0  0  0  0  0
   22.3017   -9.4122  -14.1614 C   0  0  2  0  0  0  0  0  0  0  0  0
   23.3826   -9.3093  -15.1981 C   0  0  0  0  0  0  0  0  0  0  0  0
   21.0526   -8.6359  -14.5545 C   0  0  2  0  0  0  0  0  0  0  0  0
   20.4531   -9.1566  -15.7461 N   0  0  0  0  0  0  0  0  0  0  0  0
   21.3676   -7.2009  -14.6496 C   0  0  0  0  0  0  0  0  0  0  0  0
   21.4514   -6.6175  -15.7519 O   0  0  0  0  0  0  0  0  0  0  0  0
   21.5777   -6.4715  -13.4958 O   0  0  0  0  0  0  0  0  0  0  0  0
  1  5  1  0
  2  1  1  0
  3  4  1  0
  3  2  1  0
  4  5  1  0
  5  6  1  6
  6  7  2  0
  9  8  1  6
  9 11  1  0
 10  9  1  0
 11 13  1  0
 12  6  1  0
 11 12  1  1
 13 14  2  0
 13 19  1  0
 16 18  1  0
 16 15  1  1
 17 16  1  0
 18 20  1  0
 18 19  1  6
 20 22  1  0
 21 20  2  0
M  END
$$$$
