SMD.pdb
     RDKit          3D

 23 22  0  0  1  0  0  0  0  0999 V2000
    8.3833  -18.3211   21.1148 O   0  0  0  0  0  0  0  0  0  0  0  0
    7.4397  -17.5028   20.4973 C   0  0  0  0  0  0  0  0  0  0  0  0
    7.9786  -16.1027   20.2841 C   0  0  2  0  0  0  0  0  0  0  0  0
    8.9726  -16.1818   19.2340 N   0  0  0  0  0  0  0  0  0  0  0  0
    8.5704  -15.5884   21.5472 C   0  0  0  0  0  0  0  0  0  0  0  0
    9.8220  -15.6040   21.7697 O   0  0  0  0  0  0  0  0  0  0  0  0
    7.3355  -11.1718   27.8833 C   0  0  0  0  0  0  0  0  0  0  0  0
    6.5783  -11.9417   26.4260 S   0  0  0  0  0  0  0  0  0  0  0  0
    7.7696  -13.1559   25.7523 C   0  0  0  0  0  0  0  0  0  0  0  0
    7.1830  -13.7558   24.4739 C   0  0  0  0  0  0  0  0  0  0  0  0
    8.2503  -14.6367   23.8495 C   0  0  2  0  0  0  0  0  0  0  0  0
    7.7430  -15.0557   22.5596 N   0  0  0  0  0  0  0  0  0  0  0  0
    8.6150  -15.7664   24.7095 C   0  0  0  0  0  0  0  0  0  0  0  0
    7.8145  -16.7246   24.8235 O   0  0  0  0  0  0  0  0  0  0  0  0
    9.8471  -15.7795   25.4003 N   0  0  0  0  0  0  0  0  0  0  0  0
   10.2445  -16.9606   26.1314 C   0  0  1  0  0  0  0  0  0  0  0  0
   11.6973  -17.2690   25.8555 C   0  0  0  0  0  0  0  0  0  0  0  0
   11.8189  -18.5097   25.0956 C   0  0  0  0  0  0  0  0  0  0  0  0
   10.7994  -19.1827   24.7936 O   0  0  0  0  0  0  0  0  0  0  0  0
    9.9880  -16.7087   27.5700 C   0  0  0  0  0  0  0  0  0  0  0  0
    9.8129  -17.7223   28.5160 O   0  0  0  0  0  0  0  0  0  0  0  0
   13.0720  -18.9982   24.6738 O   0  0  0  0  0  0  0  0  0  0  0  0
    9.9140  -15.5169   28.0138 O   0  0  0  0  0  0  0  0  0  0  0  0
  2  1  1  0
  3  2  1  0
  3  4  1  6
  5  6  2  0
  5  3  1  0
  7  8  1  0
  9  8  1  0
  9 10  1  0
 11 10  1  1
 11 13  1  0
 11 12  1  0
 12  5  1  0
 13 15  1  0
 14 13  2  0
 15 16  1  0
 16 20  1  0
 16 17  1  1
 18 17  1  0
 18 19  2  0
 20 23  2  0
 20 21  1  0
 22 18  1  0
M  END
$$$$
