SMD.pdb
     RDKit          3D

 23 22  0  0  1  0  0  0  0  0999 V2000
    7.8922  -17.9725   20.3769 O   0  0  0  0  0  0  0  0  0  0  0  0
    6.8828  -17.0585   20.0821 C   0  0  0  0  0  0  0  0  0  0  0  0
    7.4156  -15.6404   20.0468 C   0  0  2  0  0  0  0  0  0  0  0  0
    8.3657  -15.5671   18.9563 N   0  0  0  0  0  0  0  0  0  0  0  0
    8.0597  -15.3073   21.3445 C   0  0  0  0  0  0  0  0  0  0  0  0
    9.3215  -15.3096   21.5000 O   0  0  0  0  0  0  0  0  0  0  0  0
    7.9982  -11.6181   27.7570 C   0  0  0  0  0  0  0  0  0  0  0  0
    7.2022  -12.0690   26.1908 S   0  0  0  0  0  0  0  0  0  0  0  0
    7.2858  -13.8891   26.0247 C   0  0  0  0  0  0  0  0  0  0  0  0
    6.6922  -14.2822   24.6714 C   0  0  0  0  0  0  0  0  0  0  0  0
    7.8403  -14.7082   23.7739 C   0  0  2  0  0  0  0  0  0  0  0  0
    7.2732  -14.9710   22.4677 N   0  0  0  0  0  0  0  0  0  0  0  0
    8.5751  -15.8558   24.3142 C   0  0  0  0  0  0  0  0  0  0  0  0
    8.1347  -17.0107   24.1047 O   0  0  0  0  0  0  0  0  0  0  0  0
    9.7604  -15.6681   25.0593 N   0  0  0  0  0  0  0  0  0  0  0  0
   10.5986  -16.8038   25.3677 C   0  0  1  0  0  0  0  0  0  0  0  0
   11.9976  -16.5631   24.8513 C   0  0  0  0  0  0  0  0  0  0  0  0
   12.8740  -17.6710   25.2202 C   0  0  0  0  0  0  0  0  0  0  0  0
   14.1094  -17.4902   25.3780 O   0  0  0  0  0  0  0  0  0  0  0  0
   10.5693  -17.0008   26.8371 C   0  0  0  0  0  0  0  0  0  0  0  0
   10.9947  -18.1710   27.4717 O   0  0  0  0  0  0  0  0  0  0  0  0
   12.3755  -18.9753   25.4123 O   0  0  0  0  0  0  0  0  0  0  0  0
   10.1393  -16.0788   27.6038 O   0  0  0  0  0  0  0  0  0  0  0  0
  2  1  1  0
  3  2  1  0
  3  4  1  6
  5  6  2  0
  5  3  1  0
  7  8  1  0
  9  8  1  0
  9 10  1  0
 11 10  1  1
 11 13  1  0
 11 12  1  0
 12  5  1  0
 13 15  1  0
 14 13  2  0
 15 16  1  0
 16 20  1  0
 16 17  1  1
 18 17  1  0
 18 19  2  0
 20 23  2  0
 20 21  1  0
 22 18  1  0
M  END
$$$$
