SMD.pdb
     RDKit          3D

 23 22  0  0  1  0  0  0  0  0999 V2000
    7.1406  -17.2413   20.6602 O   0  0  0  0  0  0  0  0  0  0  0  0
    6.6855  -15.9963   20.2310 C   0  0  0  0  0  0  0  0  0  0  0  0
    7.7954  -14.9650   20.2548 C   0  0  2  0  0  0  0  0  0  0  0  0
    8.7666  -15.3581   19.2550 N   0  0  0  0  0  0  0  0  0  0  0  0
    8.4087  -14.9098   21.6079 C   0  0  0  0  0  0  0  0  0  0  0  0
    9.5282  -15.4516   21.8717 O   0  0  0  0  0  0  0  0  0  0  0  0
    5.4488  -11.9743   26.8836 C   0  0  0  0  0  0  0  0  0  0  0  0
    7.2255  -11.6380   27.0254 S   0  0  0  0  0  0  0  0  0  0  0  0
    8.1185  -12.9632   26.1344 C   0  0  0  0  0  0  0  0  0  0  0  0
    7.4761  -13.1432   24.7584 C   0  0  0  0  0  0  0  0  0  0  0  0
    8.2789  -14.1934   24.0118 C   0  0  2  0  0  0  0  0  0  0  0  0
    7.7529  -14.2399   22.6635 N   0  0  0  0  0  0  0  0  0  0  0  0
    8.2466  -15.4987   24.6782 C   0  0  0  0  0  0  0  0  0  0  0  0
    7.3139  -16.2928   24.4112 O   0  0  0  0  0  0  0  0  0  0  0  0
    9.2480  -15.8602   25.6067 N   0  0  0  0  0  0  0  0  0  0  0  0
    9.4888  -17.2561   25.8914 C   0  0  1  0  0  0  0  0  0  0  0  0
   10.0894  -17.9297   24.6801 C   0  0  0  0  0  0  0  0  0  0  0  0
   10.3462  -19.3400   24.9569 C   0  0  0  0  0  0  0  0  0  0  0  0
   10.0829  -19.8336   26.0842 O   0  0  0  0  0  0  0  0  0  0  0  0
   10.3814  -17.3282   27.0734 C   0  0  0  0  0  0  0  0  0  0  0  0
   10.8259  -16.2071   27.7795 O   0  0  0  0  0  0  0  0  0  0  0  0
   10.8942  -20.1969   23.9812 O   0  0  0  0  0  0  0  0  0  0  0  0
   10.7921  -18.4542   27.5048 O   0  0  0  0  0  0  0  0  0  0  0  0
  2  1  1  0
  3  2  1  0
  3  4  1  6
  5  6  2  0
  5  3  1  0
  7  8  1  0
  9  8  1  0
  9 10  1  0
 11 10  1  1
 11 13  1  0
 11 12  1  0
 12  5  1  0
 13 15  1  0
 14 13  2  0
 15 16  1  0
 16 20  1  0
 16 17  1  6
 18 17  1  0
 18 19  2  0
 20 23  2  0
 20 21  1  0
 22 18  1  0
M  END
$$$$
