SMD.pdb
     RDKit          3D

 23 22  0  0  1  0  0  0  0  0999 V2000
    8.5606  -17.7757   19.6541 O   0  0  0  0  0  0  0  0  0  0  0  0
    7.6595  -17.0125   20.3935 C   0  0  0  0  0  0  0  0  0  0  0  0
    8.0724  -15.5550   20.4320 C   0  0  2  0  0  0  0  0  0  0  0  0
    8.9209  -15.3200   19.2823 N   0  0  0  0  0  0  0  0  0  0  0  0
    8.7921  -15.2643   21.6999 C   0  0  0  0  0  0  0  0  0  0  0  0
   10.0563  -15.3515   21.8018 O   0  0  0  0  0  0  0  0  0  0  0  0
    6.2949  -10.7473   26.4245 C   0  0  0  0  0  0  0  0  0  0  0  0
    6.2682  -12.5609   26.4161 S   0  0  0  0  0  0  0  0  0  0  0  0
    7.4379  -13.1316   25.1302 C   0  0  0  0  0  0  0  0  0  0  0  0
    7.4709  -14.6603   25.1460 C   0  0  0  0  0  0  0  0  0  0  0  0
    8.5693  -15.1046   24.1967 C   0  0  2  0  0  0  0  0  0  0  0  0
    8.0784  -14.8743   22.8540 N   0  0  0  0  0  0  0  0  0  0  0  0
    8.9729  -16.4957   24.4220 C   0  0  0  0  0  0  0  0  0  0  0  0
    8.8008  -17.3329   23.5047 O   0  0  0  0  0  0  0  0  0  0  0  0
    9.5467  -16.8909   25.6507 N   0  0  0  0  0  0  0  0  0  0  0  0
   10.5409  -17.9391   25.6714 C   0  0  1  0  0  0  0  0  0  0  0  0
   11.7091  -17.5544   24.7943 C   0  0  0  0  0  0  0  0  0  0  0  0
   12.7609  -18.5635   24.8758 C   0  0  0  0  0  0  0  0  0  0  0  0
   12.8665  -19.4566   23.9955 O   0  0  0  0  0  0  0  0  0  0  0  0
   10.9448  -18.1505   27.0824 C   0  0  0  0  0  0  0  0  0  0  0  0
   11.0554  -17.1205   28.0204 O   0  0  0  0  0  0  0  0  0  0  0  0
   13.6915  -18.5774   25.9344 O   0  0  0  0  0  0  0  0  0  0  0  0
   11.2169  -19.3200   27.5080 O   0  0  0  0  0  0  0  0  0  0  0  0
  2  1  1  0
  3  2  1  0
  3  4  1  6
  5  6  2  0
  5  3  1  0
  7  8  1  0
  9  8  1  0
  9 10  1  0
 11 10  1  1
 11 13  1  0
 11 12  1  0
 12  5  1  0
 13 15  1  0
 14 13  2  0
 15 16  1  0
 16 20  1  0
 16 17  1  6
 18 17  1  0
 18 19  2  0
 20 23  2  0
 20 21  1  0
 22 18  1  0
M  END
$$$$
