SIE.pdb
     RDKit          3D

 24 23  0  0  1  0  0  0  0  0999 V2000
   19.3620  -10.9893  -17.9075 O   0  0  0  0  0  0  0  0  0  0  0  0
   20.4836  -11.7430  -18.2503 C   0  0  0  0  0  0  0  0  0  0  0  0
   20.9914  -12.4408  -16.9991 C   0  0  2  0  0  0  0  0  0  0  0  0
   19.9405  -13.0857  -16.2743 N   0  0  0  0  0  0  0  0  0  0  0  0
   21.6046  -11.3972  -16.1348 C   0  0  0  0  0  0  0  0  0  0  0  0
   21.0110  -10.9006  -15.1500 O   0  0  0  0  0  0  0  0  0  0  0  0
   27.0472  -11.5778  -15.5562 C   0  0  0  0  0  0  0  0  0  0  0  0
   25.5393  -11.4561  -15.2249 C   0  0  0  0  0  0  0  0  0  0  0  0
   25.0860  -10.1412  -15.7742 C   0  0  2  0  0  0  0  0  0  0  0  0
   25.8804   -9.0573  -15.0744 C   0  0  0  0  0  0  0  0  0  0  0  0
   23.6080   -9.9409  -15.6511 C   0  0  2  0  0  0  0  0  0  0  0  0
   22.8986  -10.9549  -16.4382 N   0  0  0  0  0  0  0  0  0  0  0  0
   23.1091   -8.6204  -16.0657 C   0  0  0  0  0  0  0  0  0  0  0  0
   23.1804   -8.3002  -17.2964 O   0  0  0  0  0  0  0  0  0  0  0  0
   22.5499   -7.6769  -15.1993 N   0  0  0  0  0  0  0  0  0  0  0  0
   22.0509   -6.3763  -15.6432 C   0  0  1  0  0  0  0  0  0  0  0  0
   20.5667   -6.2738  -15.3695 C   0  0  0  0  0  0  0  0  0  0  0  0
   20.0395   -4.8885  -15.7081 C   0  0  0  0  0  0  0  0  0  0  0  0
   18.5863   -4.8602  -15.4173 C   0  0  0  0  0  0  0  0  0  0  0  0
   18.0890   -4.4241  -14.3592 O   0  0  0  0  0  0  0  0  0  0  0  0
   22.7886   -5.2675  -15.0334 C   0  0  0  0  0  0  0  0  0  0  0  0
   22.9917   -4.0374  -15.6352 O   0  0  0  0  0  0  0  0  0  0  0  0
   17.7057   -5.3501  -16.3811 O   0  0  0  0  0  0  0  0  0  0  0  0
   23.2722   -5.4332  -13.8910 O   0  0  0  0  0  0  0  0  0  0  0  0
  2  3  1  0
  2  1  1  0
  3  4  1  1
  5  3  1  0
  5  6  2  0
  7  8  1  0
  8  9  1  0
  9 11  1  0
  9 10  1  1
 11 12  1  6
 11 13  1  0
 12  5  1  0
 13 15  1  0
 14 13  2  0
 15 16  1  0
 16 21  1  0
 17 18  1  0
 16 17  1  1
 19 23  1  0
 19 18  1  0
 20 19  2  0
 21 24  2  0
 21 22  1  0
M  END
$$$$
