SIE.pdb
     RDKit          3D

 24 23  0  0  1  0  0  0  0  0999 V2000
   17.8389  -11.3981  -18.0676 O   0  0  0  0  0  0  0  0  0  0  0  0
   19.2118  -11.3968  -18.3096 C   0  0  0  0  0  0  0  0  0  0  0  0
   19.8567  -12.4392  -17.4108 C   0  0  2  0  0  0  0  0  0  0  0  0
   18.8975  -13.3422  -16.8539 N   0  0  0  0  0  0  0  0  0  0  0  0
   20.5299  -11.7070  -16.3050 C   0  0  0  0  0  0  0  0  0  0  0  0
   19.9989  -11.5404  -15.1829 O   0  0  0  0  0  0  0  0  0  0  0  0
   25.6959  -12.5692  -15.3868 C   0  0  0  0  0  0  0  0  0  0  0  0
   24.1978  -12.2540  -15.1534 C   0  0  0  0  0  0  0  0  0  0  0  0
   23.9961  -10.8247  -15.5438 C   0  0  2  0  0  0  0  0  0  0  0  0
   24.8498   -9.9765  -14.6234 C   0  0  0  0  0  0  0  0  0  0  0  0
   22.5558  -10.4181  -15.5288 C   0  0  2  0  0  0  0  0  0  0  0  0
   21.8094  -11.1842  -16.5322 N   0  0  0  0  0  0  0  0  0  0  0  0
   22.2963   -8.9901  -15.7694 C   0  0  0  0  0  0  0  0  0  0  0  0
   22.3787   -8.5474  -16.9607 O   0  0  0  0  0  0  0  0  0  0  0  0
   21.9564   -8.0682  -14.7754 N   0  0  0  0  0  0  0  0  0  0  0  0
   21.6759   -6.6596  -15.0494 C   0  0  1  0  0  0  0  0  0  0  0  0
   20.1822   -6.4204  -15.0363 C   0  0  0  0  0  0  0  0  0  0  0  0
   19.8569   -4.9600  -15.3064 C   0  0  0  0  0  0  0  0  0  0  0  0
   19.4112   -4.8357  -16.7146 C   0  0  0  0  0  0  0  0  0  0  0  0
   20.0878   -4.3122  -17.6231 O   0  0  0  0  0  0  0  0  0  0  0  0
   22.3718   -5.7695  -14.1175 C   0  0  0  0  0  0  0  0  0  0  0  0
   22.7853   -4.4842  -14.4234 O   0  0  0  0  0  0  0  0  0  0  0  0
   18.1551   -5.3324  -17.0608 O   0  0  0  0  0  0  0  0  0  0  0  0
   22.6139   -6.1896  -12.9637 O   0  0  0  0  0  0  0  0  0  0  0  0
  2  3  1  0
  2  1  1  0
  3  4  1  1
  5  3  1  0
  5  6  2  0
  7  8  1  0
  8  9  1  0
  9 11  1  0
  9 10  1  1
 11 12  1  6
 11 13  1  0
 12  5  1  0
 13 15  1  0
 14 13  2  0
 15 16  1  0
 16 21  1  0
 17 18  1  0
 16 17  1  1
 19 23  1  0
 19 18  1  0
 20 19  2  0
 21 24  2  0
 21 22  1  0
M  END
$$$$
