SIE.pdb
     RDKit          3D

 24 23  0  0  1  0  0  0  0  0999 V2000
   21.0899  -15.2882  -19.3882 O   0  0  0  0  0  0  0  0  0  0  0  0
   21.4199  -14.2141  -18.5632 C   0  0  0  0  0  0  0  0  0  0  0  0
   22.9214  -14.2357  -18.3277 C   0  0  2  0  0  0  0  0  0  0  0  0
   23.3796  -15.5113  -17.8710 N   0  0  0  0  0  0  0  0  0  0  0  0
   23.2155  -13.2155  -17.2862 C   0  0  0  0  0  0  0  0  0  0  0  0
   22.4475  -12.9928  -16.3222 O   0  0  0  0  0  0  0  0  0  0  0  0
   28.3057  -12.5842  -15.6657 C   0  0  0  0  0  0  0  0  0  0  0  0
   26.7595  -12.6509  -15.6091 C   0  0  0  0  0  0  0  0  0  0  0  0
   26.2540  -11.4002  -16.2541 C   0  0  2  0  0  0  0  0  0  0  0  0
   26.7186  -10.2320  -15.4084 C   0  0  0  0  0  0  0  0  0  0  0  0
   24.7709  -11.4107  -16.4545 C   0  0  2  0  0  0  0  0  0  0  0  0
   24.4006  -12.4761  -17.3919 N   0  0  0  0  0  0  0  0  0  0  0  0
   24.1877  -10.1540  -16.9495 C   0  0  0  0  0  0  0  0  0  0  0  0
   24.5697   -9.7077  -18.0796 O   0  0  0  0  0  0  0  0  0  0  0  0
   23.2280   -9.4026  -16.2655 N   0  0  0  0  0  0  0  0  0  0  0  0
   22.6375   -8.1768  -16.8010 C   0  0  1  0  0  0  0  0  0  0  0  0
   21.1484   -8.1643  -16.5354 C   0  0  0  0  0  0  0  0  0  0  0  0
   20.5199   -6.8562  -16.9888 C   0  0  0  0  0  0  0  0  0  0  0  0
   19.0670   -6.9139  -16.7009 C   0  0  0  0  0  0  0  0  0  0  0  0
   18.4962   -7.8792  -16.1535 O   0  0  0  0  0  0  0  0  0  0  0  0
   23.2889   -6.9765  -16.2717 C   0  0  0  0  0  0  0  0  0  0  0  0
   23.4834   -5.8096  -16.9908 O   0  0  0  0  0  0  0  0  0  0  0  0
   18.2742   -5.8247  -17.0602 O   0  0  0  0  0  0  0  0  0  0  0  0
   23.7012   -6.9966  -15.0902 O   0  0  0  0  0  0  0  0  0  0  0  0
  2  3  1  0
  2  1  1  0
  3  4  1  1
  5  3  1  0
  5  6  2  0
  7  8  1  0
  8  9  1  0
  9 11  1  0
  9 10  1  1
 11 12  1  6
 11 13  1  0
 12  5  1  0
 13 15  1  0
 14 13  2  0
 15 16  1  0
 16 21  1  0
 17 18  1  0
 16 17  1  1
 19 23  1  0
 19 18  1  0
 20 19  2  0
 21 24  2  0
 21 22  1  0
M  END
$$$$
