SIE.pdb
     RDKit          3D

 24 23  0  0  1  0  0  0  0  0999 V2000
   18.4265  -11.8694  -18.3233 O   0  0  0  0  0  0  0  0  0  0  0  0
   19.2205  -11.1227  -17.4541 C   0  0  0  0  0  0  0  0  0  0  0  0
   20.3383  -12.0158  -16.9411 C   0  0  2  0  0  0  0  0  0  0  0  0
   19.8404  -13.1482  -16.2231 N   0  0  0  0  0  0  0  0  0  0  0  0
   21.1714  -11.1913  -16.0254 C   0  0  0  0  0  0  0  0  0  0  0  0
   20.8449  -10.9601  -14.8385 O   0  0  0  0  0  0  0  0  0  0  0  0
   26.4087  -11.9652  -16.0043 C   0  0  0  0  0  0  0  0  0  0  0  0
   24.9614  -11.6498  -15.5525 C   0  0  0  0  0  0  0  0  0  0  0  0
   24.6900  -10.2331  -15.9466 C   0  0  2  0  0  0  0  0  0  0  0  0
   25.6798   -9.3570  -15.2062 C   0  0  0  0  0  0  0  0  0  0  0  0
   23.2699   -9.8269  -15.7052 C   0  0  2  0  0  0  0  0  0  0  0  0
   22.3688  -10.6537  -16.5147 N   0  0  0  0  0  0  0  0  0  0  0  0
   22.9566   -8.4165  -15.9830 C   0  0  0  0  0  0  0  0  0  0  0  0
   22.8016   -8.0531  -17.1938 O   0  0  0  0  0  0  0  0  0  0  0  0
   22.8092   -7.4300  -15.0039 N   0  0  0  0  0  0  0  0  0  0  0  0
   22.3753   -6.0653  -15.2989 C   0  0  1  0  0  0  0  0  0  0  0  0
   21.0178   -6.0898  -15.9659 C   0  0  0  0  0  0  0  0  0  0  0  0
   20.5372   -4.6834  -16.2866 C   0  0  0  0  0  0  0  0  0  0  0  0
   19.1635   -4.7754  -16.8357 C   0  0  0  0  0  0  0  0  0  0  0  0
   18.5576   -5.8471  -17.0396 O   0  0  0  0  0  0  0  0  0  0  0  0
   22.3724   -5.2192  -14.1033 C   0  0  0  0  0  0  0  0  0  0  0  0
   22.3813   -3.8350  -14.1237 O   0  0  0  0  0  0  0  0  0  0  0  0
   18.4923   -3.5941  -17.1493 O   0  0  0  0  0  0  0  0  0  0  0  0
   22.3611   -5.7755  -12.9822 O   0  0  0  0  0  0  0  0  0  0  0  0
  2  3  1  0
  2  1  1  0
  3  4  1  1
  5  3  1  0
  5  6  2  0
  7  8  1  0
  8  9  1  0
  9 11  1  0
  9 10  1  1
 11 12  1  6
 11 13  1  0
 12  5  1  0
 13 15  1  0
 14 13  2  0
 15 16  1  0
 16 21  1  0
 17 18  1  0
 16 17  1  1
 19 23  1  0
 19 18  1  0
 20 19  2  0
 21 24  2  0
 21 22  1  0
M  END
$$$$
