SIE.pdb
     RDKit          3D

 24 23  0  0  1  0  0  0  0  0999 V2000
   23.5426  -14.1813  -17.9013 O   0  0  0  0  0  0  0  0  0  0  0  0
   24.2981  -13.0218  -18.0691 C   0  0  0  0  0  0  0  0  0  0  0  0
   23.9927  -12.0809  -16.9151 C   0  0  2  0  0  0  0  0  0  0  0  0
   24.0451  -12.7427  -15.6482 N   0  0  0  0  0  0  0  0  0  0  0  0
   22.6172  -11.5573  -17.1300 C   0  0  0  0  0  0  0  0  0  0  0  0
   22.2907  -10.9157  -18.1550 O   0  0  0  0  0  0  0  0  0  0  0  0
   18.9690  -14.7654  -16.3860 C   0  0  0  0  0  0  0  0  0  0  0  0
   19.1988  -13.3820  -17.0431 C   0  0  0  0  0  0  0  0  0  0  0  0
   19.3097  -12.3924  -15.9275 C   0  0  2  0  0  0  0  0  0  0  0  0
   17.9147  -11.8796  -15.6334 C   0  0  0  0  0  0  0  0  0  0  0  0
   20.2765  -11.2896  -16.2259 C   0  0  2  0  0  0  0  0  0  0  0  0
   21.6512  -11.7938  -16.1436 N   0  0  0  0  0  0  0  0  0  0  0  0
   20.1790  -10.1067  -15.3565 C   0  0  0  0  0  0  0  0  0  0  0  0
   20.3108  -10.2613  -14.0992 O   0  0  0  0  0  0  0  0  0  0  0  0
   19.9536   -8.8048  -15.8124 N   0  0  0  0  0  0  0  0  0  0  0  0
   19.8562   -7.6487  -14.9227 C   0  0  1  0  0  0  0  0  0  0  0  0
   21.0718   -6.7645  -15.0930 C   0  0  0  0  0  0  0  0  0  0  0  0
   20.9816   -5.5298  -14.2104 C   0  0  0  0  0  0  0  0  0  0  0  0
   22.2331   -4.7517  -14.3700 C   0  0  0  0  0  0  0  0  0  0  0  0
   22.8130   -4.5678  -15.4596 O   0  0  0  0  0  0  0  0  0  0  0  0
   18.6137   -6.9008  -15.1277 C   0  0  0  0  0  0  0  0  0  0  0  0
   17.9437   -6.2081  -14.1338 O   0  0  0  0  0  0  0  0  0  0  0  0
   22.8112   -4.1823  -13.2361 O   0  0  0  0  0  0  0  0  0  0  0  0
   18.1154   -6.8803  -16.2756 O   0  0  0  0  0  0  0  0  0  0  0  0
  2  3  1  0
  2  1  1  0
  3  4  1  1
  5  3  1  0
  5  6  2  0
  7  8  1  0
  8  9  1  0
  9 11  1  0
  9 10  1  6
 11 12  1  1
 11 13  1  0
 12  5  1  0
 13 15  1  0
 14 13  2  0
 15 16  1  0
 16 21  1  0
 17 18  1  0
 16 17  1  6
 19 23  1  0
 19 18  1  0
 20 19  2  0
 21 24  2  0
 21 22  1  0
M  END
$$$$
