SIE.pdb
     RDKit          3D

 24 23  0  0  1  0  0  0  0  0999 V2000
   26.9803   -9.9767  -15.9873 O   0  0  0  0  0  0  0  0  0  0  0  0
   26.4508  -10.8841  -15.0710 C   0  0  0  0  0  0  0  0  0  0  0  0
   25.7851  -12.0109  -15.8440 C   0  0  2  0  0  0  0  0  0  0  0  0
   26.6069  -12.4960  -16.9094 N   0  0  0  0  0  0  0  0  0  0  0  0
   24.5255  -11.4645  -16.4158 C   0  0  0  0  0  0  0  0  0  0  0  0
   24.4152  -11.1395  -17.6204 O   0  0  0  0  0  0  0  0  0  0  0  0
   20.1239  -13.8174  -16.9325 C   0  0  0  0  0  0  0  0  0  0  0  0
   21.2093  -12.7329  -17.1427 C   0  0  0  0  0  0  0  0  0  0  0  0
   21.0789  -11.7719  -16.0044 C   0  0  2  0  0  0  0  0  0  0  0  0
   19.6852  -11.1807  -16.0651 C   0  0  0  0  0  0  0  0  0  0  0  0
   22.1480  -10.7246  -16.0055 C   0  0  2  0  0  0  0  0  0  0  0  0
   23.4206  -11.3086  -15.5691 N   0  0  0  0  0  0  0  0  0  0  0  0
   21.8834   -9.5457  -15.1661 C   0  0  0  0  0  0  0  0  0  0  0  0
   21.9411   -9.6729  -13.9002 O   0  0  0  0  0  0  0  0  0  0  0  0
   21.5731   -8.2754  -15.6596 N   0  0  0  0  0  0  0  0  0  0  0  0
   21.2557   -7.1361  -14.7998 C   0  0  1  0  0  0  0  0  0  0  0  0
   22.1076   -5.9471  -15.1858 C   0  0  0  0  0  0  0  0  0  0  0  0
   21.7751   -4.7327  -14.3336 C   0  0  0  0  0  0  0  0  0  0  0  0
   22.5454   -3.5767  -14.8509 C   0  0  0  0  0  0  0  0  0  0  0  0
   23.7761   -3.5870  -15.0568 O   0  0  0  0  0  0  0  0  0  0  0  0
   19.8286   -6.8075  -14.8276 C   0  0  0  0  0  0  0  0  0  0  0  0
   19.1217   -6.2968  -13.7525 O   0  0  0  0  0  0  0  0  0  0  0  0
   21.8622   -2.3937  -15.1299 O   0  0  0  0  0  0  0  0  0  0  0  0
   19.1961   -6.9977  -15.8907 O   0  0  0  0  0  0  0  0  0  0  0  0
  2  3  1  0
  2  1  1  0
  3  4  1  6
  5  3  1  0
  5  6  2  0
  7  8  1  0
  8  9  1  0
  9 11  1  0
  9 10  1  6
 11 12  1  1
 11 13  1  0
 12  5  1  0
 13 15  1  0
 14 13  2  0
 15 16  1  0
 16 21  1  0
 17 18  1  0
 16 17  1  6
 19 23  1  0
 19 18  1  0
 20 19  2  0
 21 24  2  0
 21 22  1  0
M  END
$$$$
