SIE.pdb
     RDKit          3D

 24 23  0  0  1  0  0  0  0  0999 V2000
   16.4167  -10.8406  -17.9616 O   0  0  0  0  0  0  0  0  0  0  0  0
   17.3777  -10.3246  -17.0935 C   0  0  0  0  0  0  0  0  0  0  0  0
   18.4512  -11.3806  -16.8863 C   0  0  2  0  0  0  0  0  0  0  0  0
   17.9159  -12.6037  -16.3732 N   0  0  0  0  0  0  0  0  0  0  0  0
   19.4232  -10.8293  -15.9048 C   0  0  0  0  0  0  0  0  0  0  0  0
   19.2616  -10.9254  -14.6665 O   0  0  0  0  0  0  0  0  0  0  0  0
   25.1841  -10.7115  -14.9763 C   0  0  0  0  0  0  0  0  0  0  0  0
   23.9712   -9.7609  -14.8228 C   0  0  0  0  0  0  0  0  0  0  0  0
   22.8800  -10.3190  -15.6795 C   0  0  2  0  0  0  0  0  0  0  0  0
   23.3770  -10.3136  -17.1107 C   0  0  0  0  0  0  0  0  0  0  0  0
   21.5850   -9.5863  -15.5179 C   0  0  2  0  0  0  0  0  0  0  0  0
   20.5641  -10.1770  -16.3895 N   0  0  0  0  0  0  0  0  0  0  0  0
   21.6329   -8.1425  -15.7964 C   0  0  0  0  0  0  0  0  0  0  0  0
   21.3251   -7.7359  -16.9635 O   0  0  0  0  0  0  0  0  0  0  0  0
   21.9917   -7.1668  -14.8622 N   0  0  0  0  0  0  0  0  0  0  0  0
   21.6950   -5.7453  -15.0324 C   0  0  1  0  0  0  0  0  0  0  0  0
   20.2173   -5.5558  -15.2943 C   0  0  0  0  0  0  0  0  0  0  0  0
   19.8692   -4.0830  -15.4405 C   0  0  0  0  0  0  0  0  0  0  0  0
   18.4177   -3.9738  -15.7203 C   0  0  0  0  0  0  0  0  0  0  0  0
   17.5790   -3.5158  -14.9177 O   0  0  0  0  0  0  0  0  0  0  0  0
   22.1454   -4.9492  -13.8883 C   0  0  0  0  0  0  0  0  0  0  0  0
   22.4293   -3.5953  -13.9398 O   0  0  0  0  0  0  0  0  0  0  0  0
   17.9446   -4.4079  -16.9580 O   0  0  0  0  0  0  0  0  0  0  0  0
   22.2862   -5.5225  -12.7847 O   0  0  0  0  0  0  0  0  0  0  0  0
  2  3  1  0
  2  1  1  0
  3  4  1  1
  5  3  1  0
  5  6  2  0
  7  8  1  0
  8  9  1  0
  9 11  1  0
  9 10  1  6
 11 12  1  6
 11 13  1  0
 12  5  1  0
 13 15  1  0
 14 13  2  0
 15 16  1  0
 16 21  1  0
 17 18  1  0
 16 17  1  1
 19 23  1  0
 19 18  1  0
 20 19  2  0
 21 24  2  0
 21 22  1  0
M  END
$$$$
