SIE.pdb
     RDKit          3D

 24 23  0  0  1  0  0  0  0  0999 V2000
   28.9179  -10.7214  -16.3965 O   0  0  0  0  0  0  0  0  0  0  0  0
   27.6023  -10.3217  -16.6263 C   0  0  0  0  0  0  0  0  0  0  0  0
   26.7067  -11.5459  -16.5291 C   0  0  2  0  0  0  0  0  0  0  0  0
   27.0413  -12.5403  -17.5012 N   0  0  0  0  0  0  0  0  0  0  0  0
   25.3120  -11.0874  -16.7674 C   0  0  0  0  0  0  0  0  0  0  0  0
   24.7989  -11.0489  -17.9093 O   0  0  0  0  0  0  0  0  0  0  0  0
   21.2090  -13.4342  -15.2735 C   0  0  0  0  0  0  0  0  0  0  0  0
   22.1625  -12.4698  -16.0214 C   0  0  0  0  0  0  0  0  0  0  0  0
   22.2216  -11.2142  -15.2115 C   0  0  2  0  0  0  0  0  0  0  0  0
   20.8070  -10.6863  -15.0859 C   0  0  0  0  0  0  0  0  0  0  0  0
   23.1646  -10.2014  -15.7815 C   0  0  2  0  0  0  0  0  0  0  0  0
   24.5450  -10.6833  -15.6671 N   0  0  0  0  0  0  0  0  0  0  0  0
   23.1039   -8.8634  -15.1727 C   0  0  0  0  0  0  0  0  0  0  0  0
   23.4171   -8.7372  -13.9446 O   0  0  0  0  0  0  0  0  0  0  0  0
   22.7272   -7.7008  -15.8509 N   0  0  0  0  0  0  0  0  0  0  0  0
   22.6560   -6.3871  -15.2130 C   0  0  1  0  0  0  0  0  0  0  0  0
   22.2966   -5.3355  -16.2393 C   0  0  0  0  0  0  0  0  0  0  0  0
   22.1843   -3.9601  -15.6011 C   0  0  0  0  0  0  0  0  0  0  0  0
   21.6769   -3.0136  -16.6227 C   0  0  0  0  0  0  0  0  0  0  0  0
   20.4706   -2.7441  -16.7946 O   0  0  0  0  0  0  0  0  0  0  0  0
   21.7257   -6.3754  -14.0818 C   0  0  0  0  0  0  0  0  0  0  0  0
   20.4671   -6.9516  -14.0971 O   0  0  0  0  0  0  0  0  0  0  0  0
   22.5973   -2.3752  -17.4531 O   0  0  0  0  0  0  0  0  0  0  0  0
   22.0833   -5.8085  -13.0248 O   0  0  0  0  0  0  0  0  0  0  0  0
  2  3  1  0
  2  1  1  0
  3  4  1  6
  5  3  1  0
  5  6  2  0
  7  8  1  0
  8  9  1  0
  9 11  1  0
  9 10  1  6
 11 12  1  1
 11 13  1  0
 12  5  1  0
 13 15  1  0
 14 13  2  0
 15 16  1  0
 16 21  1  0
 17 18  1  0
 16 17  1  6
 19 23  1  0
 19 18  1  0
 20 19  2  0
 21 24  2  0
 21 22  1  0
M  END
$$$$
