SIE.pdb
     RDKit          3D

 24 23  0  0  1  0  0  0  0  0999 V2000
   21.2230  -15.2697  -18.9274 O   0  0  0  0  0  0  0  0  0  0  0  0
   21.6039  -14.3543  -17.9475 C   0  0  0  0  0  0  0  0  0  0  0  0
   22.8724  -14.8646  -17.2835 C   0  0  2  0  0  0  0  0  0  0  0  0
   22.6660  -16.1057  -16.6033 N   0  0  0  0  0  0  0  0  0  0  0  0
   23.2928  -13.8359  -16.2950 C   0  0  0  0  0  0  0  0  0  0  0  0
   22.8369  -13.7926  -15.1292 O   0  0  0  0  0  0  0  0  0  0  0  0
   28.3548  -12.6461  -15.6732 C   0  0  0  0  0  0  0  0  0  0  0  0
   26.8468  -12.8614  -15.3939 C   0  0  0  0  0  0  0  0  0  0  0  0
   26.1450  -11.6271  -15.8630 C   0  0  2  0  0  0  0  0  0  0  0  0
   26.6412  -10.4720  -15.0174 C   0  0  0  0  0  0  0  0  0  0  0  0
   24.6548  -11.7620  -15.8342 C   0  0  2  0  0  0  0  0  0  0  0  0
   24.2371  -12.8788  -16.6881 N   0  0  0  0  0  0  0  0  0  0  0  0
   23.9007  -10.5700  -16.2526 C   0  0  0  0  0  0  0  0  0  0  0  0
   23.7791  -10.3312  -17.4978 O   0  0  0  0  0  0  0  0  0  0  0  0
   23.2941   -9.6677  -15.3745 N   0  0  0  0  0  0  0  0  0  0  0  0
   22.3596   -8.6304  -15.8088 C   0  0  1  0  0  0  0  0  0  0  0  0
   21.1485   -9.2665  -16.4546 C   0  0  0  0  0  0  0  0  0  0  0  0
   20.1981   -8.2120  -16.9989 C   0  0  0  0  0  0  0  0  0  0  0  0
   19.0256   -8.9021  -17.5872 C   0  0  0  0  0  0  0  0  0  0  0  0
   18.8429  -10.1359  -17.5484 O   0  0  0  0  0  0  0  0  0  0  0  0
   21.9785   -7.7394  -14.7106 C   0  0  0  0  0  0  0  0  0  0  0  0
   21.5188   -6.4442  -14.8767 O   0  0  0  0  0  0  0  0  0  0  0  0
   18.0551   -8.1339  -18.2294 O   0  0  0  0  0  0  0  0  0  0  0  0
   22.0709   -8.1685  -13.5385 O   0  0  0  0  0  0  0  0  0  0  0  0
  2  3  1  0
  2  1  1  0
  3  4  1  1
  5  3  1  0
  5  6  2  0
  7  8  1  0
  8  9  1  0
  9 11  1  0
  9 10  1  1
 11 12  1  6
 11 13  1  0
 12  5  1  0
 13 15  1  0
 14 13  2  0
 15 16  1  0
 16 21  1  0
 17 18  1  0
 16 17  1  1
 19 23  1  0
 19 18  1  0
 20 19  2  0
 21 24  2  0
 21 22  1  0
M  END
$$$$
