SIE.pdb
     RDKit          3D

 24 23  0  0  1  0  0  0  0  0999 V2000
   25.8703  -19.8176  -16.4452 O   0  0  0  0  0  0  0  0  0  0  0  0
   26.7285  -19.2703  -15.4926 C   0  0  0  0  0  0  0  0  0  0  0  0
   27.3996  -20.4096  -14.7430 C   0  0  2  0  0  0  0  0  0  0  0  0
   27.9951  -21.3631  -15.6271 N   0  0  0  0  0  0  0  0  0  0  0  0
   26.3454  -21.0866  -13.9414 C   0  0  0  0  0  0  0  0  0  0  0  0
   25.9779  -22.2631  -14.1641 O   0  0  0  0  0  0  0  0  0  0  0  0
   26.4373  -20.4025   -8.6608 C   0  0  0  0  0  0  0  0  0  0  0  0
   26.2085  -21.1065  -10.0211 C   0  0  0  0  0  0  0  0  0  0  0  0
   24.9629  -20.5180  -10.6026 C   0  0  2  0  0  0  0  0  0  0  0  0
   23.8161  -20.8762   -9.6795 C   0  0  0  0  0  0  0  0  0  0  0  0
   24.7217  -20.9523  -12.0143 C   0  0  2  0  0  0  0  0  0  0  0  0
   25.7418  -20.3757  -12.8962 N   0  0  0  0  0  0  0  0  0  0  0  0
   23.4027  -20.6087  -12.5681 C   0  0  0  0  0  0  0  0  0  0  0  0
   23.1335  -19.3833  -12.7872 O   0  0  0  0  0  0  0  0  0  0  0  0
   22.4082  -21.5394  -12.8816 N   0  0  0  0  0  0  0  0  0  0  0  0
   21.0797  -21.1629  -13.3623 C   0  0  1  0  0  0  0  0  0  0  0  0
   20.4357  -22.3364  -14.0670 C   0  0  0  0  0  0  0  0  0  0  0  0
   19.0278  -21.9954  -14.5286 C   0  0  0  0  0  0  0  0  0  0  0  0
   18.4548  -23.1894  -15.1944 C   0  0  0  0  0  0  0  0  0  0  0  0
   19.0369  -24.2891  -15.2894 O   0  0  0  0  0  0  0  0  0  0  0  0
   20.2305  -20.6501  -12.2847 C   0  0  0  0  0  0  0  0  0  0  0  0
   19.3279  -19.6101  -12.4268 O   0  0  0  0  0  0  0  0  0  0  0  0
   17.1823  -23.0911  -15.7558 O   0  0  0  0  0  0  0  0  0  0  0  0
   20.3192  -21.1813  -11.1549 O   0  0  0  0  0  0  0  0  0  0  0  0
  2  3  1  0
  2  1  1  0
  3  4  1  6
  5  3  1  0
  5  6  2  0
  7  8  1  0
  8  9  1  0
  9 11  1  0
  9 10  1  1
 11 12  1  6
 11 13  1  0
 12  5  1  0
 13 15  1  0
 14 13  2  0
 15 16  1  0
 16 21  1  0
 17 18  1  0
 16 17  1  1
 19 23  1  0
 19 18  1  0
 20 19  2  0
 21 24  2  0
 21 22  1  0
M  END
$$$$
