NYC.pdb
     RDKit          3D

 27 27  0  0  1  0  0  0  0  0999 V2000
   27.8305  -20.9503  -18.3258 N   0  0  0  0  0  0  0  0  0  0  0  0
   27.4878  -19.6793  -17.8142 C   0  0  0  0  0  0  0  0  0  0  0  0
   27.8437  -18.6541  -18.4325 O   0  0  0  0  0  0  0  0  0  0  0  0
   26.7195  -19.5613  -16.5659 C   0  0  0  0  0  0  0  0  0  0  0  0
   27.2776  -20.4212  -15.4580 C   0  0  2  0  0  0  0  0  0  0  0  0
   27.1877  -21.8222  -15.7410 N   0  0  0  0  0  0  0  0  0  0  0  0
   26.5265  -20.1251  -14.2120 C   0  0  0  0  0  0  0  0  0  0  0  0
   26.2301  -18.9239  -13.9580 O   0  0  0  0  0  0  0  0  0  0  0  0
   20.3417  -19.7437  -15.9996 O   0  0  0  0  0  0  0  0  0  0  0  0
   21.2633  -20.2283  -15.0824 C   0  0  0  0  0  0  0  0  0  0  0  0
   21.2488  -19.7160  -13.8017 C   0  0  0  0  0  0  0  0  0  0  0  0
   22.1825  -20.2261  -12.9216 C   0  0  0  0  0  0  0  0  0  0  0  0
   23.0889  -21.2001  -13.2959 C   0  0  0  0  0  0  0  0  0  0  0  0
   24.0597  -21.6896  -12.2945 C   0  0  0  0  0  0  0  0  0  0  0  0
   25.2874  -20.8445  -12.2027 C   0  0  2  0  0  0  0  0  0  0  0  0
   26.1490  -21.1514  -13.3279 N   0  0  0  0  0  0  0  0  0  0  0  0
   26.0684  -21.0187  -10.9646 C   0  0  0  0  0  0  0  0  0  0  0  0
   26.5205  -22.1532  -10.6875 O   0  0  0  0  0  0  0  0  0  0  0  0
   23.0699  -21.6827  -14.5796 C   0  0  0  0  0  0  0  0  0  0  0  0
   22.1437  -21.1978  -15.5064 C   0  0  0  0  0  0  0  0  0  0  0  0
   26.3300  -19.9503  -10.0711 N   0  0  0  0  0  0  0  0  0  0  0  0
   26.5511  -20.2538   -8.6735 C   0  0  1  0  0  0  0  0  0  0  0  0
   27.1086  -19.0110   -7.9760 C   0  0  0  0  0  0  0  0  0  0  0  0
   27.3447  -19.4718   -6.2279 S   0  0  0  0  0  0  0  0  0  0  0  0
   25.2362  -20.5835   -8.0441 C   0  0  0  0  0  0  0  0  0  0  0  0
   25.1621  -21.4931   -6.9967 O   0  0  0  0  0  0  0  0  0  0  0  0
   24.1847  -20.0313   -8.4672 O   0  0  0  0  0  0  0  0  0  0  0  0
  2  3  2  0
  2  1  1  0
  4  2  1  0
  5  7  1  0
  5  4  1  0
  5  6  1  6
  7  8  2  0
  9 10  1  0
 10 20  2  0
 10 11  1  0
 11 12  2  0
 12 13  1  0
 13 14  1  0
 15 14  1  1
 16 15  1  0
 16  7  1  0
 17 15  1  0
 18 17  2  0
 19 13  2  0
 20 19  1  0
 21 17  1  0
 22 25  1  0
 22 21  1  0
 22 23  1  1
 24 23  1  0
 25 26  1  0
 27 25  2  0
M  END
$$$$
