NYC.pdb
     RDKit          3D

 27 27  0  0  1  0  0  0  0  0999 V2000
   29.1620  -20.6177  -19.7750 N   0  0  0  0  0  0  0  0  0  0  0  0
   29.7179  -21.5068  -18.8289 C   0  0  0  0  0  0  0  0  0  0  0  0
   30.7886  -22.0924  -19.0942 O   0  0  0  0  0  0  0  0  0  0  0  0
   29.0445  -21.7425  -17.5430 C   0  0  0  0  0  0  0  0  0  0  0  0
   27.8140  -20.8862  -17.3672 C   0  0  2  0  0  0  0  0  0  0  0  0
   28.1079  -19.4847  -17.3531 N   0  0  0  0  0  0  0  0  0  0  0  0
   27.1612  -21.2616  -16.0877 C   0  0  0  0  0  0  0  0  0  0  0  0
   26.8102  -22.4632  -15.9200 O   0  0  0  0  0  0  0  0  0  0  0  0
   24.0636  -20.8459   -7.9210 O   0  0  0  0  0  0  0  0  0  0  0  0
   24.7325  -20.6058   -9.1128 C   0  0  0  0  0  0  0  0  0  0  0  0
   24.2474  -19.6257   -9.9537 C   0  0  0  0  0  0  0  0  0  0  0  0
   24.9431  -19.4197  -11.1284 C   0  0  0  0  0  0  0  0  0  0  0  0
   26.0687  -20.1531  -11.4535 C   0  0  0  0  0  0  0  0  0  0  0  0
   26.7532  -19.8742  -12.7334 C   0  0  0  0  0  0  0  0  0  0  0  0
   26.2428  -20.7021  -13.8665 C   0  0  2  0  0  0  0  0  0  0  0  0
   26.9342  -20.3086  -15.0788 N   0  0  0  0  0  0  0  0  0  0  0  0
   24.7926  -20.5942  -14.1088 C   0  0  0  0  0  0  0  0  0  0  0  0
   24.3494  -19.5797  -14.6941 O   0  0  0  0  0  0  0  0  0  0  0  0
   26.5181  -21.1188  -10.5894 C   0  0  0  0  0  0  0  0  0  0  0  0
   25.8478  -21.3640   -9.3883 C   0  0  0  0  0  0  0  0  0  0  0  0
   23.8752  -21.5959  -13.7046 N   0  0  0  0  0  0  0  0  0  0  0  0
   22.4605  -21.3575  -13.8944 C   0  0  1  0  0  0  0  0  0  0  0  0
   21.7336  -22.7024  -13.9633 C   0  0  0  0  0  0  0  0  0  0  0  0
   19.9580  -22.3140  -14.1069 S   0  0  0  0  0  0  0  0  0  0  0  0
   21.9396  -20.6135  -12.7074 C   0  0  0  0  0  0  0  0  0  0  0  0
   21.0420  -19.5655  -12.8681 O   0  0  0  0  0  0  0  0  0  0  0  0
   22.3180  -20.9397  -11.5498 O   0  0  0  0  0  0  0  0  0  0  0  0
  2  3  2  0
  2  1  1  0
  4  2  1  0
  5  7  1  0
  5  4  1  0
  5  6  1  1
  7  8  2  0
  9 10  1  0
 10 20  2  0
 10 11  1  0
 11 12  2  0
 12 13  1  0
 13 14  1  0
 15 14  1  1
 16 15  1  0
 16  7  1  0
 17 15  1  0
 18 17  2  0
 19 13  2  0
 20 19  1  0
 21 17  1  0
 22 25  1  0
 22 21  1  0
 22 23  1  1
 24 23  1  0
 25 26  1  0
 27 25  2  0
M  END
$$$$
