NYC.pdb
     RDKit          3D

 27 27  0  0  1  0  0  0  0  0999 V2000
   45.4354  -13.0508   -6.5557 N   0  0  0  0  0  0  0  0  0  0  0  0
   44.9898  -11.9877   -7.3719 C   0  0  0  0  0  0  0  0  0  0  0  0
   45.7638  -11.5047   -8.2248 O   0  0  0  0  0  0  0  0  0  0  0  0
   43.6284  -11.4530   -7.2209 C   0  0  0  0  0  0  0  0  0  0  0  0
   43.6152  -10.0457   -6.6749 C   0  0  2  0  0  0  0  0  0  0  0  0
   44.0776   -9.9688   -5.3217 N   0  0  0  0  0  0  0  0  0  0  0  0
   42.2254   -9.5286   -6.7468 C   0  0  0  0  0  0  0  0  0  0  0  0
   41.4007   -9.8919   -5.8619 O   0  0  0  0  0  0  0  0  0  0  0  0
   35.8133   -4.0237   -6.3814 O   0  0  0  0  0  0  0  0  0  0  0  0
   36.9238   -4.8555   -6.3974 C   0  0  0  0  0  0  0  0  0  0  0  0
   38.1771   -4.2806   -6.3564 C   0  0  0  0  0  0  0  0  0  0  0  0
   39.2540   -5.1447   -6.3741 C   0  0  0  0  0  0  0  0  0  0  0  0
   39.0939   -6.5164   -6.4300 C   0  0  0  0  0  0  0  0  0  0  0  0
   40.2990   -7.3720   -6.4506 C   0  0  0  0  0  0  0  0  0  0  0  0
   40.4924   -8.0851   -7.7483 C   0  0  2  0  0  0  0  0  0  0  0  0
   41.8261   -8.6537   -7.7727 N   0  0  0  0  0  0  0  0  0  0  0  0
   40.3292   -7.2440   -8.9480 C   0  0  0  0  0  0  0  0  0  0  0  0
   41.2801   -6.5143   -9.3108 O   0  0  0  0  0  0  0  0  0  0  0  0
   37.8301   -7.0477   -6.4696 C   0  0  0  0  0  0  0  0  0  0  0  0
   36.7090   -6.2140   -6.4536 C   0  0  0  0  0  0  0  0  0  0  0  0
   39.1351   -7.2270   -9.7110 N   0  0  0  0  0  0  0  0  0  0  0  0
   39.0643   -6.3611  -10.8684 C   0  0  1  0  0  0  0  0  0  0  0  0
   38.3703   -7.1095  -12.0086 C   0  0  0  0  0  0  0  0  0  0  0  0
   38.2084   -5.9151  -13.3765 S   0  0  0  0  0  0  0  0  0  0  0  0
   38.2278   -5.1718  -10.5227 C   0  0  0  0  0  0  0  0  0  0  0  0
   38.5903   -3.9026  -10.9560 O   0  0  0  0  0  0  0  0  0  0  0  0
   37.1839   -5.3213   -9.8316 O   0  0  0  0  0  0  0  0  0  0  0  0
  2  3  2  0
  2  1  1  0
  4  2  1  0
  5  7  1  0
  5  4  1  0
  5  6  1  1
  7  8  2  0
  9 10  1  0
 10 20  2  0
 10 11  1  0
 11 12  2  0
 12 13  1  0
 13 14  1  0
 15 14  1  1
 16 15  1  0
 16  7  1  0
 17 15  1  0
 18 17  2  0
 19 13  2  0
 20 19  1  0
 21 17  1  0
 22 25  1  0
 22 21  1  0
 22 23  1  6
 24 23  1  0
 25 26  1  0
 27 25  2  0
M  END
$$$$
