NYC.pdb
     RDKit          3D

 27 27  0  0  1  0  0  0  0  0999 V2000
   24.5477   -9.5284  -22.7420 N   0  0  0  0  0  0  0  0  0  0  0  0
   23.5238  -10.3738  -22.2607 C   0  0  0  0  0  0  0  0  0  0  0  0
   23.0728  -11.2723  -23.0018 O   0  0  0  0  0  0  0  0  0  0  0  0
   22.9923  -10.2000  -20.9007 C   0  0  0  0  0  0  0  0  0  0  0  0
   23.6765   -9.0844  -20.1487 C   0  0  2  0  0  0  0  0  0  0  0  0
   25.0082   -9.4207  -19.7433 N   0  0  0  0  0  0  0  0  0  0  0  0
   22.8660   -8.7638  -18.9469 C   0  0  0  0  0  0  0  0  0  0  0  0
   21.6571   -8.4343  -19.1056 O   0  0  0  0  0  0  0  0  0  0  0  0
   22.1126  -14.8987  -17.0101 O   0  0  0  0  0  0  0  0  0  0  0  0
   22.3088  -13.5804  -16.6240 C   0  0  0  0  0  0  0  0  0  0  0  0
   23.5795  -13.1827  -16.2633 C   0  0  0  0  0  0  0  0  0  0  0  0
   23.7300  -11.8629  -15.8862 C   0  0  0  0  0  0  0  0  0  0  0  0
   22.6678  -10.9787  -15.8680 C   0  0  0  0  0  0  0  0  0  0  0  0
   22.9122   -9.5833  -15.4466 C   0  0  0  0  0  0  0  0  0  0  0  0
   22.5773   -8.5822  -16.5027 C   0  0  2  0  0  0  0  0  0  0  0  0
   23.4220   -8.8226  -17.6566 N   0  0  0  0  0  0  0  0  0  0  0  0
   22.7429   -7.1746  -16.0971 C   0  0  0  0  0  0  0  0  0  0  0  0
   23.8375   -6.6059  -16.3135 O   0  0  0  0  0  0  0  0  0  0  0  0
   21.4200  -11.4148  -16.2340 C   0  0  0  0  0  0  0  0  0  0  0  0
   21.2177  -12.7412  -16.6234 C   0  0  0  0  0  0  0  0  0  0  0  0
   21.7097   -6.4350  -15.4695 N   0  0  0  0  0  0  0  0  0  0  0  0
   21.9697   -5.0617  -15.0946 C   0  0  1  0  0  0  0  0  0  0  0  0
   20.8880   -4.1660  -15.7026 C   0  0  0  0  0  0  0  0  0  0  0  0
   21.1536   -2.5027  -15.0051 S   0  0  0  0  0  0  0  0  0  0  0  0
   21.8778   -4.9487  -13.6072 C   0  0  0  0  0  0  0  0  0  0  0  0
   22.5752   -3.9568  -12.9291 O   0  0  0  0  0  0  0  0  0  0  0  0
   21.1610   -5.7605  -12.9616 O   0  0  0  0  0  0  0  0  0  0  0  0
  2  3  2  0
  2  1  1  0
  4  2  1  0
  5  7  1  0
  5  4  1  0
  5  6  1  1
  7  8  2  0
  9 10  1  0
 10 20  2  0
 10 11  1  0
 11 12  2  0
 12 13  1  0
 13 14  1  0
 15 14  1  1
 16 15  1  0
 16  7  1  0
 17 15  1  0
 18 17  2  0
 19 13  2  0
 20 19  1  0
 21 17  1  0
 22 25  1  0
 22 21  1  0
 22 23  1  6
 24 23  1  0
 25 26  1  0
 27 25  2  0
M  END
$$$$
