NYC.pdb
     RDKit          3D

 27 27  0  0  1  0  0  0  0  0999 V2000
   22.1938  -15.0167  -19.3913 N   0  0  0  0  0  0  0  0  0  0  0  0
   22.9595  -13.8316  -19.4542 C   0  0  0  0  0  0  0  0  0  0  0  0
   24.2023  -13.9100  -19.5501 O   0  0  0  0  0  0  0  0  0  0  0  0
   22.3024  -12.5169  -19.4076 C   0  0  0  0  0  0  0  0  0  0  0  0
   22.8473  -11.6348  -18.3106 C   0  0  2  0  0  0  0  0  0  0  0  0
   22.6553  -12.1880  -17.0037 N   0  0  0  0  0  0  0  0  0  0  0  0
   22.1676  -10.3172  -18.3883 C   0  0  0  0  0  0  0  0  0  0  0  0
   22.2956   -9.6342  -19.4431 O   0  0  0  0  0  0  0  0  0  0  0  0
   17.0468  -13.0071  -14.7728 O   0  0  0  0  0  0  0  0  0  0  0  0
   17.5984  -11.9812  -15.5271 C   0  0  0  0  0  0  0  0  0  0  0  0
   17.6830  -10.7240  -14.9656 C   0  0  0  0  0  0  0  0  0  0  0  0
   18.2383   -9.7330  -15.7505 C   0  0  0  0  0  0  0  0  0  0  0  0
   18.6888   -9.9788  -17.0339 C   0  0  0  0  0  0  0  0  0  0  0  0
   19.2659   -8.8615  -17.8104 C   0  0  0  0  0  0  0  0  0  0  0  0
   20.6886   -8.5737  -17.4593 C   0  0  2  0  0  0  0  0  0  0  0  0
   21.3965   -9.8312  -17.3174 N   0  0  0  0  0  0  0  0  0  0  0  0
   20.8762   -7.7981  -16.2198 C   0  0  0  0  0  0  0  0  0  0  0  0
   21.2489   -8.3930  -15.1827 O   0  0  0  0  0  0  0  0  0  0  0  0
   18.5861  -11.2434  -17.5549 C   0  0  0  0  0  0  0  0  0  0  0  0
   18.0315  -12.2794  -16.7991 C   0  0  0  0  0  0  0  0  0  0  0  0
   20.6511   -6.4005  -16.1530 N   0  0  0  0  0  0  0  0  0  0  0  0
   20.8902   -5.7190  -14.8990 C   0  0  1  0  0  0  0  0  0  0  0  0
   22.3764   -5.8252  -14.5498 C   0  0  0  0  0  0  0  0  0  0  0  0
   22.6068   -4.8734  -13.0120 S   0  0  0  0  0  0  0  0  0  0  0  0
   20.5612   -4.2715  -15.0735 C   0  0  0  0  0  0  0  0  0  0  0  0
   20.2669   -3.4759  -13.9734 O   0  0  0  0  0  0  0  0  0  0  0  0
   20.5505   -3.7678  -16.2292 O   0  0  0  0  0  0  0  0  0  0  0  0
  2  3  2  0
  2  1  1  0
  4  2  1  0
  5  7  1  0
  5  4  1  0
  5  6  1  1
  7  8  2  0
  9 10  1  0
 10 20  2  0
 10 11  1  0
 11 12  2  0
 12 13  1  0
 13 14  1  0
 15 14  1  1
 16 15  1  0
 16  7  1  0
 17 15  1  0
 18 17  2  0
 19 13  2  0
 20 19  1  0
 21 17  1  0
 22 25  1  0
 22 21  1  0
 22 23  1  6
 24 23  1  0
 25 26  1  0
 27 25  2  0
M  END
$$$$
