NYC.pdb
     RDKit          3D

 27 27  0  0  1  0  0  0  0  0999 V2000
   22.3650  -28.8108  -17.5918 N   0  0  0  0  0  0  0  0  0  0  0  0
   23.5394  -28.0840  -17.2964 C   0  0  0  0  0  0  0  0  0  0  0  0
   24.6517  -28.6347  -17.4356 O   0  0  0  0  0  0  0  0  0  0  0  0
   23.4561  -26.6921  -16.8292 C   0  0  0  0  0  0  0  0  0  0  0  0
   22.0366  -26.1814  -16.7784 C   0  0  2  0  0  0  0  0  0  0  0  0
   21.6126  -25.5904  -18.0120 N   0  0  0  0  0  0  0  0  0  0  0  0
   21.9410  -25.1715  -15.6943 C   0  0  0  0  0  0  0  0  0  0  0  0
   22.2652  -25.5127  -14.5223 O   0  0  0  0  0  0  0  0  0  0  0  0
   27.7205  -23.1166  -16.1602 O   0  0  0  0  0  0  0  0  0  0  0  0
   26.3925  -22.7691  -15.9576 C   0  0  0  0  0  0  0  0  0  0  0  0
   25.9543  -22.5704  -14.6647 C   0  0  0  0  0  0  0  0  0  0  0  0
   24.6263  -22.2260  -14.5085 C   0  0  0  0  0  0  0  0  0  0  0  0
   23.7726  -22.0854  -15.5864 C   0  0  0  0  0  0  0  0  0  0  0  0
   22.3632  -21.7192  -15.3333 C   0  0  0  0  0  0  0  0  0  0  0  0
   21.5247  -22.8743  -14.8944 C   0  0  2  0  0  0  0  0  0  0  0  0
   21.5005  -23.8618  -15.9559 N   0  0  0  0  0  0  0  0  0  0  0  0
   20.1319  -22.5339  -14.5513 C   0  0  0  0  0  0  0  0  0  0  0  0
   19.3183  -22.3053  -15.4755 O   0  0  0  0  0  0  0  0  0  0  0  0
   24.2484  -22.2920  -16.8561 C   0  0  0  0  0  0  0  0  0  0  0  0
   25.5848  -22.6421  -17.0649 C   0  0  0  0  0  0  0  0  0  0  0  0
   19.6737  -22.4544  -13.2126 N   0  0  0  0  0  0  0  0  0  0  0  0
   18.2814  -22.1403  -12.9740 C   0  0  1  0  0  0  0  0  0  0  0  0
   17.8731  -22.6937  -11.6069 C   0  0  0  0  0  0  0  0  0  0  0  0
   18.1888  -24.4883  -11.6698 S   0  0  0  0  0  0  0  0  0  0  0  0
   18.1289  -20.6541  -12.9327 C   0  0  0  0  0  0  0  0  0  0  0  0
   16.8671  -20.0731  -12.9201 O   0  0  0  0  0  0  0  0  0  0  0  0
   19.1543  -19.9209  -12.9091 O   0  0  0  0  0  0  0  0  0  0  0  0
  2  3  2  0
  2  1  1  0
  4  2  1  0
  5  7  1  0
  5  4  1  0
  5  6  1  6
  7  8  2  0
  9 10  1  0
 10 20  2  0
 10 11  1  0
 11 12  2  0
 12 13  1  0
 13 14  1  0
 15 14  1  6
 16 15  1  0
 16  7  1  0
 17 15  1  0
 18 17  2  0
 19 13  2  0
 20 19  1  0
 21 17  1  0
 22 25  1  0
 22 21  1  0
 22 23  1  1
 24 23  1  0
 25 26  1  0
 27 25  2  0
M  END
$$$$
