NYC.pdb
     RDKit          3D

 27 27  0  0  1  0  0  0  0  0999 V2000
   27.6767  -24.2110  -17.8445 N   0  0  0  0  0  0  0  0  0  0  0  0
   28.7603  -23.3867  -17.4688 C   0  0  0  0  0  0  0  0  0  0  0  0
   29.9194  -23.7080  -17.8051 O   0  0  0  0  0  0  0  0  0  0  0  0
   28.5287  -22.1616  -16.6893 C   0  0  0  0  0  0  0  0  0  0  0  0
   27.1199  -22.0718  -16.1548 C   0  0  2  0  0  0  0  0  0  0  0  0
   26.1622  -21.7296  -17.1631 N   0  0  0  0  0  0  0  0  0  0  0  0
   27.0901  -21.0443  -15.0836 C   0  0  0  0  0  0  0  0  0  0  0  0
   27.6896  -19.9503  -15.2810 O   0  0  0  0  0  0  0  0  0  0  0  0
   20.4257  -22.2414  -13.8267 O   0  0  0  0  0  0  0  0  0  0  0  0
   21.6025  -21.5263  -13.6554 C   0  0  0  0  0  0  0  0  0  0  0  0
   22.2234  -21.0041  -14.7711 C   0  0  0  0  0  0  0  0  0  0  0  0
   23.3913  -20.2999  -14.5554 C   0  0  0  0  0  0  0  0  0  0  0  0
   23.9186  -20.1223  -13.2901 C   0  0  0  0  0  0  0  0  0  0  0  0
   25.1763  -19.3596  -13.1452 C   0  0  0  0  0  0  0  0  0  0  0  0
   26.3618  -20.2256  -12.8723 C   0  0  2  0  0  0  0  0  0  0  0  0
   26.4127  -21.2739  -13.8728 N   0  0  0  0  0  0  0  0  0  0  0  0
   26.3730  -20.8594  -11.5414 C   0  0  0  0  0  0  0  0  0  0  0  0
   25.9128  -22.0175  -11.4173 O   0  0  0  0  0  0  0  0  0  0  0  0
   23.2699  -20.6582  -12.2069 C   0  0  0  0  0  0  0  0  0  0  0  0
   22.0848  -21.3788  -12.3746 C   0  0  0  0  0  0  0  0  0  0  0  0
   26.8854  -20.2092  -10.3911 N   0  0  0  0  0  0  0  0  0  0  0  0
   26.4869  -20.6923   -9.0865 C   0  0  1  0  0  0  0  0  0  0  0  0
   27.1502  -19.8283   -8.0115 C   0  0  0  0  0  0  0  0  0  0  0  0
   26.7370  -20.6001   -6.4122 S   0  0  0  0  0  0  0  0  0  0  0  0
   25.0065  -20.5366   -8.9528 C   0  0  0  0  0  0  0  0  0  0  0  0
   24.2524  -21.4938   -8.2858 O   0  0  0  0  0  0  0  0  0  0  0  0
   24.4367  -19.5276   -9.4497 O   0  0  0  0  0  0  0  0  0  0  0  0
  2  3  2  0
  2  1  1  0
  4  2  1  0
  5  7  1  0
  5  4  1  0
  5  6  1  6
  7  8  2  0
  9 10  1  0
 10 20  2  0
 10 11  1  0
 11 12  2  0
 12 13  1  0
 13 14  1  0
 15 14  1  6
 16 15  1  0
 16  7  1  0
 17 15  1  0
 18 17  2  0
 19 13  2  0
 20 19  1  0
 21 17  1  0
 22 25  1  0
 22 21  1  0
 22 23  1  1
 24 23  1  0
 25 26  1  0
 27 25  2  0
M  END
$$$$
