FDW.pdb
     RDKit          3D

 34 36  0  0  1  0  0  0  0  0999 V2000
   25.6130  -17.3038  -16.1321 N   0  0  0  0  0  0  0  0  0  0  0  0
   26.6432  -17.9528  -15.3265 C   0  0  1  0  0  0  0  0  0  0  0  0
   27.4388  -16.8687  -14.6819 C   0  0  0  0  0  0  0  0  0  0  0  0
   28.2319  -16.0339  -15.5718 C   0  0  0  0  0  0  0  0  0  0  0  0
   28.0503  -14.6747  -15.5869 C   0  0  0  0  0  0  0  0  0  0  0  0
   28.7717  -13.8197  -16.4047 C   0  0  0  0  0  0  0  0  0  0  0  0
   29.7105  -14.4080  -17.2303 C   0  0  0  0  0  0  0  0  0  0  0  0
   29.9070  -15.7720  -17.2290 C   0  0  0  0  0  0  0  0  0  0  0  0
   29.1719  -16.5843  -16.4039 C   0  0  0  0  0  0  0  0  0  0  0  0
   26.0094  -18.9088  -14.4270 C   0  0  0  0  0  0  0  0  0  0  0  0
   24.9620  -18.5965  -13.7660 O   0  0  0  0  0  0  0  0  0  0  0  0
   26.4699  -20.2430  -14.1965 N   0  0  0  0  0  0  0  0  0  0  0  0
   25.7951  -21.1510  -13.2910 C   0  0  1  0  0  0  0  0  0  0  0  0
   25.8178  -22.5178  -13.9749 C   0  0  0  0  0  0  0  0  0  0  0  0
   24.8558  -23.4555  -13.3850 C   0  0  0  0  0  0  0  0  0  0  0  0
   24.8100  -24.6116  -13.9173 O   0  0  0  0  0  0  0  0  0  0  0  0
   26.4018  -21.2206  -11.9686 C   0  0  0  0  0  0  0  0  0  0  0  0
   27.6026  -21.5048  -11.8258 O   0  0  0  0  0  0  0  0  0  0  0  0
   24.0083  -23.2298  -12.3365 O   0  0  0  0  0  0  0  0  0  0  0  0
   25.6082  -20.9599  -10.8286 N   0  0  0  0  0  0  0  0  0  0  0  0
   25.6676  -21.6921   -9.6061 C   0  0  1  0  0  0  0  0  0  0  0  0
   27.0313  -21.5879   -8.9647 C   0  0  0  0  0  0  0  0  0  0  0  0
   27.1831  -20.5037   -7.9917 C   0  0  0  0  0  0  0  0  0  0  0  0
   26.5236  -19.2783   -8.0528 C   0  0  0  0  0  0  0  0  0  0  0  0
   26.9080  -18.5076   -7.0116 N   0  0  0  0  0  0  0  0  0  0  0  0
   27.7971  -19.1812   -6.2659 C   0  0  0  0  0  0  0  0  0  0  0  0
   28.4781  -18.8485   -5.1059 C   0  0  0  0  0  0  0  0  0  0  0  0
   29.3505  -19.7300   -4.5073 C   0  0  0  0  0  0  0  0  0  0  0  0
   29.5220  -20.9669   -5.1118 C   0  0  0  0  0  0  0  0  0  0  0  0
   28.8505  -21.3064   -6.2641 C   0  0  0  0  0  0  0  0  0  0  0  0
   27.9704  -20.4180   -6.8691 C   0  0  0  0  0  0  0  0  0  0  0  0
   24.6770  -21.1353   -8.6589 C   0  0  0  0  0  0  0  0  0  0  0  0
   23.8653  -20.0392   -9.0075 O   0  0  0  0  0  0  0  0  0  0  0  0
   24.5460  -21.6423   -7.5131 O   0  0  0  0  0  0  0  0  0  0  0  0
  2  1  1  1
  3  2  1  0
  4  3  1  0
  5  4  2  0
  6  5  1  0
  7  8  1  0
  7  6  2  0
  8  9  2  0
  9  4  1  0
 10 12  1  0
 10  2  1  0
 11 10  2  0
 13 12  1  0
 13 14  1  6
 14 15  1  0
 15 19  1  0
 16 15  2  0
 17 13  1  0
 18 17  2  0
 20 17  1  0
 21 32  1  0
 21 20  1  0
 21 22  1  1
 23 31  1  0
 23 22  1  0
 24 23  2  0
 25 24  1  0
 25 26  1  0
 26 27  1  0
 26 31  2  0
 27 28  2  0
 28 29  1  0
 30 29  2  0
 31 30  1  0
 32 33  1  0
 34 32  2  0
M  END
$$$$
