FDW.pdb
     RDKit          3D

 34 36  0  0  1  0  0  0  0  0999 V2000
   30.2613  -20.3973  -13.6943 N   0  0  0  0  0  0  0  0  0  0  0  0
   29.3831  -20.9012  -12.6424 C   0  0  1  0  0  0  0  0  0  0  0  0
   30.0519  -20.6118  -11.3414 C   0  0  0  0  0  0  0  0  0  0  0  0
   31.2235  -21.4151  -11.0254 C   0  0  0  0  0  0  0  0  0  0  0  0
   32.4702  -20.8439  -11.0177 C   0  0  0  0  0  0  0  0  0  0  0  0
   33.6275  -21.5466  -10.7227 C   0  0  0  0  0  0  0  0  0  0  0  0
   33.4720  -22.8874  -10.4274 C   0  0  0  0  0  0  0  0  0  0  0  0
   32.2273  -23.4790  -10.4303 C   0  0  0  0  0  0  0  0  0  0  0  0
   31.1056  -22.7480  -10.7278 C   0  0  0  0  0  0  0  0  0  0  0  0
   28.0527  -20.3334  -12.8232 C   0  0  0  0  0  0  0  0  0  0  0  0
   27.8837  -19.0716  -12.9263 O   0  0  0  0  0  0  0  0  0  0  0  0
   26.8439  -21.0936  -12.9024 N   0  0  0  0  0  0  0  0  0  0  0  0
   25.5869  -20.6096  -12.3682 C   0  0  1  0  0  0  0  0  0  0  0  0
   24.5153  -21.0294  -13.3741 C   0  0  0  0  0  0  0  0  0  0  0  0
   23.1712  -20.5985  -12.9736 C   0  0  0  0  0  0  0  0  0  0  0  0
   23.0460  -19.3635  -12.6894 O   0  0  0  0  0  0  0  0  0  0  0  0
   25.2795  -21.1174  -11.0380 C   0  0  0  0  0  0  0  0  0  0  0  0
   25.2107  -22.3375  -10.8152 O   0  0  0  0  0  0  0  0  0  0  0  0
   22.0460  -21.3680  -12.8708 O   0  0  0  0  0  0  0  0  0  0  0  0
   25.0555  -20.2038   -9.9833 N   0  0  0  0  0  0  0  0  0  0  0  0
   24.7302  -20.5661   -8.6427 C   0  0  1  0  0  0  0  0  0  0  0  0
   25.3699  -19.6289   -7.6457 C   0  0  0  0  0  0  0  0  0  0  0  0
   26.7933  -19.8631   -7.3919 C   0  0  0  0  0  0  0  0  0  0  0  0
   27.7225  -20.2501   -8.3548 C   0  0  0  0  0  0  0  0  0  0  0  0
   28.9355  -20.3952   -7.7771 N   0  0  0  0  0  0  0  0  0  0  0  0
   28.8392  -20.1173   -6.4680 C   0  0  0  0  0  0  0  0  0  0  0  0
   29.7779  -20.1089   -5.4488 C   0  0  0  0  0  0  0  0  0  0  0  0
   29.4340  -19.7726   -4.1584 C   0  0  0  0  0  0  0  0  0  0  0  0
   28.1084  -19.4419   -3.9174 C   0  0  0  0  0  0  0  0  0  0  0  0
   27.1688  -19.4478   -4.9229 C   0  0  0  0  0  0  0  0  0  0  0  0
   27.5143  -19.7872   -6.2250 C   0  0  0  0  0  0  0  0  0  0  0  0
   23.2639  -20.4890   -8.4620 C   0  0  0  0  0  0  0  0  0  0  0  0
   22.6340  -21.0488   -7.3343 O   0  0  0  0  0  0  0  0  0  0  0  0
   22.5515  -19.9133   -9.3269 O   0  0  0  0  0  0  0  0  0  0  0  0
  2  1  1  6
  3  2  1  0
  4  3  1  0
  5  4  2  0
  6  5  1  0
  7  8  1  0
  7  6  2  0
  8  9  2  0
  9  4  1  0
 10 12  1  0
 10  2  1  0
 11 10  2  0
 13 12  1  0
 13 14  1  6
 14 15  1  0
 15 19  1  0
 16 15  2  0
 17 13  1  0
 18 17  2  0
 20 17  1  0
 21 32  1  0
 21 20  1  0
 21 22  1  1
 23 31  1  0
 23 22  1  0
 24 23  2  0
 25 24  1  0
 25 26  1  0
 26 27  1  0
 26 31  2  0
 27 28  2  0
 28 29  1  0
 30 29  2  0
 31 30  1  0
 32 33  1  0
 34 32  2  0
M  END
$$$$
