FDW.pdb
     RDKit          3D

 34 36  0  0  1  0  0  0  0  0999 V2000
   26.0157  -17.1317  -16.4168 N   0  0  0  0  0  0  0  0  0  0  0  0
   26.9111  -17.8666  -15.5281 C   0  0  1  0  0  0  0  0  0  0  0  0
   27.9989  -16.9267  -15.1320 C   0  0  0  0  0  0  0  0  0  0  0  0
   29.0514  -16.7078  -16.1128 C   0  0  0  0  0  0  0  0  0  0  0  0
   29.1232  -15.5199  -16.7943 C   0  0  0  0  0  0  0  0  0  0  0  0
   30.0990  -15.2416  -17.7380 C   0  0  0  0  0  0  0  0  0  0  0  0
   31.0261  -16.2388  -17.9733 C   0  0  0  0  0  0  0  0  0  0  0  0
   30.9700  -17.4389  -17.2983 C   0  0  0  0  0  0  0  0  0  0  0  0
   29.9875  -17.6752  -16.3711 C   0  0  0  0  0  0  0  0  0  0  0  0
   26.1307  -18.4440  -14.4407 C   0  0  0  0  0  0  0  0  0  0  0  0
   25.0582  -17.8846  -14.0306 O   0  0  0  0  0  0  0  0  0  0  0  0
   26.4652  -19.6478  -13.7447 N   0  0  0  0  0  0  0  0  0  0  0  0
   25.5580  -20.2799  -12.8081 C   0  0  1  0  0  0  0  0  0  0  0  0
   24.9357  -21.4575  -13.5581 C   0  0  0  0  0  0  0  0  0  0  0  0
   23.9283  -22.1623  -12.7576 C   0  0  0  0  0  0  0  0  0  0  0  0
   23.6003  -21.6035  -11.6612 O   0  0  0  0  0  0  0  0  0  0  0  0
   26.1996  -20.7262  -11.5790 C   0  0  0  0  0  0  0  0  0  0  0  0
   27.0388  -21.6420  -11.5872 O   0  0  0  0  0  0  0  0  0  0  0  0
   23.3069  -23.3435  -13.0531 O   0  0  0  0  0  0  0  0  0  0  0  0
   25.8597  -20.1049  -10.3560 N   0  0  0  0  0  0  0  0  0  0  0  0
   26.3090  -20.5293   -9.0705 C   0  0  1  0  0  0  0  0  0  0  0  0
   26.0243  -19.4882   -8.0137 C   0  0  0  0  0  0  0  0  0  0  0  0
   27.2046  -18.9455   -7.3371 C   0  0  0  0  0  0  0  0  0  0  0  0
   27.8847  -17.7920   -7.7211 C   0  0  0  0  0  0  0  0  0  0  0  0
   28.9339  -17.5915   -6.8935 N   0  0  0  0  0  0  0  0  0  0  0  0
   28.9697  -18.5711   -5.9774 C   0  0  0  0  0  0  0  0  0  0  0  0
   29.8260  -18.8206   -4.9170 C   0  0  0  0  0  0  0  0  0  0  0  0
   29.6497  -19.9091   -4.0921 C   0  0  0  0  0  0  0  0  0  0  0  0
   28.5792  -20.7485   -4.3642 C   0  0  0  0  0  0  0  0  0  0  0  0
   27.7235  -20.5095   -5.4152 C   0  0  0  0  0  0  0  0  0  0  0  0
   27.9005  -19.4120   -6.2483 C   0  0  0  0  0  0  0  0  0  0  0  0
   25.5940  -21.7678   -8.6916 C   0  0  0  0  0  0  0  0  0  0  0  0
   26.2470  -22.8112   -8.0086 O   0  0  0  0  0  0  0  0  0  0  0  0
   24.3753  -21.9054   -8.9796 O   0  0  0  0  0  0  0  0  0  0  0  0
  2  1  1  6
  3  2  1  0
  4  3  1  0
  5  4  2  0
  6  5  1  0
  7  8  1  0
  7  6  2  0
  8  9  2  0
  9  4  1  0
 10 12  1  0
 10  2  1  0
 11 10  2  0
 13 12  1  0
 13 14  1  6
 14 15  1  0
 15 19  1  0
 16 15  2  0
 17 13  1  0
 18 17  2  0
 20 17  1  0
 21 32  1  0
 21 20  1  0
 21 22  1  1
 23 31  1  0
 23 22  1  0
 24 23  2  0
 25 24  1  0
 25 26  1  0
 26 27  1  0
 26 31  2  0
 27 28  2  0
 28 29  1  0
 30 29  2  0
 31 30  1  0
 32 33  1  0
 34 32  2  0
M  END
$$$$
