IVR.pdb
     RDKit          3D

 27 26  0  0  1  0  0  0  0  0999 V2000
   28.5231  -17.7668  -17.3535 C   0  0  0  0  0  0  0  0  0  0  0  0
   28.7856  -18.8294  -16.3292 C   0  0  0  0  0  0  0  0  0  0  0  0
   27.5259  -19.3144  -15.6369 C   0  0  2  0  0  0  0  0  0  0  0  0
   26.9012  -18.2125  -14.7997 C   0  0  0  0  0  0  0  0  0  0  0  0
   27.7643  -20.4792  -14.7438 C   0  0  2  0  0  0  0  0  0  0  0  0
   28.4252  -21.5331  -15.4434 N   0  0  0  0  0  0  0  0  0  0  0  0
   26.5783  -20.9288  -13.9877 C   0  0  0  0  0  0  0  0  0  0  0  0
   25.7154  -21.6030  -14.6070 O   0  0  0  0  0  0  0  0  0  0  0  0
   26.6932  -21.9099  -10.1128 C   0  0  0  0  0  0  0  0  0  0  0  0
   25.4455  -21.1008  -10.4096 C   0  0  1  0  0  0  0  0  0  0  0  0
   25.5904  -19.7270   -9.8370 C   0  0  0  0  0  0  0  0  0  0  0  0
   25.1714  -21.0610  -11.9030 C   0  0  2  0  0  0  0  0  0  0  0  0
   26.3537  -20.6515  -12.6253 N   0  0  0  0  0  0  0  0  0  0  0  0
   24.0465  -20.0986  -12.1045 C   0  0  0  0  0  0  0  0  0  0  0  0
   24.3112  -18.9658  -12.5857 O   0  0  0  0  0  0  0  0  0  0  0  0
   22.2915  -22.8346  -18.7316 N   0  0  0  0  0  0  0  0  0  0  0  0
   21.4358  -23.0861  -17.6277 C   0  0  0  0  0  0  0  0  0  0  0  0
   20.6469  -24.0993  -17.6699 N   0  0  0  0  0  0  0  0  0  0  0  0
   21.4324  -22.2469  -16.4882 N   0  0  0  0  0  0  0  0  0  0  0  0
   22.3209  -21.1115  -16.3861 C   0  0  0  0  0  0  0  0  0  0  0  0
   22.0150  -20.2663  -15.1811 C   0  0  0  0  0  0  0  0  0  0  0  0
   21.9289  -21.0325  -13.9095 C   0  0  0  0  0  0  0  0  0  0  0  0
   21.5837  -20.2152  -12.6894 C   0  0  2  0  0  0  0  0  0  0  0  0
   22.7134  -20.3807  -11.7909 N   0  0  0  0  0  0  0  0  0  0  0  0
   20.3144  -20.6677  -12.0373 C   0  0  0  0  0  0  0  0  0  0  0  0
   20.3646  -21.7197  -11.3351 O   0  0  0  0  0  0  0  0  0  0  0  0
   19.1307  -19.9623  -12.1958 O   0  0  0  0  0  0  0  0  0  0  0  0
  2  1  1  0
  2  3  1  0
  3  4  1  1
  3  5  1  0
  5  7  1  0
  5  6  1  6
  7  8  2  0
  7 13  1  0
 10  9  1  6
 10 12  1  0
 10 11  1  0
 12 14  1  0
 12 13  1  6
 14 24  1  0
 15 14  2  0
 17 19  1  0
 17 16  1  0
 18 17  2  0
 20 19  1  0
 21 20  1  0
 22 21  1  0
 23 25  1  0
 23 22  1  6
 24 23  1  0
 25 27  1  0
 26 25  2  0
M  END
$$$$
