IVR.pdb
     RDKit          3D

 27 26  0  0  1  0  0  0  0  0999 V2000
   20.1219  -15.5275  -19.8882 C   0  0  0  0  0  0  0  0  0  0  0  0
   19.4380  -14.2073  -20.0797 C   0  0  0  0  0  0  0  0  0  0  0  0
   20.3125  -13.0238  -19.7110 C   0  0  2  0  0  0  0  0  0  0  0  0
   20.7882  -13.1204  -18.2723 C   0  0  0  0  0  0  0  0  0  0  0  0
   19.6209  -11.7171  -19.8705 C   0  0  2  0  0  0  0  0  0  0  0  0
   19.1040  -11.5702  -21.1926 N   0  0  0  0  0  0  0  0  0  0  0  0
   20.3974  -10.5487  -19.4097 C   0  0  0  0  0  0  0  0  0  0  0  0
   21.0307  -10.6614  -18.3284 O   0  0  0  0  0  0  0  0  0  0  0  0
   21.4220   -8.0362  -22.1351 C   0  0  0  0  0  0  0  0  0  0  0  0
   21.6384   -7.3095  -20.8219 C   0  0  1  0  0  0  0  0  0  0  0  0
   20.8771   -6.0224  -20.8292 C   0  0  0  0  0  0  0  0  0  0  0  0
   21.2441   -8.1888  -19.6478 C   0  0  2  0  0  0  0  0  0  0  0  0
   20.4727   -9.3236  -20.1001 N   0  0  0  0  0  0  0  0  0  0  0  0
   20.4554   -7.3275  -18.7160 C   0  0  0  0  0  0  0  0  0  0  0  0
   19.3528   -6.8709  -19.1170 O   0  0  0  0  0  0  0  0  0  0  0  0
   16.8774  -10.5544  -12.6850 N   0  0  0  0  0  0  0  0  0  0  0  0
   16.3955  -10.4428  -14.0152 C   0  0  0  0  0  0  0  0  0  0  0  0
   15.4083  -11.1781  -14.3832 N   0  0  0  0  0  0  0  0  0  0  0  0
   16.9784   -9.5443  -14.9402 N   0  0  0  0  0  0  0  0  0  0  0  0
   18.0753   -8.6817  -14.5636 C   0  0  0  0  0  0  0  0  0  0  0  0
   18.5224   -7.8119  -15.7053 C   0  0  0  0  0  0  0  0  0  0  0  0
   19.6898   -6.9473  -15.3875 C   0  0  0  0  0  0  0  0  0  0  0  0
   20.1790   -6.0853  -16.5247 C   0  0  2  0  0  0  0  0  0  0  0  0
   20.8682   -6.9974  -17.4216 N   0  0  0  0  0  0  0  0  0  0  0  0
   21.0975   -4.9966  -16.0641 C   0  0  0  0  0  0  0  0  0  0  0  0
   22.3307   -5.1309  -16.3163 O   0  0  0  0  0  0  0  0  0  0  0  0
   20.6165   -3.8849  -15.3883 O   0  0  0  0  0  0  0  0  0  0  0  0
  2  1  1  0
  2  3  1  0
  3  4  1  1
  3  5  1  0
  5  7  1  0
  5  6  1  6
  7  8  2  0
  7 13  1  0
 10  9  1  6
 10 12  1  0
 10 11  1  0
 12 14  1  0
 12 13  1  6
 14 24  1  0
 15 14  2  0
 17 19  1  0
 17 16  1  0
 18 17  2  0
 20 19  1  0
 21 20  1  0
 22 21  1  0
 23 25  1  0
 23 22  1  1
 24 23  1  0
 25 27  1  0
 26 25  2  0
M  END
$$$$
