IVR.pdb
     RDKit          3D

 27 26  0  0  1  0  0  0  0  0999 V2000
   23.9794  -21.2865  -21.7487 C   0  0  0  0  0  0  0  0  0  0  0  0
   25.0932  -20.5606  -21.0559 C   0  0  0  0  0  0  0  0  0  0  0  0
   25.3723  -21.0887  -19.6615 C   0  0  2  0  0  0  0  0  0  0  0  0
   24.1280  -21.0303  -18.7935 C   0  0  0  0  0  0  0  0  0  0  0  0
   26.4474  -20.3384  -18.9595 C   0  0  2  0  0  0  0  0  0  0  0  0
   27.6488  -20.3259  -19.7297 N   0  0  0  0  0  0  0  0  0  0  0  0
   26.6557  -20.7328  -17.5518 C   0  0  0  0  0  0  0  0  0  0  0  0
   26.2975  -21.8904  -17.2134 O   0  0  0  0  0  0  0  0  0  0  0  0
   27.6764  -17.8377  -14.6070 C   0  0  0  0  0  0  0  0  0  0  0  0
   28.1926  -19.2524  -14.4294 C   0  0  1  0  0  0  0  0  0  0  0  0
   28.2834  -19.5742  -12.9719 C   0  0  0  0  0  0  0  0  0  0  0  0
   27.3126  -20.2444  -15.1701 C   0  0  2  0  0  0  0  0  0  0  0  0
   27.2261  -19.8993  -16.5704 N   0  0  0  0  0  0  0  0  0  0  0  0
   25.9721  -20.1995  -14.5118 C   0  0  0  0  0  0  0  0  0  0  0  0
   25.0008  -19.7429  -15.1698 O   0  0  0  0  0  0  0  0  0  0  0  0
   20.8663  -25.4087  -15.8607 N   0  0  0  0  0  0  0  0  0  0  0  0
   20.6876  -24.0035  -15.9486 C   0  0  0  0  0  0  0  0  0  0  0  0
   19.9815  -23.5248  -16.9093 N   0  0  0  0  0  0  0  0  0  0  0  0
   21.2700  -23.1234  -15.0057 N   0  0  0  0  0  0  0  0  0  0  0  0
   21.9520  -23.6204  -13.8324 C   0  0  0  0  0  0  0  0  0  0  0  0
   22.5109  -22.5049  -12.9938 C   0  0  0  0  0  0  0  0  0  0  0  0
   23.8431  -22.0190  -13.4417 C   0  0  0  0  0  0  0  0  0  0  0  0
   24.4191  -20.8851  -12.6304 C   0  0  2  0  0  0  0  0  0  0  0  0
   25.7299  -20.6359  -13.2057 N   0  0  0  0  0  0  0  0  0  0  0  0
   24.5315  -21.2207  -11.1759 C   0  0  0  0  0  0  0  0  0  0  0  0
   25.6126  -21.7491  -10.7830 O   0  0  0  0  0  0  0  0  0  0  0  0
   23.4927  -20.9627  -10.2938 O   0  0  0  0  0  0  0  0  0  0  0  0
  2  1  1  0
  2  3  1  0
  3  4  1  1
  3  5  1  0
  5  7  1  0
  5  6  1  6
  7  8  2  0
  7 13  1  0
 10  9  1  1
 10 12  1  0
 10 11  1  0
 12 14  1  0
 12 13  1  6
 14 24  1  0
 15 14  2  0
 17 19  1  0
 17 16  1  0
 18 17  2  0
 20 19  1  0
 21 20  1  0
 22 21  1  0
 23 25  1  0
 23 22  1  6
 24 23  1  0
 25 27  1  0
 26 25  2  0
M  END
$$$$
