IVR.pdb
     RDKit          3D

 27 26  0  0  1  0  0  0  0  0999 V2000
   17.3246  -14.5452  -20.2071 C   0  0  0  0  0  0  0  0  0  0  0  0
   18.7040  -14.8307  -19.6942 C   0  0  0  0  0  0  0  0  0  0  0  0
   19.0868  -13.9723  -18.5034 C   0  0  2  0  0  0  0  0  0  0  0  0
   19.1029  -12.4994  -18.8715 C   0  0  0  0  0  0  0  0  0  0  0  0
   20.4229  -14.3125  -17.9463 C   0  0  2  0  0  0  0  0  0  0  0  0
   20.5182  -15.7079  -17.6622 N   0  0  0  0  0  0  0  0  0  0  0  0
   20.8610  -13.4537  -16.8279 C   0  0  0  0  0  0  0  0  0  0  0  0
   20.2123  -13.5242  -15.7522 O   0  0  0  0  0  0  0  0  0  0  0  0
   24.2941  -12.8984  -15.0887 C   0  0  0  0  0  0  0  0  0  0  0  0
   23.7871  -11.5754  -15.6290 C   0  0  1  0  0  0  0  0  0  0  0  0
   24.5184  -11.2342  -16.8881 C   0  0  0  0  0  0  0  0  0  0  0  0
   22.2847  -11.6224  -15.8470 C   0  0  2  0  0  0  0  0  0  0  0  0
   21.9524  -12.5658  -16.8896 N   0  0  0  0  0  0  0  0  0  0  0  0
   21.8629  -10.2356  -16.2093 C   0  0  0  0  0  0  0  0  0  0  0  0
   21.6467   -9.9769  -17.4222 O   0  0  0  0  0  0  0  0  0  0  0  0
   14.4649   -7.4923  -16.8101 N   0  0  0  0  0  0  0  0  0  0  0  0
   15.1252   -6.2431  -16.6768 C   0  0  0  0  0  0  0  0  0  0  0  0
   14.4447   -5.1618  -16.8123 N   0  0  0  0  0  0  0  0  0  0  0  0
   16.5111   -6.1647  -16.4011 N   0  0  0  0  0  0  0  0  0  0  0  0
   17.3333   -7.3513  -16.3298 C   0  0  0  0  0  0  0  0  0  0  0  0
   18.7687   -7.0217  -16.0285 C   0  0  0  0  0  0  0  0  0  0  0  0
   19.6448   -8.2134  -15.8752 C   0  0  0  0  0  0  0  0  0  0  0  0
   21.0885   -7.9125  -15.5574 C   0  0  2  0  0  0  0  0  0  0  0  0
   21.6923   -9.2048  -15.2802 N   0  0  0  0  0  0  0  0  0  0  0  0
   21.2374   -6.9933  -14.3852 C   0  0  0  0  0  0  0  0  0  0  0  0
   21.3333   -7.5229  -13.2395 O   0  0  0  0  0  0  0  0  0  0  0  0
   21.2694   -5.6163  -14.5480 O   0  0  0  0  0  0  0  0  0  0  0  0
  2  1  1  0
  2  3  1  0
  3  4  1  6
  3  5  1  0
  5  7  1  0
  5  6  1  1
  7  8  2  0
  7 13  1  0
 10  9  1  6
 10 12  1  0
 10 11  1  0
 12 14  1  0
 12 13  1  6
 14 24  1  0
 15 14  2  0
 17 19  1  0
 17 16  1  0
 18 17  2  0
 20 19  1  0
 21 20  1  0
 22 21  1  0
 23 25  1  0
 23 22  1  1
 24 23  1  0
 25 27  1  0
 26 25  2  0
M  END
$$$$
