IVR.pdb
     RDKit          3D

 27 26  0  0  1  0  0  0  0  0999 V2000
   17.9648  -28.1110   -6.8851 C   0  0  0  0  0  0  0  0  0  0  0  0
   18.4443  -26.7538   -6.4662 C   0  0  0  0  0  0  0  0  0  0  0  0
   18.2256  -25.6909   -7.5263 C   0  0  2  0  0  0  0  0  0  0  0  0
   19.0481  -25.9788   -8.7696 C   0  0  0  0  0  0  0  0  0  0  0  0
   18.5766  -24.3231   -7.0601 C   0  0  2  0  0  0  0  0  0  0  0  0
   17.8528  -23.9845   -5.8776 N   0  0  0  0  0  0  0  0  0  0  0  0
   18.5159  -23.2815   -8.1049 C   0  0  0  0  0  0  0  0  0  0  0  0
   17.4019  -23.0690   -8.6498 O   0  0  0  0  0  0  0  0  0  0  0  0
   20.3951  -19.7558   -8.0527 C   0  0  0  0  0  0  0  0  0  0  0  0
   20.6108  -20.4594   -9.3785 C   0  0  1  0  0  0  0  0  0  0  0  0
   21.9985  -21.0138   -9.4326 C   0  0  0  0  0  0  0  0  0  0  0  0
   19.5652  -21.5403   -9.5915 C   0  0  2  0  0  0  0  0  0  0  0  0
   19.6200  -22.5161   -8.5276 N   0  0  0  0  0  0  0  0  0  0  0  0
   19.8578  -22.1609  -10.9187 C   0  0  0  0  0  0  0  0  0  0  0  0
   20.6031  -23.1751  -10.9502 O   0  0  0  0  0  0  0  0  0  0  0  0
   20.8837  -26.9524  -16.0273 N   0  0  0  0  0  0  0  0  0  0  0  0
   20.8120  -27.3288  -14.6608 C   0  0  0  0  0  0  0  0  0  0  0  0
   21.6888  -28.1430  -14.1928 N   0  0  0  0  0  0  0  0  0  0  0  0
   19.7986  -26.8298  -13.8083 N   0  0  0  0  0  0  0  0  0  0  0  0
   18.7442  -25.9780  -14.3099 C   0  0  0  0  0  0  0  0  0  0  0  0
   19.2093  -24.5608  -14.4973 C   0  0  0  0  0  0  0  0  0  0  0  0
   19.1439  -23.7333  -13.2636 C   0  0  0  0  0  0  0  0  0  0  0  0
   19.5649  -22.2945  -13.4322 C   0  0  2  0  0  0  0  0  0  0  0  0
   19.3521  -21.6830  -12.1315 N   0  0  0  0  0  0  0  0  0  0  0  0
   18.7750  -21.5866  -14.4886 C   0  0  0  0  0  0  0  0  0  0  0  0
   17.7937  -20.8837  -14.1077 O   0  0  0  0  0  0  0  0  0  0  0  0
   19.1055  -21.6962  -15.8312 O   0  0  0  0  0  0  0  0  0  0  0  0
  2  1  1  0
  2  3  1  0
  3  4  1  6
  3  5  1  0
  5  7  1  0
  5  6  1  1
  7  8  2  0
  7 13  1  0
 10  9  1  1
 10 12  1  0
 10 11  1  0
 12 14  1  0
 12 13  1  1
 14 24  1  0
 15 14  2  0
 17 19  1  0
 17 16  1  0
 18 17  2  0
 20 19  1  0
 21 20  1  0
 22 21  1  0
 23 25  1  0
 23 22  1  1
 24 23  1  0
 25 27  1  0
 26 25  2  0
M  END
$$$$
