IVR.pdb
     RDKit          3D

 27 26  0  0  1  0  0  0  0  0999 V2000
   24.3754  -23.6786  -21.6357 C   0  0  0  0  0  0  0  0  0  0  0  0
   25.3897  -22.9136  -20.8399 C   0  0  0  0  0  0  0  0  0  0  0  0
   25.1514  -22.9861  -19.3435 C   0  0  2  0  0  0  0  0  0  0  0  0
   23.7276  -22.5902  -18.9949 C   0  0  0  0  0  0  0  0  0  0  0  0
   26.0665  -22.1096  -18.5653 C   0  0  2  0  0  0  0  0  0  0  0  0
   27.4311  -22.4426  -18.8180 N   0  0  0  0  0  0  0  0  0  0  0  0
   25.7438  -22.0031  -17.1284 C   0  0  0  0  0  0  0  0  0  0  0  0
   25.6822  -23.0708  -16.4658 O   0  0  0  0  0  0  0  0  0  0  0  0
   27.1825  -19.2625  -14.6200 C   0  0  0  0  0  0  0  0  0  0  0  0
   25.6771  -19.3775  -14.4791 C   0  0  1  0  0  0  0  0  0  0  0  0
   25.0206  -18.2058  -15.1367 C   0  0  0  0  0  0  0  0  0  0  0  0
   25.1810  -20.6939  -15.0518 C   0  0  2  0  0  0  0  0  0  0  0  0
   25.5016  -20.7888  -16.4573 N   0  0  0  0  0  0  0  0  0  0  0  0
   23.7049  -20.7288  -14.8238 C   0  0  0  0  0  0  0  0  0  0  0  0
   22.9692  -20.0434  -15.5813 O   0  0  0  0  0  0  0  0  0  0  0  0
   18.8867  -24.3356   -9.4023 N   0  0  0  0  0  0  0  0  0  0  0  0
   17.8173  -24.0279  -10.2832 C   0  0  0  0  0  0  0  0  0  0  0  0
   16.6256  -23.9453   -9.8104 N   0  0  0  0  0  0  0  0  0  0  0  0
   18.0356  -23.8132  -11.6649 N   0  0  0  0  0  0  0  0  0  0  0  0
   19.3682  -23.8030  -12.2244 C   0  0  0  0  0  0  0  0  0  0  0  0
   20.1333  -22.5710  -11.8286 C   0  0  0  0  0  0  0  0  0  0  0  0
   21.4986  -22.4918  -12.4124 C   0  0  0  0  0  0  0  0  0  0  0  0
   21.6678  -21.4759  -13.5148 C   0  0  2  0  0  0  0  0  0  0  0  0
   23.0889  -21.4794  -13.8177 N   0  0  0  0  0  0  0  0  0  0  0  0
   21.2138  -20.1086  -13.1082 C   0  0  0  0  0  0  0  0  0  0  0  0
   22.0323  -19.3931  -12.4597 O   0  0  0  0  0  0  0  0  0  0  0  0
   19.9470  -19.6440  -13.4295 O   0  0  0  0  0  0  0  0  0  0  0  0
  2  1  1  0
  2  3  1  0
  3  4  1  6
  3  5  1  0
  5  7  1  0
  5  6  1  1
  7  8  2  0
  7 13  1  0
 10  9  1  6
 10 12  1  0
 10 11  1  0
 12 14  1  0
 12 13  1  6
 14 24  1  0
 15 14  2  0
 17 19  1  0
 17 16  1  0
 18 17  2  0
 20 19  1  0
 21 20  1  0
 22 21  1  0
 23 25  1  0
 23 22  1  1
 24 23  1  0
 25 27  1  0
 26 25  2  0
M  END
$$$$
