IVR.pdb
     RDKit          3D

 27 26  0  0  1  0  0  0  0  0999 V2000
   29.4815  -20.7309   -9.4274 C   0  0  0  0  0  0  0  0  0  0  0  0
   28.7143  -21.3206  -10.5724 C   0  0  0  0  0  0  0  0  0  0  0  0
   27.3656  -20.6607  -10.7890 C   0  0  2  0  0  0  0  0  0  0  0  0
   26.4907  -20.7825   -9.5541 C   0  0  0  0  0  0  0  0  0  0  0  0
   26.6124  -21.2381  -11.9339 C   0  0  2  0  0  0  0  0  0  0  0  0
   27.4614  -21.4151  -13.0673 N   0  0  0  0  0  0  0  0  0  0  0  0
   25.3464  -20.5469  -12.2499 C   0  0  0  0  0  0  0  0  0  0  0  0
   25.1855  -19.3882  -11.7867 O   0  0  0  0  0  0  0  0  0  0  0  0
   24.4169  -20.0584  -15.3752 C   0  0  0  0  0  0  0  0  0  0  0  0
   23.1033  -19.7692  -14.6751 C   0  0  1  0  0  0  0  0  0  0  0  0
   21.9661  -20.2148  -15.5379 C   0  0  0  0  0  0  0  0  0  0  0  0
   23.0640  -20.4303  -13.3082 C   0  0  2  0  0  0  0  0  0  0  0  0
   24.3141  -21.0999  -13.0321 N   0  0  0  0  0  0  0  0  0  0  0  0
   21.9216  -21.3928  -13.3327 C   0  0  0  0  0  0  0  0  0  0  0  0
   22.0935  -22.5064  -13.8942 O   0  0  0  0  0  0  0  0  0  0  0  0
   18.9430  -25.9621   -8.2006 N   0  0  0  0  0  0  0  0  0  0  0  0
   18.7872  -24.5793   -7.9219 C   0  0  0  0  0  0  0  0  0  0  0  0
   18.8907  -24.1737   -6.7072 N   0  0  0  0  0  0  0  0  0  0  0  0
   18.5196  -23.6433   -8.9491 N   0  0  0  0  0  0  0  0  0  0  0  0
   17.9735  -24.0570  -10.2217 C   0  0  0  0  0  0  0  0  0  0  0  0
   17.8056  -22.8974  -11.1636 C   0  0  0  0  0  0  0  0  0  0  0  0
   19.0446  -22.1022  -11.3728 C   0  0  0  0  0  0  0  0  0  0  0  0
   19.5271  -22.0286  -12.8002 C   0  0  2  0  0  0  0  0  0  0  0  0
   20.6696  -21.1315  -12.7677 N   0  0  0  0  0  0  0  0  0  0  0  0
   18.4754  -21.5171  -13.7347 C   0  0  0  0  0  0  0  0  0  0  0  0
   18.2067  -20.2810  -13.6870 O   0  0  0  0  0  0  0  0  0  0  0  0
   17.8216  -22.3636  -14.6178 O   0  0  0  0  0  0  0  0  0  0  0  0
  2  1  1  0
  2  3  1  0
  3  4  1  1
  3  5  1  0
  5  7  1  0
  5  6  1  6
  7  8  2  0
  7 13  1  0
 10  9  1  6
 10 12  1  0
 10 11  1  0
 12 14  1  0
 12 13  1  6
 14 24  1  0
 15 14  2  0
 17 19  1  0
 17 16  1  0
 18 17  2  0
 20 19  1  0
 21 20  1  0
 22 21  1  0
 23 25  1  0
 23 22  1  1
 24 23  1  0
 25 27  1  0
 26 25  2  0
M  END
$$$$
