IVR.pdb
     RDKit          3D

 27 26  0  0  1  0  0  0  0  0999 V2000
   28.3694  -19.0055   -6.6543 C   0  0  0  0  0  0  0  0  0  0  0  0
   28.0256  -20.1189   -7.5974 C   0  0  0  0  0  0  0  0  0  0  0  0
   26.7852  -19.8381   -8.4243 C   0  0  2  0  0  0  0  0  0  0  0  0
   25.5559  -19.7089   -7.5426 C   0  0  0  0  0  0  0  0  0  0  0  0
   26.5072  -20.8943   -9.4336 C   0  0  2  0  0  0  0  0  0  0  0  0
   27.7201  -21.4616   -9.9273 N   0  0  0  0  0  0  0  0  0  0  0  0
   25.5680  -20.4948  -10.5007 C   0  0  0  0  0  0  0  0  0  0  0  0
   24.9387  -19.4162  -10.3474 O   0  0  0  0  0  0  0  0  0  0  0  0
   25.7159  -22.2199  -14.3344 C   0  0  0  0  0  0  0  0  0  0  0  0
   25.0883  -20.8657  -14.0665 C   0  0  1  0  0  0  0  0  0  0  0  0
   24.1345  -20.5281  -15.1677 C   0  0  0  0  0  0  0  0  0  0  0  0
   24.4082  -20.8459  -12.7085 C   0  0  2  0  0  0  0  0  0  0  0  0
   25.3335  -21.2412  -11.6717 N   0  0  0  0  0  0  0  0  0  0  0  0
   23.2513  -21.7871  -12.7972 C   0  0  0  0  0  0  0  0  0  0  0  0
   23.4914  -23.0214  -12.8583 O   0  0  0  0  0  0  0  0  0  0  0  0
   18.1125  -25.3891   -9.0862 N   0  0  0  0  0  0  0  0  0  0  0  0
   18.8719  -24.3186   -8.5462 C   0  0  0  0  0  0  0  0  0  0  0  0
   19.5842  -24.5277   -7.4976 N   0  0  0  0  0  0  0  0  0  0  0  0
   18.8589  -23.0318   -9.1350 N   0  0  0  0  0  0  0  0  0  0  0  0
   18.0102  -22.7289  -10.2650 C   0  0  0  0  0  0  0  0  0  0  0  0
   18.7381  -22.8852  -11.5711 C   0  0  0  0  0  0  0  0  0  0  0  0
   19.9752  -22.0670  -11.6771 C   0  0  0  0  0  0  0  0  0  0  0  0
   20.7664  -22.2607  -12.9469 C   0  0  2  0  0  0  0  0  0  0  0  0
   21.9140  -21.3792  -12.8158 N   0  0  0  0  0  0  0  0  0  0  0  0
   19.9745  -21.9248  -14.1720 C   0  0  0  0  0  0  0  0  0  0  0  0
   19.9370  -20.7097  -14.5249 O   0  0  0  0  0  0  0  0  0  0  0  0
   19.3088  -22.9057  -14.8921 O   0  0  0  0  0  0  0  0  0  0  0  0
  2  1  1  0
  2  3  1  0
  3  4  1  1
  3  5  1  0
  5  7  1  0
  5  6  1  6
  7  8  2  0
  7 13  1  0
 10  9  1  6
 10 12  1  0
 10 11  1  0
 12 14  1  0
 12 13  1  1
 14 24  1  0
 15 14  2  0
 17 19  1  0
 17 16  1  0
 18 17  2  0
 20 19  1  0
 21 20  1  0
 22 21  1  0
 23 25  1  0
 23 22  1  1
 24 23  1  0
 25 27  1  0
 26 25  2  0
M  END
$$$$
