IVR.pdb
     RDKit          3D

 27 26  0  0  1  0  0  0  0  0999 V2000
   25.5233  -12.1206  -18.0681 C   0  0  0  0  0  0  0  0  0  0  0  0
   26.3622  -13.0857  -17.2857 C   0  0  0  0  0  0  0  0  0  0  0  0
   25.5468  -13.9747  -16.3658 C   0  0  2  0  0  0  0  0  0  0  0  0
   25.9858  -13.8182  -14.9208 C   0  0  0  0  0  0  0  0  0  0  0  0
   25.6451  -15.4173  -16.7132 C   0  0  2  0  0  0  0  0  0  0  0  0
   25.4344  -15.6224  -18.1098 N   0  0  0  0  0  0  0  0  0  0  0  0
   24.8393  -16.3129  -15.8594 C   0  0  0  0  0  0  0  0  0  0  0  0
   24.7996  -16.0610  -14.6274 O   0  0  0  0  0  0  0  0  0  0  0  0
   23.0548  -19.8256  -17.4784 C   0  0  0  0  0  0  0  0  0  0  0  0
   22.4233  -19.1745  -16.2633 C   0  0  1  0  0  0  0  0  0  0  0  0
   21.7685  -20.2194  -15.4174 C   0  0  0  0  0  0  0  0  0  0  0  0
   23.4550  -18.3821  -15.4790 C   0  0  2  0  0  0  0  0  0  0  0  0
   24.1174  -17.4248  -16.3346 N   0  0  0  0  0  0  0  0  0  0  0  0
   24.4204  -19.3757  -14.9195 C   0  0  0  0  0  0  0  0  0  0  0  0
   25.2192  -19.9407  -15.7117 O   0  0  0  0  0  0  0  0  0  0  0  0
   24.8777  -21.0872   -6.4567 N   0  0  0  0  0  0  0  0  0  0  0  0
   23.9798  -21.1060   -7.5556 C   0  0  0  0  0  0  0  0  0  0  0  0
   22.7168  -21.0453   -7.3284 N   0  0  0  0  0  0  0  0  0  0  0  0
   24.4450  -21.1917   -8.8894 N   0  0  0  0  0  0  0  0  0  0  0  0
   25.8530  -21.3202   -9.1894 C   0  0  0  0  0  0  0  0  0  0  0  0
   26.1044  -21.4218  -10.6681 C   0  0  0  0  0  0  0  0  0  0  0  0
   25.2299  -20.5467  -11.4931 C   0  0  0  0  0  0  0  0  0  0  0  0
   25.4224  -20.6689  -12.9843 C   0  0  2  0  0  0  0  0  0  0  0  0
   24.4915  -19.7165  -13.5654 N   0  0  0  0  0  0  0  0  0  0  0  0
   25.1497  -22.0529  -13.4855 C   0  0  0  0  0  0  0  0  0  0  0  0
   23.9428  -22.3638  -13.7070 O   0  0  0  0  0  0  0  0  0  0  0  0
   26.1784  -22.9584  -13.6991 O   0  0  0  0  0  0  0  0  0  0  0  0
  2  1  1  0
  2  3  1  0
  3  4  1  1
  3  5  1  0
  5  7  1  0
  5  6  1  6
  7  8  2  0
  7 13  1  0
 10  9  1  6
 10 12  1  0
 10 11  1  0
 12 14  1  0
 12 13  1  6
 14 24  1  0
 15 14  2  0
 17 19  1  0
 17 16  1  0
 18 17  2  0
 20 19  1  0
 21 20  1  0
 22 21  1  0
 23 25  1  0
 23 22  1  1
 24 23  1  0
 25 27  1  0
 26 25  2  0
M  END
$$$$
