FEE.pdb
     RDKit          3D

 30 30  0  0  1  0  0  0  0  0999 V2000
   25.5511  -11.0553  -18.5501 N   0  0  0  0  0  0  0  0  0  0  0  0
   25.2071  -10.7801  -17.1710 C   0  0  1  0  0  0  0  0  0  0  0  0
   26.4067  -10.0813  -16.5630 C   0  0  0  0  0  0  0  0  0  0  0  0
   27.5984  -10.9349  -16.5217 C   0  0  0  0  0  0  0  0  0  0  0  0
   27.5088  -12.1587  -15.8921 C   0  0  0  0  0  0  0  0  0  0  0  0
   28.5572  -13.0345  -15.7938 C   0  0  0  0  0  0  0  0  0  0  0  0
   29.7557  -12.6726  -16.3512 C   0  0  0  0  0  0  0  0  0  0  0  0
   29.8785  -11.4448  -16.9934 C   0  0  0  0  0  0  0  0  0  0  0  0
   28.8097  -10.5778  -17.0809 C   0  0  0  0  0  0  0  0  0  0  0  0
   24.0866   -9.8177  -17.1490 C   0  0  0  0  0  0  0  0  0  0  0  0
   23.9340   -9.0591  -18.1299 O   0  0  0  0  0  0  0  0  0  0  0  0
   23.2041   -9.7595  -16.0357 N   0  0  0  0  0  0  0  0  0  0  0  0
   22.0543   -8.9129  -16.0767 C   0  0  1  0  0  0  0  0  0  0  0  0
   20.8957   -9.6281  -15.4210 C   0  0  0  0  0  0  0  0  0  0  0  0
   19.6438   -8.7787  -15.4145 C   0  0  0  0  0  0  0  0  0  0  0  0
   18.5305   -9.5038  -14.7606 C   0  0  0  0  0  0  0  0  0  0  0  0
   17.4170   -8.9298  -14.6668 O   0  0  0  0  0  0  0  0  0  0  0  0
   22.3019   -7.6077  -15.4125 C   0  0  0  0  0  0  0  0  0  0  0  0
   23.0395   -7.5441  -14.3985 O   0  0  0  0  0  0  0  0  0  0  0  0
   18.6494  -10.7788  -14.2473 O   0  0  0  0  0  0  0  0  0  0  0  0
   21.7269   -6.4201  -15.8910 N   0  0  0  0  0  0  0  0  0  0  0  0
   21.9622   -5.1046  -15.2719 C   0  0  1  0  0  0  0  0  0  0  0  0
   22.0204   -4.0557  -16.2962 C   0  0  0  0  0  0  0  0  0  0  0  0
   23.3013   -3.9036  -17.0158 C   0  0  0  0  0  0  0  0  0  0  0  0
   23.2526   -2.8585  -18.0609 C   0  0  0  0  0  0  0  0  0  0  0  0
   23.1131   -1.6227  -17.7836 O   0  0  0  0  0  0  0  0  0  0  0  0
   21.1422   -4.8934  -14.1137 C   0  0  0  0  0  0  0  0  0  0  0  0
   21.3740   -4.1359  -13.1357 O   0  0  0  0  0  0  0  0  0  0  0  0
   23.3626   -3.1499  -19.4352 O   0  0  0  0  0  0  0  0  0  0  0  0
   19.9232   -5.6127  -14.0421 O   0  0  0  0  0  0  0  0  0  0  0  0
  2 10  1  0
  2  1  1  6
  3  2  1  0
  3  4  1  0
  4  5  2  0
  4  9  1  0
  5  6  1  0
  6  7  2  0
  8  7  1  0
  9  8  2  0
 10 11  2  0
 12 10  1  0
 12 13  1  0
 13 14  1  1
 14 15  1  0
 16 15  1  0
 16 20  1  0
 17 16  2  0
 18 13  1  0
 18 19  2  0
 21 18  1  0
 22 21  1  0
 22 27  1  0
 22 23  1  6
 24 23  1  0
 25 24  1  0
 26 25  2  0
 27 30  1  0
 28 27  2  0
 29 25  1  0
M  END
$$$$
