FEE.pdb
     RDKit          3D

 30 30  0  0  1  0  0  0  0  0999 V2000
   34.6527  -23.3218    9.1701 N   0  0  0  0  0  0  0  0  0  0  0  0
   33.4306  -22.5483    9.1035 C   0  0  1  0  0  0  0  0  0  0  0  0
   32.7271  -22.9705    7.8292 C   0  0  0  0  0  0  0  0  0  0  0  0
   32.4337  -21.8396    6.9430 C   0  0  0  0  0  0  0  0  0  0  0  0
   33.2708  -21.6101    5.8712 C   0  0  0  0  0  0  0  0  0  0  0  0
   33.0922  -20.5844    4.9812 C   0  0  0  0  0  0  0  0  0  0  0  0
   32.0254  -19.7448    5.1687 C   0  0  0  0  0  0  0  0  0  0  0  0
   31.1625  -19.9496    6.2403 C   0  0  0  0  0  0  0  0  0  0  0  0
   31.3609  -20.9889    7.1248 C   0  0  0  0  0  0  0  0  0  0  0  0
   32.5618  -22.9439   10.2308 C   0  0  0  0  0  0  0  0  0  0  0  0
   32.8045  -24.0181   10.8210 O   0  0  0  0  0  0  0  0  0  0  0  0
   31.4759  -22.1185   10.6321 N   0  0  0  0  0  0  0  0  0  0  0  0
   30.6939  -22.4692   11.7749 C   0  0  1  0  0  0  0  0  0  0  0  0
   30.3377  -21.2096   12.5300 C   0  0  0  0  0  0  0  0  0  0  0  0
   29.5449  -21.5121   13.7825 C   0  0  0  0  0  0  0  0  0  0  0  0
   29.2075  -20.2591   14.4961 C   0  0  0  0  0  0  0  0  0  0  0  0
   29.0610  -20.3025   15.7430 O   0  0  0  0  0  0  0  0  0  0  0  0
   29.4654  -23.2147   11.3994 C   0  0  0  0  0  0  0  0  0  0  0  0
   28.7724  -22.8399   10.4218 O   0  0  0  0  0  0  0  0  0  0  0  0
   29.0448  -19.0434   13.8647 O   0  0  0  0  0  0  0  0  0  0  0  0
   29.0460  -24.3463   12.1158 N   0  0  0  0  0  0  0  0  0  0  0  0
   27.8970  -25.1750   11.7127 C   0  0  1  0  0  0  0  0  0  0  0  0
   28.2650  -26.5953   11.6999 C   0  0  0  0  0  0  0  0  0  0  0  0
   28.4968  -27.2309   13.0128 C   0  0  0  0  0  0  0  0  0  0  0  0
   28.6800  -28.6952   12.9179 C   0  0  0  0  0  0  0  0  0  0  0  0
   28.6589  -29.4529   13.9422 O   0  0  0  0  0  0  0  0  0  0  0  0
   26.6845  -24.7820   12.3713 C   0  0  0  0  0  0  0  0  0  0  0  0
   25.5491  -25.3162   12.2738 O   0  0  0  0  0  0  0  0  0  0  0  0
   28.8847  -29.3594   11.6922 O   0  0  0  0  0  0  0  0  0  0  0  0
   26.7506  -23.6628   13.2382 O   0  0  0  0  0  0  0  0  0  0  0  0
  2 10  1  0
  2  1  1  1
  3  2  1  0
  3  4  1  0
  4  5  2  0
  4  9  1  0
  5  6  1  0
  6  7  2  0
  8  7  1  0
  9  8  2  0
 10 11  2  0
 12 10  1  0
 12 13  1  0
 13 14  1  6
 14 15  1  0
 16 15  1  0
 16 20  1  0
 17 16  2  0
 18 13  1  0
 18 19  2  0
 21 18  1  0
 22 21  1  0
 22 27  1  0
 22 23  1  1
 24 23  1  0
 25 24  1  0
 26 25  2  0
 27 30  1  0
 28 27  2  0
 29 25  1  0
M  END
$$$$
