FEE.pdb
     RDKit          3D

 30 30  0  0  1  0  0  0  0  0999 V2000
   24.2641  -12.1110  -17.6202 N   0  0  0  0  0  0  0  0  0  0  0  0
   24.3355  -11.2342  -16.4703 C   0  0  1  0  0  0  0  0  0  0  0  0
   25.7064  -10.5893  -16.5097 C   0  0  0  0  0  0  0  0  0  0  0  0
   26.7941  -11.5615  -16.3611 C   0  0  0  0  0  0  0  0  0  0  0  0
   27.0667  -12.0555  -15.1025 C   0  0  0  0  0  0  0  0  0  0  0  0
   28.0583  -12.9655  -14.8483 C   0  0  0  0  0  0  0  0  0  0  0  0
   28.8167  -13.4057  -15.9015 C   0  0  0  0  0  0  0  0  0  0  0  0
   28.5667  -12.9267  -17.1832 C   0  0  0  0  0  0  0  0  0  0  0  0
   27.5630  -12.0103  -17.4170 C   0  0  0  0  0  0  0  0  0  0  0  0
   23.3423  -10.1540  -16.6404 C   0  0  0  0  0  0  0  0  0  0  0  0
   22.9882   -9.8478  -17.7988 O   0  0  0  0  0  0  0  0  0  0  0  0
   22.8039   -9.4811  -15.5095 N   0  0  0  0  0  0  0  0  0  0  0  0
   21.7588   -8.5218  -15.6775 C   0  0  1  0  0  0  0  0  0  0  0  0
   20.5066   -9.0395  -15.0083 C   0  0  0  0  0  0  0  0  0  0  0  0
   19.8309  -10.1109  -15.8356 C   0  0  0  0  0  0  0  0  0  0  0  0
   18.5667  -10.5388  -15.1943 C   0  0  0  0  0  0  0  0  0  0  0  0
   18.1949   -9.9453  -14.1514 O   0  0  0  0  0  0  0  0  0  0  0  0
   22.1307   -7.1935  -15.1268 C   0  0  0  0  0  0  0  0  0  0  0  0
   22.6045   -7.0996  -13.9679 O   0  0  0  0  0  0  0  0  0  0  0  0
   17.7725  -11.5566  -15.6807 O   0  0  0  0  0  0  0  0  0  0  0  0
   21.9665   -6.0172  -15.8744 N   0  0  0  0  0  0  0  0  0  0  0  0
   22.3406   -4.6842  -15.3717 C   0  0  1  0  0  0  0  0  0  0  0  0
   23.2148   -3.9985  -16.3300 C   0  0  0  0  0  0  0  0  0  0  0  0
   24.4945   -4.6624  -16.6511 C   0  0  0  0  0  0  0  0  0  0  0  0
   25.3000   -3.9109  -17.6376 C   0  0  0  0  0  0  0  0  0  0  0  0
   24.8932   -2.8243  -18.1644 O   0  0  0  0  0  0  0  0  0  0  0  0
   21.2193   -3.9727  -14.8287 C   0  0  0  0  0  0  0  0  0  0  0  0
   19.9973   -4.2302  -14.9844 O   0  0  0  0  0  0  0  0  0  0  0  0
   26.5748   -4.3356  -18.0620 O   0  0  0  0  0  0  0  0  0  0  0  0
   21.4980   -2.8436  -14.0188 O   0  0  0  0  0  0  0  0  0  0  0  0
  2 10  1  0
  2  1  1  6
  3  2  1  0
  3  4  1  0
  4  5  2  0
  4  9  1  0
  5  6  1  0
  6  7  2  0
  8  7  1  0
  9  8  2  0
 10 11  2  0
 12 10  1  0
 12 13  1  0
 13 14  1  1
 14 15  1  0
 16 15  1  0
 16 20  1  0
 17 16  2  0
 18 13  1  0
 18 19  2  0
 21 18  1  0
 22 21  1  0
 22 27  1  0
 22 23  1  6
 24 23  1  0
 25 24  1  0
 26 25  2  0
 27 30  1  0
 28 27  2  0
 29 25  1  0
M  END
$$$$
