FEE.pdb
     RDKit          3D

 30 30  0  0  1  0  0  0  0  0999 V2000
   28.5267  -20.7644   -9.2370 N   0  0  0  0  0  0  0  0  0  0  0  0
   27.0993  -20.9371   -9.0673 C   0  0  1  0  0  0  0  0  0  0  0  0
   26.6418  -19.8271   -8.1424 C   0  0  0  0  0  0  0  0  0  0  0  0
   27.2880  -19.8834   -6.8273 C   0  0  0  0  0  0  0  0  0  0  0  0
   28.1703  -18.8801   -6.4850 C   0  0  0  0  0  0  0  0  0  0  0  0
   28.8296  -18.8327   -5.2854 C   0  0  0  0  0  0  0  0  0  0  0  0
   28.5981  -19.8360   -4.3810 C   0  0  0  0  0  0  0  0  0  0  0  0
   27.7138  -20.8624   -4.6961 C   0  0  0  0  0  0  0  0  0  0  0  0
   27.0603  -20.8906   -5.9102 C   0  0  0  0  0  0  0  0  0  0  0  0
   26.4407  -20.7154  -10.3709 C   0  0  0  0  0  0  0  0  0  0  0  0
   26.8461  -19.7784  -11.0910 O   0  0  0  0  0  0  0  0  0  0  0  0
   25.3708  -21.5515  -10.7929 N   0  0  0  0  0  0  0  0  0  0  0  0
   24.8288  -21.4125  -12.1072 C   0  0  1  0  0  0  0  0  0  0  0  0
   25.1194  -22.6706  -12.8925 C   0  0  0  0  0  0  0  0  0  0  0  0
   24.5549  -22.5994  -14.2943 C   0  0  0  0  0  0  0  0  0  0  0  0
   24.9226  -23.8112  -15.0618 C   0  0  0  0  0  0  0  0  0  0  0  0
   24.5047  -23.9210  -16.2415 O   0  0  0  0  0  0  0  0  0  0  0  0
   23.3685  -21.1430  -12.0799 C   0  0  0  0  0  0  0  0  0  0  0  0
   22.7641  -21.0443  -10.9838 O   0  0  0  0  0  0  0  0  0  0  0  0
   25.7010  -24.8292  -14.5510 O   0  0  0  0  0  0  0  0  0  0  0  0
   22.6279  -20.9922  -13.2625 N   0  0  0  0  0  0  0  0  0  0  0  0
   21.1556  -20.9660  -13.2934 C   0  0  1  0  0  0  0  0  0  0  0  0
   20.6027  -21.9648  -12.3717 C   0  0  0  0  0  0  0  0  0  0  0  0
   19.1347  -21.9753  -12.2099 C   0  0  0  0  0  0  0  0  0  0  0  0
   18.4790  -23.0508  -12.9846 C   0  0  0  0  0  0  0  0  0  0  0  0
   17.3451  -22.8939  -13.5445 O   0  0  0  0  0  0  0  0  0  0  0  0
   20.6339  -19.6300  -13.2572 C   0  0  0  0  0  0  0  0  0  0  0  0
   19.4395  -19.2759  -13.0787 O   0  0  0  0  0  0  0  0  0  0  0  0
   19.0597  -24.3218  -13.1657 O   0  0  0  0  0  0  0  0  0  0  0  0
   21.5549  -18.5688  -13.4422 O   0  0  0  0  0  0  0  0  0  0  0  0
  2 10  1  0
  2  1  1  6
  3  2  1  0
  3  4  1  0
  4  5  2  0
  4  9  1  0
  5  6  1  0
  6  7  2  0
  8  7  1  0
  9  8  2  0
 10 11  2  0
 12 10  1  0
 12 13  1  0
 13 14  1  6
 14 15  1  0
 16 15  1  0
 16 20  1  0
 17 16  2  0
 18 13  1  0
 18 19  2  0
 21 18  1  0
 22 21  1  0
 22 27  1  0
 22 23  1  1
 24 23  1  0
 25 24  1  0
 26 25  2  0
 27 30  1  0
 28 27  2  0
 29 25  1  0
M  END
$$$$
