FEE.pdb
     RDKit          3D

 30 30  0  0  1  0  0  0  0  0999 V2000
   24.6962  -10.7427  -17.5114 N   0  0  0  0  0  0  0  0  0  0  0  0
   23.7223  -10.4454  -16.4821 C   0  0  1  0  0  0  0  0  0  0  0  0
   24.4544   -9.6528  -15.4178 C   0  0  0  0  0  0  0  0  0  0  0  0
   23.5527   -9.1036  -14.4001 C   0  0  0  0  0  0  0  0  0  0  0  0
   23.2420   -7.7608  -14.4528 C   0  0  0  0  0  0  0  0  0  0  0  0
   22.4124   -7.1431  -13.5550 C   0  0  0  0  0  0  0  0  0  0  0  0
   21.8644   -7.9018  -12.5539 C   0  0  0  0  0  0  0  0  0  0  0  0
   22.1580   -9.2591  -12.4733 C   0  0  0  0  0  0  0  0  0  0  0  0
   22.9962   -9.8611  -13.3881 C   0  0  0  0  0  0  0  0  0  0  0  0
   22.6908   -9.5557  -17.0536 C   0  0  0  0  0  0  0  0  0  0  0  0
   23.0442   -8.6895  -17.8818 O   0  0  0  0  0  0  0  0  0  0  0  0
   21.3284   -9.6856  -16.6681 N   0  0  0  0  0  0  0  0  0  0  0  0
   20.3228   -8.9069  -17.3182 C   0  0  1  0  0  0  0  0  0  0  0  0
   19.0843   -9.7548  -17.4944 C   0  0  0  0  0  0  0  0  0  0  0  0
   18.0572   -9.0717  -18.3703 C   0  0  0  0  0  0  0  0  0  0  0  0
   16.8649   -9.9339  -18.5376 C   0  0  0  0  0  0  0  0  0  0  0  0
   16.7960  -10.9948  -17.8682 O   0  0  0  0  0  0  0  0  0  0  0  0
   20.0020   -7.6703  -16.5606 C   0  0  0  0  0  0  0  0  0  0  0  0
   19.9832   -7.6847  -15.3053 O   0  0  0  0  0  0  0  0  0  0  0  0
   15.8227   -9.6352  -19.3907 O   0  0  0  0  0  0  0  0  0  0  0  0
   19.7138   -6.4627  -17.2152 N   0  0  0  0  0  0  0  0  0  0  0  0
   19.4256   -5.2075  -16.5004 C   0  0  1  0  0  0  0  0  0  0  0  0
   20.4954   -4.2289  -16.7251 C   0  0  0  0  0  0  0  0  0  0  0  0
   20.3588   -2.9292  -16.0372 C   0  0  0  0  0  0  0  0  0  0  0  0
   21.4986   -2.0219  -16.2913 C   0  0  0  0  0  0  0  0  0  0  0  0
   22.3505   -1.7281  -15.3905 O   0  0  0  0  0  0  0  0  0  0  0  0
   18.0627   -4.7896  -16.6619 C   0  0  0  0  0  0  0  0  0  0  0  0
   17.5213   -3.7447  -16.2157 O   0  0  0  0  0  0  0  0  0  0  0  0
   21.7298   -1.4222  -17.5453 O   0  0  0  0  0  0  0  0  0  0  0  0
   17.2079   -5.6385  -17.4084 O   0  0  0  0  0  0  0  0  0  0  0  0
  2 10  1  0
  2  1  1  6
  3  2  1  0
  3  4  1  0
  4  5  2  0
  4  9  1  0
  5  6  1  0
  6  7  2  0
  8  7  1  0
  9  8  2  0
 10 11  2  0
 12 10  1  0
 12 13  1  0
 13 14  1  1
 14 15  1  0
 16 15  1  0
 16 20  1  0
 17 16  2  0
 18 13  1  0
 18 19  2  0
 21 18  1  0
 22 21  1  0
 22 27  1  0
 22 23  1  6
 24 23  1  0
 25 24  1  0
 26 25  2  0
 27 30  1  0
 28 27  2  0
 29 25  1  0
M  END
$$$$
