FEE.pdb
     RDKit          3D

 30 30  0  0  1  0  0  0  0  0999 V2000
   24.0582  -10.7188  -17.8425 N   0  0  0  0  0  0  0  0  0  0  0  0
   23.4670  -10.8790  -16.5307 C   0  0  1  0  0  0  0  0  0  0  0  0
   24.3960  -10.1835  -15.5559 C   0  0  0  0  0  0  0  0  0  0  0  0
   25.7088  -10.8307  -15.4648 C   0  0  0  0  0  0  0  0  0  0  0  0
   26.8204  -10.1225  -15.8710 C   0  0  0  0  0  0  0  0  0  0  0  0
   28.0927  -10.6279  -15.8302 C   0  0  0  0  0  0  0  0  0  0  0  0
   28.2663  -11.9037  -15.3607 C   0  0  0  0  0  0  0  0  0  0  0  0
   27.1653  -12.6441  -14.9433 C   0  0  0  0  0  0  0  0  0  0  0  0
   25.8924  -12.1157  -14.9930 C   0  0  0  0  0  0  0  0  0  0  0  0
   22.1824  -10.1501  -16.5017 C   0  0  0  0  0  0  0  0  0  0  0  0
   22.0296   -9.1821  -17.2766 O   0  0  0  0  0  0  0  0  0  0  0  0
   21.1463  -10.5445  -15.6114 N   0  0  0  0  0  0  0  0  0  0  0  0
   19.8729   -9.8994  -15.6639 C   0  0  1  0  0  0  0  0  0  0  0  0
   18.8019  -10.8986  -15.2920 C   0  0  0  0  0  0  0  0  0  0  0  0
   18.5333  -11.8764  -16.4147 C   0  0  0  0  0  0  0  0  0  0  0  0
   17.5335  -12.8845  -15.9942 C   0  0  0  0  0  0  0  0  0  0  0  0
   17.2243  -13.7935  -16.8044 O   0  0  0  0  0  0  0  0  0  0  0  0
   19.8126   -8.7161  -14.7683 C   0  0  0  0  0  0  0  0  0  0  0  0
   20.5465   -8.6547  -13.7514 O   0  0  0  0  0  0  0  0  0  0  0  0
   16.9211  -12.8802  -14.7580 O   0  0  0  0  0  0  0  0  0  0  0  0
   18.9452   -7.6435  -15.0269 N   0  0  0  0  0  0  0  0  0  0  0  0
   19.1749   -6.2806  -14.5178 C   0  0  1  0  0  0  0  0  0  0  0  0
   20.5973   -5.9310  -14.6041 C   0  0  0  0  0  0  0  0  0  0  0  0
   20.9901   -4.6163  -14.0577 C   0  0  0  0  0  0  0  0  0  0  0  0
   22.4379   -4.3473  -14.1927 C   0  0  0  0  0  0  0  0  0  0  0  0
   22.9355   -3.7956  -15.2280 O   0  0  0  0  0  0  0  0  0  0  0  0
   18.2034   -5.3454  -15.0076 C   0  0  0  0  0  0  0  0  0  0  0  0
   17.7245   -5.2723  -16.1692 O   0  0  0  0  0  0  0  0  0  0  0  0
   23.3703   -4.6741  -13.1880 O   0  0  0  0  0  0  0  0  0  0  0  0
   17.7117   -4.3817  -14.0923 O   0  0  0  0  0  0  0  0  0  0  0  0
  2 10  1  0
  2  1  1  6
  3  2  1  0
  3  4  1  0
  4  5  2  0
  4  9  1  0
  5  6  1  0
  6  7  2  0
  8  7  1  0
  9  8  2  0
 10 11  2  0
 12 10  1  0
 12 13  1  0
 13 14  1  1
 14 15  1  0
 16 15  1  0
 16 20  1  0
 17 16  2  0
 18 13  1  0
 18 19  2  0
 21 18  1  0
 22 21  1  0
 22 27  1  0
 22 23  1  6
 24 23  1  0
 25 24  1  0
 26 25  2  0
 27 30  1  0
 28 27  2  0
 29 25  1  0
M  END
$$$$
