FEE.pdb
     RDKit          3D

 30 30  0  0  1  0  0  0  0  0999 V2000
   16.0720   -7.6045   -8.0648 N   0  0  0  0  0  0  0  0  0  0  0  0
   15.3205   -7.6652   -9.3008 C   0  0  1  0  0  0  0  0  0  0  0  0
   14.3548   -6.4975   -9.2710 C   0  0  0  0  0  0  0  0  0  0  0  0
   13.2120   -6.7303   -8.3820 C   0  0  0  0  0  0  0  0  0  0  0  0
   12.9483   -5.8043   -7.3944 C   0  0  0  0  0  0  0  0  0  0  0  0
   11.9093   -5.9209   -6.5096 C   0  0  0  0  0  0  0  0  0  0  0  0
   11.0916   -7.0158   -6.6142 C   0  0  0  0  0  0  0  0  0  0  0  0
   11.3310   -7.9677   -7.5997 C   0  0  0  0  0  0  0  0  0  0  0  0
   12.3832   -7.8306   -8.4806 C   0  0  0  0  0  0  0  0  0  0  0  0
   16.2480   -7.4332  -10.4268 C   0  0  0  0  0  0  0  0  0  0  0  0
   17.1035   -6.5293  -10.3169 O   0  0  0  0  0  0  0  0  0  0  0  0
   16.1662   -8.2227  -11.6065 N   0  0  0  0  0  0  0  0  0  0  0  0
   17.0590   -7.9791  -12.6947 C   0  0  1  0  0  0  0  0  0  0  0  0
   17.2058   -9.2486  -13.5014 C   0  0  0  0  0  0  0  0  0  0  0  0
   18.1444   -9.0627  -14.6732 C   0  0  0  0  0  0  0  0  0  0  0  0
   18.2832  -10.3279  -15.4302 C   0  0  0  0  0  0  0  0  0  0  0  0
   17.3105  -10.7205  -16.1213 O   0  0  0  0  0  0  0  0  0  0  0  0
   16.5904   -6.8658  -13.5589 C   0  0  0  0  0  0  0  0  0  0  0  0
   15.3692   -6.7412  -13.8227 O   0  0  0  0  0  0  0  0  0  0  0  0
   19.4256  -11.1012  -15.4178 O   0  0  0  0  0  0  0  0  0  0  0  0
   17.4856   -5.9306  -14.1006 N   0  0  0  0  0  0  0  0  0  0  0  0
   17.0524   -4.7580  -14.8796 C   0  0  1  0  0  0  0  0  0  0  0  0
   18.1670   -3.8221  -15.0656 C   0  0  0  0  0  0  0  0  0  0  0  0
   17.8643   -2.5659  -15.7809 C   0  0  0  0  0  0  0  0  0  0  0  0
   19.0420   -1.6813  -15.9123 C   0  0  0  0  0  0  0  0  0  0  0  0
   20.1878   -1.9988  -15.4543 O   0  0  0  0  0  0  0  0  0  0  0  0
   16.2605   -5.1235  -16.0188 C   0  0  0  0  0  0  0  0  0  0  0  0
   16.4982   -6.0271  -16.8619 O   0  0  0  0  0  0  0  0  0  0  0  0
   18.9861   -0.4293  -16.5564 O   0  0  0  0  0  0  0  0  0  0  0  0
   15.0659   -4.3937  -16.2395 O   0  0  0  0  0  0  0  0  0  0  0  0
  2 10  1  0
  2  1  1  1
  3  2  1  0
  3  4  1  0
  4  5  2  0
  4  9  1  0
  5  6  1  0
  6  7  2  0
  8  7  1  0
  9  8  2  0
 10 11  2  0
 12 10  1  0
 12 13  1  0
 13 14  1  6
 14 15  1  0
 16 15  1  0
 16 20  1  0
 17 16  2  0
 18 13  1  0
 18 19  2  0
 21 18  1  0
 22 21  1  0
 22 27  1  0
 22 23  1  6
 24 23  1  0
 25 24  1  0
 26 25  2  0
 27 30  1  0
 28 27  2  0
 29 25  1  0
M  END
$$$$
