FEE.pdb
     RDKit          3D

 30 30  0  0  1  0  0  0  0  0999 V2000
   25.1288  -10.9190  -18.2183 N   0  0  0  0  0  0  0  0  0  0  0  0
   24.6989  -10.6913  -16.8546 C   0  0  1  0  0  0  0  0  0  0  0  0
   25.9049  -10.1531  -16.1110 C   0  0  0  0  0  0  0  0  0  0  0  0
   26.9847  -11.1385  -15.9950 C   0  0  0  0  0  0  0  0  0  0  0  0
   28.1880  -10.8708  -16.6136 C   0  0  0  0  0  0  0  0  0  0  0  0
   29.2626  -11.7190  -16.5712 C   0  0  0  0  0  0  0  0  0  0  0  0
   29.1316  -12.8935  -15.8773 C   0  0  0  0  0  0  0  0  0  0  0  0
   27.9307  -13.1928  -15.2423 C   0  0  0  0  0  0  0  0  0  0  0  0
   26.8609  -12.3243  -15.2977 C   0  0  0  0  0  0  0  0  0  0  0  0
   23.6775   -9.6240  -16.8557 C   0  0  0  0  0  0  0  0  0  0  0  0
   23.7660   -8.7162  -17.7094 O   0  0  0  0  0  0  0  0  0  0  0  0
   22.6195   -9.6337  -15.9058 N   0  0  0  0  0  0  0  0  0  0  0  0
   21.5514   -8.6913  -16.0139 C   0  0  1  0  0  0  0  0  0  0  0  0
   20.2959   -9.3060  -15.4397 C   0  0  0  0  0  0  0  0  0  0  0  0
   19.1256   -8.3491  -15.4989 C   0  0  0  0  0  0  0  0  0  0  0  0
   17.9201   -8.9692  -14.9029 C   0  0  0  0  0  0  0  0  0  0  0  0
   17.0463   -8.2174  -14.4034 O   0  0  0  0  0  0  0  0  0  0  0  0
   21.8662   -7.4138  -15.3250 C   0  0  0  0  0  0  0  0  0  0  0  0
   22.5842   -7.4111  -14.2949 O   0  0  0  0  0  0  0  0  0  0  0  0
   17.7035  -10.3312  -14.8661 O   0  0  0  0  0  0  0  0  0  0  0  0
   21.3777   -6.1857  -15.7971 N   0  0  0  0  0  0  0  0  0  0  0  0
   21.7043   -4.8938  -15.1696 C   0  0  1  0  0  0  0  0  0  0  0  0
   22.9008   -4.3092  -15.7856 C   0  0  0  0  0  0  0  0  0  0  0  0
   22.6882   -3.4838  -16.9918 C   0  0  0  0  0  0  0  0  0  0  0  0
   23.7076   -2.4242  -17.1499 C   0  0  0  0  0  0  0  0  0  0  0  0
   24.6169   -2.2177  -16.2815 O   0  0  0  0  0  0  0  0  0  0  0  0
   20.5456   -4.0667  -14.9914 C   0  0  0  0  0  0  0  0  0  0  0  0
   20.4361   -3.0430  -14.2675 O   0  0  0  0  0  0  0  0  0  0  0  0
   23.7525   -1.5717  -18.2709 O   0  0  0  0  0  0  0  0  0  0  0  0
   19.3754   -4.4269  -15.7052 O   0  0  0  0  0  0  0  0  0  0  0  0
  2 10  1  0
  2  1  1  6
  3  2  1  0
  3  4  1  0
  4  5  2  0
  4  9  1  0
  5  6  1  0
  6  7  2  0
  8  7  1  0
  9  8  2  0
 10 11  2  0
 12 10  1  0
 12 13  1  0
 13 14  1  1
 14 15  1  0
 16 15  1  0
 16 20  1  0
 17 16  2  0
 18 13  1  0
 18 19  2  0
 21 18  1  0
 22 21  1  0
 22 27  1  0
 22 23  1  6
 24 23  1  0
 25 24  1  0
 26 25  2  0
 27 30  1  0
 28 27  2  0
 29 25  1  0
M  END
$$$$
