QYG.pdb
     RDKit          3D

 26 26  0  0  1  0  0  0  0  0999 V2000
   16.9787  -11.2739  -16.8741 N   0  0  0  0  0  0  0  0  0  0  0  0
   17.3816  -12.6053  -16.4670 C   0  0  0  0  0  0  0  0  0  0  0  0
   16.4717  -13.4428  -16.3232 O   0  0  0  0  0  0  0  0  0  0  0  0
   18.8106  -12.9068  -16.2478 C   0  0  0  0  0  0  0  0  0  0  0  0
   19.7290  -11.7504  -16.2916 C   0  0  0  0  0  0  0  0  0  0  0  0
   21.1810  -12.0087  -16.1563 C   0  0  2  0  0  0  0  0  0  0  0  0
   21.5751  -13.2505  -15.5851 N   0  0  0  0  0  0  0  0  0  0  0  0
   21.9050  -10.8581  -15.5182 C   0  0  0  0  0  0  0  0  0  0  0  0
   22.2072  -10.9080  -14.2976 O   0  0  0  0  0  0  0  0  0  0  0  0
   27.7707  -12.8761  -16.4096 O   0  0  0  0  0  0  0  0  0  0  0  0
   26.9072  -11.7806  -16.4234 C   0  0  0  0  0  0  0  0  0  0  0  0
   26.9759  -10.8809  -15.3876 C   0  0  0  0  0  0  0  0  0  0  0  0
   26.1330   -9.7689  -15.3564 C   0  0  0  0  0  0  0  0  0  0  0  0
   25.2126   -9.5388  -16.3535 C   0  0  0  0  0  0  0  0  0  0  0  0
   24.3029   -8.3744  -16.3379 C   0  0  0  0  0  0  0  0  0  0  0  0
   23.0226   -8.6446  -15.5867 C   0  0  2  0  0  0  0  0  0  0  0  0
   22.2608   -9.7060  -16.2607 N   0  0  0  0  0  0  0  0  0  0  0  0
   22.1653   -7.4375  -15.4980 C   0  0  0  0  0  0  0  0  0  0  0  0
   22.5694   -6.3599  -14.9982 O   0  0  0  0  0  0  0  0  0  0  0  0
   25.1576  -10.4648  -17.3987 C   0  0  0  0  0  0  0  0  0  0  0  0
   25.9952  -11.5593  -17.4191 C   0  0  0  0  0  0  0  0  0  0  0  0
   20.8090   -7.4487  -15.9892 N   0  0  0  0  0  0  0  0  0  0  0  0
   19.9332   -6.3089  -15.8397 C   0  0  0  0  0  0  0  0  0  0  0  0
   18.9212   -6.5183  -14.7803 C   0  0  0  0  0  0  0  0  0  0  0  0
   17.9473   -5.5701  -14.5205 O   0  0  0  0  0  0  0  0  0  0  0  0
   18.9234   -7.5663  -14.0898 O   0  0  0  0  0  0  0  0  0  0  0  0
  1  2  1  0
  2  3  2  0
  4  2  1  0
  5  4  1  0
  6  5  1  0
  6  8  1  0
  6  7  1  1
  8  9  2  0
 10 11  1  0
 11 12  2  0
 12 13  1  0
 14 13  2  0
 14 15  1  0
 16 15  1  6
 16 18  1  0
 17  8  1  0
 17 16  1  0
 18 22  1  0
 19 18  2  0
 20 14  1  0
 21 11  1  0
 21 20  2  0
 22 23  1  0
 24 25  1  0
 24 23  1  0
 26 24  2  0
M  END
$$$$
