QYG.pdb
     RDKit          3D

 26 26  0  0  1  0  0  0  0  0999 V2000
   19.8427  -18.0697  -15.1418 N   0  0  0  0  0  0  0  0  0  0  0  0
   20.5397  -17.6124  -16.3275 C   0  0  0  0  0  0  0  0  0  0  0  0
   21.7727  -17.7831  -16.3491 O   0  0  0  0  0  0  0  0  0  0  0  0
   19.7833  -16.9837  -17.4291 C   0  0  0  0  0  0  0  0  0  0  0  0
   20.0064  -15.5361  -17.6223 C   0  0  0  0  0  0  0  0  0  0  0  0
   19.3945  -14.6012  -16.6502 C   0  0  2  0  0  0  0  0  0  0  0  0
   17.9831  -14.6607  -16.4834 N   0  0  0  0  0  0  0  0  0  0  0  0
   19.8634  -13.1886  -16.8491 C   0  0  0  0  0  0  0  0  0  0  0  0
   21.0860  -12.9549  -17.0346 O   0  0  0  0  0  0  0  0  0  0  0  0
   19.7235  -12.5875  -23.3356 O   0  0  0  0  0  0  0  0  0  0  0  0
   19.4262  -12.0200  -22.0965 C   0  0  0  0  0  0  0  0  0  0  0  0
   20.1464  -10.9232  -21.6900 C   0  0  0  0  0  0  0  0  0  0  0  0
   19.8862  -10.3199  -20.4586 C   0  0  0  0  0  0  0  0  0  0  0  0
   18.9082  -10.7999  -19.6176 C   0  0  0  0  0  0  0  0  0  0  0  0
   18.6207  -10.1845  -18.3052 C   0  0  0  0  0  0  0  0  0  0  0  0
   19.4581  -10.7656  -17.1927 C   0  0  2  0  0  0  0  0  0  0  0  0
   18.9576  -12.1003  -16.8336 N   0  0  0  0  0  0  0  0  0  0  0  0
   19.4355   -9.9147  -15.9780 C   0  0  0  0  0  0  0  0  0  0  0  0
   18.5901  -10.0687  -15.0637 O   0  0  0  0  0  0  0  0  0  0  0  0
   18.1861  -11.9161  -20.0483 C   0  0  0  0  0  0  0  0  0  0  0  0
   18.4517  -12.5035  -21.2666 C   0  0  0  0  0  0  0  0  0  0  0  0
   20.3982   -8.8569  -15.7908 N   0  0  0  0  0  0  0  0  0  0  0  0
   20.3422   -7.9655  -14.6548 C   0  0  0  0  0  0  0  0  0  0  0  0
   21.3385   -6.8754  -14.7516 C   0  0  0  0  0  0  0  0  0  0  0  0
   21.3427   -5.8247  -13.8510 O   0  0  0  0  0  0  0  0  0  0  0  0
   22.2069   -6.8793  -15.6576 O   0  0  0  0  0  0  0  0  0  0  0  0
  1  2  1  0
  2  3  2  0
  4  2  1  0
  5  4  1  0
  6  5  1  0
  6  8  1  0
  6  7  1  6
  8  9  2  0
 10 11  1  0
 11 12  2  0
 12 13  1  0
 14 13  2  0
 14 15  1  0
 16 15  1  6
 16 18  1  0
 17  8  1  0
 17 16  1  0
 18 22  1  0
 19 18  2  0
 20 14  1  0
 21 11  1  0
 21 20  2  0
 22 23  1  0
 24 25  1  0
 24 23  1  0
 26 24  2  0
M  END
$$$$
