QYG.pdb
     RDKit          3D

 26 26  0  0  1  0  0  0  0  0999 V2000
   19.1840   -7.8034  -20.1708 N   0  0  0  0  0  0  0  0  0  0  0  0
   18.7971   -8.8956  -21.0415 C   0  0  0  0  0  0  0  0  0  0  0  0
   17.7489   -8.7418  -21.6955 O   0  0  0  0  0  0  0  0  0  0  0  0
   19.6360  -10.1086  -21.1176 C   0  0  0  0  0  0  0  0  0  0  0  0
   20.8849  -10.0809  -20.3289 C   0  0  0  0  0  0  0  0  0  0  0  0
   21.1999  -11.2542  -19.4817 C   0  0  2  0  0  0  0  0  0  0  0  0
   20.4709  -12.4515  -19.7237 N   0  0  0  0  0  0  0  0  0  0  0  0
   21.2185  -10.9102  -18.0201 C   0  0  0  0  0  0  0  0  0  0  0  0
   20.2125  -11.1581  -17.3058 O   0  0  0  0  0  0  0  0  0  0  0  0
   22.7802  -16.4055  -15.4826 O   0  0  0  0  0  0  0  0  0  0  0  0
   22.9568  -15.0220  -15.4629 C   0  0  0  0  0  0  0  0  0  0  0  0
   22.5227  -14.3230  -14.3629 C   0  0  0  0  0  0  0  0  0  0  0  0
   22.6771  -12.9375  -14.2961 C   0  0  0  0  0  0  0  0  0  0  0  0
   23.2639  -12.2313  -15.3214 C   0  0  0  0  0  0  0  0  0  0  0  0
   23.4297  -10.7636  -15.2782 C   0  0  0  0  0  0  0  0  0  0  0  0
   22.3102  -10.0295  -15.9742 C   0  0  2  0  0  0  0  0  0  0  0  0
   22.3494  -10.3081  -17.4171 N   0  0  0  0  0  0  0  0  0  0  0  0
   22.4019   -8.5621  -15.7782 C   0  0  0  0  0  0  0  0  0  0  0  0
   23.3881   -7.8912  -16.1673 O   0  0  0  0  0  0  0  0  0  0  0  0
   23.6992  -12.9595  -16.4318 C   0  0  0  0  0  0  0  0  0  0  0  0
   23.5417  -14.3277  -16.4867 C   0  0  0  0  0  0  0  0  0  0  0  0
   21.3462   -7.8304  -15.1218 N   0  0  0  0  0  0  0  0  0  0  0  0
   21.3819   -6.3918  -14.9896 C   0  0  0  0  0  0  0  0  0  0  0  0
   20.1899   -5.8664  -14.2872 C   0  0  0  0  0  0  0  0  0  0  0  0
   19.1134   -6.6837  -13.9902 O   0  0  0  0  0  0  0  0  0  0  0  0
   20.1282   -4.6611  -13.9430 O   0  0  0  0  0  0  0  0  0  0  0  0
  1  2  1  0
  2  3  2  0
  4  2  1  0
  5  4  1  0
  6  5  1  0
  6  8  1  0
  6  7  1  1
  8  9  2  0
 10 11  1  0
 11 12  2  0
 12 13  1  0
 14 13  2  0
 14 15  1  0
 16 15  1  1
 16 18  1  0
 17  8  1  0
 17 16  1  0
 18 22  1  0
 19 18  2  0
 20 14  1  0
 21 11  1  0
 21 20  2  0
 22 23  1  0
 24 25  1  0
 24 23  1  0
 26 24  2  0
M  END
$$$$
