QYG.pdb
     RDKit          3D

 26 26  0  0  1  0  0  0  0  0999 V2000
   27.7504  -19.1543  -17.9471 N   0  0  0  0  0  0  0  0  0  0  0  0
   27.1689  -19.6109  -19.1937 C   0  0  0  0  0  0  0  0  0  0  0  0
   27.6788  -19.1700  -20.2404 O   0  0  0  0  0  0  0  0  0  0  0  0
   26.0317  -20.5529  -19.1737 C   0  0  0  0  0  0  0  0  0  0  0  0
   25.6119  -21.0306  -17.8402 C   0  0  0  0  0  0  0  0  0  0  0  0
   26.5535  -21.8818  -17.0770 C   0  0  2  0  0  0  0  0  0  0  0  0
   26.8174  -23.1844  -17.5842 N   0  0  0  0  0  0  0  0  0  0  0  0
   26.2238  -21.9208  -15.6125 C   0  0  0  0  0  0  0  0  0  0  0  0
   25.5886  -22.8988  -15.1395 O   0  0  0  0  0  0  0  0  0  0  0  0
   25.7778  -20.0399   -6.9837 O   0  0  0  0  0  0  0  0  0  0  0  0
   26.1120  -20.0680   -8.3376 C   0  0  0  0  0  0  0  0  0  0  0  0
   27.1154  -20.9127   -8.7460 C   0  0  0  0  0  0  0  0  0  0  0  0
   27.4861  -20.9766  -10.0901 C   0  0  0  0  0  0  0  0  0  0  0  0
   26.8643  -20.2022  -11.0428 C   0  0  0  0  0  0  0  0  0  0  0  0
   27.2453  -20.2451  -12.4700 C   0  0  0  0  0  0  0  0  0  0  0  0
   26.2309  -20.9664  -13.3229 C   0  0  2  0  0  0  0  0  0  0  0  0
   26.6125  -20.8758  -14.7397 N   0  0  0  0  0  0  0  0  0  0  0  0
   24.8698  -20.3979  -13.1675 C   0  0  0  0  0  0  0  0  0  0  0  0
   24.5239  -19.3208  -13.7101 O   0  0  0  0  0  0  0  0  0  0  0  0
   25.8460  -19.3494  -10.6085 C   0  0  0  0  0  0  0  0  0  0  0  0
   25.4882  -19.2947   -9.2784 C   0  0  0  0  0  0  0  0  0  0  0  0
   23.8685  -21.0676  -12.3739 N   0  0  0  0  0  0  0  0  0  0  0  0
   22.5922  -20.4567  -12.0805 C   0  0  0  0  0  0  0  0  0  0  0  0
   21.5983  -20.6997  -13.1498 C   0  0  0  0  0  0  0  0  0  0  0  0
   20.7311  -19.7039  -13.5637 O   0  0  0  0  0  0  0  0  0  0  0  0
   21.5192  -21.8207  -13.7085 O   0  0  0  0  0  0  0  0  0  0  0  0
  1  2  1  0
  2  3  2  0
  4  2  1  0
  5  4  1  0
  6  5  1  0
  6  8  1  0
  6  7  1  6
  8  9  2  0
 10 11  1  0
 11 12  2  0
 12 13  1  0
 14 13  2  0
 14 15  1  0
 16 15  1  1
 16 18  1  0
 17  8  1  0
 17 16  1  0
 18 22  1  0
 19 18  2  0
 20 14  1  0
 21 11  1  0
 21 20  2  0
 22 23  1  0
 24 25  1  0
 24 23  1  0
 26 24  2  0
M  END
$$$$
