QYG.pdb
     RDKit          3D

 26 26  0  0  1  0  0  0  0  0999 V2000
   30.4848  -28.5319  -21.2863 N   0  0  0  0  0  0  0  0  0  0  0  0
   31.4796  -29.3514  -21.9493 C   0  0  0  0  0  0  0  0  0  0  0  0
   31.0527  -30.2306  -22.7204 O   0  0  0  0  0  0  0  0  0  0  0  0
   32.9151  -29.1171  -21.6934 C   0  0  0  0  0  0  0  0  0  0  0  0
   33.6279  -30.1945  -20.9768 C   0  0  0  0  0  0  0  0  0  0  0  0
   34.0364  -29.9470  -19.5749 C   0  0  2  0  0  0  0  0  0  0  0  0
   35.3017  -29.3336  -19.3598 N   0  0  0  0  0  0  0  0  0  0  0  0
   33.8628  -31.1624  -18.7102 C   0  0  0  0  0  0  0  0  0  0  0  0
   34.8419  -31.9236  -18.4964 O   0  0  0  0  0  0  0  0  0  0  0  0
   26.3881  -31.4631  -15.8083 O   0  0  0  0  0  0  0  0  0  0  0  0
   27.7701  -31.6464  -15.8546 C   0  0  0  0  0  0  0  0  0  0  0  0
   28.2986  -32.7804  -15.2875 C   0  0  0  0  0  0  0  0  0  0  0  0
   29.6753  -33.0089  -15.3084 C   0  0  0  0  0  0  0  0  0  0  0  0
   30.5419  -32.1133  -15.8926 C   0  0  0  0  0  0  0  0  0  0  0  0
   32.0037  -32.3282  -15.9189 C   0  0  0  0  0  0  0  0  0  0  0  0
   32.5156  -32.6877  -17.2919 C   0  0  2  0  0  0  0  0  0  0  0  0
   32.6141  -31.4786  -18.1223 N   0  0  0  0  0  0  0  0  0  0  0  0
   31.6279  -33.6568  -17.9796 C   0  0  0  0  0  0  0  0  0  0  0  0
   30.7933  -33.3063  -18.8484 O   0  0  0  0  0  0  0  0  0  0  0  0
   29.9858  -30.9659  -16.4643 C   0  0  0  0  0  0  0  0  0  0  0  0
   28.6245  -30.7508  -16.4379 C   0  0  0  0  0  0  0  0  0  0  0  0
   31.6851  -35.0657  -17.6756 N   0  0  0  0  0  0  0  0  0  0  0  0
   30.7646  -36.0119  -18.2637 C   0  0  0  0  0  0  0  0  0  0  0  0
   31.0539  -36.2562  -19.6944 C   0  0  0  0  0  0  0  0  0  0  0  0
   30.8149  -35.2852  -20.6510 O   0  0  0  0  0  0  0  0  0  0  0  0
   31.5253  -37.3555  -20.0744 O   0  0  0  0  0  0  0  0  0  0  0  0
  1  2  1  0
  2  3  2  0
  4  2  1  0
  5  4  1  0
  6  5  1  0
  6  8  1  0
  6  7  1  6
  8  9  2  0
 10 11  1  0
 11 12  2  0
 12 13  1  0
 14 13  2  0
 14 15  1  0
 16 15  1  1
 16 18  1  0
 17  8  1  0
 17 16  1  0
 18 22  1  0
 19 18  2  0
 20 14  1  0
 21 11  1  0
 21 20  2  0
 22 23  1  0
 24 25  1  0
 24 23  1  0
 26 24  2  0
M  END
$$$$
