QYG.pdb
     RDKit          3D

 26 26  0  0  1  0  0  0  0  0999 V2000
   15.7552  -13.8456  -17.2394 N   0  0  0  0  0  0  0  0  0  0  0  0
   16.6299  -14.3209  -18.2928 C   0  0  0  0  0  0  0  0  0  0  0  0
   16.3389  -15.4172  -18.8059 O   0  0  0  0  0  0  0  0  0  0  0  0
   17.7940  -13.5105  -18.7042 C   0  0  0  0  0  0  0  0  0  0  0  0
   18.0257  -12.2734  -17.9306 C   0  0  0  0  0  0  0  0  0  0  0  0
   19.1555  -12.2518  -16.9733 C   0  0  2  0  0  0  0  0  0  0  0  0
   19.2094  -13.2879  -16.0001 N   0  0  0  0  0  0  0  0  0  0  0  0
   19.3415  -10.9005  -16.3454 C   0  0  0  0  0  0  0  0  0  0  0  0
   18.5193  -10.4913  -15.4850 O   0  0  0  0  0  0  0  0  0  0  0  0
   22.9675   -3.3433  -13.5947 O   0  0  0  0  0  0  0  0  0  0  0  0
   22.6961   -4.6447  -14.0170 C   0  0  0  0  0  0  0  0  0  0  0  0
   23.2466   -5.0767  -15.1991 C   0  0  0  0  0  0  0  0  0  0  0  0
   23.0044   -6.3702  -15.6639 C   0  0  0  0  0  0  0  0  0  0  0  0
   22.2126   -7.2485  -14.9597 C   0  0  0  0  0  0  0  0  0  0  0  0
   21.9337   -8.6194  -15.4357 C   0  0  0  0  0  0  0  0  0  0  0  0
   20.5557   -8.7599  -16.0340 C   0  0  2  0  0  0  0  0  0  0  0  0
   20.4288  -10.0649  -16.6987 N   0  0  0  0  0  0  0  0  0  0  0  0
   20.2715   -7.6979  -17.0297 C   0  0  0  0  0  0  0  0  0  0  0  0
   20.7626   -7.7085  -18.1842 O   0  0  0  0  0  0  0  0  0  0  0  0
   21.6616   -6.7912  -13.7597 C   0  0  0  0  0  0  0  0  0  0  0  0
   21.9078   -5.5116  -13.3104 C   0  0  0  0  0  0  0  0  0  0  0  0
   19.4054   -6.5893  -16.7105 N   0  0  0  0  0  0  0  0  0  0  0  0
   19.2095   -5.4859  -17.6229 C   0  0  0  0  0  0  0  0  0  0  0  0
   18.1892   -5.7872  -18.6517 C   0  0  0  0  0  0  0  0  0  0  0  0
   16.8504   -5.9056  -18.3219 O   0  0  0  0  0  0  0  0  0  0  0  0
   18.5168   -5.9429  -19.8531 O   0  0  0  0  0  0  0  0  0  0  0  0
  1  2  1  0
  2  3  2  0
  4  2  1  0
  5  4  1  0
  6  5  1  0
  6  8  1  0
  6  7  1  1
  8  9  2  0
 10 11  1  0
 11 12  2  0
 12 13  1  0
 14 13  2  0
 14 15  1  0
 16 15  1  6
 16 18  1  0
 17  8  1  0
 17 16  1  0
 18 22  1  0
 19 18  2  0
 20 14  1  0
 21 11  1  0
 21 20  2  0
 22 23  1  0
 24 25  1  0
 24 23  1  0
 26 24  2  0
M  END
$$$$
