QYG.pdb
     RDKit          3D

 26 26  0  0  1  0  0  0  0  0999 V2000
   18.9059  -23.3701  -12.8089 N   0  0  0  0  0  0  0  0  0  0  0  0
   19.8155  -22.8353  -13.8025 C   0  0  0  0  0  0  0  0  0  0  0  0
   20.4924  -23.6628  -14.4405 O   0  0  0  0  0  0  0  0  0  0  0  0
   19.8993  -21.3760  -14.0137 C   0  0  0  0  0  0  0  0  0  0  0  0
   21.2594  -20.7993  -14.0070 C   0  0  0  0  0  0  0  0  0  0  0  0
   22.0514  -20.8974  -12.7593 C   0  0  2  0  0  0  0  0  0  0  0  0
   21.5188  -20.2778  -11.5949 N   0  0  0  0  0  0  0  0  0  0  0  0
   23.4903  -20.5226  -12.9696 C   0  0  0  0  0  0  0  0  0  0  0  0
   23.8254  -19.3097  -12.9856 O   0  0  0  0  0  0  0  0  0  0  0  0
   25.3445  -19.7147   -6.9734 O   0  0  0  0  0  0  0  0  0  0  0  0
   25.6466  -20.2337   -8.2325 C   0  0  0  0  0  0  0  0  0  0  0  0
   26.7710  -19.7764   -8.8756 C   0  0  0  0  0  0  0  0  0  0  0  0
   27.1154  -20.2651  -10.1368 C   0  0  0  0  0  0  0  0  0  0  0  0
   26.3466  -21.2130  -10.7728 C   0  0  0  0  0  0  0  0  0  0  0  0
   26.6851  -21.7386  -12.1117 C   0  0  0  0  0  0  0  0  0  0  0  0
   25.8956  -21.0774  -13.2145 C   0  0  2  0  0  0  0  0  0  0  0  0
   24.4912  -21.5074  -13.1523 N   0  0  0  0  0  0  0  0  0  0  0  0
   26.4288  -21.4129  -14.5573 C   0  0  0  0  0  0  0  0  0  0  0  0
   26.8313  -22.5637  -14.8538 O   0  0  0  0  0  0  0  0  0  0  0  0
   25.2069  -21.6661  -10.1030 C   0  0  0  0  0  0  0  0  0  0  0  0
   24.8766  -21.1764   -8.8576 C   0  0  0  0  0  0  0  0  0  0  0  0
   26.5097  -20.4166  -15.5974 N   0  0  0  0  0  0  0  0  0  0  0  0
   26.9811  -20.7356  -16.9256 C   0  0  0  0  0  0  0  0  0  0  0  0
   26.8677  -19.5848  -17.8493 C   0  0  0  0  0  0  0  0  0  0  0  0
   27.9921  -18.9454  -18.3409 O   0  0  0  0  0  0  0  0  0  0  0  0
   25.7428  -19.1605  -18.2094 O   0  0  0  0  0  0  0  0  0  0  0  0
  1  2  1  0
  2  3  2  0
  4  2  1  0
  5  4  1  0
  6  5  1  0
  6  8  1  0
  6  7  1  1
  8  9  2  0
 10 11  1  0
 11 12  2  0
 12 13  1  0
 14 13  2  0
 14 15  1  0
 16 15  1  1
 16 18  1  0
 17  8  1  0
 17 16  1  0
 18 22  1  0
 19 18  2  0
 20 14  1  0
 21 11  1  0
 21 20  2  0
 22 23  1  0
 24 25  1  0
 24 23  1  0
 26 24  2  0
M  END
$$$$
