QYG.pdb
     RDKit          3D

 26 26  0  0  1  0  0  0  0  0999 V2000
   28.4602  -18.7379  -20.4656 N   0  0  0  0  0  0  0  0  0  0  0  0
   27.1185  -18.3865  -20.0450 C   0  0  0  0  0  0  0  0  0  0  0  0
   26.3100  -18.0975  -20.9465 O   0  0  0  0  0  0  0  0  0  0  0  0
   26.7738  -18.3871  -18.6089 C   0  0  0  0  0  0  0  0  0  0  0  0
   27.8658  -18.7502  -17.6825 C   0  0  0  0  0  0  0  0  0  0  0  0
   28.0384  -20.1796  -17.3355 C   0  0  2  0  0  0  0  0  0  0  0  0
   27.8297  -21.1344  -18.3691 N   0  0  0  0  0  0  0  0  0  0  0  0
   27.2946  -20.5539  -16.0858 C   0  0  0  0  0  0  0  0  0  0  0  0
   26.3206  -21.3481  -16.1510 O   0  0  0  0  0  0  0  0  0  0  0  0
   24.6620  -21.3550   -7.7021 O   0  0  0  0  0  0  0  0  0  0  0  0
   25.3832  -21.0685   -8.8612 C   0  0  0  0  0  0  0  0  0  0  0  0
   25.8653  -19.7937   -9.0329 C   0  0  0  0  0  0  0  0  0  0  0  0
   26.5927  -19.4581  -10.1758 C   0  0  0  0  0  0  0  0  0  0  0  0
   26.8487  -20.3848  -11.1606 C   0  0  0  0  0  0  0  0  0  0  0  0
   27.6078  -20.0512  -12.3837 C   0  0  0  0  0  0  0  0  0  0  0  0
   26.8645  -20.4088  -13.6471 C   0  0  2  0  0  0  0  0  0  0  0  0
   27.6635  -20.0322  -14.8222 N   0  0  0  0  0  0  0  0  0  0  0  0
   25.5528  -19.7216  -13.7332 C   0  0  0  0  0  0  0  0  0  0  0  0
   25.4457  -18.5126  -14.0512 O   0  0  0  0  0  0  0  0  0  0  0  0
   26.3504  -21.6761  -10.9681 C   0  0  0  0  0  0  0  0  0  0  0  0
   25.6334  -21.9963   -9.8353 C   0  0  0  0  0  0  0  0  0  0  0  0
   24.3241  -20.4226  -13.4510 N   0  0  0  0  0  0  0  0  0  0  0  0
   23.0417  -19.7570  -13.4776 C   0  0  0  0  0  0  0  0  0  0  0  0
   21.9398  -20.6522  -13.0595 C   0  0  0  0  0  0  0  0  0  0  0  0
   20.6658  -20.1634  -12.8295 O   0  0  0  0  0  0  0  0  0  0  0  0
   22.1372  -21.8817  -12.9032 O   0  0  0  0  0  0  0  0  0  0  0  0
  1  2  1  0
  2  3  2  0
  4  2  1  0
  5  4  1  0
  6  5  1  0
  6  8  1  0
  6  7  1  6
  8  9  2  0
 10 11  1  0
 11 12  2  0
 12 13  1  0
 14 13  2  0
 14 15  1  0
 16 15  1  1
 16 18  1  0
 17  8  1  0
 17 16  1  0
 18 22  1  0
 19 18  2  0
 20 14  1  0
 21 11  1  0
 21 20  2  0
 22 23  1  0
 24 25  1  0
 24 23  1  0
 26 24  2  0
M  END
$$$$
