RTI.pdb
     RDKit          3D

 27 26  0  0  1  0  0  0  0  0999 V2000
    6.9612  -14.7839   16.5145 N   0  0  0  0  0  0  0  0  0  0  0  0
    8.0700  -13.9154   16.7260 C   0  0  0  0  0  0  0  0  0  0  0  0
    7.8113  -12.6606   16.8395 N   0  0  0  0  0  0  0  0  0  0  0  0
    9.4065  -14.4008   16.8111 N   0  0  0  0  0  0  0  0  0  0  0  0
    9.7132  -15.7868   16.6700 C   0  0  0  0  0  0  0  0  0  0  0  0
    9.8269  -16.5319   17.9895 C   0  0  0  0  0  0  0  0  0  0  0  0
   10.9626  -15.9554   18.7984 C   0  0  0  0  0  0  0  0  0  0  0  0
   11.1950  -16.6583   20.0947 C   0  0  2  0  0  0  0  0  0  0  0  0
   11.1865  -18.0835   19.9667 N   0  0  0  0  0  0  0  0  0  0  0  0
   10.1981  -16.1800   21.0991 C   0  0  0  0  0  0  0  0  0  0  0  0
   10.0656  -14.9369   21.3305 O   0  0  0  0  0  0  0  0  0  0  0  0
    8.5855  -12.0019   17.0615 C   0  0  0  0  0  0  0  0  0  0  0  0
    6.5728  -18.1546   21.9751 C   0  0  2  0  0  0  0  0  0  0  0  0
    7.3829  -17.6850   23.1700 O   0  0  0  0  0  0  0  0  0  0  0  0
    7.9908  -18.7432   23.8042 C   0  0  2  0  0  0  0  0  0  0  0  0
    8.3566  -16.6085   22.7405 N   0  0  0  0  0  0  0  0  0  0  0  0
    9.3621  -17.0619   21.8349 C   0  0  0  0  0  0  0  0  0  0  0  0
    8.9111  -16.0023   23.9785 O   0  0  0  0  0  0  0  0  0  0  0  0
   10.1458  -16.0917   24.1841 C   0  0  0  0  0  0  0  0  0  0  0  0
    6.4237  -11.6486   25.9023 C   0  0  0  0  0  0  0  0  0  0  0  0
    7.5828  -12.5544   25.6571 C   0  0  2  0  0  0  0  0  0  0  0  0
    7.8606  -13.6385   26.6128 C   0  0  0  0  0  0  0  0  0  0  0  0
    8.4465  -12.9188   27.8662 C   0  0  2  0  0  0  0  0  0  0  0  0
    8.7453  -14.7318   26.1840 N   0  0  0  0  0  0  0  0  0  0  0  0
    8.1333  -15.3321   24.9354 C   0  0  0  0  0  0  0  0  0  0  0  0
    8.8894  -15.8729   27.0608 O   0  0  0  0  0  0  0  0  0  0  0  0
    8.0160  -16.8107   27.0206 O   0  0  0  0  0  0  0  0  0  0  0  0
  2  1  1  0
  2  3  2  0
  4  2  1  0
  5  4  1  0
  5  6  1  0
  7  6  1  0
  7  8  1  0
  8  9  1  6
 10  8  1  0
 10 11  2  0
 13 12  1  1
 13 14  1  0
 13 15  1  0
 15 16  1  1
 16 10  1  0
 17 15  1  0
 18 17  2  0
 19 20  1  0
 20 21  1  0
 21 23  1  0
 21 22  1  1
 23 24  1  6
 23 25  1  0
 24 17  1  0
 25 27  1  0
 26 25  2  0
M  END
$$$$
