RTI.pdb
     RDKit          3D

 27 26  0  0  1  0  0  0  0  0999 V2000
    8.7497  -15.6943   16.3541 N   0  0  0  0  0  0  0  0  0  0  0  0
    8.6111  -14.2803   16.2544 C   0  0  0  0  0  0  0  0  0  0  0  0
    8.3807  -13.8006   15.0834 N   0  0  0  0  0  0  0  0  0  0  0  0
    8.7191  -13.4270   17.3898 N   0  0  0  0  0  0  0  0  0  0  0  0
    7.7078  -13.3819   18.3950 C   0  0  0  0  0  0  0  0  0  0  0  0
    6.7403  -14.5529   18.3510 C   0  0  0  0  0  0  0  0  0  0  0  0
    6.5671  -15.1168   19.7397 C   0  0  0  0  0  0  0  0  0  0  0  0
    7.8296  -15.6445   20.3362 C   0  0  2  0  0  0  0  0  0  0  0  0
    8.2451  -16.8854   19.7572 N   0  0  0  0  0  0  0  0  0  0  0  0
    7.6696  -15.7433   21.8181 C   0  0  0  0  0  0  0  0  0  0  0  0
    7.2080  -14.7616   22.4810 O   0  0  0  0  0  0  0  0  0  0  0  0
    8.4358  -12.7719   14.9376 C   0  0  0  0  0  0  0  0  0  0  0  0
    7.0850  -19.4098   23.8091 C   0  0  2  0  0  0  0  0  0  0  0  0
    8.0252  -18.4339   24.4934 O   0  0  0  0  0  0  0  0  0  0  0  0
    9.3328  -18.8463   24.3860 C   0  0  2  0  0  0  0  0  0  0  0  0
    7.7951  -17.0367   23.9584 N   0  0  0  0  0  0  0  0  0  0  0  0
    8.0143  -16.9086   22.5540 C   0  0  0  0  0  0  0  0  0  0  0  0
    8.6314  -16.1152   24.7701 O   0  0  0  0  0  0  0  0  0  0  0  0
    9.6787  -15.6528   24.2562 C   0  0  0  0  0  0  0  0  0  0  0  0
    6.2592  -12.0948   26.9533 C   0  0  0  0  0  0  0  0  0  0  0  0
    7.3925  -12.9135   26.4344 C   0  0  2  0  0  0  0  0  0  0  0  0
    8.1905  -13.7131   27.3775 C   0  0  0  0  0  0  0  0  0  0  0  0
    8.9389  -12.6607   28.2520 C   0  0  2  0  0  0  0  0  0  0  0  0
    9.1368  -14.6948   26.8274 N   0  0  0  0  0  0  0  0  0  0  0  0
    8.3183  -15.7287   26.0824 C   0  0  0  0  0  0  0  0  0  0  0  0
    9.9061  -15.4919   27.7571 O   0  0  0  0  0  0  0  0  0  0  0  0
    9.4326  -16.6104   28.1677 O   0  0  0  0  0  0  0  0  0  0  0  0
  2  1  1  0
  2  3  2  0
  4  2  1  0
  5  4  1  0
  5  6  1  0
  7  6  1  0
  7  8  1  0
  8  9  1  6
 10  8  1  0
 10 11  2  0
 13 12  1  1
 13 14  1  0
 13 15  1  0
 15 16  1  1
 16 10  1  0
 17 15  1  0
 18 17  2  0
 19 20  1  0
 20 21  1  0
 21 23  1  0
 21 22  1  1
 23 24  1  6
 23 25  1  0
 24 17  1  0
 25 27  1  0
 26 25  2  0
M  END
$$$$
