RTI.pdb
     RDKit          3D

 27 26  0  0  1  0  0  0  0  0999 V2000
    9.4836  -15.3676   14.7982 N   0  0  0  0  0  0  0  0  0  0  0  0
    8.5434  -14.3204   15.0173 C   0  0  0  0  0  0  0  0  0  0  0  0
    7.5383  -14.2656   14.2166 N   0  0  0  0  0  0  0  0  0  0  0  0
    8.6967  -13.3733   16.0702 N   0  0  0  0  0  0  0  0  0  0  0  0
    8.5296  -13.7378   17.4392 C   0  0  0  0  0  0  0  0  0  0  0  0
    7.1157  -14.1647   17.7968 C   0  0  0  0  0  0  0  0  0  0  0  0
    6.9465  -14.1449   19.2959 C   0  0  0  0  0  0  0  0  0  0  0  0
    8.0967  -14.7396   20.0388 C   0  0  2  0  0  0  0  0  0  0  0  0
    8.6804  -15.8575   19.3627 N   0  0  0  0  0  0  0  0  0  0  0  0
    7.6599  -15.0882   21.4241 C   0  0  0  0  0  0  0  0  0  0  0  0
    7.0355  -14.2380   22.1337 O   0  0  0  0  0  0  0  0  0  0  0  0
    6.8282  -13.5161   14.3458 C   0  0  0  0  0  0  0  0  0  0  0  0
    7.1439  -18.3779   25.1107 C   0  0  2  0  0  0  0  0  0  0  0  0
    7.6354  -18.1428   23.6938 O   0  0  0  0  0  0  0  0  0  0  0  0
    6.9500  -18.9258   22.7946 C   0  0  1  0  0  0  0  0  0  0  0  0
    7.5739  -16.6662   23.3663 N   0  0  0  0  0  0  0  0  0  0  0  0
    7.9096  -16.3561   22.0143 C   0  0  0  0  0  0  0  0  0  0  0  0
    8.4263  -15.9629   24.3595 O   0  0  0  0  0  0  0  0  0  0  0  0
    9.6138  -15.7037   24.0477 C   0  0  0  0  0  0  0  0  0  0  0  0
    6.5015  -11.5667   26.1518 C   0  0  0  0  0  0  0  0  0  0  0  0
    7.5221  -12.6078   25.8379 C   0  0  2  0  0  0  0  0  0  0  0  0
    7.9535  -13.5323   26.8985 C   0  0  0  0  0  0  0  0  0  0  0  0
    8.6737  -12.6255   27.9432 C   0  0  2  0  0  0  0  0  0  0  0  0
    8.8083  -14.6682   26.5237 N   0  0  0  0  0  0  0  0  0  0  0  0
    7.9805  -15.5689   25.6306 C   0  0  0  0  0  0  0  0  0  0  0  0
    9.2504  -15.5611   27.5720 O   0  0  0  0  0  0  0  0  0  0  0  0
    8.4951  -16.5336   27.9293 O   0  0  0  0  0  0  0  0  0  0  0  0
  2  1  1  0
  2  3  2  0
  4  2  1  0
  5  4  1  0
  5  6  1  0
  7  6  1  0
  7  8  1  0
  8  9  1  6
 10  8  1  0
 10 11  2  0
 13 12  1  1
 13 14  1  0
 13 15  1  0
 15 16  1  1
 16 10  1  0
 17 15  1  0
 18 17  2  0
 19 20  1  0
 20 21  1  0
 21 23  1  0
 21 22  1  1
 23 24  1  6
 23 25  1  0
 24 17  1  0
 25 27  1  0
 26 25  2  0
M  END
$$$$
