RTI.pdb
     RDKit          3D

 27 26  0  0  1  0  0  0  0  0999 V2000
    8.9744  -14.6096   13.8306 N   0  0  0  0  0  0  0  0  0  0  0  0
    7.8149  -13.7861   13.9092 C   0  0  0  0  0  0  0  0  0  0  0  0
    7.3439  -13.3391   12.7990 N   0  0  0  0  0  0  0  0  0  0  0  0
    7.1962  -13.4665   15.1518 N   0  0  0  0  0  0  0  0  0  0  0  0
    7.4234  -14.2435   16.3264 C   0  0  0  0  0  0  0  0  0  0  0  0
    8.7822  -14.0129   16.9665 C   0  0  0  0  0  0  0  0  0  0  0  0
    8.6101  -13.7859   18.4481 C   0  0  0  0  0  0  0  0  0  0  0  0
    9.4245  -14.7059   19.2960 C   0  0  2  0  0  0  0  0  0  0  0  0
    9.8107  -15.9016   18.6113 N   0  0  0  0  0  0  0  0  0  0  0  0
    8.6814  -14.9982   20.5584 C   0  0  0  0  0  0  0  0  0  0  0  0
    7.7232  -14.2487   20.9277 O   0  0  0  0  0  0  0  0  0  0  0  0
    6.4062  -12.8882   12.7917 C   0  0  0  0  0  0  0  0  0  0  0  0
    7.5395  -18.6515   21.9148 C   0  0  2  0  0  0  0  0  0  0  0  0
    8.2728  -17.8538   22.9780 O   0  0  0  0  0  0  0  0  0  0  0  0
    9.5291  -18.3657   23.2041 C   0  0  2  0  0  0  0  0  0  0  0  0
    8.2853  -16.3872   22.6037 N   0  0  0  0  0  0  0  0  0  0  0  0
    8.9932  -16.1010   21.3980 C   0  0  0  0  0  0  0  0  0  0  0  0
    8.8021  -15.6409   23.7798 O   0  0  0  0  0  0  0  0  0  0  0  0
    9.9779  -15.2043   23.7385 C   0  0  0  0  0  0  0  0  0  0  0  0
    6.9277  -11.1140   27.1541 C   0  0  0  0  0  0  0  0  0  0  0  0
    7.8394  -12.2931   27.1027 C   0  0  2  0  0  0  0  0  0  0  0  0
    7.5973  -13.3438   26.1012 C   0  0  0  0  0  0  0  0  0  0  0  0
    6.1592  -13.8611   26.4118 C   0  0  2  0  0  0  0  0  0  0  0  0
    8.5455  -14.4652   26.0287 N   0  0  0  0  0  0  0  0  0  0  0  0
    8.0505  -15.3932   24.9389 C   0  0  0  0  0  0  0  0  0  0  0  0
    8.6562  -15.3367   27.1775 O   0  0  0  0  0  0  0  0  0  0  0  0
    7.9321  -16.3931   27.2372 O   0  0  0  0  0  0  0  0  0  0  0  0
  2  1  1  0
  2  3  2  0
  4  2  1  0
  5  4  1  0
  5  6  1  0
  7  6  1  0
  7  8  1  0
  8  9  1  6
 10  8  1  0
 10 11  2  0
 13 12  1  1
 13 14  1  0
 13 15  1  0
 15 16  1  1
 16 10  1  0
 17 15  1  0
 18 17  2  0
 19 20  1  0
 20 21  1  0
 21 23  1  0
 21 22  1  6
 23 24  1  1
 23 25  1  0
 24 17  1  0
 25 27  1  0
 26 25  2  0
M  END
$$$$
