RTI.pdb
     RDKit          3D

 27 26  0  0  1  0  0  0  0  0999 V2000
    9.0170  -12.7221   17.7878 N   0  0  0  0  0  0  0  0  0  0  0  0
    8.6632  -12.3475   19.1156 C   0  0  0  0  0  0  0  0  0  0  0  0
    9.3813  -11.4377   19.6731 N   0  0  0  0  0  0  0  0  0  0  0  0
    7.5676  -12.9433   19.8038 N   0  0  0  0  0  0  0  0  0  0  0  0
    6.7903  -13.9867   19.2189 C   0  0  0  0  0  0  0  0  0  0  0  0
    7.4610  -15.3499   19.2527 C   0  0  0  0  0  0  0  0  0  0  0  0
    7.4890  -15.8636   20.6710 C   0  0  0  0  0  0  0  0  0  0  0  0
    8.1633  -17.1873   20.8179 C   0  0  2  0  0  0  0  0  0  0  0  0
    7.4947  -18.2364   20.1108 N   0  0  0  0  0  0  0  0  0  0  0  0
    8.3194  -17.5012   22.2700 C   0  0  0  0  0  0  0  0  0  0  0  0
    7.3132  -17.8535   22.9626 O   0  0  0  0  0  0  0  0  0  0  0  0
    9.1696  -11.1541   20.6515 C   0  0  0  0  0  0  0  0  0  0  0  0
   10.6952  -18.9794   26.1947 C   0  0  2  0  0  0  0  0  0  0  0  0
   10.7435  -18.6945   24.7044 O   0  0  0  0  0  0  0  0  0  0  0  0
   10.6165  -19.8525   23.9735 C   0  0  1  0  0  0  0  0  0  0  0  0
    9.7101  -17.6477   24.3470 N   0  0  0  0  0  0  0  0  0  0  0  0
    9.5676  -17.4267   22.9443 C   0  0  0  0  0  0  0  0  0  0  0  0
   10.0559  -16.4168   25.1036 O   0  0  0  0  0  0  0  0  0  0  0  0
   10.9578  -15.6719   24.6491 C   0  0  0  0  0  0  0  0  0  0  0  0
    6.8307  -12.6495   25.8663 C   0  0  0  0  0  0  0  0  0  0  0  0
    8.1078  -13.4193   25.8457 C   0  0  2  0  0  0  0  0  0  0  0  0
    8.6701  -13.9101   27.1141 C   0  0  0  0  0  0  0  0  0  0  0  0
    8.9899  -12.6196   27.9293 C   0  0  2  0  0  0  0  0  0  0  0  0
    9.8463  -14.7903   27.0573 N   0  0  0  0  0  0  0  0  0  0  0  0
    9.4311  -16.0352   26.3010 C   0  0  0  0  0  0  0  0  0  0  0  0
   10.3610  -15.3179   28.3016 O   0  0  0  0  0  0  0  0  0  0  0  0
    9.8278  -16.3686   28.8072 O   0  0  0  0  0  0  0  0  0  0  0  0
  2  1  1  0
  2  3  2  0
  4  2  1  0
  5  4  1  0
  5  6  1  0
  7  6  1  0
  7  8  1  0
  8  9  1  6
 10  8  1  0
 10 11  2  0
 13 12  1  1
 13 14  1  0
 13 15  1  0
 15 16  1  6
 16 10  1  0
 17 15  1  0
 18 17  2  0
 19 20  1  0
 20 21  1  0
 21 23  1  0
 21 22  1  1
 23 24  1  6
 23 25  1  0
 24 17  1  0
 25 27  1  0
 26 25  2  0
M  END
$$$$
