RTI.pdb
     RDKit          3D

 27 26  0  0  1  0  0  0  0  0999 V2000
    8.4142  -13.9988   14.3610 N   0  0  0  0  0  0  0  0  0  0  0  0
    8.9872  -14.9586   15.2436 C   0  0  0  0  0  0  0  0  0  0  0  0
    9.1504  -16.1477   14.7815 N   0  0  0  0  0  0  0  0  0  0  0  0
    9.3670  -14.6296   16.5765 N   0  0  0  0  0  0  0  0  0  0  0  0
    8.9248  -13.4302   17.2097 C   0  0  0  0  0  0  0  0  0  0  0  0
    7.4667  -13.4584   17.6367 C   0  0  0  0  0  0  0  0  0  0  0  0
    7.3737  -13.8556   19.0892 C   0  0  0  0  0  0  0  0  0  0  0  0
    8.0020  -15.1752   19.3932 C   0  0  2  0  0  0  0  0  0  0  0  0
    7.6650  -16.1873   18.4394 N   0  0  0  0  0  0  0  0  0  0  0  0
    7.6483  -15.5788   20.7872 C   0  0  0  0  0  0  0  0  0  0  0  0
    6.4585  -15.4408   21.2134 O   0  0  0  0  0  0  0  0  0  0  0  0
    9.5900  -16.8706   15.3872 C   0  0  0  0  0  0  0  0  0  0  0  0
    7.9480  -18.9199   22.4821 C   0  0  2  0  0  0  0  0  0  0  0  0
    8.6786  -17.9319   23.3735 O   0  0  0  0  0  0  0  0  0  0  0  0
   10.0392  -18.1247   23.3171 C   0  0  2  0  0  0  0  0  0  0  0  0
    8.2619  -16.5189   23.0253 N   0  0  0  0  0  0  0  0  0  0  0  0
    8.5949  -16.1260   21.6943 C   0  0  0  0  0  0  0  0  0  0  0  0
    8.8382  -15.6256   24.0632 O   0  0  0  0  0  0  0  0  0  0  0  0
    9.9106  -15.0270   23.8051 C   0  0  0  0  0  0  0  0  0  0  0  0
    6.0242  -11.7909   26.0011 C   0  0  0  0  0  0  0  0  0  0  0  0
    7.2113  -12.6320   25.6735 C   0  0  2  0  0  0  0  0  0  0  0  0
    7.7742  -13.5128   26.7093 C   0  0  0  0  0  0  0  0  0  0  0  0
    8.2665  -12.5428   27.8270 C   0  0  2  0  0  0  0  0  0  0  0  0
    8.8460  -14.4421   26.3226 N   0  0  0  0  0  0  0  0  0  0  0  0
    8.2520  -15.4095   25.3199 C   0  0  0  0  0  0  0  0  0  0  0  0
    9.3884  -15.3150   27.3401 O   0  0  0  0  0  0  0  0  0  0  0  0
    8.8278  -16.4466   27.5617 O   0  0  0  0  0  0  0  0  0  0  0  0
  2  1  1  0
  2  3  2  0
  4  2  1  0
  5  4  1  0
  5  6  1  0
  7  6  1  0
  7  8  1  0
  8  9  1  6
 10  8  1  0
 10 11  2  0
 13 12  1  1
 13 14  1  0
 13 15  1  0
 15 16  1  1
 16 10  1  0
 17 15  1  0
 18 17  2  0
 19 20  1  0
 20 21  1  0
 21 23  1  0
 21 22  1  1
 23 24  1  6
 23 25  1  0
 24 17  1  0
 25 27  1  0
 26 25  2  0
M  END
$$$$
