ARE.pdb
     RDKit          3D

 26 25  0  0  1  0  0  0  0  0999 V2000
    7.9822  -18.9698   26.8139 C   0  0  0  0  0  0  0  0  0  0  0  0
    7.2568  -19.1305   25.5148 C   0  0  2  0  0  0  0  0  0  0  0  0
    6.9300  -20.5115   25.2282 N   0  0  0  0  0  0  0  0  0  0  0  0
    7.9354  -18.4770   24.3790 C   0  0  0  0  0  0  0  0  0  0  0  0
    8.7720  -19.1544   23.7283 O   0  0  0  0  0  0  0  0  0  0  0  0
    8.0756  -15.1020   18.1735 N   0  0  0  0  0  0  0  0  0  0  0  0
    8.2377  -13.6861   18.2244 C   0  0  0  0  0  0  0  0  0  0  0  0
    8.7139  -13.0653   17.1910 N   0  0  0  0  0  0  0  0  0  0  0  0
    7.8717  -13.0037   19.4059 N   0  0  0  0  0  0  0  0  0  0  0  0
    7.2073  -13.6839   20.4854 C   0  0  0  0  0  0  0  0  0  0  0  0
    8.1323  -14.6329   21.1570 C   0  0  0  0  0  0  0  0  0  0  0  0
    7.5805  -15.4126   22.2747 C   0  0  0  0  0  0  0  0  0  0  0  0
    8.3982  -16.5144   22.8413 C   0  0  2  0  0  0  0  0  0  0  0  0
    7.6987  -17.1378   23.9832 N   0  0  0  0  0  0  0  0  0  0  0  0
    9.7059  -15.9702   23.2982 C   0  0  0  0  0  0  0  0  0  0  0  0
    9.8311  -15.5080   24.4565 O   0  0  0  0  0  0  0  0  0  0  0  0
    8.8511  -13.6059   16.3172 N   0  0  0  0  0  0  0  0  0  0  0  0
   10.8505  -15.9516   22.4539 C   0  0  2  0  0  0  0  0  0  0  0  0
   12.1881  -15.8782   23.0687 C   0  0  0  0  0  0  0  0  0  0  0  0
   12.3021  -16.9858   24.1002 C   0  0  0  0  0  0  0  0  0  0  0  0
   13.6637  -17.0996   24.7138 C   0  0  0  0  0  0  0  0  0  0  0  0
   13.6821  -18.2762   25.6533 O   0  0  0  0  0  0  0  0  0  0  0  0
   14.7154  -18.5613   26.2998 C   0  0  0  0  0  0  0  0  0  0  0  0
   13.2358  -15.8922   22.0502 O   0  0  0  0  0  0  0  0  0  0  0  0
   14.5252  -15.4352   22.2165 O   0  0  0  0  0  0  0  0  0  0  0  0
   12.5357  -19.0295   25.7833 O   0  0  0  0  0  0  0  0  0  0  0  0
  2  1  1  1
  2  3  1  0
  4  5  2  0
  4  2  1  0
  6  7  1  0
  7  8  2  0
  7  9  1  0
  9 10  1  0
 10 11  1  0
 13 12  1  1
 12 11  1  0
 13 14  1  0
 14  4  1  0
 15 17  1  0
 15 13  1  0
 16 15  2  0
 18 19  1  6
 18 17  1  0
 19 20  1  0
 20 21  1  0
 21 22  2  0
 23 18  1  0
 24 23  1  0
 25 21  1  0
 26 23  2  0
M  END
$$$$
