ARE.pdb
     RDKit          3D

 26 25  0  0  1  0  0  0  0  0999 V2000
    7.8701  -15.7455   17.0320 C   0  0  0  0  0  0  0  0  0  0  0  0
    7.4721  -14.4492   17.6649 C   0  0  2  0  0  0  0  0  0  0  0  0
    7.5457  -13.3352   16.7432 N   0  0  0  0  0  0  0  0  0  0  0  0
    8.1843  -14.1692   18.9267 C   0  0  0  0  0  0  0  0  0  0  0  0
    9.3109  -13.6148   18.8526 O   0  0  0  0  0  0  0  0  0  0  0  0
    8.8633  -16.1081   26.3606 N   0  0  0  0  0  0  0  0  0  0  0  0
    7.7631  -16.8866   25.8945 C   0  0  0  0  0  0  0  0  0  0  0  0
    7.6121  -18.0968   26.3338 N   0  0  0  0  0  0  0  0  0  0  0  0
    6.8698  -16.3098   24.9646 N   0  0  0  0  0  0  0  0  0  0  0  0
    6.9888  -16.5704   23.5549 C   0  0  0  0  0  0  0  0  0  0  0  0
    6.5794  -15.3810   22.7642 C   0  0  0  0  0  0  0  0  0  0  0  0
    7.5716  -14.3043   22.6304 C   0  0  0  0  0  0  0  0  0  0  0  0
    8.4631  -14.3061   21.4435 C   0  0  2  0  0  0  0  0  0  0  0  0
    7.6732  -14.4879   20.2086 N   0  0  0  0  0  0  0  0  0  0  0  0
    9.4471  -15.4153   21.5704 C   0  0  0  0  0  0  0  0  0  0  0  0
    9.2261  -16.5246   21.0305 O   0  0  0  0  0  0  0  0  0  0  0  0
    6.8139  -18.6509   25.9731 N   0  0  0  0  0  0  0  0  0  0  0  0
   10.6605  -15.2664   22.2977 C   0  0  2  0  0  0  0  0  0  0  0  0
   11.5849  -16.4112   22.3831 C   0  0  0  0  0  0  0  0  0  0  0  0
   12.9895  -15.8772   22.5977 C   0  0  0  0  0  0  0  0  0  0  0  0
   14.0204  -16.9488   22.7777 C   0  0  0  0  0  0  0  0  0  0  0  0
   15.3750  -16.3074   22.9229 O   0  0  0  0  0  0  0  0  0  0  0  0
   15.4938  -15.0613   22.9342 C   0  0  0  0  0  0  0  0  0  0  0  0
   11.1428  -17.3690   23.3942 O   0  0  0  0  0  0  0  0  0  0  0  0
   11.2750  -18.7385   23.3171 O   0  0  0  0  0  0  0  0  0  0  0  0
   16.4779  -17.1246   23.0425 O   0  0  0  0  0  0  0  0  0  0  0  0
  2  1  1  6
  2  3  1  0
  4  5  2  0
  4  2  1  0
  6  7  1  0
  7  8  2  0
  7  9  1  0
  9 10  1  0
 10 11  1  0
 13 12  1  1
 12 11  1  0
 13 14  1  0
 14  4  1  0
 15 17  1  0
 15 13  1  0
 16 15  2  0
 18 19  1  1
 18 17  1  0
 19 20  1  0
 20 21  1  0
 21 22  2  0
 23 18  1  0
 24 23  1  0
 25 21  1  0
 26 23  2  0
M  END
$$$$
