ARE.pdb
     RDKit          3D

 26 25  0  0  1  0  0  0  0  0999 V2000
   13.9437  -16.8322   17.8478 C   0  0  0  0  0  0  0  0  0  0  0  0
   13.5989  -15.3990   18.1059 C   0  0  2  0  0  0  0  0  0  0  0  0
   14.7147  -14.5076   17.8683 N   0  0  0  0  0  0  0  0  0  0  0  0
   12.9836  -15.1724   19.4280 C   0  0  0  0  0  0  0  0  0  0  0  0
   13.7250  -14.7578   20.3555 O   0  0  0  0  0  0  0  0  0  0  0  0
    8.1882  -14.0206   16.4627 N   0  0  0  0  0  0  0  0  0  0  0  0
    7.8645  -13.0146   17.4202 C   0  0  0  0  0  0  0  0  0  0  0  0
    8.2041  -11.7855   17.1874 N   0  0  0  0  0  0  0  0  0  0  0  0
    7.1808  -13.3933   18.5970 N   0  0  0  0  0  0  0  0  0  0  0  0
    7.6578  -14.4695   19.4237 C   0  0  0  0  0  0  0  0  0  0  0  0
    8.9179  -14.0856   20.1107 C   0  0  0  0  0  0  0  0  0  0  0  0
    9.5467  -15.1104   20.9570 C   0  0  0  0  0  0  0  0  0  0  0  0
   11.0282  -15.1470   21.0423 C   0  0  2  0  0  0  0  0  0  0  0  0
   11.6132  -15.3945   19.7088 N   0  0  0  0  0  0  0  0  0  0  0  0
   11.4395  -16.2327   21.9734 C   0  0  0  0  0  0  0  0  0  0  0  0
   12.1208  -17.1997   21.5592 O   0  0  0  0  0  0  0  0  0  0  0  0
    8.0564  -11.0874   17.9393 N   0  0  0  0  0  0  0  0  0  0  0  0
   11.0830  -16.2194   23.3505 C   0  0  2  0  0  0  0  0  0  0  0  0
   11.8928  -16.9994   24.3035 C   0  0  0  0  0  0  0  0  0  0  0  0
   13.3007  -16.4323   24.3114 C   0  0  0  0  0  0  0  0  0  0  0  0
   14.3384  -17.3892   23.8103 C   0  0  0  0  0  0  0  0  0  0  0  0
   15.6910  -16.7323   23.8894 O   0  0  0  0  0  0  0  0  0  0  0  0
   16.0029  -16.0293   24.8771 C   0  0  0  0  0  0  0  0  0  0  0  0
   11.2551  -17.0489   25.6173 O   0  0  0  0  0  0  0  0  0  0  0  0
   11.3730  -18.0741   26.5305 O   0  0  0  0  0  0  0  0  0  0  0  0
   16.5748  -16.9239   22.8498 O   0  0  0  0  0  0  0  0  0  0  0  0
  2  1  1  1
  2  3  1  0
  4  5  2  0
  4  2  1  0
  6  7  1  0
  7  8  2  0
  7  9  1  0
  9 10  1  0
 10 11  1  0
 13 12  1  6
 12 11  1  0
 13 14  1  0
 14  4  1  0
 15 17  1  0
 15 13  1  0
 16 15  2  0
 18 19  1  6
 18 17  1  0
 19 20  1  0
 20 21  1  0
 21 22  2  0
 23 18  1  0
 24 23  1  0
 25 21  1  0
 26 23  2  0
M  END
$$$$
