ARE.pdb
     RDKit          3D

 26 25  0  0  1  0  0  0  0  0999 V2000
  -11.0505  -23.0912   22.8200 C   0  0  0  0  0  0  0  0  0  0  0  0
  -10.5782  -24.4356   23.2773 C   0  0  2  0  0  0  0  0  0  0  0  0
  -11.6496  -25.2478   23.8145 N   0  0  0  0  0  0  0  0  0  0  0  0
   -9.4224  -24.3714   24.1926 C   0  0  0  0  0  0  0  0  0  0  0  0
   -8.3933  -23.7675   23.7948 O   0  0  0  0  0  0  0  0  0  0  0  0
  -10.7229  -24.2918   32.5630 N   0  0  0  0  0  0  0  0  0  0  0  0
  -11.0546  -23.1890   31.7218 C   0  0  0  0  0  0  0  0  0  0  0  0
  -11.7768  -22.2236   32.1980 N   0  0  0  0  0  0  0  0  0  0  0  0
  -10.5825  -23.1856   30.3904 N   0  0  0  0  0  0  0  0  0  0  0  0
   -9.8440  -24.2991   29.8575 C   0  0  0  0  0  0  0  0  0  0  0  0
   -9.4774  -24.0558   28.4384 C   0  0  0  0  0  0  0  0  0  0  0  0
   -8.6401  -25.0750   27.7892 C   0  0  0  0  0  0  0  0  0  0  0  0
   -8.2328  -24.8628   26.3775 C   0  0  2  0  0  0  0  0  0  0  0  0
   -9.4074  -24.9484   25.4861 N   0  0  0  0  0  0  0  0  0  0  0  0
   -7.2406  -25.9026   25.9913 C   0  0  0  0  0  0  0  0  0  0  0  0
   -7.6196  -26.9834   25.4822 O   0  0  0  0  0  0  0  0  0  0  0  0
  -11.9532  -21.4013   31.5922 N   0  0  0  0  0  0  0  0  0  0  0  0
   -5.8430  -25.7174   26.1804 C   0  0  1  0  0  0  0  0  0  0  0  0
   -4.9131  -26.7389   25.6665 C   0  0  0  0  0  0  0  0  0  0  0  0
   -5.1491  -26.8940   24.1751 C   0  0  0  0  0  0  0  0  0  0  0  0
   -4.1804  -27.8191   23.5048 C   0  0  0  0  0  0  0  0  0  0  0  0
   -4.4438  -27.8157   22.0223 O   0  0  0  0  0  0  0  0  0  0  0  0
   -3.5235  -27.5680   21.2106 C   0  0  0  0  0  0  0  0  0  0  0  0
   -3.5332  -26.4232   26.0291 O   0  0  0  0  0  0  0  0  0  0  0  0
   -2.4513  -27.2644   25.8855 O   0  0  0  0  0  0  0  0  0  0  0  0
   -5.7201  -28.0915   21.5824 O   0  0  0  0  0  0  0  0  0  0  0  0
  2  1  1  1
  2  3  1  0
  4  5  2  0
  4  2  1  0
  6  7  1  0
  7  8  2  0
  7  9  1  0
  9 10  1  0
 10 11  1  0
 13 12  1  1
 12 11  1  0
 13 14  1  0
 14  4  1  0
 15 17  1  0
 15 13  1  0
 16 15  2  0
 18 19  1  1
 18 17  1  0
 19 20  1  0
 20 21  1  0
 21 22  2  0
 23 18  1  0
 24 23  1  0
 25 21  1  0
 26 23  2  0
M  END
$$$$
