ARE.pdb
     RDKit          3D

 26 25  0  0  1  0  0  0  0  0999 V2000
    9.1774  -12.6142   17.9391 C   0  0  0  0  0  0  0  0  0  0  0  0
    8.0316  -13.0973   18.7718 C   0  0  2  0  0  0  0  0  0  0  0  0
    7.4395  -12.0425   19.5674 N   0  0  0  0  0  0  0  0  0  0  0  0
    8.3568  -14.2851   19.5848 C   0  0  0  0  0  0  0  0  0  0  0  0
    8.7199  -14.0989   20.7746 O   0  0  0  0  0  0  0  0  0  0  0  0
    7.4296  -22.6092   19.1249 N   0  0  0  0  0  0  0  0  0  0  0  0
    8.1261  -22.4435   20.3582 C   0  0  0  0  0  0  0  0  0  0  0  0
    8.9953  -23.3346   20.7197 N   0  0  0  0  0  0  0  0  0  0  0  0
    7.8440  -21.3074   21.1490 N   0  0  0  0  0  0  0  0  0  0  0  0
    7.3374  -20.0961   20.5614 C   0  0  0  0  0  0  0  0  0  0  0  0
    8.4360  -19.3168   19.9344 C   0  0  0  0  0  0  0  0  0  0  0  0
    8.0698  -18.0254   19.3344 C   0  0  0  0  0  0  0  0  0  0  0  0
    8.5980  -16.7828   19.9511 C   0  0  2  0  0  0  0  0  0  0  0  0
    8.2834  -15.6151   19.1030 N   0  0  0  0  0  0  0  0  0  0  0  0
   10.0736  -16.9002   20.1053 C   0  0  0  0  0  0  0  0  0  0  0  0
   10.8087  -17.0286   19.0983 O   0  0  0  0  0  0  0  0  0  0  0  0
    9.5025  -23.1880   21.6117 N   0  0  0  0  0  0  0  0  0  0  0  0
   10.7023  -16.8723   21.3810 C   0  0  1  0  0  0  0  0  0  0  0  0
   12.1725  -16.9483   21.4524 C   0  0  0  0  0  0  0  0  0  0  0  0
   12.7515  -15.8641   20.5619 C   0  0  0  0  0  0  0  0  0  0  0  0
   14.2489  -15.8299   20.5504 C   0  0  0  0  0  0  0  0  0  0  0  0
   14.7088  -14.7904   19.5628 O   0  0  0  0  0  0  0  0  0  0  0  0
   13.8812  -14.1640   18.8630 C   0  0  0  0  0  0  0  0  0  0  0  0
   12.6342  -16.9012   22.8380 O   0  0  0  0  0  0  0  0  0  0  0  0
   13.9050  -17.2089   23.2731 O   0  0  0  0  0  0  0  0  0  0  0  0
   16.0601  -14.5466   19.4489 O   0  0  0  0  0  0  0  0  0  0  0  0
  2  1  1  1
  2  3  1  0
  4  5  2  0
  4  2  1  0
  6  7  1  0
  7  8  2  0
  7  9  1  0
  9 10  1  0
 10 11  1  0
 13 12  1  6
 12 11  1  0
 13 14  1  0
 14  4  1  0
 15 17  1  0
 15 13  1  0
 16 15  2  0
 18 19  1  1
 18 17  1  0
 19 20  1  0
 20 21  1  0
 21 22  2  0
 23 18  1  0
 24 23  1  0
 25 21  1  0
 26 23  2  0
M  END
$$$$
