ARE.pdb
     RDKit          3D

 26 25  0  0  1  0  0  0  0  0999 V2000
   10.1504  -20.6419   23.7880 C   0  0  0  0  0  0  0  0  0  0  0  0
    9.4091  -19.3750   24.0792 C   0  0  2  0  0  0  0  0  0  0  0  0
    8.0825  -19.6161   24.6065 N   0  0  0  0  0  0  0  0  0  0  0  0
    9.3883  -18.4330   22.9434 C   0  0  0  0  0  0  0  0  0  0  0  0
    9.9103  -18.8078   21.8622 O   0  0  0  0  0  0  0  0  0  0  0  0
    8.6391  -13.6779   16.4942 N   0  0  0  0  0  0  0  0  0  0  0  0
    8.7414  -13.2240   17.8423 C   0  0  0  0  0  0  0  0  0  0  0  0
    9.8311  -12.6414   18.2338 N   0  0  0  0  0  0  0  0  0  0  0  0
    7.6456  -13.4256   18.7107 N   0  0  0  0  0  0  0  0  0  0  0  0
    7.6137  -14.5339   19.6273 C   0  0  0  0  0  0  0  0  0  0  0  0
    7.7725  -14.0625   21.0273 C   0  0  0  0  0  0  0  0  0  0  0  0
    7.8841  -15.0992   22.0639 C   0  0  0  0  0  0  0  0  0  0  0  0
    8.8556  -16.2029   21.8601 C   0  0  2  0  0  0  0  0  0  0  0  0
    8.8169  -17.1383   23.0025 N   0  0  0  0  0  0  0  0  0  0  0  0
   10.2247  -15.6341   21.7312 C   0  0  0  0  0  0  0  0  0  0  0  0
   10.6850  -14.8802   22.6203 O   0  0  0  0  0  0  0  0  0  0  0  0
    9.8734  -12.2889   19.2076 N   0  0  0  0  0  0  0  0  0  0  0  0
   11.0558  -15.9172   20.6119 C   0  0  1  0  0  0  0  0  0  0  0  0
   12.3805  -15.2764   20.5281 C   0  0  0  0  0  0  0  0  0  0  0  0
   13.4321  -16.2980   20.9210 C   0  0  0  0  0  0  0  0  0  0  0  0
   13.5991  -16.4517   22.4015 C   0  0  0  0  0  0  0  0  0  0  0  0
   14.7043  -17.4383   22.6711 O   0  0  0  0  0  0  0  0  0  0  0  0
   14.4488  -18.5725   23.1350 C   0  0  0  0  0  0  0  0  0  0  0  0
   12.5889  -14.6709   19.2147 O   0  0  0  0  0  0  0  0  0  0  0  0
   13.4440  -13.6266   18.9370 O   0  0  0  0  0  0  0  0  0  0  0  0
   16.0007  -17.0622   22.3950 O   0  0  0  0  0  0  0  0  0  0  0  0
  2  1  1  6
  2  3  1  0
  4  5  2  0
  4  2  1  0
  6  7  1  0
  7  8  2  0
  7  9  1  0
  9 10  1  0
 10 11  1  0
 13 12  1  1
 12 11  1  0
 13 14  1  0
 14  4  1  0
 15 17  1  0
 15 13  1  0
 16 15  2  0
 18 19  1  6
 18 17  1  0
 19 20  1  0
 20 21  1  0
 21 22  2  0
 23 18  1  0
 24 23  1  0
 25 21  1  0
 26 23  2  0
M  END
$$$$
