ARE.pdb
     RDKit          3D

 26 25  0  0  1  0  0  0  0  0999 V2000
   11.8268  -18.2694   16.1559 C   0  0  0  0  0  0  0  0  0  0  0  0
   12.0115  -18.8514   17.5222 C   0  0  2  0  0  0  0  0  0  0  0  0
   11.0234  -19.8628   17.8334 N   0  0  0  0  0  0  0  0  0  0  0  0
   12.1120  -17.8327   18.5852 C   0  0  0  0  0  0  0  0  0  0  0  0
   13.0719  -17.0218   18.5303 O   0  0  0  0  0  0  0  0  0  0  0  0
    6.0403  -13.0838   19.2960 N   0  0  0  0  0  0  0  0  0  0  0  0
    7.2468  -13.2763   18.5603 C   0  0  0  0  0  0  0  0  0  0  0  0
    7.1837  -13.7258   17.3462 N   0  0  0  0  0  0  0  0  0  0  0  0
    8.4770  -12.9688   19.1828 N   0  0  0  0  0  0  0  0  0  0  0  0
    8.9802  -13.7606   20.2733 C   0  0  0  0  0  0  0  0  0  0  0  0
    9.3095  -15.1354   19.8162 C   0  0  0  0  0  0  0  0  0  0  0  0
    9.8639  -16.0508   20.8243 C   0  0  0  0  0  0  0  0  0  0  0  0
   11.2296  -16.5931   20.6138 C   0  0  2  0  0  0  0  0  0  0  0  0
   11.1934  -17.7180   19.6573 N   0  0  0  0  0  0  0  0  0  0  0  0
   11.7758  -17.0660   21.9149 C   0  0  0  0  0  0  0  0  0  0  0  0
   11.2903  -18.0751   22.4778 O   0  0  0  0  0  0  0  0  0  0  0  0
    8.0731  -13.9235   16.8520 N   0  0  0  0  0  0  0  0  0  0  0  0
   12.8545  -16.4041   22.5644 C   0  0  2  0  0  0  0  0  0  0  0  0
   13.3599  -16.9467   23.8381 C   0  0  0  0  0  0  0  0  0  0  0  0
   14.7653  -16.4177   24.0595 C   0  0  0  0  0  0  0  0  0  0  0  0
   15.7351  -16.8182   22.9906 C   0  0  0  0  0  0  0  0  0  0  0  0
   17.0890  -16.2452   23.3162 O   0  0  0  0  0  0  0  0  0  0  0  0
   17.2556  -15.5409   24.3376 C   0  0  0  0  0  0  0  0  0  0  0  0
   12.4319  -16.6696   24.9322 O   0  0  0  0  0  0  0  0  0  0  0  0
   12.3742  -17.3494   26.1295 O   0  0  0  0  0  0  0  0  0  0  0  0
   18.1373  -16.5148   22.4638 O   0  0  0  0  0  0  0  0  0  0  0  0
  2  1  1  6
  2  3  1  0
  4  5  2  0
  4  2  1  0
  6  7  1  0
  7  8  2  0
  7  9  1  0
  9 10  1  0
 10 11  1  0
 13 12  1  1
 12 11  1  0
 13 14  1  0
 14  4  1  0
 15 17  1  0
 15 13  1  0
 16 15  2  0
 18 19  1  6
 18 17  1  0
 19 20  1  0
 20 21  1  0
 21 22  2  0
 23 18  1  0
 24 23  1  0
 25 21  1  0
 26 23  2  0
M  END
$$$$
