ARE.pdb
     RDKit          3D

 26 25  0  0  1  0  0  0  0  0999 V2000
    8.3372  -12.0265   20.1929 C   0  0  0  0  0  0  0  0  0  0  0  0
    8.2214  -13.4121   19.6395 C   0  0  2  0  0  0  0  0  0  0  0  0
    7.0935  -13.5602   18.7440 N   0  0  0  0  0  0  0  0  0  0  0  0
    8.2440  -14.4618   20.6765 C   0  0  0  0  0  0  0  0  0  0  0  0
    7.1581  -14.7494   21.2423 O   0  0  0  0  0  0  0  0  0  0  0  0
   10.6395  -18.5409   17.7513 N   0  0  0  0  0  0  0  0  0  0  0  0
    9.4356  -19.2843   17.5736 C   0  0  0  0  0  0  0  0  0  0  0  0
    9.3815  -20.1910   16.6488 N   0  0  0  0  0  0  0  0  0  0  0  0
    8.3363  -19.0063   18.4161 N   0  0  0  0  0  0  0  0  0  0  0  0
    8.3664  -17.9078   19.3444 C   0  0  0  0  0  0  0  0  0  0  0  0
    8.8134  -18.3653   20.6854 C   0  0  0  0  0  0  0  0  0  0  0  0
    9.8221  -17.5373   21.3626 C   0  0  0  0  0  0  0  0  0  0  0  0
    9.3811  -16.2839   22.0246 C   0  0  2  0  0  0  0  0  0  0  0  0
    9.4131  -15.1593   21.0676 N   0  0  0  0  0  0  0  0  0  0  0  0
   10.2866  -15.9879   23.1680 C   0  0  0  0  0  0  0  0  0  0  0  0
   11.3813  -15.4083   22.9769 O   0  0  0  0  0  0  0  0  0  0  0  0
    8.5259  -20.7725   16.5849 N   0  0  0  0  0  0  0  0  0  0  0  0
    9.9539  -16.3442   24.5043 C   0  0  2  0  0  0  0  0  0  0  0  0
   10.9194  -16.0557   25.5799 C   0  0  0  0  0  0  0  0  0  0  0  0
   10.1555  -15.5239   26.7789 C   0  0  0  0  0  0  0  0  0  0  0  0
   11.0226  -15.2336   27.9652 C   0  0  0  0  0  0  0  0  0  0  0  0
   10.1711  -14.6615   29.0674 O   0  0  0  0  0  0  0  0  0  0  0  0
    9.9889  -15.2982   30.1297 C   0  0  0  0  0  0  0  0  0  0  0  0
   11.7526  -17.2219   25.8645 O   0  0  0  0  0  0  0  0  0  0  0  0
   13.0306  -17.1911   26.3790 O   0  0  0  0  0  0  0  0  0  0  0  0
    9.5989  -13.4225   28.8780 O   0  0  0  0  0  0  0  0  0  0  0  0
  2  1  1  1
  2  3  1  0
  4  5  2  0
  4  2  1  0
  6  7  1  0
  7  8  2  0
  7  9  1  0
  9 10  1  0
 10 11  1  0
 13 12  1  6
 12 11  1  0
 13 14  1  0
 14  4  1  0
 15 17  1  0
 15 13  1  0
 16 15  2  0
 18 19  1  6
 18 17  1  0
 19 20  1  0
 20 21  1  0
 21 22  2  0
 23 18  1  0
 24 23  1  0
 25 21  1  0
 26 23  2  0
M  END
$$$$
