DMW.pdb
     RDKit          3D

 31 32  0  0  1  0  0  0  0  0999 V2000
   27.8380  -20.8815  -16.2858 N   0  0  0  0  0  0  0  0  0  0  0  0
   28.2873  -19.7463  -15.5437 C   0  0  1  0  0  0  0  0  0  0  0  0
   28.3306  -18.5238  -16.4549 C   0  0  0  0  0  0  0  0  0  0  0  0
   29.2035  -18.7190  -17.6331 C   0  0  0  0  0  0  0  0  0  0  0  0
   29.4090  -19.8393  -18.1598 O   0  0  0  0  0  0  0  0  0  0  0  0
   27.4607  -19.3985  -14.3661 C   0  0  0  0  0  0  0  0  0  0  0  0
   27.4703  -18.1697  -14.0284 O   0  0  0  0  0  0  0  0  0  0  0  0
   29.8422  -17.6316  -18.2089 O   0  0  0  0  0  0  0  0  0  0  0  0
   21.2373  -20.8225  -13.5420 C   0  0  0  0  0  0  0  0  0  0  0  0
   22.2604  -19.8580  -14.6167 S   0  0  0  0  0  0  0  0  0  0  0  0
   23.8910  -19.4474  -14.0424 C   0  0  0  0  0  0  0  0  0  0  0  0
   24.4025  -20.2962  -12.9226 C   0  0  0  0  0  0  0  0  0  0  0  0
   25.7953  -19.9361  -12.5278 C   0  0  2  0  0  0  0  0  0  0  0  0
   26.6833  -20.3113  -13.6123 N   0  0  0  0  0  0  0  0  0  0  0  0
   26.1133  -20.7878  -11.3018 C   0  0  0  0  0  0  0  0  0  0  0  0
   27.0592  -21.5940  -11.3517 O   0  0  0  0  0  0  0  0  0  0  0  0
   25.3497  -20.6619  -10.1287 N   0  0  0  0  0  0  0  0  0  0  0  0
   25.7529  -21.2438   -8.8286 C   0  0  1  0  0  0  0  0  0  0  0  0
   26.7754  -20.2538   -8.2268 C   0  0  0  0  0  0  0  0  0  0  0  0
   26.9495  -20.5009   -6.7912 C   0  0  0  0  0  0  0  0  0  0  0  0
   26.2797  -21.3701   -5.9624 C   0  0  0  0  0  0  0  0  0  0  0  0
   26.7939  -21.2780   -4.7244 N   0  0  0  0  0  0  0  0  0  0  0  0
   27.7782  -20.3744   -4.7248 C   0  0  0  0  0  0  0  0  0  0  0  0
   28.5821  -19.9737   -3.6644 C   0  0  0  0  0  0  0  0  0  0  0  0
   29.5421  -19.0232   -3.9270 C   0  0  0  0  0  0  0  0  0  0  0  0
   29.6703  -18.5126   -5.2053 C   0  0  0  0  0  0  0  0  0  0  0  0
   28.8637  -18.9224   -6.2454 C   0  0  0  0  0  0  0  0  0  0  0  0
   27.9010  -19.8725   -5.9930 C   0  0  0  0  0  0  0  0  0  0  0  0
   24.5632  -21.1513   -7.9690 C   0  0  0  0  0  0  0  0  0  0  0  0
   23.4667  -20.3939   -8.2424 O   0  0  0  0  0  0  0  0  0  0  0  0
   24.5212  -21.8182   -6.8787 O   0  0  0  0  0  0  0  0  0  0  0  0
  2  1  1  6
  2  6  1  0
  2  3  1  0
  3  4  1  0
  4  8  1  0
  5  4  2  0
  6  7  2  0
  9 10  1  0
 11 10  1  0
 11 12  1  0
 13 14  1  0
 13 12  1  6
 14  6  1  0
 15 13  1  0
 16 15  2  0
 17 15  1  0
 18 17  1  0
 18 19  1  1
 19 20  1  0
 20 21  2  0
 21 22  1  0
 23 24  2  0
 23 22  1  0
 25 24  1  0
 26 25  2  0
 27 26  1  0
 27 28  2  0
 28 20  1  0
 28 23  1  0
 29 18  1  0
 29 30  1  0
 31 29  2  0
M  END
$$$$
