DMW.pdb
     RDKit          3D

 31 32  0  0  1  0  0  0  0  0999 V2000
   28.9512  -32.3026  -16.1398 N   0  0  0  0  0  0  0  0  0  0  0  0
   28.3164  -31.1970  -16.7848 C   0  0  1  0  0  0  0  0  0  0  0  0
   28.7660  -31.1270  -18.2407 C   0  0  0  0  0  0  0  0  0  0  0  0
   30.1823  -30.7245  -18.3835 C   0  0  0  0  0  0  0  0  0  0  0  0
   31.0627  -30.9888  -17.5293 O   0  0  0  0  0  0  0  0  0  0  0  0
   26.8366  -31.2285  -16.7737 C   0  0  0  0  0  0  0  0  0  0  0  0
   26.2592  -30.2440  -17.3408 O   0  0  0  0  0  0  0  0  0  0  0  0
   30.5914  -30.0188  -19.5045 O   0  0  0  0  0  0  0  0  0  0  0  0
   22.0328  -36.1947  -19.1659 C   0  0  0  0  0  0  0  0  0  0  0  0
   23.0358  -35.7605  -17.7737 S   0  0  0  0  0  0  0  0  0  0  0  0
   23.3979  -34.0377  -17.5324 C   0  0  0  0  0  0  0  0  0  0  0  0
   24.1710  -33.7187  -16.2929 C   0  0  0  0  0  0  0  0  0  0  0  0
   24.5935  -32.2889  -16.2396 C   0  0  2  0  0  0  0  0  0  0  0  0
   26.0431  -32.2478  -16.1932 N   0  0  0  0  0  0  0  0  0  0  0  0
   24.0339  -31.7387  -14.9304 C   0  0  0  0  0  0  0  0  0  0  0  0
   24.5061  -32.1407  -13.8522 O   0  0  0  0  0  0  0  0  0  0  0  0
   22.9998  -30.7870  -14.9411 N   0  0  0  0  0  0  0  0  0  0  0  0
   22.4059  -30.2167  -13.7109 C   0  0  1  0  0  0  0  0  0  0  0  0
   21.7599  -28.8801  -14.1396 C   0  0  0  0  0  0  0  0  0  0  0  0
   21.1149  -28.2280  -12.9946 C   0  0  0  0  0  0  0  0  0  0  0  0
   21.6727  -27.4993  -11.9704 C   0  0  0  0  0  0  0  0  0  0  0  0
   20.6942  -27.0695  -11.1559 N   0  0  0  0  0  0  0  0  0  0  0  0
   19.5171  -27.4978  -11.6210 C   0  0  0  0  0  0  0  0  0  0  0  0
   18.2497  -27.2772  -11.0953 C   0  0  0  0  0  0  0  0  0  0  0  0
   17.1837  -27.8233  -11.7732 C   0  0  0  0  0  0  0  0  0  0  0  0
   17.4054  -28.5542  -12.9254 C   0  0  0  0  0  0  0  0  0  0  0  0
   18.6702  -28.7626  -13.4326 C   0  0  0  0  0  0  0  0  0  0  0  0
   19.7425  -28.2205  -12.7621 C   0  0  0  0  0  0  0  0  0  0  0  0
   21.2839  -31.1032  -13.3671 C   0  0  0  0  0  0  0  0  0  0  0  0
   20.4304  -31.6586  -14.2692 O   0  0  0  0  0  0  0  0  0  0  0  0
   21.0657  -31.3956  -12.1414 O   0  0  0  0  0  0  0  0  0  0  0  0
  2  1  1  6
  2  6  1  0
  2  3  1  0
  3  4  1  0
  4  8  1  0
  5  4  2  0
  6  7  2  0
  9 10  1  0
 11 10  1  0
 11 12  1  0
 13 14  1  0
 13 12  1  1
 14  6  1  0
 15 13  1  0
 16 15  2  0
 17 15  1  0
 18 17  1  0
 18 19  1  6
 19 20  1  0
 20 21  2  0
 21 22  1  0
 23 24  2  0
 23 22  1  0
 25 24  1  0
 26 25  2  0
 27 26  1  0
 27 28  2  0
 28 20  1  0
 28 23  1  0
 29 18  1  0
 29 30  1  0
 31 29  2  0
M  END
$$$$
