DMW.pdb
     RDKit          3D

 31 32  0  0  1  0  0  0  0  0999 V2000
   28.6842  -20.5008  -17.3383 N   0  0  0  0  0  0  0  0  0  0  0  0
   27.9898  -21.2908  -16.3714 C   0  0  1  0  0  0  0  0  0  0  0  0
   28.9907  -22.1233  -15.5766 C   0  0  0  0  0  0  0  0  0  0  0  0
   29.6731  -23.1417  -16.4045 C   0  0  0  0  0  0  0  0  0  0  0  0
   29.4181  -23.3251  -17.6195 O   0  0  0  0  0  0  0  0  0  0  0  0
   27.1748  -20.5243  -15.4024 C   0  0  0  0  0  0  0  0  0  0  0  0
   27.7520  -19.5226  -14.8661 O   0  0  0  0  0  0  0  0  0  0  0  0
   30.6479  -23.9511  -15.8418 O   0  0  0  0  0  0  0  0  0  0  0  0
   20.7620  -19.1331  -15.7822 C   0  0  0  0  0  0  0  0  0  0  0  0
   22.1860  -18.2636  -16.3725 S   0  0  0  0  0  0  0  0  0  0  0  0
   23.7635  -18.7237  -15.6966 C   0  0  0  0  0  0  0  0  0  0  0  0
   23.7201  -19.7969  -14.6562 C   0  0  0  0  0  0  0  0  0  0  0  0
   25.0633  -20.0724  -14.0685 C   0  0  2  0  0  0  0  0  0  0  0  0
   25.8374  -20.8198  -15.0419 N   0  0  0  0  0  0  0  0  0  0  0  0
   24.8102  -20.9519  -12.8470 C   0  0  0  0  0  0  0  0  0  0  0  0
   24.4554  -22.1325  -13.0124 O   0  0  0  0  0  0  0  0  0  0  0  0
   24.9784  -20.4368  -11.5503 N   0  0  0  0  0  0  0  0  0  0  0  0
   24.6180  -21.1842  -10.3244 C   0  0  1  0  0  0  0  0  0  0  0  0
   25.2610  -20.4047   -9.1554 C   0  0  0  0  0  0  0  0  0  0  0  0
   26.6717  -20.7769   -9.0011 C   0  0  0  0  0  0  0  0  0  0  0  0
   27.4692  -21.5506   -9.8112 C   0  0  0  0  0  0  0  0  0  0  0  0
   28.7062  -21.6003   -9.2886 N   0  0  0  0  0  0  0  0  0  0  0  0
   28.7354  -20.8814   -8.1627 C   0  0  0  0  0  0  0  0  0  0  0  0
   29.8097  -20.6564   -7.3103 C   0  0  0  0  0  0  0  0  0  0  0  0
   29.5832  -19.8631   -6.2087 C   0  0  0  0  0  0  0  0  0  0  0  0
   28.3257  -19.3307   -5.9938 C   0  0  0  0  0  0  0  0  0  0  0  0
   27.2714  -19.5645   -6.8507 C   0  0  0  0  0  0  0  0  0  0  0  0
   27.4879  -20.3561   -7.9551 C   0  0  0  0  0  0  0  0  0  0  0  0
   23.1669  -21.0050  -10.1655 C   0  0  0  0  0  0  0  0  0  0  0  0
   22.3946  -21.6868   -9.2771 O   0  0  0  0  0  0  0  0  0  0  0  0
   22.5540  -20.1545  -10.8979 O   0  0  0  0  0  0  0  0  0  0  0  0
  2  1  1  6
  2  6  1  0
  2  3  1  0
  3  4  1  0
  4  8  1  0
  5  4  2  0
  6  7  2  0
  9 10  1  0
 11 10  1  0
 11 12  1  0
 13 14  1  0
 13 12  1  6
 14  6  1  0
 15 13  1  0
 16 15  2  0
 17 15  1  0
 18 17  1  0
 18 19  1  1
 19 20  1  0
 20 21  2  0
 21 22  1  0
 23 24  2  0
 23 22  1  0
 25 24  1  0
 26 25  2  0
 27 26  1  0
 27 28  2  0
 28 20  1  0
 28 23  1  0
 29 18  1  0
 29 30  1  0
 31 29  2  0
M  END
$$$$
