DMW.pdb
     RDKit          3D

 31 32  0  0  1  0  0  0  0  0999 V2000
   24.4366  -17.9577  -17.6340 N   0  0  0  0  0  0  0  0  0  0  0  0
   23.9585  -18.5578  -16.4288 C   0  0  1  0  0  0  0  0  0  0  0  0
   22.4592  -18.8133  -16.5444 C   0  0  0  0  0  0  0  0  0  0  0  0
   21.6687  -17.5644  -16.6039 C   0  0  0  0  0  0  0  0  0  0  0  0
   21.9831  -16.5839  -17.3213 O   0  0  0  0  0  0  0  0  0  0  0  0
   24.6048  -19.8389  -16.0657 C   0  0  0  0  0  0  0  0  0  0  0  0
   23.9953  -20.8918  -16.4452 O   0  0  0  0  0  0  0  0  0  0  0  0
   20.5178  -17.4369  -15.8416 O   0  0  0  0  0  0  0  0  0  0  0  0
   29.2539  -17.1106  -16.3054 C   0  0  0  0  0  0  0  0  0  0  0  0
   28.6131  -18.7582  -16.3907 S   0  0  0  0  0  0  0  0  0  0  0  0
   28.2938  -19.5920  -14.8545 C   0  0  0  0  0  0  0  0  0  0  0  0
   27.9183  -21.0339  -14.9804 C   0  0  0  0  0  0  0  0  0  0  0  0
   26.4404  -21.2354  -15.0066 C   0  0  2  0  0  0  0  0  0  0  0  0
   25.8181  -19.9696  -15.3470 N   0  0  0  0  0  0  0  0  0  0  0  0
   26.0480  -21.6204  -13.5827 C   0  0  0  0  0  0  0  0  0  0  0  0
   26.2550  -22.7822  -13.1894 O   0  0  0  0  0  0  0  0  0  0  0  0
   25.4627  -20.6744  -12.7239 N   0  0  0  0  0  0  0  0  0  0  0  0
   24.8528  -21.0250  -11.4215 C   0  0  1  0  0  0  0  0  0  0  0  0
   25.5136  -20.0887  -10.3850 C   0  0  0  0  0  0  0  0  0  0  0  0
   26.7995  -20.6372   -9.9400 C   0  0  0  0  0  0  0  0  0  0  0  0
   27.7205  -21.3879  -10.6321 C   0  0  0  0  0  0  0  0  0  0  0  0
   28.7668  -21.6457   -9.8295 N   0  0  0  0  0  0  0  0  0  0  0  0
   28.5524  -21.0843   -8.6361 C   0  0  0  0  0  0  0  0  0  0  0  0
   29.3764  -21.0948   -7.5170 C   0  0  0  0  0  0  0  0  0  0  0  0
   28.9284  -20.4276   -6.3998 C   0  0  0  0  0  0  0  0  0  0  0  0
   27.7044  -19.7858   -6.4289 C   0  0  0  0  0  0  0  0  0  0  0  0
   26.9001  -19.7857   -7.5485 C   0  0  0  0  0  0  0  0  0  0  0  0
   27.3393  -20.4498   -8.6708 C   0  0  0  0  0  0  0  0  0  0  0  0
   23.4520  -20.5862  -11.5110 C   0  0  0  0  0  0  0  0  0  0  0  0
   22.5062  -20.8141  -10.5601 O   0  0  0  0  0  0  0  0  0  0  0  0
   23.0596  -19.9402  -12.5426 O   0  0  0  0  0  0  0  0  0  0  0  0
  2  1  1  6
  2  6  1  0
  2  3  1  0
  3  4  1  0
  4  8  1  0
  5  4  2  0
  6  7  2  0
  9 10  1  0
 11 10  1  0
 11 12  1  0
 13 14  1  0
 13 12  1  1
 14  6  1  0
 15 13  1  0
 16 15  2  0
 17 15  1  0
 18 17  1  0
 18 19  1  1
 19 20  1  0
 20 21  2  0
 21 22  1  0
 23 24  2  0
 23 22  1  0
 25 24  1  0
 26 25  2  0
 27 26  1  0
 27 28  2  0
 28 20  1  0
 28 23  1  0
 29 18  1  0
 29 30  1  0
 31 29  2  0
M  END
$$$$
