YDC.pdb
     RDKit          3D

 27 27  0  0  1  0  0  0  0  0999 V2000
   17.5702  -22.1155   -9.7342 O   0  0  0  0  0  0  0  0  0  0  0  0
   18.5977  -21.6529  -10.5433 C   0  0  0  0  0  0  0  0  0  0  0  0
   19.4395  -22.5862  -11.1111 C   0  0  0  0  0  0  0  0  0  0  0  0
   20.4669  -22.1654  -11.9166 C   0  0  0  0  0  0  0  0  0  0  0  0
   20.6531  -20.8345  -12.1530 C   0  0  0  0  0  0  0  0  0  0  0  0
   21.7911  -20.4305  -13.0361 C   0  0  0  0  0  0  0  0  0  0  0  0
   21.2433  -20.3454  -14.4348 C   0  0  2  0  0  0  0  0  0  0  0  0
   20.9750  -21.6805  -14.9313 N   0  0  0  0  0  0  0  0  0  0  0  0
   22.1864  -19.6717  -15.3759 C   0  0  0  0  0  0  0  0  0  0  0  0
   23.1423  -20.3247  -15.9169 O   0  0  0  0  0  0  0  0  0  0  0  0
   19.8376  -19.8861  -11.6064 C   0  0  0  0  0  0  0  0  0  0  0  0
   18.8041  -20.3163  -10.7958 C   0  0  0  0  0  0  0  0  0  0  0  0
   22.0940  -18.3047  -15.7266 N   0  0  0  0  0  0  0  0  0  0  0  0
   22.9886  -17.6946  -16.6618 C   0  0  1  0  0  0  0  0  0  0  0  0
   22.3785  -16.5522  -17.4323 C   0  0  0  0  0  0  0  0  0  0  0  0
   23.2916  -15.9331  -18.3993 C   0  0  0  0  0  0  0  0  0  0  0  0
   24.0267  -16.6759  -19.1092 O   0  0  0  0  0  0  0  0  0  0  0  0
   24.2924  -17.3255  -16.0561 C   0  0  0  0  0  0  0  0  0  0  0  0
   24.2848  -16.5139  -15.0981 O   0  0  0  0  0  0  0  0  0  0  0  0
   23.4124  -14.5674  -18.5988 O   0  0  0  0  0  0  0  0  0  0  0  0
   25.5019  -17.8439  -16.5115 N   0  0  0  0  0  0  0  0  0  0  0  0
   26.8117  -17.4924  -15.9856 C   0  0  1  0  0  0  0  0  0  0  0  0
   27.4867  -18.6826  -15.3294 C   0  0  0  0  0  0  0  0  0  0  0  0
   26.5427  -19.0467  -13.8163 S   0  0  0  0  0  0  0  0  0  0  0  0
   27.6502  -17.0760  -17.1355 C   0  0  0  0  0  0  0  0  0  0  0  0
   28.9139  -16.5407  -16.9459 O   0  0  0  0  0  0  0  0  0  0  0  0
   27.2653  -17.1839  -18.3334 O   0  0  0  0  0  0  0  0  0  0  0  0
  2  1  1  0
  3  2  2  0
  4  3  1  0
  5 11  1  0
  5  4  2  0
  6  5  1  0
  7  6  1  0
  7  8  1  6
  9  7  1  0
  9 13  1  0
 10  9  2  0
 11 12  2  0
 12  2  1  0
 14 13  1  0
 14 18  1  0
 14 15  1  1
 16 17  2  0
 16 15  1  0
 18 19  2  0
 20 16  1  0
 21 18  1  0
 21 22  1  0
 22 23  1  6
 23 24  1  0
 25 22  1  0
 25 26  1  0
 27 25  2  0
M  END
$$$$
