YDC.pdb
     RDKit          3D

 27 27  0  0  1  0  0  0  0  0999 V2000
   24.2217  -22.7964  -13.8150 O   0  0  0  0  0  0  0  0  0  0  0  0
   24.6140  -23.7362  -14.7571 C   0  0  0  0  0  0  0  0  0  0  0  0
   24.6559  -25.0586  -14.3680 C   0  0  0  0  0  0  0  0  0  0  0  0
   25.0395  -26.0155  -15.2728 C   0  0  0  0  0  0  0  0  0  0  0  0
   25.3766  -25.6603  -16.5463 C   0  0  0  0  0  0  0  0  0  0  0  0
   25.7912  -26.7437  -17.4913 C   0  0  0  0  0  0  0  0  0  0  0  0
   27.1952  -27.1315  -17.1144 C   0  0  2  0  0  0  0  0  0  0  0  0
   28.1032  -26.0551  -17.4577 N   0  0  0  0  0  0  0  0  0  0  0  0
   27.6492  -28.3726  -17.8092 C   0  0  0  0  0  0  0  0  0  0  0  0
   27.8214  -28.3830  -19.0753 O   0  0  0  0  0  0  0  0  0  0  0  0
   25.3454  -24.3607  -16.9626 C   0  0  0  0  0  0  0  0  0  0  0  0
   24.9579  -23.4011  -16.0465 C   0  0  0  0  0  0  0  0  0  0  0  0
   27.9137  -29.5892  -17.1382 N   0  0  0  0  0  0  0  0  0  0  0  0
   28.3058  -30.7755  -17.8353 C   0  0  1  0  0  0  0  0  0  0  0  0
   29.5607  -31.4124  -17.2961 C   0  0  0  0  0  0  0  0  0  0  0  0
   30.7981  -30.8043  -17.7971 C   0  0  0  0  0  0  0  0  0  0  0  0
   30.7208  -29.8400  -18.6098 O   0  0  0  0  0  0  0  0  0  0  0  0
   27.1992  -31.7547  -17.9753 C   0  0  0  0  0  0  0  0  0  0  0  0
   26.4754  -31.9685  -16.9718 O   0  0  0  0  0  0  0  0  0  0  0  0
   32.0724  -31.2142  -17.4402 O   0  0  0  0  0  0  0  0  0  0  0  0
   26.9452  -32.4308  -19.1658 N   0  0  0  0  0  0  0  0  0  0  0  0
   25.8012  -33.2963  -19.4067 C   0  0  1  0  0  0  0  0  0  0  0  0
   25.2890  -33.1606  -20.8287 C   0  0  0  0  0  0  0  0  0  0  0  0
   26.7428  -33.2748  -21.9181 S   0  0  0  0  0  0  0  0  0  0  0  0
   26.2611  -34.6941  -19.2245 C   0  0  0  0  0  0  0  0  0  0  0  0
   25.3600  -35.7452  -19.1721 O   0  0  0  0  0  0  0  0  0  0  0  0
   27.4808  -35.0002  -19.1084 O   0  0  0  0  0  0  0  0  0  0  0  0
  2  1  1  0
  3  2  2  0
  4  3  1  0
  5 11  1  0
  5  4  2  0
  6  5  1  0
  7  6  1  0
  7  8  1  6
  9  7  1  0
  9 13  1  0
 10  9  2  0
 11 12  2  0
 12  2  1  0
 14 13  1  0
 14 18  1  0
 14 15  1  1
 16 17  2  0
 16 15  1  0
 18 19  2  0
 20 16  1  0
 21 18  1  0
 21 22  1  0
 22 23  1  6
 23 24  1  0
 25 22  1  0
 25 26  1  0
 27 25  2  0
M  END
$$$$
