YDC.pdb
     RDKit          3D

 27 27  0  0  1  0  0  0  0  0999 V2000
   22.2311  -21.6326   -8.2493 O   0  0  0  0  0  0  0  0  0  0  0  0
   23.2114  -21.1867   -9.1237 C   0  0  0  0  0  0  0  0  0  0  0  0
   22.8315  -20.8779  -10.4131 C   0  0  0  0  0  0  0  0  0  0  0  0
   23.7740  -20.4344  -11.3055 C   0  0  0  0  0  0  0  0  0  0  0  0
   25.0757  -20.3004  -10.9193 C   0  0  0  0  0  0  0  0  0  0  0  0
   26.0630  -19.8161  -11.9338 C   0  0  0  0  0  0  0  0  0  0  0  0
   26.1825  -20.8990  -12.9714 C   0  0  2  0  0  0  0  0  0  0  0  0
   26.9196  -22.0185  -12.4197 N   0  0  0  0  0  0  0  0  0  0  0  0
   26.8844  -20.4322  -14.2037 C   0  0  0  0  0  0  0  0  0  0  0  0
   28.1418  -20.2051  -14.1892 O   0  0  0  0  0  0  0  0  0  0  0  0
   25.4838  -20.5973   -9.6510 C   0  0  0  0  0  0  0  0  0  0  0  0
   24.5296  -21.0437   -8.7563 C   0  0  0  0  0  0  0  0  0  0  0  0
   26.2298  -20.2139  -15.4383 N   0  0  0  0  0  0  0  0  0  0  0  0
   26.9038  -19.6585  -16.5716 C   0  0  1  0  0  0  0  0  0  0  0  0
   27.0253  -20.6093  -17.7345 C   0  0  0  0  0  0  0  0  0  0  0  0
   27.9358  -21.7333  -17.4902 C   0  0  0  0  0  0  0  0  0  0  0  0
   29.0918  -21.4975  -17.0383 O   0  0  0  0  0  0  0  0  0  0  0  0
   26.3532  -18.3427  -16.9821 C   0  0  0  0  0  0  0  0  0  0  0  0
   25.1601  -18.3021  -17.3712 O   0  0  0  0  0  0  0  0  0  0  0  0
   27.6190  -23.0621  -17.7214 O   0  0  0  0  0  0  0  0  0  0  0  0
   27.1082  -17.1731  -16.9490 N   0  0  0  0  0  0  0  0  0  0  0  0
   26.6432  -15.8665  -17.3876 C   0  0  1  0  0  0  0  0  0  0  0  0
   27.4979  -14.7501  -16.8169 C   0  0  0  0  0  0  0  0  0  0  0  0
   27.1870  -14.7220  -15.0236 S   0  0  0  0  0  0  0  0  0  0  0  0
   26.7748  -15.8255  -18.8639 C   0  0  0  0  0  0  0  0  0  0  0  0
   25.9782  -14.9926  -19.6327 O   0  0  0  0  0  0  0  0  0  0  0  0
   27.6072  -16.5365  -19.4935 O   0  0  0  0  0  0  0  0  0  0  0  0
  2  1  1  0
  3  2  2  0
  4  3  1  0
  5 11  1  0
  5  4  2  0
  6  5  1  0
  7  6  1  0
  7  8  1  1
  9  7  1  0
  9 13  1  0
 10  9  2  0
 11 12  2  0
 12  2  1  0
 14 13  1  0
 14 18  1  0
 14 15  1  6
 16 17  2  0
 16 15  1  0
 18 19  2  0
 20 16  1  0
 21 18  1  0
 21 22  1  0
 22 23  1  1
 23 24  1  0
 25 22  1  0
 25 26  1  0
 27 25  2  0
M  END
$$$$
