YDC.pdb
     RDKit          3D

 27 27  0  0  1  0  0  0  0  0999 V2000
   10.3699   -9.9383   -8.4579 O   0  0  0  0  0  0  0  0  0  0  0  0
   11.5242   -9.6727   -9.1799 C   0  0  0  0  0  0  0  0  0  0  0  0
   12.2202  -10.7448   -9.6979 C   0  0  0  0  0  0  0  0  0  0  0  0
   13.3664  -10.5202  -10.4170 C   0  0  0  0  0  0  0  0  0  0  0  0
   13.8128   -9.2466  -10.6172 C   0  0  0  0  0  0  0  0  0  0  0  0
   15.0703   -9.0588  -11.4058 C   0  0  0  0  0  0  0  0  0  0  0  0
   14.6525   -8.7157  -12.8098 C   0  0  2  0  0  0  0  0  0  0  0  0
   14.1992   -9.9148  -13.4864 N   0  0  0  0  0  0  0  0  0  0  0  0
   15.7651   -8.1163  -13.6048 C   0  0  0  0  0  0  0  0  0  0  0  0
   16.4254   -8.8263  -14.4371 O   0  0  0  0  0  0  0  0  0  0  0  0
   13.1471   -8.1644  -10.1182 C   0  0  0  0  0  0  0  0  0  0  0  0
   11.9928   -8.3970   -9.3946 C   0  0  0  0  0  0  0  0  0  0  0  0
   16.1574   -6.7616  -13.4984 N   0  0  0  0  0  0  0  0  0  0  0  0
   17.1869   -6.1988  -14.3172 C   0  0  1  0  0  0  0  0  0  0  0  0
   16.7912   -4.9123  -14.9950 C   0  0  0  0  0  0  0  0  0  0  0  0
   17.8338   -4.3525  -15.8621 C   0  0  0  0  0  0  0  0  0  0  0  0
   18.5024   -5.1327  -16.5973 O   0  0  0  0  0  0  0  0  0  0  0  0
   18.4860   -6.0796  -13.6093 C   0  0  0  0  0  0  0  0  0  0  0  0
   18.4884   -5.5404  -12.4754 O   0  0  0  0  0  0  0  0  0  0  0  0
   18.1485   -3.0055  -15.9389 O   0  0  0  0  0  0  0  0  0  0  0  0
   19.6807   -6.5402  -14.1568 N   0  0  0  0  0  0  0  0  0  0  0  0
   20.9775   -6.4802  -13.5008 C   0  0  1  0  0  0  0  0  0  0  0  0
   21.9187   -7.5477  -14.0276 C   0  0  0  0  0  0  0  0  0  0  0  0
   21.2257   -9.1508  -13.5149 S   0  0  0  0  0  0  0  0  0  0  0  0
   21.5708   -5.1590  -13.8190 C   0  0  0  0  0  0  0  0  0  0  0  0
   20.9472   -4.2840  -14.6935 O   0  0  0  0  0  0  0  0  0  0  0  0
   22.6608   -4.7637  -13.3187 O   0  0  0  0  0  0  0  0  0  0  0  0
  2  1  1  0
  3  2  2  0
  4  3  1  0
  5 11  1  0
  5  4  2  0
  6  5  1  0
  7  6  1  0
  7  8  1  6
  9  7  1  0
  9 13  1  0
 10  9  2  0
 11 12  2  0
 12  2  1  0
 14 13  1  0
 14 18  1  0
 14 15  1  1
 16 17  2  0
 16 15  1  0
 18 19  2  0
 20 16  1  0
 21 18  1  0
 21 22  1  0
 22 23  1  6
 23 24  1  0
 25 22  1  0
 25 26  1  0
 27 25  2  0
M  END
$$$$
