YDC.pdb
     RDKit          3D

 27 27  0  0  1  0  0  0  0  0999 V2000
   29.0389  -19.8801   -3.1612 O   0  0  0  0  0  0  0  0  0  0  0  0
   28.7150  -19.7378   -4.5026 C   0  0  0  0  0  0  0  0  0  0  0  0
   29.6065  -20.2253   -5.4351 C   0  0  0  0  0  0  0  0  0  0  0  0
   29.3195  -20.1018   -6.7707 C   0  0  0  0  0  0  0  0  0  0  0  0
   28.1617  -19.5016   -7.1715 C   0  0  0  0  0  0  0  0  0  0  0  0
   27.9002  -19.3901   -8.6404 C   0  0  0  0  0  0  0  0  0  0  0  0
   26.9563  -20.5061   -8.9970 C   0  0  2  0  0  0  0  0  0  0  0  0
   27.6873  -21.7560   -9.0615 N   0  0  0  0  0  0  0  0  0  0  0  0
   26.2824  -20.2842  -10.3107 C   0  0  0  0  0  0  0  0  0  0  0  0
   25.5644  -19.2454  -10.5059 O   0  0  0  0  0  0  0  0  0  0  0  0
   27.2589  -19.0091   -6.2739 C   0  0  0  0  0  0  0  0  0  0  0  0
   27.5535  -19.1365   -4.9296 C   0  0  0  0  0  0  0  0  0  0  0  0
   26.3860  -21.1792  -11.4009 N   0  0  0  0  0  0  0  0  0  0  0  0
   25.7252  -20.9428  -12.6477 C   0  0  1  0  0  0  0  0  0  0  0  0
   26.5352  -21.3465  -13.8527 C   0  0  0  0  0  0  0  0  0  0  0  0
   26.1088  -20.7003  -15.0988 C   0  0  0  0  0  0  0  0  0  0  0  0
   24.9876  -20.1191  -15.1343 O   0  0  0  0  0  0  0  0  0  0  0  0
   24.3507  -21.5016  -12.6870 C   0  0  0  0  0  0  0  0  0  0  0  0
   24.2267  -22.7443  -12.8166 O   0  0  0  0  0  0  0  0  0  0  0  0
   26.8568  -20.6774  -16.2648 O   0  0  0  0  0  0  0  0  0  0  0  0
   23.2154  -20.7017  -12.5862 N   0  0  0  0  0  0  0  0  0  0  0  0
   21.8476  -21.1949  -12.5445 C   0  0  1  0  0  0  0  0  0  0  0  0
   20.9784  -20.3518  -11.6300 C   0  0  0  0  0  0  0  0  0  0  0  0
   20.3558  -21.4657  -10.3320 S   0  0  0  0  0  0  0  0  0  0  0  0
   21.2980  -21.0842  -13.9172 C   0  0  0  0  0  0  0  0  0  0  0  0
   20.3490  -21.9787  -14.3848 O   0  0  0  0  0  0  0  0  0  0  0  0
   21.6587  -20.1825  -14.7245 O   0  0  0  0  0  0  0  0  0  0  0  0
  2  1  1  0
  3  2  2  0
  4  3  1  0
  5 11  1  0
  5  4  2  0
  6  5  1  0
  7  6  1  0
  7  8  1  6
  9  7  1  0
  9 13  1  0
 10  9  2  0
 11 12  2  0
 12  2  1  0
 14 13  1  0
 14 18  1  0
 14 15  1  6
 16 17  2  0
 16 15  1  0
 18 19  2  0
 20 16  1  0
 21 18  1  0
 21 22  1  0
 22 23  1  1
 23 24  1  0
 25 22  1  0
 25 26  1  0
 27 25  2  0
M  END
$$$$
