YDC.pdb
     RDKit          3D

 27 27  0  0  1  0  0  0  0  0999 V2000
   18.4211    0.6344   -8.0531 O   0  0  0  0  0  0  0  0  0  0  0  0
   18.5958   -0.1136   -9.2083 C   0  0  0  0  0  0  0  0  0  0  0  0
   18.6127    0.5576  -10.4130 C   0  0  0  0  0  0  0  0  0  0  0  0
   18.7829   -0.1495  -11.5760 C   0  0  0  0  0  0  0  0  0  0  0  0
   18.9339   -1.5050  -11.5396 C   0  0  0  0  0  0  0  0  0  0  0  0
   19.1125   -2.2270  -12.8377 C   0  0  0  0  0  0  0  0  0  0  0  0
   20.5559   -2.6462  -12.9037 C   0  0  2  0  0  0  0  0  0  0  0  0
   21.3758   -1.5041  -13.2565 N   0  0  0  0  0  0  0  0  0  0  0  0
   20.7903   -3.7249  -13.9089 C   0  0  0  0  0  0  0  0  0  0  0  0
   21.0423   -3.4345  -15.1275 O   0  0  0  0  0  0  0  0  0  0  0  0
   18.9219   -2.1986  -10.3639 C   0  0  0  0  0  0  0  0  0  0  0  0
   18.7502   -1.4807   -9.1954 C   0  0  0  0  0  0  0  0  0  0  0  0
   20.7520   -5.1037  -13.5961 N   0  0  0  0  0  0  0  0  0  0  0  0
   20.9514   -6.1168  -14.5865 C   0  0  1  0  0  0  0  0  0  0  0  0
   21.6270   -7.3574  -14.0617 C   0  0  0  0  0  0  0  0  0  0  0  0
   21.9402   -8.3471  -15.0984 C   0  0  0  0  0  0  0  0  0  0  0  0
   21.6993   -8.0654  -16.3062 O   0  0  0  0  0  0  0  0  0  0  0  0
   19.7153   -6.4331  -15.3448 C   0  0  0  0  0  0  0  0  0  0  0  0
   18.7424   -6.9074  -14.7083 O   0  0  0  0  0  0  0  0  0  0  0  0
   22.4918   -9.5934  -14.8500 O   0  0  0  0  0  0  0  0  0  0  0  0
   19.6055   -6.2231  -16.7170 N   0  0  0  0  0  0  0  0  0  0  0  0
   18.3993   -6.4385  -17.5007 C   0  0  1  0  0  0  0  0  0  0  0  0
   18.2131   -5.3552  -18.5468 C   0  0  0  0  0  0  0  0  0  0  0  0
   17.6297   -3.8743  -17.6636 S   0  0  0  0  0  0  0  0  0  0  0  0
   18.5616   -7.7293  -18.2122 C   0  0  0  0  0  0  0  0  0  0  0  0
   17.5581   -8.6845  -18.2044 O   0  0  0  0  0  0  0  0  0  0  0  0
   19.6075   -8.0258  -18.8549 O   0  0  0  0  0  0  0  0  0  0  0  0
  2  1  1  0
  3  2  2  0
  4  3  1  0
  5 11  1  0
  5  4  2  0
  6  5  1  0
  7  6  1  0
  7  8  1  6
  9  7  1  0
  9 13  1  0
 10  9  2  0
 11 12  2  0
 12  2  1  0
 14 13  1  0
 14 18  1  0
 14 15  1  1
 16 17  2  0
 16 15  1  0
 18 19  2  0
 20 16  1  0
 21 18  1  0
 21 22  1  0
 22 23  1  6
 23 24  1  0
 25 22  1  0
 25 26  1  0
 27 25  2  0
M  END
$$$$
