YDC.pdb
     RDKit          3D

 27 27  0  0  1  0  0  0  0  0999 V2000
   20.8756  -20.7188  -17.7713 O   0  0  0  0  0  0  0  0  0  0  0  0
   21.3932  -19.4434  -17.5980 C   0  0  0  0  0  0  0  0  0  0  0  0
   20.5019  -18.4057  -17.4223 C   0  0  0  0  0  0  0  0  0  0  0  0
   20.9776  -17.1310  -17.2484 C   0  0  0  0  0  0  0  0  0  0  0  0
   22.3212  -16.8934  -17.2495 C   0  0  0  0  0  0  0  0  0  0  0  0
   22.7854  -15.4839  -17.0593 C   0  0  0  0  0  0  0  0  0  0  0  0
   22.6015  -14.7867  -18.3798 C   0  0  2  0  0  0  0  0  0  0  0  0
   23.5260  -15.3378  -19.3507 N   0  0  0  0  0  0  0  0  0  0  0  0
   22.8371  -13.3155  -18.2848 C   0  0  0  0  0  0  0  0  0  0  0  0
   24.0074  -12.8320  -18.4567 O   0  0  0  0  0  0  0  0  0  0  0  0
   23.2290  -17.8983  -17.4206 C   0  0  0  0  0  0  0  0  0  0  0  0
   22.7437  -19.1806  -17.5953 C   0  0  0  0  0  0  0  0  0  0  0  0
   21.8148  -12.3786  -18.0064 N   0  0  0  0  0  0  0  0  0  0  0  0
   22.0544  -10.9681  -17.9963 C   0  0  1  0  0  0  0  0  0  0  0  0
   21.6727  -10.2760  -19.2794 C   0  0  0  0  0  0  0  0  0  0  0  0
   21.8356   -8.8186  -19.2396 C   0  0  0  0  0  0  0  0  0  0  0  0
   22.9726   -8.3370  -18.9723 O   0  0  0  0  0  0  0  0  0  0  0  0
   21.4783  -10.2938  -16.8062 C   0  0  0  0  0  0  0  0  0  0  0  0
   20.2712  -10.5106  -16.5368 O   0  0  0  0  0  0  0  0  0  0  0  0
   20.8172   -7.9101  -19.4777 O   0  0  0  0  0  0  0  0  0  0  0  0
   22.2243   -9.4430  -15.9946 N   0  0  0  0  0  0  0  0  0  0  0  0
   21.7320   -8.7946  -14.7893 C   0  0  1  0  0  0  0  0  0  0  0  0
   22.8145   -8.6891  -13.7310 C   0  0  0  0  0  0  0  0  0  0  0  0
   23.1341  -10.3820  -13.1436 S   0  0  0  0  0  0  0  0  0  0  0  0
   21.3311   -7.4169  -15.1633 C   0  0  0  0  0  0  0  0  0  0  0  0
   20.6906   -6.5852  -14.2591 O   0  0  0  0  0  0  0  0  0  0  0  0
   21.5475   -6.9320  -16.3091 O   0  0  0  0  0  0  0  0  0  0  0  0
  2  1  1  0
  3  2  2  0
  4  3  1  0
  5 11  1  0
  5  4  2  0
  6  5  1  0
  7  6  1  0
  7  8  1  6
  9  7  1  0
  9 13  1  0
 10  9  2  0
 11 12  2  0
 12  2  1  0
 14 13  1  0
 14 18  1  0
 14 15  1  6
 16 17  2  0
 16 15  1  0
 18 19  2  0
 20 16  1  0
 21 18  1  0
 21 22  1  0
 22 23  1  1
 23 24  1  0
 25 22  1  0
 25 26  1  0
 27 25  2  0
M  END
$$$$
