YDC.pdb
     RDKit          3D

 27 27  0  0  1  0  0  0  0  0999 V2000
    9.6598  -10.7723  -11.2615 O   0  0  0  0  0  0  0  0  0  0  0  0
   10.9926  -10.5604  -11.5825 C   0  0  0  0  0  0  0  0  0  0  0  0
   11.3567   -9.3054  -12.0235 C   0  0  0  0  0  0  0  0  0  0  0  0
   12.6659   -9.0594  -12.3504 C   0  0  0  0  0  0  0  0  0  0  0  0
   13.5987  -10.0490  -12.2398 C   0  0  0  0  0  0  0  0  0  0  0  0
   15.0114   -9.7275  -12.6131 C   0  0  0  0  0  0  0  0  0  0  0  0
   15.1378   -9.9871  -14.0896 C   0  0  2  0  0  0  0  0  0  0  0  0
   15.1539  -11.4165  -14.3298 N   0  0  0  0  0  0  0  0  0  0  0  0
   16.3814   -9.3966  -14.6674 C   0  0  0  0  0  0  0  0  0  0  0  0
   17.4954  -10.0170  -14.5838 O   0  0  0  0  0  0  0  0  0  0  0  0
   13.2708  -11.3012  -11.8065 C   0  0  0  0  0  0  0  0  0  0  0  0
   11.9501  -11.5429  -11.4785 C   0  0  0  0  0  0  0  0  0  0  0  0
   16.4166   -8.1469  -15.3287 N   0  0  0  0  0  0  0  0  0  0  0  0
   17.6094   -7.6357  -15.9311 C   0  0  1  0  0  0  0  0  0  0  0  0
   17.3607   -6.7925  -17.1551 C   0  0  0  0  0  0  0  0  0  0  0  0
   18.5856   -6.3317  -17.8180 C   0  0  0  0  0  0  0  0  0  0  0  0
   18.7127   -5.1031  -18.0837 O   0  0  0  0  0  0  0  0  0  0  0  0
   18.5016   -6.9570  -14.9582 C   0  0  0  0  0  0  0  0  0  0  0  0
   17.9795   -6.1569  -14.1434 O   0  0  0  0  0  0  0  0  0  0  0  0
   19.6365   -7.1574  -18.1830 O   0  0  0  0  0  0  0  0  0  0  0  0
   19.8760   -7.1780  -14.9238 N   0  0  0  0  0  0  0  0  0  0  0  0
   20.7875   -6.6160  -13.9395 C   0  0  1  0  0  0  0  0  0  0  0  0
   21.9666   -7.5359  -13.6821 C   0  0  0  0  0  0  0  0  0  0  0  0
   21.3177   -8.9695  -12.7673 S   0  0  0  0  0  0  0  0  0  0  0  0
   21.3173   -5.3506  -14.5025 C   0  0  0  0  0  0  0  0  0  0  0  0
   22.1033   -4.5001  -13.7421 O   0  0  0  0  0  0  0  0  0  0  0  0
   21.0851   -4.9830  -15.6881 O   0  0  0  0  0  0  0  0  0  0  0  0
  2  1  1  0
  3  2  2  0
  4  3  1  0
  5 11  1  0
  5  4  2  0
  6  5  1  0
  7  6  1  0
  7  8  1  1
  9  7  1  0
  9 13  1  0
 10  9  2  0
 11 12  2  0
 12  2  1  0
 14 13  1  0
 14 18  1  0
 14 15  1  6
 16 17  2  0
 16 15  1  0
 18 19  2  0
 20 16  1  0
 21 18  1  0
 21 22  1  0
 22 23  1  6
 23 24  1  0
 25 22  1  0
 25 26  1  0
 27 25  2  0
M  END
$$$$
