YDC.pdb
     RDKit          3D

 27 27  0  0  1  0  0  0  0  0999 V2000
   28.3888  -20.0884   -4.5468 O   0  0  0  0  0  0  0  0  0  0  0  0
   27.9095  -20.0208   -5.8469 C   0  0  0  0  0  0  0  0  0  0  0  0
   28.5198  -19.1377   -6.7127 C   0  0  0  0  0  0  0  0  0  0  0  0
   28.0722  -19.0436   -8.0058 C   0  0  0  0  0  0  0  0  0  0  0  0
   27.0320  -19.8178   -8.4303 C   0  0  0  0  0  0  0  0  0  0  0  0
   26.5817  -19.6725   -9.8496 C   0  0  0  0  0  0  0  0  0  0  0  0
   26.7591  -21.0181  -10.4989 C   0  0  2  0  0  0  0  0  0  0  0  0
   28.1729  -21.3009  -10.6476 N   0  0  0  0  0  0  0  0  0  0  0  0
   26.1185  -21.0895  -11.8456 C   0  0  0  0  0  0  0  0  0  0  0  0
   26.5708  -20.3953  -12.8184 O   0  0  0  0  0  0  0  0  0  0  0  0
   26.4070  -20.7014   -7.5985 C   0  0  0  0  0  0  0  0  0  0  0  0
   26.8625  -20.7918   -6.2968 C   0  0  0  0  0  0  0  0  0  0  0  0
   24.9997  -21.9051  -12.1344 N   0  0  0  0  0  0  0  0  0  0  0  0
   24.4014  -21.9478  -13.4334 C   0  0  1  0  0  0  0  0  0  0  0  0
   23.7657  -23.2725  -13.7681 C   0  0  0  0  0  0  0  0  0  0  0  0
   24.7235  -24.3027  -14.1846 C   0  0  0  0  0  0  0  0  0  0  0  0
   25.8226  -23.9460  -14.6953 O   0  0  0  0  0  0  0  0  0  0  0  0
   23.4824  -20.8093  -13.6827 C   0  0  0  0  0  0  0  0  0  0  0  0
   22.7188  -20.4573  -12.7502 O   0  0  0  0  0  0  0  0  0  0  0  0
   24.5115  -25.6660  -14.0581 O   0  0  0  0  0  0  0  0  0  0  0  0
   23.4433  -20.1326  -14.8991 N   0  0  0  0  0  0  0  0  0  0  0  0
   22.5396  -19.0381  -15.2169 C   0  0  1  0  0  0  0  0  0  0  0  0
   22.9041  -18.3785  -16.5341 C   0  0  0  0  0  0  0  0  0  0  0  0
   21.7260  -17.0120  -16.7748 S   0  0  0  0  0  0  0  0  0  0  0  0
   21.1821  -19.6166  -15.3627 C   0  0  0  0  0  0  0  0  0  0  0  0
   20.0676  -18.9695  -14.8542 O   0  0  0  0  0  0  0  0  0  0  0  0
   20.9692  -20.7145  -15.9492 O   0  0  0  0  0  0  0  0  0  0  0  0
  2  1  1  0
  3  2  2  0
  4  3  1  0
  5 11  1  0
  5  4  2  0
  6  5  1  0
  7  6  1  0
  7  8  1  6
  9  7  1  0
  9 13  1  0
 10  9  2  0
 11 12  2  0
 12  2  1  0
 14 13  1  0
 14 18  1  0
 14 15  1  1
 16 17  2  0
 16 15  1  0
 18 19  2  0
 20 16  1  0
 21 18  1  0
 21 22  1  0
 22 23  1  6
 23 24  1  0
 25 22  1  0
 25 26  1  0
 27 25  2  0
M  END
$$$$
