HFE.pdb
     RDKit          3D

 31 32  0  0  1  0  0  0  0  0999 V2000
   28.0429  -20.5683  -15.7099 N   0  0  0  0  0  0  0  0  0  0  0  0
   27.0446  -21.5775  -16.0141 C   0  0  1  0  0  0  0  0  0  0  0  0
   27.6553  -22.8685  -16.4519 C   0  0  0  0  0  0  0  0  0  0  0  0
   28.4545  -22.6745  -17.6994 C   0  0  0  0  0  0  0  0  0  0  0  0
   28.6781  -21.5037  -18.3853 C   0  0  0  0  0  0  0  0  0  0  0  0
   29.4489  -21.7567  -19.4526 N   0  0  0  0  0  0  0  0  0  0  0  0
   29.7037  -23.0556  -19.4378 C   0  0  0  0  0  0  0  0  0  0  0  0
   29.1160  -23.6392  -18.3894 N   0  0  0  0  0  0  0  0  0  0  0  0
   26.1658  -21.7493  -14.8374 C   0  0  0  0  0  0  0  0  0  0  0  0
   25.6958  -22.8977  -14.5308 O   0  0  0  0  0  0  0  0  0  0  0  0
   25.7873  -20.6686  -13.9744 N   0  0  0  0  0  0  0  0  0  0  0  0
   24.8244  -20.8252  -12.9069 C   0  0  1  0  0  0  0  0  0  0  0  0
   25.2028  -19.8393  -11.7989 C   0  0  0  0  0  0  0  0  0  0  0  0
   26.3288  -20.3371  -10.9692 C   0  0  0  0  0  0  0  0  0  0  0  0
   26.1939  -20.4522   -9.5862 C   0  0  0  0  0  0  0  0  0  0  0  0
   27.1988  -20.9035   -8.7728 C   0  0  0  0  0  0  0  0  0  0  0  0
   28.4026  -21.2640   -9.3286 C   0  0  0  0  0  0  0  0  0  0  0  0
   28.5514  -21.1560  -10.6930 C   0  0  0  0  0  0  0  0  0  0  0  0
   27.5398  -20.7019  -11.5095 C   0  0  0  0  0  0  0  0  0  0  0  0
   23.4367  -20.5188  -13.3009 C   0  0  0  0  0  0  0  0  0  0  0  0
   23.1576  -19.4917  -13.9547 O   0  0  0  0  0  0  0  0  0  0  0  0
   22.4256  -21.4328  -12.9106 N   0  0  0  0  0  0  0  0  0  0  0  0
   20.9955  -21.1907  -13.1991 C   0  0  1  0  0  0  0  0  0  0  0  0
   20.3665  -22.5488  -13.2598 C   0  0  0  0  0  0  0  0  0  0  0  0
   19.9429  -23.0408  -14.5971 C   0  0  0  0  0  0  0  0  0  0  0  0
   18.7147  -23.8516  -14.6119 C   0  0  0  0  0  0  0  0  0  0  0  0
   18.1231  -24.0713  -13.5134 O   0  0  0  0  0  0  0  0  0  0  0  0
   20.3701  -20.2453  -12.3133 C   0  0  0  0  0  0  0  0  0  0  0  0
   19.3414  -19.5841  -12.6367 O   0  0  0  0  0  0  0  0  0  0  0  0
   18.1951  -24.3736  -15.7773 O   0  0  0  0  0  0  0  0  0  0  0  0
   20.9285  -20.0499  -11.0351 O   0  0  0  0  0  0  0  0  0  0  0  0
  2  1  1  1
  3  2  1  0
  3  4  1  0
  4  8  1  0
  4  5  2  0
  5  6  1  0
  7  6  1  0
  8  7  2  0
  9  2  1  0
 10  9  2  0
 11  9  1  0
 12 11  1  0
 13 14  1  0
 12 13  1  1
 14 15  2  0
 15 16  1  0
 17 16  2  0
 18 17  1  0
 19 14  1  0
 19 18  2  0
 20 22  1  0
 20 12  1  0
 21 20  2  0
 23 24  1  1
 23 22  1  0
 25 24  1  0
 26 25  1  0
 27 26  2  0
 28 23  1  0
 29 28  2  0
 30 26  1  0
 31 28  1  0
M  END
$$$$
