HFE.pdb
     RDKit          3D

 31 32  0  0  1  0  0  0  0  0999 V2000
   20.1927  -12.2875  -19.1111 N   0  0  0  0  0  0  0  0  0  0  0  0
   20.3017  -10.8401  -19.0781 C   0  0  1  0  0  0  0  0  0  0  0  0
   19.0402  -10.1645  -19.5065 C   0  0  0  0  0  0  0  0  0  0  0  0
   18.7905  -10.3934  -20.9618 C   0  0  0  0  0  0  0  0  0  0  0  0
   19.5902  -10.0362  -22.0220 C   0  0  0  0  0  0  0  0  0  0  0  0
   19.0079  -10.4241  -23.1655 N   0  0  0  0  0  0  0  0  0  0  0  0
   17.8693  -11.0111  -22.8320 C   0  0  0  0  0  0  0  0  0  0  0  0
   17.7086  -11.0084  -21.5056 N   0  0  0  0  0  0  0  0  0  0  0  0
   20.7224  -10.4240  -17.7230 C   0  0  0  0  0  0  0  0  0  0  0  0
   19.9835  -10.6551  -16.7060 O   0  0  0  0  0  0  0  0  0  0  0  0
   21.9594   -9.7497  -17.4563 N   0  0  0  0  0  0  0  0  0  0  0  0
   22.3335   -9.3040  -16.1325 C   0  0  1  0  0  0  0  0  0  0  0  0
   23.7209   -9.8759  -15.8305 C   0  0  0  0  0  0  0  0  0  0  0  0
   23.6998  -11.3550  -15.7045 C   0  0  0  0  0  0  0  0  0  0  0  0
   23.9280  -12.1648  -16.8164 C   0  0  0  0  0  0  0  0  0  0  0  0
   23.9189  -13.5328  -16.7584 C   0  0  0  0  0  0  0  0  0  0  0  0
   23.6752  -14.1530  -15.5567 C   0  0  0  0  0  0  0  0  0  0  0  0
   23.4481  -13.3670  -14.4494 C   0  0  0  0  0  0  0  0  0  0  0  0
   23.4575  -11.9913  -14.5096 C   0  0  0  0  0  0  0  0  0  0  0  0
   22.4330   -7.8388  -15.9985 C   0  0  0  0  0  0  0  0  0  0  0  0
   22.6059   -7.1045  -16.9941 O   0  0  0  0  0  0  0  0  0  0  0  0
   22.3257   -7.2890  -14.6960 N   0  0  0  0  0  0  0  0  0  0  0  0
   22.0142   -5.8611  -14.4704 C   0  0  1  0  0  0  0  0  0  0  0  0
   20.8488   -5.5624  -15.3627 C   0  0  0  0  0  0  0  0  0  0  0  0
   20.2807   -4.1901  -15.2997 C   0  0  0  0  0  0  0  0  0  0  0  0
   19.1826   -3.9173  -16.2409 C   0  0  0  0  0  0  0  0  0  0  0  0
   18.6253   -2.7802  -16.2052 O   0  0  0  0  0  0  0  0  0  0  0  0
   21.8546   -5.5071  -13.0852 C   0  0  0  0  0  0  0  0  0  0  0  0
   22.1447   -4.3608  -12.6359 O   0  0  0  0  0  0  0  0  0  0  0  0
   18.7478   -4.8563  -17.1518 O   0  0  0  0  0  0  0  0  0  0  0  0
   21.3554   -6.4784  -12.1958 O   0  0  0  0  0  0  0  0  0  0  0  0
  2  1  1  1
  3  2  1  0
  3  4  1  0
  4  8  1  0
  4  5  2  0
  5  6  1  0
  7  6  1  0
  8  7  2  0
  9  2  1  0
 10  9  2  0
 11  9  1  0
 12 11  1  0
 13 14  1  0
 12 13  1  6
 14 15  2  0
 15 16  1  0
 17 16  2  0
 18 17  1  0
 19 14  1  0
 19 18  2  0
 20 22  1  0
 20 12  1  0
 21 20  2  0
 23 24  1  6
 23 22  1  0
 25 24  1  0
 26 25  1  0
 27 26  2  0
 28 23  1  0
 29 28  2  0
 30 26  1  0
 31 28  1  0
M  END
$$$$
