HFE.pdb
     RDKit          3D

 31 32  0  0  1  0  0  0  0  0999 V2000
   27.4546  -20.7686  -16.7481 N   0  0  0  0  0  0  0  0  0  0  0  0
   26.8937  -22.0924  -16.5465 C   0  0  1  0  0  0  0  0  0  0  0  0
   27.9428  -23.1550  -16.5061 C   0  0  0  0  0  0  0  0  0  0  0  0
   28.8096  -23.0830  -17.7210 C   0  0  0  0  0  0  0  0  0  0  0  0
   28.5160  -23.5117  -18.9943 C   0  0  0  0  0  0  0  0  0  0  0  0
   29.5612  -23.2639  -19.7964 N   0  0  0  0  0  0  0  0  0  0  0  0
   30.4897  -22.6930  -19.0451 C   0  0  0  0  0  0  0  0  0  0  0  0
   30.0654  -22.5696  -17.7842 N   0  0  0  0  0  0  0  0  0  0  0  0
   26.0685  -22.0792  -15.3195 C   0  0  0  0  0  0  0  0  0  0  0  0
   25.7222  -23.1695  -14.7493 O   0  0  0  0  0  0  0  0  0  0  0  0
   25.6094  -20.8736  -14.6938 N   0  0  0  0  0  0  0  0  0  0  0  0
   24.6952  -20.8772  -13.5734 C   0  0  1  0  0  0  0  0  0  0  0  0
   25.1815  -19.8185  -12.5805 C   0  0  0  0  0  0  0  0  0  0  0  0
   26.2302  -20.3456  -11.6713 C   0  0  0  0  0  0  0  0  0  0  0  0
   25.9242  -20.6745  -10.3512 C   0  0  0  0  0  0  0  0  0  0  0  0
   26.8511  -21.1626   -9.4693 C   0  0  0  0  0  0  0  0  0  0  0  0
   28.1474  -21.3430   -9.8879 C   0  0  0  0  0  0  0  0  0  0  0  0
   28.4651  -21.0229  -11.1886 C   0  0  0  0  0  0  0  0  0  0  0  0
   27.5318  -20.5320  -12.0742 C   0  0  0  0  0  0  0  0  0  0  0  0
   23.3075  -20.5282  -13.9301 C   0  0  0  0  0  0  0  0  0  0  0  0
   23.0528  -19.5780  -14.6998 O   0  0  0  0  0  0  0  0  0  0  0  0
   22.2676  -21.3105  -13.3673 N   0  0  0  0  0  0  0  0  0  0  0  0
   20.8441  -21.0714  -13.6889 C   0  0  1  0  0  0  0  0  0  0  0  0
   20.1956  -22.4210  -13.6515 C   0  0  0  0  0  0  0  0  0  0  0  0
   18.9714  -22.5623  -12.8201 C   0  0  0  0  0  0  0  0  0  0  0  0
   18.3620  -23.9020  -12.8159 C   0  0  0  0  0  0  0  0  0  0  0  0
   17.3565  -24.1056  -12.0727 O   0  0  0  0  0  0  0  0  0  0  0  0
   20.2243  -20.0517  -12.8853 C   0  0  0  0  0  0  0  0  0  0  0  0
   20.5917  -19.7980  -11.7019 O   0  0  0  0  0  0  0  0  0  0  0  0
   18.8505  -24.9319  -13.5914 O   0  0  0  0  0  0  0  0  0  0  0  0
   19.1656  -19.3078  -13.4417 O   0  0  0  0  0  0  0  0  0  0  0  0
  2  1  1  1
  3  2  1  0
  3  4  1  0
  4  8  1  0
  4  5  2  0
  5  6  1  0
  7  6  1  0
  8  7  2  0
  9  2  1  0
 10  9  2  0
 11  9  1  0
 12 11  1  0
 13 14  1  0
 12 13  1  1
 14 15  2  0
 15 16  1  0
 17 16  2  0
 18 17  1  0
 19 14  1  0
 19 18  2  0
 20 22  1  0
 20 12  1  0
 21 20  2  0
 23 24  1  1
 23 22  1  0
 25 24  1  0
 26 25  1  0
 27 26  2  0
 28 23  1  0
 29 28  2  0
 30 26  1  0
 31 28  1  0
M  END
$$$$
