HFE.pdb
     RDKit          3D

 31 32  0  0  1  0  0  0  0  0999 V2000
   28.5983  -21.0096  -14.7792 N   0  0  0  0  0  0  0  0  0  0  0  0
   27.6049  -20.0459  -14.3406 C   0  0  1  0  0  0  0  0  0  0  0  0
   26.9468  -19.3462  -15.4846 C   0  0  0  0  0  0  0  0  0  0  0  0
   27.9405  -18.5233  -16.2382 C   0  0  0  0  0  0  0  0  0  0  0  0
   28.5101  -17.3306  -15.8587 C   0  0  0  0  0  0  0  0  0  0  0  0
   29.3532  -16.9186  -16.8160 N   0  0  0  0  0  0  0  0  0  0  0  0
   29.3144  -17.8308  -17.7746 C   0  0  0  0  0  0  0  0  0  0  0  0
   28.4688  -18.8146  -17.4550 N   0  0  0  0  0  0  0  0  0  0  0  0
   26.6254  -20.7324  -13.4713 C   0  0  0  0  0  0  0  0  0  0  0  0
   26.0606  -21.8160  -13.8462 O   0  0  0  0  0  0  0  0  0  0  0  0
   26.2479  -20.2468  -12.1760 N   0  0  0  0  0  0  0  0  0  0  0  0
   25.1041  -20.7598  -11.4551 C   0  0  1  0  0  0  0  0  0  0  0  0
   25.1953  -20.2388  -10.0187 C   0  0  0  0  0  0  0  0  0  0  0  0
   26.5319  -20.4822   -9.4202 C   0  0  0  0  0  0  0  0  0  0  0  0
   27.4427  -21.3354  -10.0423 C   0  0  0  0  0  0  0  0  0  0  0  0
   28.6872  -21.5972   -9.5348 C   0  0  0  0  0  0  0  0  0  0  0  0
   29.0730  -20.9999   -8.3590 C   0  0  0  0  0  0  0  0  0  0  0  0
   28.1848  -20.1547   -7.7328 C   0  0  0  0  0  0  0  0  0  0  0  0
   26.9334  -19.8926   -8.2445 C   0  0  0  0  0  0  0  0  0  0  0  0
   23.8058  -20.3135  -11.9938 C   0  0  0  0  0  0  0  0  0  0  0  0
   23.5357  -19.1005  -12.1194 O   0  0  0  0  0  0  0  0  0  0  0  0
   22.8702  -21.3119  -12.3654 N   0  0  0  0  0  0  0  0  0  0  0  0
   21.5971  -20.9812  -13.0412 C   0  0  1  0  0  0  0  0  0  0  0  0
   21.4118  -22.0425  -14.0819 C   0  0  0  0  0  0  0  0  0  0  0  0
   20.8989  -23.3601  -13.6228 C   0  0  0  0  0  0  0  0  0  0  0  0
   20.5393  -24.3052  -14.6922 C   0  0  0  0  0  0  0  0  0  0  0  0
   20.6645  -23.9309  -15.8960 O   0  0  0  0  0  0  0  0  0  0  0  0
   20.4915  -20.7788  -12.1433 C   0  0  0  0  0  0  0  0  0  0  0  0
   19.4419  -20.1593  -12.4817 O   0  0  0  0  0  0  0  0  0  0  0  0
   20.0743  -25.5748  -14.4226 O   0  0  0  0  0  0  0  0  0  0  0  0
   20.5847  -21.2921  -10.8350 O   0  0  0  0  0  0  0  0  0  0  0  0
  2  1  1  6
  3  2  1  0
  3  4  1  0
  4  8  1  0
  4  5  2  0
  5  6  1  0
  7  6  1  0
  8  7  2  0
  9  2  1  0
 10  9  2  0
 11  9  1  0
 12 11  1  0
 13 14  1  0
 12 13  1  1
 14 15  2  0
 15 16  1  0
 17 16  2  0
 18 17  1  0
 19 14  1  0
 19 18  2  0
 20 22  1  0
 20 12  1  0
 21 20  2  0
 23 24  1  6
 23 22  1  0
 25 24  1  0
 26 25  1  0
 27 26  2  0
 28 23  1  0
 29 28  2  0
 30 26  1  0
 31 28  1  0
M  END
$$$$
