HFE.pdb
     RDKit          3D

 31 32  0  0  1  0  0  0  0  0999 V2000
   38.0904   -9.8050  -13.3775 N   0  0  0  0  0  0  0  0  0  0  0  0
   39.1981   -9.1760  -12.6809 C   0  0  1  0  0  0  0  0  0  0  0  0
   39.6818   -7.9451  -13.3753 C   0  0  0  0  0  0  0  0  0  0  0  0
   40.1623   -8.2734  -14.7515 C   0  0  0  0  0  0  0  0  0  0  0  0
   39.8620   -7.6266  -15.9273 C   0  0  0  0  0  0  0  0  0  0  0  0
   40.4973   -8.2327  -16.9403 N   0  0  0  0  0  0  0  0  0  0  0  0
   41.1806   -9.2368  -16.4137 C   0  0  0  0  0  0  0  0  0  0  0  0
   40.9986   -9.2882  -15.0910 N   0  0  0  0  0  0  0  0  0  0  0  0
   38.7914   -8.9035  -11.2856 C   0  0  0  0  0  0  0  0  0  0  0  0
   37.6743   -8.3393  -11.0255 O   0  0  0  0  0  0  0  0  0  0  0  0
   39.5982   -9.2450  -10.1506 N   0  0  0  0  0  0  0  0  0  0  0  0
   39.2162   -8.9137   -8.7958 C   0  0  1  0  0  0  0  0  0  0  0  0
   39.4262  -10.1657   -7.9404 C   0  0  0  0  0  0  0  0  0  0  0  0
   38.2707  -11.0946   -8.0170 C   0  0  0  0  0  0  0  0  0  0  0  0
   37.3837  -11.2127   -6.9477 C   0  0  0  0  0  0  0  0  0  0  0  0
   36.3032  -12.0537   -6.9631 C   0  0  0  0  0  0  0  0  0  0  0  0
   36.0670  -12.8242   -8.0761 C   0  0  0  0  0  0  0  0  0  0  0  0
   36.9339  -12.7187   -9.1404 C   0  0  0  0  0  0  0  0  0  0  0  0
   38.0202  -11.8725   -9.1231 C   0  0  0  0  0  0  0  0  0  0  0  0
   40.0233   -7.8381   -8.1907 C   0  0  0  0  0  0  0  0  0  0  0  0
   41.2521   -7.9700   -8.0091 O   0  0  0  0  0  0  0  0  0  0  0  0
   39.3549   -6.6439   -7.8200 N   0  0  0  0  0  0  0  0  0  0  0  0
   40.0732   -5.4934   -7.2307 C   0  0  1  0  0  0  0  0  0  0  0  0
   39.9643   -4.3954   -8.2436 C   0  0  0  0  0  0  0  0  0  0  0  0
   40.7071   -4.5732   -9.5190 C   0  0  0  0  0  0  0  0  0  0  0  0
   40.5668   -3.4759  -10.4898 C   0  0  0  0  0  0  0  0  0  0  0  0
   39.5541   -3.4689  -11.2508 O   0  0  0  0  0  0  0  0  0  0  0  0
   39.6549   -5.1624   -5.8946 C   0  0  0  0  0  0  0  0  0  0  0  0
   38.4783   -4.7873   -5.6209 O   0  0  0  0  0  0  0  0  0  0  0  0
   41.4985   -2.4649  -10.5928 O   0  0  0  0  0  0  0  0  0  0  0  0
   40.5960   -5.2605   -4.8514 O   0  0  0  0  0  0  0  0  0  0  0  0
  2  1  1  6
  3  2  1  0
  3  4  1  0
  4  8  1  0
  4  5  2  0
  5  6  1  0
  7  6  1  0
  8  7  2  0
  9  2  1  0
 10  9  2  0
 11  9  1  0
 12 11  1  0
 13 14  1  0
 12 13  1  1
 14 15  2  0
 15 16  1  0
 17 16  2  0
 18 17  1  0
 19 14  1  0
 19 18  2  0
 20 22  1  0
 20 12  1  0
 21 20  2  0
 23 24  1  6
 23 22  1  0
 25 24  1  0
 26 25  1  0
 27 26  2  0
 28 23  1  0
 29 28  2  0
 30 26  1  0
 31 28  1  0
M  END
$$$$
