HFE.pdb
     RDKit          3D

 31 32  0  0  1  0  0  0  0  0999 V2000
   27.2256  -22.9058  -16.4136 N   0  0  0  0  0  0  0  0  0  0  0  0
   26.8360  -21.5826  -15.9606 C   0  0  1  0  0  0  0  0  0  0  0  0
   26.3860  -20.7062  -17.0834 C   0  0  0  0  0  0  0  0  0  0  0  0
   27.5298  -20.3857  -17.9898 C   0  0  0  0  0  0  0  0  0  0  0  0
   27.8438  -20.9731  -19.1929 C   0  0  0  0  0  0  0  0  0  0  0  0
   28.9464  -20.3965  -19.6921 N   0  0  0  0  0  0  0  0  0  0  0  0
   29.3165  -19.4688  -18.8233 C   0  0  0  0  0  0  0  0  0  0  0  0
   28.4797  -19.4375  -17.7822 N   0  0  0  0  0  0  0  0  0  0  0  0
   25.7998  -21.7222  -14.9149 C   0  0  0  0  0  0  0  0  0  0  0  0
   24.8414  -22.5574  -15.0474 O   0  0  0  0  0  0  0  0  0  0  0  0
   25.7949  -20.9522  -13.7053 N   0  0  0  0  0  0  0  0  0  0  0  0
   24.7056  -21.0012  -12.7556 C   0  0  1  0  0  0  0  0  0  0  0  0
   25.1333  -20.1982  -11.5246 C   0  0  0  0  0  0  0  0  0  0  0  0
   24.1064  -20.2299  -10.4528 C   0  0  0  0  0  0  0  0  0  0  0  0
   22.9592  -19.4429  -10.5464 C   0  0  0  0  0  0  0  0  0  0  0  0
   21.9813  -19.4314   -9.5880 C   0  0  0  0  0  0  0  0  0  0  0  0
   22.1208  -20.2263   -8.4759 C   0  0  0  0  0  0  0  0  0  0  0  0
   23.2481  -21.0093   -8.3689 C   0  0  0  0  0  0  0  0  0  0  0  0
   24.2307  -21.0195   -9.3337 C   0  0  0  0  0  0  0  0  0  0  0  0
   23.4525  -20.3999  -13.2483 C   0  0  0  0  0  0  0  0  0  0  0  0
   23.4400  -19.2754  -13.7919 O   0  0  0  0  0  0  0  0  0  0  0  0
   22.2570  -21.1441  -13.0832 N   0  0  0  0  0  0  0  0  0  0  0  0
   20.9362  -20.6025  -13.4695 C   0  0  1  0  0  0  0  0  0  0  0  0
   20.5124  -21.4015  -14.6635 C   0  0  0  0  0  0  0  0  0  0  0  0
   19.1762  -21.1006  -15.2413 C   0  0  0  0  0  0  0  0  0  0  0  0
   18.7710  -21.9511  -16.3720 C   0  0  0  0  0  0  0  0  0  0  0  0
   17.8405  -22.7917  -16.1922 O   0  0  0  0  0  0  0  0  0  0  0  0
   19.9903  -20.5355  -12.3877 C   0  0  0  0  0  0  0  0  0  0  0  0
   19.8344  -21.4774  -11.5580 O   0  0  0  0  0  0  0  0  0  0  0  0
   19.3706  -21.8590  -17.6101 O   0  0  0  0  0  0  0  0  0  0  0  0
   19.2072  -19.3729  -12.2499 O   0  0  0  0  0  0  0  0  0  0  0  0
  2  1  1  6
  3  2  1  0
  3  4  1  0
  4  8  1  0
  4  5  2  0
  5  6  1  0
  7  6  1  0
  8  7  2  0
  9  2  1  0
 10  9  2  0
 11  9  1  0
 12 11  1  0
 13 14  1  0
 12 13  1  1
 14 15  2  0
 15 16  1  0
 17 16  2  0
 18 17  1  0
 19 14  1  0
 19 18  2  0
 20 22  1  0
 20 12  1  0
 21 20  2  0
 23 24  1  6
 23 22  1  0
 25 24  1  0
 26 25  1  0
 27 26  2  0
 28 23  1  0
 29 28  2  0
 30 26  1  0
 31 28  1  0
M  END
$$$$
