HFE.pdb
     RDKit          3D

 31 32  0  0  1  0  0  0  0  0999 V2000
   21.0879  -12.5028  -16.8209 N   0  0  0  0  0  0  0  0  0  0  0  0
   20.4175  -11.4610  -17.5779 C   0  0  1  0  0  0  0  0  0  0  0  0
   19.1440  -11.9368  -18.1967 C   0  0  0  0  0  0  0  0  0  0  0  0
   19.4104  -13.0536  -19.1530 C   0  0  0  0  0  0  0  0  0  0  0  0
   20.1243  -13.0071  -20.3274 C   0  0  0  0  0  0  0  0  0  0  0  0
   20.1303  -14.2241  -20.8898 N   0  0  0  0  0  0  0  0  0  0  0  0
   19.4366  -15.0166  -20.0877 C   0  0  0  0  0  0  0  0  0  0  0  0
   18.9876  -14.3381  -19.0280 N   0  0  0  0  0  0  0  0  0  0  0  0
   20.2048  -10.2927  -16.6968 C   0  0  0  0  0  0  0  0  0  0  0  0
   19.3173  -10.3167  -15.7772 O   0  0  0  0  0  0  0  0  0  0  0  0
   20.9600   -9.0786  -16.8048 N   0  0  0  0  0  0  0  0  0  0  0  0
   20.7422   -7.9459  -15.9327 C   0  0  1  0  0  0  0  0  0  0  0  0
   22.0384   -7.7106  -15.1533 C   0  0  0  0  0  0  0  0  0  0  0  0
   22.1618   -8.6209  -13.9870 C   0  0  0  0  0  0  0  0  0  0  0  0
   21.4354   -8.3819  -12.8210 C   0  0  0  0  0  0  0  0  0  0  0  0
   21.5115   -9.1867  -11.7157 C   0  0  0  0  0  0  0  0  0  0  0  0
   22.3369  -10.2851  -11.7395 C   0  0  0  0  0  0  0  0  0  0  0  0
   23.0606  -10.5345  -12.8838 C   0  0  0  0  0  0  0  0  0  0  0  0
   22.9830   -9.7240  -13.9944 C   0  0  0  0  0  0  0  0  0  0  0  0
   20.4333   -6.6916  -16.6440 C   0  0  0  0  0  0  0  0  0  0  0  0
   21.0842   -6.3362  -17.6491 O   0  0  0  0  0  0  0  0  0  0  0  0
   19.3683   -5.8989  -16.1464 N   0  0  0  0  0  0  0  0  0  0  0  0
   18.9197   -4.6680  -16.8324 C   0  0  1  0  0  0  0  0  0  0  0  0
   17.5611   -4.9882  -17.3759 C   0  0  0  0  0  0  0  0  0  0  0  0
   16.8532   -3.9076  -18.1115 C   0  0  0  0  0  0  0  0  0  0  0  0
   15.5540   -4.2847  -18.6912 C   0  0  0  0  0  0  0  0  0  0  0  0
   15.5366   -5.1273  -19.6370 O   0  0  0  0  0  0  0  0  0  0  0  0
   19.0123   -3.4800  -16.0263 C   0  0  0  0  0  0  0  0  0  0  0  0
   19.3717   -2.3623  -16.4968 O   0  0  0  0  0  0  0  0  0  0  0  0
   14.3664   -3.7512  -18.2376 O   0  0  0  0  0  0  0  0  0  0  0  0
   18.6895   -3.5686  -14.6582 O   0  0  0  0  0  0  0  0  0  0  0  0
  2  1  1  1
  3  2  1  0
  3  4  1  0
  4  8  1  0
  4  5  2  0
  5  6  1  0
  7  6  1  0
  8  7  2  0
  9  2  1  0
 10  9  2  0
 11  9  1  0
 12 11  1  0
 13 14  1  0
 12 13  1  6
 14 15  2  0
 15 16  1  0
 17 16  2  0
 18 17  1  0
 19 14  1  0
 19 18  2  0
 20 22  1  0
 20 12  1  0
 21 20  2  0
 23 24  1  1
 23 22  1  0
 25 24  1  0
 26 25  1  0
 27 26  2  0
 28 23  1  0
 29 28  2  0
 30 26  1  0
 31 28  1  0
M  END
$$$$
