HFE.pdb
     RDKit          3D

 31 32  0  0  1  0  0  0  0  0999 V2000
   24.2409  -22.2524  -17.6686 N   0  0  0  0  0  0  0  0  0  0  0  0
   24.4279  -23.3767  -16.7693 C   0  0  1  0  0  0  0  0  0  0  0  0
   23.1550  -24.1126  -16.5057 C   0  0  0  0  0  0  0  0  0  0  0  0
   22.1723  -23.2286  -15.8090 C   0  0  0  0  0  0  0  0  0  0  0  0
   20.9741  -22.7549  -16.2896 C   0  0  0  0  0  0  0  0  0  0  0  0
   20.3911  -21.9944  -15.3520 N   0  0  0  0  0  0  0  0  0  0  0  0
   21.2037  -21.9903  -14.3069 C   0  0  0  0  0  0  0  0  0  0  0  0
   22.2904  -22.7279  -14.5521 N   0  0  0  0  0  0  0  0  0  0  0  0
   25.4767  -24.2605  -17.3219 C   0  0  0  0  0  0  0  0  0  0  0  0
   25.2757  -24.9276  -18.3935 O   0  0  0  0  0  0  0  0  0  0  0  0
   26.7641  -24.4287  -16.7133 N   0  0  0  0  0  0  0  0  0  0  0  0
   27.7586  -25.3399  -17.2345 C   0  0  1  0  0  0  0  0  0  0  0  0
   29.1343  -24.7697  -16.8802 C   0  0  0  0  0  0  0  0  0  0  0  0
   30.2393  -25.6214  -17.3877 C   0  0  0  0  0  0  0  0  0  0  0  0
   30.9545  -26.4463  -16.5204 C   0  0  0  0  0  0  0  0  0  0  0  0
   31.9830  -27.2507  -16.9331 C   0  0  0  0  0  0  0  0  0  0  0  0
   32.3400  -27.2577  -18.2600 C   0  0  0  0  0  0  0  0  0  0  0  0
   31.6431  -26.4486  -19.1289 C   0  0  0  0  0  0  0  0  0  0  0  0
   30.6092  -25.6402  -18.7122 C   0  0  0  0  0  0  0  0  0  0  0  0
   27.6920  -26.6951  -16.6569 C   0  0  0  0  0  0  0  0  0  0  0  0
   27.7931  -26.8837  -15.4262 O   0  0  0  0  0  0  0  0  0  0  0  0
   27.5092  -27.7817  -17.5491 N   0  0  0  0  0  0  0  0  0  0  0  0
   27.4263  -29.1802  -17.0756 C   0  0  1  0  0  0  0  0  0  0  0  0
   26.1306  -29.7059  -17.6126 C   0  0  0  0  0  0  0  0  0  0  0  0
   25.8405  -31.1473  -17.3930 C   0  0  0  0  0  0  0  0  0  0  0  0
   24.5499  -31.6191  -17.9201 C   0  0  0  0  0  0  0  0  0  0  0  0
   23.7697  -30.7744  -18.4516 O   0  0  0  0  0  0  0  0  0  0  0  0
   28.5947  -29.9679  -17.3651 C   0  0  0  0  0  0  0  0  0  0  0  0
   29.2107  -29.8957  -18.4675 O   0  0  0  0  0  0  0  0  0  0  0  0
   24.1702  -32.9427  -17.8520 O   0  0  0  0  0  0  0  0  0  0  0  0
   29.0692  -30.8550  -16.3793 O   0  0  0  0  0  0  0  0  0  0  0  0
  2  1  1  6
  3  2  1  0
  3  4  1  0
  4  8  1  0
  4  5  2  0
  5  6  1  0
  7  6  1  0
  8  7  2  0
  9  2  1  0
 10  9  2  0
 11  9  1  0
 12 11  1  0
 13 14  1  0
 12 13  1  1
 14 15  2  0
 15 16  1  0
 17 16  2  0
 18 17  1  0
 19 14  1  0
 19 18  2  0
 20 22  1  0
 20 12  1  0
 21 20  2  0
 23 24  1  6
 23 22  1  0
 25 24  1  0
 26 25  1  0
 27 26  2  0
 28 23  1  0
 29 28  2  0
 30 26  1  0
 31 28  1  0
M  END
$$$$
