HFE.pdb
     RDKit          3D

 31 32  0  0  1  0  0  0  0  0999 V2000
   31.3585  -33.3164  -16.4146 N   0  0  0  0  0  0  0  0  0  0  0  0
   29.9118  -33.2615  -16.5243 C   0  0  1  0  0  0  0  0  0  0  0  0
   29.3873  -34.1647  -17.5921 C   0  0  0  0  0  0  0  0  0  0  0  0
   29.8108  -33.6830  -18.9417 C   0  0  0  0  0  0  0  0  0  0  0  0
   30.8986  -34.0873  -19.6793 C   0  0  0  0  0  0  0  0  0  0  0  0
   30.9233  -33.4123  -20.8373 N   0  0  0  0  0  0  0  0  0  0  0  0
   29.8758  -32.6030  -20.8277 C   0  0  0  0  0  0  0  0  0  0  0  0
   29.1826  -32.7429  -19.6941 N   0  0  0  0  0  0  0  0  0  0  0  0
   29.3214  -33.5623  -15.2024 C   0  0  0  0  0  0  0  0  0  0  0  0
   29.8850  -34.3854  -14.4033 O   0  0  0  0  0  0  0  0  0  0  0  0
   28.1053  -32.9668  -14.7307 N   0  0  0  0  0  0  0  0  0  0  0  0
   27.5655  -33.2355  -13.4163 C   0  0  1  0  0  0  0  0  0  0  0  0
   27.0086  -31.9183  -12.8705 C   0  0  0  0  0  0  0  0  0  0  0  0
   26.3845  -32.0870  -11.5341 C   0  0  0  0  0  0  0  0  0  0  0  0
   24.9972  -32.1271  -11.3993 C   0  0  0  0  0  0  0  0  0  0  0  0
   24.3683  -32.2791  -10.1925 C   0  0  0  0  0  0  0  0  0  0  0  0
   25.1240  -32.3992   -9.0512 C   0  0  0  0  0  0  0  0  0  0  0  0
   26.4953  -32.3616   -9.1679 C   0  0  0  0  0  0  0  0  0  0  0  0
   27.1261  -32.2086  -10.3823 C   0  0  0  0  0  0  0  0  0  0  0  0
   26.4565  -34.2075  -13.4104 C   0  0  0  0  0  0  0  0  0  0  0  0
   25.4464  -34.0468  -14.1274 O   0  0  0  0  0  0  0  0  0  0  0  0
   26.5755  -35.3353  -12.5594 N   0  0  0  0  0  0  0  0  0  0  0  0
   25.5189  -36.3661  -12.4708 C   0  0  1  0  0  0  0  0  0  0  0  0
   26.2390  -37.6788  -12.5133 C   0  0  0  0  0  0  0  0  0  0  0  0
   25.4094  -38.9101  -12.4390 C   0  0  0  0  0  0  0  0  0  0  0  0
   26.1597  -40.1757  -12.4008 C   0  0  0  0  0  0  0  0  0  0  0  0
   25.9507  -40.9726  -11.4385 O   0  0  0  0  0  0  0  0  0  0  0  0
   24.6096  -36.1813  -11.3714 C   0  0  0  0  0  0  0  0  0  0  0  0
   23.3800  -36.4682  -11.4469 O   0  0  0  0  0  0  0  0  0  0  0  0
   27.0751  -40.5148  -13.3743 O   0  0  0  0  0  0  0  0  0  0  0  0
   25.1118  -35.6590  -10.1636 O   0  0  0  0  0  0  0  0  0  0  0  0
  2  1  1  1
  3  2  1  0
  3  4  1  0
  4  8  1  0
  4  5  2  0
  5  6  1  0
  7  6  1  0
  8  7  2  0
  9  2  1  0
 10  9  2  0
 11  9  1  0
 12 11  1  0
 13 14  1  0
 12 13  1  6
 14 15  2  0
 15 16  1  0
 17 16  2  0
 18 17  1  0
 19 14  1  0
 19 18  2  0
 20 22  1  0
 20 12  1  0
 21 20  2  0
 23 24  1  1
 23 22  1  0
 25 24  1  0
 26 25  1  0
 27 26  2  0
 28 23  1  0
 29 28  2  0
 30 26  1  0
 31 28  1  0
M  END
$$$$
