HFE.pdb
     RDKit          3D

 31 32  0  0  1  0  0  0  0  0999 V2000
   35.4999  -27.8707  -14.6207 N   0  0  0  0  0  0  0  0  0  0  0  0
   35.2268  -27.0937  -15.8163 C   0  0  1  0  0  0  0  0  0  0  0  0
   35.3686  -27.9015  -17.0648 C   0  0  0  0  0  0  0  0  0  0  0  0
   36.7869  -28.3324  -17.2528 C   0  0  0  0  0  0  0  0  0  0  0  0
   37.8228  -27.6117  -17.7994 C   0  0  0  0  0  0  0  0  0  0  0  0
   38.9367  -28.3574  -17.7841 N   0  0  0  0  0  0  0  0  0  0  0  0
   38.6088  -29.5192  -17.2409 C   0  0  0  0  0  0  0  0  0  0  0  0
   37.3147  -29.5355  -16.9087 N   0  0  0  0  0  0  0  0  0  0  0  0
   33.8831  -26.4885  -15.6956 C   0  0  0  0  0  0  0  0  0  0  0  0
   32.8917  -27.1710  -15.2653 O   0  0  0  0  0  0  0  0  0  0  0  0
   33.6006  -25.1260  -16.0415 N   0  0  0  0  0  0  0  0  0  0  0  0
   32.2875  -24.5399  -15.8881 C   0  0  1  0  0  0  0  0  0  0  0  0
   32.4688  -23.0222  -15.8059 C   0  0  0  0  0  0  0  0  0  0  0  0
   31.1861  -22.3196  -15.5509 C   0  0  0  0  0  0  0  0  0  0  0  0
   30.4562  -21.7712  -16.6048 C   0  0  0  0  0  0  0  0  0  0  0  0
   29.2692  -21.1120  -16.4276 C   0  0  0  0  0  0  0  0  0  0  0  0
   28.7590  -20.9755  -15.1591 C   0  0  0  0  0  0  0  0  0  0  0  0
   29.4680  -21.5117  -14.1079 C   0  0  0  0  0  0  0  0  0  0  0  0
   30.6617  -22.1743  -14.2878 C   0  0  0  0  0  0  0  0  0  0  0  0
   31.3767  -24.8046  -17.0173 C   0  0  0  0  0  0  0  0  0  0  0  0
   31.7797  -24.7746  -18.1993 O   0  0  0  0  0  0  0  0  0  0  0  0
   30.0222  -25.0949  -16.7152 N   0  0  0  0  0  0  0  0  0  0  0  0
   29.0244  -25.3696  -17.7715 C   0  0  1  0  0  0  0  0  0  0  0  0
   27.6968  -25.3548  -17.0782 C   0  0  0  0  0  0  0  0  0  0  0  0
   26.4977  -25.6591  -17.9026 C   0  0  0  0  0  0  0  0  0  0  0  0
   25.4454  -26.4334  -17.2250 C   0  0  0  0  0  0  0  0  0  0  0  0
   24.4070  -25.8245  -16.8305 O   0  0  0  0  0  0  0  0  0  0  0  0
   29.1424  -24.5190  -18.9257 C   0  0  0  0  0  0  0  0  0  0  0  0
   28.4113  -23.5020  -19.1017 O   0  0  0  0  0  0  0  0  0  0  0  0
   25.5575  -27.7906  -17.0099 O   0  0  0  0  0  0  0  0  0  0  0  0
   30.1119  -24.8344  -19.8975 O   0  0  0  0  0  0  0  0  0  0  0  0
  2  1  1  1
  3  2  1  0
  3  4  1  0
  4  8  1  0
  4  5  2  0
  5  6  1  0
  7  6  1  0
  8  7  2  0
  9  2  1  0
 10  9  2  0
 11  9  1  0
 12 11  1  0
 13 14  1  0
 12 13  1  6
 14 15  2  0
 15 16  1  0
 17 16  2  0
 18 17  1  0
 19 14  1  0
 19 18  2  0
 20 22  1  0
 20 12  1  0
 21 20  2  0
 23 24  1  1
 23 22  1  0
 25 24  1  0
 26 25  1  0
 27 26  2  0
 28 23  1  0
 29 28  2  0
 30 26  1  0
 31 28  1  0
M  END
$$$$
