FVL.pdb
     RDKit          3D

 27 27  0  0  1  0  0  0  0  0999 V2000
    6.9560  -17.7566   19.3151 N   0  0  0  0  0  0  0  0  0  0  0  0
    7.5562  -16.5626   19.8469 C   0  0  1  0  0  0  0  0  0  0  0  0
    6.4398  -15.5630   20.0775 C   0  0  0  0  0  0  0  0  0  0  0  0
    6.9624  -14.2706   20.5709 C   0  0  0  0  0  0  0  0  0  0  0  0
    6.8484  -13.9056   21.8869 C   0  0  0  0  0  0  0  0  0  0  0  0
    7.3399  -12.6926   22.3428 C   0  0  0  0  0  0  0  0  0  0  0  0
    7.9626  -11.8015   21.5000 C   0  0  0  0  0  0  0  0  0  0  0  0
    8.0757  -12.1725   20.1752 C   0  0  0  0  0  0  0  0  0  0  0  0
    7.5946  -13.3676   19.7120 C   0  0  0  0  0  0  0  0  0  0  0  0
    8.2107  -16.9015   21.1360 C   0  0  0  0  0  0  0  0  0  0  0  0
    7.6019  -17.6743   21.9500 O   0  0  0  0  0  0  0  0  0  0  0  0
   12.4532  -17.2761   23.5336 C   0  0  0  0  0  0  0  0  0  0  0  0
   11.6189  -16.9959   22.3202 C   0  0  1  0  0  0  0  0  0  0  0  0
   11.9209  -17.8960   21.1730 C   0  0  0  0  0  0  0  0  0  0  0  0
   10.1380  -16.9820   22.7093 C   0  0  2  0  0  0  0  0  0  0  0  0
    9.4687  -16.4227   21.5222 N   0  0  0  0  0  0  0  0  0  0  0  0
    9.9019  -16.0969   23.8670 C   0  0  0  0  0  0  0  0  0  0  0  0
    9.8089  -14.8411   23.6717 O   0  0  0  0  0  0  0  0  0  0  0  0
    8.0820  -12.7893   27.2330 C   0  0  0  0  0  0  0  0  0  0  0  0
    7.4131  -14.1124   26.9728 C   0  0  1  0  0  0  0  0  0  0  0  0
    5.9253  -13.9046   26.7263 C   0  0  0  0  0  0  0  0  0  0  0  0
    8.0599  -15.0200   26.0256 C   0  0  0  0  0  0  0  0  0  0  0  0
    9.3534  -15.6538   26.3008 C   0  0  2  0  0  0  0  0  0  0  0  0
    9.7635  -16.5126   25.2101 N   0  0  0  0  0  0  0  0  0  0  0  0
    9.4578  -16.4224   27.5351 C   0  0  0  0  0  0  0  0  0  0  0  0
    8.9550  -17.5670   27.6261 O   0  0  0  0  0  0  0  0  0  0  0  0
   10.1036  -15.9529   28.6643 O   0  0  0  0  0  0  0  0  0  0  0  0
  2  1  1  1
  3  2  1  0
  4  3  1  0
  5  4  2  0
  6  5  1  0
  7  6  2  0
  7  8  1  0
  8  9  2  0
  9  4  1  0
 10 11  2  0
 10  2  1  0
 13 12  1  1
 14 13  1  0
 15 13  1  0
 15 16  1  6
 16 10  1  0
 17 15  1  0
 18 17  2  0
 20 19  1  6
 20 21  1  0
 23 22  1  6
 22 20  1  0
 23 24  1  0
 24 17  1  0
 25 23  1  0
 25 27  1  0
 26 25  2  0
M  END
$$$$
