FVL.pdb
     RDKit          3D

 27 27  0  0  1  0  0  0  0  0999 V2000
    6.2477  -17.2472   26.4810 N   0  0  0  0  0  0  0  0  0  0  0  0
    5.9589  -17.1005   25.0796 C   0  0  1  0  0  0  0  0  0  0  0  0
    5.0866  -15.8699   24.9271 C   0  0  0  0  0  0  0  0  0  0  0  0
    5.7135  -14.6810   25.5440 C   0  0  0  0  0  0  0  0  0  0  0  0
    5.1438  -14.0435   26.6150 C   0  0  0  0  0  0  0  0  0  0  0  0
    5.7362  -12.9294   27.1882 C   0  0  0  0  0  0  0  0  0  0  0  0
    6.9186  -12.4129   26.7117 C   0  0  0  0  0  0  0  0  0  0  0  0
    7.4897  -13.0576   25.6328 C   0  0  0  0  0  0  0  0  0  0  0  0
    6.9149  -14.1589   25.0574 C   0  0  0  0  0  0  0  0  0  0  0  0
    7.2408  -16.9094   24.3549 C   0  0  0  0  0  0  0  0  0  0  0  0
    8.1116  -17.8426   24.3894 O   0  0  0  0  0  0  0  0  0  0  0  0
    9.9498  -14.1484   21.2900 C   0  0  0  0  0  0  0  0  0  0  0  0
    8.7160  -14.3514   22.1167 C   0  0  1  0  0  0  0  0  0  0  0  0
    7.4538  -14.0907   21.3710 C   0  0  0  0  0  0  0  0  0  0  0  0
    8.7610  -15.7347   22.7720 C   0  0  2  0  0  0  0  0  0  0  0  0
    7.5611  -15.7571   23.6264 N   0  0  0  0  0  0  0  0  0  0  0  0
    9.9644  -15.8839   23.6141 C   0  0  0  0  0  0  0  0  0  0  0  0
   11.1109  -15.7225   23.0818 O   0  0  0  0  0  0  0  0  0  0  0  0
    9.7175  -13.9898   28.8803 C   0  0  0  0  0  0  0  0  0  0  0  0
   10.1899  -14.2764   27.4802 C   0  0  1  0  0  0  0  0  0  0  0  0
   11.0747  -13.1405   26.9860 C   0  0  0  0  0  0  0  0  0  0  0  0
   10.7165  -15.6133   27.2068 C   0  0  0  0  0  0  0  0  0  0  0  0
   11.1203  -16.0406   25.8634 C   0  0  2  0  0  0  0  0  0  0  0  0
    9.9751  -16.1961   24.9919 N   0  0  0  0  0  0  0  0  0  0  0  0
   11.9154  -17.2593   25.7741 C   0  0  0  0  0  0  0  0  0  0  0  0
   12.9951  -17.3718   26.4008 O   0  0  0  0  0  0  0  0  0  0  0  0
   11.5422  -18.3497   25.0097 O   0  0  0  0  0  0  0  0  0  0  0  0
  2  1  1  1
  3  2  1  0
  4  3  1  0
  5  4  2  0
  6  5  1  0
  7  6  2  0
  7  8  1  0
  8  9  2  0
  9  4  1  0
 10 11  2  0
 10  2  1  0
 13 12  1  6
 14 13  1  0
 15 13  1  0
 15 16  1  1
 16 10  1  0
 17 15  1  0
 18 17  2  0
 20 19  1  1
 20 21  1  0
 23 22  1  1
 22 20  1  0
 23 24  1  0
 24 17  1  0
 25 23  1  0
 25 27  1  0
 26 25  2  0
M  END
$$$$
