FVL.pdb
     RDKit          3D

 27 27  0  0  1  0  0  0  0  0999 V2000
    6.3066  -18.3407   21.4895 N   0  0  0  0  0  0  0  0  0  0  0  0
    6.9325  -17.0466   21.4419 C   0  0  1  0  0  0  0  0  0  0  0  0
    6.1183  -16.1885   20.4935 C   0  0  0  0  0  0  0  0  0  0  0  0
    6.8491  -14.9618   20.1091 C   0  0  0  0  0  0  0  0  0  0  0  0
    6.5256  -13.7386   20.6357 C   0  0  0  0  0  0  0  0  0  0  0  0
    7.2142  -12.5926   20.2708 C   0  0  0  0  0  0  0  0  0  0  0  0
    8.2504  -12.6282   19.3668 C   0  0  0  0  0  0  0  0  0  0  0  0
    8.5736  -13.8619   18.8383 C   0  0  0  0  0  0  0  0  0  0  0  0
    7.9014  -15.0014   19.1904 C   0  0  0  0  0  0  0  0  0  0  0  0
    6.9060  -16.4630   22.8071 C   0  0  0  0  0  0  0  0  0  0  0  0
    5.8228  -15.9347   23.2288 O   0  0  0  0  0  0  0  0  0  0  0  0
    8.0463  -13.3340   25.6619 C   0  0  0  0  0  0  0  0  0  0  0  0
    7.4924  -14.5245   24.9390 C   0  0  1  0  0  0  0  0  0  0  0  0
    6.2591  -14.2238   24.1605 C   0  0  0  0  0  0  0  0  0  0  0  0
    8.5973  -15.1744   24.1014 C   0  0  2  0  0  0  0  0  0  0  0  0
    8.0062  -16.4541   23.6735 N   0  0  0  0  0  0  0  0  0  0  0  0
    9.7973  -15.4388   24.9197 C   0  0  0  0  0  0  0  0  0  0  0  0
   10.7619  -14.6069   24.8827 O   0  0  0  0  0  0  0  0  0  0  0  0
   11.2232  -13.3077   27.7066 C   0  0  0  0  0  0  0  0  0  0  0  0
   10.6819  -14.4091   28.5780 C   0  0  1  0  0  0  0  0  0  0  0  0
    9.9859  -13.8162   29.7951 C   0  0  0  0  0  0  0  0  0  0  0  0
    9.9373  -15.4836   27.9218 C   0  0  0  0  0  0  0  0  0  0  0  0
   10.5891  -16.4943   27.0829 C   0  0  2  0  0  0  0  0  0  0  0  0
    9.9911  -16.5533   25.7660 N   0  0  0  0  0  0  0  0  0  0  0  0
   10.6375  -17.8525   27.6102 C   0  0  0  0  0  0  0  0  0  0  0  0
   11.4383  -18.1610   28.5239 O   0  0  0  0  0  0  0  0  0  0  0  0
    9.8224  -18.8705   27.1498 O   0  0  0  0  0  0  0  0  0  0  0  0
  2  1  1  1
  3  2  1  0
  4  3  1  0
  5  4  2  0
  6  5  1  0
  7  6  2  0
  7  8  1  0
  8  9  2  0
  9  4  1  0
 10 11  2  0
 10  2  1  0
 13 12  1  6
 14 13  1  0
 15 13  1  0
 15 16  1  1
 16 10  1  0
 17 15  1  0
 18 17  2  0
 20 19  1  6
 20 21  1  0
 23 22  1  1
 22 20  1  0
 23 24  1  0
 24 17  1  0
 25 23  1  0
 25 27  1  0
 26 25  2  0
M  END
$$$$
