FVL.pdb
     RDKit          3D

 27 27  0  0  1  0  0  0  0  0999 V2000
    6.5297  -18.1338   19.8584 N   0  0  0  0  0  0  0  0  0  0  0  0
    7.3936  -17.0666   20.2870 C   0  0  1  0  0  0  0  0  0  0  0  0
    6.5267  -15.8384   20.4836 C   0  0  0  0  0  0  0  0  0  0  0  0
    7.2447  -14.6019   20.1063 C   0  0  0  0  0  0  0  0  0  0  0  0
    6.6321  -13.3765   20.1430 C   0  0  0  0  0  0  0  0  0  0  0  0
    7.3105  -12.2215   19.7876 C   0  0  0  0  0  0  0  0  0  0  0  0
    8.6250  -12.2499   19.3831 C   0  0  0  0  0  0  0  0  0  0  0  0
    9.2388  -13.4858   19.3475 C   0  0  0  0  0  0  0  0  0  0  0  0
    8.5801  -14.6342   19.6959 C   0  0  0  0  0  0  0  0  0  0  0  0
    8.0198  -17.4596   21.5748 C   0  0  0  0  0  0  0  0  0  0  0  0
    7.3280  -18.1247   22.4171 O   0  0  0  0  0  0  0  0  0  0  0  0
   11.9945  -18.1482   24.3128 C   0  0  0  0  0  0  0  0  0  0  0  0
   11.3083  -17.8812   23.0072 C   0  0  1  0  0  0  0  0  0  0  0  0
   11.4696  -18.9819   22.0173 C   0  0  0  0  0  0  0  0  0  0  0  0
    9.8468  -17.5039   23.2649 C   0  0  2  0  0  0  0  0  0  0  0  0
    9.3370  -17.1441   21.9304 N   0  0  0  0  0  0  0  0  0  0  0  0
    9.7508  -16.3324   24.1580 C   0  0  0  0  0  0  0  0  0  0  0  0
   10.4888  -15.3200   23.9251 O   0  0  0  0  0  0  0  0  0  0  0  0
    8.1601  -12.0990   25.4872 C   0  0  0  0  0  0  0  0  0  0  0  0
    7.4458  -13.0046   26.4543 C   0  0  1  0  0  0  0  0  0  0  0  0
    6.0078  -12.5402   26.6382 C   0  0  0  0  0  0  0  0  0  0  0  0
    7.5934  -14.4470   26.2618 C   0  0  0  0  0  0  0  0  0  0  0  0
    8.9034  -15.1036   26.2055 C   0  0  2  0  0  0  0  0  0  0  0  0
    8.8979  -16.2150   25.2780 N   0  0  0  0  0  0  0  0  0  0  0  0
    9.4523  -15.5816   27.4686 C   0  0  0  0  0  0  0  0  0  0  0  0
    9.1266  -16.7004   27.9305 O   0  0  0  0  0  0  0  0  0  0  0  0
   10.3491  -14.8511   28.2265 O   0  0  0  0  0  0  0  0  0  0  0  0
  2  1  1  1
  3  2  1  0
  4  3  1  0
  5  4  2  0
  6  5  1  0
  7  6  2  0
  7  8  1  0
  8  9  2  0
  9  4  1  0
 10 11  2  0
 10  2  1  0
 13 12  1  1
 14 13  1  0
 15 13  1  0
 15 16  1  6
 16 10  1  0
 17 15  1  0
 18 17  2  0
 20 19  1  6
 20 21  1  0
 23 22  1  1
 22 20  1  0
 23 24  1  0
 24 17  1  0
 25 23  1  0
 25 27  1  0
 26 25  2  0
M  END
$$$$
