FVL.pdb
     RDKit          3D

 27 27  0  0  1  0  0  0  0  0999 V2000
    8.2307  -15.1130   20.9957 N   0  0  0  0  0  0  0  0  0  0  0  0
    8.2652  -14.6989   22.3727 C   0  0  1  0  0  0  0  0  0  0  0  0
    6.8791  -14.1955   22.7252 C   0  0  0  0  0  0  0  0  0  0  0  0
    6.8842  -13.4376   23.9951 C   0  0  0  0  0  0  0  0  0  0  0  0
    6.3701  -13.9679   25.1495 C   0  0  0  0  0  0  0  0  0  0  0  0
    6.3774  -13.2521   26.3362 C   0  0  0  0  0  0  0  0  0  0  0  0
    6.8985  -11.9813   26.4115 C   0  0  0  0  0  0  0  0  0  0  0  0
    7.4155  -11.4504   25.2467 C   0  0  0  0  0  0  0  0  0  0  0  0
    7.4144  -12.1468   24.0681 C   0  0  0  0  0  0  0  0  0  0  0  0
    8.6065  -15.8782   23.2080 C   0  0  0  0  0  0  0  0  0  0  0  0
    7.7761  -16.2613   24.0992 O   0  0  0  0  0  0  0  0  0  0  0  0
   11.4888  -19.7474   24.0685 C   0  0  0  0  0  0  0  0  0  0  0  0
   10.9138  -18.6876   23.1780 C   0  0  1  0  0  0  0  0  0  0  0  0
   10.1709  -19.2350   22.0093 C   0  0  0  0  0  0  0  0  0  0  0  0
   10.0907  -17.7056   24.0165 C   0  0  2  0  0  0  0  0  0  0  0  0
    9.7953  -16.6071   23.0805 N   0  0  0  0  0  0  0  0  0  0  0  0
   10.8803  -17.1843   25.1497 C   0  0  0  0  0  0  0  0  0  0  0  0
   11.9045  -16.4662   24.9064 O   0  0  0  0  0  0  0  0  0  0  0  0
    9.2415  -14.7918   29.6194 C   0  0  0  0  0  0  0  0  0  0  0  0
    9.7249  -15.3522   28.3088 C   0  0  1  0  0  0  0  0  0  0  0  0
    9.3029  -14.4408   27.1649 C   0  0  0  0  0  0  0  0  0  0  0  0
   11.1151  -15.8019   28.2397 C   0  0  0  0  0  0  0  0  0  0  0  0
   11.5031  -17.0646   27.6030 C   0  0  2  0  0  0  0  0  0  0  0  0
   10.6077  -17.4062   26.5181 N   0  0  0  0  0  0  0  0  0  0  0  0
   11.6139  -18.2302   28.4714 C   0  0  0  0  0  0  0  0  0  0  0  0
   12.3972  -18.2327   29.4500 O   0  0  0  0  0  0  0  0  0  0  0  0
   10.8798  -19.3866   28.2802 O   0  0  0  0  0  0  0  0  0  0  0  0
  2  1  1  6
  3  2  1  0
  4  3  1  0
  5  4  2  0
  6  5  1  0
  7  6  2  0
  7  8  1  0
  8  9  2  0
  9  4  1  0
 10 11  2  0
 10  2  1  0
 13 12  1  1
 14 13  1  0
 15 13  1  0
 15 16  1  6
 16 10  1  0
 17 15  1  0
 18 17  2  0
 20 19  1  1
 20 21  1  0
 23 22  1  1
 22 20  1  0
 23 24  1  0
 24 17  1  0
 25 23  1  0
 25 27  1  0
 26 25  2  0
M  END
$$$$
