FVL.pdb
     RDKit          3D

 27 27  0  0  1  0  0  0  0  0999 V2000
    6.5378  -19.4073   20.7256 N   0  0  0  0  0  0  0  0  0  0  0  0
    6.5161  -18.6264   21.9333 C   0  0  1  0  0  0  0  0  0  0  0  0
    6.9249  -19.5440   23.0690 C   0  0  0  0  0  0  0  0  0  0  0  0
    6.8206  -18.8655   24.3787 C   0  0  0  0  0  0  0  0  0  0  0  0
    7.8591  -18.8676   25.2729 C   0  0  0  0  0  0  0  0  0  0  0  0
    7.7547  -18.2302   26.4991 C   0  0  0  0  0  0  0  0  0  0  0  0
    6.6091  -17.5681   26.8752 C   0  0  0  0  0  0  0  0  0  0  0  0
    5.5651  -17.5680   25.9720 C   0  0  0  0  0  0  0  0  0  0  0  0
    5.6553  -18.1938   24.7577 C   0  0  0  0  0  0  0  0  0  0  0  0
    7.4972  -17.5206   21.7936 C   0  0  0  0  0  0  0  0  0  0  0  0
    8.6898  -17.7988   21.4320 O   0  0  0  0  0  0  0  0  0  0  0  0
    8.1348  -12.7245   21.1020 C   0  0  0  0  0  0  0  0  0  0  0  0
    7.3079  -13.9719   21.1848 C   0  0  1  0  0  0  0  0  0  0  0  0
    6.5842  -14.2877   19.9223 C   0  0  0  0  0  0  0  0  0  0  0  0
    8.1739  -15.1271   21.6951 C   0  0  2  0  0  0  0  0  0  0  0  0
    7.1958  -16.1746   22.0359 N   0  0  0  0  0  0  0  0  0  0  0  0
    8.9167  -14.7370   22.9097 C   0  0  0  0  0  0  0  0  0  0  0  0
    9.9942  -14.0686   22.7831 O   0  0  0  0  0  0  0  0  0  0  0  0
    5.9617  -12.9423   27.0367 C   0  0  0  0  0  0  0  0  0  0  0  0
    7.0866  -13.0996   26.0490 C   0  0  1  0  0  0  0  0  0  0  0  0
    7.5687  -11.7319   25.5860 C   0  0  0  0  0  0  0  0  0  0  0  0
    8.1596  -14.0325   26.3923 C   0  0  0  0  0  0  0  0  0  0  0  0
    9.1635  -14.4706   25.4174 C   0  0  2  0  0  0  0  0  0  0  0  0
    8.5432  -15.0374   24.2387 N   0  0  0  0  0  0  0  0  0  0  0  0
   10.1674  -15.4164   25.8896 C   0  0  0  0  0  0  0  0  0  0  0  0
   10.8470  -15.1764   26.9152 O   0  0  0  0  0  0  0  0  0  0  0  0
   10.4330  -16.6153   25.2537 O   0  0  0  0  0  0  0  0  0  0  0  0
  2  1  1  6
  3  2  1  0
  4  3  1  0
  5  4  2  0
  6  5  1  0
  7  6  2  0
  7  8  1  0
  8  9  2  0
  9  4  1  0
 10 11  2  0
 10  2  1  0
 13 12  1  6
 14 13  1  0
 15 13  1  0
 15 16  1  1
 16 10  1  0
 17 15  1  0
 18 17  2  0
 20 19  1  1
 20 21  1  0
 23 22  1  1
 22 20  1  0
 23 24  1  0
 24 17  1  0
 25 23  1  0
 25 27  1  0
 26 25  2  0
M  END
$$$$
