FVL.pdb
     RDKit          3D

 27 27  0  0  1  0  0  0  0  0999 V2000
   14.4125  -17.9949   24.5434 N   0  0  0  0  0  0  0  0  0  0  0  0
   13.3294  -17.5791   25.3935 C   0  0  1  0  0  0  0  0  0  0  0  0
   13.9166  -16.6748   26.4594 C   0  0  0  0  0  0  0  0  0  0  0  0
   12.8760  -16.1864   27.3897 C   0  0  0  0  0  0  0  0  0  0  0  0
   12.2924  -14.9565   27.2322 C   0  0  0  0  0  0  0  0  0  0  0  0
   11.3180  -14.5044   28.1080 C   0  0  0  0  0  0  0  0  0  0  0  0
   10.8922  -15.2652   29.1719 C   0  0  0  0  0  0  0  0  0  0  0  0
   11.4822  -16.5035   29.3275 C   0  0  0  0  0  0  0  0  0  0  0  0
   12.4457  -16.9619   28.4696 C   0  0  0  0  0  0  0  0  0  0  0  0
   12.3499  -16.8261   24.5697 C   0  0  0  0  0  0  0  0  0  0  0  0
   12.6964  -15.6990   24.0799 O   0  0  0  0  0  0  0  0  0  0  0  0
    8.3740  -16.8054   21.8027 C   0  0  0  0  0  0  0  0  0  0  0  0
    9.6060  -17.3893   22.4258 C   0  0  1  0  0  0  0  0  0  0  0  0
   10.6399  -17.7893   21.4316 C   0  0  0  0  0  0  0  0  0  0  0  0
   10.1341  -16.4385   23.5038 C   0  0  2  0  0  0  0  0  0  0  0  0
   11.0539  -17.2776   24.2913 N   0  0  0  0  0  0  0  0  0  0  0  0
    9.0402  -15.9621   24.3731 C   0  0  0  0  0  0  0  0  0  0  0  0
    8.5917  -16.7389   25.2782 O   0  0  0  0  0  0  0  0  0  0  0  0
    5.9364  -12.1005   27.1473 C   0  0  0  0  0  0  0  0  0  0  0  0
    5.8996  -12.1986   25.6458 C   0  0  1  0  0  0  0  0  0  0  0  0
    5.5150  -10.8537   25.0450 C   0  0  0  0  0  0  0  0  0  0  0  0
    7.0284  -12.8532   24.9850 C   0  0  0  0  0  0  0  0  0  0  0  0
    7.2631  -14.2979   25.0749 C   0  0  2  0  0  0  0  0  0  0  0  0
    8.4214  -14.6940   24.3025 N   0  0  0  0  0  0  0  0  0  0  0  0
    6.1564  -15.1671   24.6940 C   0  0  0  0  0  0  0  0  0  0  0  0
    5.8849  -15.3737   23.4879 O   0  0  0  0  0  0  0  0  0  0  0  0
    5.3489  -15.8087   25.6153 O   0  0  0  0  0  0  0  0  0  0  0  0
  2  1  1  6
  3  2  1  0
  4  3  1  0
  5  4  2  0
  6  5  1  0
  7  6  2  0
  7  8  1  0
  8  9  2  0
  9  4  1  0
 10 11  2  0
 10  2  1  0
 13 12  1  6
 14 13  1  0
 15 13  1  0
 15 16  1  1
 16 10  1  0
 17 15  1  0
 18 17  2  0
 20 19  1  1
 20 21  1  0
 23 22  1  6
 22 20  1  0
 23 24  1  0
 24 17  1  0
 25 23  1  0
 25 27  1  0
 26 25  2  0
M  END
$$$$
