DWW.pdb
     RDKit          3D

 37 40  0  0  1  0  0  0  0  0999 V2000
   27.5530  -20.0660  -19.2136 N   0  0  0  0  0  0  0  0  0  0  0  0
   27.4424  -19.1675  -18.0730 C   0  0  1  0  0  0  0  0  0  0  0  0
   26.6546  -17.9706  -18.5990 C   0  0  0  0  0  0  0  0  0  0  0  0
   27.5080  -17.1191  -19.4599 C   0  0  0  0  0  0  0  0  0  0  0  0
   28.7410  -16.9895  -19.2313 O   0  0  0  0  0  0  0  0  0  0  0  0
   26.7448  -19.8560  -16.9911 C   0  0  0  0  0  0  0  0  0  0  0  0
   25.7253  -20.5101  -17.1650 O   0  0  0  0  0  0  0  0  0  0  0  0
   27.0240  -16.4124  -20.5591 O   0  0  0  0  0  0  0  0  0  0  0  0
   27.2167  -19.8123  -15.6148 N   0  0  0  0  0  0  0  0  0  0  0  0
   26.4936  -20.3581  -14.5298 C   0  0  1  0  0  0  0  0  0  0  0  0
   27.2380  -20.4487  -13.2209 C   0  0  0  0  0  0  0  0  0  0  0  0
   26.4452  -21.1452  -12.1823 C   0  0  0  0  0  0  0  0  0  0  0  0
   25.9107  -22.4131  -12.2340 C   0  0  0  0  0  0  0  0  0  0  0  0
   25.2650  -22.6649  -11.0988 N   0  0  0  0  0  0  0  0  0  0  0  0
   25.3594  -21.5922  -10.2937 C   0  0  0  0  0  0  0  0  0  0  0  0
   24.8565  -21.3640   -9.0095 C   0  0  0  0  0  0  0  0  0  0  0  0
   25.1288  -20.1401   -8.4408 C   0  0  0  0  0  0  0  0  0  0  0  0
   25.8600  -19.1670   -9.0842 C   0  0  0  0  0  0  0  0  0  0  0  0
   26.3533  -19.3880  -10.3392 C   0  0  0  0  0  0  0  0  0  0  0  0
   26.0924  -20.6227  -10.9416 C   0  0  0  0  0  0  0  0  0  0  0  0
   25.1477  -19.7273  -14.3428 C   0  0  0  0  0  0  0  0  0  0  0  0
   24.9747  -18.5224  -14.0333 O   0  0  0  0  0  0  0  0  0  0  0  0
   23.9552  -20.4892  -14.5133 N   0  0  0  0  0  0  0  0  0  0  0  0
   22.6209  -19.9738  -14.3026 C   0  0  1  0  0  0  0  0  0  0  0  0
   21.9714  -19.6255  -15.6287 C   0  0  0  0  0  0  0  0  0  0  0  0
   20.6338  -19.0449  -15.4577 C   0  0  0  0  0  0  0  0  0  0  0  0
   20.3433  -17.7424  -15.0389 C   0  0  0  0  0  0  0  0  0  0  0  0
   19.0201  -17.6090  -15.0120 N   0  0  0  0  0  0  0  0  0  0  0  0
   18.3945  -18.7582  -15.3932 C   0  0  0  0  0  0  0  0  0  0  0  0
   17.0709  -19.1058  -15.5163 C   0  0  0  0  0  0  0  0  0  0  0  0
   16.7311  -20.3906  -15.9307 C   0  0  0  0  0  0  0  0  0  0  0  0
   17.7412  -21.2780  -16.2059 C   0  0  0  0  0  0  0  0  0  0  0  0
   19.0660  -20.9063  -16.0741 C   0  0  0  0  0  0  0  0  0  0  0  0
   19.4216  -19.6499  -15.6694 C   0  0  0  0  0  0  0  0  0  0  0  0
   21.7884  -20.9618  -13.5513 C   0  0  0  0  0  0  0  0  0  0  0  0
   21.8762  -22.1731  -13.7873 O   0  0  0  0  0  0  0  0  0  0  0  0
   20.9064  -20.5052  -12.5772 O   0  0  0  0  0  0  0  0  0  0  0  0
  2  1  1  6
  3  2  1  0
  4  8  1  0
  4  3  1  0
  5  4  2  0
  6  2  1  0
  7  6  2  0
  9  6  1  0
 10 11  1  1
 10  9  1  0
 12 11  1  0
 13 12  2  0
 14 15  1  0
 14 13  1  0
 15 20  2  0
 16 15  1  0
 16 17  2  0
 17 18  1  0
 18 19  2  0
 20 12  1  0
 20 19  1  0
 21 22  2  0
 21 10  1  0
 23 21  1  0
 24 23  1  0
 24 25  1  6
 25 26  1  0
 26 27  2  0
 26 34  1  0
 27 28  1  0
 28 29  1  0
 29 30  2  0
 30 31  1  0
 32 31  2  0
 33 32  1  0
 34 33  2  0
 34 29  1  0
 35 37  1  0
 35 24  1  0
 36 35  2  0
M  END
$$$$
