DWW.pdb
     RDKit          3D

 37 40  0  0  1  0  0  0  0  0999 V2000
   26.2995  -20.6731  -15.9430 N   0  0  0  0  0  0  0  0  0  0  0  0
   26.0543  -22.0324  -15.4816 C   0  0  1  0  0  0  0  0  0  0  0  0
   26.9280  -22.9076  -16.3762 C   0  0  0  0  0  0  0  0  0  0  0  0
   26.4019  -22.9315  -17.7608 C   0  0  0  0  0  0  0  0  0  0  0  0
   25.1709  -22.7896  -17.9929 O   0  0  0  0  0  0  0  0  0  0  0  0
   26.4298  -22.1319  -14.0744 C   0  0  0  0  0  0  0  0  0  0  0  0
   27.0952  -23.0555  -13.6255 O   0  0  0  0  0  0  0  0  0  0  0  0
   27.2075  -23.1106  -18.8836 O   0  0  0  0  0  0  0  0  0  0  0  0
   26.0346  -21.1299  -13.0953 N   0  0  0  0  0  0  0  0  0  0  0  0
   26.4035  -21.1904  -11.7321 C   0  0  1  0  0  0  0  0  0  0  0  0
   27.3601  -20.1236  -11.2604 C   0  0  0  0  0  0  0  0  0  0  0  0
   28.7351  -20.3565  -11.7577 C   0  0  0  0  0  0  0  0  0  0  0  0
   29.3301  -19.8266  -12.8807 C   0  0  0  0  0  0  0  0  0  0  0  0
   30.5743  -20.2864  -12.9777 N   0  0  0  0  0  0  0  0  0  0  0  0
   30.8193  -21.1097  -11.9434 C   0  0  0  0  0  0  0  0  0  0  0  0
   31.9652  -21.8331  -11.6001 C   0  0  0  0  0  0  0  0  0  0  0  0
   31.9008  -22.6000  -10.4586 C   0  0  0  0  0  0  0  0  0  0  0  0
   30.7727  -22.6702   -9.6723 C   0  0  0  0  0  0  0  0  0  0  0  0
   29.6516  -21.9636  -10.0054 C   0  0  0  0  0  0  0  0  0  0  0  0
   29.6884  -21.1754  -11.1599 C   0  0  0  0  0  0  0  0  0  0  0  0
   25.2291  -21.3087  -10.8094 C   0  0  0  0  0  0  0  0  0  0  0  0
   24.0713  -20.9134  -11.0935 O   0  0  0  0  0  0  0  0  0  0  0  0
   25.3721  -21.8964   -9.5188 N   0  0  0  0  0  0  0  0  0  0  0  0
   24.5225  -21.5974   -8.3879 C   0  0  1  0  0  0  0  0  0  0  0  0
   25.3278  -21.6078   -7.1021 C   0  0  0  0  0  0  0  0  0  0  0  0
   26.1639  -20.4095   -6.9594 C   0  0  0  0  0  0  0  0  0  0  0  0
   26.1536  -19.2877   -7.7946 C   0  0  0  0  0  0  0  0  0  0  0  0
   27.0532  -18.4254   -7.3294 N   0  0  0  0  0  0  0  0  0  0  0  0
   27.6759  -18.9055   -6.2163 C   0  0  0  0  0  0  0  0  0  0  0  0
   28.6581  -18.3964   -5.4014 C   0  0  0  0  0  0  0  0  0  0  0  0
   29.1085  -19.1423   -4.3157 C   0  0  0  0  0  0  0  0  0  0  0  0
   28.5500  -20.3760   -4.0925 C   0  0  0  0  0  0  0  0  0  0  0  0
   27.5636  -20.8683   -4.9265 C   0  0  0  0  0  0  0  0  0  0  0  0
   27.1066  -20.1522   -5.9974 C   0  0  0  0  0  0  0  0  0  0  0  0
   23.8440  -20.2788   -8.5741 C   0  0  0  0  0  0  0  0  0  0  0  0
   24.4370  -19.2213   -8.3282 O   0  0  0  0  0  0  0  0  0  0  0  0
   22.5297  -20.2496   -9.0292 O   0  0  0  0  0  0  0  0  0  0  0  0
  2  1  1  6
  3  2  1  0
  4  8  1  0
  4  3  1  0
  5  4  2  0
  6  2  1  0
  7  6  2  0
  9  6  1  0
 10 11  1  1
 10  9  1  0
 12 11  1  0
 13 12  2  0
 14 15  1  0
 14 13  1  0
 15 20  2  0
 16 15  1  0
 16 17  2  0
 17 18  1  0
 18 19  2  0
 20 12  1  0
 20 19  1  0
 21 22  2  0
 21 10  1  0
 23 21  1  0
 24 23  1  0
 24 25  1  1
 25 26  1  0
 26 27  2  0
 26 34  1  0
 27 28  1  0
 28 29  1  0
 29 30  2  0
 30 31  1  0
 32 31  2  0
 33 32  1  0
 34 33  2  0
 34 29  1  0
 35 37  1  0
 35 24  1  0
 36 35  2  0
M  END
$$$$
