DWW.pdb
     RDKit          3D

 37 40  0  0  1  0  0  0  0  0999 V2000
   28.7687  -23.9268  -18.1665 N   0  0  0  0  0  0  0  0  0  0  0  0
   28.5890  -22.5081  -17.8919 C   0  0  1  0  0  0  0  0  0  0  0  0
   27.6281  -22.0237  -18.9743 C   0  0  0  0  0  0  0  0  0  0  0  0
   28.3559  -21.2719  -20.0229 C   0  0  0  0  0  0  0  0  0  0  0  0
   29.6149  -21.2067  -20.0233 O   0  0  0  0  0  0  0  0  0  0  0  0
   28.0357  -22.3497  -16.5503 C   0  0  0  0  0  0  0  0  0  0  0  0
   27.5813  -23.2827  -15.9020 O   0  0  0  0  0  0  0  0  0  0  0  0
   27.7196  -20.5945  -21.0613 O   0  0  0  0  0  0  0  0  0  0  0  0
   27.9838  -21.0575  -15.8822 N   0  0  0  0  0  0  0  0  0  0  0  0
   27.4552  -20.8769  -14.5838 C   0  0  1  0  0  0  0  0  0  0  0  0
   28.0409  -19.7383  -13.7863 C   0  0  0  0  0  0  0  0  0  0  0  0
   27.5562  -19.7378  -12.3872 C   0  0  0  0  0  0  0  0  0  0  0  0
   26.4281  -19.1307  -11.8826 C   0  0  0  0  0  0  0  0  0  0  0  0
   26.3498  -19.3651  -10.5756 N   0  0  0  0  0  0  0  0  0  0  0  0
   27.4009  -20.1152  -10.2012 C   0  0  0  0  0  0  0  0  0  0  0  0
   27.7660  -20.6203   -8.9499 C   0  0  0  0  0  0  0  0  0  0  0  0
   28.9208  -21.3676   -8.8910 C   0  0  0  0  0  0  0  0  0  0  0  0
   29.6999  -21.6214   -9.9975 C   0  0  0  0  0  0  0  0  0  0  0  0
   29.3448  -21.1292  -11.2218 C   0  0  0  0  0  0  0  0  0  0  0  0
   28.1760  -20.3667  -11.3116 C   0  0  0  0  0  0  0  0  0  0  0  0
   25.9577  -20.8396  -14.5582 C   0  0  0  0  0  0  0  0  0  0  0  0
   25.2606  -20.1277  -15.3229 O   0  0  0  0  0  0  0  0  0  0  0  0
   25.2241  -21.6381  -13.6331 N   0  0  0  0  0  0  0  0  0  0  0  0
   23.7812  -21.6688  -13.5471 C   0  0  1  0  0  0  0  0  0  0  0  0
   23.3416  -22.1629  -12.1817 C   0  0  0  0  0  0  0  0  0  0  0  0
   21.8813  -22.2663  -12.0708 C   0  0  0  0  0  0  0  0  0  0  0  0
   21.0810  -23.2875  -12.5929 C   0  0  0  0  0  0  0  0  0  0  0  0
   19.8173  -23.0151  -12.2793 N   0  0  0  0  0  0  0  0  0  0  0  0
   19.7180  -21.8572  -11.5676 C   0  0  0  0  0  0  0  0  0  0  0  0
   18.6503  -21.1747  -11.0363 C   0  0  0  0  0  0  0  0  0  0  0  0
   18.8662  -19.9832  -10.3496 C   0  0  0  0  0  0  0  0  0  0  0  0
   20.1535  -19.5240  -10.2245 C   0  0  0  0  0  0  0  0  0  0  0  0
   21.2123  -20.2271  -10.7682 C   0  0  0  0  0  0  0  0  0  0  0  0
   21.0225  -21.3992  -11.4455 C   0  0  0  0  0  0  0  0  0  0  0  0
   23.2091  -20.3168  -13.8277 C   0  0  0  0  0  0  0  0  0  0  0  0
   23.6511  -19.3116  -13.2579 O   0  0  0  0  0  0  0  0  0  0  0  0
   22.1669  -20.1966  -14.7412 O   0  0  0  0  0  0  0  0  0  0  0  0
  2  1  1  6
  3  2  1  0
  4  8  1  0
  4  3  1  0
  5  4  2  0
  6  2  1  0
  7  6  2  0
  9  6  1  0
 10 11  1  6
 10  9  1  0
 12 11  1  0
 13 12  2  0
 14 15  1  0
 14 13  1  0
 15 20  2  0
 16 15  1  0
 16 17  2  0
 17 18  1  0
 18 19  2  0
 20 12  1  0
 20 19  1  0
 21 22  2  0
 21 10  1  0
 23 21  1  0
 24 23  1  0
 24 25  1  1
 25 26  1  0
 26 27  2  0
 26 34  1  0
 27 28  1  0
 28 29  1  0
 29 30  2  0
 30 31  1  0
 32 31  2  0
 33 32  1  0
 34 33  2  0
 34 29  1  0
 35 37  1  0
 35 24  1  0
 36 35  2  0
M  END
$$$$
