DWW.pdb
     RDKit          3D

 37 40  0  0  1  0  0  0  0  0999 V2000
   29.8519  -20.6359  -18.3904 N   0  0  0  0  0  0  0  0  0  0  0  0
   28.7534  -21.4407  -17.8745 C   0  0  1  0  0  0  0  0  0  0  0  0
   29.4014  -22.7595  -17.4615 C   0  0  0  0  0  0  0  0  0  0  0  0
   29.0326  -23.8421  -18.4030 C   0  0  0  0  0  0  0  0  0  0  0  0
   28.3071  -23.6126  -19.4083 O   0  0  0  0  0  0  0  0  0  0  0  0
   28.1450  -20.7459  -16.7439 C   0  0  0  0  0  0  0  0  0  0  0  0
   28.7990  -20.1706  -15.8845 O   0  0  0  0  0  0  0  0  0  0  0  0
   29.4473  -25.1638  -18.2514 O   0  0  0  0  0  0  0  0  0  0  0  0
   26.7026  -20.6883  -16.5563 N   0  0  0  0  0  0  0  0  0  0  0  0
   26.0889  -20.0404  -15.4602 C   0  0  1  0  0  0  0  0  0  0  0  0
   25.2422  -18.8377  -15.7955 C   0  0  0  0  0  0  0  0  0  0  0  0
   26.0432  -17.7515  -16.4046 C   0  0  0  0  0  0  0  0  0  0  0  0
   26.3849  -17.5924  -17.7288 C   0  0  0  0  0  0  0  0  0  0  0  0
   27.1147  -16.4888  -17.8653 N   0  0  0  0  0  0  0  0  0  0  0  0
   27.2648  -15.9109  -16.6606 C   0  0  0  0  0  0  0  0  0  0  0  0
   27.9388  -14.7465  -16.2811 C   0  0  0  0  0  0  0  0  0  0  0  0
   27.9080  -14.4145  -14.9453 C   0  0  0  0  0  0  0  0  0  0  0  0
   27.2517  -15.1760  -14.0045 C   0  0  0  0  0  0  0  0  0  0  0  0
   26.5917  -16.3143  -14.3731 C   0  0  0  0  0  0  0  0  0  0  0  0
   26.6057  -16.6759  -15.7239 C   0  0  0  0  0  0  0  0  0  0  0  0
   25.3544  -20.9823  -14.5559 C   0  0  0  0  0  0  0  0  0  0  0  0
   24.5516  -21.8597  -14.9599 O   0  0  0  0  0  0  0  0  0  0  0  0
   25.5368  -20.9283  -13.1433 N   0  0  0  0  0  0  0  0  0  0  0  0
   24.8614  -21.7911  -12.2001 C   0  0  1  0  0  0  0  0  0  0  0  0
   25.8136  -22.2234  -11.1009 C   0  0  0  0  0  0  0  0  0  0  0  0
   26.1743  -21.1144  -10.2091 C   0  0  0  0  0  0  0  0  0  0  0  0
   25.2907  -20.3414   -9.4490 C   0  0  0  0  0  0  0  0  0  0  0  0
   26.0078  -19.4431   -8.7796 N   0  0  0  0  0  0  0  0  0  0  0  0
   27.3385  -19.5673   -9.0464 C   0  0  0  0  0  0  0  0  0  0  0  0
   28.4473  -18.8818   -8.6121 C   0  0  0  0  0  0  0  0  0  0  0  0
   29.7080  -19.2429   -9.0792 C   0  0  0  0  0  0  0  0  0  0  0  0
   29.8029  -20.2839   -9.9686 C   0  0  0  0  0  0  0  0  0  0  0  0
   28.6732  -20.9585  -10.3925 C   0  0  0  0  0  0  0  0  0  0  0  0
   27.4262  -20.6207   -9.9459 C   0  0  0  0  0  0  0  0  0  0  0  0
   23.6662  -21.1047  -11.6223 C   0  0  0  0  0  0  0  0  0  0  0  0
   23.5592  -19.8731  -11.6689 O   0  0  0  0  0  0  0  0  0  0  0  0
   22.6671  -21.8674  -11.0262 O   0  0  0  0  0  0  0  0  0  0  0  0
  2  1  1  1
  3  2  1  0
  4  8  1  0
  4  3  1  0
  5  4  2  0
  6  2  1  0
  7  6  2  0
  9  6  1  0
 10 11  1  6
 10  9  1  0
 12 11  1  0
 13 12  2  0
 14 15  1  0
 14 13  1  0
 15 20  2  0
 16 15  1  0
 16 17  2  0
 17 18  1  0
 18 19  2  0
 20 12  1  0
 20 19  1  0
 21 22  2  0
 21 10  1  0
 23 21  1  0
 24 23  1  0
 24 25  1  1
 25 26  1  0
 26 27  2  0
 26 34  1  0
 27 28  1  0
 28 29  1  0
 29 30  2  0
 30 31  1  0
 32 31  2  0
 33 32  1  0
 34 33  2  0
 34 29  1  0
 35 37  1  0
 35 24  1  0
 36 35  2  0
M  END
$$$$
