IEF.pdb
     RDKit          3D

 29 29  0  0  1  0  0  0  0  0999 V2000
   28.5414  -17.7675  -19.7397 C   0  0  0  0  0  0  0  0  0  0  0  0
   28.6176  -18.5770  -18.4676 C   0  0  0  0  0  0  0  0  0  0  0  0
   27.4393  -18.3172  -17.5349 C   0  0  2  0  0  0  0  0  0  0  0  0
   27.3620  -16.8376  -17.2811 C   0  0  0  0  0  0  0  0  0  0  0  0
   27.6699  -19.1355  -16.2851 C   0  0  2  0  0  0  0  0  0  0  0  0
   27.8997  -20.5077  -16.7124 N   0  0  0  0  0  0  0  0  0  0  0  0
   26.5507  -19.0499  -15.3231 C   0  0  0  0  0  0  0  0  0  0  0  0
   26.3765  -17.9724  -14.6954 O   0  0  0  0  0  0  0  0  0  0  0  0
   25.6477  -20.1247  -15.0630 N   0  0  0  0  0  0  0  0  0  0  0  0
   24.5101  -20.0191  -14.1945 C   0  0  1  0  0  0  0  0  0  0  0  0
   23.3454  -20.8869  -14.6497 C   0  0  0  0  0  0  0  0  0  0  0  0
   22.1337  -20.7609  -13.7559 C   0  0  0  0  0  0  0  0  0  0  0  0
   21.1493  -21.7594  -14.2296 C   0  0  0  0  0  0  0  0  0  0  0  0
   21.3503  -22.9845  -14.0045 O   0  0  0  0  0  0  0  0  0  0  0  0
   24.8919  -20.4804  -12.8351 C   0  0  0  0  0  0  0  0  0  0  0  0
   25.5495  -21.5616  -12.6883 O   0  0  0  0  0  0  0  0  0  0  0  0
   19.9814  -21.4380  -14.9337 O   0  0  0  0  0  0  0  0  0  0  0  0
   24.5564  -19.7642  -11.6606 N   0  0  0  0  0  0  0  0  0  0  0  0
   24.9133  -20.2095  -10.3180 C   0  0  1  0  0  0  0  0  0  0  0  0
   25.9189  -19.2539   -9.7390 C   0  0  0  0  0  0  0  0  0  0  0  0
   26.9926  -19.9330   -8.9961 C   0  0  0  0  0  0  0  0  0  0  0  0
   28.0913  -20.4077   -9.6964 C   0  0  0  0  0  0  0  0  0  0  0  0
   29.0983  -21.0282   -8.9955 C   0  0  0  0  0  0  0  0  0  0  0  0
   29.0940  -21.2122   -7.6428 C   0  0  0  0  0  0  0  0  0  0  0  0
   27.9989  -20.7399   -6.9316 C   0  0  0  0  0  0  0  0  0  0  0  0
   26.9646  -20.1067   -7.6302 C   0  0  0  0  0  0  0  0  0  0  0  0
   23.7394  -20.3693   -9.4669 C   0  0  0  0  0  0  0  0  0  0  0  0
   23.7400  -20.8538   -8.3326 O   0  0  0  0  0  0  0  0  0  0  0  0
   22.4924  -19.9384   -9.9697 O   0  0  0  0  0  0  0  0  0  0  0  0
  2  1  1  0
  2  3  1  0
  3  4  1  1
  5  3  1  0
  5  6  1  6
  7  5  1  0
  7  8  2  0
  9  7  1  0
 10 15  1  0
 10  9  1  0
 10 11  1  6
 12 11  1  0
 12 13  1  0
 13 14  2  0
 15 18  1  0
 16 15  2  0
 17 13  1  0
 18 19  1  0
 19 27  1  0
 20 21  1  0
 19 20  1  1
 21 26  2  0
 22 23  2  0
 22 21  1  0
 23 24  1  0
 24 25  2  0
 26 25  1  0
 27 28  2  0
 27 29  1  0
M  END
$$$$
