IEF.pdb
     RDKit          3D

 29 29  0  0  1  0  0  0  0  0999 V2000
   25.9738  -14.9411  -15.4416 C   0  0  0  0  0  0  0  0  0  0  0  0
   24.5944  -14.8572  -16.0494 C   0  0  0  0  0  0  0  0  0  0  0  0
   24.0651  -13.4282  -16.1092 C   0  0  2  0  0  0  0  0  0  0  0  0
   23.9169  -12.9258  -14.7002 C   0  0  0  0  0  0  0  0  0  0  0  0
   22.7651  -13.4650  -16.8797 C   0  0  2  0  0  0  0  0  0  0  0  0
   23.0314  -14.1637  -18.1284 N   0  0  0  0  0  0  0  0  0  0  0  0
   22.1989  -12.1214  -17.1230 C   0  0  0  0  0  0  0  0  0  0  0  0
   22.8002  -11.3480  -17.9140 O   0  0  0  0  0  0  0  0  0  0  0  0
   21.0002  -11.6456  -16.5105 N   0  0  0  0  0  0  0  0  0  0  0  0
   20.4618  -10.3325  -16.7232 C   0  0  1  0  0  0  0  0  0  0  0  0
   19.0566  -10.3652  -17.3072 C   0  0  0  0  0  0  0  0  0  0  0  0
   19.0380  -10.7227  -18.7751 C   0  0  0  0  0  0  0  0  0  0  0  0
   19.4743   -9.5162  -19.5130 C   0  0  0  0  0  0  0  0  0  0  0  0
   18.7892   -8.4594  -19.4353 O   0  0  0  0  0  0  0  0  0  0  0  0
   20.3757   -9.6254  -15.4197 C   0  0  0  0  0  0  0  0  0  0  0  0
   19.8907  -10.2185  -14.4018 O   0  0  0  0  0  0  0  0  0  0  0  0
   20.6195   -9.4593  -20.3181 O   0  0  0  0  0  0  0  0  0  0  0  0
   20.8156   -8.2915  -15.2412 N   0  0  0  0  0  0  0  0  0  0  0  0
   20.7584   -7.5905  -13.9629 C   0  0  1  0  0  0  0  0  0  0  0  0
   22.1594   -7.3748  -13.4625 C   0  0  0  0  0  0  0  0  0  0  0  0
   23.0130   -6.6731  -14.4346 C   0  0  0  0  0  0  0  0  0  0  0  0
   22.9961   -5.2867  -14.4585 C   0  0  0  0  0  0  0  0  0  0  0  0
   23.8066   -4.6359  -15.3585 C   0  0  0  0  0  0  0  0  0  0  0  0
   24.6372   -5.2647  -16.2407 C   0  0  0  0  0  0  0  0  0  0  0  0
   24.6626   -6.6530  -16.2247 C   0  0  0  0  0  0  0  0  0  0  0  0
   23.8428   -7.3308  -15.3151 C   0  0  0  0  0  0  0  0  0  0  0  0
   20.0007   -6.3476  -14.0567 C   0  0  0  0  0  0  0  0  0  0  0  0
   19.7141   -5.6124  -13.1086 O   0  0  0  0  0  0  0  0  0  0  0  0
   19.5515   -5.9395  -15.3315 O   0  0  0  0  0  0  0  0  0  0  0  0
  2  1  1  0
  2  3  1  0
  3  4  1  1
  5  3  1  0
  5  6  1  6
  7  5  1  0
  7  8  2  0
  9  7  1  0
 10 15  1  0
 10  9  1  0
 10 11  1  1
 12 11  1  0
 12 13  1  0
 13 14  2  0
 15 18  1  0
 16 15  2  0
 17 13  1  0
 18 19  1  0
 19 27  1  0
 20 21  1  0
 19 20  1  6
 21 26  2  0
 22 23  2  0
 22 21  1  0
 23 24  1  0
 24 25  2  0
 26 25  1  0
 27 28  2  0
 27 29  1  0
M  END
$$$$
