IEF.pdb
     RDKit          3D

 29 29  0  0  1  0  0  0  0  0999 V2000
   21.1118  -15.3377  -19.3106 C   0  0  0  0  0  0  0  0  0  0  0  0
   20.6699  -16.7288  -18.9247 C   0  0  0  0  0  0  0  0  0  0  0  0
   21.3401  -17.2247  -17.6478 C   0  0  2  0  0  0  0  0  0  0  0  0
   22.8277  -17.0930  -17.8197 C   0  0  0  0  0  0  0  0  0  0  0  0
   20.8792  -18.6469  -17.4244 C   0  0  2  0  0  0  0  0  0  0  0  0
   19.4558  -18.5899  -17.1260 N   0  0  0  0  0  0  0  0  0  0  0  0
   21.6284  -19.3360  -16.3524 C   0  0  0  0  0  0  0  0  0  0  0  0
   21.3741  -19.0423  -15.1548 O   0  0  0  0  0  0  0  0  0  0  0  0
   22.6299  -20.3237  -16.5968 N   0  0  0  0  0  0  0  0  0  0  0  0
   23.3569  -20.9972  -15.5590 C   0  0  1  0  0  0  0  0  0  0  0  0
   23.6009  -22.4659  -15.8756 C   0  0  0  0  0  0  0  0  0  0  0  0
   24.3664  -23.1827  -14.7879 C   0  0  0  0  0  0  0  0  0  0  0  0
   24.5153  -24.5882  -15.2272 C   0  0  0  0  0  0  0  0  0  0  0  0
   24.1332  -24.9212  -16.3827 O   0  0  0  0  0  0  0  0  0  0  0  0
   24.6887  -20.3576  -15.4046 C   0  0  0  0  0  0  0  0  0  0  0  0
   25.3513  -20.0047  -16.4339 O   0  0  0  0  0  0  0  0  0  0  0  0
   25.0585  -25.6061  -14.4323 O   0  0  0  0  0  0  0  0  0  0  0  0
   25.2785  -20.1112  -14.1412 N   0  0  0  0  0  0  0  0  0  0  0  0
   26.6487  -19.6399  -13.9720 C   0  0  1  0  0  0  0  0  0  0  0  0
   26.7442  -18.8725  -12.6829 C   0  0  0  0  0  0  0  0  0  0  0  0
   26.2463  -19.6330  -11.5255 C   0  0  0  0  0  0  0  0  0  0  0  0
   27.1644  -20.1784  -10.6407 C   0  0  0  0  0  0  0  0  0  0  0  0
   26.6935  -20.8753   -9.5531 C   0  0  0  0  0  0  0  0  0  0  0  0
   25.3706  -21.0707   -9.2783 C   0  0  0  0  0  0  0  0  0  0  0  0
   24.4427  -20.5281  -10.1573 C   0  0  0  0  0  0  0  0  0  0  0  0
   24.9056  -19.8166  -11.2701 C   0  0  0  0  0  0  0  0  0  0  0  0
   27.6133  -20.7317  -14.0453 C   0  0  0  0  0  0  0  0  0  0  0  0
   27.3404  -21.9323  -13.9706 O   0  0  0  0  0  0  0  0  0  0  0  0
   28.9757  -20.4025  -14.2156 O   0  0  0  0  0  0  0  0  0  0  0  0
  2  1  1  0
  2  3  1  0
  3  4  1  6
  5  3  1  0
  5  6  1  1
  7  5  1  0
  7  8  2  0
  9  7  1  0
 10 15  1  0
 10  9  1  0
 10 11  1  6
 12 11  1  0
 12 13  1  0
 13 14  2  0
 15 18  1  0
 16 15  2  0
 17 13  1  0
 18 19  1  0
 19 27  1  0
 20 21  1  0
 19 20  1  1
 21 26  2  0
 22 23  2  0
 22 21  1  0
 23 24  1  0
 24 25  2  0
 26 25  1  0
 27 28  2  0
 27 29  1  0
M  END
$$$$
