IEF.pdb
     RDKit          3D

 29 29  0  0  1  0  0  0  0  0999 V2000
   29.3166  -18.5203  -16.5742 C   0  0  0  0  0  0  0  0  0  0  0  0
   28.4051  -17.3951  -16.1472 C   0  0  0  0  0  0  0  0  0  0  0  0
   27.6997  -17.6802  -14.8255 C   0  0  2  0  0  0  0  0  0  0  0  0
   28.7442  -17.7661  -13.7478 C   0  0  0  0  0  0  0  0  0  0  0  0
   26.9094  -18.9559  -15.0069 C   0  0  2  0  0  0  0  0  0  0  0  0
   26.0958  -18.7851  -16.2015 N   0  0  0  0  0  0  0  0  0  0  0  0
   26.0786  -19.2935  -13.8317 C   0  0  0  0  0  0  0  0  0  0  0  0
   25.2165  -18.4618  -13.4440 O   0  0  0  0  0  0  0  0  0  0  0  0
   26.1958  -20.5172  -13.1056 N   0  0  0  0  0  0  0  0  0  0  0  0
   25.3267  -20.8919  -12.0270 C   0  0  1  0  0  0  0  0  0  0  0  0
   24.6554  -22.2382  -12.2587 C   0  0  0  0  0  0  0  0  0  0  0  0
   23.8350  -22.2757  -13.5269 C   0  0  0  0  0  0  0  0  0  0  0  0
   22.5499  -21.6073  -13.2229 C   0  0  0  0  0  0  0  0  0  0  0  0
   21.9563  -21.8665  -12.1401 O   0  0  0  0  0  0  0  0  0  0  0  0
   26.1240  -21.0115  -10.7793 C   0  0  0  0  0  0  0  0  0  0  0  0
   27.3874  -21.1632  -10.8404 O   0  0  0  0  0  0  0  0  0  0  0  0
   21.9228  -20.6872  -14.0732 O   0  0  0  0  0  0  0  0  0  0  0  0
   25.5408  -20.9644   -9.4900 N   0  0  0  0  0  0  0  0  0  0  0  0
   26.3065  -21.1032   -8.2559 C   0  0  1  0  0  0  0  0  0  0  0  0
   27.4013  -20.0732   -8.2435 C   0  0  0  0  0  0  0  0  0  0  0  0
   28.1024  -19.9982   -6.9517 C   0  0  0  0  0  0  0  0  0  0  0  0
   27.7752  -18.9760   -6.0735 C   0  0  0  0  0  0  0  0  0  0  0  0
   28.4226  -18.9194   -4.8619 C   0  0  0  0  0  0  0  0  0  0  0  0
   29.3757  -19.8086   -4.4564 C   0  0  0  0  0  0  0  0  0  0  0  0
   29.7104  -20.8367   -5.3277 C   0  0  0  0  0  0  0  0  0  0  0  0
   29.0613  -20.9081   -6.5656 C   0  0  0  0  0  0  0  0  0  0  0  0
   25.4542  -21.0272   -7.0745 C   0  0  0  0  0  0  0  0  0  0  0  0
   25.7947  -21.3271   -5.9275 O   0  0  0  0  0  0  0  0  0  0  0  0
   24.1272  -20.5750   -7.2422 O   0  0  0  0  0  0  0  0  0  0  0  0
  2  1  1  0
  2  3  1  0
  3  4  1  1
  5  3  1  0
  5  6  1  6
  7  5  1  0
  7  8  2  0
  9  7  1  0
 10 15  1  0
 10  9  1  0
 10 11  1  6
 12 11  1  0
 12 13  1  0
 13 14  2  0
 15 18  1  0
 16 15  2  0
 17 13  1  0
 18 19  1  0
 19 27  1  0
 20 21  1  0
 19 20  1  1
 21 26  2  0
 22 23  2  0
 22 21  1  0
 23 24  1  0
 24 25  2  0
 26 25  1  0
 27 28  2  0
 27 29  1  0
M  END
$$$$
