IEF.pdb
     RDKit          3D

 29 29  0  0  1  0  0  0  0  0999 V2000
   29.7081  -17.6160  -16.8971 C   0  0  0  0  0  0  0  0  0  0  0  0
   28.3464  -18.2575  -16.7811 C   0  0  0  0  0  0  0  0  0  0  0  0
   27.7707  -18.1624  -15.3720 C   0  0  2  0  0  0  0  0  0  0  0  0
   28.7448  -18.8060  -14.4252 C   0  0  0  0  0  0  0  0  0  0  0  0
   26.4161  -18.8327  -15.3966 C   0  0  2  0  0  0  0  0  0  0  0  0
   25.6336  -18.1708  -16.4299 N   0  0  0  0  0  0  0  0  0  0  0  0
   25.7274  -18.7928  -14.0891 C   0  0  0  0  0  0  0  0  0  0  0  0
   25.2797  -17.6905  -13.6771 O   0  0  0  0  0  0  0  0  0  0  0  0
   25.5370  -19.9396  -13.2603 N   0  0  0  0  0  0  0  0  0  0  0  0
   24.7753  -19.9280  -12.0441 C   0  0  1  0  0  0  0  0  0  0  0  0
   23.5203  -20.7847  -12.1330 C   0  0  0  0  0  0  0  0  0  0  0  0
   22.6140  -20.6261  -10.9345 C   0  0  0  0  0  0  0  0  0  0  0  0
   21.4700  -21.5420  -11.1414 C   0  0  0  0  0  0  0  0  0  0  0  0
   20.5263  -21.5556  -10.3039 O   0  0  0  0  0  0  0  0  0  0  0  0
   25.6057  -20.4842  -10.9452 C   0  0  0  0  0  0  0  0  0  0  0  0
   26.2043  -21.5984  -11.0976 O   0  0  0  0  0  0  0  0  0  0  0  0
   21.3556  -22.4236  -12.2243 O   0  0  0  0  0  0  0  0  0  0  0  0
   25.7736  -19.8256   -9.7031 N   0  0  0  0  0  0  0  0  0  0  0  0
   26.4835  -20.4123   -8.5717 C   0  0  1  0  0  0  0  0  0  0  0  0
   27.2601  -19.3327   -7.8709 C   0  0  0  0  0  0  0  0  0  0  0  0
   27.8003  -19.7667   -6.5725 C   0  0  0  0  0  0  0  0  0  0  0  0
   29.0002  -20.4615   -6.5479 C   0  0  0  0  0  0  0  0  0  0  0  0
   29.5078  -20.8516   -5.3312 C   0  0  0  0  0  0  0  0  0  0  0  0
   28.9080  -20.6004   -4.1309 C   0  0  0  0  0  0  0  0  0  0  0  0
   27.7064  -19.9046   -4.1439 C   0  0  0  0  0  0  0  0  0  0  0  0
   27.1755  -19.5011   -5.3744 C   0  0  0  0  0  0  0  0  0  0  0  0
   25.5821  -21.1253   -7.6734 C   0  0  0  0  0  0  0  0  0  0  0  0
   24.3631  -20.9518   -7.5987 O   0  0  0  0  0  0  0  0  0  0  0  0
   26.1362  -22.0973   -6.8121 O   0  0  0  0  0  0  0  0  0  0  0  0
  2  1  1  0
  2  3  1  0
  3  4  1  1
  5  3  1  0
  5  6  1  6
  7  5  1  0
  7  8  2  0
  9  7  1  0
 10 15  1  0
 10  9  1  0
 10 11  1  6
 12 11  1  0
 12 13  1  0
 13 14  2  0
 15 18  1  0
 16 15  2  0
 17 13  1  0
 18 19  1  0
 19 27  1  0
 20 21  1  0
 19 20  1  1
 21 26  2  0
 22 23  2  0
 22 21  1  0
 23 24  1  0
 24 25  2  0
 26 25  1  0
 27 28  2  0
 27 29  1  0
M  END
$$$$
