IEF.pdb
     RDKit          3D

 29 29  0  0  1  0  0  0  0  0999 V2000
   27.1120  -15.0211  -14.1291 C   0  0  0  0  0  0  0  0  0  0  0  0
   26.5153  -16.3648  -14.4723 C   0  0  0  0  0  0  0  0  0  0  0  0
   27.5761  -17.4244  -14.7510 C   0  0  2  0  0  0  0  0  0  0  0  0
   28.4232  -16.9469  -15.8974 C   0  0  0  0  0  0  0  0  0  0  0  0
   26.8503  -18.7202  -15.0320 C   0  0  2  0  0  0  0  0  0  0  0  0
   26.0323  -18.5007  -16.2156 N   0  0  0  0  0  0  0  0  0  0  0  0
   26.0342  -19.1852  -13.8905 C   0  0  0  0  0  0  0  0  0  0  0  0
   24.8985  -18.6715  -13.7125 O   0  0  0  0  0  0  0  0  0  0  0  0
   26.4604  -20.1913  -12.9716 N   0  0  0  0  0  0  0  0  0  0  0  0
   25.6142  -20.7604  -11.9618 C   0  0  1  0  0  0  0  0  0  0  0  0
   25.1567  -22.1698  -12.3097 C   0  0  0  0  0  0  0  0  0  0  0  0
   24.3970  -22.2363  -13.6141 C   0  0  0  0  0  0  0  0  0  0  0  0
   23.0476  -21.6890  -13.3495 C   0  0  0  0  0  0  0  0  0  0  0  0
   22.3298  -22.2130  -12.4539 O   0  0  0  0  0  0  0  0  0  0  0  0
   26.3714  -20.8502  -10.6870 C   0  0  0  0  0  0  0  0  0  0  0  0
   27.6431  -20.7736  -10.6923 O   0  0  0  0  0  0  0  0  0  0  0  0
   22.4896  -20.6063  -14.0419 O   0  0  0  0  0  0  0  0  0  0  0  0
   25.7400  -21.0206   -9.4312 N   0  0  0  0  0  0  0  0  0  0  0  0
   26.4691  -21.1152   -8.1711 C   0  0  1  0  0  0  0  0  0  0  0  0
   27.3460  -19.9032   -8.0235 C   0  0  0  0  0  0  0  0  0  0  0  0
   28.0185  -19.8388   -6.7160 C   0  0  0  0  0  0  0  0  0  0  0  0
   28.9960  -20.7774   -6.4217 C   0  0  0  0  0  0  0  0  0  0  0  0
   29.6315  -20.7035   -5.2048 C   0  0  0  0  0  0  0  0  0  0  0  0
   29.3660  -19.7605   -4.2540 C   0  0  0  0  0  0  0  0  0  0  0  0
   28.3895  -18.8153   -4.5387 C   0  0  0  0  0  0  0  0  0  0  0  0
   27.7323  -18.8771   -5.7728 C   0  0  0  0  0  0  0  0  0  0  0  0
   25.5724  -21.2982   -7.0352 C   0  0  0  0  0  0  0  0  0  0  0  0
   25.8786  -21.8193   -5.9600 O   0  0  0  0  0  0  0  0  0  0  0  0
   24.2407  -20.8465   -7.1623 O   0  0  0  0  0  0  0  0  0  0  0  0
  2  1  1  0
  2  3  1  0
  3  4  1  6
  5  3  1  0
  5  6  1  6
  7  5  1  0
  7  8  2  0
  9  7  1  0
 10 15  1  0
 10  9  1  0
 10 11  1  6
 12 11  1  0
 12 13  1  0
 13 14  2  0
 15 18  1  0
 16 15  2  0
 17 13  1  0
 18 19  1  0
 19 27  1  0
 20 21  1  0
 19 20  1  1
 21 26  2  0
 22 23  2  0
 22 21  1  0
 23 24  1  0
 24 25  2  0
 26 25  1  0
 27 28  2  0
 27 29  1  0
M  END
$$$$
