KNY.pdb
     RDKit          3D

 30 30  0  0  1  0  0  0  0  0999 V2000
   23.2416  -22.3148  -18.2441 N   0  0  0  0  0  0  0  0  0  0  0  0
   23.2036  -20.8665  -18.1349 C   0  0  1  0  0  0  0  0  0  0  0  0
   22.5834  -20.5209  -16.8452 C   0  0  0  0  0  0  0  0  0  0  0  0
   23.0060  -21.1327  -15.5862 C   0  0  0  0  0  0  0  0  0  0  0  0
   22.3567  -20.8087  -14.3040 C   0  0  0  0  0  0  0  0  0  0  0  0
   20.8889  -20.5904  -14.3861 C   0  0  0  0  0  0  0  0  0  0  0  0
   20.3851  -20.2161  -13.0601 N   0  0  0  0  0  0  0  0  0  0  0  0
   24.6832  -20.4728  -18.0938 C   0  0  0  0  0  0  0  0  0  0  0  0
   25.5532  -21.3387  -18.0755 O   0  0  0  0  0  0  0  0  0  0  0  0
   27.8173  -17.5657  -20.3169 N   0  0  0  0  0  0  0  0  0  0  0  0
   27.1679  -16.6482  -19.4496 C   0  0  0  0  0  0  0  0  0  0  0  0
   27.3168  -15.4187  -19.6700 O   0  0  0  0  0  0  0  0  0  0  0  0
   26.3245  -17.0881  -18.2988 C   0  0  0  0  0  0  0  0  0  0  0  0
   26.3727  -18.6158  -18.1705 C   0  0  2  0  0  0  0  0  0  0  0  0
   25.0394  -19.1125  -18.0772 N   0  0  0  0  0  0  0  0  0  0  0  0
   27.2140  -18.9177  -17.0123 C   0  0  0  0  0  0  0  0  0  0  0  0
   28.3989  -18.5051  -16.9846 O   0  0  0  0  0  0  0  0  0  0  0  0
   23.7216  -21.5957   -9.8903 O   0  0  0  0  0  0  0  0  0  0  0  0
   24.5324  -20.9582  -10.8304 C   0  0  0  0  0  0  0  0  0  0  0  0
   25.8806  -20.9179  -10.6192 C   0  0  0  0  0  0  0  0  0  0  0  0
   26.7272  -20.3141  -11.4930 C   0  0  0  0  0  0  0  0  0  0  0  0
   26.2164  -19.7227  -12.6283 C   0  0  0  0  0  0  0  0  0  0  0  0
   27.1670  -19.0733  -13.5660 C   0  0  0  0  0  0  0  0  0  0  0  0
   27.5380  -19.9665  -14.7293 C   0  0  2  0  0  0  0  0  0  0  0  0
   26.7439  -19.6659  -15.9044 N   0  0  0  0  0  0  0  0  0  0  0  0
   27.3006  -21.3857  -14.3686 C   0  0  0  0  0  0  0  0  0  0  0  0
   28.0692  -22.0354  -13.4162 O   0  0  0  0  0  0  0  0  0  0  0  0
   24.8534  -19.7490  -12.8672 C   0  0  0  0  0  0  0  0  0  0  0  0
   24.0114  -20.3700  -11.9624 C   0  0  0  0  0  0  0  0  0  0  0  0
   26.3843  -22.0741  -14.9127 O   0  0  0  0  0  0  0  0  0  0  0  0
  2  3  1  0
  2  1  1  1
  4  5  1  0
  4  3  1  0
  6  5  1  0
  7  6  1  0
  8 15  1  0
  8  2  1  0
  9  8  2  0
 11 10  1  0
 11 12  2  0
 13 11  1  0
 14 13  1  1
 14 15  1  0
 16 14  1  0
 17 16  2  0
 19 20  2  0
 19 18  1  0
 21 20  1  0
 22 21  2  0
 24 23  1  1
 23 22  1  0
 24 25  1  0
 25 16  1  0
 26 27  1  0
 26 24  1  0
 28 22  1  0
 28 29  2  0
 29 19  1  0
 30 26  2  0
M  END
$$$$
