KNY.pdb
     RDKit          3D

 30 30  0  0  1  0  0  0  0  0999 V2000
   30.9370  -29.9369  -20.6839 N   0  0  0  0  0  0  0  0  0  0  0  0
   31.7178  -30.4940  -19.5926 C   0  0  1  0  0  0  0  0  0  0  0  0
   33.1112  -30.0457  -19.7514 C   0  0  0  0  0  0  0  0  0  0  0  0
   33.7726  -29.9975  -21.0545 C   0  0  0  0  0  0  0  0  0  0  0  0
   34.6858  -31.0618  -21.5064 C   0  0  0  0  0  0  0  0  0  0  0  0
   35.2811  -30.8432  -22.8504 C   0  0  0  0  0  0  0  0  0  0  0  0
   36.1316  -31.9894  -23.1900 N   0  0  0  0  0  0  0  0  0  0  0  0
   31.1217  -29.8260  -18.3499 C   0  0  0  0  0  0  0  0  0  0  0  0
   31.8459  -29.2174  -17.5675 O   0  0  0  0  0  0  0  0  0  0  0  0
   28.8165  -26.3897  -16.1180 N   0  0  0  0  0  0  0  0  0  0  0  0
   29.1968  -26.4442  -17.4848 C   0  0  0  0  0  0  0  0  0  0  0  0
   29.7537  -25.4333  -17.9849 O   0  0  0  0  0  0  0  0  0  0  0  0
   28.9607  -27.6464  -18.3381 C   0  0  0  0  0  0  0  0  0  0  0  0
   28.9551  -28.9102  -17.4690 C   0  0  2  0  0  0  0  0  0  0  0  0
   29.7388  -29.9140  -18.1104 N   0  0  0  0  0  0  0  0  0  0  0  0
   27.5538  -29.2763  -17.2620 C   0  0  0  0  0  0  0  0  0  0  0  0
   26.7849  -28.4739  -16.6789 O   0  0  0  0  0  0  0  0  0  0  0  0
   20.1305  -32.4940  -14.6586 O   0  0  0  0  0  0  0  0  0  0  0  0
   21.3762  -31.9717  -15.0095 C   0  0  0  0  0  0  0  0  0  0  0  0
   22.4959  -32.7111  -14.7578 C   0  0  0  0  0  0  0  0  0  0  0  0
   23.7388  -32.2635  -15.0734 C   0  0  0  0  0  0  0  0  0  0  0  0
   23.8806  -31.0270  -15.6654 C   0  0  0  0  0  0  0  0  0  0  0  0
   25.2515  -30.5662  -16.0014 C   0  0  0  0  0  0  0  0  0  0  0  0
   25.6754  -30.9706  -17.3963 C   0  0  2  0  0  0  0  0  0  0  0  0
   27.0182  -30.5141  -17.6969 N   0  0  0  0  0  0  0  0  0  0  0  0
   24.7555  -30.3719  -18.3942 C   0  0  0  0  0  0  0  0  0  0  0  0
   25.1945  -29.4507  -19.3316 O   0  0  0  0  0  0  0  0  0  0  0  0
   22.7621  -30.2565  -15.9319 C   0  0  0  0  0  0  0  0  0  0  0  0
   21.5069  -30.7341  -15.6012 C   0  0  0  0  0  0  0  0  0  0  0  0
   23.5238  -30.6723  -18.4394 O   0  0  0  0  0  0  0  0  0  0  0  0
  2  3  1  0
  2  1  1  6
  4  5  1  0
  4  3  1  0
  6  5  1  0
  7  6  1  0
  8 15  1  0
  8  2  1  0
  9  8  2  0
 11 10  1  0
 11 12  2  0
 13 11  1  0
 14 13  1  6
 14 15  1  0
 16 14  1  0
 17 16  2  0
 19 20  2  0
 19 18  1  0
 21 20  1  0
 22 21  2  0
 24 23  1  1
 23 22  1  0
 24 25  1  0
 25 16  1  0
 26 27  1  0
 26 24  1  0
 28 22  1  0
 28 29  2  0
 29 19  1  0
 30 26  2  0
M  END
$$$$
