KNY.pdb
     RDKit          3D

 30 30  0  0  1  0  0  0  0  0999 V2000
   23.0663  -18.2104  -14.5539 N   0  0  0  0  0  0  0  0  0  0  0  0
   22.2276  -19.0384  -13.7043 C   0  0  1  0  0  0  0  0  0  0  0  0
   21.1912  -19.6568  -14.5476 C   0  0  0  0  0  0  0  0  0  0  0  0
   21.0964  -19.3993  -15.9838 C   0  0  0  0  0  0  0  0  0  0  0  0
   21.0953  -20.4902  -16.9742 C   0  0  0  0  0  0  0  0  0  0  0  0
   19.8045  -21.2156  -17.1012 C   0  0  0  0  0  0  0  0  0  0  0  0
   19.9278  -22.2331  -18.1509 N   0  0  0  0  0  0  0  0  0  0  0  0
   23.1835  -20.1303  -13.2145 C   0  0  0  0  0  0  0  0  0  0  0  0
   22.7504  -21.1022  -12.6022 O   0  0  0  0  0  0  0  0  0  0  0  0
   25.9485  -23.1647  -14.5551 N   0  0  0  0  0  0  0  0  0  0  0  0
   26.8701  -22.0951  -14.7050 C   0  0  0  0  0  0  0  0  0  0  0  0
   27.7933  -22.2235  -15.5498 O   0  0  0  0  0  0  0  0  0  0  0  0
   26.7815  -20.8386  -13.9036 C   0  0  0  0  0  0  0  0  0  0  0  0
   25.5630  -20.8975  -12.9738 C   0  0  2  0  0  0  0  0  0  0  0  0
   24.5612  -20.0128  -13.4705 N   0  0  0  0  0  0  0  0  0  0  0  0
   26.0404  -20.5776  -11.6284 C   0  0  0  0  0  0  0  0  0  0  0  0
   26.7528  -19.5597  -11.4510 O   0  0  0  0  0  0  0  0  0  0  0  0
   29.8843  -19.3683   -4.2105 O   0  0  0  0  0  0  0  0  0  0  0  0
   29.2782  -19.5926   -5.4474 C   0  0  0  0  0  0  0  0  0  0  0  0
   28.4341  -18.6444   -5.9497 C   0  0  0  0  0  0  0  0  0  0  0  0
   27.8112  -18.7982   -7.1468 C   0  0  0  0  0  0  0  0  0  0  0  0
   28.0335  -19.9432   -7.8810 C   0  0  0  0  0  0  0  0  0  0  0  0
   27.3407  -20.0813   -9.1870 C   0  0  0  0  0  0  0  0  0  0  0  0
   26.3172  -21.1955   -9.1874 C   0  0  2  0  0  0  0  0  0  0  0  0
   25.7299  -21.3771  -10.5003 N   0  0  0  0  0  0  0  0  0  0  0  0
   25.2235  -20.8732   -8.2385 C   0  0  0  0  0  0  0  0  0  0  0  0
   23.9694  -20.4789   -8.6765 O   0  0  0  0  0  0  0  0  0  0  0  0
   28.8846  -20.9207   -7.3954 C   0  0  0  0  0  0  0  0  0  0  0  0
   29.5074  -20.7410   -6.1736 C   0  0  0  0  0  0  0  0  0  0  0  0
   25.3808  -20.9422   -6.9816 O   0  0  0  0  0  0  0  0  0  0  0  0
  2  3  1  0
  2  1  1  6
  4  5  1  0
  4  3  1  0
  6  5  1  0
  7  6  1  0
  8 15  1  0
  8  2  1  0
  9  8  2  0
 11 10  1  0
 11 12  2  0
 13 11  1  0
 14 13  1  6
 14 15  1  0
 16 14  1  0
 17 16  2  0
 19 20  2  0
 19 18  1  0
 21 20  1  0
 22 21  2  0
 24 23  1  6
 23 22  1  0
 24 25  1  0
 25 16  1  0
 26 27  1  0
 26 24  1  0
 28 22  1  0
 28 29  2  0
 29 19  1  0
 30 26  2  0
M  END
$$$$
