KNY.pdb
     RDKit          3D

 30 30  0  0  1  0  0  0  0  0999 V2000
   28.0176  -21.7375  -16.2822 N   0  0  0  0  0  0  0  0  0  0  0  0
   28.1161  -20.3229  -16.5986 C   0  0  1  0  0  0  0  0  0  0  0  0
   28.1002  -20.1795  -18.0638 C   0  0  0  0  0  0  0  0  0  0  0  0
   28.5844  -21.2310  -18.9570 C   0  0  0  0  0  0  0  0  0  0  0  0
   29.9897  -21.6733  -18.9524 C   0  0  0  0  0  0  0  0  0  0  0  0
   30.3591  -22.5876  -20.0643 C   0  0  0  0  0  0  0  0  0  0  0  0
   31.7572  -23.0012  -19.9004 N   0  0  0  0  0  0  0  0  0  0  0  0
   26.8193  -19.7390  -16.0301 C   0  0  0  0  0  0  0  0  0  0  0  0
   26.3131  -18.7440  -16.5408 O   0  0  0  0  0  0  0  0  0  0  0  0
   22.3125  -18.6593  -14.2612 N   0  0  0  0  0  0  0  0  0  0  0  0
   22.5231  -19.8692  -14.9736 C   0  0  0  0  0  0  0  0  0  0  0  0
   21.5293  -20.6096  -15.1892 O   0  0  0  0  0  0  0  0  0  0  0  0
   23.8680  -20.2873  -15.4693 C   0  0  0  0  0  0  0  0  0  0  0  0
   24.9292  -20.0072  -14.3978 C   0  0  2  0  0  0  0  0  0  0  0  0
   26.2115  -20.3498  -14.9188 N   0  0  0  0  0  0  0  0  0  0  0  0
   24.5383  -20.7613  -13.2066 C   0  0  0  0  0  0  0  0  0  0  0  0
   24.4676  -22.0131  -13.2630 O   0  0  0  0  0  0  0  0  0  0  0  0
   30.2060  -21.1603   -9.3237 O   0  0  0  0  0  0  0  0  0  0  0  0
   28.8292  -20.9565   -9.4257 C   0  0  0  0  0  0  0  0  0  0  0  0
   28.2131  -20.1474   -8.5149 C   0  0  0  0  0  0  0  0  0  0  0  0
   26.8771  -19.9060   -8.5557 C   0  0  0  0  0  0  0  0  0  0  0  0
   26.1152  -20.4923   -9.5433 C   0  0  0  0  0  0  0  0  0  0  0  0
   24.6582  -20.2072   -9.5637 C   0  0  0  0  0  0  0  0  0  0  0  0
   23.9571  -20.8460  -10.7424 C   0  0  2  0  0  0  0  0  0  0  0  0
   24.2316  -20.1325  -11.9743 N   0  0  0  0  0  0  0  0  0  0  0  0
   22.4901  -20.8305  -10.5230 C   0  0  0  0  0  0  0  0  0  0  0  0
   21.6375  -20.1039  -11.3385 O   0  0  0  0  0  0  0  0  0  0  0  0
   26.7143  -21.3170  -10.4796 C   0  0  0  0  0  0  0  0  0  0  0  0
   28.0766  -21.5476  -10.4172 C   0  0  0  0  0  0  0  0  0  0  0  0
   21.9438  -21.4800   -9.5800 O   0  0  0  0  0  0  0  0  0  0  0  0
  2  3  1  0
  2  1  1  6
  4  5  1  0
  4  3  1  0
  6  5  1  0
  7  6  1  0
  8 15  1  0
  8  2  1  0
  9  8  2  0
 11 10  1  0
 11 12  2  0
 13 11  1  0
 14 13  1  6
 14 15  1  0
 16 14  1  0
 17 16  2  0
 19 20  2  0
 19 18  1  0
 21 20  1  0
 22 21  2  0
 24 23  1  1
 23 22  1  0
 24 25  1  0
 25 16  1  0
 26 27  1  0
 26 24  1  0
 28 22  1  0
 28 29  2  0
 29 19  1  0
 30 26  2  0
M  END
$$$$
