KNY.pdb
     RDKit          3D

 30 30  0  0  1  0  0  0  0  0999 V2000
   20.4721  -13.9961  -16.4604 N   0  0  0  0  0  0  0  0  0  0  0  0
   21.0063  -12.7639  -17.0147 C   0  0  1  0  0  0  0  0  0  0  0  0
   20.5425  -12.6498  -18.4074 C   0  0  0  0  0  0  0  0  0  0  0  0
   20.4972  -13.7973  -19.3123 C   0  0  0  0  0  0  0  0  0  0  0  0
   20.1183  -13.6597  -20.7294 C   0  0  0  0  0  0  0  0  0  0  0  0
   20.1034  -14.9321  -21.4971 C   0  0  0  0  0  0  0  0  0  0  0  0
   19.6585  -14.6593  -22.8683 N   0  0  0  0  0  0  0  0  0  0  0  0
   20.3311  -11.6737  -16.1774 C   0  0  0  0  0  0  0  0  0  0  0  0
   19.1354  -11.7507  -15.9102 O   0  0  0  0  0  0  0  0  0  0  0  0
   19.8567   -8.6630  -11.8514 N   0  0  0  0  0  0  0  0  0  0  0  0
   20.8854   -8.3261  -12.7702 C   0  0  0  0  0  0  0  0  0  0  0  0
   21.2957   -7.1371  -12.7893 O   0  0  0  0  0  0  0  0  0  0  0  0
   21.4892   -9.3233  -13.7029 C   0  0  0  0  0  0  0  0  0  0  0  0
   20.5817   -9.5108  -14.9251 C   0  0  2  0  0  0  0  0  0  0  0  0
   21.0895  -10.5830  -15.7160 N   0  0  0  0  0  0  0  0  0  0  0  0
   20.5282   -8.2218  -15.6152 C   0  0  0  0  0  0  0  0  0  0  0  0
   21.5405   -7.8076  -16.2306 O   0  0  0  0  0  0  0  0  0  0  0  0
   19.6195   -8.6275  -22.1521 O   0  0  0  0  0  0  0  0  0  0  0  0
   19.2586   -8.0533  -20.9323 C   0  0  0  0  0  0  0  0  0  0  0  0
   19.1504   -6.6948  -20.8494 C   0  0  0  0  0  0  0  0  0  0  0  0
   18.8035   -6.0706  -19.6941 C   0  0  0  0  0  0  0  0  0  0  0  0
   18.5521   -6.8253  -18.5685 C   0  0  0  0  0  0  0  0  0  0  0  0
   18.1721   -6.1147  -17.3214 C   0  0  0  0  0  0  0  0  0  0  0  0
   19.2762   -6.1246  -16.2871 C   0  0  2  0  0  0  0  0  0  0  0  0
   19.3678   -7.4085  -15.6198 N   0  0  0  0  0  0  0  0  0  0  0  0
   19.0079   -5.0924  -15.2561 C   0  0  0  0  0  0  0  0  0  0  0  0
   19.0751   -3.7385  -15.5436 O   0  0  0  0  0  0  0  0  0  0  0  0
   18.6544   -8.2044  -18.6247 C   0  0  0  0  0  0  0  0  0  0  0  0
   19.0093   -8.8170  -19.8129 C   0  0  0  0  0  0  0  0  0  0  0  0
   18.7043   -5.3964  -14.0624 O   0  0  0  0  0  0  0  0  0  0  0  0
  2  3  1  0
  2  1  1  1
  4  5  1  0
  4  3  1  0
  6  5  1  0
  7  6  1  0
  8 15  1  0
  8  2  1  0
  9  8  2  0
 11 10  1  0
 11 12  2  0
 13 11  1  0
 14 13  1  1
 14 15  1  0
 16 14  1  0
 17 16  2  0
 19 20  2  0
 19 18  1  0
 21 20  1  0
 22 21  2  0
 24 23  1  6
 23 22  1  0
 24 25  1  0
 25 16  1  0
 26 27  1  0
 26 24  1  0
 28 22  1  0
 28 29  2  0
 29 19  1  0
 30 26  2  0
M  END
$$$$
