KNY.pdb
     RDKit          3D

 30 30  0  0  1  0  0  0  0  0999 V2000
   25.9784  -18.9602  -15.1590 N   0  0  0  0  0  0  0  0  0  0  0  0
   26.7732  -20.0968  -15.5917 C   0  0  1  0  0  0  0  0  0  0  0  0
   28.1936  -19.7172  -15.5164 C   0  0  0  0  0  0  0  0  0  0  0  0
   28.7445  -18.5974  -16.2783 C   0  0  0  0  0  0  0  0  0  0  0  0
   29.2048  -18.7509  -17.6694 C   0  0  0  0  0  0  0  0  0  0  0  0
   29.8594  -17.5477  -18.2458 C   0  0  0  0  0  0  0  0  0  0  0  0
   30.2890  -17.8460  -19.6165 N   0  0  0  0  0  0  0  0  0  0  0  0
   26.4875  -21.1586  -14.5255 C   0  0  0  0  0  0  0  0  0  0  0  0
   27.3775  -21.9193  -14.1563 O   0  0  0  0  0  0  0  0  0  0  0  0
   24.6396  -21.1156   -9.8003 N   0  0  0  0  0  0  0  0  0  0  0  0
   25.5218  -20.1936  -10.4229 C   0  0  0  0  0  0  0  0  0  0  0  0
   26.1602  -19.3970   -9.6879 O   0  0  0  0  0  0  0  0  0  0  0  0
   25.7147  -20.1385  -11.9023 C   0  0  0  0  0  0  0  0  0  0  0  0
   24.9068  -21.2548  -12.5759 C   0  0  2  0  0  0  0  0  0  0  0  0
   25.1987  -21.2571  -13.9715 N   0  0  0  0  0  0  0  0  0  0  0  0
   23.5004  -21.0151  -12.2517 C   0  0  0  0  0  0  0  0  0  0  0  0
   22.9718  -21.6348  -11.2969 O   0  0  0  0  0  0  0  0  0  0  0  0
   23.0838  -15.9421  -17.5090 O   0  0  0  0  0  0  0  0  0  0  0  0
   22.5049  -16.9812  -16.7792 C   0  0  0  0  0  0  0  0  0  0  0  0
   23.0696  -18.2228  -16.8381 C   0  0  0  0  0  0  0  0  0  0  0  0
   22.5580  -19.2783  -16.1534 C   0  0  0  0  0  0  0  0  0  0  0  0
   21.4357  -19.0973  -15.3743 C   0  0  0  0  0  0  0  0  0  0  0  0
   20.9015  -20.2692  -14.6353 C   0  0  0  0  0  0  0  0  0  0  0  0
   21.2669  -20.2469  -13.1674 C   0  0  2  0  0  0  0  0  0  0  0  0
   22.6969  -20.1013  -12.9779 N   0  0  0  0  0  0  0  0  0  0  0  0
   20.8485  -21.5175  -12.5263 C   0  0  0  0  0  0  0  0  0  0  0  0
   20.0471  -21.5357  -11.3960 O   0  0  0  0  0  0  0  0  0  0  0  0
   20.8430  -17.8489  -15.2964 C   0  0  0  0  0  0  0  0  0  0  0  0
   21.3826  -16.7894  -16.0031 C   0  0  0  0  0  0  0  0  0  0  0  0
   21.2024  -22.6484  -12.9793 O   0  0  0  0  0  0  0  0  0  0  0  0
  2  3  1  0
  2  1  1  1
  4  5  1  0
  4  3  1  0
  6  5  1  0
  7  6  1  0
  8 15  1  0
  8  2  1  0
  9  8  2  0
 11 10  1  0
 11 12  2  0
 13 11  1  0
 14 13  1  1
 14 15  1  0
 16 14  1  0
 17 16  2  0
 19 20  2  0
 19 18  1  0
 21 20  1  0
 22 21  2  0
 24 23  1  6
 23 22  1  0
 24 25  1  0
 25 16  1  0
 26 27  1  0
 26 24  1  0
 28 22  1  0
 28 29  2  0
 29 19  1  0
 30 26  2  0
M  END
$$$$
