KNY.pdb
     RDKit          3D

 30 30  0  0  1  0  0  0  0  0999 V2000
   18.4380  -13.9459  -20.6739 N   0  0  0  0  0  0  0  0  0  0  0  0
   18.2583  -13.9503  -19.2322 C   0  0  1  0  0  0  0  0  0  0  0  0
   18.7935  -15.2178  -18.7082 C   0  0  0  0  0  0  0  0  0  0  0  0
   18.9457  -16.4070  -19.5451 C   0  0  0  0  0  0  0  0  0  0  0  0
   19.6553  -17.6086  -19.0726 C   0  0  0  0  0  0  0  0  0  0  0  0
   19.8620  -18.6570  -20.1055 C   0  0  0  0  0  0  0  0  0  0  0  0
   21.1882  -19.2566  -19.9211 N   0  0  0  0  0  0  0  0  0  0  0  0
   19.1531  -12.8014  -18.7575 C   0  0  0  0  0  0  0  0  0  0  0  0
   19.2724  -12.5653  -17.5587 O   0  0  0  0  0  0  0  0  0  0  0  0
   23.8359  -12.7123  -20.1554 N   0  0  0  0  0  0  0  0  0  0  0  0
   22.9138  -11.8777  -19.4704 C   0  0  0  0  0  0  0  0  0  0  0  0
   22.9127  -11.9044  -18.2128 O   0  0  0  0  0  0  0  0  0  0  0  0
   21.9571  -10.9806  -20.1839 C   0  0  0  0  0  0  0  0  0  0  0  0
   20.6451  -10.8841  -19.3952 C   0  0  2  0  0  0  0  0  0  0  0  0
   19.8377  -12.0181  -19.7037 N   0  0  0  0  0  0  0  0  0  0  0  0
   20.0384   -9.5975  -19.7372 C   0  0  0  0  0  0  0  0  0  0  0  0
   19.9272   -9.2676  -20.9430 O   0  0  0  0  0  0  0  0  0  0  0  0
   14.0459  -10.1822  -16.0890 O   0  0  0  0  0  0  0  0  0  0  0  0
   14.9185   -9.4870  -16.9274 C   0  0  0  0  0  0  0  0  0  0  0  0
   15.3858  -10.1054  -18.0513 C   0  0  0  0  0  0  0  0  0  0  0  0
   16.2372   -9.4874  -18.9104 C   0  0  0  0  0  0  0  0  0  0  0  0
   16.6452   -8.1979  -18.6453 C   0  0  0  0  0  0  0  0  0  0  0  0
   17.5738   -7.5477  -19.6044 C   0  0  0  0  0  0  0  0  0  0  0  0
   18.9744   -7.4035  -19.0508 C   0  0  2  0  0  0  0  0  0  0  0  0
   19.5639   -8.6943  -18.7538 N   0  0  0  0  0  0  0  0  0  0  0  0
   18.9390   -6.6175  -17.7932 C   0  0  0  0  0  0  0  0  0  0  0  0
   19.4091   -7.1335  -16.5962 O   0  0  0  0  0  0  0  0  0  0  0  0
   16.1867   -7.5474  -17.5130 C   0  0  0  0  0  0  0  0  0  0  0  0
   15.3202   -8.1978  -16.6532 C   0  0  0  0  0  0  0  0  0  0  0  0
   18.4777   -5.4365  -17.7505 O   0  0  0  0  0  0  0  0  0  0  0  0
  2  3  1  0
  2  1  1  6
  4  5  1  0
  4  3  1  0
  6  5  1  0
  7  6  1  0
  8 15  1  0
  8  2  1  0
  9  8  2  0
 11 10  1  0
 11 12  2  0
 13 11  1  0
 14 13  1  6
 14 15  1  0
 16 14  1  0
 17 16  2  0
 19 20  2  0
 19 18  1  0
 21 20  1  0
 22 21  2  0
 24 23  1  1
 23 22  1  0
 24 25  1  0
 25 16  1  0
 26 27  1  0
 26 24  1  0
 28 22  1  0
 28 29  2  0
 29 19  1  0
 30 26  2  0
M  END
$$$$
