SEN.pdb
     RDKit          3D

 24 23  0  0  1  0  0  0  0  0999 V2000
   25.5011  -22.4193  -14.7284 O   0  0  0  0  0  0  0  0  0  0  0  0
   25.4748  -22.0004  -16.0746 C   0  0  0  0  0  0  0  0  0  0  0  0
   25.7352  -20.5284  -16.1090 C   0  0  2  0  0  0  0  0  0  0  0  0
   26.9548  -20.2412  -15.3838 N   0  0  0  0  0  0  0  0  0  0  0  0
   24.6154  -19.7965  -15.4473 C   0  0  0  0  0  0  0  0  0  0  0  0
   24.5974  -19.6206  -14.2047 O   0  0  0  0  0  0  0  0  0  0  0  0
   23.5256  -19.2714  -16.2072 N   0  0  0  0  0  0  0  0  0  0  0  0
   22.3627  -18.6621  -15.6151 C   0  0  1  0  0  0  0  0  0  0  0  0
   21.6591  -17.7315  -16.5988 C   0  0  0  0  0  0  0  0  0  0  0  0
   20.5502  -17.0120  -15.8649 C   0  0  0  0  0  0  0  0  0  0  0  0
   19.8114  -16.1355  -16.7778 C   0  0  0  0  0  0  0  0  0  0  0  0
   19.9296  -14.9020  -16.6847 O   0  0  0  0  0  0  0  0  0  0  0  0
   21.4167  -19.6677  -15.0644 C   0  0  0  0  0  0  0  0  0  0  0  0
   21.2829  -20.7599  -15.6313 O   0  0  0  0  0  0  0  0  0  0  0  0
   18.9732  -16.6368  -17.7557 O   0  0  0  0  0  0  0  0  0  0  0  0
   18.1132  -22.2974  -11.8952 N   0  0  0  0  0  0  0  0  0  0  0  0
   19.1899  -21.6973  -11.2212 C   0  0  0  0  0  0  0  0  0  0  0  0
   19.4138  -22.0286  -10.0336 O   0  0  0  0  0  0  0  0  0  0  0  0
   20.0384  -20.7134  -11.8640 C   0  0  0  0  0  0  0  0  0  0  0  0
   19.7892  -20.4081  -13.2899 C   0  0  2  0  0  0  0  0  0  0  0  0
   20.6365  -19.4268  -13.8839 N   0  0  0  0  0  0  0  0  0  0  0  0
   18.3733  -20.0041  -13.4632 C   0  0  0  0  0  0  0  0  0  0  0  0
   17.4837  -20.8118  -13.1082 O   0  0  0  0  0  0  0  0  0  0  0  0
   18.0464  -18.7741  -14.0007 O   0  0  0  0  0  0  0  0  0  0  0  0
  1  2  1  0
  2  3  1  0
  3  5  1  0
  3  4  1  1
  5  6  2  0
  7  8  1  0
  7  5  1  0
  8 13  1  0
  8  9  1  6
 10  9  1  0
 10 11  1  0
 11 12  2  0
 11 15  1  0
 13 21  1  0
 13 14  2  0
 17 16  1  0
 17 18  2  0
 19 17  1  0
 20 19  1  1
 21 20  1  0
 22 24  1  0
 22 20  1  0
 23 22  2  0
M  END
$$$$
