SEN.pdb
     RDKit          3D

 24 23  0  0  1  0  0  0  0  0999 V2000
   18.7439  -13.0736  -14.9793 O   0  0  0  0  0  0  0  0  0  0  0  0
   18.9589  -11.6984  -15.2053 C   0  0  0  0  0  0  0  0  0  0  0  0
   17.9508  -11.2279  -16.2044 C   0  0  2  0  0  0  0  0  0  0  0  0
   18.3558  -11.6508  -17.5283 N   0  0  0  0  0  0  0  0  0  0  0  0
   17.8779   -9.7373  -16.1925 C   0  0  0  0  0  0  0  0  0  0  0  0
   18.6447   -9.0426  -16.9031 O   0  0  0  0  0  0  0  0  0  0  0  0
   16.9319   -9.0508  -15.3710 N   0  0  0  0  0  0  0  0  0  0  0  0
   16.8991   -7.6189  -15.2208 C   0  0  1  0  0  0  0  0  0  0  0  0
   15.5955   -7.1557  -14.5768 C   0  0  0  0  0  0  0  0  0  0  0  0
   14.4685   -7.3948  -15.5558 C   0  0  0  0  0  0  0  0  0  0  0  0
   13.1819   -7.0197  -14.9631 C   0  0  0  0  0  0  0  0  0  0  0  0
   12.6125   -5.9764  -15.3257 O   0  0  0  0  0  0  0  0  0  0  0  0
   18.0751   -7.1024  -14.4726 C   0  0  0  0  0  0  0  0  0  0  0  0
   18.5489   -7.7646  -13.5403 O   0  0  0  0  0  0  0  0  0  0  0  0
   12.5662   -7.7954  -13.9990 O   0  0  0  0  0  0  0  0  0  0  0  0
   22.4943   -4.6006  -13.1800 N   0  0  0  0  0  0  0  0  0  0  0  0
   22.3568   -5.8469  -13.8138 C   0  0  0  0  0  0  0  0  0  0  0  0
   23.3696   -6.5755  -13.9305 O   0  0  0  0  0  0  0  0  0  0  0  0
   21.0813   -6.3028  -14.3301 C   0  0  0  0  0  0  0  0  0  0  0  0
   19.9143   -5.4048  -14.1876 C   0  0  2  0  0  0  0  0  0  0  0  0
   18.6985   -5.8482  -14.7867 N   0  0  0  0  0  0  0  0  0  0  0  0
   20.2617   -4.0639  -14.7160 C   0  0  0  0  0  0  0  0  0  0  0  0
   19.5826   -3.6127  -15.6673 O   0  0  0  0  0  0  0  0  0  0  0  0
   21.3037   -3.3356  -14.1752 O   0  0  0  0  0  0  0  0  0  0  0  0
  1  2  1  0
  2  3  1  0
  3  5  1  0
  3  4  1  6
  5  6  2  0
  7  8  1  0
  7  5  1  0
  8 13  1  0
  8  9  1  1
 10  9  1  0
 10 11  1  0
 11 12  2  0
 11 15  1  0
 13 21  1  0
 13 14  2  0
 17 16  1  0
 17 18  2  0
 19 17  1  0
 20 19  1  6
 21 20  1  0
 22 24  1  0
 22 20  1  0
 23 22  2  0
M  END
$$$$
