SEN.pdb
     RDKit          3D

 24 23  0  0  1  0  0  0  0  0999 V2000
   14.2635   -9.4676  -14.3626 O   0  0  0  0  0  0  0  0  0  0  0  0
   15.3485   -9.9284  -15.1365 C   0  0  0  0  0  0  0  0  0  0  0  0
   16.3029  -10.6332  -14.2265 C   0  0  2  0  0  0  0  0  0  0  0  0
   15.6137  -11.7149  -13.5553 N   0  0  0  0  0  0  0  0  0  0  0  0
   16.8107   -9.6883  -13.1889 C   0  0  0  0  0  0  0  0  0  0  0  0
   16.3707   -9.7146  -12.0137 O   0  0  0  0  0  0  0  0  0  0  0  0
   17.8157   -8.7215  -13.4992 N   0  0  0  0  0  0  0  0  0  0  0  0
   18.3662   -7.8069  -12.5324 C   0  0  1  0  0  0  0  0  0  0  0  0
   19.6020   -7.0968  -13.0774 C   0  0  0  0  0  0  0  0  0  0  0  0
   20.2352   -6.3101  -11.9523 C   0  0  0  0  0  0  0  0  0  0  0  0
   21.3142   -5.4592  -12.4611 C   0  0  0  0  0  0  0  0  0  0  0  0
   21.9137   -4.6904  -11.6906 O   0  0  0  0  0  0  0  0  0  0  0  0
   17.3604   -6.8265  -12.0459 C   0  0  0  0  0  0  0  0  0  0  0  0
   16.5651   -6.3150  -12.8446 O   0  0  0  0  0  0  0  0  0  0  0  0
   21.6978   -5.4791  -13.7888 O   0  0  0  0  0  0  0  0  0  0  0  0
   14.2499   -3.9226   -8.8989 N   0  0  0  0  0  0  0  0  0  0  0  0
   14.8321   -4.9717   -8.1680 C   0  0  0  0  0  0  0  0  0  0  0  0
   14.4988   -5.1251   -6.9698 O   0  0  0  0  0  0  0  0  0  0  0  0
   15.7999   -5.8710   -8.7646 C   0  0  0  0  0  0  0  0  0  0  0  0
   16.2277   -5.6058  -10.1557 C   0  0  2  0  0  0  0  0  0  0  0  0
   17.2667   -6.4381  -10.6672 N   0  0  0  0  0  0  0  0  0  0  0  0
   16.6305   -4.1845  -10.2809 C   0  0  0  0  0  0  0  0  0  0  0  0
   15.7890   -3.3063   -9.9805 O   0  0  0  0  0  0  0  0  0  0  0  0
   17.8958   -3.8407  -10.7164 O   0  0  0  0  0  0  0  0  0  0  0  0
  1  2  1  0
  2  3  1  0
  3  5  1  0
  3  4  1  1
  5  6  2  0
  7  8  1  0
  7  5  1  0
  8 13  1  0
  8  9  1  6
 10  9  1  0
 10 11  1  0
 11 12  2  0
 11 15  1  0
 13 21  1  0
 13 14  2  0
 17 16  1  0
 17 18  2  0
 19 17  1  0
 20 19  1  1
 21 20  1  0
 22 24  1  0
 22 20  1  0
 23 22  2  0
M  END
$$$$
