SEN.pdb
     RDKit          3D

 24 23  0  0  1  0  0  0  0  0999 V2000
   15.2494  -11.1531  -16.0028 O   0  0  0  0  0  0  0  0  0  0  0  0
   15.4966  -10.6503  -14.7087 C   0  0  0  0  0  0  0  0  0  0  0  0
   16.9526  -10.8198  -14.4139 C   0  0  2  0  0  0  0  0  0  0  0  0
   17.2195  -12.2084  -14.1036 N   0  0  0  0  0  0  0  0  0  0  0  0
   17.3327   -9.9955  -13.2293 C   0  0  0  0  0  0  0  0  0  0  0  0
   17.0352  -10.3547  -12.0640 O   0  0  0  0  0  0  0  0  0  0  0  0
   18.0487   -8.7687  -13.3826 N   0  0  0  0  0  0  0  0  0  0  0  0
   18.5081   -7.9713  -12.2747 C   0  0  1  0  0  0  0  0  0  0  0  0
   19.6528   -7.0505  -12.6875 C   0  0  0  0  0  0  0  0  0  0  0  0
   20.2415   -6.4324  -11.4397 C   0  0  0  0  0  0  0  0  0  0  0  0
   21.2361   -5.4142  -11.7881 C   0  0  0  0  0  0  0  0  0  0  0  0
   20.9755   -4.2105  -11.6232 O   0  0  0  0  0  0  0  0  0  0  0  0
   17.4076   -7.2001  -11.6393 C   0  0  0  0  0  0  0  0  0  0  0  0
   16.6171   -6.5619  -12.3464 O   0  0  0  0  0  0  0  0  0  0  0  0
   22.4751   -5.7471  -12.3023 O   0  0  0  0  0  0  0  0  0  0  0  0
   14.5346   -6.2141   -6.2896 N   0  0  0  0  0  0  0  0  0  0  0  0
   14.4972   -6.5696   -7.6483 C   0  0  0  0  0  0  0  0  0  0  0  0
   13.4405   -6.3700   -8.2916 O   0  0  0  0  0  0  0  0  0  0  0  0
   15.6432   -7.1561   -8.3144 C   0  0  0  0  0  0  0  0  0  0  0  0
   16.0807   -6.5602   -9.5959 C   0  0  2  0  0  0  0  0  0  0  0  0
   17.2154   -7.1601  -10.2174 N   0  0  0  0  0  0  0  0  0  0  0  0
   16.3358   -5.1130   -9.4002 C   0  0  0  0  0  0  0  0  0  0  0  0
   15.3775   -4.3903   -9.0409 O   0  0  0  0  0  0  0  0  0  0  0  0
   17.5928   -4.5789   -9.6088 O   0  0  0  0  0  0  0  0  0  0  0  0
  1  2  1  0
  2  3  1  0
  3  5  1  0
  3  4  1  1
  5  6  2  0
  7  8  1  0
  7  5  1  0
  8 13  1  0
  8  9  1  6
 10  9  1  0
 10 11  1  0
 11 12  2  0
 11 15  1  0
 13 21  1  0
 13 14  2  0
 17 16  1  0
 17 18  2  0
 19 17  1  0
 20 19  1  1
 21 20  1  0
 22 24  1  0
 22 20  1  0
 23 22  2  0
M  END
$$$$
