SEN.pdb
     RDKit          3D

 24 23  0  0  1  0  0  0  0  0999 V2000
   14.4982  -12.0230  -13.5270 O   0  0  0  0  0  0  0  0  0  0  0  0
   14.8767  -11.1077  -12.5233 C   0  0  0  0  0  0  0  0  0  0  0  0
   16.2170  -11.5170  -12.0017 C   0  0  2  0  0  0  0  0  0  0  0  0
   16.0547  -12.6210  -11.0795 N   0  0  0  0  0  0  0  0  0  0  0  0
   16.8461  -10.3819  -11.2648 C   0  0  0  0  0  0  0  0  0  0  0  0
   16.5758  -10.1590  -10.0596 O   0  0  0  0  0  0  0  0  0  0  0  0
   17.7780   -9.5104  -11.9076 N   0  0  0  0  0  0  0  0  0  0  0  0
   18.3042   -8.3173  -11.2964 C   0  0  1  0  0  0  0  0  0  0  0  0
   19.4693   -7.7467  -12.0999 C   0  0  0  0  0  0  0  0  0  0  0  0
   20.0124   -6.5430  -11.3637 C   0  0  0  0  0  0  0  0  0  0  0  0
   21.1341   -5.9518  -12.0981 C   0  0  0  0  0  0  0  0  0  0  0  0
   21.6087   -4.8626  -11.7341 O   0  0  0  0  0  0  0  0  0  0  0  0
   17.2560   -7.2870  -11.0743 C   0  0  0  0  0  0  0  0  0  0  0  0
   16.4084   -7.0745  -11.9509 O   0  0  0  0  0  0  0  0  0  0  0  0
   21.6946   -6.5699  -13.1999 O   0  0  0  0  0  0  0  0  0  0  0  0
   14.0118   -3.8855   -8.6028 N   0  0  0  0  0  0  0  0  0  0  0  0
   14.2036   -5.1303   -7.9804 C   0  0  0  0  0  0  0  0  0  0  0  0
   13.4270   -5.4644   -7.0554 O   0  0  0  0  0  0  0  0  0  0  0  0
   15.2696   -6.0268   -8.3817 C   0  0  0  0  0  0  0  0  0  0  0  0
   16.0861   -5.6516   -9.5569 C   0  0  2  0  0  0  0  0  0  0  0  0
   17.1795   -6.5127   -9.8681 N   0  0  0  0  0  0  0  0  0  0  0  0
   16.5857   -4.2667   -9.3830 C   0  0  0  0  0  0  0  0  0  0  0  0
   15.7541   -3.3723   -9.1033 O   0  0  0  0  0  0  0  0  0  0  0  0
   17.9281   -3.9728   -9.5261 O   0  0  0  0  0  0  0  0  0  0  0  0
  1  2  1  0
  2  3  1  0
  3  5  1  0
  3  4  1  1
  5  6  2  0
  7  8  1  0
  7  5  1  0
  8 13  1  0
  8  9  1  6
 10  9  1  0
 10 11  1  0
 11 12  2  0
 11 15  1  0
 13 21  1  0
 13 14  2  0
 17 16  1  0
 17 18  2  0
 19 17  1  0
 20 19  1  1
 21 20  1  0
 22 24  1  0
 22 20  1  0
 23 22  2  0
M  END
$$$$
