SEN.pdb
     RDKit          3D

 24 23  0  0  1  0  0  0  0  0999 V2000
   13.5236   -9.0880  -14.9287 O   0  0  0  0  0  0  0  0  0  0  0  0
   14.8777   -8.8296  -14.6323 C   0  0  0  0  0  0  0  0  0  0  0  0
   15.6501  -10.0919  -14.8466 C   0  0  2  0  0  0  0  0  0  0  0  0
   15.1978  -11.0951  -13.9060 N   0  0  0  0  0  0  0  0  0  0  0  0
   17.1027   -9.8482  -14.6066 C   0  0  0  0  0  0  0  0  0  0  0  0
   17.5447   -9.6352  -13.4512 O   0  0  0  0  0  0  0  0  0  0  0  0
   18.0396   -9.8493  -15.6852 N   0  0  0  0  0  0  0  0  0  0  0  0
   19.4423   -9.5667  -15.5215 C   0  0  1  0  0  0  0  0  0  0  0  0
   20.2930  -10.3922  -16.4824 C   0  0  0  0  0  0  0  0  0  0  0  0
   20.3245  -11.8198  -15.9856 C   0  0  0  0  0  0  0  0  0  0  0  0
   21.0380  -12.6803  -16.9332 C   0  0  0  0  0  0  0  0  0  0  0  0
   20.4018  -13.3407  -17.7717 O   0  0  0  0  0  0  0  0  0  0  0  0
   19.7455   -8.1174  -15.6532 C   0  0  0  0  0  0  0  0  0  0  0  0
   19.1887   -7.4513  -16.5355 O   0  0  0  0  0  0  0  0  0  0  0  0
   22.4159  -12.7875  -16.9301 O   0  0  0  0  0  0  0  0  0  0  0  0
   20.0854   -2.9280  -15.7337 N   0  0  0  0  0  0  0  0  0  0  0  0
   19.9832   -3.7267  -14.5823 C   0  0  0  0  0  0  0  0  0  0  0  0
   20.0978   -3.1796  -13.4608 O   0  0  0  0  0  0  0  0  0  0  0  0
   19.7503   -5.1551  -14.6638 C   0  0  0  0  0  0  0  0  0  0  0  0
   20.9216   -6.0393  -14.8508 C   0  0  2  0  0  0  0  0  0  0  0  0
   20.6711   -7.4418  -14.7889 N   0  0  0  0  0  0  0  0  0  0  0  0
   21.9662   -5.6828  -13.8610 C   0  0  0  0  0  0  0  0  0  0  0  0
   22.2750   -6.5374  -12.9984 O   0  0  0  0  0  0  0  0  0  0  0  0
   22.5791   -4.4450  -13.8901 O   0  0  0  0  0  0  0  0  0  0  0  0
  1  2  1  0
  2  3  1  0
  3  5  1  0
  3  4  1  1
  5  6  2  0
  7  8  1  0
  7  5  1  0
  8 13  1  0
  8  9  1  6
 10  9  1  0
 10 11  1  0
 11 12  2  0
 11 15  1  0
 13 21  1  0
 13 14  2  0
 17 16  1  0
 17 18  2  0
 19 17  1  0
 20 19  1  1
 21 20  1  0
 22 24  1  0
 22 20  1  0
 23 22  2  0
M  END
$$$$
