SEN.pdb
     RDKit          3D

 24 23  0  0  1  0  0  0  0  0999 V2000
   12.1500  -10.5250   -9.7010 O   0  0  0  0  0  0  0  0  0  0  0  0
   13.2701   -9.8440   -9.1813 C   0  0  0  0  0  0  0  0  0  0  0  0
   14.4689  -10.2412   -9.9817 C   0  0  2  0  0  0  0  0  0  0  0  0
   14.8075  -11.6172   -9.6855 N   0  0  0  0  0  0  0  0  0  0  0  0
   15.6344   -9.3843   -9.6146 C   0  0  0  0  0  0  0  0  0  0  0  0
   16.3641   -9.6643   -8.6324 O   0  0  0  0  0  0  0  0  0  0  0  0
   15.9585   -8.2157  -10.3697 N   0  0  0  0  0  0  0  0  0  0  0  0
   17.0892   -7.3709  -10.0832 C   0  0  1  0  0  0  0  0  0  0  0  0
   18.2071   -7.5713  -11.1025 C   0  0  0  0  0  0  0  0  0  0  0  0
   17.6415   -7.3315  -12.4840 C   0  0  0  0  0  0  0  0  0  0  0  0
   18.6929   -7.4441  -13.4985 C   0  0  0  0  0  0  0  0  0  0  0  0
   18.4145   -7.2914  -14.6999 O   0  0  0  0  0  0  0  0  0  0  0  0
   16.7116   -5.9368   -9.9827 C   0  0  0  0  0  0  0  0  0  0  0  0
   15.9514   -5.4414  -10.8246 O   0  0  0  0  0  0  0  0  0  0  0  0
   20.0057   -7.7185  -13.1648 O   0  0  0  0  0  0  0  0  0  0  0  0
   16.5176   -0.8448   -8.5833 N   0  0  0  0  0  0  0  0  0  0  0  0
   17.0418   -1.5803   -7.5072 C   0  0  0  0  0  0  0  0  0  0  0  0
   17.3104   -0.9767   -6.4424 O   0  0  0  0  0  0  0  0  0  0  0  0
   17.2759   -3.0077   -7.6019 C   0  0  0  0  0  0  0  0  0  0  0  0
   16.9071   -3.6891   -8.8622 C   0  0  2  0  0  0  0  0  0  0  0  0
   17.1966   -5.0836   -8.9352 N   0  0  0  0  0  0  0  0  0  0  0  0
   17.5525   -2.9933  -10.0011 C   0  0  0  0  0  0  0  0  0  0  0  0
   17.2558   -1.7925  -10.2010 O   0  0  0  0  0  0  0  0  0  0  0  0
   18.4530   -3.6507  -10.8169 O   0  0  0  0  0  0  0  0  0  0  0  0
  1  2  1  0
  2  3  1  0
  3  5  1  0
  3  4  1  1
  5  6  2  0
  7  8  1  0
  7  5  1  0
  8 13  1  0
  8  9  1  6
 10  9  1  0
 10 11  1  0
 11 12  2  0
 11 15  1  0
 13 21  1  0
 13 14  2  0
 17 16  1  0
 17 18  2  0
 19 17  1  0
 20 19  1  1
 21 20  1  0
 22 24  1  0
 22 20  1  0
 23 22  2  0
M  END
$$$$
