SEN.pdb
     RDKit          3D

 24 23  0  0  1  0  0  0  0  0999 V2000
   17.7123  -12.8056  -13.4408 O   0  0  0  0  0  0  0  0  0  0  0  0
   17.6957  -11.3964  -13.4888 C   0  0  0  0  0  0  0  0  0  0  0  0
   16.3422  -10.9320  -13.0551 C   0  0  2  0  0  0  0  0  0  0  0  0
   15.4001  -11.1267  -14.1369 N   0  0  0  0  0  0  0  0  0  0  0  0
   16.3828   -9.4764  -12.7279 C   0  0  0  0  0  0  0  0  0  0  0  0
   16.2239   -8.6049  -13.6171 O   0  0  0  0  0  0  0  0  0  0  0  0
   16.6040   -9.0262  -11.3902 N   0  0  0  0  0  0  0  0  0  0  0  0
   16.7513   -7.6393  -11.0311 C   0  0  1  0  0  0  0  0  0  0  0  0
   16.3200   -7.3882   -9.5890 C   0  0  0  0  0  0  0  0  0  0  0  0
   16.4124   -5.9042   -9.3151 C   0  0  0  0  0  0  0  0  0  0  0  0
   15.8759   -5.5900   -7.9881 C   0  0  0  0  0  0  0  0  0  0  0  0
   15.5209   -6.5079   -7.2294 O   0  0  0  0  0  0  0  0  0  0  0  0
   18.1301   -7.1376  -11.2692 C   0  0  0  0  0  0  0  0  0  0  0  0
   19.0916   -7.7096  -10.7397 O   0  0  0  0  0  0  0  0  0  0  0  0
   15.7473   -4.2890   -7.5399 O   0  0  0  0  0  0  0  0  0  0  0  0
   22.3668   -5.0048  -13.4664 N   0  0  0  0  0  0  0  0  0  0  0  0
   21.8360   -6.2896  -13.6697 C   0  0  0  0  0  0  0  0  0  0  0  0
   22.5196   -7.1278  -14.3024 O   0  0  0  0  0  0  0  0  0  0  0  0
   20.5280   -6.6620  -13.1680 C   0  0  0  0  0  0  0  0  0  0  0  0
   19.7181   -5.6189  -12.5012 C   0  0  2  0  0  0  0  0  0  0  0  0
   18.4035   -5.9994  -12.0999 N   0  0  0  0  0  0  0  0  0  0  0  0
   19.6379   -4.4267  -13.3787 C   0  0  0  0  0  0  0  0  0  0  0  0
   18.5987   -4.2670  -14.0601 O   0  0  0  0  0  0  0  0  0  0  0  0
   20.6788   -3.5205  -13.4424 O   0  0  0  0  0  0  0  0  0  0  0  0
  1  2  1  0
  2  3  1  0
  3  5  1  0
  3  4  1  6
  5  6  2  0
  7  8  1  0
  7  5  1  0
  8 13  1  0
  8  9  1  1
 10  9  1  0
 10 11  1  0
 11 12  2  0
 11 15  1  0
 13 21  1  0
 13 14  2  0
 17 16  1  0
 17 18  2  0
 19 17  1  0
 20 19  1  6
 21 20  1  0
 22 24  1  0
 22 20  1  0
 23 22  2  0
M  END
$$$$
