SEN.pdb
     RDKit          3D

 24 23  0  0  1  0  0  0  0  0999 V2000
   20.5803  -20.6586  -17.1643 O   0  0  0  0  0  0  0  0  0  0  0  0
   20.6967  -19.3144  -16.7542 C   0  0  0  0  0  0  0  0  0  0  0  0
   22.0082  -19.1533  -16.0544 C   0  0  2  0  0  0  0  0  0  0  0  0
   21.8795  -19.6088  -14.6862 N   0  0  0  0  0  0  0  0  0  0  0  0
   22.4011  -17.7138  -16.0320 C   0  0  0  0  0  0  0  0  0  0  0  0
   22.4591  -17.0717  -14.9551 O   0  0  0  0  0  0  0  0  0  0  0  0
   22.7248  -17.0180  -17.2371 N   0  0  0  0  0  0  0  0  0  0  0  0
   23.1898  -15.6553  -17.2693 C   0  0  1  0  0  0  0  0  0  0  0  0
   24.3699  -15.4914  -18.2227 C   0  0  0  0  0  0  0  0  0  0  0  0
   24.8917  -14.0780  -18.0973 C   0  0  0  0  0  0  0  0  0  0  0  0
   26.0410  -13.8718  -18.9827 C   0  0  0  0  0  0  0  0  0  0  0  0
   25.9491  -13.0943  -19.9477 O   0  0  0  0  0  0  0  0  0  0  0  0
   22.1033  -14.6954  -17.5976 C   0  0  0  0  0  0  0  0  0  0  0  0
   21.1521  -15.0614  -18.3002 O   0  0  0  0  0  0  0  0  0  0  0  0
   27.2449  -14.5204  -18.7823 O   0  0  0  0  0  0  0  0  0  0  0  0
   18.5315  -10.9837  -16.6467 N   0  0  0  0  0  0  0  0  0  0  0  0
   18.6344  -12.2605  -16.0694 C   0  0  0  0  0  0  0  0  0  0  0  0
   17.6616  -12.7031  -15.4151 O   0  0  0  0  0  0  0  0  0  0  0  0
   19.8296  -13.0679  -16.2134 C   0  0  0  0  0  0  0  0  0  0  0  0
   20.9304  -12.5354  -17.0461 C   0  0  2  0  0  0  0  0  0  0  0  0
   22.1058  -13.3386  -17.1293 N   0  0  0  0  0  0  0  0  0  0  0  0
   21.2943  -11.1805  -16.5670 C   0  0  0  0  0  0  0  0  0  0  0  0
   22.4844  -10.9747  -16.2335 O   0  0  0  0  0  0  0  0  0  0  0  0
   20.3485  -10.1763  -16.4906 O   0  0  0  0  0  0  0  0  0  0  0  0
  1  2  1  0
  2  3  1  0
  3  5  1  0
  3  4  1  1
  5  6  2  0
  7  8  1  0
  7  5  1  0
  8 13  1  0
  8  9  1  6
 10  9  1  0
 10 11  1  0
 11 12  2  0
 11 15  1  0
 13 21  1  0
 13 14  2  0
 17 16  1  0
 17 18  2  0
 19 17  1  0
 20 19  1  1
 21 20  1  0
 22 24  1  0
 22 20  1  0
 23 22  2  0
M  END
$$$$
