VRN.pdb
     RDKit          3D

 27 26  0  0  1  0  0  0  0  0999 V2000
    8.9200  -17.3198   27.7699 C   0  0  0  0  0  0  0  0  0  0  0  0
    8.1471  -18.5847   27.5339 C   0  0  1  0  0  0  0  0  0  0  0  0
    7.5756  -19.1974   28.7784 C   0  0  0  0  0  0  0  0  0  0  0  0
    7.1560  -18.4754   26.4020 C   0  0  2  0  0  0  0  0  0  0  0  0
    6.6243  -19.8086   26.1778 N   0  0  0  0  0  0  0  0  0  0  0  0
    7.6882  -17.9103   25.1736 C   0  0  0  0  0  0  0  0  0  0  0  0
    8.4878  -18.6416   24.4935 O   0  0  0  0  0  0  0  0  0  0  0  0
    6.2930  -12.6694   18.4451 N   0  0  0  0  0  0  0  0  0  0  0  0
    7.4173  -13.5422   18.2858 C   0  0  0  0  0  0  0  0  0  0  0  0
    7.7597  -13.8415   17.0822 N   0  0  0  0  0  0  0  0  0  0  0  0
    8.1317  -14.0613   19.4066 N   0  0  0  0  0  0  0  0  0  0  0  0
    7.4152  -14.1404   20.6547 C   0  0  0  0  0  0  0  0  0  0  0  0
    8.3815  -14.2809   21.8328 C   0  0  0  0  0  0  0  0  0  0  0  0
    7.5887  -14.8271   22.9987 C   0  0  0  0  0  0  0  0  0  0  0  0
    8.1580  -16.1220   23.5081 C   0  0  2  0  0  0  0  0  0  0  0  0
    7.4258  -16.6459   24.6408 N   0  0  0  0  0  0  0  0  0  0  0  0
    9.5773  -15.8328   23.9091 C   0  0  0  0  0  0  0  0  0  0  0  0
    9.8124  -15.3741   25.0504 O   0  0  0  0  0  0  0  0  0  0  0  0
    8.5707  -14.4569   16.8764 N   0  0  0  0  0  0  0  0  0  0  0  0
   14.6750  -16.4311   24.1790 C   0  0  0  0  0  0  0  0  0  0  0  0
   13.7014  -17.2451   24.8015 O   0  0  0  0  0  0  0  0  0  0  0  0
   14.0440  -18.1152   25.6278 C   0  0  0  0  0  0  0  0  0  0  0  0
   12.2515  -17.0803   24.4837 C   0  0  1  0  0  0  0  0  0  0  0  0
   12.0415  -16.0432   23.4112 N   0  0  0  0  0  0  0  0  0  0  0  0
   10.6536  -16.0665   23.0291 C   0  0  0  0  0  0  0  0  0  0  0  0
   12.9501  -16.2402   22.2597 O   0  0  0  0  0  0  0  0  0  0  0  0
   12.5223  -16.4699   20.9644 O   0  0  0  0  0  0  0  0  0  0  0  0
  2  1  1  1
  2  3  1  0
  4  2  1  0
  4  5  1  6
  6  7  2  0
  6  4  1  0
  9  8  1  0
 10  9  2  0
 11  9  1  0
 12 11  1  0
 13 14  1  0
 13 12  1  0
 15 16  1  0
 15 14  1  1
 16  6  1  0
 17 15  1  0
 18 17  2  0
 19 20  1  0
 20 22  1  0
 21 20  2  0
 23 22  1  1
 23 24  1  0
 24 17  1  0
 25 23  1  0
 25 26  1  0
 27 25  2  0
M  END
$$$$
