VRN.pdb
     RDKit          3D

 27 26  0  0  1  0  0  0  0  0999 V2000
    9.0988  -13.2630   21.0862 C   0  0  0  0  0  0  0  0  0  0  0  0
    8.3111  -13.5553   19.8424 C   0  0  1  0  0  0  0  0  0  0  0  0
    7.4139  -12.4352   19.4053 C   0  0  0  0  0  0  0  0  0  0  0  0
    9.1488  -14.1310   18.7278 C   0  0  2  0  0  0  0  0  0  0  0  0
    8.2431  -14.4310   17.6323 N   0  0  0  0  0  0  0  0  0  0  0  0
    9.9352  -15.2975   19.0916 C   0  0  0  0  0  0  0  0  0  0  0  0
    9.3435  -16.4315   19.0648 O   0  0  0  0  0  0  0  0  0  0  0  0
   16.9144  -13.3533   18.2164 N   0  0  0  0  0  0  0  0  0  0  0  0
   16.4005  -13.6371   16.9100 C   0  0  0  0  0  0  0  0  0  0  0  0
   16.8244  -12.9026   15.9424 N   0  0  0  0  0  0  0  0  0  0  0  0
   15.4601  -14.6858   16.6828 N   0  0  0  0  0  0  0  0  0  0  0  0
   15.1639  -15.5471   17.7998 C   0  0  0  0  0  0  0  0  0  0  0  0
   13.6574  -15.6063   18.0611 C   0  0  0  0  0  0  0  0  0  0  0  0
   13.4502  -16.4602   19.2916 C   0  0  0  0  0  0  0  0  0  0  0  0
   11.9972  -16.5684   19.6625 C   0  0  2  0  0  0  0  0  0  0  0  0
   11.2790  -15.3267   19.4721 N   0  0  0  0  0  0  0  0  0  0  0  0
   11.9575  -16.9622   21.1124 C   0  0  0  0  0  0  0  0  0  0  0  0
   12.4214  -18.0720   21.4609 O   0  0  0  0  0  0  0  0  0  0  0  0
   16.4101  -12.9508   14.9911 N   0  0  0  0  0  0  0  0  0  0  0  0
   13.9172  -17.3430   23.2051 C   0  0  0  0  0  0  0  0  0  0  0  0
   13.7273  -16.2099   24.0286 O   0  0  0  0  0  0  0  0  0  0  0  0
   14.6999  -15.6799   24.6032 C   0  0  0  0  0  0  0  0  0  0  0  0
   12.3659  -15.6284   24.2256 C   0  0  2  0  0  0  0  0  0  0  0  0
   11.3191  -16.4275   23.4938 N   0  0  0  0  0  0  0  0  0  0  0  0
   11.4095  -16.1098   22.0924 C   0  0  0  0  0  0  0  0  0  0  0  0
    9.9623  -16.2016   24.0401 O   0  0  0  0  0  0  0  0  0  0  0  0
    9.5393  -16.6528   25.2775 O   0  0  0  0  0  0  0  0  0  0  0  0
  2  1  1  1
  2  3  1  0
  4  2  1  0
  4  5  1  6
  6  7  2  0
  6  4  1  0
  9  8  1  0
 10  9  2  0
 11  9  1  0
 12 11  1  0
 13 14  1  0
 13 12  1  0
 15 16  1  0
 15 14  1  1
 16  6  1  0
 17 15  1  0
 18 17  2  0
 19 20  1  0
 20 22  1  0
 21 20  2  0
 23 22  1  6
 23 24  1  0
 24 17  1  0
 25 23  1  0
 25 26  1  0
 27 25  2  0
M  END
$$$$
