VRN.pdb
     RDKit          3D

 27 26  0  0  1  0  0  0  0  0999 V2000
    8.4431  -16.7847   27.1504 C   0  0  0  0  0  0  0  0  0  0  0  0
    7.7939  -18.1298   27.0010 C   0  0  1  0  0  0  0  0  0  0  0  0
    7.1738  -18.6567   28.2613 C   0  0  0  0  0  0  0  0  0  0  0  0
    6.8919  -18.2257   25.7957 C   0  0  2  0  0  0  0  0  0  0  0  0
    6.4377  -19.6035   25.7185 N   0  0  0  0  0  0  0  0  0  0  0  0
    7.4950  -17.8021   24.5433 C   0  0  0  0  0  0  0  0  0  0  0  0
    8.1897  -18.6685   23.9079 O   0  0  0  0  0  0  0  0  0  0  0  0
    8.0248  -14.9950   17.1550 N   0  0  0  0  0  0  0  0  0  0  0  0
    7.7873  -13.7694   17.8571 C   0  0  0  0  0  0  0  0  0  0  0  0
    8.2477  -12.6920   17.3255 N   0  0  0  0  0  0  0  0  0  0  0  0
    7.0728  -13.7357   19.0918 N   0  0  0  0  0  0  0  0  0  0  0  0
    7.8128  -13.3313   20.2606 C   0  0  0  0  0  0  0  0  0  0  0  0
    8.4927  -14.5326   20.9210 C   0  0  0  0  0  0  0  0  0  0  0  0
    7.6333  -14.9430   22.0953 C   0  0  0  0  0  0  0  0  0  0  0  0
    8.1166  -16.2190   22.7267 C   0  0  2  0  0  0  0  0  0  0  0  0
    7.4043  -16.5437   23.9437 N   0  0  0  0  0  0  0  0  0  0  0  0
    9.5749  -16.0171   23.0289 C   0  0  0  0  0  0  0  0  0  0  0  0
    9.9311  -15.0244   23.7040 O   0  0  0  0  0  0  0  0  0  0  0  0
    8.1974  -11.7737   17.8083 N   0  0  0  0  0  0  0  0  0  0  0  0
   12.8074  -19.3496   25.5058 C   0  0  0  0  0  0  0  0  0  0  0  0
   12.5336  -18.1470   24.8153 O   0  0  0  0  0  0  0  0  0  0  0  0
   12.3356  -17.0897   25.4478 C   0  0  0  0  0  0  0  0  0  0  0  0
   12.4764  -18.1189   23.3232 C   0  0  2  0  0  0  0  0  0  0  0  0
   11.9662  -16.7933   22.8207 N   0  0  0  0  0  0  0  0  0  0  0  0
   10.5543  -16.9211   22.5697 C   0  0  0  0  0  0  0  0  0  0  0  0
   12.7131  -16.3226   21.6329 O   0  0  0  0  0  0  0  0  0  0  0  0
   13.7341  -15.3903   21.6778 O   0  0  0  0  0  0  0  0  0  0  0  0
  2  1  1  1
  2  3  1  0
  4  2  1  0
  4  5  1  6
  6  7  2  0
  6  4  1  0
  9  8  1  0
 10  9  2  0
 11  9  1  0
 12 11  1  0
 13 14  1  0
 13 12  1  0
 15 16  1  0
 15 14  1  1
 16  6  1  0
 17 15  1  0
 18 17  2  0
 19 20  1  0
 20 22  1  0
 21 20  2  0
 23 22  1  1
 23 24  1  0
 24 17  1  0
 25 23  1  0
 25 26  1  0
 27 25  2  0
M  END
$$$$
