VRN.pdb
     RDKit          3D

 27 26  0  0  1  0  0  0  0  0999 V2000
    7.3723  -12.2252   19.2746 C   0  0  0  0  0  0  0  0  0  0  0  0
    8.5212  -13.1333   19.6041 C   0  0  1  0  0  0  0  0  0  0  0  0
    8.4435  -13.7532   20.9680 C   0  0  0  0  0  0  0  0  0  0  0  0
    8.8349  -14.1199   18.5069 C   0  0  2  0  0  0  0  0  0  0  0  0
    7.6261  -14.8923   18.2772 N   0  0  0  0  0  0  0  0  0  0  0  0
    9.9696  -14.9887   18.7697 C   0  0  0  0  0  0  0  0  0  0  0  0
    9.7177  -16.1503   19.2432 O   0  0  0  0  0  0  0  0  0  0  0  0
   14.3352  -14.4418   13.3717 N   0  0  0  0  0  0  0  0  0  0  0  0
   15.3704  -13.8526   14.1670 C   0  0  0  0  0  0  0  0  0  0  0  0
   16.0443  -12.8950   13.6340 N   0  0  0  0  0  0  0  0  0  0  0  0
   15.6487  -14.3016   15.4926 N   0  0  0  0  0  0  0  0  0  0  0  0
   14.7962  -15.3367   16.0210 C   0  0  0  0  0  0  0  0  0  0  0  0
   14.0431  -14.8465   17.2595 C   0  0  0  0  0  0  0  0  0  0  0  0
   13.2454  -16.0163   17.7899 C   0  0  0  0  0  0  0  0  0  0  0  0
   12.3699  -15.6213   18.9466 C   0  0  2  0  0  0  0  0  0  0  0  0
   11.3209  -14.7011   18.5634 N   0  0  0  0  0  0  0  0  0  0  0  0
   13.2715  -14.9722   19.9588 C   0  0  0  0  0  0  0  0  0  0  0  0
   13.0447  -13.7942   20.3183 O   0  0  0  0  0  0  0  0  0  0  0  0
   16.8417  -12.4431   14.1227 N   0  0  0  0  0  0  0  0  0  0  0  0
   14.8643  -15.8977   24.6815 C   0  0  0  0  0  0  0  0  0  0  0  0
   13.6646  -16.3684   24.1007 O   0  0  0  0  0  0  0  0  0  0  0  0
   12.7703  -16.8621   24.8172 C   0  0  0  0  0  0  0  0  0  0  0  0
   13.4457  -16.2841   22.6257 C   0  0  1  0  0  0  0  0  0  0  0  0
   14.6592  -15.7323   21.9238 N   0  0  0  0  0  0  0  0  0  0  0  0
   14.3694  -15.6596   20.5154 C   0  0  0  0  0  0  0  0  0  0  0  0
   15.8772  -16.5223   22.2120 O   0  0  0  0  0  0  0  0  0  0  0  0
   17.0106  -16.0078   22.8155 O   0  0  0  0  0  0  0  0  0  0  0  0
  2  1  1  6
  2  3  1  0
  4  2  1  0
  4  5  1  1
  6  7  2  0
  6  4  1  0
  9  8  1  0
 10  9  2  0
 11  9  1  0
 12 11  1  0
 13 14  1  0
 13 12  1  0
 15 16  1  0
 15 14  1  6
 16  6  1  0
 17 15  1  0
 18 17  2  0
 19 20  1  0
 20 22  1  0
 21 20  2  0
 23 22  1  1
 23 24  1  0
 24 17  1  0
 25 23  1  0
 25 26  1  0
 27 25  2  0
M  END
$$$$
