VRN.pdb
     RDKit          3D

 27 26  0  0  1  0  0  0  0  0999 V2000
    8.2691  -14.2435   16.1749 C   0  0  0  0  0  0  0  0  0  0  0  0
    8.4073  -14.5700   17.6335 C   0  0  1  0  0  0  0  0  0  0  0  0
    9.7847  -14.3486   18.1852 C   0  0  0  0  0  0  0  0  0  0  0  0
    7.3114  -13.9770   18.4836 C   0  0  2  0  0  0  0  0  0  0  0  0
    7.3815  -12.5357   18.3155 N   0  0  0  0  0  0  0  0  0  0  0  0
    7.3594  -14.3434   19.8890 C   0  0  0  0  0  0  0  0  0  0  0  0
    8.0905  -13.6249   20.6545 O   0  0  0  0  0  0  0  0  0  0  0  0
    1.5582  -19.5203   22.5600 N   0  0  0  0  0  0  0  0  0  0  0  0
    2.4618  -20.0651   21.5914 C   0  0  0  0  0  0  0  0  0  0  0  0
    2.1171  -21.1677   21.0250 N   0  0  0  0  0  0  0  0  0  0  0  0
    3.6916  -19.4202   21.2633 N   0  0  0  0  0  0  0  0  0  0  0  0
    4.0994  -18.3278   22.1104 C   0  0  0  0  0  0  0  0  0  0  0  0
    5.3822  -17.6784   21.5870 C   0  0  0  0  0  0  0  0  0  0  0  0
    5.6670  -16.4803   22.4642 C   0  0  0  0  0  0  0  0  0  0  0  0
    6.8024  -15.6510   21.9317 C   0  0  2  0  0  0  0  0  0  0  0  0
    6.6923  -15.4017   20.5106 N   0  0  0  0  0  0  0  0  0  0  0  0
    8.0609  -16.4214   22.2173 C   0  0  0  0  0  0  0  0  0  0  0  0
    8.4725  -17.2582   21.3814 O   0  0  0  0  0  0  0  0  0  0  0  0
    2.6742  -21.5909   20.2573 N   0  0  0  0  0  0  0  0  0  0  0  0
   12.3842  -18.0549   22.8875 C   0  0  0  0  0  0  0  0  0  0  0  0
   12.3643  -16.6527   23.0649 O   0  0  0  0  0  0  0  0  0  0  0  0
   13.3615  -15.9662   22.7624 C   0  0  0  0  0  0  0  0  0  0  0  0
   11.1556  -15.9695   23.6149 C   0  0  2  0  0  0  0  0  0  0  0  0
   10.0002  -16.9271   23.7495 N   0  0  0  0  0  0  0  0  0  0  0  0
    8.7915  -16.2240   23.4067 C   0  0  0  0  0  0  0  0  0  0  0  0
    9.9378  -17.5396   25.0953 O   0  0  0  0  0  0  0  0  0  0  0  0
   10.2876  -18.8498   25.3683 O   0  0  0  0  0  0  0  0  0  0  0  0
  2  1  1  6
  2  3  1  0
  4  2  1  0
  4  5  1  1
  6  7  2  0
  6  4  1  0
  9  8  1  0
 10  9  2  0
 11  9  1  0
 12 11  1  0
 13 14  1  0
 13 12  1  0
 15 16  1  0
 15 14  1  6
 16  6  1  0
 17 15  1  0
 18 17  2  0
 19 20  1  0
 20 22  1  0
 21 20  2  0
 23 22  1  6
 23 24  1  0
 24 17  1  0
 25 23  1  0
 25 26  1  0
 27 25  2  0
M  END
$$$$
