VRN.pdb
     RDKit          3D

 27 26  0  0  1  0  0  0  0  0999 V2000
    8.3979  -12.3664   26.4417 C   0  0  0  0  0  0  0  0  0  0  0  0
    6.9434  -12.6250   26.7077 C   0  0  1  0  0  0  0  0  0  0  0  0
    6.2424  -11.5109   27.4274 C   0  0  0  0  0  0  0  0  0  0  0  0
    6.1967  -13.1294   25.4979 C   0  0  2  0  0  0  0  0  0  0  0  0
    4.8868  -13.5559   25.9594 N   0  0  0  0  0  0  0  0  0  0  0  0
    6.8645  -14.1908   24.7638 C   0  0  0  0  0  0  0  0  0  0  0  0
    6.6863  -15.3881   25.1780 O   0  0  0  0  0  0  0  0  0  0  0  0
    7.7925  -15.4577   18.0074 N   0  0  0  0  0  0  0  0  0  0  0  0
    7.8328  -14.0523   17.7339 C   0  0  0  0  0  0  0  0  0  0  0  0
    7.2131  -13.6428   16.6834 N   0  0  0  0  0  0  0  0  0  0  0  0
    8.5269  -13.1400   18.5835 N   0  0  0  0  0  0  0  0  0  0  0  0
    9.2768  -13.7095   19.6747 C   0  0  0  0  0  0  0  0  0  0  0  0
    8.3422  -14.2280   20.7696 C   0  0  0  0  0  0  0  0  0  0  0  0
    9.2119  -14.7990   21.8667 C   0  0  0  0  0  0  0  0  0  0  0  0
    8.4096  -15.1770   23.0807 C   0  0  2  0  0  0  0  0  0  0  0  0
    7.6889  -14.0559   23.6442 N   0  0  0  0  0  0  0  0  0  0  0  0
    9.3895  -15.7102   24.0878 C   0  0  0  0  0  0  0  0  0  0  0  0
   10.1837  -14.9218   24.6499 O   0  0  0  0  0  0  0  0  0  0  0  0
    7.2052  -12.6428   16.4025 N   0  0  0  0  0  0  0  0  0  0  0  0
    7.4058  -19.1031   26.5094 C   0  0  0  0  0  0  0  0  0  0  0  0
    8.7222  -18.6711   26.7900 O   0  0  0  0  0  0  0  0  0  0  0  0
    8.9681  -18.0449   27.8410 C   0  0  0  0  0  0  0  0  0  0  0  0
    9.8381  -18.9543   25.8387 C   0  0  2  0  0  0  0  0  0  0  0  0
   10.4181  -17.6803   25.2817 N   0  0  0  0  0  0  0  0  0  0  0  0
    9.4363  -17.0804   24.4162 C   0  0  0  0  0  0  0  0  0  0  0  0
   11.7117  -17.9081   24.5997 O   0  0  0  0  0  0  0  0  0  0  0  0
   12.9150  -18.0862   25.2584 O   0  0  0  0  0  0  0  0  0  0  0  0
  2  1  1  6
  2  3  1  0
  4  2  1  0
  4  5  1  1
  6  7  2  0
  6  4  1  0
  9  8  1  0
 10  9  2  0
 11  9  1  0
 12 11  1  0
 13 14  1  0
 13 12  1  0
 15 16  1  0
 15 14  1  6
 16  6  1  0
 17 15  1  0
 18 17  2  0
 19 20  1  0
 20 22  1  0
 21 20  2  0
 23 22  1  1
 23 24  1  0
 24 17  1  0
 25 23  1  0
 25 26  1  0
 27 25  2  0
M  END
$$$$
