QSN.pdb
     RDKit          3D

 24 23  0  0  1  0  0  0  0  0999 V2000
   14.9746  -12.0438  -16.5116 N   0  0  0  0  0  0  0  0  0  0  0  0
   15.6360  -12.8628  -17.4984 C   0  0  0  0  0  0  0  0  0  0  0  0
   14.8617  -13.4610  -18.2862 O   0  0  0  0  0  0  0  0  0  0  0  0
   17.1151  -12.9521  -17.5328 C   0  0  0  0  0  0  0  0  0  0  0  0
   17.8143  -12.0971  -16.5340 C   0  0  0  0  0  0  0  0  0  0  0  0
   18.6016  -10.9829  -17.1402 C   0  0  2  0  0  0  0  0  0  0  0  0
   19.6508  -11.5852  -17.9645 N   0  0  0  0  0  0  0  0  0  0  0  0
   19.2480  -10.1156  -16.1354 C   0  0  0  0  0  0  0  0  0  0  0  0
   18.5601   -9.6266  -15.2080 O   0  0  0  0  0  0  0  0  0  0  0  0
   22.8709  -10.4705  -14.2060 O   0  0  0  0  0  0  0  0  0  0  0  0
   22.7383   -9.4414  -15.1285 C   0  0  0  0  0  0  0  0  0  0  0  0
   21.2864   -8.9438  -15.1753 C   0  0  2  0  0  0  0  0  0  0  0  0
   20.6278   -9.7909  -16.1494 N   0  0  0  0  0  0  0  0  0  0  0  0
   21.3544   -7.5322  -15.6259 C   0  0  0  0  0  0  0  0  0  0  0  0
   21.5212   -7.2191  -16.8341 O   0  0  0  0  0  0  0  0  0  0  0  0
   21.0118   -2.2659  -15.5722 N   0  0  0  0  0  0  0  0  0  0  0  0
   19.8836   -3.0597  -15.2991 C   0  0  0  0  0  0  0  0  0  0  0  0
   18.7509   -2.4884  -15.2740 O   0  0  0  0  0  0  0  0  0  0  0  0
   19.9041   -4.5010  -15.0395 C   0  0  0  0  0  0  0  0  0  0  0  0
   21.2798   -5.0964  -14.9892 C   0  0  2  0  0  0  0  0  0  0  0  0
   21.2287   -6.5128  -14.6717 N   0  0  0  0  0  0  0  0  0  0  0  0
   22.1717   -4.4304  -14.0159 C   0  0  0  0  0  0  0  0  0  0  0  0
   22.5109   -4.9908  -12.9322 O   0  0  0  0  0  0  0  0  0  0  0  0
   22.6763   -3.1598  -14.2483 O   0  0  0  0  0  0  0  0  0  0  0  0
  1  2  1  0
  2  3  2  0
  4  2  1  0
  4  5  1  0
  6  5  1  0
  6  7  1  6
  8  6  1  0
  9  8  2  0
 12 11  1  6
 11 10  1  0
 12 13  1  0
 13  8  1  0
 14 21  1  0
 14 12  1  0
 15 14  2  0
 17 16  1  0
 18 17  2  0
 19 17  1  0
 20 19  1  1
 20 21  1  0
 22 20  1  0
 22 24  1  0
 23 22  2  0
M  END
$$$$
