QSN.pdb
     RDKit          3D

 24 23  0  0  1  0  0  0  0  0999 V2000
   12.7212  -12.2596  -15.7787 N   0  0  0  0  0  0  0  0  0  0  0  0
   13.9717  -11.7631  -15.2572 C   0  0  0  0  0  0  0  0  0  0  0  0
   13.8806  -11.1737  -14.1516 O   0  0  0  0  0  0  0  0  0  0  0  0
   15.2329  -11.9628  -16.0098 C   0  0  0  0  0  0  0  0  0  0  0  0
   16.4651  -11.5536  -15.2806 C   0  0  0  0  0  0  0  0  0  0  0  0
   17.7180  -11.7150  -16.0762 C   0  0  2  0  0  0  0  0  0  0  0  0
   17.9894  -13.1497  -16.1806 N   0  0  0  0  0  0  0  0  0  0  0  0
   18.8896  -11.0702  -15.4506 C   0  0  0  0  0  0  0  0  0  0  0  0
   19.4768  -11.6437  -14.5026 O   0  0  0  0  0  0  0  0  0  0  0  0
   21.5538   -9.1859  -17.4110 O   0  0  0  0  0  0  0  0  0  0  0  0
   21.7504   -9.5330  -16.0811 C   0  0  0  0  0  0  0  0  0  0  0  0
   20.5291   -9.1425  -15.2363 C   0  0  2  0  0  0  0  0  0  0  0  0
   19.4074   -9.8157  -15.8599 N   0  0  0  0  0  0  0  0  0  0  0  0
   20.4167   -7.6671  -15.3412 C   0  0  0  0  0  0  0  0  0  0  0  0
   19.5755   -7.1085  -16.0935 O   0  0  0  0  0  0  0  0  0  0  0  0
   21.0243   -2.5317  -14.5096 N   0  0  0  0  0  0  0  0  0  0  0  0
   19.9498   -3.3764  -14.1785 C   0  0  0  0  0  0  0  0  0  0  0  0
   18.8682   -2.8346  -13.7957 O   0  0  0  0  0  0  0  0  0  0  0  0
   19.9724   -4.8396  -14.2384 C   0  0  0  0  0  0  0  0  0  0  0  0
   21.2996   -5.4177  -14.6309 C   0  0  2  0  0  0  0  0  0  0  0  0
   21.2783   -6.8690  -14.5757 N   0  0  0  0  0  0  0  0  0  0  0  0
   22.4199   -4.9339  -13.7959 C   0  0  0  0  0  0  0  0  0  0  0  0
   22.6512   -5.4164  -12.6482 O   0  0  0  0  0  0  0  0  0  0  0  0
   23.2678   -3.9282  -14.2346 O   0  0  0  0  0  0  0  0  0  0  0  0
  1  2  1  0
  2  3  2  0
  4  2  1  0
  4  5  1  0
  6  5  1  0
  6  7  1  1
  8  6  1  0
  9  8  2  0
 12 11  1  6
 11 10  1  0
 12 13  1  0
 13  8  1  0
 14 21  1  0
 14 12  1  0
 15 14  2  0
 17 16  1  0
 18 17  2  0
 19 17  1  0
 20 19  1  1
 20 21  1  0
 22 20  1  0
 22 24  1  0
 23 22  2  0
M  END
$$$$
