QSN.pdb
     RDKit          3D

 24 23  0  0  1  0  0  0  0  0999 V2000
   15.8800  -14.2427  -14.6111 N   0  0  0  0  0  0  0  0  0  0  0  0
   16.5336  -14.2970  -15.8963 C   0  0  0  0  0  0  0  0  0  0  0  0
   16.6191  -15.4481  -16.3919 O   0  0  0  0  0  0  0  0  0  0  0  0
   17.0429  -13.0597  -16.5340 C   0  0  0  0  0  0  0  0  0  0  0  0
   17.9739  -12.2612  -15.6894 C   0  0  0  0  0  0  0  0  0  0  0  0
   18.5692  -11.0867  -16.3931 C   0  0  2  0  0  0  0  0  0  0  0  0
   19.5093  -11.6028  -17.3895 N   0  0  0  0  0  0  0  0  0  0  0  0
   19.3079  -10.1825  -15.4896 C   0  0  0  0  0  0  0  0  0  0  0  0
   18.7153   -9.6676  -14.5117 O   0  0  0  0  0  0  0  0  0  0  0  0
   23.0915   -8.9644  -16.5270 O   0  0  0  0  0  0  0  0  0  0  0  0
   22.8906   -9.1628  -15.1676 C   0  0  0  0  0  0  0  0  0  0  0  0
   21.4152   -8.9422  -14.8034 C   0  0  2  0  0  0  0  0  0  0  0  0
   20.6754   -9.8494  -15.6578 N   0  0  0  0  0  0  0  0  0  0  0  0
   21.1254   -7.5226  -15.1213 C   0  0  0  0  0  0  0  0  0  0  0  0
   20.6696   -7.1632  -16.2387 O   0  0  0  0  0  0  0  0  0  0  0  0
   20.3415   -2.7443  -15.7778 N   0  0  0  0  0  0  0  0  0  0  0  0
   19.4458   -3.4921  -14.9929 C   0  0  0  0  0  0  0  0  0  0  0  0
   18.2419   -3.0961  -14.9304 O   0  0  0  0  0  0  0  0  0  0  0  0
   19.7861   -4.6987  -14.2356 C   0  0  0  0  0  0  0  0  0  0  0  0
   21.2192   -5.1216  -14.3660 C   0  0  2  0  0  0  0  0  0  0  0  0
   21.3687   -6.5490  -14.1424 N   0  0  0  0  0  0  0  0  0  0  0  0
   22.1279   -4.4059  -13.4450 C   0  0  0  0  0  0  0  0  0  0  0  0
   22.4661   -4.8974  -12.3281 O   0  0  0  0  0  0  0  0  0  0  0  0
   22.6503   -3.1619  -13.7654 O   0  0  0  0  0  0  0  0  0  0  0  0
  1  2  1  0
  2  3  2  0
  4  2  1  0
  4  5  1  0
  6  5  1  0
  6  7  1  6
  8  6  1  0
  9  8  2  0
 12 11  1  6
 11 10  1  0
 12 13  1  0
 13  8  1  0
 14 21  1  0
 14 12  1  0
 15 14  2  0
 17 16  1  0
 18 17  2  0
 19 17  1  0
 20 19  1  1
 20 21  1  0
 22 20  1  0
 22 24  1  0
 23 22  2  0
M  END
$$$$
