QSN.pdb
     RDKit          3D

 24 23  0  0  1  0  0  0  0  0999 V2000
   17.7055  -13.8125  -14.5423 N   0  0  0  0  0  0  0  0  0  0  0  0
   16.9309  -14.1012  -15.7249 C   0  0  0  0  0  0  0  0  0  0  0  0
   15.7360  -14.4194  -15.5032 O   0  0  0  0  0  0  0  0  0  0  0  0
   17.5487  -14.0119  -17.0692 C   0  0  0  0  0  0  0  0  0  0  0  0
   18.9759  -13.5866  -17.0720 C   0  0  0  0  0  0  0  0  0  0  0  0
   19.2138  -12.2787  -17.7516 C   0  0  2  0  0  0  0  0  0  0  0  0
   19.5579  -12.5652  -19.1454 N   0  0  0  0  0  0  0  0  0  0  0  0
   20.3218  -11.5076  -17.1540 C   0  0  0  0  0  0  0  0  0  0  0  0
   20.2948  -11.2354  -15.9302 O   0  0  0  0  0  0  0  0  0  0  0  0
   24.3358  -11.2501  -18.4648 O   0  0  0  0  0  0  0  0  0  0  0  0
   23.5434  -10.1100  -18.4630 C   0  0  0  0  0  0  0  0  0  0  0  0
   22.4848  -10.1916  -17.3536 C   0  0  2  0  0  0  0  0  0  0  0  0
   21.4413  -11.0430  -17.8891 N   0  0  0  0  0  0  0  0  0  0  0  0
   22.0105   -8.8024  -17.1408 C   0  0  0  0  0  0  0  0  0  0  0  0
   21.1422   -8.2675  -17.8796 O   0  0  0  0  0  0  0  0  0  0  0  0
   22.5641   -4.2095  -13.3412 N   0  0  0  0  0  0  0  0  0  0  0  0
   21.6584   -5.1102  -13.9295 C   0  0  0  0  0  0  0  0  0  0  0  0
   20.4780   -4.7010  -14.1519 O   0  0  0  0  0  0  0  0  0  0  0  0
   21.9634   -6.4910  -14.3109 C   0  0  0  0  0  0  0  0  0  0  0  0
   22.1789   -6.6883  -15.7821 C   0  0  2  0  0  0  0  0  0  0  0  0
   22.5492   -8.0608  -16.0800 N   0  0  0  0  0  0  0  0  0  0  0  0
   23.2092   -5.7920  -16.3492 C   0  0  0  0  0  0  0  0  0  0  0  0
   22.9199   -4.6411  -16.7912 O   0  0  0  0  0  0  0  0  0  0  0  0
   24.5402   -6.1741  -16.4218 O   0  0  0  0  0  0  0  0  0  0  0  0
  1  2  1  0
  2  3  2  0
  4  2  1  0
  4  5  1  0
  6  5  1  0
  6  7  1  6
  8  6  1  0
  9  8  2  0
 12 11  1  6
 11 10  1  0
 12 13  1  0
 13  8  1  0
 14 21  1  0
 14 12  1  0
 15 14  2  0
 17 16  1  0
 18 17  2  0
 19 17  1  0
 20 19  1  1
 20 21  1  0
 22 20  1  0
 22 24  1  0
 23 22  2  0
M  END
$$$$
