QSN.pdb
     RDKit          3D

 24 23  0  0  1  0  0  0  0  0999 V2000
   12.6438  -13.2299  -14.8939 N   0  0  0  0  0  0  0  0  0  0  0  0
   13.1209  -14.3634  -15.6485 C   0  0  0  0  0  0  0  0  0  0  0  0
   12.2537  -15.2434  -15.8759 O   0  0  0  0  0  0  0  0  0  0  0  0
   14.5329  -14.4298  -16.0945 C   0  0  0  0  0  0  0  0  0  0  0  0
   15.3897  -13.3082  -15.6194 C   0  0  0  0  0  0  0  0  0  0  0  0
   16.8246  -13.4384  -16.0104 C   0  0  2  0  0  0  0  0  0  0  0  0
   17.3416  -14.6553  -15.3819 N   0  0  0  0  0  0  0  0  0  0  0  0
   17.6535  -12.3020  -15.5619 C   0  0  0  0  0  0  0  0  0  0  0  0
   17.6746  -11.9952  -14.3462 O   0  0  0  0  0  0  0  0  0  0  0  0
   21.5548   -9.6907  -16.2092 O   0  0  0  0  0  0  0  0  0  0  0  0
   20.6572  -10.6763  -16.5972 C   0  0  0  0  0  0  0  0  0  0  0  0
   19.2625  -10.3915  -16.0215 C   0  0  2  0  0  0  0  0  0  0  0  0
   18.4463  -11.5154  -16.4350 N   0  0  0  0  0  0  0  0  0  0  0  0
   18.8151   -9.1232  -16.6473 C   0  0  0  0  0  0  0  0  0  0  0  0
   18.3601   -9.0759  -17.8204 O   0  0  0  0  0  0  0  0  0  0  0  0
   17.6726   -3.9313  -17.0503 N   0  0  0  0  0  0  0  0  0  0  0  0
   17.1945   -4.5895  -15.9032 C   0  0  0  0  0  0  0  0  0  0  0  0
   16.3630   -3.9717  -15.1705 O   0  0  0  0  0  0  0  0  0  0  0  0
   17.5768   -5.9382  -15.4788 C   0  0  0  0  0  0  0  0  0  0  0  0
   18.5199   -6.6325  -16.4159 C   0  0  2  0  0  0  0  0  0  0  0  0
   18.9034   -7.9371  -15.9051 N   0  0  0  0  0  0  0  0  0  0  0  0
   19.7490   -5.8580  -16.6914 C   0  0  0  0  0  0  0  0  0  0  0  0
   20.6688   -5.7402  -15.8291 O   0  0  0  0  0  0  0  0  0  0  0  0
   19.9478   -5.2251  -17.9091 O   0  0  0  0  0  0  0  0  0  0  0  0
  1  2  1  0
  2  3  2  0
  4  2  1  0
  4  5  1  0
  6  5  1  0
  6  7  1  1
  8  6  1  0
  9  8  2  0
 12 11  1  6
 11 10  1  0
 12 13  1  0
 13  8  1  0
 14 21  1  0
 14 12  1  0
 15 14  2  0
 17 16  1  0
 18 17  2  0
 19 17  1  0
 20 19  1  1
 20 21  1  0
 22 20  1  0
 22 24  1  0
 23 22  2  0
M  END
$$$$
