QSN.pdb
     RDKit          3D

 24 23  0  0  1  0  0  0  0  0999 V2000
   18.8613  -16.0943  -15.0224 N   0  0  0  0  0  0  0  0  0  0  0  0
   17.6303  -15.7882  -15.7102 C   0  0  0  0  0  0  0  0  0  0  0  0
   16.8676  -16.7717  -15.8809 O   0  0  0  0  0  0  0  0  0  0  0  0
   17.3417  -14.4044  -16.1559 C   0  0  0  0  0  0  0  0  0  0  0  0
   18.4307  -13.4242  -15.8896 C   0  0  0  0  0  0  0  0  0  0  0  0
   18.1654  -12.0633  -16.4433 C   0  0  2  0  0  0  0  0  0  0  0  0
   18.1946  -12.1705  -17.9030 N   0  0  0  0  0  0  0  0  0  0  0  0
   19.1734  -11.0646  -16.0359 C   0  0  0  0  0  0  0  0  0  0  0  0
   19.3698  -10.8478  -14.8165 O   0  0  0  0  0  0  0  0  0  0  0  0
   23.1002   -8.6302  -17.4989 O   0  0  0  0  0  0  0  0  0  0  0  0
   22.0002   -9.4359  -17.7609 C   0  0  0  0  0  0  0  0  0  0  0  0
   21.0174   -9.4056  -16.5815 C   0  0  2  0  0  0  0  0  0  0  0  0
   19.9530  -10.3162  -16.9533 N   0  0  0  0  0  0  0  0  0  0  0  0
   20.5390   -8.0048  -16.4862 C   0  0  0  0  0  0  0  0  0  0  0  0
   19.7360   -7.5101  -17.3206 O   0  0  0  0  0  0  0  0  0  0  0  0
   22.9182   -4.6831  -13.1413 N   0  0  0  0  0  0  0  0  0  0  0  0
   21.8566   -5.6042  -13.0937 C   0  0  0  0  0  0  0  0  0  0  0  0
   22.0135   -6.6515  -12.3948 O   0  0  0  0  0  0  0  0  0  0  0  0
   20.5749   -5.4568  -13.7870 C   0  0  0  0  0  0  0  0  0  0  0  0
   20.6193   -5.8160  -15.2426 C   0  0  2  0  0  0  0  0  0  0  0  0
   20.9985   -7.2055  -15.4301 N   0  0  0  0  0  0  0  0  0  0  0  0
   21.5425   -4.9689  -16.0277 C   0  0  0  0  0  0  0  0  0  0  0  0
   21.3768   -3.7174  -16.1257 O   0  0  0  0  0  0  0  0  0  0  0  0
   22.6325   -5.5100  -16.6927 O   0  0  0  0  0  0  0  0  0  0  0  0
  1  2  1  0
  2  3  2  0
  4  2  1  0
  4  5  1  0
  6  5  1  0
  6  7  1  6
  8  6  1  0
  9  8  2  0
 12 11  1  6
 11 10  1  0
 12 13  1  0
 13  8  1  0
 14 21  1  0
 14 12  1  0
 15 14  2  0
 17 16  1  0
 18 17  2  0
 19 17  1  0
 20 19  1  1
 20 21  1  0
 22 20  1  0
 22 24  1  0
 23 22  2  0
M  END
$$$$
