QSN.pdb
     RDKit          3D

 24 23  0  0  1  0  0  0  0  0999 V2000
   27.5487  -24.8062  -19.0256 N   0  0  0  0  0  0  0  0  0  0  0  0
   26.5514  -24.4169  -18.0581 C   0  0  0  0  0  0  0  0  0  0  0  0
   25.4533  -24.0599  -18.5530 O   0  0  0  0  0  0  0  0  0  0  0  0
   26.8546  -24.4562  -16.6078 C   0  0  0  0  0  0  0  0  0  0  0  0
   26.2129  -23.3766  -15.8076 C   0  0  0  0  0  0  0  0  0  0  0  0
   26.4434  -22.0053  -16.3512 C   0  0  2  0  0  0  0  0  0  0  0  0
   27.8400  -21.6569  -16.0842 N   0  0  0  0  0  0  0  0  0  0  0  0
   25.5862  -20.9806  -15.7229 C   0  0  0  0  0  0  0  0  0  0  0  0
   25.9297  -20.4752  -14.6279 O   0  0  0  0  0  0  0  0  0  0  0  0
   24.5028  -17.7187  -17.1223 O   0  0  0  0  0  0  0  0  0  0  0  0
   23.3545  -18.4689  -16.9074 C   0  0  0  0  0  0  0  0  0  0  0  0
   23.5609  -19.4482  -15.7429 C   0  0  2  0  0  0  0  0  0  0  0  0
   24.3712  -20.5188  -16.2886 N   0  0  0  0  0  0  0  0  0  0  0  0
   22.2068  -19.9185  -15.3617 C   0  0  0  0  0  0  0  0  0  0  0  0
   21.5964  -20.8085  -16.0107 O   0  0  0  0  0  0  0  0  0  0  0  0
   19.5183  -22.1684  -12.2941 N   0  0  0  0  0  0  0  0  0  0  0  0
   19.9078  -21.0044  -11.6079 C   0  0  0  0  0  0  0  0  0  0  0  0
   19.9674  -21.0566  -10.3415 O   0  0  0  0  0  0  0  0  0  0  0  0
   20.2539  -19.7267  -12.2349 C   0  0  0  0  0  0  0  0  0  0  0  0
   20.2907  -19.7683  -13.7337 C   0  0  2  0  0  0  0  0  0  0  0  0
   21.5866  -19.3509  -14.2399 N   0  0  0  0  0  0  0  0  0  0  0  0
   19.2489  -18.9334  -14.3693 C   0  0  0  0  0  0  0  0  0  0  0  0
   19.4765  -17.7384  -14.7209 O   0  0  0  0  0  0  0  0  0  0  0  0
   17.9741  -19.4241  -14.6080 O   0  0  0  0  0  0  0  0  0  0  0  0
  1  2  1  0
  2  3  2  0
  4  2  1  0
  4  5  1  0
  6  5  1  0
  6  7  1  1
  8  6  1  0
  9  8  2  0
 12 11  1  6
 11 10  1  0
 12 13  1  0
 13  8  1  0
 14 21  1  0
 14 12  1  0
 15 14  2  0
 17 16  1  0
 18 17  2  0
 19 17  1  0
 20 19  1  1
 20 21  1  0
 22 20  1  0
 22 24  1  0
 23 22  2  0
M  END
$$$$
