QSN.pdb
     RDKit          3D

 24 23  0  0  1  0  0  0  0  0999 V2000
   24.5639  -20.4842   -6.9488 N   0  0  0  0  0  0  0  0  0  0  0  0
   23.5752  -21.4111   -7.4442 C   0  0  0  0  0  0  0  0  0  0  0  0
   22.6010  -21.5985   -6.6736 O   0  0  0  0  0  0  0  0  0  0  0  0
   23.7478  -22.0599   -8.7656 C   0  0  0  0  0  0  0  0  0  0  0  0
   25.0067  -21.7017   -9.4759 C   0  0  0  0  0  0  0  0  0  0  0  0
   24.8669  -20.5380  -10.4006 C   0  0  2  0  0  0  0  0  0  0  0  0
   23.7228  -20.8065  -11.2734 N   0  0  0  0  0  0  0  0  0  0  0  0
   26.0547  -20.3275  -11.2518 C   0  0  0  0  0  0  0  0  0  0  0  0
   27.1961  -20.5590  -10.7870 O   0  0  0  0  0  0  0  0  0  0  0  0
   26.9669  -21.7052  -14.5371 O   0  0  0  0  0  0  0  0  0  0  0  0
   27.7821  -20.9480  -13.7066 C   0  0  0  0  0  0  0  0  0  0  0  0
   27.1412  -19.5817  -13.4229 C   0  0  2  0  0  0  0  0  0  0  0  0
   25.9893  -19.8701  -12.5920 N   0  0  0  0  0  0  0  0  0  0  0  0
   26.7472  -19.0347  -14.7442 C   0  0  0  0  0  0  0  0  0  0  0  0
   25.6007  -19.2161  -15.2324 O   0  0  0  0  0  0  0  0  0  0  0  0
   27.0358  -15.9311  -19.0640 N   0  0  0  0  0  0  0  0  0  0  0  0
   28.1397  -15.7559  -18.2106 C   0  0  0  0  0  0  0  0  0  0  0  0
   28.9631  -14.8322  -18.4912 O   0  0  0  0  0  0  0  0  0  0  0  0
   28.4223  -16.5543  -17.0157 C   0  0  0  0  0  0  0  0  0  0  0  0
   27.3782  -17.5854  -16.7051 C   0  0  2  0  0  0  0  0  0  0  0  0
   27.6855  -18.2907  -15.4731 N   0  0  0  0  0  0  0  0  0  0  0  0
   27.1994  -18.5819  -17.7828 C   0  0  0  0  0  0  0  0  0  0  0  0
   28.0796  -19.4573  -18.0326 O   0  0  0  0  0  0  0  0  0  0  0  0
   26.0571  -18.6008  -18.5688 O   0  0  0  0  0  0  0  0  0  0  0  0
  1  2  1  0
  2  3  2  0
  4  2  1  0
  4  5  1  0
  6  5  1  0
  6  7  1  6
  8  6  1  0
  9  8  2  0
 12 11  1  6
 11 10  1  0
 12 13  1  0
 13  8  1  0
 14 21  1  0
 14 12  1  0
 15 14  2  0
 17 16  1  0
 18 17  2  0
 19 17  1  0
 20 19  1  6
 20 21  1  0
 22 20  1  0
 22 24  1  0
 23 22  2  0
M  END
$$$$
