QSN.pdb
     RDKit          3D

 24 23  0  0  1  0  0  0  0  0999 V2000
   28.8488  -20.6743  -22.6088 N   0  0  0  0  0  0  0  0  0  0  0  0
   28.5386  -19.2836  -22.3815 C   0  0  0  0  0  0  0  0  0  0  0  0
   27.6957  -18.7986  -23.1766 O   0  0  0  0  0  0  0  0  0  0  0  0
   29.1931  -18.5370  -21.2810 C   0  0  0  0  0  0  0  0  0  0  0  0
   28.2828  -18.1356  -20.1728 C   0  0  0  0  0  0  0  0  0  0  0  0
   28.9119  -18.2058  -18.8207 C   0  0  2  0  0  0  0  0  0  0  0  0
   29.4716  -19.5497  -18.6667 N   0  0  0  0  0  0  0  0  0  0  0  0
   27.9522  -17.9792  -17.7219 C   0  0  0  0  0  0  0  0  0  0  0  0
   27.7604  -18.8826  -16.8737 O   0  0  0  0  0  0  0  0  0  0  0  0
   25.7757  -14.5375  -17.7115 O   0  0  0  0  0  0  0  0  0  0  0  0
   26.1708  -14.9627  -16.4502 C   0  0  0  0  0  0  0  0  0  0  0  0
   26.3550  -16.4870  -16.4288 C   0  0  2  0  0  0  0  0  0  0  0  0
   27.2152  -16.7795  -17.5579 N   0  0  0  0  0  0  0  0  0  0  0  0
   24.9992  -17.0632  -16.6024 C   0  0  0  0  0  0  0  0  0  0  0  0
   24.5401  -17.3737  -17.7330 O   0  0  0  0  0  0  0  0  0  0  0  0
   20.2774  -19.1007  -15.1419 N   0  0  0  0  0  0  0  0  0  0  0  0
   21.1784  -19.0049  -14.0664 C   0  0  0  0  0  0  0  0  0  0  0  0
   20.8225  -19.4956  -12.9517 O   0  0  0  0  0  0  0  0  0  0  0  0
   22.5030  -18.3827  -14.1234 C   0  0  0  0  0  0  0  0  0  0  0  0
   22.9096  -17.9284  -15.4938 C   0  0  2  0  0  0  0  0  0  0  0  0
   24.2030  -17.2679  -15.4668 N   0  0  0  0  0  0  0  0  0  0  0  0
   21.9311  -17.0158  -16.1233 C   0  0  0  0  0  0  0  0  0  0  0  0
   21.9554  -15.7672  -15.9143 O   0  0  0  0  0  0  0  0  0  0  0  0
   20.9419  -17.4894  -16.9719 O   0  0  0  0  0  0  0  0  0  0  0  0
  1  2  1  0
  2  3  2  0
  4  2  1  0
  4  5  1  0
  6  5  1  0
  6  7  1  1
  8  6  1  0
  9  8  2  0
 12 11  1  6
 11 10  1  0
 12 13  1  0
 13  8  1  0
 14 21  1  0
 14 12  1  0
 15 14  2  0
 17 16  1  0
 18 17  2  0
 19 17  1  0
 20 19  1  1
 20 21  1  0
 22 20  1  0
 22 24  1  0
 23 22  2  0
M  END
$$$$
