DLL.pdb
     RDKit          3D

 25 24  0  0  1  0  0  0  0  0999 V2000
    9.5856  -18.9710   20.6750 N   0  0  0  0  0  0  0  0  0  0  0  0
   10.8599  -18.2823   20.6621 C   0  0  1  0  0  0  0  0  0  0  0  0
   11.3071  -18.2219   19.2072 C   0  0  0  0  0  0  0  0  0  0  0  0
   11.8142  -19.5655   18.8246 C   0  0  0  0  0  0  0  0  0  0  0  0
   12.0595  -20.3730   19.7387 O   0  0  0  0  0  0  0  0  0  0  0  0
   10.7350  -16.8722   21.1368 C   0  0  0  0  0  0  0  0  0  0  0  0
   11.7545  -16.1714   21.1783 O   0  0  0  0  0  0  0  0  0  0  0  0
   12.0161  -19.9325   17.4986 O   0  0  0  0  0  0  0  0  0  0  0  0
    6.6051  -12.7592   20.4648 C   0  0  0  0  0  0  0  0  0  0  0  0
    7.9287  -13.3618   20.7131 C   0  0  2  0  0  0  0  0  0  0  0  0
    8.5031  -13.8764   19.4095 C   0  0  0  0  0  0  0  0  0  0  0  0
    7.9693  -14.4313   21.7598 C   0  0  0  0  0  0  0  0  0  0  0  0
    9.2999  -15.0228   22.0133 C   0  0  2  0  0  0  0  0  0  0  0  0
    9.4933  -16.3440   21.5295 N   0  0  0  0  0  0  0  0  0  0  0  0
    9.5578  -14.9753   23.4871 C   0  0  0  0  0  0  0  0  0  0  0  0
   10.7062  -14.6673   23.8738 O   0  0  0  0  0  0  0  0  0  0  0  0
    6.5964  -12.2906   26.8002 C   0  0  0  0  0  0  0  0  0  0  0  0
    7.8086  -12.9932   26.2834 C   0  0  1  0  0  0  0  0  0  0  0  0
    9.0554  -12.2416   26.7517 C   0  0  0  0  0  0  0  0  0  0  0  0
    7.8841  -14.4325   26.5259 C   0  0  0  0  0  0  0  0  0  0  0  0
    8.8915  -15.3043   25.9150 C   0  0  2  0  0  0  0  0  0  0  0  0
    8.5647  -15.2617   24.4515 N   0  0  0  0  0  0  0  0  0  0  0  0
    8.8605  -16.7226   26.3041 C   0  0  0  0  0  0  0  0  0  0  0  0
    9.3688  -17.1385   27.5584 O   0  0  0  0  0  0  0  0  0  0  0  0
    8.4094  -17.6557   25.6105 O   0  0  0  0  0  0  0  0  0  0  0  0
  2  1  1  6
  2  3  1  0
  3  4  1  0
  4  8  1  0
  5  4  2  0
  6 14  1  0
  6  2  1  0
  7  6  2  0
 10  9  1  6
 10 12  1  0
 11 10  1  0
 13 12  1  1
 13 14  1  0
 15 16  2  0
 15 13  1  0
 18 17  1  1
 18 19  1  0
 21 20  1  1
 20 18  1  0
 21 22  1  0
 22 15  1  0
 23 21  1  0
 24 23  1  0
 25 23  2  0
M  END
$$$$
