DLL.pdb
     RDKit          3D

 25 24  0  0  1  0  0  0  0  0999 V2000
    9.8421  -18.4490   20.8873 N   0  0  0  0  0  0  0  0  0  0  0  0
   10.9831  -17.7229   21.4061 C   0  0  1  0  0  0  0  0  0  0  0  0
   11.9685  -17.5799   20.2534 C   0  0  0  0  0  0  0  0  0  0  0  0
   12.4535  -18.9370   19.8904 C   0  0  0  0  0  0  0  0  0  0  0  0
   11.9203  -19.9110   20.4514 O   0  0  0  0  0  0  0  0  0  0  0  0
   10.6145  -16.3414   21.8363 C   0  0  0  0  0  0  0  0  0  0  0  0
   11.5214  -15.5611   22.1540 O   0  0  0  0  0  0  0  0  0  0  0  0
   13.4665  -19.1387   18.9593 O   0  0  0  0  0  0  0  0  0  0  0  0
    8.8301  -12.9567   19.6023 C   0  0  0  0  0  0  0  0  0  0  0  0
    7.8054  -13.9355   20.0130 C   0  0  2  0  0  0  0  0  0  0  0  0
    6.4772  -13.5727   19.3819 C   0  0  0  0  0  0  0  0  0  0  0  0
    7.6465  -14.1287   21.4890 C   0  0  0  0  0  0  0  0  0  0  0  0
    8.8494  -14.6096   22.2006 C   0  0  2  0  0  0  0  0  0  0  0  0
    9.2724  -15.9275   21.8825 N   0  0  0  0  0  0  0  0  0  0  0  0
    8.5976  -14.4947   23.6718 C   0  0  0  0  0  0  0  0  0  0  0  0
    7.7546  -13.6572   24.0608 O   0  0  0  0  0  0  0  0  0  0  0  0
    6.1078  -12.5096   26.1647 C   0  0  0  0  0  0  0  0  0  0  0  0
    7.5003  -13.0455   26.1019 C   0  0  1  0  0  0  0  0  0  0  0  0
    8.3471  -12.3540   27.1712 C   0  0  0  0  0  0  0  0  0  0  0  0
    7.6429  -14.5000   26.1120 C   0  0  0  0  0  0  0  0  0  0  0  0
    8.9376  -15.1864   26.0911 C   0  0  2  0  0  0  0  0  0  0  0  0
    9.2679  -15.2876   24.6312 N   0  0  0  0  0  0  0  0  0  0  0  0
    8.9654  -16.5599   26.6170 C   0  0  0  0  0  0  0  0  0  0  0  0
    9.3831  -16.8162   27.9453 O   0  0  0  0  0  0  0  0  0  0  0  0
    8.6426  -17.5856   25.9852 O   0  0  0  0  0  0  0  0  0  0  0  0
  2  1  1  6
  2  3  1  0
  3  4  1  0
  4  8  1  0
  5  4  2  0
  6 14  1  0
  6  2  1  0
  7  6  2  0
 10  9  1  1
 10 12  1  0
 11 10  1  0
 13 12  1  6
 13 14  1  0
 15 16  2  0
 15 13  1  0
 18 17  1  1
 18 19  1  0
 21 20  1  6
 20 18  1  0
 21 22  1  0
 22 15  1  0
 23 21  1  0
 24 23  1  0
 25 23  2  0
M  END
$$$$
