DLL.pdb
     RDKit          3D

 25 24  0  0  1  0  0  0  0  0999 V2000
    7.4108  -18.2541   21.7792 N   0  0  0  0  0  0  0  0  0  0  0  0
    8.6817  -17.6534   21.4295 C   0  0  1  0  0  0  0  0  0  0  0  0
    8.6035  -17.3005   19.9498 C   0  0  0  0  0  0  0  0  0  0  0  0
    9.9633  -17.4480   19.3682 C   0  0  0  0  0  0  0  0  0  0  0  0
   10.8279  -18.0194   20.0564 O   0  0  0  0  0  0  0  0  0  0  0  0
    8.9159  -16.3773   22.1685 C   0  0  0  0  0  0  0  0  0  0  0  0
    9.9271  -15.7164   21.8981 O   0  0  0  0  0  0  0  0  0  0  0  0
   10.2841  -16.9728   18.1013 O   0  0  0  0  0  0  0  0  0  0  0  0
    6.0626  -12.5507   26.2321 C   0  0  0  0  0  0  0  0  0  0  0  0
    7.1863  -12.9642   25.3700 C   0  0  2  0  0  0  0  0  0  0  0  0
    7.4932  -11.8634   24.3760 C   0  0  0  0  0  0  0  0  0  0  0  0
    7.0152  -14.2728   24.6633 C   0  0  0  0  0  0  0  0  0  0  0  0
    8.2087  -14.7694   23.9467 C   0  0  2  0  0  0  0  0  0  0  0  0
    8.0153  -15.9288   23.1496 N   0  0  0  0  0  0  0  0  0  0  0  0
    9.2882  -15.0160   24.9542 C   0  0  0  0  0  0  0  0  0  0  0  0
   10.1664  -14.1384   25.1021 O   0  0  0  0  0  0  0  0  0  0  0  0
    9.1375  -14.0672   29.5642 C   0  0  0  0  0  0  0  0  0  0  0  0
    9.7378  -14.4378   28.2480 C   0  0  1  0  0  0  0  0  0  0  0  0
   11.0242  -13.6360   28.0456 C   0  0  0  0  0  0  0  0  0  0  0  0
    9.9067  -15.8654   27.9844 C   0  0  0  0  0  0  0  0  0  0  0  0
   10.4569  -16.3982   26.7348 C   0  0  2  0  0  0  0  0  0  0  0  0
    9.3547  -16.1901   25.7386 N   0  0  0  0  0  0  0  0  0  0  0  0
   10.7695  -17.8353   26.7108 C   0  0  0  0  0  0  0  0  0  0  0  0
   10.0047  -18.7276   25.9211 O   0  0  0  0  0  0  0  0  0  0  0  0
   11.6884  -18.3889   27.3468 O   0  0  0  0  0  0  0  0  0  0  0  0
  2  1  1  1
  2  3  1  0
  3  4  1  0
  4  8  1  0
  5  4  2  0
  6 14  1  0
  6  2  1  0
  7  6  2  0
 10  9  1  6
 10 12  1  0
 11 10  1  0
 13 12  1  1
 13 14  1  0
 15 16  2  0
 15 13  1  0
 18 17  1  1
 18 19  1  0
 21 20  1  1
 20 18  1  0
 21 22  1  0
 22 15  1  0
 23 21  1  0
 24 23  1  0
 25 23  2  0
M  END
$$$$
