DLL.pdb
     RDKit          3D

 25 24  0  0  1  0  0  0  0  0999 V2000
    9.0441  -18.7408   20.7379 N   0  0  0  0  0  0  0  0  0  0  0  0
   10.3780  -18.1948   20.5929 C   0  0  1  0  0  0  0  0  0  0  0  0
   10.6784  -18.1708   19.0998 C   0  0  0  0  0  0  0  0  0  0  0  0
   11.1920  -19.5102   18.7112 C   0  0  0  0  0  0  0  0  0  0  0  0
   11.1853  -20.4052   19.5753 O   0  0  0  0  0  0  0  0  0  0  0  0
   10.4568  -16.7837   21.0744 C   0  0  0  0  0  0  0  0  0  0  0  0
   11.5615  -16.2254   21.0859 O   0  0  0  0  0  0  0  0  0  0  0  0
   11.6691  -19.7800   17.4332 O   0  0  0  0  0  0  0  0  0  0  0  0
    8.7762  -13.0156   19.4533 C   0  0  0  0  0  0  0  0  0  0  0  0
    7.7842  -13.7891   20.2242 C   0  0  2  0  0  0  0  0  0  0  0  0
    6.4124  -13.1720   20.0468 C   0  0  0  0  0  0  0  0  0  0  0  0
    8.0904  -13.9714   21.6782 C   0  0  0  0  0  0  0  0  0  0  0  0
    9.3054  -14.7577   21.9785 C   0  0  2  0  0  0  0  0  0  0  0  0
    9.3092  -16.0972   21.5065 N   0  0  0  0  0  0  0  0  0  0  0  0
    9.5194  -14.7371   23.4599 C   0  0  0  0  0  0  0  0  0  0  0  0
   10.4890  -14.0854   23.9053 O   0  0  0  0  0  0  0  0  0  0  0  0
    6.0699  -12.6679   26.3913 C   0  0  0  0  0  0  0  0  0  0  0  0
    7.4191  -13.1865   26.0158 C   0  0  1  0  0  0  0  0  0  0  0  0
    8.4862  -12.2430   26.5723 C   0  0  0  0  0  0  0  0  0  0  0  0
    7.6866  -14.5919   26.3149 C   0  0  0  0  0  0  0  0  0  0  0  0
    8.8797  -15.3053   25.8505 C   0  0  2  0  0  0  0  0  0  0  0  0
    8.6774  -15.4184   24.3684 N   0  0  0  0  0  0  0  0  0  0  0  0
    9.0641  -16.6772   26.3481 C   0  0  0  0  0  0  0  0  0  0  0  0
    9.1310  -17.7686   25.4488 O   0  0  0  0  0  0  0  0  0  0  0  0
    9.1747  -17.0060   27.5461 O   0  0  0  0  0  0  0  0  0  0  0  0
  2  1  1  6
  2  3  1  0
  3  4  1  0
  4  8  1  0
  5  4  2  0
  6 14  1  0
  6  2  1  0
  7  6  2  0
 10  9  1  1
 10 12  1  0
 11 10  1  0
 13 12  1  1
 13 14  1  0
 15 16  2  0
 15 13  1  0
 18 17  1  1
 18 19  1  0
 21 20  1  1
 20 18  1  0
 21 22  1  0
 22 15  1  0
 23 21  1  0
 24 23  1  0
 25 23  2  0
M  END
$$$$
