DLL.pdb
     RDKit          3D

 25 24  0  0  1  0  0  0  0  0999 V2000
    9.0596  -18.6717   20.9215 N   0  0  0  0  0  0  0  0  0  0  0  0
   10.4084  -18.1481   20.9921 C   0  0  1  0  0  0  0  0  0  0  0  0
   10.9928  -18.2608   19.5899 C   0  0  0  0  0  0  0  0  0  0  0  0
   11.3040  -19.6914   19.3338 C   0  0  0  0  0  0  0  0  0  0  0  0
   10.9813  -20.5185   20.2053 O   0  0  0  0  0  0  0  0  0  0  0  0
   10.4246  -16.6996   21.3541 C   0  0  0  0  0  0  0  0  0  0  0  0
   11.5172  -16.1223   21.4273 O   0  0  0  0  0  0  0  0  0  0  0  0
   11.9332  -20.1170   18.1690 O   0  0  0  0  0  0  0  0  0  0  0  0
    8.8302  -13.0150   19.4159 C   0  0  0  0  0  0  0  0  0  0  0  0
    7.7855  -13.7657   20.1383 C   0  0  2  0  0  0  0  0  0  0  0  0
    6.4283  -13.1679   19.8304 C   0  0  0  0  0  0  0  0  0  0  0  0
    7.9789  -13.8874   21.6178 C   0  0  0  0  0  0  0  0  0  0  0  0
    9.1721  -14.6491   22.0426 C   0  0  2  0  0  0  0  0  0  0  0  0
    9.2327  -15.9996   21.6074 N   0  0  0  0  0  0  0  0  0  0  0  0
    9.2558  -14.5891   23.5361 C   0  0  0  0  0  0  0  0  0  0  0  0
    9.7466  -13.5640   24.0571 O   0  0  0  0  0  0  0  0  0  0  0  0
    5.7360  -13.0738   26.1996 C   0  0  0  0  0  0  0  0  0  0  0  0
    7.1647  -13.4755   26.0332 C   0  0  1  0  0  0  0  0  0  0  0  0
    8.0322  -12.6177   26.9553 C   0  0  0  0  0  0  0  0  0  0  0  0
    7.4594  -14.9034   26.1363 C   0  0  0  0  0  0  0  0  0  0  0  0
    8.7800  -15.4787   25.8662 C   0  0  2  0  0  0  0  0  0  0  0  0
    8.8063  -15.6349   24.3744 N   0  0  0  0  0  0  0  0  0  0  0  0
    9.0460  -16.8127   26.4259 C   0  0  0  0  0  0  0  0  0  0  0  0
    9.3836  -16.9684   27.7921 O   0  0  0  0  0  0  0  0  0  0  0  0
    9.0049  -17.8867   25.7932 O   0  0  0  0  0  0  0  0  0  0  0  0
  2  1  1  6
  2  3  1  0
  3  4  1  0
  4  8  1  0
  5  4  2  0
  6 14  1  0
  6  2  1  0
  7  6  2  0
 10  9  1  1
 10 12  1  0
 11 10  1  0
 13 12  1  1
 13 14  1  0
 15 16  2  0
 15 13  1  0
 18 17  1  1
 18 19  1  0
 21 20  1  1
 20 18  1  0
 21 22  1  0
 22 15  1  0
 23 21  1  0
 24 23  1  0
 25 23  2  0
M  END
$$$$
