DLL.pdb
     RDKit          3D

 25 24  0  0  1  0  0  0  0  0999 V2000
    9.2855  -18.6265   20.9184 N   0  0  0  0  0  0  0  0  0  0  0  0
   10.5967  -18.0236   21.0434 C   0  0  1  0  0  0  0  0  0  0  0  0
   11.1962  -17.9919   19.6435 C   0  0  0  0  0  0  0  0  0  0  0  0
   11.4250  -19.3943   19.2080 C   0  0  0  0  0  0  0  0  0  0  0  0
   10.8068  -20.2936   19.8054 O   0  0  0  0  0  0  0  0  0  0  0  0
   10.5159  -16.6087   21.5133 C   0  0  0  0  0  0  0  0  0  0  0  0
   11.5707  -15.9971   21.7265 O   0  0  0  0  0  0  0  0  0  0  0  0
   12.2944  -19.7172   18.1718 O   0  0  0  0  0  0  0  0  0  0  0  0
    8.7348  -12.8341   19.6079 C   0  0  0  0  0  0  0  0  0  0  0  0
    7.7358  -13.7376   20.2100 C   0  0  2  0  0  0  0  0  0  0  0  0
    6.3426  -13.2465   19.8754 C   0  0  0  0  0  0  0  0  0  0  0  0
    7.8696  -13.9640   21.6837 C   0  0  0  0  0  0  0  0  0  0  0  0
    9.1194  -14.6248   22.1147 C   0  0  2  0  0  0  0  0  0  0  0  0
    9.2761  -15.9776   21.7118 N   0  0  0  0  0  0  0  0  0  0  0  0
    9.2110  -14.5216   23.6054 C   0  0  0  0  0  0  0  0  0  0  0  0
    9.6444  -13.4563   24.0958 O   0  0  0  0  0  0  0  0  0  0  0  0
    5.5927  -13.0955   26.0549 C   0  0  0  0  0  0  0  0  0  0  0  0
    7.0450  -13.4323   25.9680 C   0  0  1  0  0  0  0  0  0  0  0  0
    7.8309  -12.4768   26.8670 C   0  0  0  0  0  0  0  0  0  0  0  0
    7.4050  -14.8342   26.1710 C   0  0  0  0  0  0  0  0  0  0  0  0
    8.7556  -15.3619   25.9577 C   0  0  2  0  0  0  0  0  0  0  0  0
    8.8306  -15.5700   24.4739 N   0  0  0  0  0  0  0  0  0  0  0  0
    9.0611  -16.6625   26.5732 C   0  0  0  0  0  0  0  0  0  0  0  0
    9.4579  -17.7633   25.7760 O   0  0  0  0  0  0  0  0  0  0  0  0
    9.0061  -16.9193   27.7924 O   0  0  0  0  0  0  0  0  0  0  0  0
  2  1  1  6
  2  3  1  0
  3  4  1  0
  4  8  1  0
  5  4  2  0
  6 14  1  0
  6  2  1  0
  7  6  2  0
 10  9  1  1
 10 12  1  0
 11 10  1  0
 13 12  1  1
 13 14  1  0
 15 16  2  0
 15 13  1  0
 18 17  1  1
 18 19  1  0
 21 20  1  6
 20 18  1  0
 21 22  1  0
 22 15  1  0
 23 21  1  0
 24 23  1  0
 25 23  2  0
M  END
$$$$
