LHS.pdb
     RDKit          3D

 25 25  0  0  1  0  0  0  0  0999 V2000
    7.6073  -13.0204   18.9933 C   0  0  0  0  0  0  0  0  0  0  0  0
    7.2935  -13.3553   20.4480 C   0  0  2  0  0  0  0  0  0  0  0  0
    7.3923  -12.0784   21.2457 C   0  0  0  0  0  0  0  0  0  0  0  0
    8.1959  -14.4432   20.9632 C   0  0  0  0  0  0  0  0  0  0  0  0
    7.9872  -15.7040   20.1738 C   0  0  2  0  0  0  0  0  0  0  0  0
    6.6341  -16.1721   20.3270 N   0  0  0  0  0  0  0  0  0  0  0  0
    8.9126  -16.7690   20.6081 C   0  0  0  0  0  0  0  0  0  0  0  0
    8.6576  -17.4835   21.5763 O   0  0  0  0  0  0  0  0  0  0  0  0
   10.1245  -16.9646   19.8827 N   0  0  0  0  0  0  0  0  0  0  0  0
   11.1066  -17.9349   20.2440 C   0  0  1  0  0  0  0  0  0  0  0  0
   12.0664  -18.2155   19.1564 C   0  0  0  0  0  0  0  0  0  0  0  0
   11.5591  -18.9169   17.9667 C   0  0  0  0  0  0  0  0  0  0  0  0
   10.4884  -19.7503   17.8493 C   0  0  0  0  0  0  0  0  0  0  0  0
   10.3496  -20.1485   16.5535 N   0  0  0  0  0  0  0  0  0  0  0  0
   11.3313  -19.5618   15.8736 C   0  0  0  0  0  0  0  0  0  0  0  0
   12.0569  -18.8270   16.7022 N   0  0  0  0  0  0  0  0  0  0  0  0
   11.8012  -17.6064   21.5171 C   0  0  0  0  0  0  0  0  0  0  0  0
   12.2318  -16.4470   21.7418 O   0  0  0  0  0  0  0  0  0  0  0  0
   12.5777  -19.1114   26.0734 O   0  0  0  0  0  0  0  0  0  0  0  0
   12.0378  -19.2620   24.8171 C   0  0  0  0  0  0  0  0  0  0  0  0
   12.5964  -18.2366   23.8230 C   0  0  2  0  0  0  0  0  0  0  0  0
   12.0149  -18.5715   22.5381 N   0  0  0  0  0  0  0  0  0  0  0  0
   14.0605  -18.3487   23.8241 C   0  0  0  0  0  0  0  0  0  0  0  0
   14.7769  -17.8433   24.8940 O   0  0  0  0  0  0  0  0  0  0  0  0
   14.6994  -18.8872   22.8900 O   0  0  0  0  0  0  0  0  0  0  0  0
  2  1  1  6
  3  2  1  0
  4  5  1  0
  4  2  1  0
  5  6  1  1
  7  5  1  0
  7  8  2  0
  9  7  1  0
 10  9  1  0
 10 11  1  6
 12 16  1  0
 12 11  1  0
 13 12  2  0
 14 13  1  0
 14 15  1  0
 15 16  2  0
 17 10  1  0
 18 17  2  0
 20 19  1  0
 21 22  1  0
 21 20  1  1
 22 17  1  0
 23 21  1  0
 24 23  1  0
 25 23  2  0
M  END
$$$$
