LHS.pdb
     RDKit          3D

 25 25  0  0  1  0  0  0  0  0999 V2000
    8.8552  -12.8449   19.3508 C   0  0  0  0  0  0  0  0  0  0  0  0
    7.6094  -13.4544   19.9859 C   0  0  2  0  0  0  0  0  0  0  0  0
    6.7809  -12.3259   20.5487 C   0  0  0  0  0  0  0  0  0  0  0  0
    7.9737  -14.4886   21.0159 C   0  0  0  0  0  0  0  0  0  0  0  0
    8.7439  -15.6073   20.3743 C   0  0  2  0  0  0  0  0  0  0  0  0
    7.9422  -16.2539   19.3679 N   0  0  0  0  0  0  0  0  0  0  0  0
    9.1608  -16.6130   21.3711 C   0  0  0  0  0  0  0  0  0  0  0  0
    8.4645  -17.5963   21.6188 O   0  0  0  0  0  0  0  0  0  0  0  0
   10.3986  -16.4309   22.0552 N   0  0  0  0  0  0  0  0  0  0  0  0
   10.8528  -17.2935   23.0973 C   0  0  1  0  0  0  0  0  0  0  0  0
   12.3167  -17.4928   23.0831 C   0  0  0  0  0  0  0  0  0  0  0  0
   12.8817  -18.3016   21.9916 C   0  0  0  0  0  0  0  0  0  0  0  0
   12.6318  -19.5992   21.6626 C   0  0  0  0  0  0  0  0  0  0  0  0
   13.3408  -19.9413   20.5503 N   0  0  0  0  0  0  0  0  0  0  0  0
   14.0253  -18.8575   20.1938 C   0  0  0  0  0  0  0  0  0  0  0  0
   13.7609  -17.8761   21.0424 N   0  0  0  0  0  0  0  0  0  0  0  0
   10.3689  -16.8795   24.4410 C   0  0  0  0  0  0  0  0  0  0  0  0
   10.8356  -15.8631   25.0149 O   0  0  0  0  0  0  0  0  0  0  0  0
    7.3074  -19.0068   26.2106 O   0  0  0  0  0  0  0  0  0  0  0  0
    7.4606  -17.6879   26.5705 C   0  0  0  0  0  0  0  0  0  0  0  0
    8.9209  -17.2298   26.4727 C   0  0  2  0  0  0  0  0  0  0  0  0
    9.3648  -17.5995   25.1431 N   0  0  0  0  0  0  0  0  0  0  0  0
    9.6845  -17.9060   27.5289 C   0  0  0  0  0  0  0  0  0  0  0  0
    9.4068  -17.6198   28.8534 O   0  0  0  0  0  0  0  0  0  0  0  0
   10.5869  -18.7405   27.2840 O   0  0  0  0  0  0  0  0  0  0  0  0
  2  1  1  1
  3  2  1  0
  4  5  1  0
  4  2  1  0
  5  6  1  6
  7  5  1  0
  7  8  2  0
  9  7  1  0
 10  9  1  0
 10 11  1  1
 12 16  1  0
 12 11  1  0
 13 12  2  0
 14 13  1  0
 14 15  1  0
 15 16  2  0
 17 10  1  0
 18 17  2  0
 20 19  1  0
 21 22  1  0
 21 20  1  6
 22 17  1  0
 23 21  1  0
 24 23  1  0
 25 23  2  0
M  END
$$$$
