LHS.pdb
     RDKit          3D

 25 25  0  0  1  0  0  0  0  0999 V2000
    6.1344  -12.0767   24.7708 C   0  0  0  0  0  0  0  0  0  0  0  0
    6.3744  -12.7264   26.1299 C   0  0  2  0  0  0  0  0  0  0  0  0
    6.8104  -11.6440   27.0865 C   0  0  0  0  0  0  0  0  0  0  0  0
    7.3634  -13.8552   26.0268 C   0  0  0  0  0  0  0  0  0  0  0  0
    6.8720  -14.8846   25.0494 C   0  0  2  0  0  0  0  0  0  0  0  0
    5.6918  -15.5342   25.5581 N   0  0  0  0  0  0  0  0  0  0  0  0
    7.9025  -15.9074   24.7831 C   0  0  0  0  0  0  0  0  0  0  0  0
    7.9625  -16.9433   25.4437 O   0  0  0  0  0  0  0  0  0  0  0  0
    8.8429  -15.6794   23.7358 N   0  0  0  0  0  0  0  0  0  0  0  0
    9.8353  -16.6305   23.3524 C   0  0  1  0  0  0  0  0  0  0  0  0
   10.4334  -16.3388   22.0333 C   0  0  0  0  0  0  0  0  0  0  0  0
    9.5923  -16.5483   20.8445 C   0  0  0  0  0  0  0  0  0  0  0  0
    8.3325  -17.0586   20.7597 C   0  0  0  0  0  0  0  0  0  0  0  0
    7.9083  -17.0361   19.4650 N   0  0  0  0  0  0  0  0  0  0  0  0
    8.9033  -16.5128   18.7534 C   0  0  0  0  0  0  0  0  0  0  0  0
    9.9098  -16.2186   19.5618 N   0  0  0  0  0  0  0  0  0  0  0  0
   10.8769  -16.8295   24.3948 C   0  0  0  0  0  0  0  0  0  0  0  0
   11.7334  -15.9415   24.6353 O   0  0  0  0  0  0  0  0  0  0  0  0
   10.6955  -20.2088   26.6600 O   0  0  0  0  0  0  0  0  0  0  0  0
   11.3669  -19.1491   27.2246 C   0  0  0  0  0  0  0  0  0  0  0  0
   11.9916  -18.2326   26.1656 C   0  0  2  0  0  0  0  0  0  0  0  0
   10.9619  -18.0189   25.1679 N   0  0  0  0  0  0  0  0  0  0  0  0
   13.1749  -18.9072   25.6170 C   0  0  0  0  0  0  0  0  0  0  0  0
   13.1798  -19.2905   24.2880 O   0  0  0  0  0  0  0  0  0  0  0  0
   14.1930  -19.1550   26.3046 O   0  0  0  0  0  0  0  0  0  0  0  0
  2  1  1  6
  3  2  1  0
  4  5  1  0
  4  2  1  0
  5  6  1  1
  7  5  1  0
  7  8  2  0
  9  7  1  0
 10  9  1  0
 10 11  1  6
 12 16  1  0
 12 11  1  0
 13 12  2  0
 14 13  1  0
 14 15  1  0
 15 16  2  0
 17 10  1  0
 18 17  2  0
 20 19  1  0
 21 22  1  0
 21 20  1  1
 22 17  1  0
 23 21  1  0
 24 23  1  0
 25 23  2  0
M  END
$$$$
