LHS.pdb
     RDKit          3D

 25 25  0  0  1  0  0  0  0  0999 V2000
    9.7359  -12.1411   19.9554 C   0  0  0  0  0  0  0  0  0  0  0  0
    8.6406  -13.1243   19.5549 C   0  0  2  0  0  0  0  0  0  0  0  0
    7.3289  -12.3787   19.5597 C   0  0  0  0  0  0  0  0  0  0  0  0
    8.6361  -14.3304   20.4541 C   0  0  0  0  0  0  0  0  0  0  0  0
   10.0271  -14.8824   20.5844 C   0  0  2  0  0  0  0  0  0  0  0  0
   10.5374  -15.2629   19.2928 N   0  0  0  0  0  0  0  0  0  0  0  0
   10.0566  -16.0594   21.4748 C   0  0  0  0  0  0  0  0  0  0  0  0
    9.3834  -16.1014   22.5035 O   0  0  0  0  0  0  0  0  0  0  0  0
   10.8864  -17.1651   21.1253 N   0  0  0  0  0  0  0  0  0  0  0  0
   10.9803  -18.3536   21.9097 C   0  0  1  0  0  0  0  0  0  0  0  0
   11.4000  -19.5314   21.1227 C   0  0  0  0  0  0  0  0  0  0  0  0
   10.4133  -20.1221   20.2049 C   0  0  0  0  0  0  0  0  0  0  0  0
    9.0759  -19.8840   20.1086 C   0  0  0  0  0  0  0  0  0  0  0  0
    8.5458  -20.6172   19.0898 N   0  0  0  0  0  0  0  0  0  0  0  0
    9.5534  -21.3049   18.5587 C   0  0  0  0  0  0  0  0  0  0  0  0
   10.6687  -21.0192   19.2125 N   0  0  0  0  0  0  0  0  0  0  0  0
   11.8199  -18.1783   23.1244 C   0  0  0  0  0  0  0  0  0  0  0  0
   12.8691  -17.4866   23.0948 O   0  0  0  0  0  0  0  0  0  0  0  0
   10.3960  -19.5963   26.6138 O   0  0  0  0  0  0  0  0  0  0  0  0
   11.4400  -18.7111   26.7510 C   0  0  0  0  0  0  0  0  0  0  0  0
   12.3623  -18.7132   25.5258 C   0  0  2  0  0  0  0  0  0  0  0  0
   11.4883  -18.7748   24.3710 N   0  0  0  0  0  0  0  0  0  0  0  0
   13.2493  -19.8794   25.6226 C   0  0  0  0  0  0  0  0  0  0  0  0
   14.1640  -19.9496   26.6578 O   0  0  0  0  0  0  0  0  0  0  0  0
   13.2162  -20.8257   24.8015 O   0  0  0  0  0  0  0  0  0  0  0  0
  2  1  1  1
  3  2  1  0
  4  5  1  0
  4  2  1  0
  5  6  1  6
  7  5  1  0
  7  8  2  0
  9  7  1  0
 10  9  1  0
 10 11  1  6
 12 16  1  0
 12 11  1  0
 13 12  2  0
 14 13  1  0
 14 15  1  0
 15 16  2  0
 17 10  1  0
 18 17  2  0
 20 19  1  0
 21 22  1  0
 21 20  1  1
 22 17  1  0
 23 21  1  0
 24 23  1  0
 25 23  2  0
M  END
$$$$
