LHS.pdb
     RDKit          3D

 25 25  0  0  1  0  0  0  0  0999 V2000
    6.0795  -11.7989   25.7658 C   0  0  0  0  0  0  0  0  0  0  0  0
    6.5670  -12.7350   26.8671 C   0  0  2  0  0  0  0  0  0  0  0  0
    7.3169  -11.9038   27.8788 C   0  0  0  0  0  0  0  0  0  0  0  0
    7.3909  -13.8592   26.3012 C   0  0  0  0  0  0  0  0  0  0  0  0
    6.6525  -14.5241   25.1746 C   0  0  2  0  0  0  0  0  0  0  0  0
    5.5618  -15.3121   25.6875 N   0  0  0  0  0  0  0  0  0  0  0  0
    7.5454  -15.3990   24.3896 C   0  0  0  0  0  0  0  0  0  0  0  0
    7.5795  -16.6141   24.5781 O   0  0  0  0  0  0  0  0  0  0  0  0
    8.3816  -14.8126   23.3945 N   0  0  0  0  0  0  0  0  0  0  0  0
    9.3056  -15.5616   22.6061 C   0  0  1  0  0  0  0  0  0  0  0  0
    9.7075  -14.8611   21.3690 C   0  0  0  0  0  0  0  0  0  0  0  0
    8.6449  -14.4968   20.4187 C   0  0  0  0  0  0  0  0  0  0  0  0
    8.3271  -13.2747   19.9087 C   0  0  0  0  0  0  0  0  0  0  0  0
    7.2965  -13.3937   19.0254 N   0  0  0  0  0  0  0  0  0  0  0  0
    6.9800  -14.6855   18.9900 C   0  0  0  0  0  0  0  0  0  0  0  0
    7.7743  -15.3517   19.8135 N   0  0  0  0  0  0  0  0  0  0  0  0
   10.4865  -16.0223   23.3836 C   0  0  0  0  0  0  0  0  0  0  0  0
   11.2613  -15.2010   23.9361 O   0  0  0  0  0  0  0  0  0  0  0  0
   10.3786  -19.0036   25.7421 O   0  0  0  0  0  0  0  0  0  0  0  0
   11.5089  -19.1662   24.9749 C   0  0  0  0  0  0  0  0  0  0  0  0
   11.9458  -17.8563   24.3078 C   0  0  2  0  0  0  0  0  0  0  0  0
   10.8019  -17.3987   23.5439 N   0  0  0  0  0  0  0  0  0  0  0  0
   13.1107  -18.1406   23.4603 C   0  0  0  0  0  0  0  0  0  0  0  0
   12.9807  -18.0681   22.0851 O   0  0  0  0  0  0  0  0  0  0  0  0
   14.2309  -18.4496   23.9299 O   0  0  0  0  0  0  0  0  0  0  0  0
  2  1  1  6
  3  2  1  0
  4  5  1  0
  4  2  1  0
  5  6  1  1
  7  5  1  0
  7  8  2  0
  9  7  1  0
 10  9  1  0
 10 11  1  6
 12 16  1  0
 12 11  1  0
 13 12  2  0
 14 13  1  0
 14 15  1  0
 15 16  2  0
 17 10  1  0
 18 17  2  0
 20 19  1  0
 21 22  1  0
 21 20  1  6
 22 17  1  0
 23 21  1  0
 24 23  1  0
 25 23  2  0
M  END
$$$$
