LHS.pdb
     RDKit          3D

 25 25  0  0  1  0  0  0  0  0999 V2000
    9.2014  -13.6403   19.1346 C   0  0  0  0  0  0  0  0  0  0  0  0
    7.8628  -13.4904   19.8506 C   0  0  2  0  0  0  0  0  0  0  0  0
    7.4911  -12.0282   19.8295 C   0  0  0  0  0  0  0  0  0  0  0  0
    7.9214  -14.0636   21.2403 C   0  0  0  0  0  0  0  0  0  0  0  0
    8.1777  -15.5424   21.1784 C   0  0  2  0  0  0  0  0  0  0  0  0
    7.0327  -16.2263   20.6354 N   0  0  0  0  0  0  0  0  0  0  0  0
    8.4722  -16.0928   22.5160 C   0  0  0  0  0  0  0  0  0  0  0  0
    7.5787  -16.2927   23.3374 O   0  0  0  0  0  0  0  0  0  0  0  0
    9.8245  -16.3955   22.8523 N   0  0  0  0  0  0  0  0  0  0  0  0
   10.2246  -16.8768   24.1348 C   0  0  1  0  0  0  0  0  0  0  0  0
   11.2996  -17.8875   24.0610 C   0  0  0  0  0  0  0  0  0  0  0  0
   11.7450  -18.4991   25.3229 C   0  0  0  0  0  0  0  0  0  0  0  0
   11.2986  -18.2804   26.5908 C   0  0  0  0  0  0  0  0  0  0  0  0
   11.9597  -19.0926   27.4626 N   0  0  0  0  0  0  0  0  0  0  0  0
   12.8109  -19.8107   26.7345 C   0  0  0  0  0  0  0  0  0  0  0  0
   12.6928  -19.4674   25.4612 N   0  0  0  0  0  0  0  0  0  0  0  0
   10.5654  -15.7818   25.0814 C   0  0  0  0  0  0  0  0  0  0  0  0
   11.4938  -14.9721   24.8310 O   0  0  0  0  0  0  0  0  0  0  0  0
    7.9124  -14.1562   27.5030 O   0  0  0  0  0  0  0  0  0  0  0  0
    9.1462  -13.5705   27.3377 C   0  0  0  0  0  0  0  0  0  0  0  0
   10.2749  -14.6077   27.2914 C   0  0  2  0  0  0  0  0  0  0  0  0
    9.8703  -15.5911   26.3062 N   0  0  0  0  0  0  0  0  0  0  0  0
   10.4222  -15.1841   28.6338 C   0  0  0  0  0  0  0  0  0  0  0  0
   10.8640  -14.3814   29.6700 O   0  0  0  0  0  0  0  0  0  0  0  0
   10.1633  -16.3838   28.8880 O   0  0  0  0  0  0  0  0  0  0  0  0
  2  1  1  1
  3  2  1  0
  4  5  1  0
  4  2  1  0
  5  6  1  1
  7  5  1  0
  7  8  2  0
  9  7  1  0
 10  9  1  0
 10 11  1  6
 12 16  1  0
 12 11  1  0
 13 12  2  0
 14 13  1  0
 14 15  1  0
 15 16  2  0
 17 10  1  0
 18 17  2  0
 20 19  1  0
 21 22  1  0
 21 20  1  1
 22 17  1  0
 23 21  1  0
 24 23  1  0
 25 23  2  0
M  END
$$$$
