WQW.pdb
     RDKit          3D

 38 41  0  0  1  0  0  0  0  0999 V2000
    6.4198  -18.4316   23.7003 N   0  0  0  0  0  0  0  0  0  0  0  0
    7.3835  -17.3591   23.4935 C   0  0  1  0  0  0  0  0  0  0  0  0
    7.5388  -16.5348   24.7658 C   0  0  0  0  0  0  0  0  0  0  0  0
    7.0289  -15.1720   24.6518 C   0  0  0  0  0  0  0  0  0  0  0  0
    6.0135  -14.6141   25.3838 C   0  0  0  0  0  0  0  0  0  0  0  0
    5.8241  -13.3238   24.9928 N   0  0  0  0  0  0  0  0  0  0  0  0
    6.7154  -13.0708   24.0199 C   0  0  0  0  0  0  0  0  0  0  0  0
    6.9670  -11.9400   23.2762 C   0  0  0  0  0  0  0  0  0  0  0  0
    7.9580  -11.9179   22.3119 C   0  0  0  0  0  0  0  0  0  0  0  0
    8.7196  -13.0386   22.0756 C   0  0  0  0  0  0  0  0  0  0  0  0
    8.4764  -14.1732   22.8125 C   0  0  0  0  0  0  0  0  0  0  0  0
    7.4847  -14.2099   23.7838 C   0  0  0  0  0  0  0  0  0  0  0  0
    8.7380  -17.8616   23.1863 C   0  0  0  0  0  0  0  0  0  0  0  0
    9.0526  -19.0140   23.5020 O   0  0  0  0  0  0  0  0  0  0  0  0
   12.8676  -15.0844   19.4190 N   0  0  0  0  0  0  0  0  0  0  0  0
   11.7142  -15.8556   19.0989 C   0  0  0  0  0  0  0  0  0  0  0  0
   11.2661  -15.9246   17.9174 O   0  0  0  0  0  0  0  0  0  0  0  0
   11.0088  -16.6004   20.1585 C   0  0  0  0  0  0  0  0  0  0  0  0
   11.7980  -16.4497   21.4529 C   0  0  0  0  0  0  0  0  0  0  0  0
   11.0572  -17.1276   22.5262 C   0  0  2  0  0  0  0  0  0  0  0  0
    9.6505  -17.0103   22.5339 N   0  0  0  0  0  0  0  0  0  0  0  0
   11.7163  -16.9163   23.8707 C   0  0  0  0  0  0  0  0  0  0  0  0
   12.5850  -16.0330   23.9963 O   0  0  0  0  0  0  0  0  0  0  0  0
   11.3828  -17.6902   25.0045 N   0  0  0  0  0  0  0  0  0  0  0  0
   12.0316  -17.5872   26.2884 C   0  0  1  0  0  0  0  0  0  0  0  0
   11.0404  -17.5724   27.4304 C   0  0  0  0  0  0  0  0  0  0  0  0
    9.9036  -16.6838   27.1762 C   0  0  0  0  0  0  0  0  0  0  0  0
    8.6418  -17.0814   26.8039 C   0  0  0  0  0  0  0  0  0  0  0  0
    7.8697  -15.9930   26.6606 N   0  0  0  0  0  0  0  0  0  0  0  0
    8.6134  -14.9066   26.9340 C   0  0  0  0  0  0  0  0  0  0  0  0
    8.2960  -13.5456   26.9330 C   0  0  0  0  0  0  0  0  0  0  0  0
    9.2709  -12.6301   27.2595 C   0  0  0  0  0  0  0  0  0  0  0  0
   10.5473  -13.0439   27.5841 C   0  0  0  0  0  0  0  0  0  0  0  0
   10.8641  -14.3640   27.5874 C   0  0  0  0  0  0  0  0  0  0  0  0
    9.8974  -15.3072   27.2616 C   0  0  0  0  0  0  0  0  0  0  0  0
   13.0688  -18.6081   26.4326 C   0  0  0  0  0  0  0  0  0  0  0  0
   13.8510  -18.5393   27.4151 O   0  0  0  0  0  0  0  0  0  0  0  0
   13.2593  -19.6615   25.5572 O   0  0  0  0  0  0  0  0  0  0  0  0
  2  1  1  1
  2 13  1  0
  3  4  1  0
  3  2  1  0
  4  5  2  0
  5  6  1  0
  7  6  1  0
  8  7  2  0
  9  8  1  0
 10 11  1  0
 10  9  2  0
 11 12  2  0
 12  4  1  0
 12  7  1  0
 13 14  2  0
 16 17  2  0
 16 15  1  0
 18 16  1  0
 19 18  1  0
 20 19  1  6
 20 22  1  0
 21 13  1  0
 21 20  1  0
 22 23  2  0
 22 24  1  0
 24 25  1  0
 25 26  1  1
 26 27  1  0
 27 28  2  0
 28 29  1  0
 30 29  1  0
 31 30  2  0
 32 31  1  0
 33 34  1  0
 33 32  2  0
 34 35  2  0
 35 27  1  0
 35 30  1  0
 36 25  1  0
 36 38  1  0
 37 36  2  0
M  END
$$$$
