WQW.pdb
     RDKit          3D

 38 41  0  0  1  0  0  0  0  0999 V2000
    5.9957  -18.7142   22.6300 N   0  0  0  0  0  0  0  0  0  0  0  0
    6.4844  -17.3770   22.9374 C   0  0  1  0  0  0  0  0  0  0  0  0
    6.8964  -17.2879   24.4019 C   0  0  0  0  0  0  0  0  0  0  0  0
    6.2286  -16.2196   25.1387 C   0  0  0  0  0  0  0  0  0  0  0  0
    5.0584  -16.3200   25.8450 C   0  0  0  0  0  0  0  0  0  0  0  0
    4.7522  -15.1132   26.3957 N   0  0  0  0  0  0  0  0  0  0  0  0
    5.7243  -14.2575   26.0379 C   0  0  0  0  0  0  0  0  0  0  0  0
    5.9200  -12.9228   26.3125 C   0  0  0  0  0  0  0  0  0  0  0  0
    7.0196  -12.2408   25.8247 C   0  0  0  0  0  0  0  0  0  0  0  0
    7.9493  -12.8913   25.0473 C   0  0  0  0  0  0  0  0  0  0  0  0
    7.7634  -14.2242   24.7669 C   0  0  0  0  0  0  0  0  0  0  0  0
    6.6640  -14.9216   25.2497 C   0  0  0  0  0  0  0  0  0  0  0  0
    7.6950  -17.0221   22.1692 C   0  0  0  0  0  0  0  0  0  0  0  0
    8.4891  -17.9059   21.8301 O   0  0  0  0  0  0  0  0  0  0  0  0
    9.5752  -14.0243   18.0019 N   0  0  0  0  0  0  0  0  0  0  0  0
    8.1802  -13.9459   18.2758 C   0  0  0  0  0  0  0  0  0  0  0  0
    7.3152  -14.0306   17.3559 O   0  0  0  0  0  0  0  0  0  0  0  0
    7.7108  -13.7608   19.6615 C   0  0  0  0  0  0  0  0  0  0  0  0
    8.9229  -13.7956   20.5838 C   0  0  0  0  0  0  0  0  0  0  0  0
    9.0358  -15.1489   21.1461 C   0  0  2  0  0  0  0  0  0  0  0  0
    7.9209  -15.6729   21.8355 N   0  0  0  0  0  0  0  0  0  0  0  0
   10.3617  -15.3474   21.8456 C   0  0  0  0  0  0  0  0  0  0  0  0
   11.3986  -14.8788   21.3398 O   0  0  0  0  0  0  0  0  0  0  0  0
   10.4736  -16.0520   23.0648 N   0  0  0  0  0  0  0  0  0  0  0  0
   11.7193  -16.3638   23.7214 C   0  0  1  0  0  0  0  0  0  0  0  0
   11.5106  -17.1202   25.0141 C   0  0  0  0  0  0  0  0  0  0  0  0
   10.5232  -16.4798   25.8867 C   0  0  0  0  0  0  0  0  0  0  0  0
    9.1979  -16.8286   25.9907 C   0  0  0  0  0  0  0  0  0  0  0  0
    8.6066  -16.0211   26.8848 N   0  0  0  0  0  0  0  0  0  0  0  0
    9.5282  -15.1621   27.3549 C   0  0  0  0  0  0  0  0  0  0  0  0
    9.4357  -14.1296   28.2923 C   0  0  0  0  0  0  0  0  0  0  0  0
   10.5600  -13.3938   28.5915 C   0  0  0  0  0  0  0  0  0  0  0  0
   11.7659  -13.6664   27.9773 C   0  0  0  0  0  0  0  0  0  0  0  0
   11.8645  -14.6675   27.0655 C   0  0  0  0  0  0  0  0  0  0  0  0
   10.7438  -15.4244   26.7468 C   0  0  0  0  0  0  0  0  0  0  0  0
   12.6421  -17.0284   22.8020 C   0  0  0  0  0  0  0  0  0  0  0  0
   13.8474  -17.1506   23.1399 O   0  0  0  0  0  0  0  0  0  0  0  0
   12.2859  -17.5418   21.5684 O   0  0  0  0  0  0  0  0  0  0  0  0
  2  1  1  6
  2 13  1  0
  3  4  1  0
  3  2  1  0
  4  5  2  0
  5  6  1  0
  7  6  1  0
  8  7  2  0
  9  8  1  0
 10 11  1  0
 10  9  2  0
 11 12  2  0
 12  4  1  0
 12  7  1  0
 13 14  2  0
 16 17  2  0
 16 15  1  0
 18 16  1  0
 19 18  1  0
 20 19  1  1
 20 22  1  0
 21 13  1  0
 21 20  1  0
 22 23  2  0
 22 24  1  0
 24 25  1  0
 25 26  1  1
 26 27  1  0
 27 28  2  0
 28 29  1  0
 30 29  1  0
 31 30  2  0
 32 31  1  0
 33 34  1  0
 33 32  2  0
 34 35  2  0
 35 27  1  0
 35 30  1  0
 36 25  1  0
 36 38  1  0
 37 36  2  0
M  END
$$$$
