WQW.pdb
     RDKit          3D

 38 41  0  0  1  0  0  0  0  0999 V2000
    7.0154  -18.1203   22.1763 N   0  0  0  0  0  0  0  0  0  0  0  0
    8.2098  -17.2908   22.0922 C   0  0  1  0  0  0  0  0  0  0  0  0
    7.9045  -15.8742   22.5636 C   0  0  0  0  0  0  0  0  0  0  0  0
    7.1843  -15.0684   21.5827 C   0  0  0  0  0  0  0  0  0  0  0  0
    5.8553  -15.1639   21.2621 C   0  0  0  0  0  0  0  0  0  0  0  0
    5.5494  -14.2462   20.3040 N   0  0  0  0  0  0  0  0  0  0  0  0
    6.6798  -13.5766   20.0230 C   0  0  0  0  0  0  0  0  0  0  0  0
    6.9456  -12.5519   19.1429 C   0  0  0  0  0  0  0  0  0  0  0  0
    8.2135  -12.0118   19.0282 C   0  0  0  0  0  0  0  0  0  0  0  0
    9.2443  -12.4940   19.8007 C   0  0  0  0  0  0  0  0  0  0  0  0
    8.9897  -13.5172   20.6826 C   0  0  0  0  0  0  0  0  0  0  0  0
    7.7217  -14.0693   20.8084 C   0  0  0  0  0  0  0  0  0  0  0  0
    9.2979  -17.7681   22.9697 C   0  0  0  0  0  0  0  0  0  0  0  0
    9.0316  -18.4573   23.9600 O   0  0  0  0  0  0  0  0  0  0  0  0
   15.0842  -14.9735   22.5770 N   0  0  0  0  0  0  0  0  0  0  0  0
   15.1562  -15.8891   23.6650 C   0  0  0  0  0  0  0  0  0  0  0  0
   16.2577  -16.1889   24.2112 O   0  0  0  0  0  0  0  0  0  0  0  0
   13.9259  -16.5158   24.1831 C   0  0  0  0  0  0  0  0  0  0  0  0
   12.8902  -16.5273   23.0658 C   0  0  0  0  0  0  0  0  0  0  0  0
   11.6730  -17.1773   23.5720 C   0  0  2  0  0  0  0  0  0  0  0  0
   10.6274  -17.4257   22.6568 N   0  0  0  0  0  0  0  0  0  0  0  0
   11.2318  -16.5754   24.8873 C   0  0  0  0  0  0  0  0  0  0  0  0
   11.2111  -15.3374   25.0194 O   0  0  0  0  0  0  0  0  0  0  0  0
   10.8373  -17.3704   25.9863 N   0  0  0  0  0  0  0  0  0  0  0  0
   10.6316  -16.8758   27.3253 C   0  0  1  0  0  0  0  0  0  0  0  0
    9.1886  -16.9922   27.7625 C   0  0  0  0  0  0  0  0  0  0  0  0
    8.2939  -16.1347   26.9811 C   0  0  0  0  0  0  0  0  0  0  0  0
    7.2498  -16.5661   26.1984 C   0  0  0  0  0  0  0  0  0  0  0  0
    6.6609  -15.4994   25.6359 N   0  0  0  0  0  0  0  0  0  0  0  0
    7.3082  -14.3935   26.0438 C   0  0  0  0  0  0  0  0  0  0  0  0
    7.1002  -13.0419   25.7553 C   0  0  0  0  0  0  0  0  0  0  0  0
    7.9295  -12.1007   26.3221 C   0  0  0  0  0  0  0  0  0  0  0  0
    8.9552  -12.4797   27.1649 C   0  0  0  0  0  0  0  0  0  0  0  0
    9.1642  -13.7905   27.4502 C   0  0  0  0  0  0  0  0  0  0  0  0
    8.3405  -14.7592   26.8906 C   0  0  0  0  0  0  0  0  0  0  0  0
   11.5731  -17.4915   28.2598 C   0  0  0  0  0  0  0  0  0  0  0  0
   12.2911  -18.4416   27.8551 O   0  0  0  0  0  0  0  0  0  0  0  0
   11.7379  -17.1032   29.5767 O   0  0  0  0  0  0  0  0  0  0  0  0
  2  1  1  1
  2 13  1  0
  3  4  1  0
  3  2  1  0
  4  5  2  0
  5  6  1  0
  7  6  1  0
  8  7  2  0
  9  8  1  0
 10 11  1  0
 10  9  2  0
 11 12  2  0
 12  4  1  0
 12  7  1  0
 13 14  2  0
 16 17  2  0
 16 15  1  0
 18 16  1  0
 19 18  1  0
 20 19  1  6
 20 22  1  0
 21 13  1  0
 21 20  1  0
 22 23  2  0
 22 24  1  0
 24 25  1  0
 25 26  1  1
 26 27  1  0
 27 28  2  0
 28 29  1  0
 30 29  1  0
 31 30  2  0
 32 31  1  0
 33 34  1  0
 33 32  2  0
 34 35  2  0
 35 27  1  0
 35 30  1  0
 36 25  1  0
 36 38  1  0
 37 36  2  0
M  END
$$$$
