WQW.pdb
     RDKit          3D

 38 41  0  0  1  0  0  0  0  0999 V2000
    6.6729  -19.1104   25.4437 N   0  0  0  0  0  0  0  0  0  0  0  0
    7.2291  -17.9971   24.6868 C   0  0  1  0  0  0  0  0  0  0  0  0
    7.1524  -16.7120   25.5021 C   0  0  0  0  0  0  0  0  0  0  0  0
    7.3217  -15.4988   24.7085 C   0  0  0  0  0  0  0  0  0  0  0  0
    7.4895  -15.4260   23.3503 C   0  0  0  0  0  0  0  0  0  0  0  0
    7.6139  -14.1233   22.9747 N   0  0  0  0  0  0  0  0  0  0  0  0
    7.5250  -13.3801   24.0904 C   0  0  0  0  0  0  0  0  0  0  0  0
    7.5817  -12.0199   24.2948 C   0  0  0  0  0  0  0  0  0  0  0  0
    7.4612  -11.4761   25.5606 C   0  0  0  0  0  0  0  0  0  0  0  0
    7.2800  -12.2941   26.6514 C   0  0  0  0  0  0  0  0  0  0  0  0
    7.2221  -13.6539   26.4584 C   0  0  0  0  0  0  0  0  0  0  0  0
    7.3417  -14.2138   25.1933 C   0  0  0  0  0  0  0  0  0  0  0  0
    8.6620  -18.1780   24.3774 C   0  0  0  0  0  0  0  0  0  0  0  0
    9.4069  -18.7141   25.2048 O   0  0  0  0  0  0  0  0  0  0  0  0
    8.2418  -17.7462   19.8802 N   0  0  0  0  0  0  0  0  0  0  0  0
    8.9880  -16.5362   19.9606 C   0  0  0  0  0  0  0  0  0  0  0  0
    8.5732  -15.4619   19.4360 O   0  0  0  0  0  0  0  0  0  0  0  0
   10.2812  -16.5141   20.6692 C   0  0  0  0  0  0  0  0  0  0  0  0
   10.5918  -17.9299   21.1382 C   0  0  0  0  0  0  0  0  0  0  0  0
   10.4369  -17.9762   22.5991 C   0  0  2  0  0  0  0  0  0  0  0  0
    9.1540  -17.7327   23.1355 N   0  0  0  0  0  0  0  0  0  0  0  0
   11.5626  -17.2464   23.2971 C   0  0  0  0  0  0  0  0  0  0  0  0
   12.4766  -16.7382   22.6212 O   0  0  0  0  0  0  0  0  0  0  0  0
   11.6203  -17.1162   24.7025 N   0  0  0  0  0  0  0  0  0  0  0  0
   12.7908  -16.7123   25.4420 C   0  0  1  0  0  0  0  0  0  0  0  0
   12.6195  -15.3553   26.0872 C   0  0  0  0  0  0  0  0  0  0  0  0
   11.5599  -15.3439   27.0989 C   0  0  0  0  0  0  0  0  0  0  0  0
   11.5417  -16.0939   28.2504 C   0  0  0  0  0  0  0  0  0  0  0  0
   10.4153  -15.8209   28.9271 N   0  0  0  0  0  0  0  0  0  0  0  0
    9.7124  -14.9104   28.2305 C   0  0  0  0  0  0  0  0  0  0  0  0
    8.4841  -14.2959   28.4895 C   0  0  0  0  0  0  0  0  0  0  0  0
    7.9889  -13.3818   27.5872 C   0  0  0  0  0  0  0  0  0  0  0  0
    8.6907  -13.0718   26.4394 C   0  0  0  0  0  0  0  0  0  0  0  0
    9.8844  -13.6643   26.1801 C   0  0  0  0  0  0  0  0  0  0  0  0
   10.4052  -14.5900   27.0756 C   0  0  0  0  0  0  0  0  0  0  0  0
   13.2000  -17.7550   26.3823 C   0  0  0  0  0  0  0  0  0  0  0  0
   12.4058  -18.7017   26.6168 O   0  0  0  0  0  0  0  0  0  0  0  0
   14.4134  -17.7811   27.0448 O   0  0  0  0  0  0  0  0  0  0  0  0
  2  1  1  1
  2 13  1  0
  3  4  1  0
  3  2  1  0
  4  5  2  0
  5  6  1  0
  7  6  1  0
  8  7  2  0
  9  8  1  0
 10 11  1  0
 10  9  2  0
 11 12  2  0
 12  4  1  0
 12  7  1  0
 13 14  2  0
 16 17  2  0
 16 15  1  0
 18 16  1  0
 19 18  1  0
 20 19  1  6
 20 22  1  0
 21 13  1  0
 21 20  1  0
 22 23  2  0
 22 24  1  0
 24 25  1  0
 25 26  1  1
 26 27  1  0
 27 28  2  0
 28 29  1  0
 30 29  1  0
 31 30  2  0
 32 31  1  0
 33 34  1  0
 33 32  2  0
 34 35  2  0
 35 27  1  0
 35 30  1  0
 36 25  1  0
 36 38  1  0
 37 36  2  0
M  END
$$$$
