WQW.pdb
     RDKit          3D

 38 41  0  0  1  0  0  0  0  0999 V2000
    6.6158  -18.9580   24.0858 N   0  0  0  0  0  0  0  0  0  0  0  0
    7.3575  -17.8350   23.5286 C   0  0  1  0  0  0  0  0  0  0  0  0
    7.3999  -16.6824   24.5246 C   0  0  0  0  0  0  0  0  0  0  0  0
    6.8759  -15.4267   23.9965 C   0  0  0  0  0  0  0  0  0  0  0  0
    5.7937  -14.7294   24.4663 C   0  0  0  0  0  0  0  0  0  0  0  0
    5.6131  -13.6071   23.7170 N   0  0  0  0  0  0  0  0  0  0  0  0
    6.5763  -13.5981   22.7804 C   0  0  0  0  0  0  0  0  0  0  0  0
    6.8671  -12.7088   21.7706 C   0  0  0  0  0  0  0  0  0  0  0  0
    7.9332  -12.9150   20.9142 C   0  0  0  0  0  0  0  0  0  0  0  0
    8.7322  -14.0252   21.0577 C   0  0  0  0  0  0  0  0  0  0  0  0
    8.4506  -14.9197   22.0628 C   0  0  0  0  0  0  0  0  0  0  0  0
    7.3834  -14.7257   22.9299 C   0  0  0  0  0  0  0  0  0  0  0  0
    8.7706  -18.1656   23.2539 C   0  0  0  0  0  0  0  0  0  0  0  0
    9.3165  -19.0889   23.8673 O   0  0  0  0  0  0  0  0  0  0  0  0
   14.7107  -15.9080   19.4651 N   0  0  0  0  0  0  0  0  0  0  0  0
   13.3502  -16.3238   19.5248 C   0  0  0  0  0  0  0  0  0  0  0  0
   12.5426  -16.0979   18.5770 O   0  0  0  0  0  0  0  0  0  0  0  0
   12.8496  -17.0375   20.7143 C   0  0  0  0  0  0  0  0  0  0  0  0
   11.3712  -16.7088   20.8799 C   0  0  0  0  0  0  0  0  0  0  0  0
   10.8620  -17.4483   22.0437 C   0  0  2  0  0  0  0  0  0  0  0  0
    9.4724  -17.4162   22.2903 N   0  0  0  0  0  0  0  0  0  0  0  0
   11.7257  -17.2204   23.2638 C   0  0  0  0  0  0  0  0  0  0  0  0
   12.9406  -17.4892   23.2146 O   0  0  0  0  0  0  0  0  0  0  0  0
   11.2040  -16.7089   24.4728 N   0  0  0  0  0  0  0  0  0  0  0  0
   11.9930  -16.3875   25.6365 C   0  0  1  0  0  0  0  0  0  0  0  0
   11.6177  -15.0481   26.2298 C   0  0  0  0  0  0  0  0  0  0  0  0
   10.2166  -14.9946   26.6548 C   0  0  0  0  0  0  0  0  0  0  0  0
    9.5186  -16.0185   27.2493 C   0  0  0  0  0  0  0  0  0  0  0  0
    8.2658  -15.6038   27.4934 N   0  0  0  0  0  0  0  0  0  0  0  0
    8.1488  -14.3340   27.0664 C   0  0  0  0  0  0  0  0  0  0  0  0
    7.0671  -13.4492   27.0846 C   0  0  0  0  0  0  0  0  0  0  0  0
    7.2292  -12.1824   26.5709 C   0  0  0  0  0  0  0  0  0  0  0  0
    8.4412  -11.7848   26.0427 C   0  0  0  0  0  0  0  0  0  0  0  0
    9.4969  -12.6381   26.0209 C   0  0  0  0  0  0  0  0  0  0  0  0
    9.3582  -13.9219   26.5337 C   0  0  0  0  0  0  0  0  0  0  0  0
   11.9624  -17.4816   26.6065 C   0  0  0  0  0  0  0  0  0  0  0  0
   11.1089  -18.3938   26.4607 O   0  0  0  0  0  0  0  0  0  0  0  0
   12.8141  -17.5926   27.6902 O   0  0  0  0  0  0  0  0  0  0  0  0
  2  1  1  1
  2 13  1  0
  3  4  1  0
  3  2  1  0
  4  5  2  0
  5  6  1  0
  7  6  1  0
  8  7  2  0
  9  8  1  0
 10 11  1  0
 10  9  2  0
 11 12  2  0
 12  4  1  0
 12  7  1  0
 13 14  2  0
 16 17  2  0
 16 15  1  0
 18 16  1  0
 19 18  1  0
 20 19  1  6
 20 22  1  0
 21 13  1  0
 21 20  1  0
 22 23  2  0
 22 24  1  0
 24 25  1  0
 25 26  1  1
 26 27  1  0
 27 28  2  0
 28 29  1  0
 30 29  1  0
 31 30  2  0
 32 31  1  0
 33 34  1  0
 33 32  2  0
 34 35  2  0
 35 27  1  0
 35 30  1  0
 36 25  1  0
 36 38  1  0
 37 36  2  0
M  END
$$$$
