WQW.pdb
     RDKit          3D

 38 41  0  0  1  0  0  0  0  0999 V2000
    7.7393  -18.0495   20.8002 N   0  0  0  0  0  0  0  0  0  0  0  0
    8.6247  -17.0604   21.3997 C   0  0  1  0  0  0  0  0  0  0  0  0
    7.8177  -15.8852   21.9382 C   0  0  0  0  0  0  0  0  0  0  0  0
    7.1817  -15.0809   20.8994 C   0  0  0  0  0  0  0  0  0  0  0  0
    5.9817  -15.3341   20.2880 C   0  0  0  0  0  0  0  0  0  0  0  0
    5.7212  -14.3607   19.3724 N   0  0  0  0  0  0  0  0  0  0  0  0
    6.7518  -13.4995   19.4071 C   0  0  0  0  0  0  0  0  0  0  0  0
    7.0083  -12.3452   18.7022 C   0  0  0  0  0  0  0  0  0  0  0  0
    8.1603  -11.6110   18.9171 C   0  0  0  0  0  0  0  0  0  0  0  0
    9.0817  -12.0253   19.8505 C   0  0  0  0  0  0  0  0  0  0  0  0
    8.8354  -13.1767   20.5598 C   0  0  0  0  0  0  0  0  0  0  0  0
    7.6832  -13.9240   20.3545 C   0  0  0  0  0  0  0  0  0  0  0  0
    9.3663  -17.5898   22.5621 C   0  0  0  0  0  0  0  0  0  0  0  0
    8.7987  -18.3386   23.3645 O   0  0  0  0  0  0  0  0  0  0  0  0
   15.6090  -17.4862   23.1209 N   0  0  0  0  0  0  0  0  0  0  0  0
   14.7518  -17.5328   21.9850 C   0  0  0  0  0  0  0  0  0  0  0  0
   15.2099  -17.5583   20.8055 O   0  0  0  0  0  0  0  0  0  0  0  0
   13.2884  -17.5518   22.1667 C   0  0  0  0  0  0  0  0  0  0  0  0
   12.9925  -17.4670   23.6588 C   0  0  0  0  0  0  0  0  0  0  0  0
   11.5356  -17.5243   23.8441 C   0  0  2  0  0  0  0  0  0  0  0  0
   10.7163  -17.2278   22.7334 N   0  0  0  0  0  0  0  0  0  0  0  0
   11.1163  -16.8569   25.1346 C   0  0  0  0  0  0  0  0  0  0  0  0
   11.2519  -15.6255   25.2609 O   0  0  0  0  0  0  0  0  0  0  0  0
   10.5704  -17.5825   26.2167 N   0  0  0  0  0  0  0  0  0  0  0  0
   10.3834  -17.0567   27.5466 C   0  0  1  0  0  0  0  0  0  0  0  0
    8.9321  -17.0781   27.9710 C   0  0  0  0  0  0  0  0  0  0  0  0
    8.0871  -16.2302   27.1263 C   0  0  0  0  0  0  0  0  0  0  0  0
    7.1360  -16.6748   26.2394 C   0  0  0  0  0  0  0  0  0  0  0  0
    6.5678  -15.6136   25.6460 N   0  0  0  0  0  0  0  0  0  0  0  0
    7.1371  -14.4984   26.1362 C   0  0  0  0  0  0  0  0  0  0  0  0
    6.9128  -13.1474   25.8574 C   0  0  0  0  0  0  0  0  0  0  0  0
    7.6537  -12.1948   26.5197 C   0  0  0  0  0  0  0  0  0  0  0  0
    8.6075  -12.5620   27.4478 C   0  0  0  0  0  0  0  0  0  0  0  0
    8.8318  -13.8721   27.7244 C   0  0  0  0  0  0  0  0  0  0  0  0
    8.0966  -14.8522   27.0692 C   0  0  0  0  0  0  0  0  0  0  0  0
   11.2769  -17.7152   28.4988 C   0  0  0  0  0  0  0  0  0  0  0  0
   11.9588  -18.6967   28.1072 O   0  0  0  0  0  0  0  0  0  0  0  0
   11.4326  -17.3356   29.8193 O   0  0  0  0  0  0  0  0  0  0  0  0
  2  1  1  1
  2 13  1  0
  3  4  1  0
  3  2  1  0
  4  5  2  0
  5  6  1  0
  7  6  1  0
  8  7  2  0
  9  8  1  0
 10 11  1  0
 10  9  2  0
 11 12  2  0
 12  4  1  0
 12  7  1  0
 13 14  2  0
 16 17  2  0
 16 15  1  0
 18 16  1  0
 19 18  1  0
 20 19  1  6
 20 22  1  0
 21 13  1  0
 21 20  1  0
 22 23  2  0
 22 24  1  0
 24 25  1  0
 25 26  1  1
 26 27  1  0
 27 28  2  0
 28 29  1  0
 30 29  1  0
 31 30  2  0
 32 31  1  0
 33 34  1  0
 33 32  2  0
 34 35  2  0
 35 27  1  0
 35 30  1  0
 36 25  1  0
 36 38  1  0
 37 36  2  0
M  END
$$$$
