WQW.pdb
     RDKit          3D

 38 41  0  0  1  0  0  0  0  0999 V2000
    7.9051  -18.9633   21.0942 N   0  0  0  0  0  0  0  0  0  0  0  0
    8.6026  -17.7652   21.5411 C   0  0  1  0  0  0  0  0  0  0  0  0
    7.6841  -16.9093   22.4048 C   0  0  0  0  0  0  0  0  0  0  0  0
    7.0396  -15.8189   21.6796 C   0  0  0  0  0  0  0  0  0  0  0  0
    5.6921  -15.6005   21.5582 C   0  0  0  0  0  0  0  0  0  0  0  0
    5.4759  -14.4851   20.8080 N   0  0  0  0  0  0  0  0  0  0  0  0
    6.6808  -14.0040   20.4590 C   0  0  0  0  0  0  0  0  0  0  0  0
    7.0511  -12.9083   19.7123 C   0  0  0  0  0  0  0  0  0  0  0  0
    8.3817  -12.6081   19.4849 C   0  0  0  0  0  0  0  0  0  0  0  0
    9.3713  -13.4080   20.0071 C   0  0  0  0  0  0  0  0  0  0  0  0
    9.0124  -14.5047   20.7540 C   0  0  0  0  0  0  0  0  0  0  0  0
    7.6805  -14.8185   20.9903 C   0  0  0  0  0  0  0  0  0  0  0  0
    9.7688  -18.0700   22.3948 C   0  0  0  0  0  0  0  0  0  0  0  0
    9.7228  -19.0212   23.1820 O   0  0  0  0  0  0  0  0  0  0  0  0
   15.2468  -17.3228   22.9667 N   0  0  0  0  0  0  0  0  0  0  0  0
   14.5269  -17.2345   21.7415 C   0  0  0  0  0  0  0  0  0  0  0  0
   14.8410  -17.9314   20.7328 O   0  0  0  0  0  0  0  0  0  0  0  0
   13.3822  -16.3120   21.6245 C   0  0  0  0  0  0  0  0  0  0  0  0
   12.8940  -15.9782   23.0285 C   0  0  0  0  0  0  0  0  0  0  0  0
   11.7680  -16.8671   23.3486 C   0  0  2  0  0  0  0  0  0  0  0  0
   10.9189  -17.2639   22.2930 N   0  0  0  0  0  0  0  0  0  0  0  0
   11.0507  -16.4199   24.6025 C   0  0  0  0  0  0  0  0  0  0  0  0
    9.9229  -15.8996   24.5119 O   0  0  0  0  0  0  0  0  0  0  0  0
   11.6149  -16.5700   25.8888 N   0  0  0  0  0  0  0  0  0  0  0  0
   10.9818  -16.1551   27.1164 C   0  0  1  0  0  0  0  0  0  0  0  0
   10.3805  -14.7716   27.0104 C   0  0  0  0  0  0  0  0  0  0  0  0
    8.9388  -14.8039   26.7513 C   0  0  0  0  0  0  0  0  0  0  0  0
    8.1893  -15.9332   26.5243 C   0  0  0  0  0  0  0  0  0  0  0  0
    6.9121  -15.5723   26.3248 N   0  0  0  0  0  0  0  0  0  0  0  0
    6.8301  -14.2335   26.4199 C   0  0  0  0  0  0  0  0  0  0  0  0
    5.7434  -13.3634   26.2964 C   0  0  0  0  0  0  0  0  0  0  0  0
    5.9486  -12.0102   26.4444 C   0  0  0  0  0  0  0  0  0  0  0  0
    7.2084  -11.5124   26.7109 C   0  0  0  0  0  0  0  0  0  0  0  0
    8.2694  -12.3506   26.8323 C   0  0  0  0  0  0  0  0  0  0  0  0
    8.0877  -13.7204   26.6873 C   0  0  0  0  0  0  0  0  0  0  0  0
   10.0338  -17.1663   27.5827 C   0  0  0  0  0  0  0  0  0  0  0  0
    9.8502  -17.2965   28.8201 O   0  0  0  0  0  0  0  0  0  0  0  0
    9.3112  -18.0049   26.7540 O   0  0  0  0  0  0  0  0  0  0  0  0
  2  1  1  1
  2 13  1  0
  3  4  1  0
  3  2  1  0
  4  5  2  0
  5  6  1  0
  7  6  1  0
  8  7  2  0
  9  8  1  0
 10 11  1  0
 10  9  2  0
 11 12  2  0
 12  4  1  0
 12  7  1  0
 13 14  2  0
 16 17  2  0
 16 15  1  0
 18 16  1  0
 19 18  1  0
 20 19  1  6
 20 22  1  0
 21 13  1  0
 21 20  1  0
 22 23  2  0
 22 24  1  0
 24 25  1  0
 25 26  1  6
 26 27  1  0
 27 28  2  0
 28 29  1  0
 30 29  1  0
 31 30  2  0
 32 31  1  0
 33 34  1  0
 33 32  2  0
 34 35  2  0
 35 27  1  0
 35 30  1  0
 36 25  1  0
 36 38  1  0
 37 36  2  0
M  END
$$$$
