WQW.pdb
     RDKit          3D

 38 41  0  0  1  0  0  0  0  0999 V2000
    8.8383  -17.4577   20.2447 N   0  0  0  0  0  0  0  0  0  0  0  0
    9.3019  -16.5819   21.3123 C   0  0  1  0  0  0  0  0  0  0  0  0
    8.1517  -15.7296   21.8345 C   0  0  0  0  0  0  0  0  0  0  0  0
    7.6124  -14.7984   20.8484 C   0  0  0  0  0  0  0  0  0  0  0  0
    6.3456  -14.8030   20.3255 C   0  0  0  0  0  0  0  0  0  0  0  0
    6.2152  -13.7811   19.4354 N   0  0  0  0  0  0  0  0  0  0  0  0
    7.3936  -13.1368   19.3981 C   0  0  0  0  0  0  0  0  0  0  0  0
    7.8191  -12.0415   18.6809 C   0  0  0  0  0  0  0  0  0  0  0  0
    9.1043  -11.5486   18.8138 C   0  0  0  0  0  0  0  0  0  0  0  0
    9.9914  -12.1506   19.6755 C   0  0  0  0  0  0  0  0  0  0  0  0
    9.5767  -13.2452   20.3963 C   0  0  0  0  0  0  0  0  0  0  0  0
    8.2894  -13.7511   20.2729 C   0  0  0  0  0  0  0  0  0  0  0  0
    9.7988  -17.3282   22.4861 C   0  0  0  0  0  0  0  0  0  0  0  0
    9.1170  -18.2381   22.9699 O   0  0  0  0  0  0  0  0  0  0  0  0
   14.6631  -15.5904   23.3185 N   0  0  0  0  0  0  0  0  0  0  0  0
   14.5410  -16.7613   22.5177 C   0  0  0  0  0  0  0  0  0  0  0  0
   15.1638  -16.8875   21.4233 O   0  0  0  0  0  0  0  0  0  0  0  0
   13.6703  -17.8673   22.9579 C   0  0  0  0  0  0  0  0  0  0  0  0
   13.0920  -17.5051   24.3200 C   0  0  0  0  0  0  0  0  0  0  0  0
   11.6261  -17.5047   24.2133 C   0  0  2  0  0  0  0  0  0  0  0  0
   11.0498  -16.9852   23.0339 N   0  0  0  0  0  0  0  0  0  0  0  0
   10.9792  -17.0298   25.4949 C   0  0  0  0  0  0  0  0  0  0  0  0
   10.3037  -15.9837   25.4905 O   0  0  0  0  0  0  0  0  0  0  0  0
   11.1118  -17.7332   26.7128 N   0  0  0  0  0  0  0  0  0  0  0  0
   10.4991  -17.3411   27.9581 C   0  0  1  0  0  0  0  0  0  0  0  0
    9.0078  -17.5920   27.9656 C   0  0  0  0  0  0  0  0  0  0  0  0
    8.2672  -16.5995   27.1827 C   0  0  0  0  0  0  0  0  0  0  0  0
    7.2882  -16.8745   26.2581 C   0  0  0  0  0  0  0  0  0  0  0  0
    6.8413  -15.7183   25.7439 N   0  0  0  0  0  0  0  0  0  0  0  0
    7.5156  -14.7085   26.3218 C   0  0  0  0  0  0  0  0  0  0  0  0
    7.4361  -13.3243   26.1457 C   0  0  0  0  0  0  0  0  0  0  0  0
    8.2617  -12.5067   26.8838 C   0  0  0  0  0  0  0  0  0  0  0  0
    9.1590  -13.0401   27.7873 C   0  0  0  0  0  0  0  0  0  0  0  0
    9.2427  -14.3835   27.9644 C   0  0  0  0  0  0  0  0  0  0  0  0
    8.4199  -15.2296   27.2313 C   0  0  0  0  0  0  0  0  0  0  0  0
   11.1951  -17.9430   29.0948 C   0  0  0  0  0  0  0  0  0  0  0  0
   10.8204  -17.6460   30.2581 O   0  0  0  0  0  0  0  0  0  0  0  0
   12.2515  -18.8288   28.9876 O   0  0  0  0  0  0  0  0  0  0  0  0
  2  1  1  6
  2 13  1  0
  3  4  1  0
  3  2  1  0
  4  5  2  0
  5  6  1  0
  7  6  1  0
  8  7  2  0
  9  8  1  0
 10 11  1  0
 10  9  2  0
 11 12  2  0
 12  4  1  0
 12  7  1  0
 13 14  2  0
 16 17  2  0
 16 15  1  0
 18 16  1  0
 19 18  1  0
 20 19  1  1
 20 22  1  0
 21 13  1  0
 21 20  1  0
 22 23  2  0
 22 24  1  0
 24 25  1  0
 25 26  1  6
 26 27  1  0
 27 28  2  0
 28 29  1  0
 30 29  1  0
 31 30  2  0
 32 31  1  0
 33 34  1  0
 33 32  2  0
 34 35  2  0
 35 27  1  0
 35 30  1  0
 36 25  1  0
 36 38  1  0
 37 36  2  0
M  END
$$$$
