GSW.pdb
     RDKit          3D

 25 26  0  0  1  0  0  0  0  0999 V2000
   32.9396  -30.5670   11.3169 N   0  0  0  0  0  0  0  0  0  0  0  0
   33.6910  -30.8395   10.1260 C   0  0  0  0  0  0  0  0  0  0  0  0
   34.2523  -29.5639    9.5649 C   0  0  0  0  0  0  0  0  0  0  0  0
   33.6862  -28.4578    9.8086 O   0  0  0  0  0  0  0  0  0  0  0  0
   37.4134  -29.7737    6.8029 O   0  0  0  0  0  0  0  0  0  0  0  0
   37.4321  -28.7624    7.7606 C   0  0  0  0  0  0  0  0  0  0  0  0
   36.0221  -28.4050    8.2101 C   0  0  2  0  0  0  0  0  0  0  0  0
   35.4139  -29.6010    8.7661 N   0  0  0  0  0  0  0  0  0  0  0  0
   35.2386  -27.8319    7.0944 C   0  0  0  0  0  0  0  0  0  0  0  0
   34.4642  -28.5866    6.4188 O   0  0  0  0  0  0  0  0  0  0  0  0
   35.2856  -26.4773    6.7144 N   0  0  0  0  0  0  0  0  0  0  0  0
   34.4605  -25.9689    5.6191 C   0  0  1  0  0  0  0  0  0  0  0  0
   34.5724  -24.4689    5.5594 C   0  0  0  0  0  0  0  0  0  0  0  0
   33.5987  -23.8934    4.6147 C   0  0  0  0  0  0  0  0  0  0  0  0
   32.9343  -24.6123    3.6016 C   0  0  0  0  0  0  0  0  0  0  0  0
   32.1922  -23.7129    2.9466 N   0  0  0  0  0  0  0  0  0  0  0  0
   32.3436  -22.4885    3.4771 C   0  0  0  0  0  0  0  0  0  0  0  0
   31.7857  -21.2460    3.1836 C   0  0  0  0  0  0  0  0  0  0  0  0
   32.0783  -20.1084    3.9021 C   0  0  0  0  0  0  0  0  0  0  0  0
   32.9602  -20.1805    4.9632 C   0  0  0  0  0  0  0  0  0  0  0  0
   33.5210  -21.4022    5.2653 C   0  0  0  0  0  0  0  0  0  0  0  0
   33.2243  -22.5528    4.5360 C   0  0  0  0  0  0  0  0  0  0  0  0
   34.8763  -26.5986    4.3779 C   0  0  0  0  0  0  0  0  0  0  0  0
   36.0708  -26.8716    4.0816 O   0  0  0  0  0  0  0  0  0  0  0  0
   33.9094  -26.9383    3.4256 O   0  0  0  0  0  0  0  0  0  0  0  0
  2  3  1  0
  2  1  1  0
  3  4  2  0
  6  5  1  0
  7  6  1  6
  8  7  1  0
  8  3  1  0
  9 11  1  0
  9  7  1  0
 10  9  2  0
 12 11  1  0
 12 13  1  6
 13 14  1  0
 14 15  2  0
 15 16  1  0
 17 16  1  0
 18 17  2  0
 19 18  1  0
 20 21  1  0
 20 19  2  0
 21 22  2  0
 22 14  1  0
 22 17  1  0
 23 12  1  0
 24 23  2  0
 25 23  1  0
M  END
$$$$
