GSW.pdb
     RDKit          3D

 25 26  0  0  1  0  0  0  0  0999 V2000
   21.1080  -18.8972   12.9363 N   0  0  0  0  0  0  0  0  0  0  0  0
   19.6965  -19.1505   12.9167 C   0  0  0  0  0  0  0  0  0  0  0  0
   19.2101  -19.2618   11.4997 C   0  0  0  0  0  0  0  0  0  0  0  0
   20.0105  -19.5930   10.5761 O   0  0  0  0  0  0  0  0  0  0  0  0
   15.4460  -19.9034    8.6234 O   0  0  0  0  0  0  0  0  0  0  0  0
   15.9545  -19.6925    9.9029 C   0  0  0  0  0  0  0  0  0  0  0  0
   17.3304  -19.0433    9.8475 C   0  0  2  0  0  0  0  0  0  0  0  0
   17.8576  -18.9976   11.2000 N   0  0  0  0  0  0  0  0  0  0  0  0
   17.2620  -17.7078    9.2158 C   0  0  0  0  0  0  0  0  0  0  0  0
   17.0615  -16.6796    9.9426 O   0  0  0  0  0  0  0  0  0  0  0  0
   17.4075  -17.4828    7.8339 N   0  0  0  0  0  0  0  0  0  0  0  0
   17.2847  -16.1396    7.2683 C   0  0  1  0  0  0  0  0  0  0  0  0
   18.2450  -15.9881    6.1189 C   0  0  0  0  0  0  0  0  0  0  0  0
   18.4343  -14.5718    5.7585 C   0  0  0  0  0  0  0  0  0  0  0  0
   17.6644  -13.8699    4.8102 C   0  0  0  0  0  0  0  0  0  0  0  0
   18.1958  -12.6442    4.7482 N   0  0  0  0  0  0  0  0  0  0  0  0
   19.2377  -12.5302    5.5878 C   0  0  0  0  0  0  0  0  0  0  0  0
   20.0936  -11.4786    5.9088 C   0  0  0  0  0  0  0  0  0  0  0  0
   21.0967  -11.5925    6.8452 C   0  0  0  0  0  0  0  0  0  0  0  0
   21.2791  -12.7920    7.5060 C   0  0  0  0  0  0  0  0  0  0  0  0
   20.4412  -13.8417    7.1987 C   0  0  0  0  0  0  0  0  0  0  0  0
   19.4268  -13.7248    6.2496 C   0  0  0  0  0  0  0  0  0  0  0  0
   15.9073  -15.9177    6.8636 C   0  0  0  0  0  0  0  0  0  0  0  0
   15.2793  -14.8376    7.0322 O   0  0  0  0  0  0  0  0  0  0  0  0
   15.2017  -16.9530    6.2413 O   0  0  0  0  0  0  0  0  0  0  0  0
  2  3  1  0
  2  1  1  0
  3  4  2  0
  6  5  1  0
  7  6  1  1
  8  7  1  0
  8  3  1  0
  9 11  1  0
  9  7  1  0
 10  9  2  0
 12 11  1  0
 12 13  1  6
 13 14  1  0
 14 15  2  0
 15 16  1  0
 17 16  1  0
 18 17  2  0
 19 18  1  0
 20 21  1  0
 20 19  2  0
 21 22  2  0
 22 14  1  0
 22 17  1  0
 23 12  1  0
 24 23  2  0
 25 23  1  0
M  END
$$$$
