GSW.pdb
     RDKit          3D

 25 26  0  0  1  0  0  0  0  0999 V2000
   30.8951  -25.4599  -16.5991 N   0  0  0  0  0  0  0  0  0  0  0  0
   29.6127  -25.1860  -17.1798 C   0  0  0  0  0  0  0  0  0  0  0  0
   29.1329  -23.8265  -16.7573 C   0  0  0  0  0  0  0  0  0  0  0  0
   29.8003  -23.1467  -15.9232 O   0  0  0  0  0  0  0  0  0  0  0  0
   25.5161  -22.3719  -18.3642 O   0  0  0  0  0  0  0  0  0  0  0  0
   26.5344  -21.4892  -18.0117 C   0  0  0  0  0  0  0  0  0  0  0  0
   27.3680  -22.0419  -16.8640 C   0  0  2  0  0  0  0  0  0  0  0  0
   27.9362  -23.3075  -17.2936 N   0  0  0  0  0  0  0  0  0  0  0  0
   26.5584  -22.1681  -15.6328 C   0  0  0  0  0  0  0  0  0  0  0  0
   25.9707  -23.2707  -15.3786 O   0  0  0  0  0  0  0  0  0  0  0  0
   26.3857  -21.1325  -14.6952 N   0  0  0  0  0  0  0  0  0  0  0  0
   25.5556  -21.3186  -13.5055 C   0  0  1  0  0  0  0  0  0  0  0  0
   25.8114  -20.1980  -12.5333 C   0  0  0  0  0  0  0  0  0  0  0  0
   25.1716  -20.4580  -11.2315 C   0  0  0  0  0  0  0  0  0  0  0  0
   25.8340  -20.9513  -10.0902 C   0  0  0  0  0  0  0  0  0  0  0  0
   24.8881  -21.0922   -9.1553 N   0  0  0  0  0  0  0  0  0  0  0  0
   23.6870  -20.7221   -9.6286 C   0  0  0  0  0  0  0  0  0  0  0  0
   22.4164  -20.6578   -9.0607 C   0  0  0  0  0  0  0  0  0  0  0  0
   21.3130  -20.2072   -9.7502 C   0  0  0  0  0  0  0  0  0  0  0  0
   21.4502  -19.7965  -11.0623 C   0  0  0  0  0  0  0  0  0  0  0  0
   22.7005  -19.8551  -11.6382 C   0  0  0  0  0  0  0  0  0  0  0  0
   23.8163  -20.3127  -10.9388 C   0  0  0  0  0  0  0  0  0  0  0  0
   24.1607  -21.3891  -13.9047 C   0  0  0  0  0  0  0  0  0  0  0  0
   23.6047  -20.5846  -14.7004 O   0  0  0  0  0  0  0  0  0  0  0  0
   23.3521  -22.4076  -13.3891 O   0  0  0  0  0  0  0  0  0  0  0  0
  2  3  1  0
  2  1  1  0
  3  4  2  0
  6  5  1  0
  7  6  1  6
  8  7  1  0
  8  3  1  0
  9 11  1  0
  9  7  1  0
 10  9  2  0
 12 11  1  0
 12 13  1  1
 13 14  1  0
 14 15  2  0
 15 16  1  0
 17 16  1  0
 18 17  2  0
 19 18  1  0
 20 21  1  0
 20 19  2  0
 21 22  2  0
 22 14  1  0
 22 17  1  0
 23 12  1  0
 24 23  2  0
 25 23  1  0
M  END
$$$$
