GSW.pdb
     RDKit          3D

 25 26  0  0  1  0  0  0  0  0999 V2000
   23.3594  -21.9221  -19.0901 N   0  0  0  0  0  0  0  0  0  0  0  0
   22.4828  -21.9152  -17.9550 C   0  0  0  0  0  0  0  0  0  0  0  0
   23.0099  -20.9849  -16.8996 C   0  0  0  0  0  0  0  0  0  0  0  0
   24.1306  -20.4162  -17.0544 O   0  0  0  0  0  0  0  0  0  0  0  0
   20.6894  -20.3431  -13.4479 O   0  0  0  0  0  0  0  0  0  0  0  0
   21.4408  -19.3024  -13.9888 C   0  0  0  0  0  0  0  0  0  0  0  0
   22.6833  -19.8298  -14.6928 C   0  0  2  0  0  0  0  0  0  0  0  0
   22.2519  -20.7448  -15.7348 N   0  0  0  0  0  0  0  0  0  0  0  0
   23.6125  -20.4587  -13.7293 C   0  0  0  0  0  0  0  0  0  0  0  0
   23.5597  -21.7181  -13.5375 O   0  0  0  0  0  0  0  0  0  0  0  0
   24.5778  -19.7497  -12.9898 N   0  0  0  0  0  0  0  0  0  0  0  0
   25.4164  -20.4222  -11.9981 C   0  0  1  0  0  0  0  0  0  0  0  0
   26.4475  -19.4584  -11.4745 C   0  0  0  0  0  0  0  0  0  0  0  0
   27.4131  -20.1319  -10.5882 C   0  0  0  0  0  0  0  0  0  0  0  0
   28.3417  -21.1085  -10.9990 C   0  0  0  0  0  0  0  0  0  0  0  0
   28.9782  -21.4930   -9.8874 N   0  0  0  0  0  0  0  0  0  0  0  0
   28.5166  -20.8279   -8.8160 C   0  0  0  0  0  0  0  0  0  0  0  0
   28.8562  -20.8428   -7.4648 C   0  0  0  0  0  0  0  0  0  0  0  0
   28.2482  -20.0308   -6.5337 C   0  0  0  0  0  0  0  0  0  0  0  0
   27.2566  -19.1566   -6.9359 C   0  0  0  0  0  0  0  0  0  0  0  0
   26.9089  -19.1310   -8.2689 C   0  0  0  0  0  0  0  0  0  0  0  0
   27.5250  -19.9547   -9.2099 C   0  0  0  0  0  0  0  0  0  0  0  0
   24.5724  -20.9490  -10.9397 C   0  0  0  0  0  0  0  0  0  0  0  0
   23.5531  -20.3648  -10.4824 O   0  0  0  0  0  0  0  0  0  0  0  0
   24.8845  -22.1871  -10.3680 O   0  0  0  0  0  0  0  0  0  0  0  0
  2  3  1  0
  2  1  1  0
  3  4  2  0
  6  5  1  0
  7  6  1  1
  8  7  1  0
  8  3  1  0
  9 11  1  0
  9  7  1  0
 10  9  2  0
 12 11  1  0
 12 13  1  1
 13 14  1  0
 14 15  2  0
 15 16  1  0
 17 16  1  0
 18 17  2  0
 19 18  1  0
 20 21  1  0
 20 19  2  0
 21 22  2  0
 22 14  1  0
 22 17  1  0
 23 12  1  0
 24 23  2  0
 25 23  1  0
M  END
$$$$
