GSW.pdb
     RDKit          3D

 25 26  0  0  1  0  0  0  0  0999 V2000
   28.9353  -20.0684  -14.7881 N   0  0  0  0  0  0  0  0  0  0  0  0
   27.9483  -19.4742  -13.9339 C   0  0  0  0  0  0  0  0  0  0  0  0
   27.0115  -20.5275  -13.4146 C   0  0  0  0  0  0  0  0  0  0  0  0
   27.3506  -21.7473  -13.4353 O   0  0  0  0  0  0  0  0  0  0  0  0
   25.5028  -20.4868  -10.0498 O   0  0  0  0  0  0  0  0  0  0  0  0
   25.4597  -21.5417  -10.9585 C   0  0  0  0  0  0  0  0  0  0  0  0
   24.8451  -21.1034  -12.2806 C   0  0  2  0  0  0  0  0  0  0  0  0
   25.7519  -20.1542  -12.9018 N   0  0  0  0  0  0  0  0  0  0  0  0
   23.4892  -20.5490  -12.0776 C   0  0  0  0  0  0  0  0  0  0  0  0
   23.3002  -19.6680  -11.1754 O   0  0  0  0  0  0  0  0  0  0  0  0
   22.3620  -20.9321  -12.8286 N   0  0  0  0  0  0  0  0  0  0  0  0
   21.0731  -20.2630  -12.6550 C   0  0  1  0  0  0  0  0  0  0  0  0
   20.8838  -19.2447  -13.7475 C   0  0  0  0  0  0  0  0  0  0  0  0
   21.5022  -19.6877  -15.0096 C   0  0  0  0  0  0  0  0  0  0  0  0
   20.9959  -20.7036  -15.8441 C   0  0  0  0  0  0  0  0  0  0  0  0
   21.8780  -20.8255  -16.8419 N   0  0  0  0  0  0  0  0  0  0  0  0
   22.8944  -19.9607  -16.6919 C   0  0  0  0  0  0  0  0  0  0  0  0
   24.0272  -19.6787  -17.4524 C   0  0  0  0  0  0  0  0  0  0  0  0
   24.9358  -18.7042  -17.1046 C   0  0  0  0  0  0  0  0  0  0  0  0
   24.7338  -17.9630  -15.9562 C   0  0  0  0  0  0  0  0  0  0  0  0
   23.6185  -18.2308  -15.1929 C   0  0  0  0  0  0  0  0  0  0  0  0
   22.7003  -19.2186  -15.5462 C   0  0  0  0  0  0  0  0  0  0  0  0
   20.0165  -21.2598  -12.6468 C   0  0  0  0  0  0  0  0  0  0  0  0
   20.1694  -22.4643  -12.9860 O   0  0  0  0  0  0  0  0  0  0  0  0
   18.7302  -20.8901  -12.2397 O   0  0  0  0  0  0  0  0  0  0  0  0
  2  3  1  0
  2  1  1  0
  3  4  2  0
  6  5  1  0
  7  6  1  1
  8  7  1  0
  8  3  1  0
  9 11  1  0
  9  7  1  0
 10  9  2  0
 12 11  1  0
 12 13  1  6
 13 14  1  0
 14 15  2  0
 15 16  1  0
 17 16  1  0
 18 17  2  0
 19 18  1  0
 20 21  1  0
 20 19  2  0
 21 22  2  0
 22 14  1  0
 22 17  1  0
 23 12  1  0
 24 23  2  0
 25 23  1  0
M  END
$$$$
