GSW.pdb
     RDKit          3D

 25 26  0  0  1  0  0  0  0  0999 V2000
   29.8641  -22.8124  -17.0029 N   0  0  0  0  0  0  0  0  0  0  0  0
   28.8482  -21.8071  -16.8837 C   0  0  0  0  0  0  0  0  0  0  0  0
   28.7689  -21.3169  -15.4658 C   0  0  0  0  0  0  0  0  0  0  0  0
   29.3445  -21.9575  -14.5376 O   0  0  0  0  0  0  0  0  0  0  0  0
   26.2576  -18.0537  -14.5949 O   0  0  0  0  0  0  0  0  0  0  0  0
   27.4650  -18.1751  -13.9110 C   0  0  0  0  0  0  0  0  0  0  0  0
   27.9002  -19.6311  -13.8183 C   0  0  2  0  0  0  0  0  0  0  0  0
   28.0521  -20.1388  -15.1705 N   0  0  0  0  0  0  0  0  0  0  0  0
   26.9416  -20.4214  -13.0160 C   0  0  0  0  0  0  0  0  0  0  0  0
   26.0320  -21.0918  -13.6066 O   0  0  0  0  0  0  0  0  0  0  0  0
   26.9616  -20.4906  -11.6102 N   0  0  0  0  0  0  0  0  0  0  0  0
   26.0639  -21.3877  -10.8833 C   0  0  1  0  0  0  0  0  0  0  0  0
   26.7116  -21.8090   -9.5913 C   0  0  0  0  0  0  0  0  0  0  0  0
   26.6966  -20.7181   -8.6006 C   0  0  0  0  0  0  0  0  0  0  0  0
   25.8639  -19.5833   -8.6613 C   0  0  0  0  0  0  0  0  0  0  0  0
   26.2050  -18.8274   -7.6121 N   0  0  0  0  0  0  0  0  0  0  0  0
   27.1863  -19.4073   -6.9021 C   0  0  0  0  0  0  0  0  0  0  0  0
   27.8604  -19.0488   -5.7366 C   0  0  0  0  0  0  0  0  0  0  0  0
   28.8345  -19.8370   -5.1657 C   0  0  0  0  0  0  0  0  0  0  0  0
   29.1729  -21.0385   -5.7581 C   0  0  0  0  0  0  0  0  0  0  0  0
   28.5158  -21.4064   -6.9119 C   0  0  0  0  0  0  0  0  0  0  0  0
   27.5305  -20.6065   -7.4890 C   0  0  0  0  0  0  0  0  0  0  0  0
   24.7941  -20.7167  -10.6656 C   0  0  0  0  0  0  0  0  0  0  0  0
   24.6098  -19.4769  -10.8008 O   0  0  0  0  0  0  0  0  0  0  0  0
   23.6799  -21.4693  -10.2794 O   0  0  0  0  0  0  0  0  0  0  0  0
  2  3  1  0
  2  1  1  0
  3  4  2  0
  6  5  1  0
  7  6  1  6
  8  7  1  0
  8  3  1  0
  9 11  1  0
  9  7  1  0
 10  9  2  0
 12 11  1  0
 12 13  1  1
 13 14  1  0
 14 15  2  0
 15 16  1  0
 17 16  1  0
 18 17  2  0
 19 18  1  0
 20 21  1  0
 20 19  2  0
 21 22  2  0
 22 14  1  0
 22 17  1  0
 23 12  1  0
 24 23  2  0
 25 23  1  0
M  END
$$$$
