GSW.pdb
     RDKit          3D

 25 26  0  0  1  0  0  0  0  0999 V2000
   29.5119  -27.0139  -16.3736 N   0  0  0  0  0  0  0  0  0  0  0  0
   29.5390  -25.7187  -16.9890 C   0  0  0  0  0  0  0  0  0  0  0  0
   28.3977  -24.8820  -16.4847 C   0  0  0  0  0  0  0  0  0  0  0  0
   27.4862  -25.4071  -15.7798 O   0  0  0  0  0  0  0  0  0  0  0  0
   28.3305  -20.8327  -17.5261 O   0  0  0  0  0  0  0  0  0  0  0  0
   27.7823  -21.2210  -16.3058 C   0  0  0  0  0  0  0  0  0  0  0  0
   27.2550  -22.6477  -16.3693 C   0  0  2  0  0  0  0  0  0  0  0  0
   28.3442  -23.5079  -16.7974 N   0  0  0  0  0  0  0  0  0  0  0  0
   26.0741  -22.7382  -17.2550 C   0  0  0  0  0  0  0  0  0  0  0  0
   26.2413  -22.8722  -18.5119 O   0  0  0  0  0  0  0  0  0  0  0  0
   24.7432  -22.6871  -16.7993 N   0  0  0  0  0  0  0  0  0  0  0  0
   23.6220  -22.6564  -17.7380 C   0  0  1  0  0  0  0  0  0  0  0  0
   22.3511  -23.0151  -17.0154 C   0  0  0  0  0  0  0  0  0  0  0  0
   21.2412  -23.2415  -17.9580 C   0  0  0  0  0  0  0  0  0  0  0  0
   20.9243  -24.4799  -18.5502 C   0  0  0  0  0  0  0  0  0  0  0  0
   19.8970  -24.2363  -19.3710 N   0  0  0  0  0  0  0  0  0  0  0  0
   19.5496  -22.9396  -19.3329 C   0  0  0  0  0  0  0  0  0  0  0  0
   18.5527  -22.2000  -19.9658 C   0  0  0  0  0  0  0  0  0  0  0  0
   18.3669  -20.8540  -19.7426 C   0  0  0  0  0  0  0  0  0  0  0  0
   19.1935  -20.1897  -18.8570 C   0  0  0  0  0  0  0  0  0  0  0  0
   20.1848  -20.9072  -18.2240 C   0  0  0  0  0  0  0  0  0  0  0  0
   20.3721  -22.2698  -18.4521 C   0  0  0  0  0  0  0  0  0  0  0  0
   23.5505  -21.3415  -18.3512 C   0  0  0  0  0  0  0  0  0  0  0  0
   23.7259  -20.2561  -17.7345 O   0  0  0  0  0  0  0  0  0  0  0  0
   23.2700  -21.2383  -19.7179 O   0  0  0  0  0  0  0  0  0  0  0  0
  2  3  1  0
  2  1  1  0
  3  4  2  0
  6  5  1  0
  7  6  1  6
  8  7  1  0
  8  3  1  0
  9 11  1  0
  9  7  1  0
 10  9  2  0
 12 11  1  0
 12 13  1  1
 13 14  1  0
 14 15  2  0
 15 16  1  0
 17 16  1  0
 18 17  2  0
 19 18  1  0
 20 21  1  0
 20 19  2  0
 21 22  2  0
 22 14  1  0
 22 17  1  0
 23 12  1  0
 24 23  2  0
 25 23  1  0
M  END
$$$$
