GSW.pdb
     RDKit          3D

 25 26  0  0  1  0  0  0  0  0999 V2000
   30.0403  -36.6597   -6.7531 N   0  0  0  0  0  0  0  0  0  0  0  0
   30.1628  -36.7122   -5.3251 C   0  0  0  0  0  0  0  0  0  0  0  0
   28.8106  -36.5785   -4.6843 C   0  0  0  0  0  0  0  0  0  0  0  0
   27.7983  -36.2902   -5.3882 O   0  0  0  0  0  0  0  0  0  0  0  0
   28.6560  -36.7036   -0.5308 O   0  0  0  0  0  0  0  0  0  0  0  0
   27.5353  -37.1736   -1.2116 C   0  0  0  0  0  0  0  0  0  0  0  0
   27.4233  -36.5379   -2.5904 C   0  0  2  0  0  0  0  0  0  0  0  0
   28.6706  -36.7766   -3.2951 N   0  0  0  0  0  0  0  0  0  0  0  0
   27.0921  -35.1003   -2.4866 C   0  0  0  0  0  0  0  0  0  0  0  0
   28.0192  -34.2587   -2.2459 O   0  0  0  0  0  0  0  0  0  0  0  0
   25.7935  -34.5790   -2.6397 N   0  0  0  0  0  0  0  0  0  0  0  0
   25.5228  -33.1538   -2.4539 C   0  0  1  0  0  0  0  0  0  0  0  0
   24.1418  -32.8339   -2.9607 C   0  0  0  0  0  0  0  0  0  0  0  0
   23.8614  -31.3892   -2.8841 C   0  0  0  0  0  0  0  0  0  0  0  0
   24.6151  -30.3851   -3.5234 C   0  0  0  0  0  0  0  0  0  0  0  0
   24.0614  -29.2256   -3.1526 N   0  0  0  0  0  0  0  0  0  0  0  0
   23.0188  -29.4326   -2.3320 C   0  0  0  0  0  0  0  0  0  0  0  0
   22.1146  -28.5785   -1.7042 C   0  0  0  0  0  0  0  0  0  0  0  0
   21.0846  -29.0342   -0.9119 C   0  0  0  0  0  0  0  0  0  0  0  0
   20.9234  -30.3927   -0.7185 C   0  0  0  0  0  0  0  0  0  0  0  0
   21.8104  -31.2502   -1.3320 C   0  0  0  0  0  0  0  0  0  0  0  0
   22.8532  -30.7869   -2.1330 C   0  0  0  0  0  0  0  0  0  0  0  0
   25.6817  -32.8183   -1.0495 C   0  0  0  0  0  0  0  0  0  0  0  0
   25.2957  -33.5448   -0.0942 O   0  0  0  0  0  0  0  0  0  0  0  0
   26.3017  -31.6141   -0.6996 O   0  0  0  0  0  0  0  0  0  0  0  0
  2  3  1  0
  2  1  1  0
  3  4  2  0
  6  5  1  0
  7  6  1  1
  8  7  1  0
  8  3  1  0
  9 11  1  0
  9  7  1  0
 10  9  2  0
 12 11  1  0
 12 13  1  1
 13 14  1  0
 14 15  2  0
 15 16  1  0
 17 16  1  0
 18 17  2  0
 19 18  1  0
 20 21  1  0
 20 19  2  0
 21 22  2  0
 22 14  1  0
 22 17  1  0
 23 12  1  0
 24 23  2  0
 25 23  1  0
M  END
$$$$
