GSW.pdb
     RDKit          3D

 25 26  0  0  1  0  0  0  0  0999 V2000
   26.6586  -19.8655  -16.4519 N   0  0  0  0  0  0  0  0  0  0  0  0
   25.7415  -20.7387  -15.7784 C   0  0  0  0  0  0  0  0  0  0  0  0
   25.3839  -20.1751  -14.4325 C   0  0  0  0  0  0  0  0  0  0  0  0
   26.1510  -19.3412  -13.8673 O   0  0  0  0  0  0  0  0  0  0  0  0
   22.1545  -21.0614  -11.0085 O   0  0  0  0  0  0  0  0  0  0  0  0
   22.3461  -20.4740  -12.2569 C   0  0  0  0  0  0  0  0  0  0  0  0
   23.8090  -20.1141  -12.4763 C   0  0  2  0  0  0  0  0  0  0  0  0
   24.1892  -20.5763  -13.7996 N   0  0  0  0  0  0  0  0  0  0  0  0
   24.6606  -20.6793  -11.4074 C   0  0  0  0  0  0  0  0  0  0  0  0
   24.9918  -21.9097  -11.4539 O   0  0  0  0  0  0  0  0  0  0  0  0
   25.1465  -19.9379  -10.3140 N   0  0  0  0  0  0  0  0  0  0  0  0
   26.0053  -20.5540   -9.3030 C   0  0  1  0  0  0  0  0  0  0  0  0
   26.9294  -19.5146   -8.7269 C   0  0  0  0  0  0  0  0  0  0  0  0
   27.9829  -20.1295   -7.9001 C   0  0  0  0  0  0  0  0  0  0  0  0
   28.7432  -21.2571   -8.2678 C   0  0  0  0  0  0  0  0  0  0  0  0
   29.5370  -21.5150   -7.2229 N   0  0  0  0  0  0  0  0  0  0  0  0
   29.3289  -20.6316   -6.2330 C   0  0  0  0  0  0  0  0  0  0  0  0
   29.9034  -20.4544   -4.9761 C   0  0  0  0  0  0  0  0  0  0  0  0
   29.5380  -19.4349   -4.1258 C   0  0  0  0  0  0  0  0  0  0  0  0
   28.5619  -18.5385   -4.5166 C   0  0  0  0  0  0  0  0  0  0  0  0
   27.9835  -18.7012   -5.7564 C   0  0  0  0  0  0  0  0  0  0  0  0
   28.3541  -19.7348   -6.6156 C   0  0  0  0  0  0  0  0  0  0  0  0
   25.1739  -21.1718   -8.2846 C   0  0  0  0  0  0  0  0  0  0  0  0
   24.0269  -20.7644   -7.9560 O   0  0  0  0  0  0  0  0  0  0  0  0
   25.6492  -22.2976   -7.6036 O   0  0  0  0  0  0  0  0  0  0  0  0
  2  3  1  0
  2  1  1  0
  3  4  2  0
  6  5  1  0
  7  6  1  1
  8  7  1  0
  8  3  1  0
  9 11  1  0
  9  7  1  0
 10  9  2  0
 12 11  1  0
 12 13  1  1
 13 14  1  0
 14 15  2  0
 15 16  1  0
 17 16  1  0
 18 17  2  0
 19 18  1  0
 20 21  1  0
 20 19  2  0
 21 22  2  0
 22 14  1  0
 22 17  1  0
 23 12  1  0
 24 23  2  0
 25 23  1  0
M  END
$$$$
