GSW.pdb
     RDKit          3D

 25 26  0  0  1  0  0  0  0  0999 V2000
   26.3360  -24.6350  -16.7163 N   0  0  0  0  0  0  0  0  0  0  0  0
   25.3876  -23.6884  -16.2050 C   0  0  0  0  0  0  0  0  0  0  0  0
   26.0589  -22.7531  -15.2398 C   0  0  0  0  0  0  0  0  0  0  0  0
   27.1324  -23.0965  -14.6627 O   0  0  0  0  0  0  0  0  0  0  0  0
   24.0986  -19.1699  -14.1412 O   0  0  0  0  0  0  0  0  0  0  0  0
   25.4803  -19.1760  -14.3177 C   0  0  0  0  0  0  0  0  0  0  0  0
   26.0651  -20.5517  -14.0295 C   0  0  2  0  0  0  0  0  0  0  0  0
   25.4906  -21.4891  -14.9785 N   0  0  0  0  0  0  0  0  0  0  0  0
   25.8283  -20.9451  -12.6237 C   0  0  0  0  0  0  0  0  0  0  0  0
   24.8195  -21.6700  -12.3364 O   0  0  0  0  0  0  0  0  0  0  0  0
   26.6584  -20.5688  -11.5509 N   0  0  0  0  0  0  0  0  0  0  0  0
   26.3266  -20.9311  -10.1733 C   0  0  1  0  0  0  0  0  0  0  0  0
   27.4272  -20.4735   -9.2539 C   0  0  0  0  0  0  0  0  0  0  0  0
   27.0337  -20.5978   -7.8392 C   0  0  0  0  0  0  0  0  0  0  0  0
   25.9006  -21.2941   -7.3743 C   0  0  0  0  0  0  0  0  0  0  0  0
   25.8835  -21.1140   -6.0492 N   0  0  0  0  0  0  0  0  0  0  0  0
   26.9218  -20.3592   -5.6544 C   0  0  0  0  0  0  0  0  0  0  0  0
   27.3589  -19.9149   -4.4082 C   0  0  0  0  0  0  0  0  0  0  0  0
   28.4964  -19.1567   -4.2434 C   0  0  0  0  0  0  0  0  0  0  0  0
   29.2509  -18.8109   -5.3481 C   0  0  0  0  0  0  0  0  0  0  0  0
   28.8309  -19.2420   -6.5875 C   0  0  0  0  0  0  0  0  0  0  0  0
   27.6783  -20.0087   -6.7525 C   0  0  0  0  0  0  0  0  0  0  0  0
   25.0432  -20.3474   -9.8236 C   0  0  0  0  0  0  0  0  0  0  0  0
   24.7057  -19.1601  -10.0800 O   0  0  0  0  0  0  0  0  0  0  0  0
   24.0946  -21.1300   -9.1566 O   0  0  0  0  0  0  0  0  0  0  0  0
  2  3  1  0
  2  1  1  0
  3  4  2  0
  6  5  1  0
  7  6  1  1
  8  7  1  0
  8  3  1  0
  9 11  1  0
  9  7  1  0
 10  9  2  0
 12 11  1  0
 12 13  1  1
 13 14  1  0
 14 15  2  0
 15 16  1  0
 17 16  1  0
 18 17  2  0
 19 18  1  0
 20 21  1  0
 20 19  2  0
 21 22  2  0
 22 14  1  0
 22 17  1  0
 23 12  1  0
 24 23  2  0
 25 23  1  0
M  END
$$$$
