GSW.pdb
     RDKit          3D

 25 26  0  0  1  0  0  0  0  0999 V2000
   26.7673  -25.3475  -16.4672 N   0  0  0  0  0  0  0  0  0  0  0  0
   26.0057  -24.1322  -16.4718 C   0  0  0  0  0  0  0  0  0  0  0  0
   26.6341  -23.1241  -15.5520 C   0  0  0  0  0  0  0  0  0  0  0  0
   27.7781  -23.3420  -15.0550 O   0  0  0  0  0  0  0  0  0  0  0  0
   24.5741  -19.5113  -14.7151 O   0  0  0  0  0  0  0  0  0  0  0  0
   25.9640  -19.5703  -14.7864 C   0  0  0  0  0  0  0  0  0  0  0  0
   26.4801  -20.9304  -14.3376 C   0  0  2  0  0  0  0  0  0  0  0  0
   25.9465  -21.9320  -15.2440 N   0  0  0  0  0  0  0  0  0  0  0  0
   26.1272  -21.1923  -12.9255 C   0  0  0  0  0  0  0  0  0  0  0  0
   25.0700  -21.8517  -12.6548 O   0  0  0  0  0  0  0  0  0  0  0  0
   26.8947  -20.7564  -11.8289 N   0  0  0  0  0  0  0  0  0  0  0  0
   26.4856  -21.0465  -10.4551 C   0  0  1  0  0  0  0  0  0  0  0  0
   27.5807  -20.6367   -9.5069 C   0  0  0  0  0  0  0  0  0  0  0  0
   27.0939  -20.5721   -8.1175 C   0  0  0  0  0  0  0  0  0  0  0  0
   25.8009  -20.9409   -7.6968 C   0  0  0  0  0  0  0  0  0  0  0  0
   25.7584  -20.6789   -6.3860 N   0  0  0  0  0  0  0  0  0  0  0  0
   26.9282  -20.1763   -5.9591 C   0  0  0  0  0  0  0  0  0  0  0  0
   27.3945  -19.7742   -4.7092 C   0  0  0  0  0  0  0  0  0  0  0  0
   28.6736  -19.3070   -4.5050 C   0  0  0  0  0  0  0  0  0  0  0  0
   29.5477  -19.2255   -5.5719 C   0  0  0  0  0  0  0  0  0  0  0  0
   29.1010  -19.6186   -6.8146 C   0  0  0  0  0  0  0  0  0  0  0  0
   27.8052  -20.0905   -7.0195 C   0  0  0  0  0  0  0  0  0  0  0  0
   25.2353  -20.3616  -10.1760 C   0  0  0  0  0  0  0  0  0  0  0  0
   24.9561  -19.1973  -10.5706 O   0  0  0  0  0  0  0  0  0  0  0  0
   24.2532  -21.0111   -9.4206 O   0  0  0  0  0  0  0  0  0  0  0  0
  2  3  1  0
  2  1  1  0
  3  4  2  0
  6  5  1  0
  7  6  1  6
  8  7  1  0
  8  3  1  0
  9 11  1  0
  9  7  1  0
 10  9  2  0
 12 11  1  0
 12 13  1  1
 13 14  1  0
 14 15  2  0
 15 16  1  0
 17 16  1  0
 18 17  2  0
 19 18  1  0
 20 21  1  0
 20 19  2  0
 21 22  2  0
 22 14  1  0
 22 17  1  0
 23 12  1  0
 24 23  2  0
 25 23  1  0
M  END
$$$$
