TAA.pdb
     RDKit          3D

 18 17  0  0  1  0  0  0  0  0999 V2000
    6.4490  -18.5277   17.6877 C   0  0  0  0  0  0  0  0  0  0  0  0
    7.2382  -18.0324   18.8527 C   0  0  1  0  0  0  0  0  0  0  0  0
    8.4614  -18.7455   18.8386 O   0  0  0  0  0  0  0  0  0  0  0  0
    7.6232  -16.5739   18.7736 C   0  0  2  0  0  0  0  0  0  0  0  0
    8.5329  -16.4759   17.6197 N   0  0  0  0  0  0  0  0  0  0  0  0
    8.3542  -16.0821   19.9488 C   0  0  0  0  0  0  0  0  0  0  0  0
    9.6274  -16.1835   20.0241 O   0  0  0  0  0  0  0  0  0  0  0  0
    7.5459  -14.2537   23.1271 C   0  0  0  0  0  0  0  0  0  0  0  0
    8.5122  -14.9658   22.2053 C   0  0  2  0  0  0  0  0  0  0  0  0
    7.7530  -15.4659   21.0824 N   0  0  0  0  0  0  0  0  0  0  0  0
    9.2450  -16.0509   22.9068 C   0  0  0  0  0  0  0  0  0  0  0  0
    8.6325  -17.1237   23.0984 O   0  0  0  0  0  0  0  0  0  0  0  0
   12.7796  -16.9406   23.7888 C   0  0  0  0  0  0  0  0  0  0  0  0
   11.3017  -16.9754   24.0319 C   0  0  2  0  0  0  0  0  0  0  0  0
   10.5733  -15.9376   23.3610 N   0  0  0  0  0  0  0  0  0  0  0  0
   10.9784  -17.0474   25.4814 C   0  0  0  0  0  0  0  0  0  0  0  0
   10.0890  -16.1096   25.9800 O   0  0  0  0  0  0  0  0  0  0  0  0
   11.4648  -17.8981   26.2466 O   0  0  0  0  0  0  0  0  0  0  0  0
  2  1  1  6
  3  2  1  0
  4  6  1  0
  4  5  1  6
  4  2  1  0
  6  7  2  0
  9  8  1  1
  9 11  1  0
 10  9  1  0
 10  6  1  0
 11 15  1  0
 11 12  2  0
 14 13  1  1
 14 16  1  0
 15 14  1  0
 16 18  2  0
 16 17  1  0
M  END
$$$$
