TAA.pdb
     RDKit          3D

 18 17  0  0  1  0  0  0  0  0999 V2000
   -5.8052  -25.8364   25.1576 C   0  0  0  0  0  0  0  0  0  0  0  0
   -4.5408  -26.5022   25.5857 C   0  0  1  0  0  0  0  0  0  0  0  0
   -4.0560  -27.2033   24.4552 O   0  0  0  0  0  0  0  0  0  0  0  0
   -3.4329  -25.5515   25.9737 C   0  0  2  0  0  0  0  0  0  0  0  0
   -2.2846  -26.4110   26.3071 N   0  0  0  0  0  0  0  0  0  0  0  0
   -3.7288  -24.7384   27.1607 C   0  0  0  0  0  0  0  0  0  0  0  0
   -3.9378  -25.2839   28.2989 O   0  0  0  0  0  0  0  0  0  0  0  0
   -3.8296  -21.1138   28.0889 C   0  0  0  0  0  0  0  0  0  0  0  0
   -4.1990  -22.5596   28.3415 C   0  0  2  0  0  0  0  0  0  0  0  0
   -3.8113  -23.3174   27.1742 N   0  0  0  0  0  0  0  0  0  0  0  0
   -5.6443  -22.7137   28.6480 C   0  0  0  0  0  0  0  0  0  0  0  0
   -6.4372  -22.7129   27.6816 O   0  0  0  0  0  0  0  0  0  0  0  0
   -7.8216  -23.7748   31.5189 C   0  0  0  0  0  0  0  0  0  0  0  0
   -7.5536  -22.9940   30.2686 C   0  0  2  0  0  0  0  0  0  0  0  0
   -6.1616  -22.8585   29.9499 N   0  0  0  0  0  0  0  0  0  0  0  0
   -8.2645  -21.6881   30.2658 C   0  0  0  0  0  0  0  0  0  0  0  0
   -9.5966  -21.6921   29.8854 O   0  0  0  0  0  0  0  0  0  0  0  0
   -7.7214  -20.6160   30.5846 O   0  0  0  0  0  0  0  0  0  0  0  0
  2  1  1  6
  3  2  1  0
  4  6  1  0
  4  5  1  1
  4  2  1  0
  6  7  2  0
  9  8  1  6
  9 11  1  0
 10  9  1  0
 10  6  1  0
 11 15  1  0
 11 12  2  0
 14 13  1  1
 14 16  1  0
 15 14  1  0
 16 18  2  0
 16 17  1  0
M  END
$$$$
