TAA.pdb
     RDKit          3D

 18 17  0  0  1  0  0  0  0  0999 V2000
    6.7486  -22.0279   22.5763 C   0  0  0  0  0  0  0  0  0  0  0  0
    7.0402  -21.1687   21.3922 C   0  0  1  0  0  0  0  0  0  0  0  0
    6.2433  -21.6653   20.3325 O   0  0  0  0  0  0  0  0  0  0  0  0
    6.6368  -19.7220   21.5538 C   0  0  2  0  0  0  0  0  0  0  0  0
    6.9306  -19.0912   20.2559 N   0  0  0  0  0  0  0  0  0  0  0  0
    7.4032  -18.9963   22.5753 C   0  0  0  0  0  0  0  0  0  0  0  0
    8.6347  -18.7023   22.3913 O   0  0  0  0  0  0  0  0  0  0  0  0
    6.8126  -16.9816   25.6143 C   0  0  0  0  0  0  0  0  0  0  0  0
    7.6963  -17.9420   24.8480 C   0  0  2  0  0  0  0  0  0  0  0  0
    6.8829  -18.5597   23.8262 N   0  0  0  0  0  0  0  0  0  0  0  0
    8.3219  -18.9491   25.7430 C   0  0  0  0  0  0  0  0  0  0  0  0
    7.5746  -19.8263   26.2276 O   0  0  0  0  0  0  0  0  0  0  0  0
   11.7975  -20.1703   26.4914 C   0  0  0  0  0  0  0  0  0  0  0  0
   10.3428  -20.0092   26.8118 C   0  0  2  0  0  0  0  0  0  0  0  0
    9.6916  -18.9684   26.0700 N   0  0  0  0  0  0  0  0  0  0  0  0
   10.1054  -19.8947   28.2751 C   0  0  0  0  0  0  0  0  0  0  0  0
    9.5199  -18.7256   28.7329 O   0  0  0  0  0  0  0  0  0  0  0  0
   10.4056  -20.7881   29.0861 O   0  0  0  0  0  0  0  0  0  0  0  0
  2  1  1  1
  3  2  1  0
  4  6  1  0
  4  5  1  6
  4  2  1  0
  6  7  2  0
  9  8  1  1
  9 11  1  0
 10  9  1  0
 10  6  1  0
 11 15  1  0
 11 12  2  0
 14 13  1  1
 14 16  1  0
 15 14  1  0
 16 18  2  0
 16 17  1  0
M  END
$$$$
