TAA.pdb
     RDKit          3D

 18 17  0  0  1  0  0  0  0  0999 V2000
   10.5460  -15.7400   21.6262 C   0  0  0  0  0  0  0  0  0  0  0  0
    9.6288  -16.4060   20.6566 C   0  0  1  0  0  0  0  0  0  0  0  0
   10.4544  -17.0418   19.6980 O   0  0  0  0  0  0  0  0  0  0  0  0
    8.7823  -17.5072   21.2505 C   0  0  2  0  0  0  0  0  0  0  0  0
    7.9295  -17.9780   20.1461 N   0  0  0  0  0  0  0  0  0  0  0  0
    7.8918  -17.0625   22.3307 C   0  0  0  0  0  0  0  0  0  0  0  0
    6.9038  -16.2851   22.0935 O   0  0  0  0  0  0  0  0  0  0  0  0
    7.1520  -17.9024   25.8693 C   0  0  0  0  0  0  0  0  0  0  0  0
    7.1946  -16.8864   24.7484 C   0  0  2  0  0  0  0  0  0  0  0  0
    8.0244  -17.4317   23.6990 N   0  0  0  0  0  0  0  0  0  0  0  0
    7.6905  -15.5674   25.2187 C   0  0  0  0  0  0  0  0  0  0  0  0
    8.9266  -15.3819   25.2016 O   0  0  0  0  0  0  0  0  0  0  0  0
    6.2180  -12.2725   26.4209 C   0  0  0  0  0  0  0  0  0  0  0  0
    7.3142  -13.2589   26.1565 C   0  0  2  0  0  0  0  0  0  0  0  0
    6.8549  -14.5300   25.6759 N   0  0  0  0  0  0  0  0  0  0  0  0
    8.2344  -13.3916   27.3169 C   0  0  0  0  0  0  0  0  0  0  0  0
    8.9268  -12.2579   27.7100 O   0  0  0  0  0  0  0  0  0  0  0  0
    8.4027  -14.4574   27.9346 O   0  0  0  0  0  0  0  0  0  0  0  0
  2  1  1  1
  3  2  1  0
  4  6  1  0
  4  5  1  6
  4  2  1  0
  6  7  2  0
  9  8  1  1
  9 11  1  0
 10  9  1  0
 10  6  1  0
 11 15  1  0
 11 12  2  0
 14 13  1  1
 14 16  1  0
 15 14  1  0
 16 18  2  0
 16 17  1  0
M  END
$$$$
