TAA.pdb
     RDKit          3D

 18 17  0  0  1  0  0  0  0  0999 V2000
   -2.3659  -21.4877   25.6820 C   0  0  0  0  0  0  0  0  0  0  0  0
   -3.5062  -22.3668   26.0718 C   0  0  1  0  0  0  0  0  0  0  0  0
   -2.9868  -23.6814   26.1550 O   0  0  0  0  0  0  0  0  0  0  0  0
   -4.0827  -22.0760   27.4375 C   0  0  2  0  0  0  0  0  0  0  0  0
   -3.0209  -22.4393   28.3909 N   0  0  0  0  0  0  0  0  0  0  0  0
   -5.2648  -22.8807   27.7730 C   0  0  0  0  0  0  0  0  0  0  0  0
   -6.3501  -22.7696   27.1047 O   0  0  0  0  0  0  0  0  0  0  0  0
   -6.1132  -25.6964   30.0950 C   0  0  0  0  0  0  0  0  0  0  0  0
   -6.5137  -24.6027   29.1285 C   0  0  2  0  0  0  0  0  0  0  0  0
   -5.3295  -23.8304   28.8313 N   0  0  0  0  0  0  0  0  0  0  0  0
   -7.6052  -23.7564   29.6753 C   0  0  0  0  0  0  0  0  0  0  0  0
   -7.2716  -22.7572   30.3484 O   0  0  0  0  0  0  0  0  0  0  0  0
  -11.4011  -23.5991   29.4922 C   0  0  0  0  0  0  0  0  0  0  0  0
  -10.0443  -23.2094   29.9942 C   0  0  2  0  0  0  0  0  0  0  0  0
   -8.9755  -24.0155   29.4789 N   0  0  0  0  0  0  0  0  0  0  0  0
  -10.0095  -23.1041   31.4770 C   0  0  0  0  0  0  0  0  0  0  0  0
  -10.6965  -22.0486   32.0540 O   0  0  0  0  0  0  0  0  0  0  0  0
   -9.4009  -23.9092   32.2031 O   0  0  0  0  0  0  0  0  0  0  0  0
  2  1  1  1
  3  2  1  0
  4  6  1  0
  4  5  1  1
  4  2  1  0
  6  7  2  0
  9  8  1  1
  9 11  1  0
 10  9  1  0
 10  6  1  0
 11 15  1  0
 11 12  2  0
 14 13  1  1
 14 16  1  0
 15 14  1  0
 16 18  2  0
 16 17  1  0
M  END
$$$$
