TAA.pdb
     RDKit          3D

 18 17  0  0  1  0  0  0  0  0999 V2000
    0.0266  -26.5597   27.6432 C   0  0  0  0  0  0  0  0  0  0  0  0
   -1.4608  -26.5293   27.7511 C   0  0  1  0  0  0  0  0  0  0  0  0
   -1.8444  -27.7623   28.3320 O   0  0  0  0  0  0  0  0  0  0  0  0
   -1.9999  -25.4645   28.6771 C   0  0  2  0  0  0  0  0  0  0  0  0
   -1.5076  -25.8306   30.0157 N   0  0  0  0  0  0  0  0  0  0  0  0
   -3.4663  -25.4186   28.7487 C   0  0  0  0  0  0  0  0  0  0  0  0
   -4.1665  -25.0854   27.7311 O   0  0  0  0  0  0  0  0  0  0  0  0
   -6.1410  -26.1673   31.2723 C   0  0  0  0  0  0  0  0  0  0  0  0
   -5.6674  -25.5515   29.9734 C   0  0  2  0  0  0  0  0  0  0  0  0
   -4.2349  -25.7265   29.9065 N   0  0  0  0  0  0  0  0  0  0  0  0
   -6.0572  -24.1221   29.8667 C   0  0  0  0  0  0  0  0  0  0  0  0
   -5.2901  -23.2801   30.3818 O   0  0  0  0  0  0  0  0  0  0  0  0
   -8.7289  -22.0194   28.1894 C   0  0  0  0  0  0  0  0  0  0  0  0
   -7.6959  -22.3154   29.2334 C   0  0  2  0  0  0  0  0  0  0  0  0
   -7.2274  -23.6712   29.2257 N   0  0  0  0  0  0  0  0  0  0  0  0
   -8.1298  -21.8743   30.5854 C   0  0  0  0  0  0  0  0  0  0  0  0
   -8.1124  -20.5135   30.8444 O   0  0  0  0  0  0  0  0  0  0  0  0
   -8.4997  -22.6624   31.4731 O   0  0  0  0  0  0  0  0  0  0  0  0
  2  1  1  1
  3  2  1  0
  4  6  1  0
  4  5  1  1
  4  2  1  0
  6  7  2  0
  9  8  1  1
  9 11  1  0
 10  9  1  0
 10  6  1  0
 11 15  1  0
 11 12  2  0
 14 13  1  6
 14 16  1  0
 15 14  1  0
 16 18  2  0
 16 17  1  0
M  END
$$$$
