TAA.pdb
     RDKit          3D

 18 17  0  0  1  0  0  0  0  0999 V2000
    8.1277  -17.8410   16.6621 C   0  0  0  0  0  0  0  0  0  0  0  0
    8.3963  -17.0732   15.4117 C   0  0  1  0  0  0  0  0  0  0  0  0
    7.6067  -17.6700   14.3992 O   0  0  0  0  0  0  0  0  0  0  0  0
    7.9619  -15.6272   15.4593 C   0  0  2  0  0  0  0  0  0  0  0  0
    8.2430  -15.0944   14.1156 N   0  0  0  0  0  0  0  0  0  0  0  0
    8.7120  -14.8072   16.4198 C   0  0  0  0  0  0  0  0  0  0  0  0
    9.9739  -14.6357   16.2971 O   0  0  0  0  0  0  0  0  0  0  0  0
    7.9783  -12.8014   19.5088 C   0  0  0  0  0  0  0  0  0  0  0  0
    8.9341  -13.4974   18.5640 C   0  0  2  0  0  0  0  0  0  0  0  0
    8.1423  -14.1426   17.5422 N   0  0  0  0  0  0  0  0  0  0  0  0
    9.8105  -14.4613   19.2777 C   0  0  0  0  0  0  0  0  0  0  0  0
    9.3612  -15.6126   19.4650 O   0  0  0  0  0  0  0  0  0  0  0  0
   13.4396  -14.6466   20.3359 C   0  0  0  0  0  0  0  0  0  0  0  0
   12.0109  -15.0973   20.3287 C   0  0  2  0  0  0  0  0  0  0  0  0
   11.1016  -14.1520   19.7479 N   0  0  0  0  0  0  0  0  0  0  0  0
   11.5668  -15.5586   21.6706 C   0  0  0  0  0  0  0  0  0  0  0  0
   12.3003  -16.5706   22.2680 O   0  0  0  0  0  0  0  0  0  0  0  0
   10.5840  -15.0815   22.2643 O   0  0  0  0  0  0  0  0  0  0  0  0
  2  1  1  1
  3  2  1  0
  4  6  1  0
  4  5  1  6
  4  2  1  0
  6  7  2  0
  9  8  1  1
  9 11  1  0
 10  9  1  0
 10  6  1  0
 11 15  1  0
 11 12  2  0
 14 13  1  1
 14 16  1  0
 15 14  1  0
 16 18  2  0
 16 17  1  0
M  END
$$$$
