TAA.pdb
     RDKit          3D

 18 17  0  0  1  0  0  0  0  0999 V2000
   12.5202  -18.3915   22.8276 C   0  0  0  0  0  0  0  0  0  0  0  0
   12.0711  -17.4848   21.7316 C   0  0  1  0  0  0  0  0  0  0  0  0
   12.4508  -18.1069   20.5177 O   0  0  0  0  0  0  0  0  0  0  0  0
   10.5738  -17.3070   21.6401 C   0  0  2  0  0  0  0  0  0  0  0  0
   10.3570  -16.4536   20.4597 N   0  0  0  0  0  0  0  0  0  0  0  0
    9.9804  -16.6167   22.7928 C   0  0  0  0  0  0  0  0  0  0  0  0
   10.2528  -15.3913   23.0401 O   0  0  0  0  0  0  0  0  0  0  0  0
    7.2560  -17.2864   25.2595 C   0  0  0  0  0  0  0  0  0  0  0  0
    8.4362  -16.4681   24.7817 C   0  0  2  0  0  0  0  0  0  0  0  0
    9.0772  -17.2090   23.7199 N   0  0  0  0  0  0  0  0  0  0  0  0
    9.3771  -16.1593   25.8890 C   0  0  0  0  0  0  0  0  0  0  0  0
   10.3397  -16.9392   26.0559 O   0  0  0  0  0  0  0  0  0  0  0  0
    9.9078  -13.3885   28.4371 C   0  0  0  0  0  0  0  0  0  0  0  0
   10.1427  -14.7337   27.8208 C   0  0  2  0  0  0  0  0  0  0  0  0
    9.2447  -15.0513   26.7482 N   0  0  0  0  0  0  0  0  0  0  0  0
   10.2051  -15.8106   28.8441 C   0  0  0  0  0  0  0  0  0  0  0  0
   11.2349  -15.7478   29.7687 O   0  0  0  0  0  0  0  0  0  0  0  0
    9.3868  -16.7449   28.9008 O   0  0  0  0  0  0  0  0  0  0  0  0
  2  1  1  1
  3  2  1  0
  4  6  1  0
  4  5  1  6
  4  2  1  0
  6  7  2  0
  9  8  1  1
  9 11  1  0
 10  9  1  0
 10  6  1  0
 11 15  1  0
 11 12  2  0
 14 13  1  1
 14 16  1  0
 15 14  1  0
 16 18  2  0
 16 17  1  0
M  END
$$$$
