TAA.pdb
     RDKit          3D

 18 17  0  0  1  0  0  0  0  0999 V2000
    7.6494  -16.2909   19.0700 C   0  0  0  0  0  0  0  0  0  0  0  0
    8.3650  -15.0501   18.6536 C   0  0  1  0  0  0  0  0  0  0  0  0
    8.0402  -14.8397   17.2916 O   0  0  0  0  0  0  0  0  0  0  0  0
    7.9171  -13.7983   19.3708 C   0  0  2  0  0  0  0  0  0  0  0  0
    8.5271  -12.6853   18.6241 N   0  0  0  0  0  0  0  0  0  0  0  0
    8.3870  -13.7021   20.7591 C   0  0  0  0  0  0  0  0  0  0  0  0
    9.5889  -13.3544   21.0264 O   0  0  0  0  0  0  0  0  0  0  0  0
    6.8879  -13.7120   24.1732 C   0  0  0  0  0  0  0  0  0  0  0  0
    8.0871  -13.8452   23.2595 C   0  0  2  0  0  0  0  0  0  0  0  0
    7.5919  -13.9727   21.9083 N   0  0  0  0  0  0  0  0  0  0  0  0
    8.9489  -14.9922   23.6449 C   0  0  0  0  0  0  0  0  0  0  0  0
    9.4379  -14.9790   24.7953 O   0  0  0  0  0  0  0  0  0  0  0  0
    9.9794  -18.3542   22.2235 C   0  0  0  0  0  0  0  0  0  0  0  0
   10.1109  -17.1680   23.1292 C   0  0  2  0  0  0  0  0  0  0  0  0
    9.2404  -16.0776   22.7961 N   0  0  0  0  0  0  0  0  0  0  0  0
   11.5261  -16.7370   23.2786 C   0  0  0  0  0  0  0  0  0  0  0  0
   12.4414  -17.6952   23.6826 O   0  0  0  0  0  0  0  0  0  0  0  0
   11.9113  -15.5753   23.0597 O   0  0  0  0  0  0  0  0  0  0  0  0
  2  1  1  1
  3  2  1  0
  4  6  1  0
  4  5  1  6
  4  2  1  0
  6  7  2  0
  9  8  1  1
  9 11  1  0
 10  9  1  0
 10  6  1  0
 11 15  1  0
 11 12  2  0
 14 13  1  6
 14 16  1  0
 15 14  1  0
 16 18  2  0
 16 17  1  0
M  END
$$$$
