TAA.pdb
     RDKit          3D

 18 17  0  0  1  0  0  0  0  0999 V2000
    6.7880  -19.6568   20.4003 C   0  0  0  0  0  0  0  0  0  0  0  0
    7.3064  -19.1803   19.0852 C   0  0  1  0  0  0  0  0  0  0  0  0
    6.5261  -19.8209   18.0925 O   0  0  0  0  0  0  0  0  0  0  0  0
    7.1294  -17.7001   18.8415 C   0  0  2  0  0  0  0  0  0  0  0  0
    7.5643  -17.4821   17.4515 N   0  0  0  0  0  0  0  0  0  0  0  0
    7.9634  -16.8473   19.6987 C   0  0  0  0  0  0  0  0  0  0  0  0
    9.2401  -16.9211   19.6607 O   0  0  0  0  0  0  0  0  0  0  0  0
    7.4637  -14.0485   22.1441 C   0  0  0  0  0  0  0  0  0  0  0  0
    8.3167  -15.1234   21.5058 C   0  0  2  0  0  0  0  0  0  0  0  0
    7.4648  -15.8878   20.6242 N   0  0  0  0  0  0  0  0  0  0  0  0
    8.9743  -15.9823   22.5240 C   0  0  0  0  0  0  0  0  0  0  0  0
    8.2753  -16.8671   23.0635 O   0  0  0  0  0  0  0  0  0  0  0  0
   12.5025  -16.7305   23.6441 C   0  0  0  0  0  0  0  0  0  0  0  0
   11.0118  -16.7505   23.7924 C   0  0  2  0  0  0  0  0  0  0  0  0
   10.3232  -15.8550   22.9084 N   0  0  0  0  0  0  0  0  0  0  0  0
   10.5919  -16.5816   25.2087 C   0  0  0  0  0  0  0  0  0  0  0  0
   11.0701  -17.5029   26.1261 O   0  0  0  0  0  0  0  0  0  0  0  0
    9.8444  -15.6654   25.5931 O   0  0  0  0  0  0  0  0  0  0  0  0
  2  1  1  1
  3  2  1  0
  4  6  1  0
  4  5  1  6
  4  2  1  0
  6  7  2  0
  9  8  1  1
  9 11  1  0
 10  9  1  0
 10  6  1  0
 11 15  1  0
 11 12  2  0
 14 13  1  1
 14 16  1  0
 15 14  1  0
 16 18  2  0
 16 17  1  0
M  END
$$$$
