TAA.pdb
     RDKit          3D

 18 17  0  0  1  0  0  0  0  0999 V2000
   13.0368  -18.9832   17.3102 C   0  0  0  0  0  0  0  0  0  0  0  0
   12.8277  -17.8499   16.3630 C   0  0  1  0  0  0  0  0  0  0  0  0
   13.1086  -18.3533   15.0698 O   0  0  0  0  0  0  0  0  0  0  0  0
   11.4060  -17.3438   16.2964 C   0  0  2  0  0  0  0  0  0  0  0  0
   11.4170  -16.2942   15.2636 N   0  0  0  0  0  0  0  0  0  0  0  0
   10.9305  -16.7262   17.5414 C   0  0  0  0  0  0  0  0  0  0  0  0
   11.5958  -15.7939   18.1116 O   0  0  0  0  0  0  0  0  0  0  0  0
    7.8760  -16.8540   19.7037 C   0  0  0  0  0  0  0  0  0  0  0  0
    9.3261  -16.4874   19.4731 C   0  0  2  0  0  0  0  0  0  0  0  0
    9.7305  -17.0812   18.2197 N   0  0  0  0  0  0  0  0  0  0  0  0
   10.1910  -16.9252   20.5988 C   0  0  0  0  0  0  0  0  0  0  0  0
   10.7106  -18.0589   20.5134 O   0  0  0  0  0  0  0  0  0  0  0  0
   11.5832  -15.4717   23.8209 C   0  0  0  0  0  0  0  0  0  0  0  0
   11.2293  -16.5720   22.8676 C   0  0  2  0  0  0  0  0  0  0  0  0
   10.4531  -16.1429   21.7402 N   0  0  0  0  0  0  0  0  0  0  0  0
   10.6201  -17.7360   23.5639 C   0  0  0  0  0  0  0  0  0  0  0  0
   11.4294  -18.4496   24.4328 O   0  0  0  0  0  0  0  0  0  0  0  0
    9.4384  -18.0860   23.4000 O   0  0  0  0  0  0  0  0  0  0  0  0
  2  1  1  1
  3  2  1  0
  4  6  1  0
  4  5  1  6
  4  2  1  0
  6  7  2  0
  9  8  1  1
  9 11  1  0
 10  9  1  0
 10  6  1  0
 11 15  1  0
 11 12  2  0
 14 13  1  1
 14 16  1  0
 15 14  1  0
 16 18  2  0
 16 17  1  0
M  END
$$$$
