IVC.pdb
     RDKit          3D

 22 21  0  0  1  0  0  0  0  0999 V2000
    6.5405  -11.3584   27.6790 C   0  0  0  0  0  0  0  0  0  0  0  0
    5.8835  -12.5406   26.9804 C   0  0  0  0  0  0  0  0  0  0  0  0
    6.9037  -13.3535   26.2094 C   0  0  2  0  0  0  0  0  0  0  0  0
    7.4905  -12.4428   25.1508 C   0  0  0  0  0  0  0  0  0  0  0  0
    6.1818  -14.4649   25.4991 C   0  0  2  0  0  0  0  0  0  0  0  0
    5.5789  -15.3375   26.4635 N   0  0  0  0  0  0  0  0  0  0  0  0
    7.0795  -15.2266   24.5883 C   0  0  0  0  0  0  0  0  0  0  0  0
    7.6932  -16.2423   25.0340 O   0  0  0  0  0  0  0  0  0  0  0  0
    8.1435  -13.5828   20.9075 C   0  0  0  0  0  0  0  0  0  0  0  0
    7.8139  -15.0364   20.9489 C   0  0  1  0  0  0  0  0  0  0  0  0
    8.5697  -15.7446   19.8541 C   0  0  0  0  0  0  0  0  0  0  0  0
    8.0772  -15.6844   22.3082 C   0  0  2  0  0  0  0  0  0  0  0  0
    7.2848  -14.8770   23.2494 N   0  0  0  0  0  0  0  0  0  0  0  0
    9.4845  -15.6006   22.7121 C   0  0  0  0  0  0  0  0  0  0  0  0
   10.0413  -14.4555   22.8349 O   0  0  0  0  0  0  0  0  0  0  0  0
   10.3324  -16.6922   22.9940 N   0  0  0  0  0  0  0  0  0  0  0  0
   11.7337  -16.5634   23.3443 C   0  0  1  0  0  0  0  0  0  0  0  0
   11.9529  -17.3694   24.6031 C   0  0  0  0  0  0  0  0  0  0  0  0
   10.8309  -16.8706   25.9335 S   0  0  0  0  0  0  0  0  0  0  0  0
   12.6345  -16.9360   22.2583 C   0  0  0  0  0  0  0  0  0  0  0  0
   13.9982  -16.7498   22.4023 O   0  0  0  0  0  0  0  0  0  0  0  0
   12.2307  -17.4262   21.1791 O   0  0  0  0  0  0  0  0  0  0  0  0
  1  2  1  0
  2  3  1  0
  3  4  1  6
  5  3  1  0
  5  6  1  1
  7  8  2  0
  7  5  1  0
 10  9  1  1
 10 12  1  0
 11 10  1  0
 12 13  1  1
 13  7  1  0
 14 12  1  0
 14 16  1  0
 15 14  2  0
 17 16  1  0
 17 20  1  0
 17 18  1  1
 19 18  1  0
 20 22  2  0
 20 21  1  0
M  END
$$$$
