IVC.pdb
     RDKit          3D

 22 21  0  0  1  0  0  0  0  0999 V2000
    6.9054  -11.7186   27.6499 C   0  0  0  0  0  0  0  0  0  0  0  0
    6.2098  -12.8404   26.8916 C   0  0  0  0  0  0  0  0  0  0  0  0
    7.1993  -13.6309   26.0598 C   0  0  2  0  0  0  0  0  0  0  0  0
    7.8228  -12.6654   25.0730 C   0  0  0  0  0  0  0  0  0  0  0  0
    6.4364  -14.6562   25.2676 C   0  0  2  0  0  0  0  0  0  0  0  0
    5.8441  -15.6080   26.1610 N   0  0  0  0  0  0  0  0  0  0  0  0
    7.2933  -15.3408   24.2612 C   0  0  0  0  0  0  0  0  0  0  0  0
    7.9161  -16.3933   24.5948 O   0  0  0  0  0  0  0  0  0  0  0  0
    6.4810  -15.0211   20.2367 C   0  0  0  0  0  0  0  0  0  0  0  0
    7.9101  -14.8573   20.6294 C   0  0  1  0  0  0  0  0  0  0  0  0
    8.2374  -13.3877   20.6975 C   0  0  0  0  0  0  0  0  0  0  0  0
    8.2693  -15.5629   21.9371 C   0  0  2  0  0  0  0  0  0  0  0  0
    7.4499  -14.8789   22.9501 N   0  0  0  0  0  0  0  0  0  0  0  0
    9.6791  -15.3925   22.3035 C   0  0  0  0  0  0  0  0  0  0  0  0
   10.0983  -14.2489   22.6943 O   0  0  0  0  0  0  0  0  0  0  0  0
   10.6707  -16.3953   22.2723 N   0  0  0  0  0  0  0  0  0  0  0  0
   11.7743  -16.4761   23.2097 C   0  0  1  0  0  0  0  0  0  0  0  0
   11.1764  -16.5357   24.5957 C   0  0  0  0  0  0  0  0  0  0  0  0
   12.4325  -16.8318   25.8655 S   0  0  0  0  0  0  0  0  0  0  0  0
   12.6875  -17.5793   22.9291 C   0  0  0  0  0  0  0  0  0  0  0  0
   12.2886  -18.6051   22.0902 O   0  0  0  0  0  0  0  0  0  0  0  0
   13.8384  -17.6492   23.4176 O   0  0  0  0  0  0  0  0  0  0  0  0
  1  2  1  0
  2  3  1  0
  3  4  1  6
  5  3  1  0
  5  6  1  1
  7  8  2  0
  7  5  1  0
 10  9  1  1
 10 12  1  0
 11 10  1  0
 12 13  1  1
 13  7  1  0
 14 12  1  0
 14 16  1  0
 15 14  2  0
 17 16  1  0
 17 20  1  0
 17 18  1  1
 19 18  1  0
 20 22  2  0
 20 21  1  0
M  END
$$$$
