IVC.pdb
     RDKit          3D

 22 21  0  0  1  0  0  0  0  0999 V2000
    6.8533  -11.5432   27.7216 C   0  0  0  0  0  0  0  0  0  0  0  0
    6.1139  -12.6594   26.9973 C   0  0  0  0  0  0  0  0  0  0  0  0
    7.0644  -13.4849   26.1541 C   0  0  2  0  0  0  0  0  0  0  0  0
    7.6782  -12.5508   25.1317 C   0  0  0  0  0  0  0  0  0  0  0  0
    6.2603  -14.5100   25.4036 C   0  0  2  0  0  0  0  0  0  0  0  0
    5.6826  -15.4381   26.3309 N   0  0  0  0  0  0  0  0  0  0  0  0
    7.0731  -15.2239   24.3812 C   0  0  0  0  0  0  0  0  0  0  0  0
    7.7009  -16.2735   24.7147 O   0  0  0  0  0  0  0  0  0  0  0  0
    7.7318  -13.4151   20.6256 C   0  0  0  0  0  0  0  0  0  0  0  0
    7.4937  -14.8846   20.7112 C   0  0  1  0  0  0  0  0  0  0  0  0
    8.1460  -15.5592   19.5319 C   0  0  0  0  0  0  0  0  0  0  0  0
    7.9613  -15.5038   22.0283 C   0  0  2  0  0  0  0  0  0  0  0  0
    7.1827  -14.7929   23.0548 N   0  0  0  0  0  0  0  0  0  0  0  0
    9.3841  -15.2652   22.2922 C   0  0  0  0  0  0  0  0  0  0  0  0
    9.7445  -14.2056   22.9115 O   0  0  0  0  0  0  0  0  0  0  0  0
   10.4492  -16.1132   21.9228 N   0  0  0  0  0  0  0  0  0  0  0  0
   11.5796  -16.4177   22.7786 C   0  0  1  0  0  0  0  0  0  0  0  0
   11.0250  -17.0073   24.0542 C   0  0  0  0  0  0  0  0  0  0  0  0
   12.1587  -16.7959   25.4497 S   0  0  0  0  0  0  0  0  0  0  0  0
   12.5743  -17.2703   22.1357 C   0  0  0  0  0  0  0  0  0  0  0  0
   13.9075  -17.1577   22.4895 O   0  0  0  0  0  0  0  0  0  0  0  0
   12.2798  -18.1172   21.2616 O   0  0  0  0  0  0  0  0  0  0  0  0
  1  2  1  0
  2  3  1  0
  3  4  1  6
  5  3  1  0
  5  6  1  1
  7  8  2  0
  7  5  1  0
 10  9  1  1
 10 12  1  0
 11 10  1  0
 12 13  1  1
 13  7  1  0
 14 12  1  0
 14 16  1  0
 15 14  2  0
 17 16  1  0
 17 20  1  0
 17 18  1  1
 19 18  1  0
 20 22  2  0
 20 21  1  0
M  END
$$$$
