IVC.pdb
     RDKit          3D

 22 21  0  0  1  0  0  0  0  0999 V2000
    6.6683  -26.9077   37.5586 C   0  0  0  0  0  0  0  0  0  0  0  0
    5.8156  -27.0034   36.3012 C   0  0  0  0  0  0  0  0  0  0  0  0
    6.6804  -27.0320   35.0573 C   0  0  2  0  0  0  0  0  0  0  0  0
    7.3575  -25.6808   34.9548 C   0  0  0  0  0  0  0  0  0  0  0  0
    5.7813  -27.1783   33.8611 C   0  0  2  0  0  0  0  0  0  0  0  0
    5.1017  -28.4389   33.9241 N   0  0  0  0  0  0  0  0  0  0  0  0
    6.5252  -27.0446   32.5788 C   0  0  0  0  0  0  0  0  0  0  0  0
    7.4149  -27.9000   32.2894 O   0  0  0  0  0  0  0  0  0  0  0  0
    6.6459  -24.9546   28.1189 C   0  0  0  0  0  0  0  0  0  0  0  0
    6.0757  -25.5755   29.3488 C   0  0  1  0  0  0  0  0  0  0  0  0
    5.3957  -26.8685   28.9785 C   0  0  0  0  0  0  0  0  0  0  0  0
    7.1055  -25.7925   30.4576 C   0  0  2  0  0  0  0  0  0  0  0  0
    6.2920  -26.0121   31.6641 N   0  0  0  0  0  0  0  0  0  0  0  0
    7.9474  -24.6138   30.6867 C   0  0  0  0  0  0  0  0  0  0  0  0
    7.4064  -23.5045   31.0228 O   0  0  0  0  0  0  0  0  0  0  0  0
    9.3527  -24.5642   30.5732 N   0  0  0  0  0  0  0  0  0  0  0  0
   10.1410  -23.3615   30.7607 C   0  0  1  0  0  0  0  0  0  0  0  0
   10.5931  -23.3470   32.2021 C   0  0  0  0  0  0  0  0  0  0  0  0
   11.6687  -24.7503   32.5912 S   0  0  0  0  0  0  0  0  0  0  0  0
   11.2425  -23.2421   29.8110 C   0  0  0  0  0  0  0  0  0  0  0  0
   12.0430  -22.1133   29.8254 O   0  0  0  0  0  0  0  0  0  0  0  0
   11.5083  -24.1260   28.9647 O   0  0  0  0  0  0  0  0  0  0  0  0
  1  2  1  0
  2  3  1  0
  3  4  1  6
  5  3  1  0
  5  6  1  6
  7  8  2  0
  7  5  1  0
 10  9  1  6
 10 12  1  0
 11 10  1  0
 12 13  1  1
 13  7  1  0
 14 12  1  0
 14 16  1  0
 15 14  2  0
 17 16  1  0
 17 20  1  0
 17 18  1  1
 19 18  1  0
 20 22  2  0
 20 21  1  0
M  END
$$$$
