IVC.pdb
     RDKit          3D

 22 21  0  0  1  0  0  0  0  0999 V2000
    7.7136  -19.6824   28.7989 C   0  0  0  0  0  0  0  0  0  0  0  0
    6.8140  -19.4955   27.5852 C   0  0  0  0  0  0  0  0  0  0  0  0
    7.6033  -18.9895   26.3948 C   0  0  2  0  0  0  0  0  0  0  0  0
    8.2014  -17.6555   26.7918 C   0  0  0  0  0  0  0  0  0  0  0  0
    6.6433  -18.7357   25.2658 C   0  0  2  0  0  0  0  0  0  0  0  0
    5.9957  -19.9620   24.9031 N   0  0  0  0  0  0  0  0  0  0  0  0
    7.3127  -18.1244   24.0852 C   0  0  0  0  0  0  0  0  0  0  0  0
    7.9713  -18.8665   23.2963 O   0  0  0  0  0  0  0  0  0  0  0  0
    8.0331  -13.9193   21.5009 C   0  0  0  0  0  0  0  0  0  0  0  0
    7.2858  -14.8540   22.3904 C   0  0  1  0  0  0  0  0  0  0  0  0
    5.9786  -15.2191   21.7350 C   0  0  0  0  0  0  0  0  0  0  0  0
    8.0803  -16.1040   22.7689 C   0  0  2  0  0  0  0  0  0  0  0  0
    7.2530  -16.7570   23.7960 N   0  0  0  0  0  0  0  0  0  0  0  0
    9.3811  -15.7879   23.3679 C   0  0  0  0  0  0  0  0  0  0  0  0
    9.4300  -15.1800   24.4923 O   0  0  0  0  0  0  0  0  0  0  0  0
   10.6434  -16.0942   22.8175 N   0  0  0  0  0  0  0  0  0  0  0  0
   11.8913  -16.0128   23.5518 C   0  0  1  0  0  0  0  0  0  0  0  0
   11.8065  -17.0097   24.6837 C   0  0  0  0  0  0  0  0  0  0  0  0
   11.0033  -16.3095   26.1473 S   0  0  0  0  0  0  0  0  0  0  0  0
   13.0678  -16.1984   22.7086 C   0  0  0  0  0  0  0  0  0  0  0  0
   14.3292  -15.9645   23.2278 O   0  0  0  0  0  0  0  0  0  0  0  0
   12.9958  -16.5660   21.5137 O   0  0  0  0  0  0  0  0  0  0  0  0
  1  2  1  0
  2  3  1  0
  3  4  1  1
  5  3  1  0
  5  6  1  6
  7  8  2  0
  7  5  1  0
 10  9  1  6
 10 12  1  0
 11 10  1  0
 12 13  1  1
 13  7  1  0
 14 12  1  0
 14 16  1  0
 15 14  2  0
 17 16  1  0
 17 20  1  0
 17 18  1  1
 19 18  1  0
 20 22  2  0
 20 21  1  0
M  END
$$$$
