IVC.pdb
     RDKit          3D

 22 21  0  0  1  0  0  0  0  0999 V2000
    6.4923  -11.1781   27.6350 C   0  0  0  0  0  0  0  0  0  0  0  0
    5.7971  -12.2667   26.8293 C   0  0  0  0  0  0  0  0  0  0  0  0
    6.8007  -13.2526   26.2662 C   0  0  2  0  0  0  0  0  0  0  0  0
    7.7628  -12.4638   25.4020 C   0  0  0  0  0  0  0  0  0  0  0  0
    6.0680  -14.2101   25.3679 C   0  0  2  0  0  0  0  0  0  0  0  0
    5.1172  -14.9570   26.1380 N   0  0  0  0  0  0  0  0  0  0  0  0
    6.9945  -15.1239   24.6452 C   0  0  0  0  0  0  0  0  0  0  0  0
    7.3550  -16.2041   25.2021 O   0  0  0  0  0  0  0  0  0  0  0  0
    9.2243  -15.9639   20.2465 C   0  0  0  0  0  0  0  0  0  0  0  0
    8.4290  -15.1565   21.2155 C   0  0  1  0  0  0  0  0  0  0  0  0
    7.0574  -14.9087   20.6420 C   0  0  0  0  0  0  0  0  0  0  0  0
    8.3394  -15.7850   22.6061 C   0  0  2  0  0  0  0  0  0  0  0  0
    7.4950  -14.8509   23.3678 N   0  0  0  0  0  0  0  0  0  0  0  0
    9.6419  -15.8674   23.2750 C   0  0  0  0  0  0  0  0  0  0  0  0
   10.2691  -14.7936   23.5750 O   0  0  0  0  0  0  0  0  0  0  0  0
   10.3116  -17.0534   23.6422 N   0  0  0  0  0  0  0  0  0  0  0  0
   11.6473  -17.0912   24.2056 C   0  0  1  0  0  0  0  0  0  0  0  0
   11.4942  -17.1717   25.7064 C   0  0  0  0  0  0  0  0  0  0  0  0
   10.2905  -18.4307   26.2001 S   0  0  0  0  0  0  0  0  0  0  0  0
   12.4744  -18.1593   23.6535 C   0  0  0  0  0  0  0  0  0  0  0  0
   11.9088  -19.1009   22.8117 O   0  0  0  0  0  0  0  0  0  0  0  0
   13.6957  -18.2720   23.9062 O   0  0  0  0  0  0  0  0  0  0  0  0
  1  2  1  0
  2  3  1  0
  3  4  1  6
  5  3  1  0
  5  6  1  1
  7  8  2  0
  7  5  1  0
 10  9  1  6
 10 12  1  0
 11 10  1  0
 12 13  1  1
 13  7  1  0
 14 12  1  0
 14 16  1  0
 15 14  2  0
 17 16  1  0
 17 20  1  0
 17 18  1  1
 19 18  1  0
 20 22  2  0
 20 21  1  0
M  END
$$$$
