YKP.pdb
     RDKit          3D

 29 30  0  0  1  0  0  0  0  0999 V2000
    7.3117  -22.8657   28.1522 O   0  0  0  0  0  0  0  0  0  0  0  0
    7.8664  -21.6564   27.7781 C   0  0  0  0  0  0  0  0  0  0  0  0
    7.1516  -20.8321   26.9361 C   0  0  0  0  0  0  0  0  0  0  0  0
    7.6543  -19.6137   26.5289 C   0  0  0  0  0  0  0  0  0  0  0  0
    8.8978  -19.1749   26.9529 C   0  0  0  0  0  0  0  0  0  0  0  0
    9.4569  -17.8650   26.5251 C   0  0  0  0  0  0  0  0  0  0  0  0
    9.6352  -17.9057   25.0360 C   0  0  2  0  0  0  0  0  0  0  0  0
   10.9223  -18.5005   24.7453 N   0  0  0  0  0  0  0  0  0  0  0  0
    9.5766  -16.5878   24.3962 C   0  0  0  0  0  0  0  0  0  0  0  0
   10.5238  -15.7739   24.6509 O   0  0  0  0  0  0  0  0  0  0  0  0
    9.5919  -20.0281   27.7998 C   0  0  0  0  0  0  0  0  0  0  0  0
    9.0939  -21.2410   28.2065 C   0  0  0  0  0  0  0  0  0  0  0  0
    8.5517  -16.1519   23.5201 N   0  0  0  0  0  0  0  0  0  0  0  0
    8.1229  -14.7541   23.5348 C   0  0  1  0  0  0  0  0  0  0  0  0
    7.0286  -14.6614   22.4652 C   0  0  0  0  0  0  0  0  0  0  0  0
    7.3838  -13.5053   21.5545 C   0  0  0  0  0  0  0  0  0  0  0  0
    7.8389  -14.0449   20.2141 C   0  0  0  0  0  0  0  0  0  0  0  0
    8.3223  -12.9273   19.3481 C   0  0  0  0  0  0  0  0  0  0  0  0
    8.8598  -13.4602   18.1155 N   0  0  0  0  0  0  0  0  0  0  0  0
    7.4799  -14.4143   24.8281 C   0  0  0  0  0  0  0  0  0  0  0  0
    7.0954  -15.3802   25.5711 O   0  0  0  0  0  0  0  0  0  0  0  0
    7.2802  -13.0864   25.2625 N   0  0  0  0  0  0  0  0  0  0  0  0
    7.5570  -11.8975   24.4839 C   0  0  0  0  0  0  0  0  0  0  0  0
    8.1736  -10.9740   25.5168 C   0  0  0  0  0  0  0  0  0  0  0  0
    7.6234  -11.4161   26.8426 C   0  0  0  0  0  0  0  0  0  0  0  0
    6.7717  -12.6106   26.5369 C   0  0  1  0  0  0  0  0  0  0  0  0
    5.3744  -12.1597   26.3391 C   0  0  0  0  0  0  0  0  0  0  0  0
    4.8512  -12.0310   25.0424 O   0  0  0  0  0  0  0  0  0  0  0  0
    4.6396  -11.8876   27.2979 O   0  0  0  0  0  0  0  0  0  0  0  0
  2  1  1  0
  3  2  2  0
  4  3  1  0
  5 11  1  0
  5  4  2  0
  6  7  1  0
  6  5  1  0
  7  8  1  1
  9  7  1  0
 10  9  2  0
 11 12  2  0
 12  2  1  0
 13  9  1  0
 14 13  1  0
 14 15  1  6
 15 16  1  0
 16 17  1  0
 18 17  1  0
 19 18  1  0
 20 21  2  0
 20 14  1  0
 22 20  1  0
 23 22  1  0
 24 25  1  0
 24 23  1  0
 25 26  1  0
 26 27  1  6
 26 22  1  0
 27 28  1  0
 29 27  2  0
M  END
$$$$
