YKP.pdb
     RDKit          3D

 29 30  0  0  1  0  0  0  0  0999 V2000
   11.9760  -21.5530   29.1241 O   0  0  0  0  0  0  0  0  0  0  0  0
   11.8979  -20.3694   28.4147 C   0  0  0  0  0  0  0  0  0  0  0  0
   10.6606  -19.9261   28.0001 C   0  0  0  0  0  0  0  0  0  0  0  0
   10.5210  -18.7524   27.2890 C   0  0  0  0  0  0  0  0  0  0  0  0
   11.6219  -17.9763   26.9658 C   0  0  0  0  0  0  0  0  0  0  0  0
   11.4920  -16.7082   26.2000 C   0  0  0  0  0  0  0  0  0  0  0  0
   11.0454  -17.0543   24.8102 C   0  0  2  0  0  0  0  0  0  0  0  0
   12.1917  -17.5323   24.0668 N   0  0  0  0  0  0  0  0  0  0  0  0
   10.4541  -15.9285   24.0804 C   0  0  0  0  0  0  0  0  0  0  0  0
   11.1748  -14.8877   23.9317 O   0  0  0  0  0  0  0  0  0  0  0  0
   12.8530  -18.4504   27.3978 C   0  0  0  0  0  0  0  0  0  0  0  0
   12.9946  -19.6181   28.1056 C   0  0  0  0  0  0  0  0  0  0  0  0
    9.1485  -15.9093   23.5302 N   0  0  0  0  0  0  0  0  0  0  0  0
    8.3913  -14.6591   23.4877 C   0  0  1  0  0  0  0  0  0  0  0  0
    7.1178  -14.9907   22.7015 C   0  0  0  0  0  0  0  0  0  0  0  0
    7.2946  -14.4405   21.3021 C   0  0  0  0  0  0  0  0  0  0  0  0
    7.7335  -15.5567   20.3767 C   0  0  0  0  0  0  0  0  0  0  0  0
    8.0031  -15.0147   19.0105 C   0  0  0  0  0  0  0  0  0  0  0  0
    8.4645  -16.0773   18.1444 N   0  0  0  0  0  0  0  0  0  0  0  0
    7.9561  -14.2608   24.8491 C   0  0  0  0  0  0  0  0  0  0  0  0
    8.1613  -15.0864   25.8026 O   0  0  0  0  0  0  0  0  0  0  0  0
    7.3345  -13.0246   25.1271 N   0  0  0  0  0  0  0  0  0  0  0  0
    6.9006  -12.0614   24.1369 C   0  0  0  0  0  0  0  0  0  0  0  0
    7.3059  -10.7448   24.7711 C   0  0  0  0  0  0  0  0  0  0  0  0
    7.3206  -10.9906   26.2528 C   0  0  0  0  0  0  0  0  0  0  0  0
    6.9938  -12.4442   26.4139 C   0  0  1  0  0  0  0  0  0  0  0  0
    5.5323  -12.5833   26.6127 C   0  0  0  0  0  0  0  0  0  0  0  0
    4.9585  -12.2892   27.8602 O   0  0  0  0  0  0  0  0  0  0  0  0
    4.7867  -12.9573   25.6976 O   0  0  0  0  0  0  0  0  0  0  0  0
  2  1  1  0
  3  2  2  0
  4  3  1  0
  5 11  1  0
  5  4  2  0
  6  7  1  0
  6  5  1  0
  7  8  1  6
  9  7  1  0
 10  9  2  0
 11 12  2  0
 12  2  1  0
 13  9  1  0
 14 13  1  0
 14 15  1  6
 15 16  1  0
 16 17  1  0
 18 17  1  0
 19 18  1  0
 20 21  2  0
 20 14  1  0
 22 20  1  0
 23 22  1  0
 24 25  1  0
 24 23  1  0
 25 26  1  0
 26 27  1  6
 26 22  1  0
 27 28  1  0
 29 27  2  0
M  END
$$$$
