YKP.pdb
     RDKit          3D

 29 30  0  0  1  0  0  0  0  0999 V2000
   10.8410  -13.8880   30.2458 O   0  0  0  0  0  0  0  0  0  0  0  0
   10.3667  -14.5617   29.1362 C   0  0  0  0  0  0  0  0  0  0  0  0
   11.2416  -14.8469   28.1104 C   0  0  0  0  0  0  0  0  0  0  0  0
   10.8253  -15.5167   26.9785 C   0  0  0  0  0  0  0  0  0  0  0  0
    9.5104  -15.9271   26.8329 C   0  0  0  0  0  0  0  0  0  0  0  0
    9.0425  -16.6501   25.6207 C   0  0  0  0  0  0  0  0  0  0  0  0
    7.6138  -16.2624   25.3772 C   0  0  2  0  0  0  0  0  0  0  0  0
    6.7589  -17.2512   25.9990 N   0  0  0  0  0  0  0  0  0  0  0  0
    7.2593  -16.1677   23.9577 C   0  0  0  0  0  0  0  0  0  0  0  0
    6.9685  -17.2532   23.3562 O   0  0  0  0  0  0  0  0  0  0  0  0
    8.6549  -15.6245   27.8835 C   0  0  0  0  0  0  0  0  0  0  0  0
    9.0667  -14.9582   29.0108 C   0  0  0  0  0  0  0  0  0  0  0  0
    7.2155  -14.9668   23.2068 N   0  0  0  0  0  0  0  0  0  0  0  0
    7.3517  -15.0091   21.7516 C   0  0  1  0  0  0  0  0  0  0  0  0
    7.6562  -13.5649   21.3375 C   0  0  0  0  0  0  0  0  0  0  0  0
    7.1606  -13.3879   19.9178 C   0  0  0  0  0  0  0  0  0  0  0  0
    8.3055  -13.6241   18.9544 C   0  0  0  0  0  0  0  0  0  0  0  0
    7.8341  -13.4580   17.5462 C   0  0  0  0  0  0  0  0  0  0  0  0
    8.9505  -13.5947   16.6367 N   0  0  0  0  0  0  0  0  0  0  0  0
    8.5301  -15.8195   21.3565 C   0  0  0  0  0  0  0  0  0  0  0  0
    9.5445  -15.8092   22.1335 O   0  0  0  0  0  0  0  0  0  0  0  0
    8.5728  -16.5896   20.1745 N   0  0  0  0  0  0  0  0  0  0  0  0
    7.5165  -16.6727   19.1878 C   0  0  0  0  0  0  0  0  0  0  0  0
    7.5215  -18.1478   18.8360 C   0  0  0  0  0  0  0  0  0  0  0  0
    8.9150  -18.6320   19.1182 C   0  0  0  0  0  0  0  0  0  0  0  0
    9.6371  -17.4463   19.6822 C   0  0  1  0  0  0  0  0  0  0  0  0
   10.3267  -16.7403   18.5773 C   0  0  0  0  0  0  0  0  0  0  0  0
   11.7294  -16.7304   18.5127 O   0  0  0  0  0  0  0  0  0  0  0  0
    9.6945  -16.1478   17.6927 O   0  0  0  0  0  0  0  0  0  0  0  0
  2  1  1  0
  3  2  2  0
  4  3  1  0
  5 11  1  0
  5  4  2  0
  6  7  1  0
  6  5  1  0
  7  8  1  1
  9  7  1  0
 10  9  2  0
 11 12  2  0
 12  2  1  0
 13  9  1  0
 14 13  1  0
 14 15  1  1
 15 16  1  0
 16 17  1  0
 18 17  1  0
 19 18  1  0
 20 21  2  0
 20 14  1  0
 22 20  1  0
 23 22  1  0
 24 25  1  0
 24 23  1  0
 25 26  1  0
 26 27  1  6
 26 22  1  0
 27 28  1  0
 29 27  2  0
M  END
$$$$
