YKP.pdb
     RDKit          3D

 29 30  0  0  1  0  0  0  0  0999 V2000
   10.9485  -14.7410   30.8978 O   0  0  0  0  0  0  0  0  0  0  0  0
   10.2277  -14.7870   29.7194 C   0  0  0  0  0  0  0  0  0  0  0  0
    9.8496  -16.0153   29.2218 C   0  0  0  0  0  0  0  0  0  0  0  0
    9.1292  -16.1231   28.0503 C   0  0  0  0  0  0  0  0  0  0  0  0
    8.7596  -14.9983   27.3313 C   0  0  0  0  0  0  0  0  0  0  0  0
    7.9832  -15.0939   26.0667 C   0  0  0  0  0  0  0  0  0  0  0  0
    8.8126  -15.8546   25.0746 C   0  0  2  0  0  0  0  0  0  0  0  0
   10.0733  -15.1635   24.9066 N   0  0  0  0  0  0  0  0  0  0  0  0
    8.1808  -15.9961   23.7592 C   0  0  0  0  0  0  0  0  0  0  0  0
    7.0971  -16.6647   23.7023 O   0  0  0  0  0  0  0  0  0  0  0  0
    9.1557  -13.7770   27.8593 C   0  0  0  0  0  0  0  0  0  0  0  0
    9.8726  -13.6670   29.0248 C   0  0  0  0  0  0  0  0  0  0  0  0
    8.6809  -15.4489   22.5516 N   0  0  0  0  0  0  0  0  0  0  0  0
    8.1331  -15.8866   21.2685 C   0  0  1  0  0  0  0  0  0  0  0  0
    7.6985  -14.5984   20.5602 C   0  0  0  0  0  0  0  0  0  0  0  0
    8.5216  -14.4787   19.2951 C   0  0  0  0  0  0  0  0  0  0  0  0
    8.0113  -13.3125   18.4738 C   0  0  0  0  0  0  0  0  0  0  0  0
    8.7882  -13.2012   17.2022 C   0  0  0  0  0  0  0  0  0  0  0  0
    8.3151  -12.0687   16.4369 N   0  0  0  0  0  0  0  0  0  0  0  0
    9.1906  -16.4966   20.4252 C   0  0  0  0  0  0  0  0  0  0  0  0
   10.3844  -16.0629   20.5651 O   0  0  0  0  0  0  0  0  0  0  0  0
    8.9328  -17.5215   19.4898 N   0  0  0  0  0  0  0  0  0  0  0  0
    7.6294  -17.8717   18.9657 C   0  0  0  0  0  0  0  0  0  0  0  0
    7.6860  -19.3871   18.9513 C   0  0  0  0  0  0  0  0  0  0  0  0
    9.1407  -19.7420   18.8337 C   0  0  0  0  0  0  0  0  0  0  0  0
    9.8684  -18.4322   18.8539 C   0  0  1  0  0  0  0  0  0  0  0  0
   10.0764  -17.9827   17.4577 C   0  0  0  0  0  0  0  0  0  0  0  0
   11.3230  -18.1620   16.8368 O   0  0  0  0  0  0  0  0  0  0  0  0
    9.1698  -17.4441   16.8086 O   0  0  0  0  0  0  0  0  0  0  0  0
  2  1  1  0
  3  2  2  0
  4  3  1  0
  5 11  1  0
  5  4  2  0
  6  7  1  0
  6  5  1  0
  7  8  1  6
  9  7  1  0
 10  9  2  0
 11 12  2  0
 12  2  1  0
 13  9  1  0
 14 13  1  0
 14 15  1  6
 15 16  1  0
 16 17  1  0
 18 17  1  0
 19 18  1  0
 20 21  2  0
 20 14  1  0
 22 20  1  0
 23 22  1  0
 24 25  1  0
 24 23  1  0
 25 26  1  0
 26 27  1  6
 26 22  1  0
 27 28  1  0
 29 27  2  0
M  END
$$$$
