YKP.pdb
     RDKit          3D

 29 30  0  0  1  0  0  0  0  0999 V2000
   10.4443  -14.2791   30.9435 O   0  0  0  0  0  0  0  0  0  0  0  0
   10.2025  -14.6916   29.6468 C   0  0  0  0  0  0  0  0  0  0  0  0
    9.7002  -13.7792   28.7442 C   0  0  0  0  0  0  0  0  0  0  0  0
    9.4393  -14.1335   27.4368 C   0  0  0  0  0  0  0  0  0  0  0  0
    9.6734  -15.4215   26.9840 C   0  0  0  0  0  0  0  0  0  0  0  0
    9.3986  -15.8227   25.5787 C   0  0  0  0  0  0  0  0  0  0  0  0
    7.9174  -15.7344   25.3569 C   0  0  2  0  0  0  0  0  0  0  0  0
    7.2745  -16.7652   26.1439 N   0  0  0  0  0  0  0  0  0  0  0  0
    7.5172  -15.9009   23.9563 C   0  0  0  0  0  0  0  0  0  0  0  0
    7.2405  -17.0824   23.5660 O   0  0  0  0  0  0  0  0  0  0  0  0
   10.1792  -16.3159   27.9175 C   0  0  0  0  0  0  0  0  0  0  0  0
   10.4397  -15.9659   29.2191 C   0  0  0  0  0  0  0  0  0  0  0  0
    7.4152  -14.8534   23.0076 N   0  0  0  0  0  0  0  0  0  0  0  0
    7.6098  -15.1332   21.5857 C   0  0  1  0  0  0  0  0  0  0  0  0
    7.6786  -13.7568   20.9143 C   0  0  0  0  0  0  0  0  0  0  0  0
    8.2719  -13.9558   19.5356 C   0  0  0  0  0  0  0  0  0  0  0  0
    7.4345  -13.2098   18.5173 C   0  0  0  0  0  0  0  0  0  0  0  0
    7.9368  -13.4870   17.1375 C   0  0  0  0  0  0  0  0  0  0  0  0
    7.2685  -12.6221   16.1902 N   0  0  0  0  0  0  0  0  0  0  0  0
    8.9228  -15.7836   21.3521 C   0  0  0  0  0  0  0  0  0  0  0  0
    9.8789  -15.4924   22.1484 O   0  0  0  0  0  0  0  0  0  0  0  0
    9.1525  -16.6974   20.3014 N   0  0  0  0  0  0  0  0  0  0  0  0
    8.2790  -16.9085   19.1661 C   0  0  0  0  0  0  0  0  0  0  0  0
    8.3166  -18.4164   19.0087 C   0  0  0  0  0  0  0  0  0  0  0  0
    9.6321  -18.8562   19.5847 C   0  0  0  0  0  0  0  0  0  0  0  0
   10.2692  -17.6061   20.1109 C   0  0  1  0  0  0  0  0  0  0  0  0
   11.1504  -17.0438   19.0611 C   0  0  0  0  0  0  0  0  0  0  0  0
   10.6604  -16.0712   18.1747 O   0  0  0  0  0  0  0  0  0  0  0  0
   12.3267  -17.4106   18.9378 O   0  0  0  0  0  0  0  0  0  0  0  0
  2  1  1  0
  3  2  2  0
  4  3  1  0
  5 11  1  0
  5  4  2  0
  6  7  1  0
  6  5  1  0
  7  8  1  1
  9  7  1  0
 10  9  2  0
 11 12  2  0
 12  2  1  0
 13  9  1  0
 14 13  1  0
 14 15  1  6
 15 16  1  0
 16 17  1  0
 18 17  1  0
 19 18  1  0
 20 21  2  0
 20 14  1  0
 22 20  1  0
 23 22  1  0
 24 25  1  0
 24 23  1  0
 25 26  1  0
 26 27  1  6
 26 22  1  0
 27 28  1  0
 29 27  2  0
M  END
$$$$
