YKP.pdb
     RDKit          3D

 29 30  0  0  1  0  0  0  0  0999 V2000
   10.3642  -15.5789   31.4937 O   0  0  0  0  0  0  0  0  0  0  0  0
   10.4459  -15.3450   30.1340 C   0  0  0  0  0  0  0  0  0  0  0  0
   11.6272  -15.6280   29.4830 C   0  0  0  0  0  0  0  0  0  0  0  0
   11.7673  -15.4152   28.1273 C   0  0  0  0  0  0  0  0  0  0  0  0
   10.7235  -14.9084   27.3708 C   0  0  0  0  0  0  0  0  0  0  0  0
   10.8550  -14.6720   25.9086 C   0  0  0  0  0  0  0  0  0  0  0  0
   11.0292  -16.0045   25.2415 C   0  0  2  0  0  0  0  0  0  0  0  0
   12.3487  -16.5069   25.5605 N   0  0  0  0  0  0  0  0  0  0  0  0
   10.8887  -15.9596   23.7828 C   0  0  0  0  0  0  0  0  0  0  0  0
   11.6161  -15.1235   23.1529 O   0  0  0  0  0  0  0  0  0  0  0  0
    9.5478  -14.6340   28.0562 C   0  0  0  0  0  0  0  0  0  0  0  0
    9.4058  -14.8449   29.4052 C   0  0  0  0  0  0  0  0  0  0  0  0
   10.0100  -16.7711   23.0232 N   0  0  0  0  0  0  0  0  0  0  0  0
    9.7316  -16.4390   21.6266 C   0  0  1  0  0  0  0  0  0  0  0  0
    9.5352  -17.7889   20.9273 C   0  0  0  0  0  0  0  0  0  0  0  0
    9.1467  -17.5020   19.4923 C   0  0  0  0  0  0  0  0  0  0  0  0
    9.0176  -18.8090   18.7373 C   0  0  0  0  0  0  0  0  0  0  0  0
    8.6275  -18.5462   17.3190 C   0  0  0  0  0  0  0  0  0  0  0  0
    8.4346  -19.7998   16.6239 N   0  0  0  0  0  0  0  0  0  0  0  0
    8.4456  -15.7090   21.5054 C   0  0  0  0  0  0  0  0  0  0  0  0
    7.5539  -15.9268   22.3945 O   0  0  0  0  0  0  0  0  0  0  0  0
    8.1737  -14.7974   20.4628 N   0  0  0  0  0  0  0  0  0  0  0  0
    9.1125  -14.3877   19.4396 C   0  0  0  0  0  0  0  0  0  0  0  0
    8.8319  -12.9019   19.3233 C   0  0  0  0  0  0  0  0  0  0  0  0
    7.4068  -12.7182   19.7606 C   0  0  0  0  0  0  0  0  0  0  0  0
    6.9434  -14.0817   20.1750 C   0  0  1  0  0  0  0  0  0  0  0  0
    6.2883  -14.7331   19.0168 C   0  0  0  0  0  0  0  0  0  0  0  0
    4.9395  -14.4697   18.7287 O   0  0  0  0  0  0  0  0  0  0  0  0
    6.9032  -15.5167   18.2811 O   0  0  0  0  0  0  0  0  0  0  0  0
  2  1  1  0
  3  2  2  0
  4  3  1  0
  5 11  1  0
  5  4  2  0
  6  7  1  0
  6  5  1  0
  7  8  1  6
  9  7  1  0
 10  9  2  0
 11 12  2  0
 12  2  1  0
 13  9  1  0
 14 13  1  0
 14 15  1  6
 15 16  1  0
 16 17  1  0
 18 17  1  0
 19 18  1  0
 20 21  2  0
 20 14  1  0
 22 20  1  0
 23 22  1  0
 24 25  1  0
 24 23  1  0
 25 26  1  0
 26 27  1  6
 26 22  1  0
 27 28  1  0
 29 27  2  0
M  END
$$$$
