YKP.pdb
     RDKit          3D

 29 30  0  0  1  0  0  0  0  0999 V2000
   10.9727  -22.1543   30.6338 O   0  0  0  0  0  0  0  0  0  0  0  0
   10.9229  -20.9895   29.8916 C   0  0  0  0  0  0  0  0  0  0  0  0
   11.9524  -20.0816   30.0141 C   0  0  0  0  0  0  0  0  0  0  0  0
   11.9569  -18.9021   29.2986 C   0  0  0  0  0  0  0  0  0  0  0  0
   10.9247  -18.5882   28.4300 C   0  0  0  0  0  0  0  0  0  0  0  0
   10.9114  -17.3221   27.6500 C   0  0  0  0  0  0  0  0  0  0  0  0
   10.9419  -17.6794   26.1933 C   0  0  2  0  0  0  0  0  0  0  0  0
   12.2608  -18.1824   25.8729 N   0  0  0  0  0  0  0  0  0  0  0  0
   10.6435  -16.5549   25.3011 C   0  0  0  0  0  0  0  0  0  0  0  0
   11.3915  -15.5266   25.3897 O   0  0  0  0  0  0  0  0  0  0  0  0
    9.9035  -19.5232   28.3295 C   0  0  0  0  0  0  0  0  0  0  0  0
    9.8966  -20.6976   29.0404 C   0  0  0  0  0  0  0  0  0  0  0  0
    9.5916  -16.5241   24.3522 N   0  0  0  0  0  0  0  0  0  0  0  0
    9.0655  -15.2422   23.8853 C   0  0  1  0  0  0  0  0  0  0  0  0
    8.5812  -15.5070   22.4551 C   0  0  0  0  0  0  0  0  0  0  0  0
    8.1077  -14.1861   21.8866 C   0  0  0  0  0  0  0  0  0  0  0  0
    7.7225  -14.3752   20.4338 C   0  0  0  0  0  0  0  0  0  0  0  0
    7.2822  -13.0739   19.8459 C   0  0  0  0  0  0  0  0  0  0  0  0
    6.9425  -13.2564   18.4518 N   0  0  0  0  0  0  0  0  0  0  0  0
    7.8700  -14.8466   24.6700 C   0  0  0  0  0  0  0  0  0  0  0  0
    7.1002  -15.7771   25.0876 O   0  0  0  0  0  0  0  0  0  0  0  0
    7.5556  -13.5035   24.9686 N   0  0  0  0  0  0  0  0  0  0  0  0
    8.0926  -12.3440   24.2877 C   0  0  0  0  0  0  0  0  0  0  0  0
    8.3428  -11.3852   25.4358 C   0  0  0  0  0  0  0  0  0  0  0  0
    7.3762  -11.7780   26.5162 C   0  0  0  0  0  0  0  0  0  0  0  0
    6.6584  -12.9810   25.9839 C   0  0  1  0  0  0  0  0  0  0  0  0
    5.4132  -12.5345   25.3167 C   0  0  0  0  0  0  0  0  0  0  0  0
    4.2941  -12.1695   26.0823 O   0  0  0  0  0  0  0  0  0  0  0  0
    5.3259  -12.4718   24.0831 O   0  0  0  0  0  0  0  0  0  0  0  0
  2  1  1  0
  3  2  2  0
  4  3  1  0
  5 11  1  0
  5  4  2  0
  6  7  1  0
  6  5  1  0
  7  8  1  6
  9  7  1  0
 10  9  2  0
 11 12  2  0
 12  2  1  0
 13  9  1  0
 14 13  1  0
 14 15  1  6
 15 16  1  0
 16 17  1  0
 18 17  1  0
 19 18  1  0
 20 21  2  0
 20 14  1  0
 22 20  1  0
 23 22  1  0
 24 25  1  0
 24 23  1  0
 25 26  1  0
 26 27  1  6
 26 22  1  0
 27 28  1  0
 29 27  2  0
M  END
$$$$
