YKP.pdb
     RDKit          3D

 29 30  0  0  1  0  0  0  0  0999 V2000
   10.4425  -15.9785   31.6282 O   0  0  0  0  0  0  0  0  0  0  0  0
   10.3371  -15.6720   30.2847 C   0  0  0  0  0  0  0  0  0  0  0  0
    9.3509  -16.2835   29.5412 C   0  0  0  0  0  0  0  0  0  0  0  0
    9.1978  -16.0169   28.1964 C   0  0  0  0  0  0  0  0  0  0  0  0
   10.0316  -15.1233   27.5445 C   0  0  0  0  0  0  0  0  0  0  0  0
    9.8825  -14.8227   26.0959 C   0  0  0  0  0  0  0  0  0  0  0  0
   10.4027  -16.0007   25.3262 C   0  0  2  0  0  0  0  0  0  0  0  0
   11.7377  -16.3019   25.7974 N   0  0  0  0  0  0  0  0  0  0  0  0
   10.4587  -15.7837   23.8773 C   0  0  0  0  0  0  0  0  0  0  0  0
   11.1648  -14.8074   23.4613 O   0  0  0  0  0  0  0  0  0  0  0  0
   11.0141  -14.5247   28.3214 C   0  0  0  0  0  0  0  0  0  0  0  0
   11.1686  -14.7883   29.6597 C   0  0  0  0  0  0  0  0  0  0  0  0
    9.7909  -16.5731   22.9084 N   0  0  0  0  0  0  0  0  0  0  0  0
    9.8843  -16.2251   21.4913 C   0  0  1  0  0  0  0  0  0  0  0  0
   10.4505  -17.4762   20.8100 C   0  0  0  0  0  0  0  0  0  0  0  0
   10.8357  -17.0868   19.3985 C   0  0  0  0  0  0  0  0  0  0  0  0
   11.3088  -18.3165   18.6509 C   0  0  0  0  0  0  0  0  0  0  0  0
   11.6456  -17.9611   17.2392 C   0  0  0  0  0  0  0  0  0  0  0  0
   12.0375  -19.1503   16.5150 N   0  0  0  0  0  0  0  0  0  0  0  0
    8.5357  -16.0029   20.9138 C   0  0  0  0  0  0  0  0  0  0  0  0
    7.5668  -16.6867   21.3896 O   0  0  0  0  0  0  0  0  0  0  0  0
    8.2859  -15.0796   19.8760 N   0  0  0  0  0  0  0  0  0  0  0  0
    9.2895  -14.2852   19.1991 C   0  0  0  0  0  0  0  0  0  0  0  0
    8.5985  -12.9419   19.0652 C   0  0  0  0  0  0  0  0  0  0  0  0
    7.1257  -13.2367   19.0621 C   0  0  0  0  0  0  0  0  0  0  0  0
    7.0204  -14.7181   19.2620 C   0  0  1  0  0  0  0  0  0  0  0  0
    6.9456  -15.3725   17.9350 C   0  0  0  0  0  0  0  0  0  0  0  0
    5.7225  -15.4377   17.2482 O   0  0  0  0  0  0  0  0  0  0  0  0
    7.9450  -15.8729   17.4021 O   0  0  0  0  0  0  0  0  0  0  0  0
  2  1  1  0
  3  2  2  0
  4  3  1  0
  5 11  1  0
  5  4  2  0
  6  7  1  0
  6  5  1  0
  7  8  1  1
  9  7  1  0
 10  9  2  0
 11 12  2  0
 12  2  1  0
 13  9  1  0
 14 13  1  0
 14 15  1  6
 15 16  1  0
 16 17  1  0
 18 17  1  0
 19 18  1  0
 20 21  2  0
 20 14  1  0
 22 20  1  0
 23 22  1  0
 24 25  1  0
 24 23  1  0
 25 26  1  0
 26 27  1  6
 26 22  1  0
 27 28  1  0
 29 27  2  0
M  END
$$$$
