YKP.pdb
     RDKit          3D

 29 30  0  0  1  0  0  0  0  0999 V2000
    9.7570  -13.3177   15.8030 O   0  0  0  0  0  0  0  0  0  0  0  0
    9.0427  -13.4511   16.9786 C   0  0  0  0  0  0  0  0  0  0  0  0
    9.7091  -13.8504   18.1169 C   0  0  0  0  0  0  0  0  0  0  0  0
    9.0487  -14.0007   19.3186 C   0  0  0  0  0  0  0  0  0  0  0  0
    7.6895  -13.7552   19.4239 C   0  0  0  0  0  0  0  0  0  0  0  0
    6.9599  -13.9115   20.7101 C   0  0  0  0  0  0  0  0  0  0  0  0
    6.8654  -15.3786   21.0094 C   0  0  2  0  0  0  0  0  0  0  0  0
    5.7348  -15.9213   20.2865 N   0  0  0  0  0  0  0  0  0  0  0  0
    6.6963  -15.6830   22.4336 C   0  0  0  0  0  0  0  0  0  0  0  0
    5.6290  -15.2699   22.9949 O   0  0  0  0  0  0  0  0  0  0  0  0
    7.0480  -13.3548   18.2597 C   0  0  0  0  0  0  0  0  0  0  0  0
    7.7029  -13.2045   17.0626 C   0  0  0  0  0  0  0  0  0  0  0  0
    7.6247  -16.3980   23.2302 N   0  0  0  0  0  0  0  0  0  0  0  0
    7.4542  -16.4516   24.6814 C   0  0  1  0  0  0  0  0  0  0  0  0
    7.7302  -17.9107   25.0618 C   0  0  0  0  0  0  0  0  0  0  0  0
    7.6916  -17.9988   26.5728 C   0  0  0  0  0  0  0  0  0  0  0  0
    7.9794  -19.4236   26.9991 C   0  0  0  0  0  0  0  0  0  0  0  0
    8.0619  -19.5070   28.4888 C   0  0  0  0  0  0  0  0  0  0  0  0
    8.1011  -20.8932   28.9002 N   0  0  0  0  0  0  0  0  0  0  0  0
    8.4877  -15.6341   25.3634 C   0  0  0  0  0  0  0  0  0  0  0  0
    9.6797  -15.6827   24.9054 O   0  0  0  0  0  0  0  0  0  0  0  0
    8.2093  -14.8176   26.4803 N   0  0  0  0  0  0  0  0  0  0  0  0
    6.9127  -14.6645   27.1063 C   0  0  0  0  0  0  0  0  0  0  0  0
    6.8709  -13.1768   27.3978 C   0  0  0  0  0  0  0  0  0  0  0  0
    8.3033  -12.7438   27.5268 C   0  0  0  0  0  0  0  0  0  0  0  0
    9.1131  -13.9715   27.2394 C   0  0  1  0  0  0  0  0  0  0  0  0
    9.4175  -14.6505   28.5205 C   0  0  0  0  0  0  0  0  0  0  0  0
   10.4526  -14.1759   29.3422 O   0  0  0  0  0  0  0  0  0  0  0  0
    8.7769  -15.6410   28.8969 O   0  0  0  0  0  0  0  0  0  0  0  0
  2  1  1  0
  3  2  2  0
  4  3  1  0
  5 11  1  0
  5  4  2  0
  6  7  1  0
  6  5  1  0
  7  8  1  6
  9  7  1  0
 10  9  2  0
 11 12  2  0
 12  2  1  0
 13  9  1  0
 14 13  1  0
 14 15  1  1
 15 16  1  0
 16 17  1  0
 18 17  1  0
 19 18  1  0
 20 21  2  0
 20 14  1  0
 22 20  1  0
 23 22  1  0
 24 25  1  0
 24 23  1  0
 25 26  1  0
 26 27  1  1
 26 22  1  0
 27 28  1  0
 29 27  2  0
M  END
$$$$
