YKP.pdb
     RDKit          3D

 29 30  0  0  1  0  0  0  0  0999 V2000
   10.3361  -16.1439   31.7580 O   0  0  0  0  0  0  0  0  0  0  0  0
   10.3125  -15.8572   30.4062 C   0  0  0  0  0  0  0  0  0  0  0  0
   10.5497  -14.5619   29.9996 C   0  0  0  0  0  0  0  0  0  0  0  0
   10.5389  -14.2165   28.6641 C   0  0  0  0  0  0  0  0  0  0  0  0
   10.2888  -15.1613   27.6826 C   0  0  0  0  0  0  0  0  0  0  0  0
   10.2729  -14.8086   26.2380 C   0  0  0  0  0  0  0  0  0  0  0  0
   11.0323  -15.8697   25.4976 C   0  0  2  0  0  0  0  0  0  0  0  0
   12.4239  -15.7937   25.8885 N   0  0  0  0  0  0  0  0  0  0  0  0
   10.9515  -15.7471   24.0388 C   0  0  0  0  0  0  0  0  0  0  0  0
   11.6174  -14.8058   23.4955 O   0  0  0  0  0  0  0  0  0  0  0  0
   10.0539  -16.4560   28.1250 C   0  0  0  0  0  0  0  0  0  0  0  0
   10.0641  -16.8023   29.4533 C   0  0  0  0  0  0  0  0  0  0  0  0
   10.1930  -16.5915   23.1906 N   0  0  0  0  0  0  0  0  0  0  0  0
   10.0413  -16.2597   21.7746 C   0  0  1  0  0  0  0  0  0  0  0  0
   10.5340  -17.4995   21.0196 C   0  0  0  0  0  0  0  0  0  0  0  0
   10.3561  -17.2282   19.5407 C   0  0  0  0  0  0  0  0  0  0  0  0
   10.8732  -18.4114   18.7485 C   0  0  0  0  0  0  0  0  0  0  0  0
   10.7357  -18.1482   17.2840 C   0  0  0  0  0  0  0  0  0  0  0  0
   11.2723  -19.2623   16.5337 N   0  0  0  0  0  0  0  0  0  0  0  0
    8.6094  -16.0923   21.4236 C   0  0  0  0  0  0  0  0  0  0  0  0
    7.7470  -16.6996   22.1450 O   0  0  0  0  0  0  0  0  0  0  0  0
    8.1702  -15.3002   20.3412 N   0  0  0  0  0  0  0  0  0  0  0  0
    9.0297  -14.6274   19.3899 C   0  0  0  0  0  0  0  0  0  0  0  0
    8.3323  -13.2919   19.2163 C   0  0  0  0  0  0  0  0  0  0  0  0
    6.8848  -13.5414   19.5298 C   0  0  0  0  0  0  0  0  0  0  0  0
    6.8125  -14.9820   19.9359 C   0  0  1  0  0  0  0  0  0  0  0  0
    6.4821  -15.7959   18.7430 C   0  0  0  0  0  0  0  0  0  0  0  0
    5.1489  -15.9186   18.3195 O   0  0  0  0  0  0  0  0  0  0  0  0
    7.3597  -16.3822   18.0954 O   0  0  0  0  0  0  0  0  0  0  0  0
  2  1  1  0
  3  2  2  0
  4  3  1  0
  5 11  1  0
  5  4  2  0
  6  7  1  0
  6  5  1  0
  7  8  1  1
  9  7  1  0
 10  9  2  0
 11 12  2  0
 12  2  1  0
 13  9  1  0
 14 13  1  0
 14 15  1  6
 15 16  1  0
 16 17  1  0
 18 17  1  0
 19 18  1  0
 20 21  2  0
 20 14  1  0
 22 20  1  0
 23 22  1  0
 24 25  1  0
 24 23  1  0
 25 26  1  0
 26 27  1  6
 26 22  1  0
 27 28  1  0
 29 27  2  0
M  END
$$$$
