YKP.pdb
     RDKit          3D

 29 30  0  0  1  0  0  0  0  0999 V2000
    8.9601  -13.6328   15.4168 O   0  0  0  0  0  0  0  0  0  0  0  0
    8.6050  -13.6685   16.7520 C   0  0  0  0  0  0  0  0  0  0  0  0
    9.2741  -14.5317   17.5925 C   0  0  0  0  0  0  0  0  0  0  0  0
    8.9631  -14.6108   18.9342 C   0  0  0  0  0  0  0  0  0  0  0  0
    7.9653  -13.8237   19.4851 C   0  0  0  0  0  0  0  0  0  0  0  0
    7.6155  -13.8944   20.9286 C   0  0  0  0  0  0  0  0  0  0  0  0
    7.1444  -15.2888   21.2195 C   0  0  2  0  0  0  0  0  0  0  0  0
    5.8550  -15.4771   20.5894 N   0  0  0  0  0  0  0  0  0  0  0  0
    7.0106  -15.5826   22.6497 C   0  0  0  0  0  0  0  0  0  0  0  0
    6.1224  -14.9365   23.2965 O   0  0  0  0  0  0  0  0  0  0  0  0
    7.3108  -12.9653   18.6121 C   0  0  0  0  0  0  0  0  0  0  0  0
    7.6183  -12.8847   17.2766 C   0  0  0  0  0  0  0  0  0  0  0  0
    7.7899  -16.5258   23.3645 N   0  0  0  0  0  0  0  0  0  0  0  0
    7.7015  -16.5922   24.8225 C   0  0  1  0  0  0  0  0  0  0  0  0
    7.7234  -18.0884   25.1556 C   0  0  0  0  0  0  0  0  0  0  0  0
    7.6998  -18.2158   26.6641 C   0  0  0  0  0  0  0  0  0  0  0  0
    7.8406  -19.6750   27.0459 C   0  0  0  0  0  0  0  0  0  0  0  0
    7.7273  -19.8312   28.5276 C   0  0  0  0  0  0  0  0  0  0  0  0
    7.7182  -21.2358   28.8727 N   0  0  0  0  0  0  0  0  0  0  0  0
    8.9090  -16.0015   25.4506 C   0  0  0  0  0  0  0  0  0  0  0  0
   10.0390  -16.2404   24.9038 O   0  0  0  0  0  0  0  0  0  0  0  0
    8.8583  -15.1982   26.6099 N   0  0  0  0  0  0  0  0  0  0  0  0
    7.6792  -14.9603   27.4158 C   0  0  0  0  0  0  0  0  0  0  0  0
    7.8025  -13.4832   27.7364 C   0  0  0  0  0  0  0  0  0  0  0  0
    9.2699  -13.1699   27.6687 C   0  0  0  0  0  0  0  0  0  0  0  0
    9.9266  -14.4495   27.2480 C   0  0  1  0  0  0  0  0  0  0  0  0
   10.3495  -15.1876   28.4609 C   0  0  0  0  0  0  0  0  0  0  0  0
   11.5302  -14.8276   29.1303 O   0  0  0  0  0  0  0  0  0  0  0  0
    9.6832  -16.1290   28.9116 O   0  0  0  0  0  0  0  0  0  0  0  0
  2  1  1  0
  3  2  2  0
  4  3  1  0
  5 11  1  0
  5  4  2  0
  6  7  1  0
  6  5  1  0
  7  8  1  6
  9  7  1  0
 10  9  2  0
 11 12  2  0
 12  2  1  0
 13  9  1  0
 14 13  1  0
 14 15  1  6
 15 16  1  0
 16 17  1  0
 18 17  1  0
 19 18  1  0
 20 21  2  0
 20 14  1  0
 22 20  1  0
 23 22  1  0
 24 25  1  0
 24 23  1  0
 25 26  1  0
 26 27  1  1
 26 22  1  0
 27 28  1  0
 29 27  2  0
M  END
$$$$
