YKP.pdb
     RDKit          3D

 29 30  0  0  1  0  0  0  0  0999 V2000
    9.8951  -14.8629   30.8383 O   0  0  0  0  0  0  0  0  0  0  0  0
    9.8274  -15.0463   29.4701 C   0  0  0  0  0  0  0  0  0  0  0  0
   10.2192  -16.2583   28.9441 C   0  0  0  0  0  0  0  0  0  0  0  0
   10.1734  -16.4990   27.5865 C   0  0  0  0  0  0  0  0  0  0  0  0
    9.7311  -15.5288   26.7023 C   0  0  0  0  0  0  0  0  0  0  0  0
    9.6745  -15.7690   25.2359 C   0  0  0  0  0  0  0  0  0  0  0  0
    8.2321  -15.7554   24.8233 C   0  0  2  0  0  0  0  0  0  0  0  0
    7.5667  -16.8785   25.4486 N   0  0  0  0  0  0  0  0  0  0  0  0
    8.0297  -15.8430   23.3739 C   0  0  0  0  0  0  0  0  0  0  0  0
    8.1142  -16.9985   22.8426 O   0  0  0  0  0  0  0  0  0  0  0  0
    9.3439  -14.3197   27.2638 C   0  0  0  0  0  0  0  0  0  0  0  0
    9.3885  -14.0777   28.6143 C   0  0  0  0  0  0  0  0  0  0  0  0
    7.7486  -14.7458   22.5223 N   0  0  0  0  0  0  0  0  0  0  0  0
    7.9964  -14.8534   21.0853 C   0  0  1  0  0  0  0  0  0  0  0  0
    8.0127  -13.4083   20.5742 C   0  0  0  0  0  0  0  0  0  0  0  0
    8.8088  -13.3935   19.2864 C   0  0  0  0  0  0  0  0  0  0  0  0
    7.8566  -13.4188   18.1085 C   0  0  0  0  0  0  0  0  0  0  0  0
    8.6252  -13.4150   16.8270 C   0  0  0  0  0  0  0  0  0  0  0  0
    7.7136  -13.5223   15.7090 N   0  0  0  0  0  0  0  0  0  0  0  0
    9.3470  -15.4095   20.8242 C   0  0  0  0  0  0  0  0  0  0  0  0
   10.2953  -15.0547   21.6038 O   0  0  0  0  0  0  0  0  0  0  0  0
    9.6202  -16.3014   19.7651 N   0  0  0  0  0  0  0  0  0  0  0  0
    8.7107  -16.6285   18.6870 C   0  0  0  0  0  0  0  0  0  0  0  0
    8.9192  -18.1229   18.5339 C   0  0  0  0  0  0  0  0  0  0  0  0
   10.3107  -18.3957   19.0292 C   0  0  0  0  0  0  0  0  0  0  0  0
   10.8241  -17.0724   19.5097 C   0  0  1  0  0  0  0  0  0  0  0  0
   11.5658  -16.4211   18.4049 C   0  0  0  0  0  0  0  0  0  0  0  0
   10.9151  -15.5073   17.5603 O   0  0  0  0  0  0  0  0  0  0  0  0
   12.7630  -16.6609   18.1986 O   0  0  0  0  0  0  0  0  0  0  0  0
  2  1  1  0
  3  2  2  0
  4  3  1  0
  5 11  1  0
  5  4  2  0
  6  7  1  0
  6  5  1  0
  7  8  1  1
  9  7  1  0
 10  9  2  0
 11 12  2  0
 12  2  1  0
 13  9  1  0
 14 13  1  0
 14 15  1  6
 15 16  1  0
 16 17  1  0
 18 17  1  0
 19 18  1  0
 20 21  2  0
 20 14  1  0
 22 20  1  0
 23 22  1  0
 24 25  1  0
 24 23  1  0
 25 26  1  0
 26 27  1  6
 26 22  1  0
 27 28  1  0
 29 27  2  0
M  END
$$$$
