YKP.pdb
     RDKit          3D

 29 30  0  0  1  0  0  0  0  0999 V2000
   10.9099  -14.9476   31.2574 O   0  0  0  0  0  0  0  0  0  0  0  0
   10.5499  -15.7349   30.1801 C   0  0  0  0  0  0  0  0  0  0  0  0
   10.2685  -15.1234   28.9776 C   0  0  0  0  0  0  0  0  0  0  0  0
    9.9039  -15.8576   27.8680 C   0  0  0  0  0  0  0  0  0  0  0  0
    9.8075  -17.2383   27.9236 C   0  0  0  0  0  0  0  0  0  0  0  0
    9.4161  -18.0471   26.7388 C   0  0  0  0  0  0  0  0  0  0  0  0
    7.9262  -17.9533   26.5902 C   0  0  2  0  0  0  0  0  0  0  0  0
    7.3950  -19.2925   26.4501 N   0  0  0  0  0  0  0  0  0  0  0  0
    7.4948  -17.1587   25.4360 C   0  0  0  0  0  0  0  0  0  0  0  0
    7.1472  -17.7952   24.3877 O   0  0  0  0  0  0  0  0  0  0  0  0
   10.0972  -17.8231   29.1488 C   0  0  0  0  0  0  0  0  0  0  0  0
   10.4603  -17.0949   30.2544 C   0  0  0  0  0  0  0  0  0  0  0  0
    7.4352  -15.7436   25.3971 N   0  0  0  0  0  0  0  0  0  0  0  0
    7.2210  -15.0555   24.1248 C   0  0  1  0  0  0  0  0  0  0  0  0
    7.3590  -13.5638   24.4499 C   0  0  0  0  0  0  0  0  0  0  0  0
    6.2509  -13.2081   25.4183 C   0  0  0  0  0  0  0  0  0  0  0  0
    6.3739  -11.7489   25.8064 C   0  0  0  0  0  0  0  0  0  0  0  0
    5.3132  -11.3897   26.7957 C   0  0  0  0  0  0  0  0  0  0  0  0
    5.4551  -10.0036   27.1840 N   0  0  0  0  0  0  0  0  0  0  0  0
    8.3024  -15.3803   23.1621 C   0  0  0  0  0  0  0  0  0  0  0  0
    9.3114  -16.0301   23.6008 O   0  0  0  0  0  0  0  0  0  0  0  0
    8.2598  -15.0055   21.8021 N   0  0  0  0  0  0  0  0  0  0  0  0
    7.4793  -13.9153   21.2556 C   0  0  0  0  0  0  0  0  0  0  0  0
    6.9514  -14.5139   19.9660 C   0  0  0  0  0  0  0  0  0  0  0  0
    7.9403  -15.5730   19.5705 C   0  0  0  0  0  0  0  0  0  0  0  0
    8.9562  -15.5940   20.6718 C   0  0  1  0  0  0  0  0  0  0  0  0
   10.0772  -14.6991   20.3012 C   0  0  0  0  0  0  0  0  0  0  0  0
   10.2218  -13.4515   20.9293 O   0  0  0  0  0  0  0  0  0  0  0  0
   10.9060  -15.0216   19.4396 O   0  0  0  0  0  0  0  0  0  0  0  0
  2  1  1  0
  3  2  2  0
  4  3  1  0
  5 11  1  0
  5  4  2  0
  6  7  1  0
  6  5  1  0
  7  8  1  6
  9  7  1  0
 10  9  2  0
 11 12  2  0
 12  2  1  0
 13  9  1  0
 14 13  1  0
 14 15  1  1
 15 16  1  0
 16 17  1  0
 18 17  1  0
 19 18  1  0
 20 21  2  0
 20 14  1  0
 22 20  1  0
 23 22  1  0
 24 25  1  0
 24 23  1  0
 25 26  1  0
 26 27  1  6
 26 22  1  0
 27 28  1  0
 29 27  2  0
M  END
$$$$
