YEW.pdb
     RDKit          3D

 36 38  0  0  1  0  0  0  0  0999 V2000
   26.1776  -19.2301  -21.7261 O   0  0  0  0  0  0  0  0  0  0  0  0
   25.8386  -19.0078  -20.3836 C   0  0  0  0  0  0  0  0  0  0  0  0
   25.6176  -17.7152  -19.9345 C   0  0  0  0  0  0  0  0  0  0  0  0
   25.2770  -17.4501  -18.6012 C   0  0  0  0  0  0  0  0  0  0  0  0
   25.1692  -18.5209  -17.7525 C   0  0  0  0  0  0  0  0  0  0  0  0
   24.8079  -18.3386  -16.3364 C   0  0  0  0  0  0  0  0  0  0  0  0
   23.4358  -18.9466  -16.0689 C   0  0  2  0  0  0  0  0  0  0  0  0
   22.4561  -18.2160  -16.8026 N   0  0  0  0  0  0  0  0  0  0  0  0
   23.2017  -19.0900  -14.6371 C   0  0  0  0  0  0  0  0  0  0  0  0
   22.8251  -18.0598  -14.0028 O   0  0  0  0  0  0  0  0  0  0  0  0
   25.3896  -19.8159  -18.1978 C   0  0  0  0  0  0  0  0  0  0  0  0
   25.7271  -20.0696  -19.5198 C   0  0  0  0  0  0  0  0  0  0  0  0
   23.3491  -20.2684  -13.8631 N   0  0  0  0  0  0  0  0  0  0  0  0
   22.9859  -20.3213  -12.4714 C   0  0  1  0  0  0  0  0  0  0  0  0
   21.8557  -21.2393  -12.1747 C   0  0  0  0  0  0  0  0  0  0  0  0
   20.5222  -20.7826  -12.7159 C   0  0  0  0  0  0  0  0  0  0  0  0
   19.8914  -19.9283  -11.6887 C   0  0  0  0  0  0  0  0  0  0  0  0
   20.3439  -19.9297  -10.5266 O   0  0  0  0  0  0  0  0  0  0  0  0
   24.1745  -20.8173  -11.6923 C   0  0  0  0  0  0  0  0  0  0  0  0
   24.8288  -21.8398  -12.0953 O   0  0  0  0  0  0  0  0  0  0  0  0
   18.8168  -19.1361  -12.0066 O   0  0  0  0  0  0  0  0  0  0  0  0
   24.6444  -20.2222  -10.5115 N   0  0  0  0  0  0  0  0  0  0  0  0
   25.7713  -20.7685   -9.7224 C   0  0  1  0  0  0  0  0  0  0  0  0
   26.7349  -19.6932   -9.3999 C   0  0  0  0  0  0  0  0  0  0  0  0
   27.8842  -20.1633   -8.6224 C   0  0  0  0  0  0  0  0  0  0  0  0
   28.8856  -21.0289   -9.0684 C   0  0  0  0  0  0  0  0  0  0  0  0
   29.7727  -21.2747   -8.1005 N   0  0  0  0  0  0  0  0  0  0  0  0
   29.3771  -20.5872   -7.0241 C   0  0  0  0  0  0  0  0  0  0  0  0
   29.9501  -20.4805   -5.7698 C   0  0  0  0  0  0  0  0  0  0  0  0
   29.4230  -19.7050   -4.7680 C   0  0  0  0  0  0  0  0  0  0  0  0
   28.2608  -19.0162   -5.0766 C   0  0  0  0  0  0  0  0  0  0  0  0
   27.6707  -19.1047   -6.3123 C   0  0  0  0  0  0  0  0  0  0  0  0
   28.2158  -19.8881   -7.3036 C   0  0  0  0  0  0  0  0  0  0  0  0
   25.2680  -21.5343   -8.5897 C   0  0  0  0  0  0  0  0  0  0  0  0
   25.9430  -22.6734   -8.0971 O   0  0  0  0  0  0  0  0  0  0  0  0
   24.2106  -21.2679   -7.9501 O   0  0  0  0  0  0  0  0  0  0  0  0
  2  1  1  0
  3  2  2  0
  4  3  1  0
  5  4  2  0
  6  5  1  0
  7  8  1  1
  7  6  1  0
  9  7  1  0
 10  9  2  0
 11  5  1  0
 11 12  2  0
 12  2  1  0
 13  9  1  0
 14 13  1  0
 14 15  1  6
 15 16  1  0
 16 17  1  0
 17 18  2  0
 17 21  1  0
 19 20  2  0
 19 14  1  0
 22 19  1  0
 23 22  1  0
 23 24  1  1
 24 25  1  0
 25 26  2  0
 25 33  1  0
 26 27  1  0
 27 28  1  0
 28 29  2  0
 29 30  1  0
 31 30  2  0
 32 31  1  0
 33 32  2  0
 33 28  1  0
 34 35  1  0
 34 23  1  0
 36 34  2  0
M  END
$$$$
