YEW.pdb
     RDKit          3D

 36 38  0  0  1  0  0  0  0  0999 V2000
   31.5632  -16.3495  -19.1794 O   0  0  0  0  0  0  0  0  0  0  0  0
   30.5212  -17.0380  -18.5416 C   0  0  0  0  0  0  0  0  0  0  0  0
   30.2791  -16.8248  -17.1936 C   0  0  0  0  0  0  0  0  0  0  0  0
   29.2480  -17.4923  -16.5189 C   0  0  0  0  0  0  0  0  0  0  0  0
   28.4829  -18.3683  -17.2440 C   0  0  0  0  0  0  0  0  0  0  0  0
   27.3727  -19.1084  -16.6206 C   0  0  0  0  0  0  0  0  0  0  0  0
   27.9152  -20.3122  -15.8585 C   0  0  2  0  0  0  0  0  0  0  0  0
   28.4405  -21.2517  -16.7931 N   0  0  0  0  0  0  0  0  0  0  0  0
   26.9258  -20.8182  -14.9150 C   0  0  0  0  0  0  0  0  0  0  0  0
   26.0405  -21.6047  -15.3658 O   0  0  0  0  0  0  0  0  0  0  0  0
   28.7219  -18.5847  -18.5931 C   0  0  0  0  0  0  0  0  0  0  0  0
   29.7455  -17.9198  -19.2535 C   0  0  0  0  0  0  0  0  0  0  0  0
   26.8409  -20.5265  -13.5304 N   0  0  0  0  0  0  0  0  0  0  0  0
   25.7801  -21.0383  -12.7032 C   0  0  1  0  0  0  0  0  0  0  0  0
   25.9185  -20.7008  -11.2627 C   0  0  0  0  0  0  0  0  0  0  0  0
   24.8377  -21.2772  -10.3801 C   0  0  0  0  0  0  0  0  0  0  0  0
   25.1173  -20.8503   -8.9936 C   0  0  0  0  0  0  0  0  0  0  0  0
   26.0143  -20.0109   -8.7788 O   0  0  0  0  0  0  0  0  0  0  0  0
   24.4827  -20.4383  -13.1752 C   0  0  0  0  0  0  0  0  0  0  0  0
   24.3613  -19.1698  -13.2860 O   0  0  0  0  0  0  0  0  0  0  0  0
   24.3969  -21.3691   -7.9470 O   0  0  0  0  0  0  0  0  0  0  0  0
   23.3489  -21.1896  -13.5205 N   0  0  0  0  0  0  0  0  0  0  0  0
   22.0679  -20.5765  -13.9383 C   0  0  1  0  0  0  0  0  0  0  0  0
   21.9700  -20.5590  -15.4145 C   0  0  0  0  0  0  0  0  0  0  0  0
   20.7225  -19.9655  -15.9022 C   0  0  0  0  0  0  0  0  0  0  0  0
   20.2691  -18.6690  -15.6483 C   0  0  0  0  0  0  0  0  0  0  0  0
   19.0819  -18.4555  -16.2219 N   0  0  0  0  0  0  0  0  0  0  0  0
   18.7427  -19.5857  -16.8507 C   0  0  0  0  0  0  0  0  0  0  0  0
   17.6264  -19.8877  -17.6092 C   0  0  0  0  0  0  0  0  0  0  0  0
   17.4369  -21.1051  -18.2131 C   0  0  0  0  0  0  0  0  0  0  0  0
   18.4392  -22.0431  -18.0238 C   0  0  0  0  0  0  0  0  0  0  0  0
   19.5567  -21.7706  -17.2755 C   0  0  0  0  0  0  0  0  0  0  0  0
   19.7276  -20.5427  -16.6782 C   0  0  0  0  0  0  0  0  0  0  0  0
   20.9570  -21.2021  -13.2331 C   0  0  0  0  0  0  0  0  0  0  0  0
   19.8065  -20.4752  -12.8543 O   0  0  0  0  0  0  0  0  0  0  0  0
   20.9078  -22.4203  -12.8986 O   0  0  0  0  0  0  0  0  0  0  0  0
  2  1  1  0
  3  2  2  0
  4  3  1  0
  5  4  2  0
  6  5  1  0
  7  8  1  6
  7  6  1  0
  9  7  1  0
 10  9  2  0
 11  5  1  0
 11 12  2  0
 12  2  1  0
 13  9  1  0
 14 13  1  0
 14 15  1  1
 15 16  1  0
 16 17  1  0
 17 18  2  0
 17 21  1  0
 19 20  2  0
 19 14  1  0
 22 19  1  0
 23 22  1  0
 23 24  1  6
 24 25  1  0
 25 26  2  0
 25 33  1  0
 26 27  1  0
 27 28  1  0
 28 29  2  0
 29 30  1  0
 31 30  2  0
 32 31  1  0
 33 32  2  0
 33 28  1  0
 34 35  1  0
 34 23  1  0
 36 34  2  0
M  END
$$$$
