YEW.pdb
     RDKit          3D

 36 38  0  0  1  0  0  0  0  0999 V2000
   27.5318  -30.2260  -26.9001 O   0  0  0  0  0  0  0  0  0  0  0  0
   28.1991  -30.0318  -25.6821 C   0  0  0  0  0  0  0  0  0  0  0  0
   28.4140  -28.7455  -25.2126 C   0  0  0  0  0  0  0  0  0  0  0  0
   29.0764  -28.5083  -24.0005 C   0  0  0  0  0  0  0  0  0  0  0  0
   29.5061  -29.5999  -23.2919 C   0  0  0  0  0  0  0  0  0  0  0  0
   30.2042  -29.4470  -22.0042 C   0  0  0  0  0  0  0  0  0  0  0  0
   29.2685  -29.8193  -20.8597 C   0  0  2  0  0  0  0  0  0  0  0  0
   28.2478  -28.8295  -20.7573 N   0  0  0  0  0  0  0  0  0  0  0  0
   30.0221  -30.1033  -19.6444 C   0  0  0  0  0  0  0  0  0  0  0  0
   30.2437  -29.1354  -18.8573 O   0  0  0  0  0  0  0  0  0  0  0  0
   29.2932  -30.8887  -23.7583 C   0  0  0  0  0  0  0  0  0  0  0  0
   28.6368  -31.1149  -24.9599 C   0  0  0  0  0  0  0  0  0  0  0  0
   30.5420  -31.3576  -19.2373 N   0  0  0  0  0  0  0  0  0  0  0  0
   31.1709  -31.5472  -17.9567 C   0  0  1  0  0  0  0  0  0  0  0  0
   31.0302  -32.9218  -17.4102 C   0  0  0  0  0  0  0  0  0  0  0  0
   29.7406  -33.1680  -16.6646 C   0  0  0  0  0  0  0  0  0  0  0  0
   29.7469  -32.3076  -15.4637 C   0  0  0  0  0  0  0  0  0  0  0  0
   28.9361  -31.3637  -15.3805 O   0  0  0  0  0  0  0  0  0  0  0  0
   32.6445  -31.2815  -18.1111 C   0  0  0  0  0  0  0  0  0  0  0  0
   33.2025  -31.3876  -19.2572 O   0  0  0  0  0  0  0  0  0  0  0  0
   30.6349  -32.5424  -14.4439 O   0  0  0  0  0  0  0  0  0  0  0  0
   33.4908  -30.9086  -17.0557 N   0  0  0  0  0  0  0  0  0  0  0  0
   34.9509  -30.7241  -17.2152 C   0  0  1  0  0  0  0  0  0  0  0  0
   35.5545  -30.3087  -15.9298 C   0  0  0  0  0  0  0  0  0  0  0  0
   37.0007  -30.0909  -16.0161 C   0  0  0  0  0  0  0  0  0  0  0  0
   37.6367  -28.9339  -16.4717 C   0  0  0  0  0  0  0  0  0  0  0  0
   38.9647  -29.0743  -16.4438 N   0  0  0  0  0  0  0  0  0  0  0  0
   39.2182  -30.3016  -15.9776 C   0  0  0  0  0  0  0  0  0  0  0  0
   40.4231  -30.9366  -15.7371 C   0  0  0  0  0  0  0  0  0  0  0  0
   40.5125  -32.2082  -15.2295 C   0  0  0  0  0  0  0  0  0  0  0  0
   39.3108  -32.8447  -14.9622 C   0  0  0  0  0  0  0  0  0  0  0  0
   38.1014  -32.2387  -15.1921 C   0  0  0  0  0  0  0  0  0  0  0  0
   38.0337  -30.9621  -15.7016 C   0  0  0  0  0  0  0  0  0  0  0  0
   35.5403  -31.8974  -17.8467 C   0  0  0  0  0  0  0  0  0  0  0  0
   36.5988  -31.7946  -18.7765 O   0  0  0  0  0  0  0  0  0  0  0  0
   35.1789  -33.0902  -17.6347 O   0  0  0  0  0  0  0  0  0  0  0  0
  2  1  1  0
  3  2  2  0
  4  3  1  0
  5  4  2  0
  6  5  1  0
  7  8  1  1
  7  6  1  0
  9  7  1  0
 10  9  2  0
 11  5  1  0
 11 12  2  0
 12  2  1  0
 13  9  1  0
 14 13  1  0
 14 15  1  6
 15 16  1  0
 16 17  1  0
 17 18  2  0
 17 21  1  0
 19 20  2  0
 19 14  1  0
 22 19  1  0
 23 22  1  0
 23 24  1  1
 24 25  1  0
 25 26  2  0
 25 33  1  0
 26 27  1  0
 27 28  1  0
 28 29  2  0
 29 30  1  0
 31 30  2  0
 32 31  1  0
 33 32  2  0
 33 28  1  0
 34 35  1  0
 34 23  1  0
 36 34  2  0
M  END
$$$$
