YEW.pdb
     RDKit          3D

 36 38  0  0  1  0  0  0  0  0999 V2000
   37.0166  -28.7591  -18.7346 O   0  0  0  0  0  0  0  0  0  0  0  0
   35.6903  -29.0777  -19.0604 C   0  0  0  0  0  0  0  0  0  0  0  0
   35.4020  -30.2934  -19.6605 C   0  0  0  0  0  0  0  0  0  0  0  0
   34.0904  -30.6501  -20.0019 C   0  0  0  0  0  0  0  0  0  0  0  0
   33.0973  -29.7489  -19.7191 C   0  0  0  0  0  0  0  0  0  0  0  0
   31.6890  -30.0415  -20.0350 C   0  0  0  0  0  0  0  0  0  0  0  0
   30.9484  -30.4545  -18.7682 C   0  0  2  0  0  0  0  0  0  0  0  0
   31.4933  -31.6837  -18.2948 N   0  0  0  0  0  0  0  0  0  0  0  0
   29.5057  -30.4207  -18.9758 C   0  0  0  0  0  0  0  0  0  0  0  0
   29.0402  -31.0996  -19.9391 O   0  0  0  0  0  0  0  0  0  0  0  0
   33.3816  -28.5312  -19.1188 C   0  0  0  0  0  0  0  0  0  0  0  0
   34.6834  -28.1855  -18.7845 C   0  0  0  0  0  0  0  0  0  0  0  0
   28.5509  -29.7046  -18.2109 N   0  0  0  0  0  0  0  0  0  0  0  0
   27.1419  -29.7589  -18.4991 C   0  0  1  0  0  0  0  0  0  0  0  0
   26.3607  -30.5923  -17.5487 C   0  0  0  0  0  0  0  0  0  0  0  0
   27.1069  -30.9711  -16.2920 C   0  0  0  0  0  0  0  0  0  0  0  0
   27.3643  -32.4249  -16.3456 C   0  0  0  0  0  0  0  0  0  0  0  0
   26.9536  -33.0856  -17.3204 O   0  0  0  0  0  0  0  0  0  0  0  0
   26.5898  -28.3609  -18.4182 C   0  0  0  0  0  0  0  0  0  0  0  0
   26.9357  -27.5851  -17.4618 O   0  0  0  0  0  0  0  0  0  0  0  0
   28.0515  -33.0478  -15.3340 O   0  0  0  0  0  0  0  0  0  0  0  0
   25.6906  -27.8158  -19.3475 N   0  0  0  0  0  0  0  0  0  0  0  0
   25.2300  -26.4098  -19.2997 C   0  0  1  0  0  0  0  0  0  0  0  0
   25.5572  -25.7240  -20.5691 C   0  0  0  0  0  0  0  0  0  0  0  0
   24.7502  -26.1890  -21.7000 C   0  0  0  0  0  0  0  0  0  0  0  0
   23.4078  -25.8855  -21.9379 C   0  0  0  0  0  0  0  0  0  0  0  0
   22.9681  -26.4913  -23.0441 N   0  0  0  0  0  0  0  0  0  0  0  0
   23.9947  -27.1886  -23.5421 C   0  0  0  0  0  0  0  0  0  0  0  0
   24.0770  -27.9722  -24.6787 C   0  0  0  0  0  0  0  0  0  0  0  0
   25.2270  -28.6121  -25.0669 C   0  0  0  0  0  0  0  0  0  0  0  0
   26.3307  -28.4342  -24.2480 C   0  0  0  0  0  0  0  0  0  0  0  0
   26.2769  -27.6630  -23.1143 C   0  0  0  0  0  0  0  0  0  0  0  0
   25.1132  -27.0294  -22.7427 C   0  0  0  0  0  0  0  0  0  0  0  0
   23.8346  -26.3513  -18.8847 C   0  0  0  0  0  0  0  0  0  0  0  0
   22.9927  -27.4849  -18.9279 O   0  0  0  0  0  0  0  0  0  0  0  0
   23.2512  -25.3149  -18.4559 O   0  0  0  0  0  0  0  0  0  0  0  0
  2  1  1  0
  3  2  2  0
  4  3  1  0
  5  4  2  0
  6  5  1  0
  7  8  1  6
  7  6  1  0
  9  7  1  0
 10  9  2  0
 11  5  1  0
 11 12  2  0
 12  2  1  0
 13  9  1  0
 14 13  1  0
 14 15  1  1
 15 16  1  0
 16 17  1  0
 17 18  2  0
 17 21  1  0
 19 20  2  0
 19 14  1  0
 22 19  1  0
 23 22  1  0
 23 24  1  6
 24 25  1  0
 25 26  2  0
 25 33  1  0
 26 27  1  0
 27 28  1  0
 28 29  2  0
 29 30  1  0
 31 30  2  0
 32 31  1  0
 33 32  2  0
 33 28  1  0
 34 35  1  0
 34 23  1  0
 36 34  2  0
M  END
$$$$
