YEW.pdb
     RDKit          3D

 36 38  0  0  1  0  0  0  0  0999 V2000
   19.6634  -19.0298  -19.4739 O   0  0  0  0  0  0  0  0  0  0  0  0
   19.9742  -17.6755  -19.2850 C   0  0  0  0  0  0  0  0  0  0  0  0
   20.8224  -17.0336  -20.1737 C   0  0  0  0  0  0  0  0  0  0  0  0
   21.1581  -15.6815  -20.0207 C   0  0  0  0  0  0  0  0  0  0  0  0
   20.6142  -15.0128  -18.9552 C   0  0  0  0  0  0  0  0  0  0  0  0
   20.9044  -13.5883  -18.7197 C   0  0  0  0  0  0  0  0  0  0  0  0
   19.7061  -12.7402  -19.1306 C   0  0  2  0  0  0  0  0  0  0  0  0
   19.4646  -12.9261  -20.5230 N   0  0  0  0  0  0  0  0  0  0  0  0
   19.8643  -11.3638  -18.6768 C   0  0  0  0  0  0  0  0  0  0  0  0
   20.6039  -10.6036  -19.3700 O   0  0  0  0  0  0  0  0  0  0  0  0
   19.7650  -15.6515  -18.0636 C   0  0  0  0  0  0  0  0  0  0  0  0
   19.4381  -16.9909  -18.2220 C   0  0  0  0  0  0  0  0  0  0  0  0
   19.2755  -10.7707  -17.5318 N   0  0  0  0  0  0  0  0  0  0  0  0
   19.5615   -9.4163  -17.1377 C   0  0  1  0  0  0  0  0  0  0  0  0
   18.4738   -8.7694  -16.3588 C   0  0  0  0  0  0  0  0  0  0  0  0
   18.8223   -7.4048  -15.8150 C   0  0  0  0  0  0  0  0  0  0  0  0
   17.6238   -6.8760  -15.1317 C   0  0  0  0  0  0  0  0  0  0  0  0
   16.7305   -6.3203  -15.8014 O   0  0  0  0  0  0  0  0  0  0  0  0
   20.7855   -9.4284  -16.2618 C   0  0  0  0  0  0  0  0  0  0  0  0
   21.0246  -10.4287  -15.5012 O   0  0  0  0  0  0  0  0  0  0  0  0
   17.4891   -6.9948  -13.7711 O   0  0  0  0  0  0  0  0  0  0  0  0
   21.7267   -8.3887  -16.2117 N   0  0  0  0  0  0  0  0  0  0  0  0
   23.1333   -8.5893  -15.7965 C   0  0  1  0  0  0  0  0  0  0  0  0
   23.6945   -9.7855  -16.4619 C   0  0  0  0  0  0  0  0  0  0  0  0
   25.0815  -10.0608  -16.0787 C   0  0  0  0  0  0  0  0  0  0  0  0
   25.5036  -10.7381  -14.9324 C   0  0  0  0  0  0  0  0  0  0  0  0
   26.8367  -10.7955  -14.8731 N   0  0  0  0  0  0  0  0  0  0  0  0
   27.3034  -10.1699  -15.9588 C   0  0  0  0  0  0  0  0  0  0  0  0
   28.6033   -9.9656  -16.3848 C   0  0  0  0  0  0  0  0  0  0  0  0
   28.9168   -9.3136  -17.5506 C   0  0  0  0  0  0  0  0  0  0  0  0
   27.8455   -8.8564  -18.3015 C   0  0  0  0  0  0  0  0  0  0  0  0
   26.5462   -9.0445  -17.9022 C   0  0  0  0  0  0  0  0  0  0  0  0
   26.2532   -9.7016  -16.7291 C   0  0  0  0  0  0  0  0  0  0  0  0
   23.8881   -7.3541  -15.9629 C   0  0  0  0  0  0  0  0  0  0  0  0
   23.4037   -6.2804  -16.7428 O   0  0  0  0  0  0  0  0  0  0  0  0
   25.0169   -7.1215  -15.4434 O   0  0  0  0  0  0  0  0  0  0  0  0
  2  1  1  0
  3  2  2  0
  4  3  1  0
  5  4  2  0
  6  5  1  0
  7  8  1  6
  7  6  1  0
  9  7  1  0
 10  9  2  0
 11  5  1  0
 11 12  2  0
 12  2  1  0
 13  9  1  0
 14 13  1  0
 14 15  1  1
 15 16  1  0
 16 17  1  0
 17 18  2  0
 17 21  1  0
 19 20  2  0
 19 14  1  0
 22 19  1  0
 23 22  1  0
 23 24  1  6
 24 25  1  0
 25 26  2  0
 25 33  1  0
 26 27  1  0
 27 28  1  0
 28 29  2  0
 29 30  1  0
 31 30  2  0
 32 31  1  0
 33 32  2  0
 33 28  1  0
 34 35  1  0
 34 23  1  0
 36 34  2  0
M  END
$$$$
