LKF.pdb
     RDKit          3D

 29 29  0  0  1  0  0  0  0  0999 V2000
    9.4015  -13.1235   19.4765 C   0  0  0  0  0  0  0  0  0  0  0  0
    7.9832  -13.3477   19.0590 C   0  0  2  0  0  0  0  0  0  0  0  0
    7.3853  -12.0247   18.6715 C   0  0  0  0  0  0  0  0  0  0  0  0
    7.1972  -14.0476   20.1501 C   0  0  0  0  0  0  0  0  0  0  0  0
    8.1012  -15.1123   20.7301 C   0  0  2  0  0  0  0  0  0  0  0  0
    8.2570  -16.1503   19.7498 N   0  0  0  0  0  0  0  0  0  0  0  0
    7.6242  -15.6177   22.0330 C   0  0  0  0  0  0  0  0  0  0  0  0
    7.2022  -14.8530   22.9150 O   0  0  0  0  0  0  0  0  0  0  0  0
    7.6530  -17.0229   22.2751 N   0  0  0  0  0  0  0  0  0  0  0  0
    7.1533  -17.6230   23.4797 C   0  0  1  0  0  0  0  0  0  0  0  0
    6.9757  -19.0798   23.3257 C   0  0  0  0  0  0  0  0  0  0  0  0
    5.8430  -19.5914   22.5354 C   0  0  0  0  0  0  0  0  0  0  0  0
    5.6938  -21.0542   22.3725 C   0  0  0  0  0  0  0  0  0  0  0  0
    4.4568  -21.2959   21.5177 C   0  0  0  0  0  0  0  0  0  0  0  0
    4.7110  -22.1976   20.4323 N   0  0  0  0  0  0  0  0  0  0  0  0
    8.1002  -17.3185   24.6328 C   0  0  0  0  0  0  0  0  0  0  0  0
    9.3410  -17.2606   24.4520 O   0  0  0  0  0  0  0  0  0  0  0  0
    7.6074  -17.0933   25.9357 N   0  0  0  0  0  0  0  0  0  0  0  0
    8.4602  -16.6608   27.0520 C   0  0  1  0  0  0  0  0  0  0  0  0
    7.6296  -15.7248   27.8996 C   0  0  0  0  0  0  0  0  0  0  0  0
    7.3346  -14.4498   27.2114 C   0  0  0  0  0  0  0  0  0  0  0  0
    6.1384  -14.2522   26.5561 C   0  0  0  0  0  0  0  0  0  0  0  0
    5.9020  -13.0390   25.9225 C   0  0  0  0  0  0  0  0  0  0  0  0
    6.8134  -12.0115   25.9160 C   0  0  0  0  0  0  0  0  0  0  0  0
    8.0108  -12.2066   26.5708 C   0  0  0  0  0  0  0  0  0  0  0  0
    8.2586  -13.4065   27.2041 C   0  0  0  0  0  0  0  0  0  0  0  0
    9.0322  -17.7945   27.7703 C   0  0  0  0  0  0  0  0  0  0  0  0
   10.1149  -17.6612   28.6249 O   0  0  0  0  0  0  0  0  0  0  0  0
    8.5436  -18.9381   27.6250 O   0  0  0  0  0  0  0  0  0  0  0  0
  2  1  1  1
  2  3  1  0
  4  2  1  0
  5  4  1  0
  5  6  1  6
  7  5  1  0
  7  8  2  0
  9  7  1  0
 10  9  1  0
 11 12  1  0
 10 11  1  6
 12 13  1  0
 13 14  1  0
 14 15  1  0
 16 10  1  0
 17 16  2  0
 18 16  1  0
 19 18  1  0
 19 20  1  1
 21 22  2  0
 21 20  1  0
 23 22  1  0
 24 23  2  0
 25 24  1  0
 25 26  2  0
 26 21  1  0
 27 19  1  0
 28 27  1  0
 29 27  2  0
M  END
$$$$
