LKF.pdb
     RDKit          3D

 29 29  0  0  1  0  0  0  0  0999 V2000
    8.3755  -11.5899   20.2988 C   0  0  0  0  0  0  0  0  0  0  0  0
    8.4023  -13.0665   20.0638 C   0  0  2  0  0  0  0  0  0  0  0  0
    7.7402  -13.3516   18.7453 C   0  0  0  0  0  0  0  0  0  0  0  0
    7.7591  -13.8142   21.2150 C   0  0  0  0  0  0  0  0  0  0  0  0
    7.9696  -15.2890   20.9545 C   0  0  2  0  0  0  0  0  0  0  0  0
    6.8575  -15.7709   20.1840 N   0  0  0  0  0  0  0  0  0  0  0  0
    8.1893  -16.0613   22.1937 C   0  0  0  0  0  0  0  0  0  0  0  0
    7.2442  -16.4368   22.9053 O   0  0  0  0  0  0  0  0  0  0  0  0
    9.5264  -16.3794   22.5749 N   0  0  0  0  0  0  0  0  0  0  0  0
    9.8474  -17.1680   23.7307 C   0  0  1  0  0  0  0  0  0  0  0  0
   10.9584  -18.1003   23.4587 C   0  0  0  0  0  0  0  0  0  0  0  0
   10.7493  -19.2243   22.5302 C   0  0  0  0  0  0  0  0  0  0  0  0
   11.8774  -20.1430   22.2617 C   0  0  0  0  0  0  0  0  0  0  0  0
   11.3933  -21.1815   21.2585 C   0  0  0  0  0  0  0  0  0  0  0  0
   12.4454  -22.0545   20.8259 N   0  0  0  0  0  0  0  0  0  0  0  0
   10.1925  -16.2499   24.8956 C   0  0  0  0  0  0  0  0  0  0  0  0
   11.0634  -15.3539   24.7761 O   0  0  0  0  0  0  0  0  0  0  0  0
    9.5418  -16.3823   26.1407 N   0  0  0  0  0  0  0  0  0  0  0  0
    9.9793  -15.6760   27.3532 C   0  0  1  0  0  0  0  0  0  0  0  0
    8.7368  -15.1119   28.0031 C   0  0  0  0  0  0  0  0  0  0  0  0
    8.0888  -14.0711   27.1766 C   0  0  0  0  0  0  0  0  0  0  0  0
    6.9389  -14.3376   26.4652 C   0  0  0  0  0  0  0  0  0  0  0  0
    6.3627  -13.3306   25.7014 C   0  0  0  0  0  0  0  0  0  0  0  0
    6.8887  -12.0646   25.6182 C   0  0  0  0  0  0  0  0  0  0  0  0
    8.0390  -11.7955   26.3289 C   0  0  0  0  0  0  0  0  0  0  0  0
    8.6217  -12.7862   27.0915 C   0  0  0  0  0  0  0  0  0  0  0  0
   10.7903  -16.5281   28.2162 C   0  0  0  0  0  0  0  0  0  0  0  0
   11.0203  -17.8651   27.9338 O   0  0  0  0  0  0  0  0  0  0  0  0
   11.3069  -16.0560   29.2544 O   0  0  0  0  0  0  0  0  0  0  0  0
  2  1  1  1
  2  3  1  0
  4  2  1  0
  5  4  1  0
  5  6  1  1
  7  5  1  0
  7  8  2  0
  9  7  1  0
 10  9  1  0
 11 12  1  0
 10 11  1  6
 12 13  1  0
 13 14  1  0
 14 15  1  0
 16 10  1  0
 17 16  2  0
 18 16  1  0
 19 18  1  0
 19 20  1  1
 21 22  2  0
 21 20  1  0
 23 22  1  0
 24 23  2  0
 25 24  1  0
 25 26  2  0
 26 21  1  0
 27 19  1  0
 28 27  1  0
 29 27  2  0
M  END
$$$$
