LKF.pdb
     RDKit          3D

 29 29  0  0  1  0  0  0  0  0999 V2000
    8.8331  -13.4087   18.9670 C   0  0  0  0  0  0  0  0  0  0  0  0
    7.5739  -13.1299   19.7239 C   0  0  2  0  0  0  0  0  0  0  0  0
    7.4316  -11.6422   19.8813 C   0  0  0  0  0  0  0  0  0  0  0  0
    7.5613  -13.8622   21.0511 C   0  0  0  0  0  0  0  0  0  0  0  0
    7.5920  -15.3415   20.7380 C   0  0  2  0  0  0  0  0  0  0  0  0
    6.3740  -15.6806   20.0568 N   0  0  0  0  0  0  0  0  0  0  0  0
    7.8333  -16.1727   21.9344 C   0  0  0  0  0  0  0  0  0  0  0  0
    6.9355  -16.4059   22.7593 O   0  0  0  0  0  0  0  0  0  0  0  0
    9.1354  -16.7176   22.1390 N   0  0  0  0  0  0  0  0  0  0  0  0
    9.4853  -17.5072   23.2857 C   0  0  1  0  0  0  0  0  0  0  0  0
   10.6552  -18.3652   23.0160 C   0  0  0  0  0  0  0  0  0  0  0  0
   10.4632  -19.6588   22.3386 C   0  0  0  0  0  0  0  0  0  0  0  0
   11.1729  -19.9055   21.0642 C   0  0  0  0  0  0  0  0  0  0  0  0
   10.7660  -21.2887   20.5738 C   0  0  0  0  0  0  0  0  0  0  0  0
   11.3083  -21.5910   19.2813 N   0  0  0  0  0  0  0  0  0  0  0  0
    9.7554  -16.5922   24.4727 C   0  0  0  0  0  0  0  0  0  0  0  0
   10.5776  -15.6477   24.3865 O   0  0  0  0  0  0  0  0  0  0  0  0
    9.0880  -16.7821   25.7014 N   0  0  0  0  0  0  0  0  0  0  0  0
    9.4861  -16.1043   26.9433 C   0  0  1  0  0  0  0  0  0  0  0  0
    8.2417  -15.4575   27.5068 C   0  0  0  0  0  0  0  0  0  0  0  0
    7.8645  -14.2270   26.7789 C   0  0  0  0  0  0  0  0  0  0  0  0
    6.7553  -14.1924   25.9617 C   0  0  0  0  0  0  0  0  0  0  0  0
    6.4369  -13.0154   25.2964 C   0  0  0  0  0  0  0  0  0  0  0  0
    7.1825  -11.8680   25.4135 C   0  0  0  0  0  0  0  0  0  0  0  0
    8.2926  -11.9000   26.2303 C   0  0  0  0  0  0  0  0  0  0  0  0
    8.6204  -13.0621   26.8970 C   0  0  0  0  0  0  0  0  0  0  0  0
   10.1765  -17.0070   27.8583 C   0  0  0  0  0  0  0  0  0  0  0  0
   10.3473  -18.3543   27.5828 O   0  0  0  0  0  0  0  0  0  0  0  0
   10.6393  -16.5709   28.9367 O   0  0  0  0  0  0  0  0  0  0  0  0
  2  1  1  1
  2  3  1  0
  4  2  1  0
  5  4  1  0
  5  6  1  1
  7  5  1  0
  7  8  2  0
  9  7  1  0
 10  9  1  0
 11 12  1  0
 10 11  1  6
 12 13  1  0
 13 14  1  0
 14 15  1  0
 16 10  1  0
 17 16  2  0
 18 16  1  0
 19 18  1  0
 19 20  1  1
 21 22  2  0
 21 20  1  0
 23 22  1  0
 24 23  2  0
 25 24  1  0
 25 26  2  0
 26 21  1  0
 27 19  1  0
 28 27  1  0
 29 27  2  0
M  END
$$$$
