LKF.pdb
     RDKit          3D

 29 29  0  0  1  0  0  0  0  0999 V2000
    7.9482  -11.5334   20.7432 C   0  0  0  0  0  0  0  0  0  0  0  0
    7.9671  -12.9407   20.2378 C   0  0  2  0  0  0  0  0  0  0  0  0
    7.2059  -12.9927   18.9431 C   0  0  0  0  0  0  0  0  0  0  0  0
    7.4212  -13.9009   21.2761 C   0  0  0  0  0  0  0  0  0  0  0  0
    7.8207  -15.2933   20.8413 C   0  0  2  0  0  0  0  0  0  0  0  0
    6.7633  -15.8303   20.0313 N   0  0  0  0  0  0  0  0  0  0  0  0
    8.1750  -16.1661   21.9785 C   0  0  0  0  0  0  0  0  0  0  0  0
    7.3071  -16.7270   22.6662 O   0  0  0  0  0  0  0  0  0  0  0  0
    9.5533  -16.3639   22.2870 N   0  0  0  0  0  0  0  0  0  0  0  0
   10.0052  -17.1902   23.3705 C   0  0  1  0  0  0  0  0  0  0  0  0
   11.2679  -17.8774   23.0374 C   0  0  0  0  0  0  0  0  0  0  0  0
   11.3594  -18.6606   21.7936 C   0  0  0  0  0  0  0  0  0  0  0  0
   11.5236  -20.1278   21.8885 C   0  0  0  0  0  0  0  0  0  0  0  0
   11.6732  -20.6645   20.4712 C   0  0  0  0  0  0  0  0  0  0  0  0
   11.8349  -22.0889   20.4411 N   0  0  0  0  0  0  0  0  0  0  0  0
   10.1722  -16.3422   24.6243 C   0  0  0  0  0  0  0  0  0  0  0  0
   10.9810  -15.3827   24.6524 O   0  0  0  0  0  0  0  0  0  0  0  0
    9.4218  -16.6129   25.7882 N   0  0  0  0  0  0  0  0  0  0  0  0
    9.7143  -15.9997   27.0916 C   0  0  1  0  0  0  0  0  0  0  0  0
    8.4026  -15.4821   27.6356 C   0  0  0  0  0  0  0  0  0  0  0  0
    7.9391  -14.2664   26.9331 C   0  0  0  0  0  0  0  0  0  0  0  0
    8.5729  -13.0552   27.1079 C   0  0  0  0  0  0  0  0  0  0  0  0
    8.1047  -11.9379   26.4283 C   0  0  0  0  0  0  0  0  0  0  0  0
    7.0264  -11.9800   25.5787 C   0  0  0  0  0  0  0  0  0  0  0  0
    6.3906  -13.1904   25.4021 C   0  0  0  0  0  0  0  0  0  0  0  0
    6.8450  -14.3079   26.0707 C   0  0  0  0  0  0  0  0  0  0  0  0
   10.4266  -16.9157   27.9760 C   0  0  0  0  0  0  0  0  0  0  0  0
   10.6922  -18.2296   27.6247 O   0  0  0  0  0  0  0  0  0  0  0  0
   10.8214  -16.5225   29.0971 O   0  0  0  0  0  0  0  0  0  0  0  0
  2  1  1  1
  2  3  1  0
  4  2  1  0
  5  4  1  0
  5  6  1  1
  7  5  1  0
  7  8  2  0
  9  7  1  0
 10  9  1  0
 11 12  1  0
 10 11  1  6
 12 13  1  0
 13 14  1  0
 14 15  1  0
 16 10  1  0
 17 16  2  0
 18 16  1  0
 19 18  1  0
 19 20  1  1
 21 22  2  0
 21 20  1  0
 23 22  1  0
 24 23  2  0
 25 24  1  0
 25 26  2  0
 26 21  1  0
 27 19  1  0
 28 27  1  0
 29 27  2  0
M  END
$$$$
