LKF.pdb
     RDKit          3D

 29 29  0  0  1  0  0  0  0  0999 V2000
    6.9621  -12.9337   26.2807 C   0  0  0  0  0  0  0  0  0  0  0  0
    7.2444  -13.8149   25.1059 C   0  0  2  0  0  0  0  0  0  0  0  0
    7.5641  -12.9448   23.9231 C   0  0  0  0  0  0  0  0  0  0  0  0
    6.0884  -14.7593   24.8417 C   0  0  0  0  0  0  0  0  0  0  0  0
    6.4991  -15.6457   23.6872 C   0  0  2  0  0  0  0  0  0  0  0  0
    5.3841  -16.4850   23.3483 N   0  0  0  0  0  0  0  0  0  0  0  0
    7.7316  -16.4099   23.9653 C   0  0  0  0  0  0  0  0  0  0  0  0
    7.8236  -17.1665   24.9449 O   0  0  0  0  0  0  0  0  0  0  0  0
    8.8402  -16.2683   23.0791 N   0  0  0  0  0  0  0  0  0  0  0  0
   10.0139  -17.0917   23.1515 C   0  0  1  0  0  0  0  0  0  0  0  0
   10.8789  -16.9068   21.9704 C   0  0  0  0  0  0  0  0  0  0  0  0
   12.0748  -17.7513   21.8096 C   0  0  0  0  0  0  0  0  0  0  0  0
   12.4991  -18.1291   20.4436 C   0  0  0  0  0  0  0  0  0  0  0  0
   13.8411  -17.4595   20.1794 C   0  0  0  0  0  0  0  0  0  0  0  0
   14.3607  -17.7722   18.8800 N   0  0  0  0  0  0  0  0  0  0  0  0
   10.7798  -16.7781   24.4298 C   0  0  0  0  0  0  0  0  0  0  0  0
   11.4911  -15.7478   24.5206 O   0  0  0  0  0  0  0  0  0  0  0  0
   10.7100  -17.6378   25.5466 N   0  0  0  0  0  0  0  0  0  0  0  0
   11.6291  -17.5438   26.6897 C   0  0  1  0  0  0  0  0  0  0  0  0
   10.7863  -17.2264   27.9035 C   0  0  0  0  0  0  0  0  0  0  0  0
   10.5234  -15.7784   28.0468 C   0  0  0  0  0  0  0  0  0  0  0  0
   11.2823  -14.9947   28.8889 C   0  0  0  0  0  0  0  0  0  0  0  0
   11.0013  -13.6385   28.9934 C   0  0  0  0  0  0  0  0  0  0  0  0
    9.9908  -13.0303   28.2897 C   0  0  0  0  0  0  0  0  0  0  0  0
    9.2301  -13.8120   27.4465 C   0  0  0  0  0  0  0  0  0  0  0  0
    9.4982  -15.1602   27.3331 C   0  0  0  0  0  0  0  0  0  0  0  0
   12.4633  -18.7340   26.8161 C   0  0  0  0  0  0  0  0  0  0  0  0
   12.2880  -19.8511   26.0149 O   0  0  0  0  0  0  0  0  0  0  0  0
   13.3762  -18.7701   27.6722 O   0  0  0  0  0  0  0  0  0  0  0  0
  2  1  1  1
  2  3  1  0
  4  2  1  0
  5  4  1  0
  5  6  1  1
  7  5  1  0
  7  8  2  0
  9  7  1  0
 10  9  1  0
 11 12  1  0
 10 11  1  6
 12 13  1  0
 13 14  1  0
 14 15  1  0
 16 10  1  0
 17 16  2  0
 18 16  1  0
 19 18  1  0
 19 20  1  1
 21 22  2  0
 21 20  1  0
 23 22  1  0
 24 23  2  0
 25 24  1  0
 25 26  2  0
 26 21  1  0
 27 19  1  0
 28 27  1  0
 29 27  2  0
M  END
$$$$
