LKF.pdb
     RDKit          3D

 29 29  0  0  1  0  0  0  0  0999 V2000
    9.1286  -12.2181   19.7937 C   0  0  0  0  0  0  0  0  0  0  0  0
    8.4774  -13.5004   19.3840 C   0  0  2  0  0  0  0  0  0  0  0  0
    7.9389  -13.3379   17.9905 C   0  0  0  0  0  0  0  0  0  0  0  0
    7.4105  -13.9130   20.3788 C   0  0  0  0  0  0  0  0  0  0  0  0
    7.3541  -15.4242   20.3624 C   0  0  2  0  0  0  0  0  0  0  0  0
    6.3981  -15.8261   19.3689 N   0  0  0  0  0  0  0  0  0  0  0  0
    7.0768  -15.9990   21.6941 C   0  0  0  0  0  0  0  0  0  0  0  0
    5.9686  -15.8773   22.2398 O   0  0  0  0  0  0  0  0  0  0  0  0
    8.1159  -16.7109   22.3630 N   0  0  0  0  0  0  0  0  0  0  0  0
    7.9259  -17.3842   23.6166 C   0  0  1  0  0  0  0  0  0  0  0  0
    8.2373  -18.8228   23.5113 C   0  0  0  0  0  0  0  0  0  0  0  0
    7.2714  -19.7271   22.8646 C   0  0  0  0  0  0  0  0  0  0  0  0
    7.6281  -21.1545   22.7102 C   0  0  0  0  0  0  0  0  0  0  0  0
    6.4807  -21.8365   21.9769 C   0  0  0  0  0  0  0  0  0  0  0  0
    6.7081  -23.2402   21.7929 N   0  0  0  0  0  0  0  0  0  0  0  0
    8.7890  -16.7269   24.6853 C   0  0  0  0  0  0  0  0  0  0  0  0
    9.9872  -16.4313   24.4566 O   0  0  0  0  0  0  0  0  0  0  0  0
    8.2639  -16.4327   25.9616 N   0  0  0  0  0  0  0  0  0  0  0  0
    9.0811  -15.9012   27.0618 C   0  0  1  0  0  0  0  0  0  0  0  0
    8.1729  -15.0315   27.9004 C   0  0  0  0  0  0  0  0  0  0  0  0
    7.6448  -13.8737   27.1474 C   0  0  0  0  0  0  0  0  0  0  0  0
    6.3976  -13.9112   26.5624 C   0  0  0  0  0  0  0  0  0  0  0  0
    5.9400  -12.8011   25.8641 C   0  0  0  0  0  0  0  0  0  0  0  0
    6.6785  -11.6515   25.7253 C   0  0  0  0  0  0  0  0  0  0  0  0
    7.9265  -11.6114   26.3096 C   0  0  0  0  0  0  0  0  0  0  0  0
    8.3933  -12.7066   27.0060 C   0  0  0  0  0  0  0  0  0  0  0  0
    9.7626  -16.9627   27.7948 C   0  0  0  0  0  0  0  0  0  0  0  0
   10.8308  -16.7117   28.6412 O   0  0  0  0  0  0  0  0  0  0  0  0
    9.3862  -18.1502   27.6702 O   0  0  0  0  0  0  0  0  0  0  0  0
  2  1  1  1
  2  3  1  0
  4  2  1  0
  5  4  1  0
  5  6  1  6
  7  5  1  0
  7  8  2  0
  9  7  1  0
 10  9  1  0
 11 12  1  0
 10 11  1  6
 12 13  1  0
 13 14  1  0
 14 15  1  0
 16 10  1  0
 17 16  2  0
 18 16  1  0
 19 18  1  0
 19 20  1  1
 21 22  2  0
 21 20  1  0
 23 22  1  0
 24 23  2  0
 25 24  1  0
 25 26  2  0
 26 21  1  0
 27 19  1  0
 28 27  1  0
 29 27  2  0
M  END
$$$$
