LKF.pdb
     RDKit          3D

 29 29  0  0  1  0  0  0  0  0999 V2000
    2.9446  -18.1523   20.7286 C   0  0  0  0  0  0  0  0  0  0  0  0
    3.7497  -19.0120   21.6500 C   0  0  2  0  0  0  0  0  0  0  0  0
    2.8785  -19.4205   22.8042 C   0  0  0  0  0  0  0  0  0  0  0  0
    5.0136  -18.3022   22.0937 C   0  0  0  0  0  0  0  0  0  0  0  0
    5.7772  -17.9379   20.8402 C   0  0  2  0  0  0  0  0  0  0  0  0
    6.0369  -19.1452   20.1071 N   0  0  0  0  0  0  0  0  0  0  0  0
    7.0010  -17.1616   21.1234 C   0  0  0  0  0  0  0  0  0  0  0  0
    8.1140  -17.7048   21.2069 O   0  0  0  0  0  0  0  0  0  0  0  0
    6.8913  -15.7511   21.3040 N   0  0  0  0  0  0  0  0  0  0  0  0
    8.0243  -14.8962   21.5194 C   0  0  1  0  0  0  0  0  0  0  0  0
    7.7713  -13.5278   21.0283 C   0  0  0  0  0  0  0  0  0  0  0  0
    7.4204  -13.3200   19.6131 C   0  0  0  0  0  0  0  0  0  0  0  0
    8.5083  -13.0835   18.6389 C   0  0  0  0  0  0  0  0  0  0  0  0
    7.8745  -12.9963   17.2569 C   0  0  0  0  0  0  0  0  0  0  0  0
    8.8344  -12.7003   16.2338 N   0  0  0  0  0  0  0  0  0  0  0  0
    8.3748  -14.8764   23.0012 C   0  0  0  0  0  0  0  0  0  0  0  0
    8.4802  -13.7928   23.6259 O   0  0  0  0  0  0  0  0  0  0  0  0
    8.5906  -16.0765   23.7114 N   0  0  0  0  0  0  0  0  0  0  0  0
    8.4933  -16.1707   25.1750 C   0  0  1  0  0  0  0  0  0  0  0  0
    7.1339  -15.6327   25.5584 C   0  0  0  0  0  0  0  0  0  0  0  0
    7.2062  -14.2754   26.1405 C   0  0  0  0  0  0  0  0  0  0  0  0
    8.4158  -13.6416   26.3261 C   0  0  0  0  0  0  0  0  0  0  0  0
    8.4384  -12.3664   26.8762 C   0  0  0  0  0  0  0  0  0  0  0  0
    7.2996  -11.6956   27.2498 C   0  0  0  0  0  0  0  0  0  0  0  0
    6.0883  -12.3275   27.0652 C   0  0  0  0  0  0  0  0  0  0  0  0
    6.0513  -13.5939   26.5200 C   0  0  0  0  0  0  0  0  0  0  0  0
    8.7764  -17.5197   25.6531 C   0  0  0  0  0  0  0  0  0  0  0  0
    9.0517  -18.5695   24.7914 O   0  0  0  0  0  0  0  0  0  0  0  0
    8.7761  -17.7609   26.8817 O   0  0  0  0  0  0  0  0  0  0  0  0
  2  1  1  6
  2  3  1  0
  4  2  1  0
  5  4  1  0
  5  6  1  1
  7  5  1  0
  7  8  2  0
  9  7  1  0
 10  9  1  0
 11 12  1  0
 10 11  1  1
 12 13  1  0
 13 14  1  0
 14 15  1  0
 16 10  1  0
 17 16  2  0
 18 16  1  0
 19 18  1  0
 19 20  1  6
 21 22  2  0
 21 20  1  0
 23 22  1  0
 24 23  2  0
 25 24  1  0
 25 26  2  0
 26 21  1  0
 27 19  1  0
 28 27  1  0
 29 27  2  0
M  END
$$$$
