ICE.pdb
     RDKit          3D

 24 23  0  0  1  0  0  0  0  0999 V2000
   23.4094  -19.7833  -17.9254 C   0  0  0  0  0  0  0  0  0  0  0  0
   23.2789  -18.2976  -17.8635 C   0  0  0  0  0  0  0  0  0  0  0  0
   22.2950  -17.8391  -16.7907 C   0  0  2  0  0  0  0  0  0  0  0  0
   20.9431  -18.4550  -16.9773 C   0  0  0  0  0  0  0  0  0  0  0  0
   22.1880  -16.3359  -16.9258 C   0  0  2  0  0  0  0  0  0  0  0  0
   23.4739  -15.6903  -16.8151 N   0  0  0  0  0  0  0  0  0  0  0  0
   21.2491  -15.7488  -15.9349 C   0  0  0  0  0  0  0  0  0  0  0  0
   21.6531  -14.7655  -15.2628 O   0  0  0  0  0  0  0  0  0  0  0  0
   19.9510  -16.2935  -15.7705 N   0  0  0  0  0  0  0  0  0  0  0  0
   19.0129  -15.5913  -14.8679 C   0  0  1  0  0  0  0  0  0  0  0  0
   18.6896  -14.2457  -15.5397 C   0  0  0  0  0  0  0  0  0  0  0  0
   17.3475  -13.3796  -14.7117 S   0  0  0  0  0  0  0  0  0  0  0  0
   17.7507  -16.3389  -14.7745 C   0  0  0  0  0  0  0  0  0  0  0  0
   17.2193  -16.7654  -15.8599 O   0  0  0  0  0  0  0  0  0  0  0  0
   17.0621  -16.6373  -13.5995 N   0  0  0  0  0  0  0  0  0  0  0  0
   15.9957  -17.6482  -13.5236 C   0  0  1  0  0  0  0  0  0  0  0  0
   16.5226  -18.8222  -12.7434 C   0  0  0  0  0  0  0  0  0  0  0  0
   15.5619  -19.9550  -12.7650 C   0  0  0  0  0  0  0  0  0  0  0  0
   16.0870  -21.1100  -13.5739 C   0  0  0  0  0  0  0  0  0  0  0  0
   15.4904  -21.4248  -14.6137 O   0  0  0  0  0  0  0  0  0  0  0  0
   14.8121  -17.0921  -12.8346 C   0  0  0  0  0  0  0  0  0  0  0  0
   14.6903  -15.8369  -12.3029 O   0  0  0  0  0  0  0  0  0  0  0  0
   17.1972  -21.7839  -13.1554 O   0  0  0  0  0  0  0  0  0  0  0  0
   13.8054  -17.8919  -12.7340 O   0  0  0  0  0  0  0  0  0  0  0  0
  2  1  1  0
  3  5  1  0
  3  2  1  0
  3  4  1  6
  5  6  1  1
  5  7  1  0
  7  8  2  0
  9  7  1  0
  9 10  1  0
 10 13  1  0
 10 11  1  6
 12 11  1  0
 13 14  2  0
 15 13  1  0
 15 16  1  0
 16 21  1  0
 16 17  1  1
 18 17  1  0
 19 20  2  0
 19 18  1  0
 21 22  1  0
 23 19  1  0
 24 21  2  0
M  END
$$$$
