ICE.pdb
     RDKit          3D

 24 23  0  0  1  0  0  0  0  0999 V2000
   21.4377  -17.9672  -15.3680 C   0  0  0  0  0  0  0  0  0  0  0  0
   20.9553  -16.5635  -15.2097 C   0  0  0  0  0  0  0  0  0  0  0  0
   21.6322  -15.5976  -16.1781 C   0  0  2  0  0  0  0  0  0  0  0  0
   23.1079  -15.5147  -15.9392 C   0  0  0  0  0  0  0  0  0  0  0  0
   21.0045  -14.2423  -15.9360 C   0  0  2  0  0  0  0  0  0  0  0  0
   19.5709  -14.2739  -16.0978 N   0  0  0  0  0  0  0  0  0  0  0  0
   21.5818  -13.1916  -16.8138 C   0  0  0  0  0  0  0  0  0  0  0  0
   22.8075  -12.9389  -16.6895 O   0  0  0  0  0  0  0  0  0  0  0  0
   20.7621  -12.5122  -17.7495 N   0  0  0  0  0  0  0  0  0  0  0  0
   21.3794  -11.4451  -18.5668 C   0  0  1  0  0  0  0  0  0  0  0  0
   20.9626  -11.7173  -20.0223 C   0  0  0  0  0  0  0  0  0  0  0  0
   21.8052  -13.1494  -20.7123 S   0  0  0  0  0  0  0  0  0  0  0  0
   20.8162  -10.1388  -18.1960 C   0  0  0  0  0  0  0  0  0  0  0  0
   19.5713  -10.0803  -17.8974 O   0  0  0  0  0  0  0  0  0  0  0  0
   21.5161   -8.9346  -18.1339 N   0  0  0  0  0  0  0  0  0  0  0  0
   20.9275   -7.6842  -17.6289 C   0  0  1  0  0  0  0  0  0  0  0  0
   20.7492   -7.8219  -16.1410 C   0  0  0  0  0  0  0  0  0  0  0  0
   22.0435   -8.1072  -15.4701 C   0  0  0  0  0  0  0  0  0  0  0  0
   21.8840   -8.1974  -13.9765 C   0  0  0  0  0  0  0  0  0  0  0  0
   20.8304   -7.7887  -13.4675 O   0  0  0  0  0  0  0  0  0  0  0  0
   21.8257   -6.5452  -17.9126 C   0  0  0  0  0  0  0  0  0  0  0  0
   21.6116   -5.2337  -17.5852 O   0  0  0  0  0  0  0  0  0  0  0  0
   22.8887   -8.7210  -13.2161 O   0  0  0  0  0  0  0  0  0  0  0  0
   22.9148   -6.8429  -18.5360 O   0  0  0  0  0  0  0  0  0  0  0  0
  2  1  1  0
  3  5  1  0
  3  2  1  0
  3  4  1  1
  5  6  1  6
  5  7  1  0
  7  8  2  0
  9  7  1  0
  9 10  1  0
 10 13  1  0
 10 11  1  6
 12 11  1  0
 13 14  2  0
 15 13  1  0
 15 16  1  0
 16 21  1  0
 16 17  1  1
 18 17  1  0
 19 20  2  0
 19 18  1  0
 21 22  1  0
 23 19  1  0
 24 21  2  0
M  END
$$$$
