ICE.pdb
     RDKit          3D

 24 23  0  0  1  0  0  0  0  0999 V2000
   29.7610  -12.0101  -16.9702 C   0  0  0  0  0  0  0  0  0  0  0  0
   28.4846  -12.6206  -16.4944 C   0  0  0  0  0  0  0  0  0  0  0  0
   27.2780  -11.7163  -16.7299 C   0  0  2  0  0  0  0  0  0  0  0  0
   27.3658  -10.4536  -15.9300 C   0  0  0  0  0  0  0  0  0  0  0  0
   26.0629  -12.5061  -16.2950 C   0  0  2  0  0  0  0  0  0  0  0  0
   26.0492  -13.8329  -16.8623 N   0  0  0  0  0  0  0  0  0  0  0  0
   24.7928  -11.8096  -16.6265 C   0  0  0  0  0  0  0  0  0  0  0  0
   24.0727  -12.3111  -17.5275 O   0  0  0  0  0  0  0  0  0  0  0  0
   24.4268  -10.6252  -15.9396 N   0  0  0  0  0  0  0  0  0  0  0  0
   23.1623   -9.9617  -16.3251 C   0  0  1  0  0  0  0  0  0  0  0  0
   22.0259  -10.8440  -15.7806 C   0  0  0  0  0  0  0  0  0  0  0  0
   20.4132  -10.0714  -15.9789 S   0  0  0  0  0  0  0  0  0  0  0  0
   23.0534   -8.6585  -15.6538 C   0  0  0  0  0  0  0  0  0  0  0  0
   23.3026   -8.6031  -14.3980 O   0  0  0  0  0  0  0  0  0  0  0  0
   22.7012   -7.4534  -16.2599 N   0  0  0  0  0  0  0  0  0  0  0  0
   22.7241   -6.1602  -15.5585 C   0  0  1  0  0  0  0  0  0  0  0  0
   22.4880   -5.0758  -16.5748 C   0  0  0  0  0  0  0  0  0  0  0  0
   22.5754   -3.7297  -15.9527 C   0  0  0  0  0  0  0  0  0  0  0  0
   22.0986   -2.6547  -16.8914 C   0  0  0  0  0  0  0  0  0  0  0  0
   21.8087   -2.9697  -18.0545 O   0  0  0  0  0  0  0  0  0  0  0  0
   21.6585   -6.1147  -14.5352 C   0  0  0  0  0  0  0  0  0  0  0  0
   21.7220   -5.4970  -13.3156 O   0  0  0  0  0  0  0  0  0  0  0  0
   21.9942   -1.3667  -16.4530 O   0  0  0  0  0  0  0  0  0  0  0  0
   20.5683   -6.7299  -14.8455 O   0  0  0  0  0  0  0  0  0  0  0  0
  2  1  1  0
  3  5  1  0
  3  2  1  0
  3  4  1  1
  5  6  1  6
  5  7  1  0
  7  8  2  0
  9  7  1  0
  9 10  1  0
 10 13  1  0
 10 11  1  1
 12 11  1  0
 13 14  2  0
 15 13  1  0
 15 16  1  0
 16 21  1  0
 16 17  1  6
 18 17  1  0
 19 20  2  0
 19 18  1  0
 21 22  1  0
 23 19  1  0
 24 21  2  0
M  END
$$$$
