ICE.pdb
     RDKit          3D

 24 23  0  0  1  0  0  0  0  0999 V2000
   18.6181   -9.1307  -20.4186 C   0  0  0  0  0  0  0  0  0  0  0  0
   19.6007  -10.0604  -19.7876 C   0  0  0  0  0  0  0  0  0  0  0  0
   18.9334  -11.2785  -19.1551 C   0  0  2  0  0  0  0  0  0  0  0  0
   17.9594  -10.8865  -18.0876 C   0  0  0  0  0  0  0  0  0  0  0  0
   20.0450  -12.1045  -18.5457 C   0  0  2  0  0  0  0  0  0  0  0  0
   19.5766  -13.3931  -18.0956 N   0  0  0  0  0  0  0  0  0  0  0  0
   20.7178  -11.3994  -17.4240 C   0  0  0  0  0  0  0  0  0  0  0  0
   20.0996  -11.3224  -16.3314 O   0  0  0  0  0  0  0  0  0  0  0  0
   22.0087  -10.8420  -17.6017 N   0  0  0  0  0  0  0  0  0  0  0  0
   22.6332  -10.1559  -16.4497 C   0  0  1  0  0  0  0  0  0  0  0  0
   24.1369  -10.4725  -16.5192 C   0  0  0  0  0  0  0  0  0  0  0  0
   24.7734  -11.0878  -14.9529 S   0  0  0  0  0  0  0  0  0  0  0  0
   22.4937   -8.6999  -16.5961 C   0  0  0  0  0  0  0  0  0  0  0  0
   22.3410   -8.2230  -17.7757 O   0  0  0  0  0  0  0  0  0  0  0  0
   22.5094   -7.7686  -15.5586 N   0  0  0  0  0  0  0  0  0  0  0  0
   22.2342   -6.3367  -15.7552 C   0  0  1  0  0  0  0  0  0  0  0  0
   20.7972   -6.1932  -16.1781 C   0  0  0  0  0  0  0  0  0  0  0  0
   20.4281   -4.7642  -16.3468 C   0  0  0  0  0  0  0  0  0  0  0  0
   18.9886   -4.6096  -16.7569 C   0  0  0  0  0  0  0  0  0  0  0  0
   18.2999   -5.6303  -16.8976 O   0  0  0  0  0  0  0  0  0  0  0  0
   22.4514   -5.5965  -14.4944 C   0  0  0  0  0  0  0  0  0  0  0  0
   22.8569   -4.2953  -14.3696 O   0  0  0  0  0  0  0  0  0  0  0  0
   18.4710   -3.3643  -16.9648 O   0  0  0  0  0  0  0  0  0  0  0  0
   22.2330   -6.2681  -13.4153 O   0  0  0  0  0  0  0  0  0  0  0  0
  2  1  1  0
  3  5  1  0
  3  2  1  0
  3  4  1  1
  5  6  1  1
  5  7  1  0
  7  8  2  0
  9  7  1  0
  9 10  1  0
 10 13  1  0
 10 11  1  6
 12 11  1  0
 13 14  2  0
 15 13  1  0
 15 16  1  0
 16 21  1  0
 16 17  1  1
 18 17  1  0
 19 20  2  0
 19 18  1  0
 21 22  1  0
 23 19  1  0
 24 21  2  0
M  END
$$$$
