ICE.pdb
     RDKit          3D

 24 23  0  0  1  0  0  0  0  0999 V2000
   27.2010  -10.9475  -15.6794 C   0  0  0  0  0  0  0  0  0  0  0  0
   25.9232  -11.7156  -15.6059 C   0  0  0  0  0  0  0  0  0  0  0  0
   24.7201  -10.8988  -16.0691 C   0  0  2  0  0  0  0  0  0  0  0  0
   24.4550   -9.7372  -15.1624 C   0  0  0  0  0  0  0  0  0  0  0  0
   23.5339  -11.8379  -16.0467 C   0  0  2  0  0  0  0  0  0  0  0  0
   23.7999  -13.0619  -16.7632 N   0  0  0  0  0  0  0  0  0  0  0  0
   22.3043  -11.2018  -16.5866 C   0  0  0  0  0  0  0  0  0  0  0  0
   21.9511  -11.5157  -17.7522 O   0  0  0  0  0  0  0  0  0  0  0  0
   21.5725  -10.2783  -15.7990 N   0  0  0  0  0  0  0  0  0  0  0  0
   20.3316   -9.7101  -16.3693 C   0  0  1  0  0  0  0  0  0  0  0  0
   19.4105  -10.9027  -16.6786 C   0  0  0  0  0  0  0  0  0  0  0  0
   17.7901  -10.3760  -17.2563 S   0  0  0  0  0  0  0  0  0  0  0  0
   19.6459   -8.8880  -15.3618 C   0  0  0  0  0  0  0  0  0  0  0  0
   19.7228   -9.2478  -14.1342 O   0  0  0  0  0  0  0  0  0  0  0  0
   18.9078   -7.7324  -15.6140 N   0  0  0  0  0  0  0  0  0  0  0  0
   18.9443   -6.5457  -14.7450 C   0  0  1  0  0  0  0  0  0  0  0  0
   20.3797   -6.1161  -14.6046 C   0  0  0  0  0  0  0  0  0  0  0  0
   20.4939   -4.8920  -13.7708 C   0  0  0  0  0  0  0  0  0  0  0  0
   21.9311   -4.5029  -13.5539 C   0  0  0  0  0  0  0  0  0  0  0  0
   22.1755   -3.4830  -12.8936 O   0  0  0  0  0  0  0  0  0  0  0  0
   18.1594   -5.4472  -15.3465 C   0  0  0  0  0  0  0  0  0  0  0  0
   17.5845   -4.3957  -14.6854 O   0  0  0  0  0  0  0  0  0  0  0  0
   22.9297   -5.2691  -14.0809 O   0  0  0  0  0  0  0  0  0  0  0  0
   18.0128   -5.5099  -16.6263 O   0  0  0  0  0  0  0  0  0  0  0  0
  2  1  1  0
  3  5  1  0
  3  2  1  0
  3  4  1  1
  5  6  1  6
  5  7  1  0
  7  8  2  0
  9  7  1  0
  9 10  1  0
 10 13  1  0
 10 11  1  1
 12 11  1  0
 13 14  2  0
 15 13  1  0
 15 16  1  0
 16 21  1  0
 16 17  1  6
 18 17  1  0
 19 20  2  0
 19 18  1  0
 21 22  1  0
 23 19  1  0
 24 21  2  0
M  END
$$$$
