ICE.pdb
     RDKit          3D

 24 23  0  0  1  0  0  0  0  0999 V2000
   19.3137  -15.1028  -18.1033 C   0  0  0  0  0  0  0  0  0  0  0  0
   19.9876  -13.8120  -18.4314 C   0  0  0  0  0  0  0  0  0  0  0  0
   20.5328  -13.1036  -17.1944 C   0  0  2  0  0  0  0  0  0  0  0  0
   19.4450  -12.7675  -16.2221 C   0  0  0  0  0  0  0  0  0  0  0  0
   21.1826  -11.8286  -17.6859 C   0  0  2  0  0  0  0  0  0  0  0  0
   22.2247  -12.0895  -18.6494 N   0  0  0  0  0  0  0  0  0  0  0  0
   21.7281  -11.0112  -16.5714 C   0  0  0  0  0  0  0  0  0  0  0  0
   20.9701  -10.7799  -15.5947 O   0  0  0  0  0  0  0  0  0  0  0  0
   23.0567  -10.5207  -16.6284 N   0  0  0  0  0  0  0  0  0  0  0  0
   23.5203   -9.6431  -15.5318 C   0  0  1  0  0  0  0  0  0  0  0  0
   25.0488   -9.5426  -15.6733 C   0  0  0  0  0  0  0  0  0  0  0  0
   25.8867  -10.9973  -15.0264 S   0  0  0  0  0  0  0  0  0  0  0  0
   22.9823   -8.2870  -15.7118 C   0  0  0  0  0  0  0  0  0  0  0  0
   22.8858   -7.8286  -16.9047 O   0  0  0  0  0  0  0  0  0  0  0  0
   22.5566   -7.4344  -14.6941 N   0  0  0  0  0  0  0  0  0  0  0  0
   22.0186   -6.0876  -14.9417 C   0  0  1  0  0  0  0  0  0  0  0  0
   20.5168   -6.1821  -14.9556 C   0  0  0  0  0  0  0  0  0  0  0  0
   20.0288   -6.7784  -16.2256 C   0  0  0  0  0  0  0  0  0  0  0  0
   18.5306   -6.9180  -16.2311 C   0  0  0  0  0  0  0  0  0  0  0  0
   17.9763   -7.3939  -15.2300 O   0  0  0  0  0  0  0  0  0  0  0  0
   22.4426   -5.1626  -13.8697 C   0  0  0  0  0  0  0  0  0  0  0  0
   22.4834   -3.7962  -13.9374 O   0  0  0  0  0  0  0  0  0  0  0  0
   17.8152   -6.5236  -17.3241 O   0  0  0  0  0  0  0  0  0  0  0  0
   22.8101   -5.7248  -12.7687 O   0  0  0  0  0  0  0  0  0  0  0  0
  2  1  1  0
  3  5  1  0
  3  2  1  0
  3  4  1  1
  5  6  1  6
  5  7  1  0
  7  8  2  0
  9  7  1  0
  9 10  1  0
 10 13  1  0
 10 11  1  6
 12 11  1  0
 13 14  2  0
 15 13  1  0
 15 16  1  0
 16 21  1  0
 16 17  1  1
 18 17  1  0
 19 20  2  0
 19 18  1  0
 21 22  1  0
 23 19  1  0
 24 21  2  0
M  END
$$$$
