ICE.pdb
     RDKit          3D

 24 23  0  0  1  0  0  0  0  0999 V2000
   16.9267  -16.4066  -15.9557 C   0  0  0  0  0  0  0  0  0  0  0  0
   17.0030  -14.9760  -16.3747 C   0  0  0  0  0  0  0  0  0  0  0  0
   18.4394  -14.4718  -16.4825 C   0  0  2  0  0  0  0  0  0  0  0  0
   19.1711  -14.5971  -15.1821 C   0  0  0  0  0  0  0  0  0  0  0  0
   18.3503  -13.0129  -16.8732 C   0  0  2  0  0  0  0  0  0  0  0  0
   17.8202  -12.8412  -18.2044 N   0  0  0  0  0  0  0  0  0  0  0  0
   19.6617  -12.3222  -16.7665 C   0  0  0  0  0  0  0  0  0  0  0  0
   20.1490  -12.1744  -15.6165 O   0  0  0  0  0  0  0  0  0  0  0  0
   20.3207  -11.8557  -17.9313 N   0  0  0  0  0  0  0  0  0  0  0  0
   21.6229  -11.1740  -17.7661 C   0  0  1  0  0  0  0  0  0  0  0  0
   22.3816  -11.3608  -19.0911 C   0  0  0  0  0  0  0  0  0  0  0  0
   23.8842  -10.3735  -19.1571 S   0  0  0  0  0  0  0  0  0  0  0  0
   21.4152   -9.7294  -17.5902 C   0  0  0  0  0  0  0  0  0  0  0  0
   20.5396   -9.1509  -18.3257 O   0  0  0  0  0  0  0  0  0  0  0  0
   22.0879   -8.9110  -16.6839 N   0  0  0  0  0  0  0  0  0  0  0  0
   21.8281   -7.4688  -16.5518 C   0  0  1  0  0  0  0  0  0  0  0  0
   22.0479   -7.0865  -15.1130 C   0  0  0  0  0  0  0  0  0  0  0  0
   21.9106   -5.6199  -14.9209 C   0  0  0  0  0  0  0  0  0  0  0  0
   22.1798   -5.2215  -13.4951 C   0  0  0  0  0  0  0  0  0  0  0  0
   22.4615   -6.1075  -12.6755 O   0  0  0  0  0  0  0  0  0  0  0  0
   22.7546   -6.7016  -17.4108 C   0  0  0  0  0  0  0  0  0  0  0  0
   22.5086   -5.4929  -18.0036 O   0  0  0  0  0  0  0  0  0  0  0  0
   22.1104   -3.9081  -13.1317 O   0  0  0  0  0  0  0  0  0  0  0  0
   23.9050   -7.2498  -17.6096 O   0  0  0  0  0  0  0  0  0  0  0  0
  2  1  1  0
  3  5  1  0
  3  2  1  0
  3  4  1  1
  5  6  1  6
  5  7  1  0
  7  8  2  0
  9  7  1  0
  9 10  1  0
 10 13  1  0
 10 11  1  6
 12 11  1  0
 13 14  2  0
 15 13  1  0
 15 16  1  0
 16 21  1  0
 16 17  1  1
 18 17  1  0
 19 20  2  0
 19 18  1  0
 21 22  1  0
 23 19  1  0
 24 21  2  0
M  END
$$$$
