ICE.pdb
     RDKit          3D

 24 23  0  0  1  0  0  0  0  0999 V2000
   17.3285  -15.8128  -16.9458 C   0  0  0  0  0  0  0  0  0  0  0  0
   17.6184  -14.7117  -15.9805 C   0  0  0  0  0  0  0  0  0  0  0  0
   17.3267  -13.3307  -16.5607 C   0  0  2  0  0  0  0  0  0  0  0  0
   18.1924  -13.0318  -17.7452 C   0  0  0  0  0  0  0  0  0  0  0  0
   17.6179  -12.3358  -15.4586 C   0  0  2  0  0  0  0  0  0  0  0  0
   16.7927  -12.5600  -14.2961 N   0  0  0  0  0  0  0  0  0  0  0  0
   17.4629  -10.9305  -15.9158 C   0  0  0  0  0  0  0  0  0  0  0  0
   18.2084  -10.5372  -16.8493 O   0  0  0  0  0  0  0  0  0  0  0  0
   16.5037  -10.0826  -15.3076 N   0  0  0  0  0  0  0  0  0  0  0  0
   16.3411   -8.7165  -15.8509 C   0  0  1  0  0  0  0  0  0  0  0  0
   14.8446   -8.3793  -15.7365 C   0  0  0  0  0  0  0  0  0  0  0  0
   14.1760   -7.7310  -17.2758 S   0  0  0  0  0  0  0  0  0  0  0  0
   17.0642   -7.7518  -15.0099 C   0  0  0  0  0  0  0  0  0  0  0  0
   17.1795   -8.0077  -13.7594 O   0  0  0  0  0  0  0  0  0  0  0  0
   17.6499   -6.5643  -15.4464 N   0  0  0  0  0  0  0  0  0  0  0  0
   18.3837   -5.6513  -14.5559 C   0  0  1  0  0  0  0  0  0  0  0  0
   19.8538   -5.8127  -14.8337 C   0  0  0  0  0  0  0  0  0  0  0  0
   20.6672   -4.9615  -13.9278 C   0  0  0  0  0  0  0  0  0  0  0  0
   22.1361   -5.0745  -14.2339 C   0  0  0  0  0  0  0  0  0  0  0  0
   22.6610   -6.1970  -14.2127 O   0  0  0  0  0  0  0  0  0  0  0  0
   17.9852   -4.2522  -14.8172 C   0  0  0  0  0  0  0  0  0  0  0  0
   18.0527   -3.2050  -13.9386 O   0  0  0  0  0  0  0  0  0  0  0  0
   22.8578   -3.9539  -14.5260 O   0  0  0  0  0  0  0  0  0  0  0  0
   17.5270   -4.0204  -16.0003 O   0  0  0  0  0  0  0  0  0  0  0  0
  2  1  1  0
  3  5  1  0
  3  2  1  0
  3  4  1  6
  5  6  1  1
  5  7  1  0
  7  8  2  0
  9  7  1  0
  9 10  1  0
 10 13  1  0
 10 11  1  1
 12 11  1  0
 13 14  2  0
 15 13  1  0
 15 16  1  0
 16 21  1  0
 16 17  1  6
 18 17  1  0
 19 20  2  0
 19 18  1  0
 21 22  1  0
 23 19  1  0
 24 21  2  0
M  END
$$$$
