ICE.pdb
     RDKit          3D

 24 23  0  0  1  0  0  0  0  0999 V2000
   17.2541  -13.2976  -17.2658 C   0  0  0  0  0  0  0  0  0  0  0  0
   18.1883  -12.1490  -17.4556 C   0  0  0  0  0  0  0  0  0  0  0  0
   18.1967  -11.1962  -16.2635 C   0  0  2  0  0  0  0  0  0  0  0  0
   16.8466  -10.5951  -16.0234 C   0  0  0  0  0  0  0  0  0  0  0  0
   19.1844  -10.1008  -16.6010 C   0  0  2  0  0  0  0  0  0  0  0  0
   20.5086  -10.6219  -16.8404 N   0  0  0  0  0  0  0  0  0  0  0  0
   19.2438   -9.0546  -15.5475 C   0  0  0  0  0  0  0  0  0  0  0  0
   18.1701   -8.4747  -15.2427 O   0  0  0  0  0  0  0  0  0  0  0  0
   20.4761   -8.7385  -14.9227 N   0  0  0  0  0  0  0  0  0  0  0  0
   20.5368   -7.5221  -14.0833 C   0  0  1  0  0  0  0  0  0  0  0  0
   21.7821   -7.6715  -13.1926 C   0  0  0  0  0  0  0  0  0  0  0  0
   22.1504   -6.1631  -12.2836 S   0  0  0  0  0  0  0  0  0  0  0  0
   20.7527   -6.3387  -14.9282 C   0  0  0  0  0  0  0  0  0  0  0  0
   21.5715   -6.4378  -15.9091 O   0  0  0  0  0  0  0  0  0  0  0  0
   20.1416   -5.0961  -14.7664 N   0  0  0  0  0  0  0  0  0  0  0  0
   20.4150   -3.9426  -15.6380 C   0  0  1  0  0  0  0  0  0  0  0  0
   19.1465   -3.1425  -15.7620 C   0  0  0  0  0  0  0  0  0  0  0  0
   19.3461   -1.9518  -16.6274 C   0  0  0  0  0  0  0  0  0  0  0  0
   18.1036   -1.1062  -16.6995 C   0  0  0  0  0  0  0  0  0  0  0  0
   18.0943   -0.0155  -16.1110 O   0  0  0  0  0  0  0  0  0  0  0  0
   21.4739   -3.0963  -15.0490 C   0  0  0  0  0  0  0  0  0  0  0  0
   22.3841   -2.3335  -15.7293 O   0  0  0  0  0  0  0  0  0  0  0  0
   17.0207   -1.5477  -17.4026 O   0  0  0  0  0  0  0  0  0  0  0  0
   21.5273   -3.0957  -13.7603 O   0  0  0  0  0  0  0  0  0  0  0  0
  2  1  1  0
  3  5  1  0
  3  2  1  0
  3  4  1  6
  5  6  1  1
  5  7  1  0
  7  8  2  0
  9  7  1  0
  9 10  1  0
 10 13  1  0
 10 11  1  1
 12 11  1  0
 13 14  2  0
 15 13  1  0
 15 16  1  0
 16 21  1  0
 16 17  1  1
 18 17  1  0
 19 20  2  0
 19 18  1  0
 21 22  1  0
 23 19  1  0
 24 21  2  0
M  END
$$$$
