ICE.pdb
     RDKit          3D

 24 23  0  0  1  0  0  0  0  0999 V2000
   19.8894  -14.6033  -18.1743 C   0  0  0  0  0  0  0  0  0  0  0  0
   20.5812  -13.3914  -18.7045 C   0  0  0  0  0  0  0  0  0  0  0  0
   21.0812  -12.4691  -17.5961 C   0  0  2  0  0  0  0  0  0  0  0  0
   19.9501  -11.8738  -16.8164 C   0  0  0  0  0  0  0  0  0  0  0  0
   21.8595  -11.3659  -18.2791 C   0  0  2  0  0  0  0  0  0  0  0  0
   22.8742  -11.8874  -19.1628 N   0  0  0  0  0  0  0  0  0  0  0  0
   22.4799  -10.4309  -17.3051 C   0  0  0  0  0  0  0  0  0  0  0  0
   23.2072  -10.9259  -16.4062 O   0  0  0  0  0  0  0  0  0  0  0  0
   22.2468   -9.0365  -17.4047 N   0  0  0  0  0  0  0  0  0  0  0  0
   22.8960   -8.1516  -16.4131 C   0  0  1  0  0  0  0  0  0  0  0  0
   24.4118   -8.2854  -16.6389 C   0  0  0  0  0  0  0  0  0  0  0  0
   25.3474   -7.0706  -15.6977 S   0  0  0  0  0  0  0  0  0  0  0  0
   22.5437   -6.7503  -16.6832 C   0  0  0  0  0  0  0  0  0  0  0  0
   22.8101   -6.2729  -17.8423 O   0  0  0  0  0  0  0  0  0  0  0  0
   21.9349   -5.8728  -15.7869 N   0  0  0  0  0  0  0  0  0  0  0  0
   21.5554   -4.4953  -16.1378 C   0  0  1  0  0  0  0  0  0  0  0  0
   20.1826   -4.5335  -16.7530 C   0  0  0  0  0  0  0  0  0  0  0  0
   19.1799   -5.0642  -15.7940 C   0  0  0  0  0  0  0  0  0  0  0  0
   17.7779   -4.9107  -16.3184 C   0  0  0  0  0  0  0  0  0  0  0  0
   17.1904   -3.8353  -16.1330 O   0  0  0  0  0  0  0  0  0  0  0  0
   21.5274   -3.6484  -14.9267 C   0  0  0  0  0  0  0  0  0  0  0  0
   21.3006   -2.2996  -14.8772 O   0  0  0  0  0  0  0  0  0  0  0  0
   17.1832   -5.9446  -16.9812 O   0  0  0  0  0  0  0  0  0  0  0  0
   21.7450   -4.2663  -13.8158 O   0  0  0  0  0  0  0  0  0  0  0  0
  2  1  1  0
  3  5  1  0
  3  2  1  0
  3  4  1  6
  5  6  1  1
  5  7  1  0
  7  8  2  0
  9  7  1  0
  9 10  1  0
 10 13  1  0
 10 11  1  6
 12 11  1  0
 13 14  2  0
 15 13  1  0
 15 16  1  0
 16 21  1  0
 16 17  1  1
 18 17  1  0
 19 20  2  0
 19 18  1  0
 21 22  1  0
 23 19  1  0
 24 21  2  0
M  END
$$$$
