ICE.pdb
     RDKit          3D

 24 23  0  0  1  0  0  0  0  0999 V2000
   19.2822  -10.5229  -20.9720 C   0  0  0  0  0  0  0  0  0  0  0  0
   19.7946  -10.9808  -19.6469 C   0  0  0  0  0  0  0  0  0  0  0  0
   19.6731   -9.9081  -18.5682 C   0  0  2  0  0  0  0  0  0  0  0  0
   20.6961   -8.8285  -18.7407 C   0  0  0  0  0  0  0  0  0  0  0  0
   19.8954  -10.6077  -17.2452 C   0  0  2  0  0  0  0  0  0  0  0  0
   19.0109  -11.7351  -17.0745 N   0  0  0  0  0  0  0  0  0  0  0  0
   19.7527   -9.6834  -16.0906 C   0  0  0  0  0  0  0  0  0  0  0  0
   18.5935   -9.2923  -15.7987 O   0  0  0  0  0  0  0  0  0  0  0  0
   20.8948   -9.2709  -15.3597 N   0  0  0  0  0  0  0  0  0  0  0  0
   20.7139   -8.2445  -14.3102 C   0  0  1  0  0  0  0  0  0  0  0  0
   21.3204   -8.8287  -13.0228 C   0  0  0  0  0  0  0  0  0  0  0  0
   21.4838   -7.5906  -11.7277 S   0  0  0  0  0  0  0  0  0  0  0  0
   21.4911   -7.0422  -14.6438 C   0  0  0  0  0  0  0  0  0  0  0  0
   22.7058   -7.1938  -15.0230 O   0  0  0  0  0  0  0  0  0  0  0  0
   21.0282   -5.7282  -14.5894 N   0  0  0  0  0  0  0  0  0  0  0  0
   21.8787   -4.5607  -14.8695 C   0  0  1  0  0  0  0  0  0  0  0  0
   22.0036   -4.4240  -16.3630 C   0  0  0  0  0  0  0  0  0  0  0  0
   20.6853   -4.1445  -16.9879 C   0  0  0  0  0  0  0  0  0  0  0  0
   20.8064   -3.9638  -18.4768 C   0  0  0  0  0  0  0  0  0  0  0  0
   21.9332   -4.0168  -18.9903 O   0  0  0  0  0  0  0  0  0  0  0  0
   21.2651   -3.3361  -14.3139 C   0  0  0  0  0  0  0  0  0  0  0  0
   21.8493   -2.1026  -14.2123 O   0  0  0  0  0  0  0  0  0  0  0  0
   19.6884   -3.7472  -19.2284 O   0  0  0  0  0  0  0  0  0  0  0  0
   20.0564   -3.4701  -13.8847 O   0  0  0  0  0  0  0  0  0  0  0  0
  2  1  1  0
  3  5  1  0
  3  2  1  0
  3  4  1  6
  5  6  1  1
  5  7  1  0
  7  8  2  0
  9  7  1  0
  9 10  1  0
 10 13  1  0
 10 11  1  1
 12 11  1  0
 13 14  2  0
 15 13  1  0
 15 16  1  0
 16 21  1  0
 16 17  1  6
 18 17  1  0
 19 20  2  0
 19 18  1  0
 21 22  1  0
 23 19  1  0
 24 21  2  0
M  END
$$$$
