ICE.pdb
     RDKit          3D

 24 23  0  0  1  0  0  0  0  0999 V2000
   16.2654  -10.9980  -17.5859 C   0  0  0  0  0  0  0  0  0  0  0  0
   17.2023  -10.9650  -16.4243 C   0  0  0  0  0  0  0  0  0  0  0  0
   17.5171   -9.5442  -15.9644 C   0  0  2  0  0  0  0  0  0  0  0  0
   18.2966   -8.7870  -16.9944 C   0  0  0  0  0  0  0  0  0  0  0  0
   18.3429   -9.6780  -14.7037 C   0  0  2  0  0  0  0  0  0  0  0  0
   17.6513  -10.4255  -13.6813 N   0  0  0  0  0  0  0  0  0  0  0  0
   18.7571   -8.3581  -14.1615 C   0  0  0  0  0  0  0  0  0  0  0  0
   17.9021   -7.7011  -13.5141 O   0  0  0  0  0  0  0  0  0  0  0  0
   20.0727   -7.8772  -14.3783 N   0  0  0  0  0  0  0  0  0  0  0  0
   20.4168   -6.5370  -13.8556 C   0  0  1  0  0  0  0  0  0  0  0  0
   21.9524   -6.4795  -13.7862 C   0  0  0  0  0  0  0  0  0  0  0  0
   22.5508   -4.8379  -13.3571 S   0  0  0  0  0  0  0  0  0  0  0  0
   19.9908   -5.5015  -14.8081 C   0  0  0  0  0  0  0  0  0  0  0  0
   19.9192   -5.8145  -16.0488 O   0  0  0  0  0  0  0  0  0  0  0  0
   19.6486   -4.1881  -14.4892 N   0  0  0  0  0  0  0  0  0  0  0  0
   18.9482   -3.2881  -15.4189 C   0  0  1  0  0  0  0  0  0  0  0  0
   17.6101   -3.8986  -15.7374 C   0  0  0  0  0  0  0  0  0  0  0  0
   16.8004   -2.9970  -16.5967 C   0  0  0  0  0  0  0  0  0  0  0  0
   15.4632   -3.6023  -16.9277 C   0  0  0  0  0  0  0  0  0  0  0  0
   15.1209   -4.6392  -16.3414 O   0  0  0  0  0  0  0  0  0  0  0  0
   18.7476   -1.9635  -14.7946 C   0  0  0  0  0  0  0  0  0  0  0  0
   18.6657   -0.7594  -15.4399 O   0  0  0  0  0  0  0  0  0  0  0  0
   14.6591   -3.0079  -17.8562 O   0  0  0  0  0  0  0  0  0  0  0  0
   18.6454   -1.9688  -13.5089 O   0  0  0  0  0  0  0  0  0  0  0  0
  2  1  1  0
  3  5  1  0
  3  2  1  0
  3  4  1  6
  5  6  1  1
  5  7  1  0
  7  8  2  0
  9  7  1  0
  9 10  1  0
 10 13  1  0
 10 11  1  6
 12 11  1  0
 13 14  2  0
 15 13  1  0
 15 16  1  0
 16 21  1  0
 16 17  1  1
 18 17  1  0
 19 20  2  0
 19 18  1  0
 21 22  1  0
 23 19  1  0
 24 21  2  0
M  END
$$$$
