FFI.pdb
     RDKit          3D

 31 32  0  0  1  0  0  0  0  0999 V2000
   11.7387  -17.3008   19.7560 N   0  0  0  0  0  0  0  0  0  0  0  0
   10.7426  -17.8745   20.6355 C   0  0  1  0  0  0  0  0  0  0  0  0
   11.2815  -19.1585   21.1979 C   0  0  0  0  0  0  0  0  0  0  0  0
   11.0980  -20.2090   20.1558 C   0  0  0  0  0  0  0  0  0  0  0  0
   12.1662  -20.6165   19.3878 C   0  0  0  0  0  0  0  0  0  0  0  0
   12.0352  -21.5927   18.4067 C   0  0  0  0  0  0  0  0  0  0  0  0
   10.8185  -22.1766   18.1834 C   0  0  0  0  0  0  0  0  0  0  0  0
    9.7292  -21.7841   18.9425 C   0  0  0  0  0  0  0  0  0  0  0  0
    9.8766  -20.8054   19.9209 C   0  0  0  0  0  0  0  0  0  0  0  0
   10.3557  -16.8904   21.6380 C   0  0  0  0  0  0  0  0  0  0  0  0
   11.1996  -16.0350   22.0089 O   0  0  0  0  0  0  0  0  0  0  0  0
    9.0754  -16.8082   22.2508 N   0  0  0  0  0  0  0  0  0  0  0  0
    8.7973  -15.8152   23.2361 C   0  0  1  0  0  0  0  0  0  0  0  0
    7.3626  -15.3418   23.2228 C   0  0  0  0  0  0  0  0  0  0  0  0
    7.1030  -14.2741   24.2052 C   0  0  0  0  0  0  0  0  0  0  0  0
    6.3936  -14.5640   25.3497 C   0  0  0  0  0  0  0  0  0  0  0  0
    6.1136  -13.6184   26.3106 C   0  0  0  0  0  0  0  0  0  0  0  0
    6.5405  -12.3242   26.1596 C   0  0  0  0  0  0  0  0  0  0  0  0
    7.2551  -12.0028   25.0207 C   0  0  0  0  0  0  0  0  0  0  0  0
    7.5246  -12.9700   24.0685 C   0  0  0  0  0  0  0  0  0  0  0  0
    9.1309  -16.2582   24.6174 C   0  0  0  0  0  0  0  0  0  0  0  0
    9.0095  -17.4722   24.9232 O   0  0  0  0  0  0  0  0  0  0  0  0
    9.3168  -12.6188   28.7684 C   0  0  0  0  0  0  0  0  0  0  0  0
    9.9614  -13.5018   27.6983 C   0  0  0  0  0  0  0  0  0  0  0  0
    9.7241  -14.9518   28.0237 C   0  0  2  0  0  0  0  0  0  0  0  0
   10.4725  -15.2500   29.3054 C   0  0  0  0  0  0  0  0  0  0  0  0
   10.1592  -15.8124   26.8915 C   0  0  2  0  0  0  0  0  0  0  0  0
    9.5852  -15.3690   25.6209 N   0  0  0  0  0  0  0  0  0  0  0  0
    9.9149  -17.2535   27.0699 C   0  0  0  0  0  0  0  0  0  0  0  0
    8.5852  -17.7068   26.9628 O   0  0  0  0  0  0  0  0  0  0  0  0
   10.7549  -18.1313   27.3074 O   0  0  0  0  0  0  0  0  0  0  0  0
  2  1  1  6
  2 10  1  0
  3  2  1  0
  3  4  1  0
  4  9  1  0
  4  5  2  0
  5  6  1  0
  6  7  2  0
  8  7  1  0
  9  8  2  0
 10 11  2  0
 12 13  1  0
 12 10  1  0
 13 21  1  0
 13 14  1  1
 15 14  1  0
 16 15  2  0
 17 16  1  0
 18 19  1  0
 18 17  2  0
 19 20  2  0
 20 15  1  0
 21 22  2  0
 24 25  1  0
 24 23  1  0
 25 27  1  0
 25 26  1  1
 27 29  1  0
 28 21  1  0
 27 28  1  6
 29 31  2  0
 29 30  1  0
M  END
$$$$
