FFI.pdb
     RDKit          3D

 31 32  0  0  1  0  0  0  0  0999 V2000
    9.1830  -17.4201   19.8612 N   0  0  0  0  0  0  0  0  0  0  0  0
   10.2348  -16.4983   20.2340 C   0  0  1  0  0  0  0  0  0  0  0  0
   10.4008  -15.4894   19.1341 C   0  0  0  0  0  0  0  0  0  0  0  0
    9.2768  -14.5169   19.2530 C   0  0  0  0  0  0  0  0  0  0  0  0
    8.0167  -14.8581   18.8144 C   0  0  0  0  0  0  0  0  0  0  0  0
    6.9436  -13.9792   18.9080 C   0  0  0  0  0  0  0  0  0  0  0  0
    7.1253  -12.7356   19.4482 C   0  0  0  0  0  0  0  0  0  0  0  0
    8.3829  -12.3689   19.8963 C   0  0  0  0  0  0  0  0  0  0  0  0
    9.4471  -13.2602   19.7956 C   0  0  0  0  0  0  0  0  0  0  0  0
    9.9375  -15.9255   21.5404 C   0  0  0  0  0  0  0  0  0  0  0  0
   10.7995  -15.1982   22.0968 O   0  0  0  0  0  0  0  0  0  0  0  0
    8.7280  -16.1202   22.2619 N   0  0  0  0  0  0  0  0  0  0  0  0
    8.4839  -15.4262   23.4837 C   0  0  1  0  0  0  0  0  0  0  0  0
    7.0258  -15.1002   23.7080 C   0  0  0  0  0  0  0  0  0  0  0  0
    6.8102  -14.2014   24.8561 C   0  0  0  0  0  0  0  0  0  0  0  0
    6.3754  -14.7244   26.0539 C   0  0  0  0  0  0  0  0  0  0  0  0
    6.1528  -13.9464   27.1679 C   0  0  0  0  0  0  0  0  0  0  0  0
    6.3604  -12.5918   27.1243 C   0  0  0  0  0  0  0  0  0  0  0  0
    6.7970  -12.0376   25.9354 C   0  0  0  0  0  0  0  0  0  0  0  0
    7.0139  -12.8395   24.8288 C   0  0  0  0  0  0  0  0  0  0  0  0
    8.9888  -16.1574   24.6779 C   0  0  0  0  0  0  0  0  0  0  0  0
    9.1824  -17.3982   24.6064 O   0  0  0  0  0  0  0  0  0  0  0  0
   10.2861  -12.9359   28.9774 C   0  0  0  0  0  0  0  0  0  0  0  0
   10.5721  -13.9151   27.8375 C   0  0  0  0  0  0  0  0  0  0  0  0
   10.0699  -15.2854   28.2050 C   0  0  2  0  0  0  0  0  0  0  0  0
   10.9974  -15.8299   29.2704 C   0  0  0  0  0  0  0  0  0  0  0  0
   10.0090  -16.1532   26.9987 C   0  0  2  0  0  0  0  0  0  0  0  0
    9.2668  -15.5178   25.9099 N   0  0  0  0  0  0  0  0  0  0  0  0
    9.4867  -17.5106   27.2290 C   0  0  0  0  0  0  0  0  0  0  0  0
   10.4239  -18.5474   27.4070 O   0  0  0  0  0  0  0  0  0  0  0  0
    8.2993  -17.8560   27.2859 O   0  0  0  0  0  0  0  0  0  0  0  0
  2  1  1  6
  2 10  1  0
  3  2  1  0
  3  4  1  0
  4  9  1  0
  4  5  2  0
  5  6  1  0
  6  7  2  0
  8  7  1  0
  9  8  2  0
 10 11  2  0
 12 13  1  0
 12 10  1  0
 13 21  1  0
 13 14  1  1
 15 14  1  0
 16 15  2  0
 17 16  1  0
 18 19  1  0
 18 17  2  0
 19 20  2  0
 20 15  1  0
 21 22  2  0
 24 25  1  0
 24 23  1  0
 25 27  1  0
 25 26  1  1
 27 29  1  0
 28 21  1  0
 27 28  1  6
 29 31  2  0
 29 30  1  0
M  END
$$$$
