FFI.pdb
     RDKit          3D

 31 32  0  0  1  0  0  0  0  0999 V2000
   11.6498  -16.2771   19.3197 N   0  0  0  0  0  0  0  0  0  0  0  0
   11.2515  -17.1803   20.3782 C   0  0  1  0  0  0  0  0  0  0  0  0
   12.4021  -18.0947   20.6870 C   0  0  0  0  0  0  0  0  0  0  0  0
   11.9282  -19.0722   21.7084 C   0  0  0  0  0  0  0  0  0  0  0  0
   12.1948  -18.8627   23.0432 C   0  0  0  0  0  0  0  0  0  0  0  0
   11.7700  -19.7508   24.0249 C   0  0  0  0  0  0  0  0  0  0  0  0
   11.0661  -20.8700   23.6743 C   0  0  0  0  0  0  0  0  0  0  0  0
   10.7855  -21.1028   22.3386 C   0  0  0  0  0  0  0  0  0  0  0  0
   11.2176  -20.2043   21.3677 C   0  0  0  0  0  0  0  0  0  0  0  0
   10.7684  -16.4104   21.5170 C   0  0  0  0  0  0  0  0  0  0  0  0
   11.4683  -15.4596   21.9503 O   0  0  0  0  0  0  0  0  0  0  0  0
    9.5437  -16.6437   22.2007 N   0  0  0  0  0  0  0  0  0  0  0  0
    9.0942  -15.7555   23.2220 C   0  0  1  0  0  0  0  0  0  0  0  0
    7.6525  -15.3336   23.0587 C   0  0  0  0  0  0  0  0  0  0  0  0
    7.2179  -14.3711   24.0868 C   0  0  0  0  0  0  0  0  0  0  0  0
    7.4140  -13.0235   23.8796 C   0  0  0  0  0  0  0  0  0  0  0  0
    7.0340  -12.0674   24.7948 C   0  0  0  0  0  0  0  0  0  0  0  0
    6.4329  -12.4304   25.9724 C   0  0  0  0  0  0  0  0  0  0  0  0
    6.2226  -13.7762   26.2087 C   0  0  0  0  0  0  0  0  0  0  0  0
    6.6130  -14.7190   25.2742 C   0  0  0  0  0  0  0  0  0  0  0  0
    9.2667  -16.3109   24.5921 C   0  0  0  0  0  0  0  0  0  0  0  0
    9.2020  -17.5549   24.7671 O   0  0  0  0  0  0  0  0  0  0  0  0
   10.1955  -12.6184   28.7034 C   0  0  0  0  0  0  0  0  0  0  0  0
   10.4915  -13.6640   27.6267 C   0  0  0  0  0  0  0  0  0  0  0  0
    9.9857  -15.0100   28.0710 C   0  0  2  0  0  0  0  0  0  0  0  0
   10.7850  -15.4057   29.2943 C   0  0  0  0  0  0  0  0  0  0  0  0
   10.1039  -15.9964   26.9643 C   0  0  2  0  0  0  0  0  0  0  0  0
    9.5036  -15.4981   25.7267 N   0  0  0  0  0  0  0  0  0  0  0  0
    9.5802  -17.3397   27.2636 C   0  0  0  0  0  0  0  0  0  0  0  0
   10.5016  -18.3192   27.6837 O   0  0  0  0  0  0  0  0  0  0  0  0
    8.4039  -17.7183   27.1887 O   0  0  0  0  0  0  0  0  0  0  0  0
  2  1  1  6
  2 10  1  0
  3  2  1  0
  3  4  1  0
  4  9  1  0
  4  5  2  0
  5  6  1  0
  6  7  2  0
  8  7  1  0
  9  8  2  0
 10 11  2  0
 12 13  1  0
 12 10  1  0
 13 21  1  0
 13 14  1  6
 15 14  1  0
 16 15  2  0
 17 16  1  0
 18 19  1  0
 18 17  2  0
 19 20  2  0
 20 15  1  0
 21 22  2  0
 24 25  1  0
 24 23  1  0
 25 27  1  0
 25 26  1  1
 27 29  1  0
 28 21  1  0
 27 28  1  6
 29 31  2  0
 29 30  1  0
M  END
$$$$
