FFI.pdb
     RDKit          3D

 31 32  0  0  1  0  0  0  0  0999 V2000
    4.8625  -16.4941   20.6765 N   0  0  0  0  0  0  0  0  0  0  0  0
    6.2068  -16.8458   21.0816 C   0  0  1  0  0  0  0  0  0  0  0  0
    7.1248  -16.6642   19.9071 C   0  0  0  0  0  0  0  0  0  0  0  0
    7.3733  -15.2012   19.7622 C   0  0  0  0  0  0  0  0  0  0  0  0
    6.4556  -14.4039   19.1148 C   0  0  0  0  0  0  0  0  0  0  0  0
    6.6514  -13.0363   18.9596 C   0  0  0  0  0  0  0  0  0  0  0  0
    7.7816  -12.4479   19.4573 C   0  0  0  0  0  0  0  0  0  0  0  0
    8.7192  -13.2283   20.1122 C   0  0  0  0  0  0  0  0  0  0  0  0
    8.5087  -14.5960   20.2595 C   0  0  0  0  0  0  0  0  0  0  0  0
    6.5751  -16.0751   22.2621 C   0  0  0  0  0  0  0  0  0  0  0  0
    6.0401  -14.9523   22.4476 O   0  0  0  0  0  0  0  0  0  0  0  0
    7.5103  -16.4898   23.2495 N   0  0  0  0  0  0  0  0  0  0  0  0
    7.8857  -15.6187   24.3146 C   0  0  1  0  0  0  0  0  0  0  0  0
    6.7086  -15.0877   25.0990 C   0  0  0  0  0  0  0  0  0  0  0  0
    7.1058  -14.1423   26.1577 C   0  0  0  0  0  0  0  0  0  0  0  0
    7.8892  -14.5835   27.2013 C   0  0  0  0  0  0  0  0  0  0  0  0
    8.2984  -13.7581   28.2245 C   0  0  0  0  0  0  0  0  0  0  0  0
    7.9326  -12.4368   28.2423 C   0  0  0  0  0  0  0  0  0  0  0  0
    7.1462  -11.9646   27.2079 C   0  0  0  0  0  0  0  0  0  0  0  0
    6.7471  -12.8129   26.1903 C   0  0  0  0  0  0  0  0  0  0  0  0
    8.8393  -16.2464   25.2696 C   0  0  0  0  0  0  0  0  0  0  0  0
    8.4271  -17.1319   26.0622 O   0  0  0  0  0  0  0  0  0  0  0  0
   12.8842  -15.6469   21.9401 C   0  0  0  0  0  0  0  0  0  0  0  0
   11.8013  -16.2003   22.8681 C   0  0  0  0  0  0  0  0  0  0  0  0
   12.3534  -16.3552   24.2596 C   0  0  2  0  0  0  0  0  0  0  0  0
   13.5406  -17.2900   24.1672 C   0  0  0  0  0  0  0  0  0  0  0  0
   11.2984  -16.8564   25.1803 C   0  0  2  0  0  0  0  0  0  0  0  0
   10.2085  -15.8924   25.3328 N   0  0  0  0  0  0  0  0  0  0  0  0
   11.7748  -17.2805   26.5075 C   0  0  0  0  0  0  0  0  0  0  0  0
   11.3887  -16.5029   27.6171 O   0  0  0  0  0  0  0  0  0  0  0  0
   12.4879  -18.2578   26.7696 O   0  0  0  0  0  0  0  0  0  0  0  0
  2  1  1  6
  2 10  1  0
  3  2  1  0
  3  4  1  0
  4  9  1  0
  4  5  2  0
  5  6  1  0
  6  7  2  0
  8  7  1  0
  9  8  2  0
 10 11  2  0
 12 13  1  0
 12 10  1  0
 13 21  1  0
 13 14  1  1
 15 14  1  0
 16 15  2  0
 17 16  1  0
 18 19  1  0
 18 17  2  0
 19 20  2  0
 20 15  1  0
 21 22  2  0
 24 25  1  0
 24 23  1  0
 25 27  1  0
 25 26  1  6
 27 29  1  0
 28 21  1  0
 27 28  1  1
 29 31  2  0
 29 30  1  0
M  END
$$$$
