FFI.pdb
     RDKit          3D

 31 32  0  0  1  0  0  0  0  0999 V2000
   10.7000  -15.8035   19.2407 N   0  0  0  0  0  0  0  0  0  0  0  0
    9.9871  -16.6486   20.1747 C   0  0  1  0  0  0  0  0  0  0  0  0
   10.6733  -17.9830   20.2347 C   0  0  0  0  0  0  0  0  0  0  0  0
    9.9027  -18.8341   21.1860 C   0  0  0  0  0  0  0  0  0  0  0  0
   10.2966  -18.9327   22.5020 C   0  0  0  0  0  0  0  0  0  0  0  0
    9.6045  -19.7157   23.4189 C   0  0  0  0  0  0  0  0  0  0  0  0
    8.4984  -20.4152   23.0212 C   0  0  0  0  0  0  0  0  0  0  0  0
    8.0822  -20.3324   21.7033 C   0  0  0  0  0  0  0  0  0  0  0  0
    8.7858  -19.5442   20.7974 C   0  0  0  0  0  0  0  0  0  0  0  0
    9.8758  -15.9674   21.4580 C   0  0  0  0  0  0  0  0  0  0  0  0
   10.8903  -15.3973   21.9347 O   0  0  0  0  0  0  0  0  0  0  0  0
    8.6915  -15.8873   22.2406 N   0  0  0  0  0  0  0  0  0  0  0  0
    8.6543  -15.1098   23.4357 C   0  0  1  0  0  0  0  0  0  0  0  0
    7.3405  -14.3935   23.6451 C   0  0  0  0  0  0  0  0  0  0  0  0
    7.2901  -13.6507   24.9172 C   0  0  0  0  0  0  0  0  0  0  0  0
    7.8921  -12.4149   25.0047 C   0  0  0  0  0  0  0  0  0  0  0  0
    7.8852  -11.6645   26.1591 C   0  0  0  0  0  0  0  0  0  0  0  0
    7.2646  -12.1308   27.2893 C   0  0  0  0  0  0  0  0  0  0  0  0
    6.6514  -13.3685   27.2322 C   0  0  0  0  0  0  0  0  0  0  0  0
    6.6712  -14.1047   26.0608 C   0  0  0  0  0  0  0  0  0  0  0  0
    8.9523  -15.9071   24.6568 C   0  0  0  0  0  0  0  0  0  0  0  0
    8.2247  -16.8921   24.9443 O   0  0  0  0  0  0  0  0  0  0  0  0
   13.6142  -17.8766   24.9046 C   0  0  0  0  0  0  0  0  0  0  0  0
   12.1302  -17.5544   25.0888 C   0  0  0  0  0  0  0  0  0  0  0  0
   11.9167  -16.8786   26.4164 C   0  0  2  0  0  0  0  0  0  0  0  0
   12.4034  -17.8325   27.4864 C   0  0  0  0  0  0  0  0  0  0  0  0
   10.4855  -16.5104   26.5836 C   0  0  2  0  0  0  0  0  0  0  0  0
   10.0297  -15.6090   25.5253 N   0  0  0  0  0  0  0  0  0  0  0  0
   10.1320  -15.9501   27.8986 C   0  0  0  0  0  0  0  0  0  0  0  0
    9.9622  -16.8529   28.9668 O   0  0  0  0  0  0  0  0  0  0  0  0
    9.9629  -14.7572   28.1830 O   0  0  0  0  0  0  0  0  0  0  0  0
  2  1  1  6
  2 10  1  0
  3  2  1  0
  3  4  1  0
  4  9  1  0
  4  5  2  0
  5  6  1  0
  6  7  2  0
  8  7  1  0
  9  8  2  0
 10 11  2  0
 12 13  1  0
 12 10  1  0
 13 21  1  0
 13 14  1  1
 15 14  1  0
 16 15  2  0
 17 16  1  0
 18 19  1  0
 18 17  2  0
 19 20  2  0
 20 15  1  0
 21 22  2  0
 24 25  1  0
 24 23  1  0
 25 27  1  0
 25 26  1  1
 27 29  1  0
 28 21  1  0
 27 28  1  6
 29 31  2  0
 29 30  1  0
M  END
$$$$
