FFI.pdb
     RDKit          3D

 31 32  0  0  1  0  0  0  0  0999 V2000
    7.6171  -18.1987   20.9307 N   0  0  0  0  0  0  0  0  0  0  0  0
    8.0265  -16.8256   20.7264 C   0  0  1  0  0  0  0  0  0  0  0  0
    6.9331  -16.1029   19.9933 C   0  0  0  0  0  0  0  0  0  0  0  0
    7.4305  -14.7280   19.7012 C   0  0  0  0  0  0  0  0  0  0  0  0
    7.0646  -13.6734   20.5079 C   0  0  0  0  0  0  0  0  0  0  0  0
    7.5074  -12.3775   20.2682 C   0  0  0  0  0  0  0  0  0  0  0  0
    8.3306  -12.1233   19.2057 C   0  0  0  0  0  0  0  0  0  0  0  0
    8.7126  -13.1668   18.3799 C   0  0  0  0  0  0  0  0  0  0  0  0
    8.2608  -14.4586   18.6331 C   0  0  0  0  0  0  0  0  0  0  0  0
    8.3911  -16.2323   22.0064 C   0  0  0  0  0  0  0  0  0  0  0  0
    9.5284  -15.7110   22.1339 O   0  0  0  0  0  0  0  0  0  0  0  0
    7.5541  -16.1888   23.1549 N   0  0  0  0  0  0  0  0  0  0  0  0
    7.9731  -15.5182   24.3418 C   0  0  1  0  0  0  0  0  0  0  0  0
    6.8245  -15.0093   25.1811 C   0  0  0  0  0  0  0  0  0  0  0  0
    7.2682  -14.1801   26.3159 C   0  0  0  0  0  0  0  0  0  0  0  0
    7.7008  -14.7901   27.4727 C   0  0  0  0  0  0  0  0  0  0  0  0
    8.1295  -14.0805   28.5721 C   0  0  0  0  0  0  0  0  0  0  0  0
    8.1415  -12.7095   28.5549 C   0  0  0  0  0  0  0  0  0  0  0  0
    7.7128  -12.0687   27.4074 C   0  0  0  0  0  0  0  0  0  0  0  0
    7.2864  -12.8029   26.3148 C   0  0  0  0  0  0  0  0  0  0  0  0
    8.8474  -16.3581   25.2055 C   0  0  0  0  0  0  0  0  0  0  0  0
    8.4216  -17.4647   25.6251 O   0  0  0  0  0  0  0  0  0  0  0  0
   13.7856  -16.5212   23.4680 C   0  0  0  0  0  0  0  0  0  0  0  0
   12.4121  -16.8155   24.0740 C   0  0  0  0  0  0  0  0  0  0  0  0
   12.4830  -16.7070   25.5733 C   0  0  2  0  0  0  0  0  0  0  0  0
   13.4753  -17.7464   26.0496 C   0  0  0  0  0  0  0  0  0  0  0  0
   11.1320  -16.8882   26.1681 C   0  0  2  0  0  0  0  0  0  0  0  0
   10.1546  -15.9691   25.5850 N   0  0  0  0  0  0  0  0  0  0  0  0
   11.0775  -16.8036   27.6371 C   0  0  0  0  0  0  0  0  0  0  0  0
   11.2677  -17.9944   28.3656 O   0  0  0  0  0  0  0  0  0  0  0  0
   10.8808  -15.7911   28.3217 O   0  0  0  0  0  0  0  0  0  0  0  0
  2  1  1  1
  2 10  1  0
  3  2  1  0
  3  4  1  0
  4  9  1  0
  4  5  2  0
  5  6  1  0
  6  7  2  0
  8  7  1  0
  9  8  2  0
 10 11  2  0
 12 13  1  0
 12 10  1  0
 13 21  1  0
 13 14  1  1
 15 14  1  0
 16 15  2  0
 17 16  1  0
 18 19  1  0
 18 17  2  0
 19 20  2  0
 20 15  1  0
 21 22  2  0
 24 25  1  0
 24 23  1  0
 25 27  1  0
 25 26  1  1
 27 29  1  0
 28 21  1  0
 27 28  1  6
 29 31  2  0
 29 30  1  0
M  END
$$$$
