RHK.pdb
     RDKit          3D

 31 31  0  0  1  0  0  0  0  0999 V2000
    9.1569  -12.8091   20.6133 N   0  0  0  0  0  0  0  0  0  0  0  0
    8.5626  -12.3665   19.3801 C   0  0  0  0  0  0  0  0  0  0  0  0
    9.0235  -11.2651   18.8486 N   0  0  0  0  0  0  0  0  0  0  0  0
    7.5246  -13.0840   18.7704 N   0  0  0  0  0  0  0  0  0  0  0  0
    6.9497  -14.2742   19.3373 C   0  0  0  0  0  0  0  0  0  0  0  0
    7.5146  -15.5186   18.6891 C   0  0  0  0  0  0  0  0  0  0  0  0
    8.7605  -16.0154   19.3314 C   0  0  0  0  0  0  0  0  0  0  0  0
    9.8366  -16.4683   18.4019 C   0  0  2  0  0  0  0  0  0  0  0  0
    9.4881  -17.6392   17.6460 N   0  0  0  0  0  0  0  0  0  0  0  0
   11.0484  -16.7700   19.2246 C   0  0  0  0  0  0  0  0  0  0  0  0
   11.2830  -17.9239   19.6603 O   0  0  0  0  0  0  0  0  0  0  0  0
    8.5914  -10.8787   17.9710 N   0  0  0  0  0  0  0  0  0  0  0  0
   11.9470  -15.7334   19.5165 C   0  0  2  0  0  0  0  0  0  0  0  0
   13.1626  -15.8238   20.2861 C   0  0  0  0  0  0  0  0  0  0  0  0
   13.9388  -14.5754   20.1909 C   0  0  0  0  0  0  0  0  0  0  0  0
   14.7033  -14.3965   18.9324 C   0  0  0  0  0  0  0  0  0  0  0  0
   15.1197  -15.4978   18.1770 N   0  0  0  0  0  0  0  0  0  0  0  0
   15.7772  -15.0486   17.1088 C   0  0  0  0  0  0  0  0  0  0  0  0
   15.7692  -13.7141   17.1950 N   0  0  0  0  0  0  0  0  0  0  0  0
   15.1260  -13.3015   18.2898 C   0  0  0  0  0  0  0  0  0  0  0  0
   12.8822  -16.1738   21.7055 O   0  0  0  0  0  0  0  0  0  0  0  0
   12.0867  -15.4784   22.4299 N   0  0  0  0  0  0  0  0  0  0  0  0
   13.4672  -17.2884   22.3524 C   0  0  1  0  0  0  0  0  0  0  0  0
   13.1499  -17.6578   23.7083 C   0  0  0  0  0  0  0  0  0  0  0  0
   13.2799  -19.1363   23.9843 C   0  0  0  0  0  0  0  0  0  0  0  0
   12.8900  -19.4337   25.4212 C   0  0  0  0  0  0  0  0  0  0  0  0
   13.1356  -20.8866   25.7041 C   0  0  0  0  0  0  0  0  0  0  0  0
   12.6534  -21.2995   27.0728 N   0  0  0  0  0  0  0  0  0  0  0  0
   12.9984  -22.6460   27.4242 C   0  0  0  0  0  0  0  0  0  0  0  0
   14.0653  -16.9107   24.6522 O   0  0  0  0  0  0  0  0  0  0  0  0
   15.2004  -16.5777   24.2439 O   0  0  0  0  0  0  0  0  0  0  0  0
  1  2  1  0
  2  3  2  0
  4  2  1  0
  4  5  1  0
  5  6  1  0
  6  7  1  0
  7  8  1  0
  8 10  1  0
  8  9  1  1
 10 11  2  0
 10 12  1  0
 12 13  1  0
 13 20  1  0
 13 14  1  6
 15 14  1  0
 16 15  2  0
 17 18  1  0
 17 16  1  0
 18 19  2  0
 19 15  1  0
 20 21  2  0
 20 22  1  0
 22 23  1  0
 23 29  1  0
 23 24  1  1
 25 24  1  0
 25 26  1  0
 27 26  1  0
 27 28  1  0
 29 31  1  0
 30 29  2  0
M  END
$$$$
