RHK.pdb
     RDKit          3D

 31 31  0  0  1  0  0  0  0  0999 V2000
   11.5953  -16.4499   13.1427 N   0  0  0  0  0  0  0  0  0  0  0  0
   10.9128  -17.6849   13.4235 C   0  0  0  0  0  0  0  0  0  0  0  0
   10.8760  -18.5837   12.4754 N   0  0  0  0  0  0  0  0  0  0  0  0
   10.3044  -17.9179   14.6643 N   0  0  0  0  0  0  0  0  0  0  0  0
   10.3171  -16.9635   15.7402 C   0  0  0  0  0  0  0  0  0  0  0  0
   11.5079  -17.1764   16.6482 C   0  0  0  0  0  0  0  0  0  0  0  0
   11.5720  -16.2204   17.7856 C   0  0  0  0  0  0  0  0  0  0  0  0
   11.5028  -16.8240   19.1486 C   0  0  2  0  0  0  0  0  0  0  0  0
   10.5919  -17.9311   19.2415 N   0  0  0  0  0  0  0  0  0  0  0  0
   11.0586  -15.7550   20.0954 C   0  0  0  0  0  0  0  0  0  0  0  0
   11.6575  -14.6548   20.1806 O   0  0  0  0  0  0  0  0  0  0  0  0
   10.4420  -19.5249   12.6539 N   0  0  0  0  0  0  0  0  0  0  0  0
    9.9414  -15.9900   20.9101 C   0  0  1  0  0  0  0  0  0  0  0  0
    9.3948  -15.1126   21.9148 C   0  0  0  0  0  0  0  0  0  0  0  0
    8.0058  -14.7437   21.5908 C   0  0  0  0  0  0  0  0  0  0  0  0
    7.8093  -14.1101   20.2641 C   0  0  0  0  0  0  0  0  0  0  0  0
    7.9991  -12.7358   20.0843 N   0  0  0  0  0  0  0  0  0  0  0  0
    7.7582  -12.4433   18.8070 C   0  0  0  0  0  0  0  0  0  0  0  0
    7.4314  -13.5954   18.2116 N   0  0  0  0  0  0  0  0  0  0  0  0
    7.4559  -14.6131   19.0755 C   0  0  0  0  0  0  0  0  0  0  0  0
    9.4861  -15.7172   23.2720 O   0  0  0  0  0  0  0  0  0  0  0  0
    8.5775  -16.4962   23.7288 N   0  0  0  0  0  0  0  0  0  0  0  0
   10.5717  -15.4789   24.1482 C   0  0  2  0  0  0  0  0  0  0  0  0
   10.5347  -15.8231   25.5467 C   0  0  0  0  0  0  0  0  0  0  0  0
    9.4174  -15.1541   26.3105 C   0  0  0  0  0  0  0  0  0  0  0  0
    9.3328  -15.7245   27.7149 C   0  0  0  0  0  0  0  0  0  0  0  0
    9.3315  -14.5950   28.7025 C   0  0  0  0  0  0  0  0  0  0  0  0
    9.2847  -15.0757   30.1318 N   0  0  0  0  0  0  0  0  0  0  0  0
    9.2219  -14.0158   31.0953 C   0  0  0  0  0  0  0  0  0  0  0  0
   10.3805  -17.3212   25.6841 O   0  0  0  0  0  0  0  0  0  0  0  0
    9.3206  -17.8514   25.2820 O   0  0  0  0  0  0  0  0  0  0  0  0
  1  2  1  0
  2  3  2  0
  4  2  1  0
  4  5  1  0
  5  6  1  0
  6  7  1  0
  7  8  1  0
  8 10  1  0
  8  9  1  6
 10 11  2  0
 10 12  1  0
 12 13  1  0
 13 20  1  0
 13 14  1  6
 15 14  1  0
 16 15  2  0
 17 18  1  0
 17 16  1  0
 18 19  2  0
 19 15  1  0
 20 21  2  0
 20 22  1  0
 22 23  1  0
 23 29  1  0
 23 24  1  6
 25 24  1  0
 25 26  1  0
 27 26  1  0
 27 28  1  0
 29 31  1  0
 30 29  2  0
M  END
$$$$
