RHK.pdb
     RDKit          3D

 31 31  0  0  1  0  0  0  0  0999 V2000
    8.7573  -13.2179   20.6791 N   0  0  0  0  0  0  0  0  0  0  0  0
    8.2086  -13.3490   19.3556 C   0  0  0  0  0  0  0  0  0  0  0  0
    8.1015  -12.2633   18.6358 N   0  0  0  0  0  0  0  0  0  0  0  0
    7.7985  -14.5918   18.8544 N   0  0  0  0  0  0  0  0  0  0  0  0
    8.1076  -15.8415   19.4956 C   0  0  0  0  0  0  0  0  0  0  0  0
    9.5548  -16.2253   19.2804 C   0  0  0  0  0  0  0  0  0  0  0  0
   10.3518  -16.2832   20.5346 C   0  0  0  0  0  0  0  0  0  0  0  0
   10.1174  -17.4756   21.4009 C   0  0  2  0  0  0  0  0  0  0  0  0
    8.8321  -18.0861   21.2031 N   0  0  0  0  0  0  0  0  0  0  0  0
   10.2241  -17.0295   22.8242 C   0  0  0  0  0  0  0  0  0  0  0  0
   11.1725  -16.3102   23.2237 O   0  0  0  0  0  0  0  0  0  0  0  0
    7.5898  -12.2847   17.7173 N   0  0  0  0  0  0  0  0  0  0  0  0
    9.2360  -17.4266   23.7369 C   0  0  1  0  0  0  0  0  0  0  0  0
    9.1463  -17.0765   25.1323 C   0  0  0  0  0  0  0  0  0  0  0  0
    7.7827  -16.6387   25.4777 C   0  0  0  0  0  0  0  0  0  0  0  0
    7.4551  -15.2372   25.1190 C   0  0  0  0  0  0  0  0  0  0  0  0
    8.4404  -14.3620   24.6499 N   0  0  0  0  0  0  0  0  0  0  0  0
    7.8714  -13.1821   24.4069 C   0  0  0  0  0  0  0  0  0  0  0  0
    6.5765  -13.3180   24.7123 N   0  0  0  0  0  0  0  0  0  0  0  0
    6.3060  -14.5518   25.1450 C   0  0  0  0  0  0  0  0  0  0  0  0
    9.5852  -18.2006   26.0038 O   0  0  0  0  0  0  0  0  0  0  0  0
    9.1302  -19.3891   25.8565 N   0  0  0  0  0  0  0  0  0  0  0  0
   10.5272  -18.0414   27.0479 C   0  0  1  0  0  0  0  0  0  0  0  0
   10.9031  -19.1171   27.9295 C   0  0  0  0  0  0  0  0  0  0  0  0
   12.1340  -18.8281   28.7546 C   0  0  0  0  0  0  0  0  0  0  0  0
   12.4396  -20.0054   29.6631 C   0  0  0  0  0  0  0  0  0  0  0  0
   13.6539  -19.6870   30.4849 C   0  0  0  0  0  0  0  0  0  0  0  0
   14.1024  -20.8527   31.3311 N   0  0  0  0  0  0  0  0  0  0  0  0
   15.2900  -20.5912   32.0907 C   0  0  0  0  0  0  0  0  0  0  0  0
    9.7545  -19.4127   28.8678 O   0  0  0  0  0  0  0  0  0  0  0  0
    9.0057  -18.4702   29.2099 O   0  0  0  0  0  0  0  0  0  0  0  0
  1  2  1  0
  2  3  2  0
  4  2  1  0
  4  5  1  0
  5  6  1  0
  6  7  1  0
  7  8  1  0
  8 10  1  0
  8  9  1  1
 10 11  2  0
 10 12  1  0
 12 13  1  0
 13 20  1  0
 13 14  1  1
 15 14  1  0
 16 15  2  0
 17 18  1  0
 17 16  1  0
 18 19  2  0
 19 15  1  0
 20 21  2  0
 20 22  1  0
 22 23  1  0
 23 29  1  0
 23 24  1  1
 25 24  1  0
 25 26  1  0
 27 26  1  0
 27 28  1  0
 29 31  1  0
 30 29  2  0
M  END
$$$$
