RHK.pdb
     RDKit          3D

 31 31  0  0  1  0  0  0  0  0999 V2000
    7.9517  -12.9391   17.8487 N   0  0  0  0  0  0  0  0  0  0  0  0
    8.0555  -13.6933   16.6278 C   0  0  0  0  0  0  0  0  0  0  0  0
    7.7108  -13.0960   15.5177 N   0  0  0  0  0  0  0  0  0  0  0  0
    8.5043  -15.0209   16.6250 N   0  0  0  0  0  0  0  0  0  0  0  0
    8.3077  -15.9220   17.7286 C   0  0  0  0  0  0  0  0  0  0  0  0
    9.3795  -15.7428   18.7808 C   0  0  0  0  0  0  0  0  0  0  0  0
    9.9193  -17.0235   19.3098 C   0  0  0  0  0  0  0  0  0  0  0  0
   10.9264  -16.9033   20.4046 C   0  0  2  0  0  0  0  0  0  0  0  0
   12.2481  -17.3120   20.0173 N   0  0  0  0  0  0  0  0  0  0  0  0
   10.4689  -17.7655   21.5375 C   0  0  0  0  0  0  0  0  0  0  0  0
    9.3274  -17.6415   22.0455 O   0  0  0  0  0  0  0  0  0  0  0  0
    7.8415  -13.5795   14.5929 N   0  0  0  0  0  0  0  0  0  0  0  0
   11.3409  -18.7395   22.0455 C   0  0  1  0  0  0  0  0  0  0  0  0
   11.1305  -19.5845   23.1942 C   0  0  0  0  0  0  0  0  0  0  0  0
   11.9646  -20.7963   23.1149 C   0  0  0  0  0  0  0  0  0  0  0  0
   11.7643  -21.7785   24.2082 C   0  0  0  0  0  0  0  0  0  0  0  0
   10.7956  -21.5727   25.1962 N   0  0  0  0  0  0  0  0  0  0  0  0
   10.8336  -22.6022   26.0411 C   0  0  0  0  0  0  0  0  0  0  0  0
   11.7914  -23.4215   25.5941 N   0  0  0  0  0  0  0  0  0  0  0  0
   12.3655  -22.9407   24.4887 C   0  0  0  0  0  0  0  0  0  0  0  0
   11.3762  -18.8469   24.4636 O   0  0  0  0  0  0  0  0  0  0  0  0
   11.3439  -19.4310   25.6034 N   0  0  0  0  0  0  0  0  0  0  0  0
   11.6607  -17.4612   24.5048 C   0  0  2  0  0  0  0  0  0  0  0  0
   11.6796  -16.7053   25.7311 C   0  0  0  0  0  0  0  0  0  0  0  0
   10.4524  -15.8513   25.9406 C   0  0  0  0  0  0  0  0  0  0  0  0
   10.5123  -15.1787   27.3004 C   0  0  0  0  0  0  0  0  0  0  0  0
    9.2770  -14.3486   27.4906 C   0  0  0  0  0  0  0  0  0  0  0  0
    9.2540  -13.6418   28.8233 N   0  0  0  0  0  0  0  0  0  0  0  0
    8.0632  -12.8761   29.0498 C   0  0  0  0  0  0  0  0  0  0  0  0
   11.8063  -17.6584   26.8984 O   0  0  0  0  0  0  0  0  0  0  0  0
   10.9943  -18.6067   26.9853 O   0  0  0  0  0  0  0  0  0  0  0  0
  1  2  1  0
  2  3  2  0
  4  2  1  0
  4  5  1  0
  5  6  1  0
  6  7  1  0
  7  8  1  0
  8 10  1  0
  8  9  1  6
 10 11  2  0
 10 12  1  0
 12 13  1  0
 13 20  1  0
 13 14  1  1
 15 14  1  0
 16 15  2  0
 17 18  1  0
 17 16  1  0
 18 19  2  0
 19 15  1  0
 20 21  2  0
 20 22  1  0
 22 23  1  0
 23 29  1  0
 23 24  1  6
 25 24  1  0
 25 26  1  0
 27 26  1  0
 27 28  1  0
 29 31  1  0
 30 29  2  0
M  END
$$$$
