RHK.pdb
     RDKit          3D

 31 31  0  0  1  0  0  0  0  0999 V2000
    8.0882  -13.3947   17.5748 N   0  0  0  0  0  0  0  0  0  0  0  0
    7.7567  -12.8870   18.8795 C   0  0  0  0  0  0  0  0  0  0  0  0
    7.7957  -11.5920   19.0516 N   0  0  0  0  0  0  0  0  0  0  0  0
    7.4093  -13.7457   19.9311 N   0  0  0  0  0  0  0  0  0  0  0  0
    8.3244  -14.1266   20.9732 C   0  0  0  0  0  0  0  0  0  0  0  0
    7.7294  -15.1964   21.8617 C   0  0  0  0  0  0  0  0  0  0  0  0
    7.4379  -16.4704   21.1520 C   0  0  0  0  0  0  0  0  0  0  0  0
    8.5618  -17.0439   20.3551 C   0  0  2  0  0  0  0  0  0  0  0  0
    8.2041  -18.2301   19.6279 N   0  0  0  0  0  0  0  0  0  0  0  0
    9.6671  -17.3774   21.3055 C   0  0  0  0  0  0  0  0  0  0  0  0
    9.6360  -18.4075   22.0227 O   0  0  0  0  0  0  0  0  0  0  0  0
    7.6102  -11.1775   20.0002 N   0  0  0  0  0  0  0  0  0  0  0  0
   10.7686  -16.5140   21.3968 C   0  0  2  0  0  0  0  0  0  0  0  0
   11.9243  -16.6615   22.2457 C   0  0  0  0  0  0  0  0  0  0  0  0
   12.7993  -15.4800   22.1520 C   0  0  0  0  0  0  0  0  0  0  0  0
   13.4806  -15.2954   20.8474 C   0  0  0  0  0  0  0  0  0  0  0  0
   13.4585  -16.2981   19.8723 N   0  0  0  0  0  0  0  0  0  0  0  0
   14.1412  -15.8669   18.8125 C   0  0  0  0  0  0  0  0  0  0  0  0
   14.5720  -14.6378   19.1163 N   0  0  0  0  0  0  0  0  0  0  0  0
   14.1838  -14.2755   20.3413 C   0  0  0  0  0  0  0  0  0  0  0  0
   11.5316  -16.9272   23.6567 O   0  0  0  0  0  0  0  0  0  0  0  0
   10.9111  -16.0563   24.3623 N   0  0  0  0  0  0  0  0  0  0  0  0
   11.8114  -18.1480   24.3157 C   0  0  1  0  0  0  0  0  0  0  0  0
   11.4895  -18.3776   25.7010 C   0  0  0  0  0  0  0  0  0  0  0  0
   11.5501  -19.8299   26.1090 C   0  0  0  0  0  0  0  0  0  0  0  0
   10.9250  -20.6993   25.0328 C   0  0  0  0  0  0  0  0  0  0  0  0
   11.1732  -22.1417   25.3635 C   0  0  0  0  0  0  0  0  0  0  0  0
   10.5468  -23.0812   24.3629 N   0  0  0  0  0  0  0  0  0  0  0  0
   10.8994  -24.4564   24.5634 C   0  0  0  0  0  0  0  0  0  0  0  0
   12.4492  -17.5946   26.5688 O   0  0  0  0  0  0  0  0  0  0  0  0
   12.0663  -17.2299   27.7031 O   0  0  0  0  0  0  0  0  0  0  0  0
  1  2  1  0
  2  3  2  0
  4  2  1  0
  4  5  1  0
  5  6  1  0
  6  7  1  0
  7  8  1  0
  8 10  1  0
  8  9  1  1
 10 11  2  0
 10 12  1  0
 12 13  1  0
 13 20  1  0
 13 14  1  6
 15 14  1  0
 16 15  2  0
 17 18  1  0
 17 16  1  0
 18 19  2  0
 19 15  1  0
 20 21  2  0
 20 22  1  0
 22 23  1  0
 23 29  1  0
 23 24  1  1
 25 24  1  0
 25 26  1  0
 27 26  1  0
 27 28  1  0
 29 31  1  0
 30 29  2  0
M  END
$$$$
