RHK.pdb
     RDKit          3D

 31 31  0  0  1  0  0  0  0  0999 V2000
    8.4976  -11.3698   19.8034 N   0  0  0  0  0  0  0  0  0  0  0  0
    8.0844  -12.7353   19.9897 C   0  0  0  0  0  0  0  0  0  0  0  0
    7.8060  -13.1215   21.2068 N   0  0  0  0  0  0  0  0  0  0  0  0
    7.9875  -13.6232   18.9097 N   0  0  0  0  0  0  0  0  0  0  0  0
    7.4899  -14.9667   19.0357 C   0  0  0  0  0  0  0  0  0  0  0  0
    8.4977  -15.8630   19.7204 C   0  0  0  0  0  0  0  0  0  0  0  0
    9.5615  -16.3701   18.8134 C   0  0  0  0  0  0  0  0  0  0  0  0
    9.8169  -17.8395   18.8663 C   0  0  2  0  0  0  0  0  0  0  0  0
    8.6911  -18.6337   18.4595 N   0  0  0  0  0  0  0  0  0  0  0  0
   10.1663  -18.1879   20.2780 C   0  0  0  0  0  0  0  0  0  0  0  0
    9.2842  -18.4018   21.1454 O   0  0  0  0  0  0  0  0  0  0  0  0
    7.5099  -14.1132   21.3936 N   0  0  0  0  0  0  0  0  0  0  0  0
   11.5181  -18.2780   20.6411 C   0  0  1  0  0  0  0  0  0  0  0  0
   12.0527  -18.5519   21.9515 C   0  0  0  0  0  0  0  0  0  0  0  0
   13.3866  -19.1700   21.8562 C   0  0  0  0  0  0  0  0  0  0  0  0
   13.4071  -20.6515   21.9247 C   0  0  0  0  0  0  0  0  0  0  0  0
   12.2256  -21.3843   22.0800 N   0  0  0  0  0  0  0  0  0  0  0  0
   12.5367  -22.6795   22.1085 C   0  0  0  0  0  0  0  0  0  0  0  0
   13.8653  -22.7511   21.9741 N   0  0  0  0  0  0  0  0  0  0  0  0
   14.4088  -21.5367   21.8626 C   0  0  0  0  0  0  0  0  0  0  0  0
   12.0900  -17.3231   22.7908 O   0  0  0  0  0  0  0  0  0  0  0  0
   12.4361  -16.1864   22.3120 N   0  0  0  0  0  0  0  0  0  0  0  0
   11.7495  -17.3198   24.1645 C   0  0  1  0  0  0  0  0  0  0  0  0
   11.8674  -16.1478   24.9940 C   0  0  0  0  0  0  0  0  0  0  0  0
   11.1542  -16.2641   26.3195 C   0  0  0  0  0  0  0  0  0  0  0  0
   11.4116  -15.0257   27.1593 C   0  0  0  0  0  0  0  0  0  0  0  0
   10.7121  -15.1750   28.4784 C   0  0  0  0  0  0  0  0  0  0  0  0
   10.8888  -13.9688   29.3671 N   0  0  0  0  0  0  0  0  0  0  0  0
   10.2669  -14.1027   30.6521 C   0  0  0  0  0  0  0  0  0  0  0  0
   13.3309  -15.8736   25.2586 O   0  0  0  0  0  0  0  0  0  0  0  0
   14.0777  -16.8381   25.5380 O   0  0  0  0  0  0  0  0  0  0  0  0
  1  2  1  0
  2  3  2  0
  4  2  1  0
  4  5  1  0
  5  6  1  0
  6  7  1  0
  7  8  1  0
  8 10  1  0
  8  9  1  1
 10 11  2  0
 10 12  1  0
 12 13  1  0
 13 20  1  0
 13 14  1  1
 15 14  1  0
 16 15  2  0
 17 18  1  0
 17 16  1  0
 18 19  2  0
 19 15  1  0
 20 21  2  0
 20 22  1  0
 22 23  1  0
 23 29  1  0
 23 24  1  1
 25 24  1  0
 25 26  1  0
 27 26  1  0
 27 28  1  0
 29 31  1  0
 30 29  2  0
M  END
$$$$
