RHK.pdb
     RDKit          3D

 31 31  0  0  1  0  0  0  0  0999 V2000
    7.5904  -12.7420   17.3968 N   0  0  0  0  0  0  0  0  0  0  0  0
    8.2098  -12.6815   18.6940 C   0  0  0  0  0  0  0  0  0  0  0  0
    9.0524  -11.7075   18.9162 N   0  0  0  0  0  0  0  0  0  0  0  0
    7.9269  -13.6323   19.6839 N   0  0  0  0  0  0  0  0  0  0  0  0
    7.3037  -14.8984   19.4060 C   0  0  0  0  0  0  0  0  0  0  0  0
    6.3391  -15.2877   20.5041 C   0  0  0  0  0  0  0  0  0  0  0  0
    6.9381  -16.1668   21.5433 C   0  0  0  0  0  0  0  0  0  0  0  0
    7.9200  -17.1785   21.0539 C   0  0  2  0  0  0  0  0  0  0  0  0
    7.3383  -18.4666   20.7968 N   0  0  0  0  0  0  0  0  0  0  0  0
    8.9765  -17.3282   22.1016 C   0  0  0  0  0  0  0  0  0  0  0  0
    8.9770  -18.2894   22.9094 O   0  0  0  0  0  0  0  0  0  0  0  0
    9.5834  -11.6624   19.8229 N   0  0  0  0  0  0  0  0  0  0  0  0
    9.9946  -16.3670   22.1823 C   0  0  2  0  0  0  0  0  0  0  0  0
   11.1295  -16.3712   23.0712 C   0  0  0  0  0  0  0  0  0  0  0  0
   12.0181  -15.2292   22.7943 C   0  0  0  0  0  0  0  0  0  0  0  0
   12.6697  -15.2393   21.4618 C   0  0  0  0  0  0  0  0  0  0  0  0
   12.5289  -16.3295   20.5967 N   0  0  0  0  0  0  0  0  0  0  0  0
   13.2113  -16.0706   19.4820 C   0  0  0  0  0  0  0  0  0  0  0  0
   13.7566  -14.8606   19.6464 N   0  0  0  0  0  0  0  0  0  0  0  0
   13.4416  -14.3430   20.8361 C   0  0  0  0  0  0  0  0  0  0  0  0
   10.7027  -16.3848   24.4971 O   0  0  0  0  0  0  0  0  0  0  0  0
   10.2366  -15.3404   25.0745 N   0  0  0  0  0  0  0  0  0  0  0  0
   10.7791  -17.5398   25.3115 C   0  0  1  0  0  0  0  0  0  0  0  0
   10.3006  -17.5688   26.6701 C   0  0  0  0  0  0  0  0  0  0  0  0
    9.2560  -18.6281   26.9267 C   0  0  0  0  0  0  0  0  0  0  0  0
    9.7279  -19.9661   26.3863 C   0  0  0  0  0  0  0  0  0  0  0  0
    8.6402  -20.9819   26.5768 C   0  0  0  0  0  0  0  0  0  0  0  0
    8.9930  -22.3253   25.9877 N   0  0  0  0  0  0  0  0  0  0  0  0
    7.9733  -23.3179   26.1630 C   0  0  0  0  0  0  0  0  0  0  0  0
   11.4678  -17.8098   27.6011 O   0  0  0  0  0  0  0  0  0  0  0  0
   11.2577  -17.8052   28.8348 O   0  0  0  0  0  0  0  0  0  0  0  0
  1  2  1  0
  2  3  2  0
  4  2  1  0
  4  5  1  0
  5  6  1  0
  6  7  1  0
  7  8  1  0
  8 10  1  0
  8  9  1  1
 10 11  2  0
 10 12  1  0
 12 13  1  0
 13 20  1  0
 13 14  1  6
 15 14  1  0
 16 15  2  0
 17 18  1  0
 17 16  1  0
 18 19  2  0
 19 15  1  0
 20 21  2  0
 20 22  1  0
 22 23  1  0
 23 29  1  0
 23 24  1  1
 25 24  1  0
 25 26  1  0
 27 26  1  0
 27 28  1  0
 29 31  1  0
 30 29  2  0
M  END
$$$$
