RHK.pdb
     RDKit          3D

 31 31  0  0  1  0  0  0  0  0999 V2000
   21.5154  -19.8734   17.0770 N   0  0  0  0  0  0  0  0  0  0  0  0
   21.1860  -19.3475   15.7789 C   0  0  0  0  0  0  0  0  0  0  0  0
   22.1062  -18.6613   15.1539 N   0  0  0  0  0  0  0  0  0  0  0  0
   19.9251  -19.5567   15.2043 N   0  0  0  0  0  0  0  0  0  0  0  0
   18.8310  -20.1721   15.9062 C   0  0  0  0  0  0  0  0  0  0  0  0
   17.6243  -19.2611   15.9480 C   0  0  0  0  0  0  0  0  0  0  0  0
   16.4583  -19.8443   16.6636 C   0  0  0  0  0  0  0  0  0  0  0  0
   15.2149  -19.0191   16.6638 C   0  0  2  0  0  0  0  0  0  0  0  0
   15.2041  -17.9952   15.6562 N   0  0  0  0  0  0  0  0  0  0  0  0
   15.1005  -18.3727   18.0075 C   0  0  0  0  0  0  0  0  0  0  0  0
   15.6924  -17.2993   18.2789 O   0  0  0  0  0  0  0  0  0  0  0  0
   21.9074  -18.2466   14.2082 N   0  0  0  0  0  0  0  0  0  0  0  0
   14.3090  -18.9843   18.9907 C   0  0  2  0  0  0  0  0  0  0  0  0
   14.0307  -18.4923   20.3168 C   0  0  0  0  0  0  0  0  0  0  0  0
   12.9440  -19.2629   20.9459 C   0  0  0  0  0  0  0  0  0  0  0  0
   12.5278  -18.7938   22.2901 C   0  0  0  0  0  0  0  0  0  0  0  0
   12.0901  -17.4809   22.4939 N   0  0  0  0  0  0  0  0  0  0  0  0
   11.7820  -17.3373   23.7822 C   0  0  0  0  0  0  0  0  0  0  0  0
   12.0179  -18.5200   24.3602 N   0  0  0  0  0  0  0  0  0  0  0  0
   12.4696  -19.4120   23.4755 C   0  0  0  0  0  0  0  0  0  0  0  0
   15.2532  -18.4981   21.1661 O   0  0  0  0  0  0  0  0  0  0  0  0
   16.0693  -19.4856   21.1714 N   0  0  0  0  0  0  0  0  0  0  0  0
   15.6004  -17.4249   22.0209 C   0  0  1  0  0  0  0  0  0  0  0  0
   16.7900  -17.4292   22.8336 C   0  0  0  0  0  0  0  0  0  0  0  0
   17.7331  -16.2872   22.5410 C   0  0  0  0  0  0  0  0  0  0  0  0
   18.9643  -16.3899   23.4234 C   0  0  0  0  0  0  0  0  0  0  0  0
   19.8738  -15.2329   23.1309 C   0  0  0  0  0  0  0  0  0  0  0  0
   21.1193  -15.2461   23.9822 N   0  0  0  0  0  0  0  0  0  0  0  0
   22.0198  -14.1657   23.7039 C   0  0  0  0  0  0  0  0  0  0  0  0
   16.3939  -17.3632   24.2917 O   0  0  0  0  0  0  0  0  0  0  0  0
   15.4338  -16.6292   24.6165 O   0  0  0  0  0  0  0  0  0  0  0  0
  1  2  1  0
  2  3  2  0
  4  2  1  0
  4  5  1  0
  5  6  1  0
  6  7  1  0
  7  8  1  0
  8 10  1  0
  8  9  1  6
 10 11  2  0
 10 12  1  0
 12 13  1  0
 13 20  1  0
 13 14  1  6
 15 14  1  0
 16 15  2  0
 17 18  1  0
 17 16  1  0
 18 19  2  0
 19 15  1  0
 20 21  2  0
 20 22  1  0
 22 23  1  0
 23 29  1  0
 23 24  1  1
 25 24  1  0
 25 26  1  0
 27 26  1  0
 27 28  1  0
 29 31  1  0
 30 29  2  0
M  END
$$$$
