RRV.pdb
     RDKit          3D

 30 29  0  0  1  0  0  0  0  0999 V2000
   29.7272  -26.3061  -18.2490 N   0  0  0  0  0  0  0  0  0  0  0  0
   28.8581  -26.7833  -17.2300 C   0  0  0  0  0  0  0  0  0  0  0  0
   28.8865  -28.0306  -16.8948 N   0  0  0  0  0  0  0  0  0  0  0  0
   27.9737  -25.8873  -16.5964 N   0  0  0  0  0  0  0  0  0  0  0  0
   27.7862  -24.5450  -17.0992 C   0  0  0  0  0  0  0  0  0  0  0  0
   28.9026  -23.6568  -16.6505 C   0  0  0  0  0  0  0  0  0  0  0  0
   28.4719  -22.7027  -15.5669 C   0  0  0  0  0  0  0  0  0  0  0  0
   27.7100  -21.5333  -16.1547 C   0  0  2  0  0  0  0  0  0  0  0  0
   28.5852  -20.6254  -16.8478 N   0  0  0  0  0  0  0  0  0  0  0  0
   26.9045  -20.8396  -15.1060 C   0  0  0  0  0  0  0  0  0  0  0  0
   27.5243  -20.0277  -14.3910 O   0  0  0  0  0  0  0  0  0  0  0  0
   28.2724  -28.4018  -16.1384 N   0  0  0  0  0  0  0  0  0  0  0  0
   19.7796  -21.4928  -14.7983 C   0  0  0  0  0  0  0  0  0  0  0  0
   19.8052  -20.2101  -14.1943 N   0  0  0  0  0  0  0  0  0  0  0  0
   18.9731  -19.9402  -13.2258 N   0  0  0  0  0  0  0  0  0  0  0  0
   20.7311  -19.2264  -14.6418 C   0  0  0  0  0  0  0  0  0  0  0  0
   21.5502  -19.5405  -15.7665 C   0  0  0  0  0  0  0  0  0  0  0  0
   23.0102  -19.6880  -15.4207 C   0  0  0  0  0  0  0  0  0  0  0  0
   23.2522  -20.4878  -14.1908 C   0  0  2  0  0  0  0  0  0  0  0  0
   24.7081  -20.5358  -13.8856 N   0  0  0  0  0  0  0  0  0  0  0  0
   25.5359  -21.0727  -14.9209 C   0  0  0  0  0  0  0  0  0  0  0  0
   25.0567  -21.0664  -12.5523 O   0  0  0  0  0  0  0  0  0  0  0  0
   25.1362  -22.2901  -12.3614 C   0  0  0  0  0  0  0  0  0  0  0  0
   18.9690  -19.0140  -12.7883 C   0  0  1  0  0  0  0  0  0  0  0  0
   26.5570  -20.6426   -7.9343 C   0  0  0  0  0  0  0  0  0  0  0  0
   26.3953  -19.9923   -9.2803 C   0  0  2  0  0  0  0  0  0  0  0  0
   25.8587  -18.5741   -9.1193 N   0  0  0  0  0  0  0  0  0  0  0  0
   25.4212  -20.7774  -10.0979 C   0  0  0  0  0  0  0  0  0  0  0  0
   25.3153  -20.2157  -11.4349 O   0  0  0  0  0  0  0  0  0  0  0  0
   24.0830  -20.8389   -9.4376 O   0  0  0  0  0  0  0  0  0  0  0  0
  2  1  1  0
  2  3  2  0
  4  2  1  0
  5  4  1  0
  6  5  1  0
  7  6  1  0
  8  7  1  0
  8  9  1  1
 10  8  1  0
 10 11  2  0
 13 12  1  0
 13 14  2  0
 15 13  1  0
 16 15  1  0
 17 16  1  0
 19 18  1  6
 18 17  1  0
 19 20  1  0
 20 10  1  0
 21 19  1  0
 22 21  2  0
 24 23  1  1
 24 26  1  0
 25 24  1  0
 26 28  1  0
 26 27  1  6
 27 21  1  0
 28 30  1  0
 29 28  2  0
M  END
$$$$
