RRV.pdb
     RDKit          3D

 30 29  0  0  1  0  0  0  0  0999 V2000
   18.6641  -23.6070  -13.2439 N   0  0  0  0  0  0  0  0  0  0  0  0
   18.4616  -22.4747  -12.4083 C   0  0  0  0  0  0  0  0  0  0  0  0
   17.4047  -22.4038  -11.6688 N   0  0  0  0  0  0  0  0  0  0  0  0
   19.4190  -21.4405  -12.3970 N   0  0  0  0  0  0  0  0  0  0  0  0
   20.5255  -21.4394  -13.3273 C   0  0  0  0  0  0  0  0  0  0  0  0
   20.0532  -21.0887  -14.7024 C   0  0  0  0  0  0  0  0  0  0  0  0
   21.0319  -20.2072  -15.4338 C   0  0  0  0  0  0  0  0  0  0  0  0
   21.3712  -18.9836  -14.6085 C   0  0  2  0  0  0  0  0  0  0  0  0
   20.2245  -18.1340  -14.4246 N   0  0  0  0  0  0  0  0  0  0  0  0
   22.5243  -18.2428  -15.2012 C   0  0  0  0  0  0  0  0  0  0  0  0
   22.2343  -17.2508  -15.8986 O   0  0  0  0  0  0  0  0  0  0  0  0
   16.6909  -23.1637  -11.6708 N   0  0  0  0  0  0  0  0  0  0  0  0
   27.7993  -21.6520  -11.6196 C   0  0  0  0  0  0  0  0  0  0  0  0
   26.6051  -21.7208  -12.3810 N   0  0  0  0  0  0  0  0  0  0  0  0
   25.9958  -22.8670  -12.5167 N   0  0  0  0  0  0  0  0  0  0  0  0
   26.0766  -20.5489  -12.9916 C   0  0  0  0  0  0  0  0  0  0  0  0
   26.6405  -19.2909  -12.6254 C   0  0  0  0  0  0  0  0  0  0  0  0
   26.0882  -18.1342  -13.4191 C   0  0  0  0  0  0  0  0  0  0  0  0
   26.2962  -18.2657  -14.8854 C   0  0  2  0  0  0  0  0  0  0  0  0
   25.0145  -18.0467  -15.6094 N   0  0  0  0  0  0  0  0  0  0  0  0
   23.8570  -18.6229  -14.9982 C   0  0  0  0  0  0  0  0  0  0  0  0
   25.0625  -18.2873  -17.0655 O   0  0  0  0  0  0  0  0  0  0  0  0
   24.8262  -19.4150  -17.5266 C   0  0  0  0  0  0  0  0  0  0  0  0
   25.1196  -22.9296  -13.0438 C   0  0  1  0  0  0  0  0  0  0  0  0
   25.9416  -15.1934  -19.8631 C   0  0  0  0  0  0  0  0  0  0  0  0
   24.9330  -16.2669  -20.1652 C   0  0  2  0  0  0  0  0  0  0  0  0
   23.5449  -15.8285  -19.7113 N   0  0  0  0  0  0  0  0  0  0  0  0
   25.2998  -17.5149  -19.4294 C   0  0  0  0  0  0  0  0  0  0  0  0
   25.3772  -17.2551  -18.0008 O   0  0  0  0  0  0  0  0  0  0  0  0
   26.5819  -18.0883  -19.9375 O   0  0  0  0  0  0  0  0  0  0  0  0
  2  1  1  0
  2  3  2  0
  4  2  1  0
  5  4  1  0
  6  5  1  0
  7  6  1  0
  8  7  1  0
  8  9  1  6
 10  8  1  0
 10 11  2  0
 13 12  1  0
 13 14  2  0
 15 13  1  0
 16 15  1  0
 17 16  1  0
 19 18  1  1
 18 17  1  0
 19 20  1  0
 20 10  1  0
 21 19  1  0
 22 21  2  0
 24 23  1  1
 24 26  1  0
 25 24  1  0
 26 28  1  0
 26 27  1  6
 27 21  1  0
 28 30  1  0
 29 28  2  0
M  END
$$$$
