RRV.pdb
     RDKit          3D

 30 29  0  0  1  0  0  0  0  0999 V2000
   25.9164  -28.0509  -19.7223 N   0  0  0  0  0  0  0  0  0  0  0  0
   24.6069  -27.6110  -20.0586 C   0  0  0  0  0  0  0  0  0  0  0  0
   23.8441  -28.3614  -20.7824 N   0  0  0  0  0  0  0  0  0  0  0  0
   24.1558  -26.3581  -19.5971 N   0  0  0  0  0  0  0  0  0  0  0  0
   24.9999  -25.5181  -18.7775 C   0  0  0  0  0  0  0  0  0  0  0  0
   25.0881  -26.0619  -17.3872 C   0  0  0  0  0  0  0  0  0  0  0  0
   25.1120  -24.9708  -16.3486 C   0  0  0  0  0  0  0  0  0  0  0  0
   26.3574  -24.1212  -16.4926 C   0  0  2  0  0  0  0  0  0  0  0  0
   27.5433  -24.9310  -16.5842 N   0  0  0  0  0  0  0  0  0  0  0  0
   26.4506  -23.1190  -15.3895 C   0  0  0  0  0  0  0  0  0  0  0  0
   26.7547  -23.5702  -14.2677 O   0  0  0  0  0  0  0  0  0  0  0  0
   22.8924  -28.0480  -21.0703 N   0  0  0  0  0  0  0  0  0  0  0  0
   28.6066  -18.7220  -18.6052 C   0  0  0  0  0  0  0  0  0  0  0  0
   27.3454  -18.0740  -18.6243 N   0  0  0  0  0  0  0  0  0  0  0  0
   26.6433  -18.0686  -19.7244 N   0  0  0  0  0  0  0  0  0  0  0  0
   26.8508  -17.4354  -17.4526 C   0  0  0  0  0  0  0  0  0  0  0  0
   27.5799  -17.6063  -16.2385 C   0  0  0  0  0  0  0  0  0  0  0  0
   27.5036  -19.0074  -15.6872 C   0  0  0  0  0  0  0  0  0  0  0  0
   26.1873  -19.3363  -15.0790 C   0  0  2  0  0  0  0  0  0  0  0  0
   26.1878  -20.7369  -14.5757 N   0  0  0  0  0  0  0  0  0  0  0  0
   26.2147  -21.7521  -15.5828 C   0  0  0  0  0  0  0  0  0  0  0  0
   25.2073  -21.0254  -13.5099 O   0  0  0  0  0  0  0  0  0  0  0  0
   24.1043  -21.5230  -13.7854 C   0  0  0  0  0  0  0  0  0  0  0  0
   25.7239  -17.6177  -19.7510 C   0  0  1  0  0  0  0  0  0  0  0  0
   25.3121  -19.3253   -9.5728 C   0  0  0  0  0  0  0  0  0  0  0  0
   25.0068  -20.7858   -9.7584 C   0  0  2  0  0  0  0  0  0  0  0  0
   26.2794  -21.6130   -9.6121 N   0  0  0  0  0  0  0  0  0  0  0  0
   24.4525  -21.0076  -11.1286 C   0  0  0  0  0  0  0  0  0  0  0  0
   25.4720  -20.7521  -12.1335 O   0  0  0  0  0  0  0  0  0  0  0  0
   23.2436  -20.1643  -11.3687 O   0  0  0  0  0  0  0  0  0  0  0  0
  2  1  1  0
  2  3  2  0
  4  2  1  0
  5  4  1  0
  6  5  1  0
  7  6  1  0
  8  7  1  0
  8  9  1  1
 10  8  1  0
 10 11  2  0
 13 12  1  0
 13 14  2  0
 15 13  1  0
 16 15  1  0
 17 16  1  0
 19 18  1  1
 18 17  1  0
 19 20  1  0
 20 10  1  0
 21 19  1  0
 22 21  2  0
 24 23  1  1
 24 26  1  0
 25 24  1  0
 26 28  1  0
 26 27  1  6
 27 21  1  0
 28 30  1  0
 29 28  2  0
M  END
$$$$
