RRV.pdb
     RDKit          3D

 30 29  0  0  1  0  0  0  0  0999 V2000
   19.4177  -21.9390  -17.8558 N   0  0  0  0  0  0  0  0  0  0  0  0
   18.6214  -20.8553  -18.3174 C   0  0  0  0  0  0  0  0  0  0  0  0
   17.6318  -21.0812  -19.1166 N   0  0  0  0  0  0  0  0  0  0  0  0
   18.9221  -19.5443  -17.8964 N   0  0  0  0  0  0  0  0  0  0  0  0
   20.1243  -19.2605  -17.1454 C   0  0  0  0  0  0  0  0  0  0  0  0
   21.2537  -20.1178  -17.6210 C   0  0  0  0  0  0  0  0  0  0  0  0
   22.0060  -20.7538  -16.4812 C   0  0  0  0  0  0  0  0  0  0  0  0
   23.0214  -19.7891  -15.9050 C   0  0  2  0  0  0  0  0  0  0  0  0
   23.6484  -19.0028  -16.9342 N   0  0  0  0  0  0  0  0  0  0  0  0
   24.0242  -20.5085  -15.0644 C   0  0  0  0  0  0  0  0  0  0  0  0
   23.5686  -21.1271  -14.0823 O   0  0  0  0  0  0  0  0  0  0  0  0
   17.0730  -20.2992  -19.5205 N   0  0  0  0  0  0  0  0  0  0  0  0
   32.3480  -23.5128  -16.2115 C   0  0  0  0  0  0  0  0  0  0  0  0
   32.1550  -23.4728  -14.8073 N   0  0  0  0  0  0  0  0  0  0  0  0
   33.1535  -23.7504  -14.0142 N   0  0  0  0  0  0  0  0  0  0  0  0
   30.8822  -23.1326  -14.2689 C   0  0  0  0  0  0  0  0  0  0  0  0
   29.9273  -22.5277  -15.1390 C   0  0  0  0  0  0  0  0  0  0  0  0
   28.6416  -22.1518  -14.4471 C   0  0  0  0  0  0  0  0  0  0  0  0
   27.6810  -21.4340  -15.3262 C   0  0  2  0  0  0  0  0  0  0  0  0
   26.4302  -21.1271  -14.5803 N   0  0  0  0  0  0  0  0  0  0  0  0
   25.3964  -20.5011  -15.3450 C   0  0  0  0  0  0  0  0  0  0  0  0
   26.6212  -20.4901  -13.2619 O   0  0  0  0  0  0  0  0  0  0  0  0
   27.0500  -19.3285  -13.1787 C   0  0  0  0  0  0  0  0  0  0  0  0
   33.0096  -23.8156  -13.0020 C   0  0  2  0  0  0  0  0  0  0  0  0
   24.1793  -20.5519  -10.2569 C   0  0  0  0  0  0  0  0  0  0  0  0
   25.5486  -20.9232   -9.7590 C   0  0  1  0  0  0  0  0  0  0  0  0
   25.8428  -20.2088   -8.4444 N   0  0  0  0  0  0  0  0  0  0  0  0
   26.5730  -20.5065  -10.7642 C   0  0  0  0  0  0  0  0  0  0  0  0
   26.3283  -21.1645  -12.0377 O   0  0  0  0  0  0  0  0  0  0  0  0
   27.9570  -20.7853  -10.2771 O   0  0  0  0  0  0  0  0  0  0  0  0
  2  1  1  0
  2  3  2  0
  4  2  1  0
  5  4  1  0
  6  5  1  0
  7  6  1  0
  8  7  1  0
  8  9  1  6
 10  8  1  0
 10 11  2  0
 13 12  1  0
 13 14  2  0
 15 13  1  0
 16 15  1  0
 17 16  1  0
 19 18  1  6
 18 17  1  0
 19 20  1  0
 20 10  1  0
 21 19  1  0
 22 21  2  0
 24 23  1  6
 24 26  1  0
 25 24  1  0
 26 28  1  0
 26 27  1  6
 27 21  1  0
 28 30  1  0
 29 28  2  0
M  END
$$$$
