RRV.pdb
     RDKit          3D

 30 29  0  0  1  0  0  0  0  0999 V2000
   28.4953  -27.8264  -16.3736 N   0  0  0  0  0  0  0  0  0  0  0  0
   27.7955  -27.3724  -17.5249 C   0  0  0  0  0  0  0  0  0  0  0  0
   26.7122  -27.9713  -17.8949 N   0  0  0  0  0  0  0  0  0  0  0  0
   28.2934  -26.2716  -18.2506 N   0  0  0  0  0  0  0  0  0  0  0  0
   28.8672  -25.1308  -17.5730 C   0  0  0  0  0  0  0  0  0  0  0  0
   28.0635  -24.7828  -16.3607 C   0  0  0  0  0  0  0  0  0  0  0  0
   28.4896  -23.4727  -15.7509 C   0  0  0  0  0  0  0  0  0  0  0  0
   28.0156  -22.3090  -16.5962 C   0  0  2  0  0  0  0  0  0  0  0  0
   29.1018  -21.7024  -17.3193 N   0  0  0  0  0  0  0  0  0  0  0  0
   27.2736  -21.3136  -15.7665 C   0  0  0  0  0  0  0  0  0  0  0  0
   27.9532  -20.6874  -14.9294 O   0  0  0  0  0  0  0  0  0  0  0  0
   26.1957  -27.6756  -18.7509 N   0  0  0  0  0  0  0  0  0  0  0  0
   20.2223  -16.5256  -17.3187 C   0  0  0  0  0  0  0  0  0  0  0  0
   20.3649  -17.9363  -17.3362 N   0  0  0  0  0  0  0  0  0  0  0  0
   19.5036  -18.6602  -17.9975 N   0  0  0  0  0  0  0  0  0  0  0  0
   21.4389  -18.5561  -16.6378 C   0  0  0  0  0  0  0  0  0  0  0  0
   22.2284  -17.7460  -15.7688 C   0  0  0  0  0  0  0  0  0  0  0  0
   23.3049  -18.5162  -15.0470 C   0  0  0  0  0  0  0  0  0  0  0  0
   24.1549  -19.3376  -15.9490 C   0  0  1  0  0  0  0  0  0  0  0  0
   25.1058  -20.1605  -15.1529 N   0  0  0  0  0  0  0  0  0  0  0  0
   25.8991  -21.0829  -15.9047 C   0  0  0  0  0  0  0  0  0  0  0  0
   24.5451  -20.7659  -13.9283 O   0  0  0  0  0  0  0  0  0  0  0  0
   23.6317  -21.6031  -13.9998 C   0  0  0  0  0  0  0  0  0  0  0  0
   19.5813  -19.6816  -18.0048 C   0  0  2  0  0  0  0  0  0  0  0  0
   25.0951  -19.1739   -9.9431 C   0  0  0  0  0  0  0  0  0  0  0  0
   25.1426  -20.6516  -10.2169 C   0  0  2  0  0  0  0  0  0  0  0  0
   26.5818  -21.0982  -10.4501 N   0  0  0  0  0  0  0  0  0  0  0  0
   24.3474  -20.9554  -11.4452 C   0  0  0  0  0  0  0  0  0  0  0  0
   25.0154  -20.4263  -12.6235 O   0  0  0  0  0  0  0  0  0  0  0  0
   22.9559  -20.4237  -11.3370 O   0  0  0  0  0  0  0  0  0  0  0  0
  2  1  1  0
  2  3  2  0
  4  2  1  0
  5  4  1  0
  6  5  1  0
  7  6  1  0
  8  7  1  0
  8  9  1  1
 10  8  1  0
 10 11  2  0
 13 12  1  0
 13 14  2  0
 15 13  1  0
 16 15  1  0
 17 16  1  0
 19 18  1  6
 18 17  1  0
 19 20  1  0
 20 10  1  0
 21 19  1  0
 22 21  2  0
 24 23  1  6
 24 26  1  0
 25 24  1  0
 26 28  1  0
 26 27  1  6
 27 21  1  0
 28 30  1  0
 29 28  2  0
M  END
$$$$
