RRV.pdb
     RDKit          3D

 30 29  0  0  1  0  0  0  0  0999 V2000
   30.7907  -23.7776  -14.3753 N   0  0  0  0  0  0  0  0  0  0  0  0
   30.5341  -23.2124  -15.6544 C   0  0  0  0  0  0  0  0  0  0  0  0
   30.2307  -23.9819  -16.6467 N   0  0  0  0  0  0  0  0  0  0  0  0
   30.6139  -21.8156  -15.8246 N   0  0  0  0  0  0  0  0  0  0  0  0
   29.9278  -20.9152  -14.9255 C   0  0  0  0  0  0  0  0  0  0  0  0
   28.5155  -21.3602  -14.7154 C   0  0  0  0  0  0  0  0  0  0  0  0
   28.0999  -21.2750  -13.2698 C   0  0  0  0  0  0  0  0  0  0  0  0
   26.7093  -20.6880  -13.1459 C   0  0  2  0  0  0  0  0  0  0  0  0
   26.4688  -19.6803  -14.1445 N   0  0  0  0  0  0  0  0  0  0  0  0
   26.4682  -20.1731  -11.7651 C   0  0  0  0  0  0  0  0  0  0  0  0
   26.6970  -18.9603  -11.5882 O   0  0  0  0  0  0  0  0  0  0  0  0
   30.1590  -23.6097  -17.6179 N   0  0  0  0  0  0  0  0  0  0  0  0
   21.2827  -21.5331  -11.7377 C   0  0  0  0  0  0  0  0  0  0  0  0
   20.7312  -20.3420  -11.2009 N   0  0  0  0  0  0  0  0  0  0  0  0
   20.0872  -19.5223  -11.9862 N   0  0  0  0  0  0  0  0  0  0  0  0
   20.8798  -20.0444   -9.8172 C   0  0  0  0  0  0  0  0  0  0  0  0
   21.9277  -20.6955   -9.1011 C   0  0  0  0  0  0  0  0  0  0  0  0
   23.3057  -20.3100   -9.5758 C   0  0  0  0  0  0  0  0  0  0  0  0
   24.4011  -21.0070   -8.8511 C   0  0  2  0  0  0  0  0  0  0  0  0
   25.7241  -20.5770   -9.3799 N   0  0  0  0  0  0  0  0  0  0  0  0
   26.0133  -20.9863  -10.7195 C   0  0  0  0  0  0  0  0  0  0  0  0
   26.8665  -20.7841   -8.4676 O   0  0  0  0  0  0  0  0  0  0  0  0
   27.5380  -21.8263   -8.5241 C   0  0  0  0  0  0  0  0  0  0  0  0
   19.6630  -18.6692  -11.6100 C   0  0  2  0  0  0  0  0  0  0  0  0
   28.2621  -17.8976   -5.6441 C   0  0  0  0  0  0  0  0  0  0  0  0
   28.9088  -19.2431   -5.8236 C   0  0  2  0  0  0  0  0  0  0  0  0
   29.9849  -19.1710   -6.9016 N   0  0  0  0  0  0  0  0  0  0  0  0
   27.8776  -20.2375   -6.2495 C   0  0  0  0  0  0  0  0  0  0  0  0
   27.2508  -19.8150   -7.4917 O   0  0  0  0  0  0  0  0  0  0  0  0
   26.8553  -20.4512   -5.1819 O   0  0  0  0  0  0  0  0  0  0  0  0
  2  1  1  0
  2  3  2  0
  4  2  1  0
  5  4  1  0
  6  5  1  0
  7  6  1  0
  8  7  1  0
  8  9  1  6
 10  8  1  0
 10 11  2  0
 13 12  1  0
 13 14  2  0
 15 13  1  0
 16 15  1  0
 17 16  1  0
 19 18  1  6
 18 17  1  0
 19 20  1  0
 20 10  1  0
 21 19  1  0
 22 21  2  0
 24 23  1  6
 24 26  1  0
 25 24  1  0
 26 28  1  0
 26 27  1  6
 27 21  1  0
 28 30  1  0
 29 28  2  0
M  END
$$$$
