HQR.pdb
     RDKit          3D

 31 31  0  0  1  0  0  0  0  0999 V2000
   27.4948  -26.3478  -16.1064 N   0  0  0  0  0  0  0  0  0  0  0  0
   26.2812  -25.7022  -16.5986 C   0  0  1  0  0  0  0  0  0  0  0  0
   25.2667  -26.7038  -16.8889 C   0  0  0  0  0  0  0  0  0  0  0  0
   25.6738  -27.7791  -17.8234 C   0  0  0  0  0  0  0  0  0  0  0  0
   25.6072  -29.1403  -17.5555 C   0  0  0  0  0  0  0  0  0  0  0  0
   26.0628  -29.7859  -18.6152 N   0  0  0  0  0  0  0  0  0  0  0  0
   26.4071  -28.8618  -19.5260 C   0  0  0  0  0  0  0  0  0  0  0  0
   26.1704  -27.6193  -19.0464 N   0  0  0  0  0  0  0  0  0  0  0  0
   25.9627  -24.4666  -15.9198 C   0  0  0  0  0  0  0  0  0  0  0  0
   25.7845  -24.4945  -14.6757 O   0  0  0  0  0  0  0  0  0  0  0  0
   28.5170  -19.2890  -15.0727 N   0  0  0  0  0  0  0  0  0  0  0  0
   27.1540  -18.8121  -15.0073 C   0  0  0  0  0  0  0  0  0  0  0  0
   26.9855  -17.7819  -14.3387 O   0  0  0  0  0  0  0  0  0  0  0  0
   26.0683  -19.5011  -15.6770 C   0  0  0  0  0  0  0  0  0  0  0  0
   26.3321  -20.7912  -16.3589 C   0  0  0  0  0  0  0  0  0  0  0  0
   25.5464  -21.9562  -15.9234 C   0  0  2  0  0  0  0  0  0  0  0  0
   25.8209  -23.1864  -16.5435 N   0  0  0  0  0  0  0  0  0  0  0  0
   24.0690  -21.6570  -15.8856 C   0  0  0  0  0  0  0  0  0  0  0  0
   23.4731  -21.3385  -16.9471 O   0  0  0  0  0  0  0  0  0  0  0  0
   18.3695  -25.9918  -12.3955 N   0  0  0  0  0  0  0  0  0  0  0  0
   19.5605  -25.4749  -11.8288 C   0  0  0  0  0  0  0  0  0  0  0  0
   20.1398  -26.1263  -10.8545 N   0  0  0  0  0  0  0  0  0  0  0  0
   20.1136  -24.2789  -12.3043 N   0  0  0  0  0  0  0  0  0  0  0  0
   19.5559  -22.9960  -11.9861 C   0  0  0  0  0  0  0  0  0  0  0  0
   20.1687  -21.8392  -12.6587 C   0  0  0  0  0  0  0  0  0  0  0  0
   21.4462  -21.8609  -13.3023 C   0  0  0  0  0  0  0  0  0  0  0  0
   21.8677  -21.4030  -14.6239 C   0  0  2  0  0  0  0  0  0  0  0  0
   23.3570  -21.7296  -14.6880 N   0  0  0  0  0  0  0  0  0  0  0  0
   21.8228  -19.9486  -14.9224 C   0  0  0  0  0  0  0  0  0  0  0  0
   20.9774  -19.2510  -15.7039 O   0  0  0  0  0  0  0  0  0  0  0  0
   22.7518  -19.2445  -14.3382 O   0  0  0  0  0  0  0  0  0  0  0  0
  2  1  1  1
  2  3  1  0
  3  4  1  0
  4  5  2  0
  4  8  1  0
  5  6  1  0
  6  7  1  0
  8  7  2  0
  9  2  1  0
 10  9  2  0
 12 14  1  0
 12 11  1  0
 13 12  2  0
 15 14  1  0
 16 15  1  6
 16 17  1  0
 17  9  1  0
 18 28  1  0
 18 16  1  0
 19 18  2  0
 21 20  1  0
 21 23  1  0
 22 21  2  0
 24 23  1  0
 25 24  1  0
 26 25  1  0
 27 26  1  1
 27 28  1  0
 29 27  1  0
 30 29  1  0
 31 29  2  0
M  END
$$$$
