HQR.pdb
     RDKit          3D

 31 31  0  0  1  0  0  0  0  0999 V2000
   27.7166  -20.5445  -14.9313 N   0  0  0  0  0  0  0  0  0  0  0  0
   26.8076  -20.2249  -16.0282 C   0  0  1  0  0  0  0  0  0  0  0  0
   26.6069  -21.3969  -16.8666 C   0  0  0  0  0  0  0  0  0  0  0  0
   27.8333  -22.1443  -17.2309 C   0  0  0  0  0  0  0  0  0  0  0  0
   28.7605  -21.7450  -18.1848 C   0  0  0  0  0  0  0  0  0  0  0  0
   29.7083  -22.6648  -18.2403 N   0  0  0  0  0  0  0  0  0  0  0  0
   29.3909  -23.6169  -17.3489 C   0  0  0  0  0  0  0  0  0  0  0  0
   28.2347  -23.3045  -16.7201 N   0  0  0  0  0  0  0  0  0  0  0  0
   25.7124  -19.3633  -15.6446 C   0  0  0  0  0  0  0  0  0  0  0  0
   25.0245  -19.6788  -14.6408 O   0  0  0  0  0  0  0  0  0  0  0  0
   24.2778  -13.1145  -17.3256 N   0  0  0  0  0  0  0  0  0  0  0  0
   23.1619  -13.6746  -16.5972 C   0  0  0  0  0  0  0  0  0  0  0  0
   22.2386  -12.8840  -16.3540 O   0  0  0  0  0  0  0  0  0  0  0  0
   23.1377  -15.0635  -16.1819 C   0  0  0  0  0  0  0  0  0  0  0  0
   24.3138  -15.9264  -16.4486 C   0  0  0  0  0  0  0  0  0  0  0  0
   24.2267  -17.3330  -16.0263 C   0  0  2  0  0  0  0  0  0  0  0  0
   25.3229  -18.1617  -16.3172 N   0  0  0  0  0  0  0  0  0  0  0  0
   22.9170  -17.9620  -16.4295 C   0  0  0  0  0  0  0  0  0  0  0  0
   22.8589  -18.6569  -17.4769 O   0  0  0  0  0  0  0  0  0  0  0  0
   19.0316  -23.2197  -11.3621 N   0  0  0  0  0  0  0  0  0  0  0  0
   18.2798  -23.3928  -12.5503 C   0  0  0  0  0  0  0  0  0  0  0  0
   17.4734  -24.4167  -12.6529 N   0  0  0  0  0  0  0  0  0  0  0  0
   18.3974  -22.4791  -13.6057 N   0  0  0  0  0  0  0  0  0  0  0  0
   19.1679  -21.2740  -13.4949 C   0  0  0  0  0  0  0  0  0  0  0  0
   19.3339  -20.4961  -14.7331 C   0  0  0  0  0  0  0  0  0  0  0  0
   20.2043  -19.3690  -14.8699 C   0  0  0  0  0  0  0  0  0  0  0  0
   20.4571  -18.4777  -15.9994 C   0  0  2  0  0  0  0  0  0  0  0  0
   21.7709  -17.7820  -15.6546 N   0  0  0  0  0  0  0  0  0  0  0  0
   19.5235  -17.3475  -16.2386 C   0  0  0  0  0  0  0  0  0  0  0  0
   18.4620  -17.2610  -17.0619 O   0  0  0  0  0  0  0  0  0  0  0  0
   19.7800  -16.2739  -15.5446 O   0  0  0  0  0  0  0  0  0  0  0  0
  2  1  1  1
  2  3  1  0
  3  4  1  0
  4  5  2  0
  4  8  1  0
  5  6  1  0
  6  7  1  0
  8  7  2  0
  9  2  1  0
 10  9  2  0
 12 14  1  0
 12 11  1  0
 13 12  2  0
 15 14  1  0
 16 15  1  6
 16 17  1  0
 17  9  1  0
 18 28  1  0
 18 16  1  0
 19 18  2  0
 21 20  1  0
 21 23  1  0
 22 21  2  0
 24 23  1  0
 25 24  1  0
 26 25  1  0
 27 26  1  1
 27 28  1  0
 29 27  1  0
 30 29  1  0
 31 29  2  0
M  END
$$$$
