HQR.pdb
     RDKit          3D

 31 31  0  0  1  0  0  0  0  0999 V2000
   27.8521  -21.1692  -17.3833 N   0  0  0  0  0  0  0  0  0  0  0  0
   27.5011  -20.2889  -16.2726 C   0  0  1  0  0  0  0  0  0  0  0  0
   27.0695  -18.9952  -16.7792 C   0  0  0  0  0  0  0  0  0  0  0  0
   28.1000  -18.2104  -17.4987 C   0  0  0  0  0  0  0  0  0  0  0  0
   29.4201  -18.6008  -17.6826 C   0  0  0  0  0  0  0  0  0  0  0  0
   30.0363  -17.6457  -18.3576 N   0  0  0  0  0  0  0  0  0  0  0  0
   29.1339  -16.6804  -18.5938 C   0  0  0  0  0  0  0  0  0  0  0  0
   27.9348  -17.0199  -18.0675 N   0  0  0  0  0  0  0  0  0  0  0  0
   26.8064  -20.9582  -15.1963 C   0  0  0  0  0  0  0  0  0  0  0  0
   25.9412  -21.8227  -15.4870 O   0  0  0  0  0  0  0  0  0  0  0  0
   23.9530  -20.5656   -8.8595 N   0  0  0  0  0  0  0  0  0  0  0  0
   25.3033  -20.4789   -9.3680 C   0  0  0  0  0  0  0  0  0  0  0  0
   25.9514  -19.4948   -8.9831 O   0  0  0  0  0  0  0  0  0  0  0  0
   25.8487  -21.4765  -10.2676 C   0  0  0  0  0  0  0  0  0  0  0  0
   26.7300  -21.0518  -11.3819 C   0  0  0  0  0  0  0  0  0  0  0  0
   26.1597  -21.0742  -12.7379 C   0  0  2  0  0  0  0  0  0  0  0  0
   27.0089  -20.7210  -13.7996 N   0  0  0  0  0  0  0  0  0  0  0  0
   24.8373  -20.3528  -12.8048 C   0  0  0  0  0  0  0  0  0  0  0  0
   24.8185  -19.0961  -12.8652 O   0  0  0  0  0  0  0  0  0  0  0  0
   19.7181  -20.1836  -17.9003 N   0  0  0  0  0  0  0  0  0  0  0  0
   19.8818  -18.7872  -18.0735 C   0  0  0  0  0  0  0  0  0  0  0  0
   18.9681  -18.1120  -18.7202 N   0  0  0  0  0  0  0  0  0  0  0  0
   21.0095  -18.1341  -17.5593 N   0  0  0  0  0  0  0  0  0  0  0  0
   22.0220  -18.8244  -16.8132 C   0  0  0  0  0  0  0  0  0  0  0  0
   21.6394  -19.2729  -15.4648 C   0  0  0  0  0  0  0  0  0  0  0  0
   22.5239  -19.9222  -14.5468 C   0  0  0  0  0  0  0  0  0  0  0  0
   22.3160  -20.4000  -13.1820 C   0  0  2  0  0  0  0  0  0  0  0  0
   23.6365  -21.0630  -12.8005 N   0  0  0  0  0  0  0  0  0  0  0  0
   21.3143  -21.4712  -12.9466 C   0  0  0  0  0  0  0  0  0  0  0  0
   20.0223  -21.3826  -12.5791 O   0  0  0  0  0  0  0  0  0  0  0  0
   21.7632  -22.6832  -13.1191 O   0  0  0  0  0  0  0  0  0  0  0  0
  2  1  1  6
  2  3  1  0
  3  4  1  0
  4  5  2  0
  4  8  1  0
  5  6  1  0
  6  7  1  0
  8  7  2  0
  9  2  1  0
 10  9  2  0
 12 14  1  0
 12 11  1  0
 13 12  2  0
 15 14  1  0
 16 15  1  1
 16 17  1  0
 17  9  1  0
 18 28  1  0
 18 16  1  0
 19 18  2  0
 21 20  1  0
 21 23  1  0
 22 21  2  0
 24 23  1  0
 25 24  1  0
 26 25  1  0
 27 26  1  6
 27 28  1  0
 29 27  1  0
 30 29  1  0
 31 29  2  0
M  END
$$$$
