HQR.pdb
     RDKit          3D

 31 31  0  0  1  0  0  0  0  0999 V2000
   16.8685  -13.5599  -16.6478 N   0  0  0  0  0  0  0  0  0  0  0  0
   18.2018  -12.9662  -16.6877 C   0  0  1  0  0  0  0  0  0  0  0  0
   19.0712  -13.7512  -17.5507 C   0  0  0  0  0  0  0  0  0  0  0  0
   19.1194  -15.2041  -17.2642 C   0  0  0  0  0  0  0  0  0  0  0  0
   18.9481  -16.2117  -18.2047 C   0  0  0  0  0  0  0  0  0  0  0  0
   19.0473  -17.3723  -17.5796 N   0  0  0  0  0  0  0  0  0  0  0  0
   19.2746  -17.1075  -16.2835 C   0  0  0  0  0  0  0  0  0  0  0  0
   19.3211  -15.7712  -16.0786 N   0  0  0  0  0  0  0  0  0  0  0  0
   18.1950  -11.5213  -16.7209 C   0  0  0  0  0  0  0  0  0  0  0  0
   17.4459  -10.9440  -17.5490 O   0  0  0  0  0  0  0  0  0  0  0  0
   15.5071   -7.0378  -14.6584 N   0  0  0  0  0  0  0  0  0  0  0  0
   15.4880   -8.4830  -14.6788 C   0  0  0  0  0  0  0  0  0  0  0  0
   14.4767   -9.0057  -14.1880 O   0  0  0  0  0  0  0  0  0  0  0  0
   16.5823   -9.2559  -15.2330 C   0  0  0  0  0  0  0  0  0  0  0  0
   17.7274   -8.5542  -15.8617 C   0  0  0  0  0  0  0  0  0  0  0  0
   19.0173   -9.2611  -15.8897 C   0  0  2  0  0  0  0  0  0  0  0  0
   18.9824  -10.6654  -15.8870 N   0  0  0  0  0  0  0  0  0  0  0  0
   19.9810   -8.7155  -14.8664 C   0  0  0  0  0  0  0  0  0  0  0  0
   20.1790   -9.3521  -13.7992 O   0  0  0  0  0  0  0  0  0  0  0  0
   26.4580  -11.7781  -15.8096 N   0  0  0  0  0  0  0  0  0  0  0  0
   27.1031  -10.5289  -15.9838 C   0  0  0  0  0  0  0  0  0  0  0  0
   28.4062  -10.4907  -16.0817 N   0  0  0  0  0  0  0  0  0  0  0  0
   26.3559   -9.3458  -16.0502 N   0  0  0  0  0  0  0  0  0  0  0  0
   24.9257   -9.3344  -15.9381 C   0  0  0  0  0  0  0  0  0  0  0  0
   24.2812   -8.0136  -16.0145 C   0  0  0  0  0  0  0  0  0  0  0  0
   22.8796   -7.7860  -15.8404 C   0  0  0  0  0  0  0  0  0  0  0  0
   22.1135   -7.3295  -14.6833 C   0  0  2  0  0  0  0  0  0  0  0  0
   20.6543   -7.5142  -15.0901 N   0  0  0  0  0  0  0  0  0  0  0  0
   22.1840   -5.8957  -14.3021 C   0  0  0  0  0  0  0  0  0  0  0  0
   22.9729   -5.2765  -13.4040 O   0  0  0  0  0  0  0  0  0  0  0  0
   21.3461   -5.1227  -14.9349 O   0  0  0  0  0  0  0  0  0  0  0  0
  2  1  1  6
  2  3  1  0
  3  4  1  0
  4  5  2  0
  4  8  1  0
  5  6  1  0
  6  7  1  0
  8  7  2  0
  9  2  1  0
 10  9  2  0
 12 14  1  0
 12 11  1  0
 13 12  2  0
 15 14  1  0
 16 15  1  1
 16 17  1  0
 17  9  1  0
 18 28  1  0
 18 16  1  0
 19 18  2  0
 21 20  1  0
 21 23  1  0
 22 21  2  0
 24 23  1  0
 25 24  1  0
 26 25  1  0
 27 26  1  6
 27 28  1  0
 29 27  1  0
 30 29  1  0
 31 29  2  0
M  END
$$$$
