HQR.pdb
     RDKit          3D

 31 31  0  0  1  0  0  0  0  0999 V2000
   26.0865  -22.6181  -17.8200 N   0  0  0  0  0  0  0  0  0  0  0  0
   24.9674  -21.7641  -17.4326 C   0  0  1  0  0  0  0  0  0  0  0  0
   24.0546  -21.6001  -18.5536 C   0  0  0  0  0  0  0  0  0  0  0  0
   24.5704  -20.8033  -19.6913 C   0  0  0  0  0  0  0  0  0  0  0  0
   24.4693  -19.4234  -19.8134 C   0  0  0  0  0  0  0  0  0  0  0  0
   25.0311  -19.0744  -20.9580 N   0  0  0  0  0  0  0  0  0  0  0  0
   25.4742  -20.1986  -21.5424 C   0  0  0  0  0  0  0  0  0  0  0  0
   25.1947  -21.2718  -20.7678 N   0  0  0  0  0  0  0  0  0  0  0  0
   24.4918  -22.0014  -16.0886 C   0  0  0  0  0  0  0  0  0  0  0  0
   24.4812  -23.1816  -15.6559 O   0  0  0  0  0  0  0  0  0  0  0  0
   25.9959  -21.5115  -10.8227 N   0  0  0  0  0  0  0  0  0  0  0  0
   24.6399  -21.1440  -10.4824 C   0  0  0  0  0  0  0  0  0  0  0  0
   24.2882  -21.4294   -9.3285 O   0  0  0  0  0  0  0  0  0  0  0  0
   23.7613  -20.4919  -11.4336 C   0  0  0  0  0  0  0  0  0  0  0  0
   24.2085  -20.3099  -12.8356 C   0  0  0  0  0  0  0  0  0  0  0  0
   23.5943  -21.1736  -13.8560 C   0  0  2  0  0  0  0  0  0  0  0  0
   24.0147  -20.9996  -15.1850 N   0  0  0  0  0  0  0  0  0  0  0  0
   22.0916  -21.2062  -13.7359 C   0  0  0  0  0  0  0  0  0  0  0  0
   21.4156  -20.2238  -14.1372 O   0  0  0  0  0  0  0  0  0  0  0  0
   18.3314  -25.1724   -6.9891 N   0  0  0  0  0  0  0  0  0  0  0  0
   17.1939  -24.9395   -7.8006 C   0  0  0  0  0  0  0  0  0  0  0  0
   16.0147  -25.3011   -7.3671 N   0  0  0  0  0  0  0  0  0  0  0  0
   17.3277  -24.3293   -9.0545 N   0  0  0  0  0  0  0  0  0  0  0  0
   18.6037  -24.1344   -9.6805 C   0  0  0  0  0  0  0  0  0  0  0  0
   18.5916  -23.4131  -10.9633 C   0  0  0  0  0  0  0  0  0  0  0  0
   19.7585  -23.1184  -11.7368 C   0  0  0  0  0  0  0  0  0  0  0  0
   19.9369  -22.3173  -12.9453 C   0  0  2  0  0  0  0  0  0  0  0  0
   21.4440  -22.3125  -13.1854 N   0  0  0  0  0  0  0  0  0  0  0  0
   19.5925  -20.8731  -12.9007 C   0  0  0  0  0  0  0  0  0  0  0  0
   18.4685  -20.2390  -13.2835 O   0  0  0  0  0  0  0  0  0  0  0  0
   20.5302  -20.1049  -12.4204 O   0  0  0  0  0  0  0  0  0  0  0  0
  2  1  1  6
  2  3  1  0
  3  4  1  0
  4  5  2  0
  4  8  1  0
  5  6  1  0
  6  7  1  0
  8  7  2  0
  9  2  1  0
 10  9  2  0
 12 14  1  0
 12 11  1  0
 13 12  2  0
 15 14  1  0
 16 15  1  1
 16 17  1  0
 17  9  1  0
 18 28  1  0
 18 16  1  0
 19 18  2  0
 21 20  1  0
 21 23  1  0
 22 21  2  0
 24 23  1  0
 25 24  1  0
 26 25  1  0
 27 26  1  1
 27 28  1  0
 29 27  1  0
 30 29  1  0
 31 29  2  0
M  END
$$$$
