HQR.pdb
     RDKit          3D

 31 31  0  0  1  0  0  0  0  0999 V2000
   27.0473  -19.5176  -17.8807 N   0  0  0  0  0  0  0  0  0  0  0  0
   27.1215  -18.8042  -16.6089 C   0  0  1  0  0  0  0  0  0  0  0  0
   26.2645  -17.6291  -16.6461 C   0  0  0  0  0  0  0  0  0  0  0  0
   26.5901  -16.6288  -17.6896 C   0  0  0  0  0  0  0  0  0  0  0  0
   25.8046  -16.3449  -18.7993 C   0  0  0  0  0  0  0  0  0  0  0  0
   26.4198  -15.4113  -19.5046 N   0  0  0  0  0  0  0  0  0  0  0  0
   27.5595  -15.1134  -18.8611 C   0  0  0  0  0  0  0  0  0  0  0  0
   27.6737  -15.8599  -17.7387 N   0  0  0  0  0  0  0  0  0  0  0  0
   27.1759  -19.6738  -15.4557 C   0  0  0  0  0  0  0  0  0  0  0  0
   26.3322  -20.6011  -15.3636 O   0  0  0  0  0  0  0  0  0  0  0  0
   31.9069  -20.5768  -10.8871 N   0  0  0  0  0  0  0  0  0  0  0  0
   30.7205  -21.3035  -10.4946 C   0  0  0  0  0  0  0  0  0  0  0  0
   30.8443  -22.0130   -9.4858 O   0  0  0  0  0  0  0  0  0  0  0  0
   29.4803  -21.2046  -11.2391 C   0  0  0  0  0  0  0  0  0  0  0  0
   29.4268  -20.3673  -12.4617 C   0  0  0  0  0  0  0  0  0  0  0  0
   28.1571  -20.3401  -13.2044 C   0  0  2  0  0  0  0  0  0  0  0  0
   28.1155  -19.5739  -14.3809 N   0  0  0  0  0  0  0  0  0  0  0  0
   26.9825  -20.0583  -12.3018 C   0  0  0  0  0  0  0  0  0  0  0  0
   26.7612  -18.8795  -11.9214 O   0  0  0  0  0  0  0  0  0  0  0  0
   18.9637  -22.1447  -13.4316 N   0  0  0  0  0  0  0  0  0  0  0  0
   19.5191  -20.9885  -14.0330 C   0  0  0  0  0  0  0  0  0  0  0  0
   18.7702  -20.2493  -14.8089 N   0  0  0  0  0  0  0  0  0  0  0  0
   20.8557  -20.6387  -13.8015 N   0  0  0  0  0  0  0  0  0  0  0  0
   21.7413  -21.4619  -13.0293 C   0  0  0  0  0  0  0  0  0  0  0  0
   22.7539  -20.7518  -12.2316 C   0  0  0  0  0  0  0  0  0  0  0  0
   23.8227  -21.3905  -11.5271 C   0  0  0  0  0  0  0  0  0  0  0  0
   25.0150  -20.8445  -10.8832 C   0  0  2  0  0  0  0  0  0  0  0  0
   26.1400  -21.0891  -11.8850 N   0  0  0  0  0  0  0  0  0  0  0  0
   25.5145  -21.4907   -9.6425 C   0  0  0  0  0  0  0  0  0  0  0  0
   26.5246  -22.3630   -9.4672 O   0  0  0  0  0  0  0  0  0  0  0  0
   24.8669  -21.1621   -8.5596 O   0  0  0  0  0  0  0  0  0  0  0  0
  2  1  1  6
  2  3  1  0
  3  4  1  0
  4  5  2  0
  4  8  1  0
  5  6  1  0
  6  7  1  0
  8  7  2  0
  9  2  1  0
 10  9  2  0
 12 14  1  0
 12 11  1  0
 13 12  2  0
 15 14  1  0
 16 15  1  1
 16 17  1  0
 17  9  1  0
 18 28  1  0
 18 16  1  0
 19 18  2  0
 21 20  1  0
 21 23  1  0
 22 21  2  0
 24 23  1  0
 25 24  1  0
 26 25  1  0
 27 26  1  6
 27 28  1  0
 29 27  1  0
 30 29  1  0
 31 29  2  0
M  END
$$$$
