HQR.pdb
     RDKit          3D

 31 31  0  0  1  0  0  0  0  0999 V2000
   15.9729  -28.2507  -11.5686 N   0  0  0  0  0  0  0  0  0  0  0  0
   15.6262  -27.6770  -10.2715 C   0  0  1  0  0  0  0  0  0  0  0  0
   14.4647  -28.3579   -9.7200 C   0  0  0  0  0  0  0  0  0  0  0  0
   13.2294  -28.2842  -10.5349 C   0  0  0  0  0  0  0  0  0  0  0  0
   12.4634  -27.1415  -10.7260 C   0  0  0  0  0  0  0  0  0  0  0  0
   11.4395  -27.4629  -11.4980 N   0  0  0  0  0  0  0  0  0  0  0  0
   11.5541  -28.7688  -11.7868 C   0  0  0  0  0  0  0  0  0  0  0  0
   12.6565  -29.2850  -11.1968 N   0  0  0  0  0  0  0  0  0  0  0  0
   16.7727  -27.3415   -9.4579 C   0  0  0  0  0  0  0  0  0  0  0  0
   17.6588  -28.2154   -9.2811 O   0  0  0  0  0  0  0  0  0  0  0  0
   20.6667  -22.6946   -9.9312 N   0  0  0  0  0  0  0  0  0  0  0  0
   19.2533  -22.4697   -9.7279 C   0  0  0  0  0  0  0  0  0  0  0  0
   18.8290  -21.3756  -10.1271 O   0  0  0  0  0  0  0  0  0  0  0  0
   18.4031  -23.4600   -9.0966 C   0  0  0  0  0  0  0  0  0  0  0  0
   19.0071  -24.6970   -8.5454 C   0  0  0  0  0  0  0  0  0  0  0  0
   18.0889  -25.7144   -8.0105 C   0  0  2  0  0  0  0  0  0  0  0  0
   16.9976  -26.0834   -8.8142 N   0  0  0  0  0  0  0  0  0  0  0  0
   17.6725  -25.4082   -6.5939 C   0  0  0  0  0  0  0  0  0  0  0  0
   16.5674  -24.8460   -6.3799 O   0  0  0  0  0  0  0  0  0  0  0  0
   11.3063  -24.7435   -3.0705 N   0  0  0  0  0  0  0  0  0  0  0  0
   12.1534  -23.9320   -2.2764 C   0  0  0  0  0  0  0  0  0  0  0  0
   11.6397  -22.9295   -1.6129 N   0  0  0  0  0  0  0  0  0  0  0  0
   13.5268  -24.1976   -2.2012 N   0  0  0  0  0  0  0  0  0  0  0  0
   14.3074  -24.5343   -3.3569 C   0  0  0  0  0  0  0  0  0  0  0  0
   15.7382  -24.7851   -3.1206 C   0  0  0  0  0  0  0  0  0  0  0  0
   16.6668  -25.1877   -4.1317 C   0  0  0  0  0  0  0  0  0  0  0  0
   18.1097  -25.4106   -4.0818 C   0  0  2  0  0  0  0  0  0  0  0  0
   18.4984  -25.7413   -5.5200 N   0  0  0  0  0  0  0  0  0  0  0  0
   18.6256  -26.5714   -3.3119 C   0  0  0  0  0  0  0  0  0  0  0  0
   19.0020  -26.6564   -2.0223 O   0  0  0  0  0  0  0  0  0  0  0  0
   18.7334  -27.6747   -3.9983 O   0  0  0  0  0  0  0  0  0  0  0  0
  2  1  1  6
  2  3  1  0
  3  4  1  0
  4  5  2  0
  4  8  1  0
  5  6  1  0
  6  7  1  0
  8  7  2  0
  9  2  1  0
 10  9  2  0
 12 14  1  0
 12 11  1  0
 13 12  2  0
 15 14  1  0
 16 15  1  6
 16 17  1  0
 17  9  1  0
 18 28  1  0
 18 16  1  0
 19 18  2  0
 21 20  1  0
 21 23  1  0
 22 21  2  0
 24 23  1  0
 25 24  1  0
 26 25  1  0
 27 26  1  6
 27 28  1  0
 29 27  1  0
 30 29  1  0
 31 29  2  0
M  END
$$$$
