HQR.pdb
     RDKit          3D

 31 31  0  0  1  0  0  0  0  0999 V2000
   22.8600  -21.3323   -9.8974 N   0  0  0  0  0  0  0  0  0  0  0  0
   22.1448  -21.4295  -11.1666 C   0  0  1  0  0  0  0  0  0  0  0  0
   20.7154  -21.5525  -10.9249 C   0  0  0  0  0  0  0  0  0  0  0  0
   20.3080  -22.6593  -10.0281 C   0  0  0  0  0  0  0  0  0  0  0  0
   20.3496  -22.6220   -8.6403 C   0  0  0  0  0  0  0  0  0  0  0  0
   19.9216  -23.7885   -8.1892 N   0  0  0  0  0  0  0  0  0  0  0  0
   19.6183  -24.5411   -9.2586 C   0  0  0  0  0  0  0  0  0  0  0  0
   19.8532  -23.8525  -10.3990 N   0  0  0  0  0  0  0  0  0  0  0  0
   22.6735  -20.5689  -12.2004 C   0  0  0  0  0  0  0  0  0  0  0  0
   22.6368  -19.3250  -12.0220 O   0  0  0  0  0  0  0  0  0  0  0  0
   27.8155  -21.7063  -15.7416 N   0  0  0  0  0  0  0  0  0  0  0  0
   27.5720  -21.3065  -14.3739 C   0  0  0  0  0  0  0  0  0  0  0  0
   28.5441  -21.4093  -13.6117 O   0  0  0  0  0  0  0  0  0  0  0  0
   26.2766  -20.8249  -13.9357 C   0  0  0  0  0  0  0  0  0  0  0  0
   25.1754  -20.6916  -14.9198 C   0  0  0  0  0  0  0  0  0  0  0  0
   23.8753  -20.2220  -14.4164 C   0  0  2  0  0  0  0  0  0  0  0  0
   23.2417  -21.0067  -13.4387 N   0  0  0  0  0  0  0  0  0  0  0  0
   22.9392  -19.8471  -15.5375 C   0  0  0  0  0  0  0  0  0  0  0  0
   22.2577  -20.7416  -16.1020 O   0  0  0  0  0  0  0  0  0  0  0  0
   19.3778  -12.0867  -15.5640 N   0  0  0  0  0  0  0  0  0  0  0  0
   20.0828  -12.1483  -16.7912 C   0  0  0  0  0  0  0  0  0  0  0  0
   20.3690  -11.0385  -17.4202 N   0  0  0  0  0  0  0  0  0  0  0  0
   20.4698  -13.3830  -17.3280 N   0  0  0  0  0  0  0  0  0  0  0  0
   20.0567  -14.6318  -16.7552 C   0  0  0  0  0  0  0  0  0  0  0  0
   20.5836  -15.8452  -17.4001 C   0  0  0  0  0  0  0  0  0  0  0  0
   21.5468  -16.7224  -16.8089 C   0  0  0  0  0  0  0  0  0  0  0  0
   21.8725  -18.1203  -17.0809 C   0  0  2  0  0  0  0  0  0  0  0  0
   22.8211  -18.5211  -15.9546 N   0  0  0  0  0  0  0  0  0  0  0  0
   22.6413  -18.4473  -18.3090 C   0  0  0  0  0  0  0  0  0  0  0  0
   22.2102  -18.8546  -19.5174 O   0  0  0  0  0  0  0  0  0  0  0  0
   23.9339  -18.3240  -18.1905 O   0  0  0  0  0  0  0  0  0  0  0  0
  2  1  1  1
  2  3  1  0
  3  4  1  0
  4  5  2  0
  4  8  1  0
  5  6  1  0
  6  7  1  0
  8  7  2  0
  9  2  1  0
 10  9  2  0
 12 14  1  0
 12 11  1  0
 13 12  2  0
 15 14  1  0
 16 15  1  6
 16 17  1  0
 17  9  1  0
 18 28  1  0
 18 16  1  0
 19 18  2  0
 21 20  1  0
 21 23  1  0
 22 21  2  0
 24 23  1  0
 25 24  1  0
 26 25  1  0
 27 26  1  6
 27 28  1  0
 29 27  1  0
 30 29  1  0
 31 29  2  0
M  END
$$$$
