WFY.pdb
     RDKit          3D

 38 41  0  0  1  0  0  0  0  0999 V2000
   24.5194  -17.4978  -17.1806 N   0  0  0  0  0  0  0  0  0  0  0  0
   23.3577  -18.3250  -17.3476 C   0  0  1  0  0  0  0  0  0  0  0  0
   23.1444  -18.7689  -18.7730 C   0  0  0  0  0  0  0  0  0  0  0  0
   22.9882  -17.5595  -19.6197 C   0  0  0  0  0  0  0  0  0  0  0  0
   23.9764  -16.5891  -19.8212 C   0  0  0  0  0  0  0  0  0  0  0  0
   23.5295  -15.6407  -20.6626 N   0  0  0  0  0  0  0  0  0  0  0  0
   22.2731  -15.9537  -21.0247 C   0  0  0  0  0  0  0  0  0  0  0  0
   21.3860  -15.3067  -21.8565 C   0  0  0  0  0  0  0  0  0  0  0  0
   20.1427  -15.8703  -22.0350 C   0  0  0  0  0  0  0  0  0  0  0  0
   19.7578  -17.0387  -21.4225 C   0  0  0  0  0  0  0  0  0  0  0  0
   20.6670  -17.6806  -20.5845 C   0  0  0  0  0  0  0  0  0  0  0  0
   21.9208  -17.1426  -20.3855 C   0  0  0  0  0  0  0  0  0  0  0  0
   23.3574  -19.4709  -16.3996 C   0  0  0  0  0  0  0  0  0  0  0  0
   24.4392  -19.9562  -16.0219 O   0  0  0  0  0  0  0  0  0  0  0  0
   22.1011  -19.9673  -15.9605 N   0  0  0  0  0  0  0  0  0  0  0  0
   21.9830  -20.3971  -14.5866 C   0  0  1  0  0  0  0  0  0  0  0  0
   22.1471  -19.1756  -13.6617 C   0  0  0  0  0  0  0  0  0  0  0  0
   22.0678  -19.5848  -12.2435 C   0  0  0  0  0  0  0  0  0  0  0  0
   23.1069  -20.2451  -11.6282 C   0  0  0  0  0  0  0  0  0  0  0  0
   23.0254  -20.6260  -10.2926 C   0  0  0  0  0  0  0  0  0  0  0  0
   21.9053  -20.3575   -9.5375 C   0  0  0  0  0  0  0  0  0  0  0  0
   20.8587  -19.6945  -10.1510 C   0  0  0  0  0  0  0  0  0  0  0  0
   20.9476  -19.3151  -11.4925 C   0  0  0  0  0  0  0  0  0  0  0  0
   20.5988  -20.8627  -14.3498 C   0  0  0  0  0  0  0  0  0  0  0  0
   19.6623  -20.0573  -14.5477 O   0  0  0  0  0  0  0  0  0  0  0  0
   13.5482  -25.8578  -12.9242 O   0  0  0  0  0  0  0  0  0  0  0  0
   14.8603  -25.4414  -13.1510 C   0  0  0  0  0  0  0  0  0  0  0  0
   15.8783  -25.7292  -12.2675 C   0  0  0  0  0  0  0  0  0  0  0  0
   17.1475  -25.2827  -12.5627 C   0  0  0  0  0  0  0  0  0  0  0  0
   17.4068  -24.5622  -13.7144 C   0  0  0  0  0  0  0  0  0  0  0  0
   18.8293  -24.1271  -13.9379 C   0  0  0  0  0  0  0  0  0  0  0  0
   18.9864  -22.6628  -13.6265 C   0  0  2  0  0  0  0  0  0  0  0  0
   20.3259  -22.1873  -13.9090 N   0  0  0  0  0  0  0  0  0  0  0  0
   18.6802  -22.3679  -12.2069 C   0  0  0  0  0  0  0  0  0  0  0  0
   19.5044  -22.5857  -11.2826 O   0  0  0  0  0  0  0  0  0  0  0  0
   16.4008  -24.2793  -14.5850 C   0  0  0  0  0  0  0  0  0  0  0  0
   15.1285  -24.7149  -14.3097 C   0  0  0  0  0  0  0  0  0  0  0  0
   17.4463  -21.8267  -11.8190 O   0  0  0  0  0  0  0  0  0  0  0  0
  2  1  1  6
  2  3  1  0
  4  3  1  0
  4  5  2  0
  6  5  1  0
  7  6  1  0
  8  7  2  0
  9  8  1  0
 10  9  2  0
 10 11  1  0
 11 12  2  0
 12  7  1  0
 12  4  1  0
 13  2  1  0
 13 14  2  0
 15 13  1  0
 16 17  1  1
 16 15  1  0
 18 17  1  0
 18 23  1  0
 19 18  2  0
 20 19  1  0
 20 21  2  0
 21 22  1  0
 22 23  2  0
 24 16  1  0
 25 24  2  0
 27 26  1  0
 27 28  2  0
 29 28  1  0
 30 29  2  0
 32 31  1  1
 31 30  1  0
 32 33  1  0
 33 24  1  0
 34 38  1  0
 34 32  1  0
 35 34  2  0
 36 37  2  0
 36 30  1  0
 37 27  1  0
M  END
$$$$
