WFY.pdb
     RDKit          3D

 38 41  0  0  1  0  0  0  0  0999 V2000
   28.7972  -21.4451  -13.0347 N   0  0  0  0  0  0  0  0  0  0  0  0
   27.7909  -20.6085  -12.4439 C   0  0  1  0  0  0  0  0  0  0  0  0
   26.6204  -20.3505  -13.3593 C   0  0  0  0  0  0  0  0  0  0  0  0
   27.1011  -19.5584  -14.5192 C   0  0  0  0  0  0  0  0  0  0  0  0
   27.4406  -20.0911  -15.7681 C   0  0  0  0  0  0  0  0  0  0  0  0
   27.8091  -19.1071  -16.6066 N   0  0  0  0  0  0  0  0  0  0  0  0
   27.7242  -17.9371  -15.9499 C   0  0  0  0  0  0  0  0  0  0  0  0
   27.9951  -16.6503  -16.3602 C   0  0  0  0  0  0  0  0  0  0  0  0
   27.8209  -15.6338  -15.4482 C   0  0  0  0  0  0  0  0  0  0  0  0
   27.3928  -15.8512  -14.1607 C   0  0  0  0  0  0  0  0  0  0  0  0
   27.1229  -17.1585  -13.7618 C   0  0  0  0  0  0  0  0  0  0  0  0
   27.2864  -18.1991  -14.6515 C   0  0  0  0  0  0  0  0  0  0  0  0
   27.3594  -21.1210  -11.1162 C   0  0  0  0  0  0  0  0  0  0  0  0
   27.0933  -22.3289  -10.9805 O   0  0  0  0  0  0  0  0  0  0  0  0
   27.2697  -20.1926  -10.0448 N   0  0  0  0  0  0  0  0  0  0  0  0
   26.2864  -20.4362   -9.0153 C   0  0  1  0  0  0  0  0  0  0  0  0
   26.3922  -19.3307   -7.9471 C   0  0  0  0  0  0  0  0  0  0  0  0
   27.3576  -19.7162   -6.8961 C   0  0  0  0  0  0  0  0  0  0  0  0
   28.5944  -19.1194   -6.8044 C   0  0  0  0  0  0  0  0  0  0  0  0
   29.4973  -19.4866   -5.8116 C   0  0  0  0  0  0  0  0  0  0  0  0
   29.1887  -20.4582   -4.8856 C   0  0  0  0  0  0  0  0  0  0  0  0
   27.9475  -21.0607   -4.9735 C   0  0  0  0  0  0  0  0  0  0  0  0
   27.0461  -20.6869   -5.9730 C   0  0  0  0  0  0  0  0  0  0  0  0
   24.9361  -20.2677   -9.5961 C   0  0  0  0  0  0  0  0  0  0  0  0
   24.8277  -19.6236  -10.6629 O   0  0  0  0  0  0  0  0  0  0  0  0
   17.5150  -21.7818  -13.4337 O   0  0  0  0  0  0  0  0  0  0  0  0
   18.7684  -21.7374  -12.8225 C   0  0  0  0  0  0  0  0  0  0  0  0
   19.6546  -20.7074  -13.0534 C   0  0  0  0  0  0  0  0  0  0  0  0
   20.8732  -20.7356  -12.4118 C   0  0  0  0  0  0  0  0  0  0  0  0
   21.2109  -21.7668  -11.5543 C   0  0  0  0  0  0  0  0  0  0  0  0
   22.5661  -21.6949  -10.9054 C   0  0  0  0  0  0  0  0  0  0  0  0
   22.4954  -20.9045   -9.6264 C   0  0  2  0  0  0  0  0  0  0  0  0
   23.7839  -20.8176   -8.9688 N   0  0  0  0  0  0  0  0  0  0  0  0
   21.5269  -21.4921   -8.6711 C   0  0  0  0  0  0  0  0  0  0  0  0
   20.3718  -21.0219   -8.5108 O   0  0  0  0  0  0  0  0  0  0  0  0
   20.3348  -22.7823  -11.3278 C   0  0  0  0  0  0  0  0  0  0  0  0
   19.1150  -22.7735  -11.9573 C   0  0  0  0  0  0  0  0  0  0  0  0
   21.8516  -22.6112   -7.8912 O   0  0  0  0  0  0  0  0  0  0  0  0
  2  1  1  6
  2  3  1  0
  4  3  1  0
  4  5  2  0
  6  5  1  0
  7  6  1  0
  8  7  2  0
  9  8  1  0
 10  9  2  0
 10 11  1  0
 11 12  2  0
 12  7  1  0
 12  4  1  0
 13  2  1  0
 13 14  2  0
 15 13  1  0
 16 17  1  1
 16 15  1  0
 18 17  1  0
 18 23  1  0
 19 18  2  0
 20 19  1  0
 20 21  2  0
 21 22  1  0
 22 23  2  0
 24 16  1  0
 25 24  2  0
 27 26  1  0
 27 28  2  0
 29 28  1  0
 30 29  2  0
 32 31  1  6
 31 30  1  0
 32 33  1  0
 33 24  1  0
 34 38  1  0
 34 32  1  0
 35 34  2  0
 36 37  2  0
 36 30  1  0
 37 27  1  0
M  END
$$$$
