WFY.pdb
     RDKit          3D

 38 41  0  0  1  0  0  0  0  0999 V2000
   26.5128  -20.4499  -17.8330 N   0  0  0  0  0  0  0  0  0  0  0  0
   25.9889  -19.5823  -16.8160 C   0  0  1  0  0  0  0  0  0  0  0  0
   24.8597  -18.7096  -17.3035 C   0  0  0  0  0  0  0  0  0  0  0  0
   25.4409  -17.5834  -18.0766 C   0  0  0  0  0  0  0  0  0  0  0  0
   25.2429  -17.3638  -19.4446 C   0  0  0  0  0  0  0  0  0  0  0  0
   25.8803  -16.2451  -19.8311 N   0  0  0  0  0  0  0  0  0  0  0  0
   26.4958  -15.7165  -18.7591 C   0  0  0  0  0  0  0  0  0  0  0  0
   27.2756  -14.5881  -18.6315 C   0  0  0  0  0  0  0  0  0  0  0  0
   27.7873  -14.2967  -17.3872 C   0  0  0  0  0  0  0  0  0  0  0  0
   27.5531  -15.0787  -16.2817 C   0  0  0  0  0  0  0  0  0  0  0  0
   26.7623  -16.2163  -16.4278 C   0  0  0  0  0  0  0  0  0  0  0  0
   26.2338  -16.5356  -17.6607 C   0  0  0  0  0  0  0  0  0  0  0  0
   25.6230  -20.3343  -15.5862 C   0  0  0  0  0  0  0  0  0  0  0  0
   25.1099  -21.4635  -15.6863 O   0  0  0  0  0  0  0  0  0  0  0  0
   25.8807  -19.7192  -14.3321 N   0  0  0  0  0  0  0  0  0  0  0  0
   25.5961  -20.4740  -13.1340 C   0  0  1  0  0  0  0  0  0  0  0  0
   26.2586  -19.7760  -11.9305 C   0  0  0  0  0  0  0  0  0  0  0  0
   25.8894  -20.4541  -10.6701 C   0  0  0  0  0  0  0  0  0  0  0  0
   25.0314  -19.8701   -9.7660 C   0  0  0  0  0  0  0  0  0  0  0  0
   24.6876  -20.5152   -8.5822 C   0  0  0  0  0  0  0  0  0  0  0  0
   25.1909  -21.7588   -8.2709 C   0  0  0  0  0  0  0  0  0  0  0  0
   26.0531  -22.3496   -9.1758 C   0  0  0  0  0  0  0  0  0  0  0  0
   26.3939  -21.6960  -10.3624 C   0  0  0  0  0  0  0  0  0  0  0  0
   24.1446  -20.4002  -12.8572 C   0  0  0  0  0  0  0  0  0  0  0  0
   23.6313  -19.2716  -12.6913 O   0  0  0  0  0  0  0  0  0  0  0  0
   18.7914  -24.9111   -7.8781 O   0  0  0  0  0  0  0  0  0  0  0  0
   19.6197  -24.0374   -8.5832 C   0  0  0  0  0  0  0  0  0  0  0  0
   19.6820  -24.0453   -9.9600 C   0  0  0  0  0  0  0  0  0  0  0  0
   20.5247  -23.1511  -10.5827 C   0  0  0  0  0  0  0  0  0  0  0  0
   21.2947  -22.2620   -9.8550 C   0  0  0  0  0  0  0  0  0  0  0  0
   22.1772  -21.3285  -10.6377 C   0  0  0  0  0  0  0  0  0  0  0  0
   22.0563  -21.6036  -12.1126 C   0  0  2  0  0  0  0  0  0  0  0  0
   23.3428  -21.5726  -12.7789 N   0  0  0  0  0  0  0  0  0  0  0  0
   21.1649  -20.6270  -12.7816 C   0  0  0  0  0  0  0  0  0  0  0  0
   20.2410  -20.9821  -13.5570 O   0  0  0  0  0  0  0  0  0  0  0  0
   21.2318  -22.2559   -8.4963 C   0  0  0  0  0  0  0  0  0  0  0  0
   20.3984  -23.1389   -7.8560 C   0  0  0  0  0  0  0  0  0  0  0  0
   21.3073  -19.2464  -12.5825 O   0  0  0  0  0  0  0  0  0  0  0  0
  2  1  1  6
  2  3  1  0
  4  3  1  0
  4  5  2  0
  6  5  1  0
  7  6  1  0
  8  7  2  0
  9  8  1  0
 10  9  2  0
 10 11  1  0
 11 12  2  0
 12  7  1  0
 12  4  1  0
 13  2  1  0
 13 14  2  0
 15 13  1  0
 16 17  1  1
 16 15  1  0
 18 17  1  0
 18 23  1  0
 19 18  2  0
 20 19  1  0
 20 21  2  0
 21 22  1  0
 22 23  2  0
 24 16  1  0
 25 24  2  0
 27 26  1  0
 27 28  2  0
 29 28  1  0
 30 29  2  0
 32 31  1  1
 31 30  1  0
 32 33  1  0
 33 24  1  0
 34 38  1  0
 34 32  1  0
 35 34  2  0
 36 37  2  0
 36 30  1  0
 37 27  1  0
M  END
$$$$
