WFY.pdb
     RDKit          3D

 38 41  0  0  1  0  0  0  0  0999 V2000
   28.2813  -20.5970  -16.5949 N   0  0  0  0  0  0  0  0  0  0  0  0
   27.2657  -20.2021  -15.6600 C   0  0  1  0  0  0  0  0  0  0  0  0
   26.2486  -19.2585  -16.2511 C   0  0  0  0  0  0  0  0  0  0  0  0
   26.9406  -17.9979  -16.6199 C   0  0  0  0  0  0  0  0  0  0  0  0
   27.4328  -17.6973  -17.8951 C   0  0  0  0  0  0  0  0  0  0  0  0
   27.9767  -16.4680  -17.9037 N   0  0  0  0  0  0  0  0  0  0  0  0
   27.8600  -15.9447  -16.6709 C   0  0  0  0  0  0  0  0  0  0  0  0
   28.2604  -14.7273  -16.1657 C   0  0  0  0  0  0  0  0  0  0  0  0
   28.0088  -14.4674  -14.8374 C   0  0  0  0  0  0  0  0  0  0  0  0
   27.3816  -15.3647  -14.0068 C   0  0  0  0  0  0  0  0  0  0  0  0
   26.9827  -16.5912  -14.5335 C   0  0  0  0  0  0  0  0  0  0  0  0
   27.2191  -16.8821  -15.8605 C   0  0  0  0  0  0  0  0  0  0  0  0
   26.6266  -21.3785  -15.0125 C   0  0  0  0  0  0  0  0  0  0  0  0
   26.3745  -22.3913  -15.6901 O   0  0  0  0  0  0  0  0  0  0  0  0
   26.3283  -21.2912  -13.6265 N   0  0  0  0  0  0  0  0  0  0  0  0
   25.2728  -22.1279  -13.1047 C   0  0  1  0  0  0  0  0  0  0  0  0
   25.6299  -22.5496  -11.6663 C   0  0  0  0  0  0  0  0  0  0  0  0
   25.8575  -21.3601  -10.8187 C   0  0  0  0  0  0  0  0  0  0  0  0
   24.9379  -20.9662   -9.8734 C   0  0  0  0  0  0  0  0  0  0  0  0
   25.1597  -19.8462   -9.0785 C   0  0  0  0  0  0  0  0  0  0  0  0
   26.3044  -19.0912   -9.2068 C   0  0  0  0  0  0  0  0  0  0  0  0
   27.2313  -19.4827  -10.1550 C   0  0  0  0  0  0  0  0  0  0  0  0
   27.0018  -20.6084  -10.9496 C   0  0  0  0  0  0  0  0  0  0  0  0
   24.0453  -21.3143  -12.9626 C   0  0  0  0  0  0  0  0  0  0  0  0
   24.1622  -20.0693  -12.9291 O   0  0  0  0  0  0  0  0  0  0  0  0
   16.6064  -17.7790  -15.1553 O   0  0  0  0  0  0  0  0  0  0  0  0
   17.7999  -18.4814  -14.9869 C   0  0  0  0  0  0  0  0  0  0  0  0
   17.9269  -19.8013  -15.3628 C   0  0  0  0  0  0  0  0  0  0  0  0
   19.1387  -20.4254  -15.1638 C   0  0  0  0  0  0  0  0  0  0  0  0
   20.2094  -19.7546  -14.6014 C   0  0  0  0  0  0  0  0  0  0  0  0
   21.4860  -20.5323  -14.4330 C   0  0  0  0  0  0  0  0  0  0  0  0
   21.5286  -21.1858  -13.0777 C   0  0  2  0  0  0  0  0  0  0  0  0
   22.7611  -21.9181  -12.8655 N   0  0  0  0  0  0  0  0  0  0  0  0
   20.3954  -22.1206  -12.8833 C   0  0  0  0  0  0  0  0  0  0  0  0
   20.3680  -23.2618  -13.4103 O   0  0  0  0  0  0  0  0  0  0  0  0
   20.0820  -18.4520  -14.2311 C   0  0  0  0  0  0  0  0  0  0  0  0
   18.8829  -17.8113  -14.4207 C   0  0  0  0  0  0  0  0  0  0  0  0
   19.2873  -21.7774  -12.0957 O   0  0  0  0  0  0  0  0  0  0  0  0
  2  1  1  6
  2  3  1  0
  4  3  1  0
  4  5  2  0
  6  5  1  0
  7  6  1  0
  8  7  2  0
  9  8  1  0
 10  9  2  0
 10 11  1  0
 11 12  2  0
 12  7  1  0
 12  4  1  0
 13  2  1  0
 13 14  2  0
 15 13  1  0
 16 17  1  1
 16 15  1  0
 18 17  1  0
 18 23  1  0
 19 18  2  0
 20 19  1  0
 20 21  2  0
 21 22  1  0
 22 23  2  0
 24 16  1  0
 25 24  2  0
 27 26  1  0
 27 28  2  0
 29 28  1  0
 30 29  2  0
 32 31  1  6
 31 30  1  0
 32 33  1  0
 33 24  1  0
 34 38  1  0
 34 32  1  0
 35 34  2  0
 36 37  2  0
 36 30  1  0
 37 27  1  0
M  END
$$$$
