WFY.pdb
     RDKit          3D

 38 41  0  0  1  0  0  0  0  0999 V2000
   26.2994  -22.0398  -12.9366 N   0  0  0  0  0  0  0  0  0  0  0  0
   26.6301  -20.9075  -12.1181 C   0  0  1  0  0  0  0  0  0  0  0  0
   25.7319  -19.7197  -12.3564 C   0  0  0  0  0  0  0  0  0  0  0  0
   25.9305  -19.2574  -13.7530 C   0  0  0  0  0  0  0  0  0  0  0  0
   24.9040  -18.8768  -14.6250 C   0  0  0  0  0  0  0  0  0  0  0  0
   25.4189  -18.4828  -15.8026 N   0  0  0  0  0  0  0  0  0  0  0  0
   26.7573  -18.5916  -15.7372 C   0  0  0  0  0  0  0  0  0  0  0  0
   27.7315  -18.3206  -16.6727 C   0  0  0  0  0  0  0  0  0  0  0  0
   29.0434  -18.5401  -16.3180 C   0  0  0  0  0  0  0  0  0  0  0  0
   29.4135  -19.0133  -15.0820 C   0  0  0  0  0  0  0  0  0  0  0  0
   28.4160  -19.2820  -14.1473 C   0  0  0  0  0  0  0  0  0  0  0  0
   27.0922  -19.0719  -14.4710 C   0  0  0  0  0  0  0  0  0  0  0  0
   26.7038  -21.2723  -10.6783 C   0  0  0  0  0  0  0  0  0  0  0  0
   26.0644  -22.2543  -10.2596 O   0  0  0  0  0  0  0  0  0  0  0  0
   27.5149  -20.4699   -9.8321 N   0  0  0  0  0  0  0  0  0  0  0  0
   27.4628  -20.7147   -8.4096 C   0  0  1  0  0  0  0  0  0  0  0  0
   28.5928  -19.9246   -7.7216 C   0  0  0  0  0  0  0  0  0  0  0  0
   28.4736  -20.0232   -6.2515 C   0  0  0  0  0  0  0  0  0  0  0  0
   27.7798  -19.0835   -5.5235 C   0  0  0  0  0  0  0  0  0  0  0  0
   27.6709  -19.1837   -4.1401 C   0  0  0  0  0  0  0  0  0  0  0  0
   28.2514  -20.2237   -3.4486 C   0  0  0  0  0  0  0  0  0  0  0  0
   28.9496  -21.1701   -4.1754 C   0  0  0  0  0  0  0  0  0  0  0  0
   29.0547  -21.0631   -5.5642 C   0  0  0  0  0  0  0  0  0  0  0  0
   26.2152  -20.1301   -7.8704 C   0  0  0  0  0  0  0  0  0  0  0  0
   25.6655  -19.2112   -8.5171 O   0  0  0  0  0  0  0  0  0  0  0  0
   18.1808  -22.7291   -7.0446 O   0  0  0  0  0  0  0  0  0  0  0  0
   19.5550  -22.5235   -7.1702 C   0  0  0  0  0  0  0  0  0  0  0  0
   20.4665  -23.5288   -6.9289 C   0  0  0  0  0  0  0  0  0  0  0  0
   21.8068  -23.2466   -7.0746 C   0  0  0  0  0  0  0  0  0  0  0  0
   22.2400  -21.9890   -7.4533 C   0  0  0  0  0  0  0  0  0  0  0  0
   23.7257  -21.7929   -7.5847 C   0  0  0  0  0  0  0  0  0  0  0  0
   24.2333  -20.8795   -6.5014 C   0  0  2  0  0  0  0  0  0  0  0  0
   25.6455  -20.5907   -6.6510 N   0  0  0  0  0  0  0  0  0  0  0  0
   24.0189  -21.4553   -5.1530 C   0  0  0  0  0  0  0  0  0  0  0  0
   22.8877  -21.4784   -4.6045 O   0  0  0  0  0  0  0  0  0  0  0  0
   21.3389  -20.9982   -7.6910 C   0  0  0  0  0  0  0  0  0  0  0  0
   19.9983  -21.2584   -7.5515 C   0  0  0  0  0  0  0  0  0  0  0  0
   25.0747  -22.0081   -4.4143 O   0  0  0  0  0  0  0  0  0  0  0  0
  2  1  1  6
  2  3  1  0
  4  3  1  0
  4  5  2  0
  6  5  1  0
  7  6  1  0
  8  7  2  0
  9  8  1  0
 10  9  2  0
 10 11  1  0
 11 12  2  0
 12  7  1  0
 12  4  1  0
 13  2  1  0
 13 14  2  0
 15 13  1  0
 16 17  1  1
 16 15  1  0
 18 17  1  0
 18 23  1  0
 19 18  2  0
 20 19  1  0
 20 21  2  0
 21 22  1  0
 22 23  2  0
 24 16  1  0
 25 24  2  0
 27 26  1  0
 27 28  2  0
 29 28  1  0
 30 29  2  0
 32 31  1  6
 31 30  1  0
 32 33  1  0
 33 24  1  0
 34 38  1  0
 34 32  1  0
 35 34  2  0
 36 37  2  0
 36 30  1  0
 37 27  1  0
M  END
$$$$
