WFY.pdb
     RDKit          3D

 38 41  0  0  1  0  0  0  0  0999 V2000
   22.8152  -19.2445  -14.1396 N   0  0  0  0  0  0  0  0  0  0  0  0
   23.6512  -20.3699  -13.8295 C   0  0  1  0  0  0  0  0  0  0  0  0
   22.9217  -21.6881  -13.8964 C   0  0  0  0  0  0  0  0  0  0  0  0
   22.1243  -21.8436  -12.6538 C   0  0  0  0  0  0  0  0  0  0  0  0
   20.7584  -22.1455  -12.6105 C   0  0  0  0  0  0  0  0  0  0  0  0
   20.3464  -22.2458  -11.3349 N   0  0  0  0  0  0  0  0  0  0  0  0
   21.3995  -22.0186  -10.5306 C   0  0  0  0  0  0  0  0  0  0  0  0
   21.4985  -22.0006   -9.1568 C   0  0  0  0  0  0  0  0  0  0  0  0
   22.7287  -21.7252   -8.6036 C   0  0  0  0  0  0  0  0  0  0  0  0
   23.8473  -21.4705   -9.3600 C   0  0  0  0  0  0  0  0  0  0  0  0
   23.7302  -21.4928  -10.7480 C   0  0  0  0  0  0  0  0  0  0  0  0
   22.5121  -21.7664  -11.3335 C   0  0  0  0  0  0  0  0  0  0  0  0
   24.8921  -20.3758  -14.6492 C   0  0  0  0  0  0  0  0  0  0  0  0
   24.9371  -19.7120  -15.7007 O   0  0  0  0  0  0  0  0  0  0  0  0
   25.9882  -21.1517  -14.1864 N   0  0  0  0  0  0  0  0  0  0  0  0
   27.3004  -20.8553  -14.7122 C   0  0  1  0  0  0  0  0  0  0  0  0
   28.3459  -21.0574  -13.5984 C   0  0  0  0  0  0  0  0  0  0  0  0
   28.0238  -20.2164  -12.4262 C   0  0  0  0  0  0  0  0  0  0  0  0
   28.1380  -18.8456  -12.4737 C   0  0  0  0  0  0  0  0  0  0  0  0
   27.8318  -18.0606  -11.3666 C   0  0  0  0  0  0  0  0  0  0  0  0
   27.4041  -18.6235  -10.1847 C   0  0  0  0  0  0  0  0  0  0  0  0
   27.2879  -20.0001  -10.1319 C   0  0  0  0  0  0  0  0  0  0  0  0
   27.5970  -20.7819  -11.2474 C   0  0  0  0  0  0  0  0  0  0  0  0
   27.6437  -21.8667  -15.7360 C   0  0  0  0  0  0  0  0  0  0  0  0
   27.0438  -22.9640  -15.7071 O   0  0  0  0  0  0  0  0  0  0  0  0
   25.1885  -18.1786  -20.6173 O   0  0  0  0  0  0  0  0  0  0  0  0
   25.7746  -19.3322  -20.0958 C   0  0  0  0  0  0  0  0  0  0  0  0
   25.3417  -19.8994  -18.9166 C   0  0  0  0  0  0  0  0  0  0  0  0
   25.9722  -21.0388  -18.4675 C   0  0  0  0  0  0  0  0  0  0  0  0
   27.0155  -21.6093  -19.1737 C   0  0  0  0  0  0  0  0  0  0  0  0
   27.6291  -22.8538  -18.5927 C   0  0  0  0  0  0  0  0  0  0  0  0
   28.8845  -22.5163  -17.8341 C   0  0  2  0  0  0  0  0  0  0  0  0
   28.6271  -21.6115  -16.7316 N   0  0  0  0  0  0  0  0  0  0  0  0
   29.9063  -21.8981  -18.7113 C   0  0  0  0  0  0  0  0  0  0  0  0
   30.3137  -20.7207  -18.5418 O   0  0  0  0  0  0  0  0  0  0  0  0
   27.4413  -21.0480  -20.3372 C   0  0  0  0  0  0  0  0  0  0  0  0
   26.8266  -19.9122  -20.8025 C   0  0  0  0  0  0  0  0  0  0  0  0
   30.4754  -22.6000  -19.7834 O   0  0  0  0  0  0  0  0  0  0  0  0
  2  1  1  6
  2  3  1  0
  4  3  1  0
  4  5  2  0
  6  5  1  0
  7  6  1  0
  8  7  2  0
  9  8  1  0
 10  9  2  0
 10 11  1  0
 11 12  2  0
 12  7  1  0
 12  4  1  0
 13  2  1  0
 13 14  2  0
 15 13  1  0
 16 17  1  1
 16 15  1  0
 18 17  1  0
 18 23  1  0
 19 18  2  0
 20 19  1  0
 20 21  2  0
 21 22  1  0
 22 23  2  0
 24 16  1  0
 25 24  2  0
 27 26  1  0
 27 28  2  0
 29 28  1  0
 30 29  2  0
 32 31  1  6
 31 30  1  0
 32 33  1  0
 33 24  1  0
 34 38  1  0
 34 32  1  0
 35 34  2  0
 36 37  2  0
 36 30  1  0
 37 27  1  0
M  END
$$$$
