PSP.pdb
     RDKit          3D

 21 22  0  0  1  0  0  0  0  0999 V2000
    7.3384  -15.0901   19.1741 N   0  0  0  0  0  0  0  0  0  0  0  0
    7.9689  -14.4984   18.0204 C   0  0  0  0  0  0  0  0  0  0  0  0
    7.9501  -13.0333   18.3466 C   0  0  0  0  0  0  0  0  0  0  0  0
    8.1070  -13.0406   19.8695 C   0  0  0  0  0  0  0  0  0  0  0  0
    8.0415  -14.4832   20.2755 C   0  0  1  0  0  0  0  0  0  0  0  0
    7.3386  -14.6868   21.5724 C   0  0  0  0  0  0  0  0  0  0  0  0
    6.1382  -14.3707   21.6148 O   0  0  0  0  0  0  0  0  0  0  0  0
    6.2313  -17.4596   23.4333 O   0  0  0  0  0  0  0  0  0  0  0  0
    7.1279  -16.8476   24.2391 C   0  0  0  0  0  0  0  0  0  0  0  0
    7.3653  -15.3705   23.9976 C   0  0  2  0  0  0  0  0  0  0  0  0
    8.0336  -15.2188   22.6897 N   0  0  0  0  0  0  0  0  0  0  0  0
    8.1294  -14.6884   25.0437 C   0  0  0  0  0  0  0  0  0  0  0  0
    9.4015  -14.9109   25.0288 O   0  0  0  0  0  0  0  0  0  0  0  0
    7.6230  -13.8168   26.0541 N   0  0  0  0  0  0  0  0  0  0  0  0
    6.2793  -13.2967   26.0908 C   0  0  0  0  0  0  0  0  0  0  0  0
    6.4718  -11.9188   26.7763 C   0  0  0  0  0  0  0  0  0  0  0  0
    7.4068  -12.3628   27.8819 C   0  0  0  0  0  0  0  0  0  0  0  0
    8.3373  -13.2893   27.1846 C   0  0  1  0  0  0  0  0  0  0  0  0
    8.8731  -14.3536   28.0658 C   0  0  0  0  0  0  0  0  0  0  0  0
    9.8535  -13.9983   28.9732 O   0  0  0  0  0  0  0  0  0  0  0  0
    8.4842  -15.5331   28.0236 O   0  0  0  0  0  0  0  0  0  0  0  0
  2  1  1  0
  3  2  1  0
  4  3  1  0
  4  5  1  0
  5  1  1  0
  6 11  1  0
  5  6  1  1
  7  6  2  0
  9  8  1  0
 10  9  1  1
 10 11  1  0
 10 12  1  0
 12 13  2  0
 14 12  1  0
 14 15  1  0
 16 15  1  0
 17 16  1  0
 18 17  1  0
 18 14  1  0
 18 19  1  1
 19 20  1  0
 21 19  2  0
M  END
$$$$
