PSP.pdb
     RDKit          3D

 21 22  0  0  1  0  0  0  0  0999 V2000
    8.5265  -15.1879   19.9055 N   0  0  0  0  0  0  0  0  0  0  0  0
    8.7095  -14.7974   18.5299 C   0  0  0  0  0  0  0  0  0  0  0  0
    7.7642  -13.6404   18.3845 C   0  0  0  0  0  0  0  0  0  0  0  0
    7.8116  -13.0091   19.7784 C   0  0  0  0  0  0  0  0  0  0  0  0
    8.6390  -13.9393   20.6153 C   0  0  1  0  0  0  0  0  0  0  0  0
    8.1499  -14.0434   22.0181 C   0  0  0  0  0  0  0  0  0  0  0  0
    8.2204  -13.0169   22.7138 O   0  0  0  0  0  0  0  0  0  0  0  0
    6.0371  -17.0606   25.2895 O   0  0  0  0  0  0  0  0  0  0  0  0
    6.4560  -16.7262   24.0483 C   0  0  0  0  0  0  0  0  0  0  0  0
    7.1614  -15.3929   23.9026 C   0  0  2  0  0  0  0  0  0  0  0  0
    7.6330  -15.2708   22.5086 N   0  0  0  0  0  0  0  0  0  0  0  0
    8.2671  -15.1734   24.8368 C   0  0  0  0  0  0  0  0  0  0  0  0
    9.3635  -15.7903   24.5454 O   0  0  0  0  0  0  0  0  0  0  0  0
    8.2583  -14.3602   26.0097 N   0  0  0  0  0  0  0  0  0  0  0  0
    7.1947  -13.4586   26.3750 C   0  0  0  0  0  0  0  0  0  0  0  0
    7.9513  -12.3382   27.1351 C   0  0  0  0  0  0  0  0  0  0  0  0
    8.8497  -13.2230   27.9741 C   0  0  0  0  0  0  0  0  0  0  0  0
    9.2844  -14.2703   27.0125 C   0  0  1  0  0  0  0  0  0  0  0  0
    9.5663  -15.5751   27.6561 C   0  0  0  0  0  0  0  0  0  0  0  0
   10.6899  -15.6629   28.4568 O   0  0  0  0  0  0  0  0  0  0  0  0
    8.8466  -16.5772   27.5086 O   0  0  0  0  0  0  0  0  0  0  0  0
  2  1  1  0
  3  2  1  0
  4  3  1  0
  4  5  1  0
  5  1  1  0
  6 11  1  0
  5  6  1  1
  7  6  2  0
  9  8  1  0
 10  9  1  6
 10 11  1  0
 10 12  1  0
 12 13  2  0
 14 12  1  0
 14 15  1  0
 16 15  1  0
 17 16  1  0
 18 17  1  0
 18 14  1  0
 18 19  1  1
 19 20  1  0
 21 19  2  0
M  END
$$$$
