PSP.pdb
     RDKit          3D

 21 22  0  0  1  0  0  0  0  0999 V2000
    7.1971  -14.9009   19.5923 N   0  0  0  0  0  0  0  0  0  0  0  0
    7.8084  -14.2812   18.4431 C   0  0  0  0  0  0  0  0  0  0  0  0
    8.1017  -12.8924   18.9315 C   0  0  0  0  0  0  0  0  0  0  0  0
    8.4078  -13.1301   20.4126 C   0  0  0  0  0  0  0  0  0  0  0  0
    8.1106  -14.5797   20.6591 C   0  0  1  0  0  0  0  0  0  0  0  0
    7.5168  -14.8273   22.0021 C   0  0  0  0  0  0  0  0  0  0  0  0
    6.3218  -14.5231   22.1511 O   0  0  0  0  0  0  0  0  0  0  0  0
    7.4687  -17.8523   24.4429 O   0  0  0  0  0  0  0  0  0  0  0  0
    6.8921  -16.6356   24.5657 C   0  0  0  0  0  0  0  0  0  0  0  0
    7.8034  -15.4322   24.4314 C   0  0  2  0  0  0  0  0  0  0  0  0
    8.3038  -15.3855   23.0429 N   0  0  0  0  0  0  0  0  0  0  0  0
    8.9197  -15.3938   25.3780 C   0  0  0  0  0  0  0  0  0  0  0  0
    9.9667  -16.0599   25.0205 O   0  0  0  0  0  0  0  0  0  0  0  0
    8.9693  -14.7054   26.6273 N   0  0  0  0  0  0  0  0  0  0  0  0
    7.9309  -13.8413   27.1297 C   0  0  0  0  0  0  0  0  0  0  0  0
    8.7300  -12.8085   27.9665 C   0  0  0  0  0  0  0  0  0  0  0  0
    9.6560  -13.7790   28.6698 C   0  0  0  0  0  0  0  0  0  0  0  0
   10.0388  -14.7238   27.5877 C   0  0  1  0  0  0  0  0  0  0  0  0
   10.3367  -16.0892   28.0810 C   0  0  0  0  0  0  0  0  0  0  0  0
   11.4882  -16.2621   28.8261 O   0  0  0  0  0  0  0  0  0  0  0  0
    9.6063  -17.0691   27.8566 O   0  0  0  0  0  0  0  0  0  0  0  0
  2  1  1  0
  3  2  1  0
  4  3  1  0
  4  5  1  0
  5  1  1  0
  6 11  1  0
  5  6  1  1
  7  6  2  0
  9  8  1  0
 10  9  1  6
 10 11  1  0
 10 12  1  0
 12 13  2  0
 14 12  1  0
 14 15  1  0
 16 15  1  0
 17 16  1  0
 18 17  1  0
 18 14  1  0
 18 19  1  1
 19 20  1  0
 21 19  2  0
M  END
$$$$
