PSP.pdb
     RDKit          3D

 21 22  0  0  1  0  0  0  0  0999 V2000
    7.5483  -15.0340   18.8200 N   0  0  0  0  0  0  0  0  0  0  0  0
    8.2723  -14.3652   17.7680 C   0  0  0  0  0  0  0  0  0  0  0  0
    8.3250  -12.9452   18.2518 C   0  0  0  0  0  0  0  0  0  0  0  0
    8.4017  -13.1253   19.7702 C   0  0  0  0  0  0  0  0  0  0  0  0
    8.2284  -14.5956   20.0120 C   0  0  1  0  0  0  0  0  0  0  0  0
    7.4480  -14.8899   21.2457 C   0  0  0  0  0  0  0  0  0  0  0  0
    6.3225  -15.3916   21.0903 O   0  0  0  0  0  0  0  0  0  0  0  0
    6.6901  -17.1208   24.8503 O   0  0  0  0  0  0  0  0  0  0  0  0
    7.1414  -16.5285   23.7219 C   0  0  0  0  0  0  0  0  0  0  0  0
    7.2960  -15.0214   23.7575 C   0  0  2  0  0  0  0  0  0  0  0  0
    7.9908  -14.6000   22.5246 N   0  0  0  0  0  0  0  0  0  0  0  0
    7.9877  -14.4989   24.9374 C   0  0  0  0  0  0  0  0  0  0  0  0
    9.2316  -14.8314   25.0374 O   0  0  0  0  0  0  0  0  0  0  0  0
    7.4401  -13.6728   25.9643 N   0  0  0  0  0  0  0  0  0  0  0  0
    6.0845  -13.1835   25.9881 C   0  0  0  0  0  0  0  0  0  0  0  0
    6.2311  -11.8254   26.7226 C   0  0  0  0  0  0  0  0  0  0  0  0
    7.1518  -12.2856   27.8337 C   0  0  0  0  0  0  0  0  0  0  0  0
    8.1177  -13.1679   27.1273 C   0  0  1  0  0  0  0  0  0  0  0  0
    8.6581  -14.2491   27.9847 C   0  0  0  0  0  0  0  0  0  0  0  0
    9.6385  -13.9101   28.8985 O   0  0  0  0  0  0  0  0  0  0  0  0
    8.2729  -15.4286   27.9177 O   0  0  0  0  0  0  0  0  0  0  0  0
  2  1  1  0
  3  2  1  0
  4  3  1  0
  4  5  1  0
  5  1  1  0
  6 11  1  0
  5  6  1  1
  7  6  2  0
  9  8  1  0
 10  9  1  1
 10 11  1  0
 10 12  1  0
 12 13  2  0
 14 12  1  0
 14 15  1  0
 16 15  1  0
 17 16  1  0
 18 17  1  0
 18 14  1  0
 18 19  1  1
 19 20  1  0
 21 19  2  0
M  END
$$$$
