PSP.pdb
     RDKit          3D

 21 22  0  0  1  0  0  0  0  0999 V2000
    7.7660  -15.2246   18.8279 N   0  0  0  0  0  0  0  0  0  0  0  0
    8.5341  -14.6671   17.7427 C   0  0  0  0  0  0  0  0  0  0  0  0
    8.5021  -13.1951   18.0351 C   0  0  0  0  0  0  0  0  0  0  0  0
    8.4835  -13.1715   19.5658 C   0  0  0  0  0  0  0  0  0  0  0  0
    8.3483  -14.6038   19.9904 C   0  0  1  0  0  0  0  0  0  0  0  0
    7.4982  -14.7693   21.2019 C   0  0  0  0  0  0  0  0  0  0  0  0
    6.3100  -15.0787   21.0146 O   0  0  0  0  0  0  0  0  0  0  0  0
    6.3978  -16.9597   24.7501 O   0  0  0  0  0  0  0  0  0  0  0  0
    7.0129  -16.4262   23.6708 C   0  0  0  0  0  0  0  0  0  0  0  0
    7.2830  -14.9355   23.7070 C   0  0  2  0  0  0  0  0  0  0  0  0
    8.0478  -14.5760   22.4960 N   0  0  0  0  0  0  0  0  0  0  0  0
    7.9750  -14.4620   24.9072 C   0  0  0  0  0  0  0  0  0  0  0  0
    9.2263  -14.7729   24.9789 O   0  0  0  0  0  0  0  0  0  0  0  0
    7.4202  -13.7032   25.9813 N   0  0  0  0  0  0  0  0  0  0  0  0
    6.0294  -13.3437   26.0991 C   0  0  0  0  0  0  0  0  0  0  0  0
    6.0961  -11.9868   26.8472 C   0  0  0  0  0  0  0  0  0  0  0  0
    7.1252  -12.3718   27.8897 C   0  0  0  0  0  0  0  0  0  0  0  0
    8.1214  -13.1510   27.1081 C   0  0  1  0  0  0  0  0  0  0  0  0
    8.8140  -14.1869   27.9102 C   0  0  0  0  0  0  0  0  0  0  0  0
    8.3788  -15.4925   27.7801 O   0  0  0  0  0  0  0  0  0  0  0  0
    9.7544  -13.9349   28.6824 O   0  0  0  0  0  0  0  0  0  0  0  0
  2  1  1  0
  3  2  1  0
  4  3  1  0
  4  5  1  0
  5  1  1  0
  6 11  1  0
  5  6  1  1
  7  6  2  0
  9  8  1  0
 10  9  1  1
 10 11  1  0
 10 12  1  0
 12 13  2  0
 14 12  1  0
 14 15  1  0
 16 15  1  0
 17 16  1  0
 18 17  1  0
 18 14  1  0
 18 19  1  1
 19 20  1  0
 21 19  2  0
M  END
$$$$
