PSP.pdb
     RDKit          3D

 21 22  0  0  1  0  0  0  0  0999 V2000
    7.7963  -15.1528   18.7795 N   0  0  0  0  0  0  0  0  0  0  0  0
    8.3584  -14.3783   17.7013 C   0  0  0  0  0  0  0  0  0  0  0  0
    7.9934  -12.9716   18.0775 C   0  0  0  0  0  0  0  0  0  0  0  0
    8.0424  -13.0245   19.6067 C   0  0  0  0  0  0  0  0  0  0  0  0
    8.2698  -14.4660   19.9541 C   0  0  1  0  0  0  0  0  0  0  0  0
    7.5414  -14.8856   21.1833 C   0  0  0  0  0  0  0  0  0  0  0  0
    6.4633  -15.4804   21.0202 O   0  0  0  0  0  0  0  0  0  0  0  0
    6.5995  -17.0656   24.7504 O   0  0  0  0  0  0  0  0  0  0  0  0
    7.0901  -16.4873   23.6311 C   0  0  0  0  0  0  0  0  0  0  0  0
    7.3565  -14.9968   23.6940 C   0  0  2  0  0  0  0  0  0  0  0  0
    8.0785  -14.6053   22.4668 N   0  0  0  0  0  0  0  0  0  0  0  0
    8.0872  -14.5492   24.8810 C   0  0  0  0  0  0  0  0  0  0  0  0
    9.3130  -14.9489   24.9550 O   0  0  0  0  0  0  0  0  0  0  0  0
    7.5946  -13.7293   25.9403 N   0  0  0  0  0  0  0  0  0  0  0  0
    6.2783  -13.1435   25.9801 C   0  0  0  0  0  0  0  0  0  0  0  0
    6.5189  -11.8320   26.7724 C   0  0  0  0  0  0  0  0  0  0  0  0
    7.3961  -12.4050   27.8661 C   0  0  0  0  0  0  0  0  0  0  0  0
    8.2996  -13.3250   27.1261 C   0  0  1  0  0  0  0  0  0  0  0  0
    8.7539  -14.4782   27.9386 C   0  0  0  0  0  0  0  0  0  0  0  0
    9.7809  -14.2608   28.8381 O   0  0  0  0  0  0  0  0  0  0  0  0
    8.2582  -15.6139   27.8465 O   0  0  0  0  0  0  0  0  0  0  0  0
  2  1  1  0
  3  2  1  0
  4  3  1  0
  4  5  1  0
  5  1  1  0
  6 11  1  0
  5  6  1  1
  7  6  2  0
  9  8  1  0
 10  9  1  1
 10 11  1  0
 10 12  1  0
 12 13  2  0
 14 12  1  0
 14 15  1  0
 16 15  1  0
 17 16  1  0
 18 17  1  0
 18 14  1  0
 18 19  1  1
 19 20  1  0
 21 19  2  0
M  END
$$$$
