PSP.pdb
     RDKit          3D

 21 22  0  0  1  0  0  0  0  0999 V2000
    8.4970  -15.0815   19.7301 N   0  0  0  0  0  0  0  0  0  0  0  0
    8.7996  -14.7832   18.3525 C   0  0  0  0  0  0  0  0  0  0  0  0
    7.8323  -13.6811   18.0311 C   0  0  0  0  0  0  0  0  0  0  0  0
    7.7207  -12.9500   19.3715 C   0  0  0  0  0  0  0  0  0  0  0  0
    8.4949  -13.7814   20.3511 C   0  0  1  0  0  0  0  0  0  0  0  0
    7.8751  -13.8055   21.7049 C   0  0  0  0  0  0  0  0  0  0  0  0
    7.7306  -12.7113   22.2746 O   0  0  0  0  0  0  0  0  0  0  0  0
    7.0619  -17.4278   24.1208 O   0  0  0  0  0  0  0  0  0  0  0  0
    6.1883  -16.4574   23.7703 C   0  0  0  0  0  0  0  0  0  0  0  0
    6.7558  -15.0654   23.5783 C   0  0  2  0  0  0  0  0  0  0  0  0
    7.4784  -15.0358   22.2908 N   0  0  0  0  0  0  0  0  0  0  0  0
    7.6225  -14.5967   24.6612 C   0  0  0  0  0  0  0  0  0  0  0  0
    8.8556  -14.9716   24.5796 O   0  0  0  0  0  0  0  0  0  0  0  0
    7.2523  -13.7806   25.7720 N   0  0  0  0  0  0  0  0  0  0  0  0
    5.9444  -13.2079   25.9694 C   0  0  0  0  0  0  0  0  0  0  0  0
    6.2651  -11.8933   26.7273 C   0  0  0  0  0  0  0  0  0  0  0  0
    7.2728  -12.4564   27.7079 C   0  0  0  0  0  0  0  0  0  0  0  0
    8.0902  -13.3682   26.8648 C   0  0  1  0  0  0  0  0  0  0  0  0
    8.6501  -14.5159   27.6168 C   0  0  0  0  0  0  0  0  0  0  0  0
    9.6595  -14.2538   28.5242 O   0  0  0  0  0  0  0  0  0  0  0  0
    8.2564  -15.6851   27.4681 O   0  0  0  0  0  0  0  0  0  0  0  0
  2  1  1  0
  3  2  1  0
  4  3  1  0
  4  5  1  0
  5  1  1  0
  6 11  1  0
  5  6  1  1
  7  6  2  0
  9  8  1  0
 10  9  1  1
 10 11  1  0
 10 12  1  0
 12 13  2  0
 14 12  1  0
 14 15  1  0
 16 15  1  0
 17 16  1  0
 18 17  1  0
 18 14  1  0
 18 19  1  1
 19 20  1  0
 21 19  2  0
M  END
$$$$
