PSP.pdb
     RDKit          3D

 21 22  0  0  1  0  0  0  0  0999 V2000
    7.3860  -15.0388   18.8957 N   0  0  0  0  0  0  0  0  0  0  0  0
    8.0523  -14.3501   17.8186 C   0  0  0  0  0  0  0  0  0  0  0  0
    8.0759  -12.9278   18.2982 C   0  0  0  0  0  0  0  0  0  0  0  0
    8.2097  -13.1013   19.8134 C   0  0  0  0  0  0  0  0  0  0  0  0
    8.0917  -14.5757   20.0632 C   0  0  1  0  0  0  0  0  0  0  0  0
    7.3633  -14.8915   21.3231 C   0  0  0  0  0  0  0  0  0  0  0  0
    6.1931  -15.2919   21.2086 O   0  0  0  0  0  0  0  0  0  0  0  0
    6.6829  -17.2435   24.9022 O   0  0  0  0  0  0  0  0  0  0  0  0
    7.0823  -16.6396   23.7604 C   0  0  0  0  0  0  0  0  0  0  0  0
    7.3324  -15.1466   23.8299 C   0  0  2  0  0  0  0  0  0  0  0  0
    8.0021  -14.7328   22.5805 N   0  0  0  0  0  0  0  0  0  0  0  0
    8.1025  -14.7026   24.9932 C   0  0  0  0  0  0  0  0  0  0  0  0
    9.3137  -15.1466   25.0527 O   0  0  0  0  0  0  0  0  0  0  0  0
    7.6617  -13.8429   26.0438 N   0  0  0  0  0  0  0  0  0  0  0  0
    6.3670  -13.2119   26.0988 C   0  0  0  0  0  0  0  0  0  0  0  0
    6.6692  -11.8920   26.8551 C   0  0  0  0  0  0  0  0  0  0  0  0
    7.5512  -12.4699   27.9423 C   0  0  0  0  0  0  0  0  0  0  0  0
    8.4064  -13.4364   27.2042 C   0  0  1  0  0  0  0  0  0  0  0  0
    8.8401  -14.5859   28.0330 C   0  0  0  0  0  0  0  0  0  0  0  0
    9.8338  -14.3609   28.9673 O   0  0  0  0  0  0  0  0  0  0  0  0
    8.3556  -15.7250   27.9248 O   0  0  0  0  0  0  0  0  0  0  0  0
  2  1  1  0
  3  2  1  0
  4  3  1  0
  4  5  1  0
  5  1  1  0
  6 11  1  0
  5  6  1  1
  7  6  2  0
  9  8  1  0
 10  9  1  6
 10 11  1  0
 10 12  1  0
 12 13  2  0
 14 12  1  0
 14 15  1  0
 16 15  1  0
 17 16  1  0
 18 17  1  0
 18 14  1  0
 18 19  1  1
 19 20  1  0
 21 19  2  0
M  END
$$$$
