PSP.pdb
     RDKit          3D

 21 22  0  0  1  0  0  0  0  0999 V2000
    8.4882  -15.3747   19.8466 N   0  0  0  0  0  0  0  0  0  0  0  0
    8.7831  -15.1461   18.4540 C   0  0  0  0  0  0  0  0  0  0  0  0
    7.8426  -14.0329   18.0938 C   0  0  0  0  0  0  0  0  0  0  0  0
    7.7662  -13.2404   19.4014 C   0  0  0  0  0  0  0  0  0  0  0  0
    8.5286  -14.0489   20.4090 C   0  0  1  0  0  0  0  0  0  0  0  0
    7.9238  -13.9959   21.7689 C   0  0  0  0  0  0  0  0  0  0  0  0
    7.9139  -12.8905   22.3351 O   0  0  0  0  0  0  0  0  0  0  0  0
    6.8554  -17.4251   24.4606 O   0  0  0  0  0  0  0  0  0  0  0  0
    6.0684  -16.4627   23.9293 C   0  0  0  0  0  0  0  0  0  0  0  0
    6.7151  -15.1159   23.6753 C   0  0  2  0  0  0  0  0  0  0  0  0
    7.3919  -15.1695   22.3639 N   0  0  0  0  0  0  0  0  0  0  0  0
    7.6475  -14.6726   24.7134 C   0  0  0  0  0  0  0  0  0  0  0  0
    8.8649  -15.0786   24.5686 O   0  0  0  0  0  0  0  0  0  0  0  0
    7.3552  -13.8504   25.8429 N   0  0  0  0  0  0  0  0  0  0  0  0
    6.0534  -13.3154   26.1533 C   0  0  0  0  0  0  0  0  0  0  0  0
    6.4000  -11.9794   26.8606 C   0  0  0  0  0  0  0  0  0  0  0  0
    7.5116  -12.4949   27.7507 C   0  0  0  0  0  0  0  0  0  0  0  0
    8.2768  -13.3945   26.8475 C   0  0  1  0  0  0  0  0  0  0  0  0
    8.9407  -14.5119   27.5594 C   0  0  0  0  0  0  0  0  0  0  0  0
    8.3484  -15.7587   27.4845 O   0  0  0  0  0  0  0  0  0  0  0  0
    9.9906  -14.3771   28.2103 O   0  0  0  0  0  0  0  0  0  0  0  0
  2  1  1  0
  3  2  1  0
  4  3  1  0
  4  5  1  0
  5  1  1  0
  6 11  1  0
  5  6  1  1
  7  6  2  0
  9  8  1  0
 10  9  1  1
 10 11  1  0
 10 12  1  0
 12 13  2  0
 14 12  1  0
 14 15  1  0
 16 15  1  0
 17 16  1  0
 18 17  1  0
 18 14  1  0
 18 19  1  1
 19 20  1  0
 21 19  2  0
M  END
$$$$
