PSP.pdb
     RDKit          3D

 21 22  0  0  1  0  0  0  0  0999 V2000
    8.5475  -15.1297   19.7916 N   0  0  0  0  0  0  0  0  0  0  0  0
    8.8442  -14.7707   18.4273 C   0  0  0  0  0  0  0  0  0  0  0  0
    7.7593  -13.7863   18.0995 C   0  0  0  0  0  0  0  0  0  0  0  0
    7.5294  -13.0999   19.4485 C   0  0  0  0  0  0  0  0  0  0  0  0
    8.3748  -13.8515   20.4336 C   0  0  1  0  0  0  0  0  0  0  0  0
    7.7309  -13.9759   21.7707 C   0  0  0  0  0  0  0  0  0  0  0  0
    7.4296  -12.9182   22.3480 O   0  0  0  0  0  0  0  0  0  0  0  0
    6.1898  -17.1952   25.1689 O   0  0  0  0  0  0  0  0  0  0  0  0
    6.6230  -16.8585   23.9332 C   0  0  0  0  0  0  0  0  0  0  0  0
    6.9242  -15.3931   23.6917 C   0  0  2  0  0  0  0  0  0  0  0  0
    7.4859  -15.2557   22.3330 N   0  0  0  0  0  0  0  0  0  0  0  0
    7.8134  -14.7745   24.6768 C   0  0  0  0  0  0  0  0  0  0  0  0
    9.0612  -15.0872   24.5636 O   0  0  0  0  0  0  0  0  0  0  0  0
    7.4498  -13.8760   25.7244 N   0  0  0  0  0  0  0  0  0  0  0  0
    6.1384  -13.3031   25.8957 C   0  0  0  0  0  0  0  0  0  0  0  0
    6.4546  -11.9287   26.5410 C   0  0  0  0  0  0  0  0  0  0  0  0
    7.4830  -12.4008   27.5477 C   0  0  0  0  0  0  0  0  0  0  0  0
    8.2987  -13.3685   26.7676 C   0  0  1  0  0  0  0  0  0  0  0  0
    8.8830  -14.4464   27.6002 C   0  0  0  0  0  0  0  0  0  0  0  0
    8.3615  -15.7185   27.4563 O   0  0  0  0  0  0  0  0  0  0  0  0
    9.8071  -14.2574   28.4090 O   0  0  0  0  0  0  0  0  0  0  0  0
  2  1  1  0
  3  2  1  0
  4  3  1  0
  4  5  1  0
  5  1  1  0
  6 11  1  0
  5  6  1  1
  7  6  2  0
  9  8  1  0
 10  9  1  1
 10 11  1  0
 10 12  1  0
 12 13  2  0
 14 12  1  0
 14 15  1  0
 16 15  1  0
 17 16  1  0
 18 17  1  0
 18 14  1  0
 18 19  1  1
 19 20  1  0
 21 19  2  0
M  END
$$$$
