PSP.pdb
     RDKit          3D

 21 22  0  0  1  0  0  0  0  0999 V2000
    7.7498  -15.2066   18.8371 N   0  0  0  0  0  0  0  0  0  0  0  0
    8.4178  -14.5203   17.7596 C   0  0  0  0  0  0  0  0  0  0  0  0
    8.2026  -13.0748   18.1027 C   0  0  0  0  0  0  0  0  0  0  0  0
    8.2118  -13.1026   19.6333 C   0  0  0  0  0  0  0  0  0  0  0  0
    8.2705  -14.5532   20.0108 C   0  0  1  0  0  0  0  0  0  0  0  0
    7.4732  -14.8656   21.2292 C   0  0  0  0  0  0  0  0  0  0  0  0
    6.3431  -15.3492   21.0506 O   0  0  0  0  0  0  0  0  0  0  0  0
    7.7757  -17.2044   24.0014 O   0  0  0  0  0  0  0  0  0  0  0  0
    6.7946  -16.3061   23.7597 C   0  0  0  0  0  0  0  0  0  0  0  0
    7.1981  -14.8456   23.7339 C   0  0  2  0  0  0  0  0  0  0  0  0
    8.0058  -14.6119   22.5200 N   0  0  0  0  0  0  0  0  0  0  0  0
    7.9166  -14.3820   24.9223 C   0  0  0  0  0  0  0  0  0  0  0  0
    9.1703  -14.6893   24.9614 O   0  0  0  0  0  0  0  0  0  0  0  0
    7.3848  -13.6362   26.0169 N   0  0  0  0  0  0  0  0  0  0  0  0
    6.0200  -13.1833   26.1149 C   0  0  0  0  0  0  0  0  0  0  0  0
    6.1601  -11.8711   26.9298 C   0  0  0  0  0  0  0  0  0  0  0  0
    7.1274  -12.3776   27.9794 C   0  0  0  0  0  0  0  0  0  0  0  0
    8.0891  -13.1893   27.1877 C   0  0  1  0  0  0  0  0  0  0  0  0
    8.6822  -14.3088   27.9565 C   0  0  0  0  0  0  0  0  0  0  0  0
    9.6686  -14.0011   28.8748 O   0  0  0  0  0  0  0  0  0  0  0  0
    8.3354  -15.4933   27.8126 O   0  0  0  0  0  0  0  0  0  0  0  0
  2  1  1  0
  3  2  1  0
  4  3  1  0
  4  5  1  0
  5  1  1  0
  6 11  1  0
  5  6  1  1
  7  6  2  0
  9  8  1  0
 10  9  1  1
 10 11  1  0
 10 12  1  0
 12 13  2  0
 14 12  1  0
 14 15  1  0
 16 15  1  0
 17 16  1  0
 18 17  1  0
 18 14  1  0
 18 19  1  1
 19 20  1  0
 21 19  2  0
M  END
$$$$
