PSP.pdb
     RDKit          3D

 21 22  0  0  1  0  0  0  0  0999 V2000
    7.6673  -15.0748   18.9113 N   0  0  0  0  0  0  0  0  0  0  0  0
    8.4618  -14.4441   17.8870 C   0  0  0  0  0  0  0  0  0  0  0  0
    8.5554  -13.0246   18.3662 C   0  0  0  0  0  0  0  0  0  0  0  0
    8.5623  -13.1984   19.8872 C   0  0  0  0  0  0  0  0  0  0  0  0
    8.3163  -14.6584   20.1283 C   0  0  1  0  0  0  0  0  0  0  0  0
    7.4742  -14.9114   21.3302 C   0  0  0  0  0  0  0  0  0  0  0  0
    6.2514  -15.0242   21.1439 O   0  0  0  0  0  0  0  0  0  0  0  0
    7.8590  -17.4081   24.3988 O   0  0  0  0  0  0  0  0  0  0  0  0
    6.8645  -16.5700   24.0296 C   0  0  0  0  0  0  0  0  0  0  0  0
    7.2375  -15.1147   23.8307 C   0  0  2  0  0  0  0  0  0  0  0  0
    8.0691  -15.0141   22.6146 N   0  0  0  0  0  0  0  0  0  0  0  0
    7.9170  -14.4901   24.9671 C   0  0  0  0  0  0  0  0  0  0  0  0
    9.2002  -14.6343   24.9872 O   0  0  0  0  0  0  0  0  0  0  0  0
    7.3187  -13.7494   26.0303 N   0  0  0  0  0  0  0  0  0  0  0  0
    5.9100  -13.4650   26.1408 C   0  0  0  0  0  0  0  0  0  0  0  0
    5.9005  -12.0971   26.8717 C   0  0  0  0  0  0  0  0  0  0  0  0
    6.9463  -12.4121   27.9210 C   0  0  0  0  0  0  0  0  0  0  0  0
    7.9857  -13.1454   27.1514 C   0  0  1  0  0  0  0  0  0  0  0  0
    8.7317  -14.1317   27.9681 C   0  0  0  0  0  0  0  0  0  0  0  0
    9.6629  -13.6438   28.8659 O   0  0  0  0  0  0  0  0  0  0  0  0
    8.5580  -15.3590   27.8809 O   0  0  0  0  0  0  0  0  0  0  0  0
  2  1  1  0
  3  2  1  0
  4  3  1  0
  4  5  1  0
  5  1  1  0
  6 11  1  0
  5  6  1  1
  7  6  2  0
  9  8  1  0
 10  9  1  1
 10 11  1  0
 10 12  1  0
 12 13  2  0
 14 12  1  0
 14 15  1  0
 16 15  1  0
 17 16  1  0
 18 17  1  0
 18 14  1  0
 18 19  1  1
 19 20  1  0
 21 19  2  0
M  END
$$$$
