CED.pdb
     RDKit          3D

 24 23  0  0  1  0  0  0  0  0999 V2000
    8.2770  -20.4443   18.8813 N   0  0  0  0  0  0  0  0  0  0  0  0
    9.2174  -19.3261   18.7554 C   0  0  1  0  0  0  0  0  0  0  0  0
    8.7047  -18.2251   19.6720 C   0  0  0  0  0  0  0  0  0  0  0  0
    7.0630  -17.6610   19.1978 S   0  0  0  0  0  0  0  0  0  0  0  0
   10.5502  -19.7424   19.2985 C   0  0  0  0  0  0  0  0  0  0  0  0
   10.6431  -20.6968   20.1114 O   0  0  0  0  0  0  0  0  0  0  0  0
   11.7600  -19.0887   18.9277 N   0  0  0  0  0  0  0  0  0  0  0  0
   13.0657  -19.5502   19.3486 C   0  0  1  0  0  0  0  0  0  0  0  0
   14.1259  -19.2374   18.3436 C   0  0  0  0  0  0  0  0  0  0  0  0
   13.7760  -19.7197   16.9537 C   0  0  0  0  0  0  0  0  0  0  0  0
   14.8503  -19.3704   15.9924 C   0  0  0  0  0  0  0  0  0  0  0  0
   14.5938  -18.5992   15.0442 O   0  0  0  0  0  0  0  0  0  0  0  0
   13.4022  -19.0753   20.7160 C   0  0  0  0  0  0  0  0  0  0  0  0
   12.7778  -18.0957   21.1984 O   0  0  0  0  0  0  0  0  0  0  0  0
   16.1388  -19.8810   16.1205 O   0  0  0  0  0  0  0  0  0  0  0  0
   14.4044  -19.6769   21.5172 N   0  0  0  0  0  0  0  0  0  0  0  0
   14.7447  -19.2176   22.8413 C   0  0  1  0  0  0  0  0  0  0  0  0
   15.1262  -17.7795   22.9148 C   0  0  0  0  0  0  0  0  0  0  0  0
   16.3857  -17.5005   23.5811 C   0  0  0  0  0  0  0  0  0  0  0  0
   16.5288  -17.7499   24.7971 O   0  0  0  0  0  0  0  0  0  0  0  0
   13.6742  -19.5723   23.8289 C   0  0  0  0  0  0  0  0  0  0  0  0
   13.8381  -19.3963   25.1963 O   0  0  0  0  0  0  0  0  0  0  0  0
   17.4511  -16.9564   22.8946 O   0  0  0  0  0  0  0  0  0  0  0  0
   12.5757  -20.0484   23.4449 O   0  0  0  0  0  0  0  0  0  0  0  0
  2  3  1  0
  2  5  1  0
  2  1  1  1
  4  3  1  0
  5  6  2  0
  7  8  1  0
  7  5  1  0
  8 13  1  0
  8  9  1  6
 10  9  1  0
 10 11  1  0
 11 12  2  0
 13 14  2  0
 13 16  1  0
 15 11  1  0
 16 17  1  0
 17 21  1  0
 17 18  1  6
 19 18  1  0
 20 19  2  0
 21 24  2  0
 21 22  1  0
 23 19  1  0
M  END
$$$$
