CED.pdb
     RDKit          3D

 24 23  0  0  1  0  0  0  0  0999 V2000
   14.7798  -13.4087   18.1678 N   0  0  0  0  0  0  0  0  0  0  0  0
   14.2332  -14.7604   18.3247 C   0  0  1  0  0  0  0  0  0  0  0  0
   15.2070  -15.5198   19.2138 C   0  0  0  0  0  0  0  0  0  0  0  0
   15.1916  -14.9108   20.9070 S   0  0  0  0  0  0  0  0  0  0  0  0
   12.9421  -14.6827   19.0810 C   0  0  0  0  0  0  0  0  0  0  0  0
   12.2349  -13.6442   19.0400 O   0  0  0  0  0  0  0  0  0  0  0  0
   12.4583  -15.7638   19.8719 N   0  0  0  0  0  0  0  0  0  0  0  0
   11.1292  -15.7877   20.4446 C   0  0  1  0  0  0  0  0  0  0  0  0
   10.0635  -15.6959   19.4017 C   0  0  0  0  0  0  0  0  0  0  0  0
   10.3060  -16.6246   18.2331 C   0  0  0  0  0  0  0  0  0  0  0  0
    9.1068  -16.6954   17.3630 C   0  0  0  0  0  0  0  0  0  0  0  0
    9.2484  -16.6474   16.1232 O   0  0  0  0  0  0  0  0  0  0  0  0
   10.9468  -16.9422   21.3626 C   0  0  0  0  0  0  0  0  0  0  0  0
   10.8849  -18.1043   20.8853 O   0  0  0  0  0  0  0  0  0  0  0  0
    7.8256  -16.8143   17.8941 O   0  0  0  0  0  0  0  0  0  0  0  0
   10.8373  -16.8007   22.7684 N   0  0  0  0  0  0  0  0  0  0  0  0
   11.6865  -17.4946   23.7050 C   0  0  1  0  0  0  0  0  0  0  0  0
   13.1440  -17.3716   23.4226 C   0  0  0  0  0  0  0  0  0  0  0  0
   14.0226  -18.0206   24.3791 C   0  0  0  0  0  0  0  0  0  0  0  0
   13.5497  -18.6452   25.3524 O   0  0  0  0  0  0  0  0  0  0  0  0
   11.3487  -17.1256   25.1181 C   0  0  0  0  0  0  0  0  0  0  0  0
   10.9346  -15.8488   25.4731 O   0  0  0  0  0  0  0  0  0  0  0  0
   15.3938  -17.9654   24.2402 O   0  0  0  0  0  0  0  0  0  0  0  0
   11.4308  -17.9739   26.0425 O   0  0  0  0  0  0  0  0  0  0  0  0
  2  3  1  0
  2  5  1  0
  2  1  1  1
  4  3  1  0
  5  6  2  0
  7  8  1  0
  7  5  1  0
  8 13  1  0
  8  9  1  6
 10  9  1  0
 10 11  1  0
 11 12  2  0
 13 14  2  0
 13 16  1  0
 15 11  1  0
 16 17  1  0
 17 21  1  0
 17 18  1  6
 19 18  1  0
 20 19  2  0
 21 24  2  0
 21 22  1  0
 23 19  1  0
M  END
$$$$
