CED.pdb
     RDKit          3D

 24 23  0  0  1  0  0  0  0  0999 V2000
    7.4284  -13.6890   18.3364 N   0  0  0  0  0  0  0  0  0  0  0  0
    8.5851  -13.8166   19.2287 C   0  0  1  0  0  0  0  0  0  0  0  0
    8.3280  -12.8864   20.4052 C   0  0  0  0  0  0  0  0  0  0  0  0
    8.3122  -11.1570   19.9082 S   0  0  0  0  0  0  0  0  0  0  0  0
    8.6223  -15.2060   19.7882 C   0  0  0  0  0  0  0  0  0  0  0  0
    7.6066  -15.9453   19.7404 O   0  0  0  0  0  0  0  0  0  0  0  0
    9.7909  -15.7510   20.3928 N   0  0  0  0  0  0  0  0  0  0  0  0
    9.8700  -17.1174   20.8639 C   0  0  1  0  0  0  0  0  0  0  0  0
    9.5682  -18.1050   19.7842 C   0  0  0  0  0  0  0  0  0  0  0  0
    9.7750  -17.5382   18.3975 C   0  0  0  0  0  0  0  0  0  0  0  0
    9.5439  -18.5794   17.3667 C   0  0  0  0  0  0  0  0  0  0  0  0
   10.5188  -19.0466   16.7417 O   0  0  0  0  0  0  0  0  0  0  0  0
   11.1575  -17.3868   21.5554 C   0  0  0  0  0  0  0  0  0  0  0  0
   12.1944  -17.5832   20.8712 O   0  0  0  0  0  0  0  0  0  0  0  0
    8.2660  -19.0496   17.0778 O   0  0  0  0  0  0  0  0  0  0  0  0
   11.2804  -17.4349   22.9664 N   0  0  0  0  0  0  0  0  0  0  0  0
   12.5253  -17.2225   23.6628 C   0  0  1  0  0  0  0  0  0  0  0  0
   13.3038  -16.0449   23.1870 C   0  0  0  0  0  0  0  0  0  0  0  0
   14.6436  -16.3339   22.7078 C   0  0  0  0  0  0  0  0  0  0  0  0
   14.8886  -17.4084   22.1192 O   0  0  0  0  0  0  0  0  0  0  0  0
   12.3187  -17.2043   25.1475 C   0  0  0  0  0  0  0  0  0  0  0  0
   11.0544  -17.1880   25.7208 O   0  0  0  0  0  0  0  0  0  0  0  0
   15.6751  -15.4362   22.8882 O   0  0  0  0  0  0  0  0  0  0  0  0
   13.2995  -17.2033   25.9343 O   0  0  0  0  0  0  0  0  0  0  0  0
  2  3  1  0
  2  5  1  0
  2  1  1  6
  4  3  1  0
  5  6  2  0
  7  8  1  0
  7  5  1  0
  8 13  1  0
  8  9  1  6
 10  9  1  0
 10 11  1  0
 11 12  2  0
 13 14  2  0
 13 16  1  0
 15 11  1  0
 16 17  1  0
 17 21  1  0
 17 18  1  6
 19 18  1  0
 20 19  2  0
 21 24  2  0
 21 22  1  0
 23 19  1  0
M  END
$$$$
