CED.pdb
     RDKit          3D

 24 23  0  0  1  0  0  0  0  0999 V2000
    6.1254  -13.6752   23.4386 N   0  0  0  0  0  0  0  0  0  0  0  0
    7.4895  -13.6623   23.9767 C   0  0  1  0  0  0  0  0  0  0  0  0
    7.3785  -13.2086   25.4249 C   0  0  0  0  0  0  0  0  0  0  0  0
    8.9844  -13.1290   26.2329 S   0  0  0  0  0  0  0  0  0  0  0  0
    8.0164  -15.0644   24.0118 C   0  0  0  0  0  0  0  0  0  0  0  0
    7.2712  -16.0380   23.7341 O   0  0  0  0  0  0  0  0  0  0  0  0
    9.3663  -15.3608   24.3560 N   0  0  0  0  0  0  0  0  0  0  0  0
    9.9471  -16.6778   24.2034 C   0  0  1  0  0  0  0  0  0  0  0  0
    9.9751  -17.1206   22.7768 C   0  0  0  0  0  0  0  0  0  0  0  0
   10.7620  -16.1836   21.8881 C   0  0  0  0  0  0  0  0  0  0  0  0
   11.1318  -16.8542   20.6177 C   0  0  0  0  0  0  0  0  0  0  0  0
   12.3373  -17.0578   20.3633 O   0  0  0  0  0  0  0  0  0  0  0  0
   11.2725  -16.7745   24.8686 C   0  0  0  0  0  0  0  0  0  0  0  0
   11.8749  -15.7203   25.1968 O   0  0  0  0  0  0  0  0  0  0  0  0
   10.1677  -17.2630   19.7007 O   0  0  0  0  0  0  0  0  0  0  0  0
   11.9030  -18.0105   25.1569 N   0  0  0  0  0  0  0  0  0  0  0  0
   11.8752  -18.6318   26.4581 C   0  0  1  0  0  0  0  0  0  0  0  0
   10.5157  -18.7479   27.0559 C   0  0  0  0  0  0  0  0  0  0  0  0
   10.4708  -18.7668   28.5070 C   0  0  0  0  0  0  0  0  0  0  0  0
   11.4482  -18.3706   29.1770 O   0  0  0  0  0  0  0  0  0  0  0  0
   12.6050  -19.9412   26.4484 C   0  0  0  0  0  0  0  0  0  0  0  0
   13.0371  -20.5415   25.2735 O   0  0  0  0  0  0  0  0  0  0  0  0
    9.3557  -19.2197   29.1807 O   0  0  0  0  0  0  0  0  0  0  0  0
   12.8533  -20.5481   27.5212 O   0  0  0  0  0  0  0  0  0  0  0  0
  2  3  1  0
  2  5  1  0
  2  1  1  1
  4  3  1  0
  5  6  2  0
  7  8  1  0
  7  5  1  0
  8 13  1  0
  8  9  1  6
 10  9  1  0
 10 11  1  0
 11 12  2  0
 13 14  2  0
 13 16  1  0
 15 11  1  0
 16 17  1  0
 17 21  1  0
 17 18  1  6
 19 18  1  0
 20 19  2  0
 21 24  2  0
 21 22  1  0
 23 19  1  0
M  END
$$$$
