CED.pdb
     RDKit          3D

 24 23  0  0  1  0  0  0  0  0999 V2000
    4.9855  -12.9868   26.7604 N   0  0  0  0  0  0  0  0  0  0  0  0
    6.2359  -12.6618   26.0666 C   0  0  1  0  0  0  0  0  0  0  0  0
    7.2415  -12.2820   27.1436 C   0  0  0  0  0  0  0  0  0  0  0  0
    8.9051  -12.1025   26.4816 S   0  0  0  0  0  0  0  0  0  0  0  0
    6.7676  -13.8984   25.4085 C   0  0  0  0  0  0  0  0  0  0  0  0
    6.6818  -15.0163   25.9770 O   0  0  0  0  0  0  0  0  0  0  0  0
    7.3872  -13.8707   24.1265 N   0  0  0  0  0  0  0  0  0  0  0  0
    7.8338  -15.0650   23.4415 C   0  0  1  0  0  0  0  0  0  0  0  0
    7.7208  -14.9399   21.9570 C   0  0  0  0  0  0  0  0  0  0  0  0
    8.0884  -16.2152   21.2321 C   0  0  0  0  0  0  0  0  0  0  0  0
    8.0221  -16.0201   19.7632 C   0  0  0  0  0  0  0  0  0  0  0  0
    8.8983  -15.3322   19.1987 O   0  0  0  0  0  0  0  0  0  0  0  0
    9.1886  -15.4811   23.8887 C   0  0  0  0  0  0  0  0  0  0  0  0
   10.0881  -14.6116   24.0182 O   0  0  0  0  0  0  0  0  0  0  0  0
    7.0067  -16.5851   18.9968 O   0  0  0  0  0  0  0  0  0  0  0  0
    9.5255  -16.8262   24.1813 N   0  0  0  0  0  0  0  0  0  0  0  0
   10.8261  -17.2348   24.6519 C   0  0  1  0  0  0  0  0  0  0  0  0
   10.8028  -18.3674   25.6193 C   0  0  0  0  0  0  0  0  0  0  0  0
   10.0360  -18.1387   26.8308 C   0  0  0  0  0  0  0  0  0  0  0  0
   10.3625  -17.2322   27.6263 O   0  0  0  0  0  0  0  0  0  0  0  0
   11.7619  -17.4843   23.5078 C   0  0  0  0  0  0  0  0  0  0  0  0
   11.3392  -17.4659   22.1855 O   0  0  0  0  0  0  0  0  0  0  0  0
    8.9339  -18.9105   27.1343 O   0  0  0  0  0  0  0  0  0  0  0  0
   12.9795  -17.7223   23.7118 O   0  0  0  0  0  0  0  0  0  0  0  0
  2  3  1  0
  2  5  1  0
  2  1  1  1
  4  3  1  0
  5  6  2  0
  7  8  1  0
  7  5  1  0
  8 13  1  0
  8  9  1  6
 10  9  1  0
 10 11  1  0
 11 12  2  0
 13 14  2  0
 13 16  1  0
 15 11  1  0
 16 17  1  0
 17 21  1  0
 17 18  1  6
 19 18  1  0
 20 19  2  0
 21 24  2  0
 21 22  1  0
 23 19  1  0
M  END
$$$$
