CED.pdb
     RDKit          3D

 24 23  0  0  1  0  0  0  0  0999 V2000
    9.1220  -12.2751   19.4506 N   0  0  0  0  0  0  0  0  0  0  0  0
    8.7055  -13.6807   19.4142 C   0  0  1  0  0  0  0  0  0  0  0  0
    7.9916  -13.8856   18.0862 C   0  0  0  0  0  0  0  0  0  0  0  0
    6.6044  -12.7574   17.8837 S   0  0  0  0  0  0  0  0  0  0  0  0
    9.9235  -14.5525   19.3787 C   0  0  0  0  0  0  0  0  0  0  0  0
    9.8177  -15.7998   19.2623 O   0  0  0  0  0  0  0  0  0  0  0  0
   11.2415  -14.0213   19.4734 N   0  0  0  0  0  0  0  0  0  0  0  0
   12.4271  -14.8518   19.4777 C   0  0  1  0  0  0  0  0  0  0  0  0
   13.4671  -14.3559   18.5267 C   0  0  0  0  0  0  0  0  0  0  0  0
   14.7222  -15.1994   18.5394 C   0  0  0  0  0  0  0  0  0  0  0  0
   15.6821  -14.7250   17.5129 C   0  0  0  0  0  0  0  0  0  0  0  0
   16.0433  -15.5058   16.6077 O   0  0  0  0  0  0  0  0  0  0  0  0
   12.9484  -15.0584   20.8540 C   0  0  0  0  0  0  0  0  0  0  0  0
   13.3027  -14.0614   21.5342 O   0  0  0  0  0  0  0  0  0  0  0  0
   16.1912  -13.4296   17.5329 O   0  0  0  0  0  0  0  0  0  0  0  0
   13.0694  -16.3387   21.4494 N   0  0  0  0  0  0  0  0  0  0  0  0
   13.6047  -16.5524   22.7714 C   0  0  1  0  0  0  0  0  0  0  0  0
   12.9896  -17.6919   23.5078 C   0  0  0  0  0  0  0  0  0  0  0  0
   11.5857  -17.5341   23.8432 C   0  0  0  0  0  0  0  0  0  0  0  0
   11.0776  -16.3956   23.9262 O   0  0  0  0  0  0  0  0  0  0  0  0
   15.1011  -16.6367   22.7423 C   0  0  0  0  0  0  0  0  0  0  0  0
   15.8736  -16.5182   23.8898 O   0  0  0  0  0  0  0  0  0  0  0  0
   10.7805  -18.6291   24.0775 O   0  0  0  0  0  0  0  0  0  0  0  0
   15.7149  -16.8203   21.6605 O   0  0  0  0  0  0  0  0  0  0  0  0
  2  3  1  0
  2  5  1  0
  2  1  1  6
  4  3  1  0
  5  6  2  0
  7  8  1  0
  7  5  1  0
  8 13  1  0
  8  9  1  6
 10  9  1  0
 10 11  1  0
 11 12  2  0
 13 14  2  0
 13 16  1  0
 15 11  1  0
 16 17  1  0
 17 21  1  0
 17 18  1  6
 19 18  1  0
 20 19  2  0
 21 24  2  0
 21 22  1  0
 23 19  1  0
M  END
$$$$
