CED.pdb
     RDKit          3D

 24 23  0  0  1  0  0  0  0  0999 V2000
    6.8833  -13.6814   18.6573 N   0  0  0  0  0  0  0  0  0  0  0  0
    8.3047  -13.4501   18.9343 C   0  0  1  0  0  0  0  0  0  0  0  0
    8.3661  -12.3760   20.0104 C   0  0  0  0  0  0  0  0  0  0  0  0
    7.3249  -12.7746   21.4229 S   0  0  0  0  0  0  0  0  0  0  0  0
    8.8947  -14.6880   19.5379 C   0  0  0  0  0  0  0  0  0  0  0  0
    8.1560  -15.5746   20.0364 O   0  0  0  0  0  0  0  0  0  0  0  0
   10.2994  -14.9193   19.5772 N   0  0  0  0  0  0  0  0  0  0  0  0
   10.8783  -16.1873   19.9677 C   0  0  1  0  0  0  0  0  0  0  0  0
   11.8751  -16.6833   18.9715 C   0  0  0  0  0  0  0  0  0  0  0  0
   12.5255  -17.9825   19.3910 C   0  0  0  0  0  0  0  0  0  0  0  0
   13.5652  -18.3869   18.4133 C   0  0  0  0  0  0  0  0  0  0  0  0
   14.7657  -18.1565   18.6686 O   0  0  0  0  0  0  0  0  0  0  0  0
   11.4130  -16.1439   21.3536 C   0  0  0  0  0  0  0  0  0  0  0  0
   11.9959  -15.1046   21.7562 O   0  0  0  0  0  0  0  0  0  0  0  0
   13.2363  -19.0177   17.2169 O   0  0  0  0  0  0  0  0  0  0  0  0
   11.2990  -17.2280   22.2591 N   0  0  0  0  0  0  0  0  0  0  0  0
   11.8067  -17.1924   23.6086 C   0  0  1  0  0  0  0  0  0  0  0  0
   11.1272  -18.1290   24.5468 C   0  0  0  0  0  0  0  0  0  0  0  0
   11.6808  -18.1807   25.8881 C   0  0  0  0  0  0  0  0  0  0  0  0
   11.6119  -17.1862   26.6413 O   0  0  0  0  0  0  0  0  0  0  0  0
   13.2974  -17.3489   23.6304 C   0  0  0  0  0  0  0  0  0  0  0  0
   14.0349  -17.5941   22.4799 O   0  0  0  0  0  0  0  0  0  0  0  0
   12.2934  -19.3212   26.3638 O   0  0  0  0  0  0  0  0  0  0  0  0
   13.9384  -17.2617   24.7085 O   0  0  0  0  0  0  0  0  0  0  0  0
  2  3  1  0
  2  5  1  0
  2  1  1  1
  4  3  1  0
  5  6  2  0
  7  8  1  0
  7  5  1  0
  8 13  1  0
  8  9  1  6
 10  9  1  0
 10 11  1  0
 11 12  2  0
 13 14  2  0
 13 16  1  0
 15 11  1  0
 16 17  1  0
 17 21  1  0
 17 18  1  1
 19 18  1  0
 20 19  2  0
 21 24  2  0
 21 22  1  0
 23 19  1  0
M  END
$$$$
