CED.pdb
     RDKit          3D

 24 23  0  0  1  0  0  0  0  0999 V2000
    7.5173  -13.4506   17.5787 N   0  0  0  0  0  0  0  0  0  0  0  0
    8.3113  -13.2644   18.7975 C   0  0  1  0  0  0  0  0  0  0  0  0
    7.3315  -13.3003   19.9611 C   0  0  0  0  0  0  0  0  0  0  0  0
    8.1691  -13.4712   21.5446 S   0  0  0  0  0  0  0  0  0  0  0  0
    9.2216  -14.4412   18.9745 C   0  0  0  0  0  0  0  0  0  0  0  0
    8.8575  -15.5932   18.6270 O   0  0  0  0  0  0  0  0  0  0  0  0
   10.5244  -14.3167   19.5362 N   0  0  0  0  0  0  0  0  0  0  0  0
   11.4145  -15.4435   19.7188 C   0  0  1  0  0  0  0  0  0  0  0  0
   12.5370  -15.4416   18.7330 C   0  0  0  0  0  0  0  0  0  0  0  0
   13.3837  -14.1911   18.8119 C   0  0  0  0  0  0  0  0  0  0  0  0
   14.6024  -14.3306   17.9779 C   0  0  0  0  0  0  0  0  0  0  0  0
   15.7165  -14.4189   18.5351 O   0  0  0  0  0  0  0  0  0  0  0  0
   11.8769  -15.5562   21.1267 C   0  0  0  0  0  0  0  0  0  0  0  0
   12.0598  -14.5097   21.8002 O   0  0  0  0  0  0  0  0  0  0  0  0
   14.5358  -14.3658   16.5880 O   0  0  0  0  0  0  0  0  0  0  0  0
   12.1264  -16.7991   21.7600 N   0  0  0  0  0  0  0  0  0  0  0  0
   12.4969  -16.9229   23.1483 C   0  0  1  0  0  0  0  0  0  0  0  0
   11.5137  -17.6677   23.9837 C   0  0  0  0  0  0  0  0  0  0  0  0
   11.8747  -17.8263   25.3811 C   0  0  0  0  0  0  0  0  0  0  0  0
   12.9131  -17.2973   25.8319 O   0  0  0  0  0  0  0  0  0  0  0  0
   13.8879  -17.4632   23.2911 C   0  0  0  0  0  0  0  0  0  0  0  0
   14.8337  -16.8693   24.1160 O   0  0  0  0  0  0  0  0  0  0  0  0
   11.0866  -18.5601   26.2429 O   0  0  0  0  0  0  0  0  0  0  0  0
   14.2490  -18.4880   22.6585 O   0  0  0  0  0  0  0  0  0  0  0  0
  2  3  1  0
  2  5  1  0
  2  1  1  6
  4  3  1  0
  5  6  2  0
  7  8  1  0
  7  5  1  0
  8 13  1  0
  8  9  1  6
 10  9  1  0
 10 11  1  0
 11 12  2  0
 13 14  2  0
 13 16  1  0
 15 11  1  0
 16 17  1  0
 17 21  1  0
 17 18  1  1
 19 18  1  0
 20 19  2  0
 21 24  2  0
 21 22  1  0
 23 19  1  0
M  END
$$$$
