QYL.pdb
     RDKit          3D

 30 30  0  0  1  0  0  0  0  0999 V2000
   26.4284  -17.6003  -19.9043 N   0  0  0  0  0  0  0  0  0  0  0  0
   26.3832  -18.8440  -19.2179 C   0  0  0  0  0  0  0  0  0  0  0  0
   26.4731  -19.8843  -19.9079 O   0  0  0  0  0  0  0  0  0  0  0  0
   26.2351  -18.8743  -17.7732 C   0  0  0  0  0  0  0  0  0  0  0  0
   24.8807  -19.0455  -17.2160 C   0  0  0  0  0  0  0  0  0  0  0  0
   24.1155  -20.2737  -17.6022 C   0  0  2  0  0  0  0  0  0  0  0  0
   23.6634  -20.3472  -18.9454 N   0  0  0  0  0  0  0  0  0  0  0  0
   22.9600  -20.4085  -16.6759 C   0  0  0  0  0  0  0  0  0  0  0  0
   22.0757  -19.4676  -16.6928 O   0  0  0  0  0  0  0  0  0  0  0  0
   18.0384  -21.9973  -20.3818 O   0  0  0  0  0  0  0  0  0  0  0  0
   18.7247  -22.2022  -19.1766 C   0  0  0  0  0  0  0  0  0  0  0  0
   20.0304  -22.6385  -19.1663 C   0  0  0  0  0  0  0  0  0  0  0  0
   20.7096  -22.8413  -17.9774 C   0  0  0  0  0  0  0  0  0  0  0  0
   20.1130  -22.6170  -16.7526 C   0  0  0  0  0  0  0  0  0  0  0  0
   20.8445  -22.8395  -15.4857 C   0  0  0  0  0  0  0  0  0  0  0  0
   21.5579  -21.5991  -14.9966 C   0  0  2  0  0  0  0  0  0  0  0  0
   22.7744  -21.4852  -15.7964 N   0  0  0  0  0  0  0  0  0  0  0  0
   21.8910  -21.6242  -13.5720 C   0  0  0  0  0  0  0  0  0  0  0  0
   22.8101  -22.3672  -13.1072 O   0  0  0  0  0  0  0  0  0  0  0  0
   18.8046  -22.1800  -16.7801 C   0  0  0  0  0  0  0  0  0  0  0  0
   18.1165  -21.9739  -17.9579 C   0  0  0  0  0  0  0  0  0  0  0  0
   23.4269  -21.7491   -9.1103 C   0  0  0  0  0  0  0  0  0  0  0  0
   23.9655  -21.2395  -10.4343 C   0  0  2  0  0  0  0  0  0  0  0  0
   25.3734  -20.8163  -10.2952 C   0  0  0  0  0  0  0  0  0  0  0  0
   23.0344  -20.3698  -11.1783 C   0  0  0  0  0  0  0  0  0  0  0  0
   21.6010  -20.7355  -11.2511 C   0  0  2  0  0  0  0  0  0  0  0  0
   21.1721  -20.7974  -12.6730 N   0  0  0  0  0  0  0  0  0  0  0  0
   20.6515  -19.9195  -10.4832 C   0  0  0  0  0  0  0  0  0  0  0  0
   20.6880  -20.0184   -9.2014 O   0  0  0  0  0  0  0  0  0  0  0  0
   19.7182  -19.0486  -10.9673 O   0  0  0  0  0  0  0  0  0  0  0  0
  1  2  1  0
  2  3  2  0
  2  4  1  0
  4  5  1  0
  6  7  1  6
  6  5  1  0
  8  6  1  0
  9  8  2  0
 10 11  1  0
 11 12  2  0
 11 21  1  0
 12 13  1  0
 13 14  2  0
 14 15  1  0
 16 15  1  6
 16 17  1  0
 17  8  1  0
 18 27  1  0
 18 16  1  0
 19 18  2  0
 20 14  1  0
 21 20  2  0
 23 22  1  1
 23 25  1  0
 24 23  1  0
 26 25  1  6
 26 27  1  0
 28 26  1  0
 28 30  1  0
 29 28  2  0
M  END
$$$$
