QYL.pdb
     RDKit          3D

 30 30  0  0  1  0  0  0  0  0999 V2000
   27.7105  -19.3680  -20.9544 N   0  0  0  0  0  0  0  0  0  0  0  0
   28.1930  -18.2592  -20.2076 C   0  0  0  0  0  0  0  0  0  0  0  0
   28.8151  -17.3720  -20.8341 O   0  0  0  0  0  0  0  0  0  0  0  0
   27.9603  -18.1880  -18.7756 C   0  0  0  0  0  0  0  0  0  0  0  0
   27.2271  -19.2947  -18.1339 C   0  0  0  0  0  0  0  0  0  0  0  0
   28.0222  -20.3178  -17.3826 C   0  0  2  0  0  0  0  0  0  0  0  0
   28.4048  -21.4809  -18.1002 N   0  0  0  0  0  0  0  0  0  0  0  0
   27.2497  -20.7062  -16.1728 C   0  0  0  0  0  0  0  0  0  0  0  0
   26.3090  -21.5775  -16.3264 O   0  0  0  0  0  0  0  0  0  0  0  0
   24.3199  -20.9519   -7.7604 O   0  0  0  0  0  0  0  0  0  0  0  0
   25.0632  -20.7366   -8.9294 C   0  0  0  0  0  0  0  0  0  0  0  0
   25.7119  -21.7734   -9.5615 C   0  0  0  0  0  0  0  0  0  0  0  0
   26.4462  -21.5628  -10.7158 C   0  0  0  0  0  0  0  0  0  0  0  0
   26.5622  -20.3099  -11.2844 C   0  0  0  0  0  0  0  0  0  0  0  0
   27.3521  -20.0919  -12.5166 C   0  0  0  0  0  0  0  0  0  0  0  0
   26.6495  -20.5938  -13.7581 C   0  0  2  0  0  0  0  0  0  0  0  0
   27.4804  -20.1902  -14.8892 N   0  0  0  0  0  0  0  0  0  0  0  0
   25.2890  -20.0810  -13.9230 C   0  0  0  0  0  0  0  0  0  0  0  0
   25.0464  -18.9986  -14.5411 O   0  0  0  0  0  0  0  0  0  0  0  0
   25.9063  -19.2818  -10.6391 C   0  0  0  0  0  0  0  0  0  0  0  0
   25.1713  -19.4783   -9.4883 C   0  0  0  0  0  0  0  0  0  0  0  0
   20.7806  -20.4315  -16.8308 C   0  0  0  0  0  0  0  0  0  0  0  0
   21.2556  -19.7529  -15.5594 C   0  0  2  0  0  0  0  0  0  0  0  0
   20.9842  -18.3023  -15.6110 C   0  0  0  0  0  0  0  0  0  0  0  0
   22.5733  -20.2106  -15.0785 C   0  0  0  0  0  0  0  0  0  0  0  0
   22.8165  -20.3186  -13.6215 C   0  0  2  0  0  0  0  0  0  0  0  0
   24.1996  -20.8070  -13.3800 N   0  0  0  0  0  0  0  0  0  0  0  0
   21.8667  -21.1123  -12.8308 C   0  0  0  0  0  0  0  0  0  0  0  0
   21.9989  -22.3913  -12.8569 O   0  0  0  0  0  0  0  0  0  0  0  0
   20.8425  -20.6548  -12.0526 O   0  0  0  0  0  0  0  0  0  0  0  0
  1  2  1  0
  2  3  2  0
  2  4  1  0
  4  5  1  0
  6  7  1  6
  6  5  1  0
  8  6  1  0
  9  8  2  0
 10 11  1  0
 11 12  2  0
 11 21  1  0
 12 13  1  0
 13 14  2  0
 14 15  1  0
 16 15  1  1
 16 17  1  0
 17  8  1  0
 18 27  1  0
 18 16  1  0
 19 18  2  0
 20 14  1  0
 21 20  2  0
 23 22  1  6
 23 25  1  0
 24 23  1  0
 26 25  1  6
 26 27  1  0
 28 26  1  0
 28 30  1  0
 29 28  2  0
M  END
$$$$
