QYL.pdb
     RDKit          3D

 30 30  0  0  1  0  0  0  0  0999 V2000
   30.2477  -26.4943  -15.7061 N   0  0  0  0  0  0  0  0  0  0  0  0
   30.6597  -25.5250  -16.6603 C   0  0  0  0  0  0  0  0  0  0  0  0
   30.5373  -25.8218  -17.8701 O   0  0  0  0  0  0  0  0  0  0  0  0
   31.2001  -24.2511  -16.2187 C   0  0  0  0  0  0  0  0  0  0  0  0
   30.2760  -23.1089  -16.0935 C   0  0  0  0  0  0  0  0  0  0  0  0
   29.2116  -22.9529  -17.1356 C   0  0  2  0  0  0  0  0  0  0  0  0
   29.6312  -22.4969  -18.4123 N   0  0  0  0  0  0  0  0  0  0  0  0
   28.1668  -22.0426  -16.5961 C   0  0  0  0  0  0  0  0  0  0  0  0
   28.4892  -20.8027  -16.4340 O   0  0  0  0  0  0  0  0  0  0  0  0
   20.3773  -18.2116  -15.1458 O   0  0  0  0  0  0  0  0  0  0  0  0
   21.4881  -18.9584  -15.5630 C   0  0  0  0  0  0  0  0  0  0  0  0
   22.6674  -18.3428  -15.9174 C   0  0  0  0  0  0  0  0  0  0  0  0
   23.7650  -19.0785  -16.3295 C   0  0  0  0  0  0  0  0  0  0  0  0
   23.7290  -20.4567  -16.4044 C   0  0  0  0  0  0  0  0  0  0  0  0
   24.9056  -21.2362  -16.8495 C   0  0  0  0  0  0  0  0  0  0  0  0
   25.8966  -21.4869  -15.7352 C   0  0  2  0  0  0  0  0  0  0  0  0
   26.8663  -22.4452  -16.2587 N   0  0  0  0  0  0  0  0  0  0  0  0
   25.2943  -21.9998  -14.5043 C   0  0  0  0  0  0  0  0  0  0  0  0
   24.8732  -23.1938  -14.4060 O   0  0  0  0  0  0  0  0  0  0  0  0
   22.5404  -21.0584  -16.0459 C   0  0  0  0  0  0  0  0  0  0  0  0
   21.4392  -20.3368  -15.6334 C   0  0  0  0  0  0  0  0  0  0  0  0
   26.1491  -19.2669  -11.4175 C   0  0  0  0  0  0  0  0  0  0  0  0
   25.6408  -20.2828  -10.4114 C   0  0  2  0  0  0  0  0  0  0  0  0
   26.4725  -20.2680   -9.1912 C   0  0  0  0  0  0  0  0  0  0  0  0
   25.2624  -21.5840  -10.9951 C   0  0  0  0  0  0  0  0  0  0  0  0
   24.4003  -21.6160  -12.1990 C   0  0  2  0  0  0  0  0  0  0  0  0
   25.1719  -21.1461  -13.3795 N   0  0  0  0  0  0  0  0  0  0  0  0
   23.1154  -20.9074  -12.1340 C   0  0  0  0  0  0  0  0  0  0  0  0
   23.0120  -19.8081  -12.7935 O   0  0  0  0  0  0  0  0  0  0  0  0
   21.9926  -21.2772  -11.4511 O   0  0  0  0  0  0  0  0  0  0  0  0
  1  2  1  0
  2  3  2  0
  2  4  1  0
  4  5  1  0
  6  7  1  6
  6  5  1  0
  8  6  1  0
  9  8  2  0
 10 11  1  0
 11 12  2  0
 11 21  1  0
 12 13  1  0
 13 14  2  0
 14 15  1  0
 16 15  1  6
 16 17  1  0
 17  8  1  0
 18 27  1  0
 18 16  1  0
 19 18  2  0
 20 14  1  0
 21 20  2  0
 23 22  1  6
 23 25  1  0
 24 23  1  0
 26 25  1  1
 26 27  1  0
 28 26  1  0
 28 30  1  0
 29 28  2  0
M  END
$$$$
