QYL.pdb
     RDKit          3D

 30 30  0  0  1  0  0  0  0  0999 V2000
   27.2690  -20.5174  -17.0510 N   0  0  0  0  0  0  0  0  0  0  0  0
   27.5532  -19.1423  -16.8311 C   0  0  0  0  0  0  0  0  0  0  0  0
   28.4195  -18.6111  -17.5618 O   0  0  0  0  0  0  0  0  0  0  0  0
   26.8521  -18.4103  -15.7907 C   0  0  0  0  0  0  0  0  0  0  0  0
   25.8363  -19.1280  -14.9987 C   0  0  0  0  0  0  0  0  0  0  0  0
   24.4182  -19.0879  -15.4787 C   0  0  2  0  0  0  0  0  0  0  0  0
   23.6956  -17.8914  -15.2334 N   0  0  0  0  0  0  0  0  0  0  0  0
   23.6953  -20.2420  -14.8812 C   0  0  0  0  0  0  0  0  0  0  0  0
   24.0940  -21.4249  -15.2122 O   0  0  0  0  0  0  0  0  0  0  0  0
   27.5500  -20.8300  -10.0708 O   0  0  0  0  0  0  0  0  0  0  0  0
   26.2228  -20.8987  -10.5171 C   0  0  0  0  0  0  0  0  0  0  0  0
   25.2434  -20.1055   -9.9630 C   0  0  0  0  0  0  0  0  0  0  0  0
   23.9325  -20.1720  -10.4024 C   0  0  0  0  0  0  0  0  0  0  0  0
   23.5474  -21.0324  -11.4113 C   0  0  0  0  0  0  0  0  0  0  0  0
   22.1432  -21.1004  -11.8732 C   0  0  0  0  0  0  0  0  0  0  0  0
   22.0281  -21.3055  -13.3670 C   0  0  2  0  0  0  0  0  0  0  0  0
   22.6202  -20.1240  -13.9884 N   0  0  0  0  0  0  0  0  0  0  0  0
   20.6561  -21.4908  -13.8405 C   0  0  0  0  0  0  0  0  0  0  0  0
   19.8655  -22.3287  -13.3062 O   0  0  0  0  0  0  0  0  0  0  0  0
   24.5404  -21.8203  -11.9561 C   0  0  0  0  0  0  0  0  0  0  0  0
   25.8505  -21.7636  -11.5274 C   0  0  0  0  0  0  0  0  0  0  0  0
   16.5436  -18.3682  -17.2642 C   0  0  0  0  0  0  0  0  0  0  0  0
   16.8413  -19.4839  -16.2797 C   0  0  2  0  0  0  0  0  0  0  0  0
   15.8100  -19.5354  -15.2240 C   0  0  0  0  0  0  0  0  0  0  0  0
   18.2602  -19.5921  -15.8899 C   0  0  0  0  0  0  0  0  0  0  0  0
   18.7744  -20.8813  -15.3729 C   0  0  2  0  0  0  0  0  0  0  0  0
   20.1834  -20.7160  -14.9290 N   0  0  0  0  0  0  0  0  0  0  0  0
   18.6661  -22.0562  -16.2476 C   0  0  0  0  0  0  0  0  0  0  0  0
   19.5805  -22.2177  -17.1374 O   0  0  0  0  0  0  0  0  0  0  0  0
   17.6998  -23.0206  -16.2330 O   0  0  0  0  0  0  0  0  0  0  0  0
  1  2  1  0
  2  3  2  0
  2  4  1  0
  4  5  1  0
  6  7  1  1
  6  5  1  0
  8  6  1  0
  9  8  2  0
 10 11  1  0
 11 12  2  0
 11 21  1  0
 12 13  1  0
 13 14  2  0
 14 15  1  0
 16 15  1  1
 16 17  1  0
 17  8  1  0
 18 27  1  0
 18 16  1  0
 19 18  2  0
 20 14  1  0
 21 20  2  0
 23 22  1  1
 23 25  1  0
 24 23  1  0
 26 25  1  6
 26 27  1  0
 28 26  1  0
 28 30  1  0
 29 28  2  0
M  END
$$$$
