PKA.pdb
     RDKit          3D

 22 22  0  0  1  0  0  0  0  0999 V2000
    6.6627  -19.3952   20.8430 N   0  0  0  0  0  0  0  0  0  0  0  0
    6.0269  -20.0906   19.7176 C   0  0  0  0  0  0  0  0  0  0  0  0
    6.8841  -19.5983   18.5755 C   0  0  0  0  0  0  0  0  0  0  0  0
    8.2867  -19.7471   19.1602 C   0  0  0  0  0  0  0  0  0  0  0  0
    8.0721  -19.6780   20.6358 C   0  0  1  0  0  0  0  0  0  0  0  0
    8.8434  -18.5725   21.2292 C   0  0  0  0  0  0  0  0  0  0  0  0
   10.1049  -18.5153   21.1975 O   0  0  0  0  0  0  0  0  0  0  0  0
    8.1562  -17.5118   21.8706 N   0  0  0  0  0  0  0  0  0  0  0  0
    8.9017  -16.4395   22.5015 C   0  0  1  0  0  0  0  0  0  0  0  0
    8.1388  -15.1684   22.2039 C   0  0  0  0  0  0  0  0  0  0  0  0
    8.0763  -14.8330   20.7474 C   0  0  0  0  0  0  0  0  0  0  0  0
    7.9486  -13.3380   20.5736 C   0  0  0  0  0  0  0  0  0  0  0  0
    7.8187  -12.9479   19.1260 C   0  0  0  0  0  0  0  0  0  0  0  0
    7.5800  -11.5071   18.9865 N   0  0  0  0  0  0  0  0  0  0  0  0
    9.0134  -16.7364   23.9385 C   0  0  0  0  0  0  0  0  0  0  0  0
    8.0147  -16.7150   24.7264 O   0  0  0  0  0  0  0  0  0  0  0  0
   10.7145  -18.8043   26.2191 C   0  0  0  0  0  0  0  0  0  0  0  0
   10.3948  -17.3557   25.9536 C   0  0  2  0  0  0  0  0  0  0  0  0
   10.2562  -17.0687   24.5403 N   0  0  0  0  0  0  0  0  0  0  0  0
   11.3647  -16.4393   26.6076 C   0  0  0  0  0  0  0  0  0  0  0  0
   11.6027  -16.4286   27.8361 O   0  0  0  0  0  0  0  0  0  0  0  0
   12.0465  -15.5409   25.7992 O   0  0  0  0  0  0  0  0  0  0  0  0
  1  5  1  0
  2  1  1  0
  2  3  1  0
  3  4  1  0
  4  5  1  0
  5  6  1  6
  6  7  2  0
  8  9  1  0
  8  6  1  0
  9 15  1  0
  9 10  1  1
 11 10  1  0
 11 12  1  0
 13 12  1  0
 14 13  1  0
 15 16  2  0
 18 17  1  6
 18 20  1  0
 19 15  1  0
 19 18  1  0
 20 21  2  0
 20 22  1  0
M  END
$$$$
