PKA.pdb
     RDKit          3D

 22 22  0  0  1  0  0  0  0  0999 V2000
    8.6066  -14.9414   20.3415 N   0  0  0  0  0  0  0  0  0  0  0  0
    8.4294  -14.3953   18.9907 C   0  0  0  0  0  0  0  0  0  0  0  0
    7.2983  -13.4249   19.2368 C   0  0  0  0  0  0  0  0  0  0  0  0
    7.7563  -12.7421   20.5234 C   0  0  0  0  0  0  0  0  0  0  0  0
    8.6575  -13.7452   21.1636 C   0  0  1  0  0  0  0  0  0  0  0  0
    8.1757  -14.1042   22.5082 C   0  0  0  0  0  0  0  0  0  0  0  0
    7.8026  -13.2487   23.3595 O   0  0  0  0  0  0  0  0  0  0  0  0
    8.1193  -15.4695   22.8845 N   0  0  0  0  0  0  0  0  0  0  0  0
    7.6848  -15.8381   24.2182 C   0  0  1  0  0  0  0  0  0  0  0  0
    7.4458  -17.3308   24.1825 C   0  0  0  0  0  0  0  0  0  0  0  0
    6.3255  -17.7378   23.2785 C   0  0  0  0  0  0  0  0  0  0  0  0
    6.1539  -19.2378   23.3230 C   0  0  0  0  0  0  0  0  0  0  0  0
    4.9922  -19.6974   22.4841 C   0  0  0  0  0  0  0  0  0  0  0  0
    4.8485  -21.1566   22.5349 N   0  0  0  0  0  0  0  0  0  0  0  0
    8.7273  -15.4315   25.1738 C   0  0  0  0  0  0  0  0  0  0  0  0
    9.9682  -15.6110   24.9578 O   0  0  0  0  0  0  0  0  0  0  0  0
    8.9628  -13.1488   28.1366 C   0  0  0  0  0  0  0  0  0  0  0  0
    9.4175  -14.3450   27.3408 C   0  0  2  0  0  0  0  0  0  0  0  0
    8.4088  -14.8069   26.4089 N   0  0  0  0  0  0  0  0  0  0  0  0
    9.9045  -15.4453   28.2127 C   0  0  0  0  0  0  0  0  0  0  0  0
    9.3969  -16.5886   28.2510 O   0  0  0  0  0  0  0  0  0  0  0  0
   10.9914  -15.1822   29.0342 O   0  0  0  0  0  0  0  0  0  0  0  0
  1  5  1  0
  2  1  1  0
  2  3  1  0
  3  4  1  0
  4  5  1  0
  5  6  1  1
  6  7  2  0
  8  9  1  0
  8  6  1  0
  9 15  1  0
  9 10  1  6
 11 10  1  0
 11 12  1  0
 13 12  1  0
 14 13  1  0
 15 16  2  0
 18 17  1  1
 18 20  1  0
 19 15  1  0
 19 18  1  0
 20 21  2  0
 20 22  1  0
M  END
$$$$
