PKA.pdb
     RDKit          3D

 22 22  0  0  1  0  0  0  0  0999 V2000
    7.5342  -19.8544   17.3067 N   0  0  0  0  0  0  0  0  0  0  0  0
    7.2973  -21.2986   17.1951 C   0  0  0  0  0  0  0  0  0  0  0  0
    7.9320  -21.7775   18.4794 C   0  0  0  0  0  0  0  0  0  0  0  0
    7.3889  -20.7647   19.4846 C   0  0  0  0  0  0  0  0  0  0  0  0
    7.0825  -19.5617   18.6557 C   0  0  1  0  0  0  0  0  0  0  0  0
    7.8311  -18.3872   19.1345 C   0  0  0  0  0  0  0  0  0  0  0  0
    9.0246  -18.1450   18.7990 O   0  0  0  0  0  0  0  0  0  0  0  0
    7.2000  -17.4722   20.0137 N   0  0  0  0  0  0  0  0  0  0  0  0
    7.9296  -16.3216   20.5112 C   0  0  1  0  0  0  0  0  0  0  0  0
    6.8885  -15.2729   20.8316 C   0  0  0  0  0  0  0  0  0  0  0  0
    7.4689  -13.9653   21.2692 C   0  0  0  0  0  0  0  0  0  0  0  0
    8.1176  -13.2762   20.0920 C   0  0  0  0  0  0  0  0  0  0  0  0
    8.6693  -11.9263   20.4631 C   0  0  0  0  0  0  0  0  0  0  0  0
    9.2441  -11.2510   19.2943 N   0  0  0  0  0  0  0  0  0  0  0  0
    8.7191  -16.7436   21.6791 C   0  0  0  0  0  0  0  0  0  0  0  0
    8.2436  -17.4763   22.6043 O   0  0  0  0  0  0  0  0  0  0  0  0
   12.3310  -16.4928   22.8118 C   0  0  0  0  0  0  0  0  0  0  0  0
   10.8526  -16.6976   23.0202 C   0  0  2  0  0  0  0  0  0  0  0  0
   10.0748  -16.3549   21.8469 N   0  0  0  0  0  0  0  0  0  0  0  0
   10.3556  -15.9966   24.2325 C   0  0  0  0  0  0  0  0  0  0  0  0
    9.4994  -15.0840   24.2150 O   0  0  0  0  0  0  0  0  0  0  0  0
   10.8779  -16.3830   25.4587 O   0  0  0  0  0  0  0  0  0  0  0  0
  1  5  1  0
  2  1  1  0
  2  3  1  0
  3  4  1  0
  4  5  1  0
  5  6  1  1
  6  7  2  0
  8  9  1  0
  8  6  1  0
  9 15  1  0
  9 10  1  1
 11 10  1  0
 11 12  1  0
 13 12  1  0
 14 13  1  0
 15 16  2  0
 18 17  1  6
 18 20  1  0
 19 15  1  0
 19 18  1  0
 20 21  2  0
 20 22  1  0
M  END
$$$$
