PKA.pdb
     RDKit          3D

 22 22  0  0  1  0  0  0  0  0999 V2000
    8.6367  -15.1246   20.0794 N   0  0  0  0  0  0  0  0  0  0  0  0
    8.4996  -14.6794   18.6876 C   0  0  0  0  0  0  0  0  0  0  0  0
    7.2618  -13.8207   18.7984 C   0  0  0  0  0  0  0  0  0  0  0  0
    7.5579  -13.0202   20.0644 C   0  0  0  0  0  0  0  0  0  0  0  0
    8.5092  -13.8841   20.8239 C   0  0  1  0  0  0  0  0  0  0  0  0
    7.9738  -14.2133   22.1558 C   0  0  0  0  0  0  0  0  0  0  0  0
    7.5668  -13.3393   22.9720 O   0  0  0  0  0  0  0  0  0  0  0  0
    7.9025  -15.5698   22.5601 N   0  0  0  0  0  0  0  0  0  0  0  0
    7.5211  -15.9039   23.9190 C   0  0  1  0  0  0  0  0  0  0  0  0
    7.5312  -17.4139   23.9969 C   0  0  0  0  0  0  0  0  0  0  0  0
    7.2433  -17.9461   25.3651 C   0  0  0  0  0  0  0  0  0  0  0  0
    7.2211  -19.4560   25.3304 C   0  0  0  0  0  0  0  0  0  0  0  0
    6.7626  -20.0432   26.6378 C   0  0  0  0  0  0  0  0  0  0  0  0
    6.5508  -21.4903   26.5218 N   0  0  0  0  0  0  0  0  0  0  0  0
    8.4730  -15.2606   24.8385 C   0  0  0  0  0  0  0  0  0  0  0  0
    9.7311  -15.2747   24.6491 O   0  0  0  0  0  0  0  0  0  0  0  0
    8.3785  -12.7762   27.6445 C   0  0  0  0  0  0  0  0  0  0  0  0
    8.9601  -13.9845   26.9567 C   0  0  2  0  0  0  0  0  0  0  0  0
    8.0412  -14.5769   26.0060 N   0  0  0  0  0  0  0  0  0  0  0  0
    9.4708  -14.9887   27.9257 C   0  0  0  0  0  0  0  0  0  0  0  0
    9.0520  -16.1653   28.0045 O   0  0  0  0  0  0  0  0  0  0  0  0
   10.4757  -14.5902   28.7956 O   0  0  0  0  0  0  0  0  0  0  0  0
  1  5  1  0
  2  1  1  0
  2  3  1  0
  3  4  1  0
  4  5  1  0
  5  6  1  1
  6  7  2  0
  8  9  1  0
  8  6  1  0
  9 15  1  0
  9 10  1  6
 11 10  1  0
 11 12  1  0
 13 12  1  0
 14 13  1  0
 15 16  2  0
 18 17  1  1
 18 20  1  0
 19 15  1  0
 19 18  1  0
 20 21  2  0
 20 22  1  0
M  END
$$$$
