PKA.pdb
     RDKit          3D

 22 22  0  0  1  0  0  0  0  0999 V2000
    8.3960  -15.0616   19.6941 N   0  0  0  0  0  0  0  0  0  0  0  0
    8.3424  -14.6743   18.2794 C   0  0  0  0  0  0  0  0  0  0  0  0
    7.4245  -13.4775   18.3605 C   0  0  0  0  0  0  0  0  0  0  0  0
    7.9978  -12.7340   19.5646 C   0  0  0  0  0  0  0  0  0  0  0  0
    8.6763  -13.8008   20.3582 C   0  0  1  0  0  0  0  0  0  0  0  0
    8.1211  -13.8781   21.7202 C   0  0  0  0  0  0  0  0  0  0  0  0
    8.0795  -12.8901   22.5062 O   0  0  0  0  0  0  0  0  0  0  0  0
    7.6029  -15.1106   22.1903 N   0  0  0  0  0  0  0  0  0  0  0  0
    6.9977  -15.1898   23.5059 C   0  0  1  0  0  0  0  0  0  0  0  0
    6.3154  -16.5376   23.5720 C   0  0  0  0  0  0  0  0  0  0  0  0
    7.2666  -17.6921   23.5778 C   0  0  0  0  0  0  0  0  0  0  0  0
    6.4933  -18.9897   23.5762 C   0  0  0  0  0  0  0  0  0  0  0  0
    7.4030  -20.1880   23.6055 C   0  0  0  0  0  0  0  0  0  0  0  0
    6.6346  -21.4318   23.7274 N   0  0  0  0  0  0  0  0  0  0  0  0
    8.0558  -15.0156   24.5137 C   0  0  0  0  0  0  0  0  0  0  0  0
    9.2451  -15.4346   24.3438 O   0  0  0  0  0  0  0  0  0  0  0  0
    8.5920  -12.8990   27.5650 C   0  0  0  0  0  0  0  0  0  0  0  0
    8.8475  -14.1323   26.7375 C   0  0  2  0  0  0  0  0  0  0  0  0
    7.8118  -14.3620   25.7507 N   0  0  0  0  0  0  0  0  0  0  0  0
    9.0792  -15.3340   27.5804 C   0  0  0  0  0  0  0  0  0  0  0  0
    8.3547  -16.3542   27.5637 O   0  0  0  0  0  0  0  0  0  0  0  0
   10.1698  -15.3176   28.4382 O   0  0  0  0  0  0  0  0  0  0  0  0
  1  5  1  0
  2  1  1  0
  2  3  1  0
  3  4  1  0
  4  5  1  0
  5  6  1  1
  6  7  2  0
  8  9  1  0
  8  6  1  0
  9 15  1  0
  9 10  1  1
 11 10  1  0
 11 12  1  0
 13 12  1  0
 14 13  1  0
 15 16  2  0
 18 17  1  1
 18 20  1  0
 19 15  1  0
 19 18  1  0
 20 21  2  0
 20 22  1  0
M  END
$$$$
