PKA.pdb
     RDKit          3D

 22 22  0  0  1  0  0  0  0  0999 V2000
    8.6482  -15.0419   19.7415 N   0  0  0  0  0  0  0  0  0  0  0  0
    8.6307  -14.6260   18.3341 C   0  0  0  0  0  0  0  0  0  0  0  0
    7.3593  -13.8109   18.3080 C   0  0  0  0  0  0  0  0  0  0  0  0
    7.5040  -12.9785   19.5798 C   0  0  0  0  0  0  0  0  0  0  0  0
    8.4068  -13.7942   20.4446 C   0  0  1  0  0  0  0  0  0  0  0  0
    7.7570  -14.1196   21.7256 C   0  0  0  0  0  0  0  0  0  0  0  0
    7.1592  -13.2618   22.4344 O   0  0  0  0  0  0  0  0  0  0  0  0
    7.7921  -15.4535   22.2033 N   0  0  0  0  0  0  0  0  0  0  0  0
    7.2752  -15.7669   23.5217 C   0  0  1  0  0  0  0  0  0  0  0  0
    7.4093  -17.2649   23.6783 C   0  0  0  0  0  0  0  0  0  0  0  0
    7.0098  -17.7651   25.0304 C   0  0  0  0  0  0  0  0  0  0  0  0
    7.1942  -19.2629   25.0946 C   0  0  0  0  0  0  0  0  0  0  0  0
    6.8769  -19.8118   26.4593 C   0  0  0  0  0  0  0  0  0  0  0  0
    7.1258  -21.2564   26.5187 N   0  0  0  0  0  0  0  0  0  0  0  0
    8.0440  -15.0000   24.5148 C   0  0  0  0  0  0  0  0  0  0  0  0
    9.3158  -15.0010   24.5523 O   0  0  0  0  0  0  0  0  0  0  0  0
    7.4327  -12.2235   26.9591 C   0  0  0  0  0  0  0  0  0  0  0  0
    8.1381  -13.4825   26.5250 C   0  0  2  0  0  0  0  0  0  0  0  0
    7.4068  -14.2032   25.5027 N   0  0  0  0  0  0  0  0  0  0  0  0
    8.4800  -14.3581   27.6759 C   0  0  0  0  0  0  0  0  0  0  0  0
    8.0214  -15.5105   27.8426 O   0  0  0  0  0  0  0  0  0  0  0  0
    9.3643  -13.8605   28.6225 O   0  0  0  0  0  0  0  0  0  0  0  0
  1  5  1  0
  2  1  1  0
  2  3  1  0
  3  4  1  0
  4  5  1  0
  5  6  1  1
  6  7  2  0
  8  9  1  0
  8  6  1  0
  9 15  1  0
  9 10  1  1
 11 10  1  0
 11 12  1  0
 13 12  1  0
 14 13  1  0
 15 16  2  0
 18 17  1  1
 18 20  1  0
 19 15  1  0
 19 18  1  0
 20 21  2  0
 20 22  1  0
M  END
$$$$
