KFQ.pdb
     RDKit          3D

 30 30  0  0  1  0  0  0  0  0999 V2000
   25.2962  -19.9648  -19.6504 N   0  0  0  0  0  0  0  0  0  0  0  0
   25.9306  -18.8578  -18.9371 C   0  0  1  0  0  0  0  0  0  0  0  0
   25.7996  -17.5762  -19.7613 C   0  0  0  0  0  0  0  0  0  0  0  0
   26.2605  -17.8985  -21.1596 C   0  0  0  0  0  0  0  0  0  0  0  0
   25.0688  -18.2087  -22.0181 C   0  0  0  0  0  0  0  0  0  0  0  0
   25.5007  -18.5164  -23.4171 C   0  0  0  0  0  0  0  0  0  0  0  0
   24.3165  -18.8354  -24.2071 N   0  0  0  0  0  0  0  0  0  0  0  0
   25.1121  -18.6094  -17.7048 C   0  0  0  0  0  0  0  0  0  0  0  0
   25.3755  -17.6497  -16.9096 O   0  0  0  0  0  0  0  0  0  0  0  0
   24.0119  -19.4206  -17.3604 N   0  0  0  0  0  0  0  0  0  0  0  0
   23.1426  -19.1218  -16.1856 C   0  0  1  0  0  0  0  0  0  0  0  0
   21.7806  -19.0772  -16.7761 C   0  0  0  0  0  0  0  0  0  0  0  0
   21.3042  -17.8454  -17.3663 C   0  0  0  0  0  0  0  0  0  0  0  0
   21.2432  -17.6096  -18.7344 C   0  0  0  0  0  0  0  0  0  0  0  0
   20.7372  -16.4109  -19.2306 C   0  0  0  0  0  0  0  0  0  0  0  0
   20.2873  -15.4341  -18.3909 C   0  0  0  0  0  0  0  0  0  0  0  0
   20.3342  -15.6339  -17.0481 C   0  0  0  0  0  0  0  0  0  0  0  0
   20.8428  -16.8388  -16.5506 C   0  0  0  0  0  0  0  0  0  0  0  0
   23.4189  -20.1989  -15.2466 C   0  0  0  0  0  0  0  0  0  0  0  0
   23.5061  -21.3827  -15.6368 O   0  0  0  0  0  0  0  0  0  0  0  0
   25.5774  -19.4652   -9.3505 N   0  0  0  0  0  0  0  0  0  0  0  0
   25.6248  -20.8671   -9.5115 C   0  0  0  0  0  0  0  0  0  0  0  0
   26.1403  -21.5910   -8.6326 O   0  0  0  0  0  0  0  0  0  0  0  0
   25.0618  -21.4822  -10.7257 C   0  0  0  0  0  0  0  0  0  0  0  0
   24.5849  -20.4006  -11.6894 C   0  0  0  0  0  0  0  0  0  0  0  0
   23.9880  -21.0435  -12.9574 C   0  0  2  0  0  0  0  0  0  0  0  0
   23.6038  -19.9494  -13.8674 N   0  0  0  0  0  0  0  0  0  0  0  0
   22.7671  -21.7964  -12.6180 C   0  0  0  0  0  0  0  0  0  0  0  0
   21.5015  -21.2892  -12.8799 O   0  0  0  0  0  0  0  0  0  0  0  0
   22.8026  -22.9379  -12.0723 O   0  0  0  0  0  0  0  0  0  0  0  0
  2  1  1  6
  2  8  1  0
  2  3  1  0
  3  4  1  0
  4  5  1  0
  5  6  1  0
  7  6  1  0
  8  9  2  0
 10 11  1  0
 10  8  1  0
 11 12  1  6
 12 13  1  0
 13 18  2  0
 13 14  1  0
 14 15  2  0
 15 16  1  0
 17 16  2  0
 18 17  1  0
 19 11  1  0
 20 19  2  0
 22 21  1  0
 22 23  2  0
 24 22  1  0
 26 25  1  1
 25 24  1  0
 26 27  1  0
 27 19  1  0
 28 29  1  0
 28 26  1  0
 30 28  2  0
M  END
$$$$
