KFQ.pdb
     RDKit          3D

 30 30  0  0  1  0  0  0  0  0999 V2000
   23.3708  -22.1452   -8.9159 N   0  0  0  0  0  0  0  0  0  0  0  0
   22.9686  -21.6034  -10.2126 C   0  0  1  0  0  0  0  0  0  0  0  0
   21.8135  -20.6198  -10.0200 C   0  0  0  0  0  0  0  0  0  0  0  0
   20.7852  -21.3059   -9.1577 C   0  0  0  0  0  0  0  0  0  0  0  0
   19.7879  -22.0069  -10.0338 C   0  0  0  0  0  0  0  0  0  0  0  0
   18.6793  -22.5782   -9.2071 C   0  0  0  0  0  0  0  0  0  0  0  0
   17.7396  -23.2525  -10.0963 N   0  0  0  0  0  0  0  0  0  0  0  0
   24.1107  -20.7654  -10.7062 C   0  0  0  0  0  0  0  0  0  0  0  0
   23.9167  -19.6687  -11.3245 O   0  0  0  0  0  0  0  0  0  0  0  0
   25.4549  -21.1436  -10.5140 N   0  0  0  0  0  0  0  0  0  0  0  0
   26.5909  -20.3264  -11.0307 C   0  0  1  0  0  0  0  0  0  0  0  0
   27.6978  -20.6591  -10.0981 C   0  0  0  0  0  0  0  0  0  0  0  0
   27.6546  -20.1612   -8.7407 C   0  0  0  0  0  0  0  0  0  0  0  0
   27.8807  -20.9450   -7.6157 C   0  0  0  0  0  0  0  0  0  0  0  0
   27.8589  -20.3867   -6.3402 C   0  0  0  0  0  0  0  0  0  0  0  0
   27.6153  -19.0568   -6.1567 C   0  0  0  0  0  0  0  0  0  0  0  0
   27.3898  -18.2639   -7.2364 C   0  0  0  0  0  0  0  0  0  0  0  0
   27.4120  -18.8259   -8.5176 C   0  0  0  0  0  0  0  0  0  0  0  0
   26.7442  -20.7518  -12.4141 C   0  0  0  0  0  0  0  0  0  0  0  0
   26.5935  -21.9495  -12.7367 O   0  0  0  0  0  0  0  0  0  0  0  0
   22.6367  -18.1872  -14.9282 N   0  0  0  0  0  0  0  0  0  0  0  0
   23.1424  -18.7168  -16.1352 C   0  0  0  0  0  0  0  0  0  0  0  0
   22.4535  -18.6935  -17.1779 O   0  0  0  0  0  0  0  0  0  0  0  0
   24.4938  -19.3019  -16.1665 C   0  0  0  0  0  0  0  0  0  0  0  0
   25.0726  -19.3620  -14.7568 C   0  0  0  0  0  0  0  0  0  0  0  0
   26.4808  -19.9894  -14.7862 C   0  0  2  0  0  0  0  0  0  0  0  0
   27.0615  -19.8328  -13.4404 N   0  0  0  0  0  0  0  0  0  0  0  0
   27.3414  -19.2605  -15.7354 C   0  0  0  0  0  0  0  0  0  0  0  0
   27.4002  -19.6057  -17.0789 O   0  0  0  0  0  0  0  0  0  0  0  0
   28.0700  -18.2876  -15.3827 O   0  0  0  0  0  0  0  0  0  0  0  0
  2  1  1  1
  2  8  1  0
  2  3  1  0
  3  4  1  0
  4  5  1  0
  5  6  1  0
  7  6  1  0
  8  9  2  0
 10 11  1  0
 10  8  1  0
 11 12  1  1
 12 13  1  0
 13 18  2  0
 13 14  1  0
 14 15  2  0
 15 16  1  0
 17 16  2  0
 18 17  1  0
 19 11  1  0
 20 19  2  0
 22 21  1  0
 22 23  2  0
 24 22  1  0
 26 25  1  1
 25 24  1  0
 26 27  1  0
 27 19  1  0
 28 29  1  0
 28 26  1  0
 30 28  2  0
M  END
$$$$
