KFQ.pdb
     RDKit          3D

 30 30  0  0  1  0  0  0  0  0999 V2000
   28.6805  -19.2107  -15.1691 N   0  0  0  0  0  0  0  0  0  0  0  0
   27.6797  -20.1170  -15.7295 C   0  0  1  0  0  0  0  0  0  0  0  0
   28.3747  -21.1917  -16.5668 C   0  0  0  0  0  0  0  0  0  0  0  0
   28.9604  -20.5046  -17.7736 C   0  0  0  0  0  0  0  0  0  0  0  0
   27.8531  -19.9141  -18.5973 C   0  0  0  0  0  0  0  0  0  0  0  0
   28.4042  -19.2920  -19.8415 C   0  0  0  0  0  0  0  0  0  0  0  0
   27.3102  -18.6480  -20.5602 N   0  0  0  0  0  0  0  0  0  0  0  0
   27.0720  -20.8593  -14.5763 C   0  0  0  0  0  0  0  0  0  0  0  0
   26.9356  -22.1257  -14.5939 O   0  0  0  0  0  0  0  0  0  0  0  0
   26.6205  -20.1995  -13.4154 N   0  0  0  0  0  0  0  0  0  0  0  0
   25.9075  -20.9189  -12.3203 C   0  0  1  0  0  0  0  0  0  0  0  0
   26.3197  -20.1745  -11.1030 C   0  0  0  0  0  0  0  0  0  0  0  0
   27.4902  -20.6061  -10.3710 C   0  0  0  0  0  0  0  0  0  0  0  0
   27.5353  -20.7522   -8.9898 C   0  0  0  0  0  0  0  0  0  0  0  0
   28.6889  -21.2086   -8.3572 C   0  0  0  0  0  0  0  0  0  0  0  0
   29.8068  -21.5254   -9.0723 C   0  0  0  0  0  0  0  0  0  0  0  0
   29.7948  -21.3928  -10.4242 C   0  0  0  0  0  0  0  0  0  0  0  0
   28.6352  -20.9341  -11.0587 C   0  0  0  0  0  0  0  0  0  0  0  0
   24.5025  -20.8462  -12.6931 C   0  0  0  0  0  0  0  0  0  0  0  0
   24.0131  -19.7889  -13.1446 O   0  0  0  0  0  0  0  0  0  0  0  0
   22.8367  -25.4298  -14.8040 N   0  0  0  0  0  0  0  0  0  0  0  0
   21.8621  -24.6533  -15.4677 C   0  0  0  0  0  0  0  0  0  0  0  0
   21.4942  -24.9484  -16.6253 O   0  0  0  0  0  0  0  0  0  0  0  0
   21.2733  -23.4854  -14.7904 C   0  0  0  0  0  0  0  0  0  0  0  0
   21.8300  -23.3631  -13.3758 C   0  0  0  0  0  0  0  0  0  0  0  0
   22.2719  -21.9116  -13.1015 C   0  0  2  0  0  0  0  0  0  0  0  0
   23.6441  -21.9622  -12.5656 N   0  0  0  0  0  0  0  0  0  0  0  0
   21.4088  -21.3042  -12.0725 C   0  0  0  0  0  0  0  0  0  0  0  0
   20.1819  -20.7380  -12.3917 O   0  0  0  0  0  0  0  0  0  0  0  0
   21.7345  -21.2637  -10.8501 O   0  0  0  0  0  0  0  0  0  0  0  0
  2  1  1  1
  2  8  1  0
  2  3  1  0
  3  4  1  0
  4  5  1  0
  5  6  1  0
  7  6  1  0
  8  9  2  0
 10 11  1  0
 10  8  1  0
 11 12  1  1
 12 13  1  0
 13 18  2  0
 13 14  1  0
 14 15  2  0
 15 16  1  0
 17 16  2  0
 18 17  1  0
 19 11  1  0
 20 19  2  0
 22 21  1  0
 22 23  2  0
 24 22  1  0
 26 25  1  1
 25 24  1  0
 26 27  1  0
 27 19  1  0
 28 29  1  0
 28 26  1  0
 30 28  2  0
M  END
$$$$
