KFQ.pdb
     RDKit          3D

 30 30  0  0  1  0  0  0  0  0999 V2000
   22.4556  -28.5495  -18.5358 N   0  0  0  0  0  0  0  0  0  0  0  0
   23.4902  -29.1671  -17.7082 C   0  0  1  0  0  0  0  0  0  0  0  0
   24.8606  -28.9389  -18.3476 C   0  0  0  0  0  0  0  0  0  0  0  0
   25.1942  -30.1786  -19.1372 C   0  0  0  0  0  0  0  0  0  0  0  0
   24.2551  -30.2949  -20.3026 C   0  0  0  0  0  0  0  0  0  0  0  0
   24.5432  -31.5394  -21.0816 C   0  0  0  0  0  0  0  0  0  0  0  0
   23.5594  -31.6528  -22.1527 N   0  0  0  0  0  0  0  0  0  0  0  0
   23.5325  -28.3988  -16.4205 C   0  0  0  0  0  0  0  0  0  0  0  0
   24.3789  -28.6698  -15.5079 O   0  0  0  0  0  0  0  0  0  0  0  0
   22.6421  -27.3398  -16.1508 N   0  0  0  0  0  0  0  0  0  0  0  0
   22.7696  -26.4862  -14.9342 C   0  0  1  0  0  0  0  0  0  0  0  0
   23.0462  -25.1388  -15.4945 C   0  0  0  0  0  0  0  0  0  0  0  0
   24.3438  -24.8642  -16.0717 C   0  0  0  0  0  0  0  0  0  0  0  0
   25.5357  -24.8923  -15.3578 C   0  0  0  0  0  0  0  0  0  0  0  0
   26.7529  -24.6529  -15.9905 C   0  0  0  0  0  0  0  0  0  0  0  0
   26.8121  -24.3843  -17.3269 C   0  0  0  0  0  0  0  0  0  0  0  0
   25.6643  -24.3491  -18.0525 C   0  0  0  0  0  0  0  0  0  0  0  0
   24.4418  -24.5898  -17.4157 C   0  0  0  0  0  0  0  0  0  0  0  0
   21.5060  -26.6620  -14.2336 C   0  0  0  0  0  0  0  0  0  0  0  0
   20.4310  -26.7524  -14.8639 O   0  0  0  0  0  0  0  0  0  0  0  0
   20.2169  -29.6388   -9.4424 N   0  0  0  0  0  0  0  0  0  0  0  0
   19.0978  -28.7868   -9.3194 C   0  0  0  0  0  0  0  0  0  0  0  0
   18.0673  -29.1723   -8.7264 O   0  0  0  0  0  0  0  0  0  0  0  0
   19.1449  -27.4317   -9.8947 C   0  0  0  0  0  0  0  0  0  0  0  0
   20.4479  -27.2319  -10.6616 C   0  0  0  0  0  0  0  0  0  0  0  0
   20.1513  -26.9160  -12.1413 C   0  0  2  0  0  0  0  0  0  0  0  0
   21.4464  -26.7427  -12.8234 N   0  0  0  0  0  0  0  0  0  0  0  0
   19.4115  -25.6457  -12.2505 C   0  0  0  0  0  0  0  0  0  0  0  0
   18.0257  -25.6139  -12.3306 O   0  0  0  0  0  0  0  0  0  0  0  0
   19.9922  -24.5215  -12.2783 O   0  0  0  0  0  0  0  0  0  0  0  0
  2  1  1  6
  2  8  1  0
  2  3  1  0
  3  4  1  0
  4  5  1  0
  5  6  1  0
  7  6  1  0
  8  9  2  0
 10 11  1  0
 10  8  1  0
 11 12  1  6
 12 13  1  0
 13 18  2  0
 13 14  1  0
 14 15  2  0
 15 16  1  0
 17 16  2  0
 18 17  1  0
 19 11  1  0
 20 19  2  0
 22 21  1  0
 22 23  2  0
 24 22  1  0
 26 25  1  1
 25 24  1  0
 26 27  1  0
 27 19  1  0
 28 29  1  0
 28 26  1  0
 30 28  2  0
M  END
$$$$
