KFQ.pdb
     RDKit          3D

 30 30  0  0  1  0  0  0  0  0999 V2000
   28.4307  -20.1019  -16.5569 N   0  0  0  0  0  0  0  0  0  0  0  0
   27.2111  -20.8413  -16.8773 C   0  0  1  0  0  0  0  0  0  0  0  0
   27.5652  -22.0787  -17.7034 C   0  0  0  0  0  0  0  0  0  0  0  0
   28.3200  -21.6010  -18.9174 C   0  0  0  0  0  0  0  0  0  0  0  0
   27.3471  -21.0875  -19.9389 C   0  0  0  0  0  0  0  0  0  0  0  0
   28.0632  -20.7130  -21.1981 C   0  0  0  0  0  0  0  0  0  0  0  0
   27.1107  -20.0733  -22.0991 N   0  0  0  0  0  0  0  0  0  0  0  0
   26.6778  -21.3810  -15.5833 C   0  0  0  0  0  0  0  0  0  0  0  0
   25.9362  -22.4160  -15.5458 O   0  0  0  0  0  0  0  0  0  0  0  0
   26.9664  -20.7753  -14.3436 N   0  0  0  0  0  0  0  0  0  0  0  0
   26.2462  -21.1478  -13.0916 C   0  0  1  0  0  0  0  0  0  0  0  0
   27.0994  -20.5646  -12.0250 C   0  0  0  0  0  0  0  0  0  0  0  0
   26.5953  -20.4998  -10.6707 C   0  0  0  0  0  0  0  0  0  0  0  0
   26.2612  -21.6134   -9.9096 C   0  0  0  0  0  0  0  0  0  0  0  0
   25.8165  -21.4744   -8.5973 C   0  0  0  0  0  0  0  0  0  0  0  0
   25.6954  -20.2438   -8.0205 C   0  0  0  0  0  0  0  0  0  0  0  0
   26.0136  -19.1354   -8.7386 C   0  0  0  0  0  0  0  0  0  0  0  0
   26.4604  -19.2763  -10.0570 C   0  0  0  0  0  0  0  0  0  0  0  0
   24.9160  -20.5802  -13.2557 C   0  0  0  0  0  0  0  0  0  0  0  0
   24.7594  -19.4535  -13.7725 O   0  0  0  0  0  0  0  0  0  0  0  0
   20.2478  -22.8935  -15.9420 N   0  0  0  0  0  0  0  0  0  0  0  0
   19.5882  -21.7969  -15.3456 C   0  0  0  0  0  0  0  0  0  0  0  0
   18.4304  -21.4835  -15.6971 O   0  0  0  0  0  0  0  0  0  0  0  0
   20.2701  -21.0151  -14.3000 C   0  0  0  0  0  0  0  0  0  0  0  0
   21.6839  -21.5454  -14.0860 C   0  0  0  0  0  0  0  0  0  0  0  0
   22.4220  -20.6857  -13.0403 C   0  0  2  0  0  0  0  0  0  0  0  0
   23.7574  -21.2786  -12.8452 N   0  0  0  0  0  0  0  0  0  0  0  0
   21.7133  -20.7378  -11.7489 C   0  0  0  0  0  0  0  0  0  0  0  0
   21.9988  -21.7099  -10.7995 O   0  0  0  0  0  0  0  0  0  0  0  0
   20.8113  -19.9073  -11.4350 O   0  0  0  0  0  0  0  0  0  0  0  0
  2  1  1  1
  2  8  1  0
  2  3  1  0
  3  4  1  0
  4  5  1  0
  5  6  1  0
  7  6  1  0
  8  9  2  0
 10 11  1  0
 10  8  1  0
 11 12  1  1
 12 13  1  0
 13 18  2  0
 13 14  1  0
 14 15  2  0
 15 16  1  0
 17 16  2  0
 18 17  1  0
 19 11  1  0
 20 19  2  0
 22 21  1  0
 22 23  2  0
 24 22  1  0
 26 25  1  6
 25 24  1  0
 26 27  1  0
 27 19  1  0
 28 29  1  0
 28 26  1  0
 30 28  2  0
M  END
$$$$
