KFQ.pdb
     RDKit          3D

 30 30  0  0  1  0  0  0  0  0999 V2000
   28.8407  -21.8731  -14.4994 N   0  0  0  0  0  0  0  0  0  0  0  0
   28.1273  -20.6303  -14.2102 C   0  0  1  0  0  0  0  0  0  0  0  0
   27.5710  -20.0457  -15.5092 C   0  0  0  0  0  0  0  0  0  0  0  0
   28.7428  -19.8083  -16.4270 C   0  0  0  0  0  0  0  0  0  0  0  0
   28.3312  -20.0879  -17.8433 C   0  0  0  0  0  0  0  0  0  0  0  0
   27.5629  -18.9312  -18.4004 C   0  0  0  0  0  0  0  0  0  0  0  0
   28.1735  -18.5368  -19.6653 N   0  0  0  0  0  0  0  0  0  0  0  0
   26.9175  -21.0015  -13.4048 C   0  0  0  0  0  0  0  0  0  0  0  0
   26.2834  -22.0867  -13.6125 O   0  0  0  0  0  0  0  0  0  0  0  0
   26.4179  -20.1739  -12.3789 N   0  0  0  0  0  0  0  0  0  0  0  0
   25.2527  -20.5703  -11.5362 C   0  0  1  0  0  0  0  0  0  0  0  0
   25.3864  -19.6966  -10.3427 C   0  0  0  0  0  0  0  0  0  0  0  0
   26.3992  -19.9971   -9.3545 C   0  0  0  0  0  0  0  0  0  0  0  0
   26.9628  -21.2544   -9.1741 C   0  0  0  0  0  0  0  0  0  0  0  0
   27.9615  -21.4598   -8.2257 C   0  0  0  0  0  0  0  0  0  0  0  0
   28.4157  -20.4358   -7.4468 C   0  0  0  0  0  0  0  0  0  0  0  0
   27.8843  -19.1948   -7.5985 C   0  0  0  0  0  0  0  0  0  0  0  0
   26.8809  -18.9895   -8.5518 C   0  0  0  0  0  0  0  0  0  0  0  0
   24.0951  -20.3475  -12.3898 C   0  0  0  0  0  0  0  0  0  0  0  0
   24.1845  -19.6473  -13.4208 O   0  0  0  0  0  0  0  0  0  0  0  0
   21.3231  -24.2748  -15.3750 N   0  0  0  0  0  0  0  0  0  0  0  0
   20.3816  -24.0917  -14.3390 C   0  0  0  0  0  0  0  0  0  0  0  0
   19.4867  -24.9403  -14.1357 O   0  0  0  0  0  0  0  0  0  0  0  0
   20.4544  -22.8903  -13.4899 C   0  0  0  0  0  0  0  0  0  0  0  0
   21.6487  -22.0327  -13.8949 C   0  0  0  0  0  0  0  0  0  0  0  0
   21.7075  -20.7590  -13.0279 C   0  0  2  0  0  0  0  0  0  0  0  0
   22.8351  -20.9148  -12.0914 N   0  0  0  0  0  0  0  0  0  0  0  0
   20.4745  -20.6307  -12.2304 C   0  0  0  0  0  0  0  0  0  0  0  0
   19.2551  -20.3218  -12.8183 O   0  0  0  0  0  0  0  0  0  0  0  0
   20.4573  -20.7922  -10.9753 O   0  0  0  0  0  0  0  0  0  0  0  0
  2  1  1  6
  2  8  1  0
  2  3  1  0
  3  4  1  0
  4  5  1  0
  5  6  1  0
  7  6  1  0
  8  9  2  0
 10 11  1  0
 10  8  1  0
 11 12  1  1
 12 13  1  0
 13 18  2  0
 13 14  1  0
 14 15  2  0
 15 16  1  0
 17 16  2  0
 18 17  1  0
 19 11  1  0
 20 19  2  0
 22 21  1  0
 22 23  2  0
 24 22  1  0
 26 25  1  6
 25 24  1  0
 26 27  1  0
 27 19  1  0
 28 29  1  0
 28 26  1  0
 30 28  2  0
M  END
$$$$
