KFQ.pdb
     RDKit          3D

 30 30  0  0  1  0  0  0  0  0999 V2000
   29.4147  -21.6828  -13.7825 N   0  0  0  0  0  0  0  0  0  0  0  0
   28.2886  -20.7906  -14.0526 C   0  0  1  0  0  0  0  0  0  0  0  0
   27.7079  -21.1031  -15.4324 C   0  0  0  0  0  0  0  0  0  0  0  0
   28.7014  -20.6122  -16.4539 C   0  0  0  0  0  0  0  0  0  0  0  0
   28.7352  -21.5644  -17.6140 C   0  0  0  0  0  0  0  0  0  0  0  0
   29.7102  -21.0932  -18.6464 C   0  0  0  0  0  0  0  0  0  0  0  0
   31.0083  -21.6969  -18.3662 N   0  0  0  0  0  0  0  0  0  0  0  0
   27.2026  -21.1568  -13.0848 C   0  0  0  0  0  0  0  0  0  0  0  0
   26.6620  -22.3103  -13.0921 O   0  0  0  0  0  0  0  0  0  0  0  0
   26.7229  -20.2493  -12.1188 N   0  0  0  0  0  0  0  0  0  0  0  0
   25.6557  -20.6183  -11.1441 C   0  0  1  0  0  0  0  0  0  0  0  0
   25.9129  -19.7062  -10.0006 C   0  0  0  0  0  0  0  0  0  0  0  0
   26.9638  -20.0279   -9.0601 C   0  0  0  0  0  0  0  0  0  0  0  0
   27.9672  -20.9586   -9.3014 C   0  0  0  0  0  0  0  0  0  0  0  0
   28.9687  -21.1889   -8.3617 C   0  0  0  0  0  0  0  0  0  0  0  0
   28.9951  -20.5098   -7.1786 C   0  0  0  0  0  0  0  0  0  0  0  0
   28.0279  -19.5938   -6.9125 C   0  0  0  0  0  0  0  0  0  0  0  0
   27.0221  -19.3632   -7.8576 C   0  0  0  0  0  0  0  0  0  0  0  0
   24.4128  -20.4235  -11.8759 C   0  0  0  0  0  0  0  0  0  0  0  0
   24.2659  -19.4466  -12.6410 O   0  0  0  0  0  0  0  0  0  0  0  0
   20.9761  -24.4570  -14.8238 N   0  0  0  0  0  0  0  0  0  0  0  0
   21.3343  -23.2846  -15.5241 C   0  0  0  0  0  0  0  0  0  0  0  0
   21.3124  -23.2584  -16.7735 O   0  0  0  0  0  0  0  0  0  0  0  0
   21.7371  -22.0814  -14.7760 C   0  0  0  0  0  0  0  0  0  0  0  0
   21.7549  -22.3751  -13.2796 C   0  0  0  0  0  0  0  0  0  0  0  0
   22.0770  -21.0910  -12.4892 C   0  0  2  0  0  0  0  0  0  0  0  0
   23.3332  -21.3283  -11.7554 N   0  0  0  0  0  0  0  0  0  0  0  0
   21.0192  -20.8269  -11.4972 C   0  0  0  0  0  0  0  0  0  0  0  0
   19.7799  -20.3238  -11.8697 O   0  0  0  0  0  0  0  0  0  0  0  0
   21.1792  -21.0410  -10.2601 O   0  0  0  0  0  0  0  0  0  0  0  0
  2  1  1  1
  2  8  1  0
  2  3  1  0
  3  4  1  0
  4  5  1  0
  5  6  1  0
  7  6  1  0
  8  9  2  0
 10 11  1  0
 10  8  1  0
 11 12  1  1
 12 13  1  0
 13 18  2  0
 13 14  1  0
 14 15  2  0
 15 16  1  0
 17 16  2  0
 18 17  1  0
 19 11  1  0
 20 19  2  0
 22 21  1  0
 22 23  2  0
 24 22  1  0
 26 25  1  1
 25 24  1  0
 26 27  1  0
 27 19  1  0
 28 29  1  0
 28 26  1  0
 30 28  2  0
M  END
$$$$
