KFQ.pdb
     RDKit          3D

 30 30  0  0  1  0  0  0  0  0999 V2000
   28.7222  -21.9811  -17.7504 N   0  0  0  0  0  0  0  0  0  0  0  0
   27.8707  -20.8722  -17.3234 C   0  0  1  0  0  0  0  0  0  0  0  0
   26.7883  -20.6242  -18.3750 C   0  0  0  0  0  0  0  0  0  0  0  0
   27.4682  -20.0257  -19.5796 C   0  0  0  0  0  0  0  0  0  0  0  0
   28.0500  -18.6916  -19.2119 C   0  0  0  0  0  0  0  0  0  0  0  0
   28.6272  -18.0242  -20.4202 C   0  0  0  0  0  0  0  0  0  0  0  0
   29.2835  -16.7915  -19.9984 N   0  0  0  0  0  0  0  0  0  0  0  0
   27.1274  -21.3390  -16.1070 C   0  0  0  0  0  0  0  0  0  0  0  0
   26.4955  -22.4451  -16.0934 O   0  0  0  0  0  0  0  0  0  0  0  0
   27.0872  -20.5831  -14.9180 N   0  0  0  0  0  0  0  0  0  0  0  0
   26.3829  -21.0652  -13.6945 C   0  0  1  0  0  0  0  0  0  0  0  0
   27.1234  -20.3979  -12.5936 C   0  0  0  0  0  0  0  0  0  0  0  0
   26.5984  -20.4598  -11.2471 C   0  0  0  0  0  0  0  0  0  0  0  0
   26.6322  -21.5971  -10.4493 C   0  0  0  0  0  0  0  0  0  0  0  0
   26.1397  -21.5707   -9.1470 C   0  0  0  0  0  0  0  0  0  0  0  0
   25.6104  -20.4306   -8.6163 C   0  0  0  0  0  0  0  0  0  0  0  0
   25.5624  -19.3022   -9.3711 C   0  0  0  0  0  0  0  0  0  0  0  0
   26.0576  -19.3298  -10.6795 C   0  0  0  0  0  0  0  0  0  0  0  0
   24.9971  -20.6671  -13.8930 C   0  0  0  0  0  0  0  0  0  0  0  0
   24.7148  -19.5851  -14.4503 O   0  0  0  0  0  0  0  0  0  0  0  0
   19.6619  -23.8230  -14.8786 N   0  0  0  0  0  0  0  0  0  0  0  0
   19.7568  -22.6350  -15.6357 C   0  0  0  0  0  0  0  0  0  0  0  0
   18.9028  -22.3669  -16.5080 O   0  0  0  0  0  0  0  0  0  0  0  0
   20.8719  -21.7031  -15.3955 C   0  0  0  0  0  0  0  0  0  0  0  0
   21.7289  -22.1978  -14.2350 C   0  0  0  0  0  0  0  0  0  0  0  0
   22.5318  -21.0285  -13.6303 C   0  0  2  0  0  0  0  0  0  0  0  0
   23.9242  -21.4854  -13.4713 N   0  0  0  0  0  0  0  0  0  0  0  0
   22.0120  -20.6945  -12.2921 C   0  0  0  0  0  0  0  0  0  0  0  0
   20.8337  -19.9792  -12.1255 O   0  0  0  0  0  0  0  0  0  0  0  0
   22.6055  -21.0367  -11.2279 O   0  0  0  0  0  0  0  0  0  0  0  0
  2  1  1  6
  2  8  1  0
  2  3  1  0
  3  4  1  0
  4  5  1  0
  5  6  1  0
  7  6  1  0
  8  9  2  0
 10 11  1  0
 10  8  1  0
 11 12  1  1
 12 13  1  0
 13 18  2  0
 13 14  1  0
 14 15  2  0
 15 16  1  0
 17 16  2  0
 18 17  1  0
 19 11  1  0
 20 19  2  0
 22 21  1  0
 22 23  2  0
 24 22  1  0
 26 25  1  1
 25 24  1  0
 26 27  1  0
 27 19  1  0
 28 29  1  0
 28 26  1  0
 30 28  2  0
M  END
$$$$
