ALY.pdb
     RDKit          3D

 26 26  0  0  1  0  0  0  0  0999 V2000
   26.8491  -19.8345  -16.6083 C   0  0  0  0  0  0  0  0  0  0  0  0
   27.5821  -20.7397  -15.6265 C   0  0  2  0  0  0  0  0  0  0  0  0
   28.0418  -21.9309  -16.3065 N   0  0  0  0  0  0  0  0  0  0  0  0
   26.6100  -21.1481  -14.5863 C   0  0  0  0  0  0  0  0  0  0  0  0
   25.8418  -22.1196  -14.8885 O   0  0  0  0  0  0  0  0  0  0  0  0
   25.8580  -19.6823   -8.6662 C   0  0  0  0  0  0  0  0  0  0  0  0
   25.3303  -20.5866   -9.7997 C   0  0  2  0  0  0  0  0  0  0  0  0
   25.2660  -21.9668   -9.2608 C   0  0  0  0  0  0  0  0  0  0  0  0
   26.1246  -20.3918  -11.0190 C   0  0  0  0  0  0  0  0  0  0  0  0
   25.6398  -20.9721  -12.2961 C   0  0  2  0  0  0  0  0  0  0  0  0
   26.5612  -20.4811  -13.3432 N   0  0  0  0  0  0  0  0  0  0  0  0
   24.2987  -20.4900  -12.7159 C   0  0  0  0  0  0  0  0  0  0  0  0
   24.0960  -19.2691  -13.0577 O   0  0  0  0  0  0  0  0  0  0  0  0
   21.4530  -17.1755  -18.3848 O   0  0  0  0  0  0  0  0  0  0  0  0
   21.4449  -18.1836  -17.4250 C   0  0  0  0  0  0  0  0  0  0  0  0
   20.2831  -18.4980  -16.7890 C   0  0  0  0  0  0  0  0  0  0  0  0
   20.2550  -19.4955  -15.8335 C   0  0  0  0  0  0  0  0  0  0  0  0
   21.3834  -20.1795  -15.5111 C   0  0  0  0  0  0  0  0  0  0  0  0
   21.4023  -21.2462  -14.4917 C   0  0  0  0  0  0  0  0  0  0  0  0
   21.8286  -20.7379  -13.1524 C   0  0  2  0  0  0  0  0  0  0  0  0
   23.1372  -21.2910  -12.7873 N   0  0  0  0  0  0  0  0  0  0  0  0
   20.8920  -21.1053  -12.0675 C   0  0  0  0  0  0  0  0  0  0  0  0
   19.6882  -20.4322  -11.8462 O   0  0  0  0  0  0  0  0  0  0  0  0
   22.5741  -19.8589  -16.1616 C   0  0  0  0  0  0  0  0  0  0  0  0
   22.5902  -18.8715  -17.1043 C   0  0  0  0  0  0  0  0  0  0  0  0
   21.1288  -22.0664  -11.2601 O   0  0  0  0  0  0  0  0  0  0  0  0
  2  3  1  0
  2  1  1  6
  4  2  1  0
  5  4  2  0
  7  6  1  1
  7  8  1  0
  9  7  1  0
 10  9  1  1
 10 11  1  0
 11  4  1  0
 12 21  1  0
 12 10  1  0
 13 12  2  0
 15 14  1  0
 16 15  2  0
 17 16  1  0
 18 17  2  0
 18 24  1  0
 19 18  1  0
 20 19  1  6
 20 22  1  0
 20 21  1  0
 22 23  1  0
 24 25  2  0
 25 15  1  0
 26 22  2  0
M  END
$$$$
