ALY.pdb
     RDKit          3D

 26 26  0  0  1  0  0  0  0  0999 V2000
   26.4335  -11.7676  -21.1433 C   0  0  0  0  0  0  0  0  0  0  0  0
   26.2381  -10.5242  -20.2851 C   0  0  2  0  0  0  0  0  0  0  0  0
   27.5198  -10.0460  -19.8148 N   0  0  0  0  0  0  0  0  0  0  0  0
   25.4319  -10.9186  -19.1068 C   0  0  0  0  0  0  0  0  0  0  0  0
   24.2446  -11.3150  -19.3480 O   0  0  0  0  0  0  0  0  0  0  0  0
   25.6935  -14.2761  -16.1456 C   0  0  0  0  0  0  0  0  0  0  0  0
   26.7529  -13.1639  -15.9984 C   0  0  2  0  0  0  0  0  0  0  0  0
   27.7673  -13.6542  -15.0339 C   0  0  0  0  0  0  0  0  0  0  0  0
   26.1075  -11.8838  -15.6817 C   0  0  0  0  0  0  0  0  0  0  0  0
   25.1568  -11.2944  -16.6572 C   0  0  2  0  0  0  0  0  0  0  0  0
   25.9747  -10.8484  -17.8057 N   0  0  0  0  0  0  0  0  0  0  0  0
   24.4744  -10.0646  -16.1786 C   0  0  0  0  0  0  0  0  0  0  0  0
   25.1256   -8.9905  -15.9123 O   0  0  0  0  0  0  0  0  0  0  0  0
   19.9732   -2.8667  -15.1761 O   0  0  0  0  0  0  0  0  0  0  0  0
   20.6372   -4.0406  -15.5206 C   0  0  0  0  0  0  0  0  0  0  0  0
   20.0847   -4.8824  -16.4366 C   0  0  0  0  0  0  0  0  0  0  0  0
   20.7285   -6.0521  -16.7915 C   0  0  0  0  0  0  0  0  0  0  0  0
   21.9220   -6.3837  -16.2342 C   0  0  0  0  0  0  0  0  0  0  0  0
   22.6413   -7.6259  -16.5765 C   0  0  0  0  0  0  0  0  0  0  0  0
   22.4672   -8.6829  -15.5343 C   0  0  2  0  0  0  0  0  0  0  0  0
   23.0824   -9.9405  -15.9722 N   0  0  0  0  0  0  0  0  0  0  0  0
   21.0476   -8.9812  -15.2422 C   0  0  0  0  0  0  0  0  0  0  0  0
   20.3040   -8.2716  -14.2963 O   0  0  0  0  0  0  0  0  0  0  0  0
   22.4895   -5.5227  -15.2959 C   0  0  0  0  0  0  0  0  0  0  0  0
   21.8445   -4.3693  -14.9529 C   0  0  0  0  0  0  0  0  0  0  0  0
   20.4107   -9.9132  -15.8400 O   0  0  0  0  0  0  0  0  0  0  0  0
  2  3  1  0
  2  1  1  6
  4  2  1  0
  5  4  2  0
  7  6  1  1
  7  8  1  0
  9  7  1  0
 10  9  1  1
 10 11  1  0
 11  4  1  0
 12 21  1  0
 12 10  1  0
 13 12  2  0
 15 14  1  0
 16 15  2  0
 17 16  1  0
 18 17  2  0
 18 24  1  0
 19 18  1  0
 20 19  1  6
 20 22  1  0
 20 21  1  0
 22 23  1  0
 24 25  2  0
 25 15  1  0
 26 22  2  0
M  END
$$$$
