ALY.pdb
     RDKit          3D

 26 26  0  0  1  0  0  0  0  0999 V2000
   25.6343  -18.5389  -19.6523 C   0  0  0  0  0  0  0  0  0  0  0  0
   26.7985  -19.3345  -19.0761 C   0  0  2  0  0  0  0  0  0  0  0  0
   27.1923  -20.3710  -20.0053 N   0  0  0  0  0  0  0  0  0  0  0  0
   26.3218  -19.9851  -17.8338 C   0  0  0  0  0  0  0  0  0  0  0  0
   25.7705  -21.1258  -17.9752 O   0  0  0  0  0  0  0  0  0  0  0  0
   28.3565  -21.7996  -14.3072 C   0  0  0  0  0  0  0  0  0  0  0  0
   28.4009  -20.2596  -14.3929 C   0  0  2  0  0  0  0  0  0  0  0  0
   29.3734  -19.7951  -13.3741 C   0  0  0  0  0  0  0  0  0  0  0  0
   27.0441  -19.7049  -14.3095 C   0  0  0  0  0  0  0  0  0  0  0  0
   26.0536  -20.0609  -15.3560 C   0  0  2  0  0  0  0  0  0  0  0  0
   26.4829  -19.3538  -16.5816 N   0  0  0  0  0  0  0  0  0  0  0  0
   24.6798  -19.5608  -15.0922 C   0  0  0  0  0  0  0  0  0  0  0  0
   24.4394  -18.3139  -14.9025 O   0  0  0  0  0  0  0  0  0  0  0  0
   16.0926  -18.0981  -14.8011 O   0  0  0  0  0  0  0  0  0  0  0  0
   17.3688  -18.5869  -15.0656 C   0  0  0  0  0  0  0  0  0  0  0  0
   17.6784  -19.8717  -14.7395 C   0  0  0  0  0  0  0  0  0  0  0  0
   18.9396  -20.3750  -14.9942 C   0  0  0  0  0  0  0  0  0  0  0  0
   19.8923  -19.5990  -15.5731 C   0  0  0  0  0  0  0  0  0  0  0  0
   21.2544  -20.0912  -15.8560 C   0  0  0  0  0  0  0  0  0  0  0  0
   22.1983  -19.8146  -14.7307 C   0  0  2  0  0  0  0  0  0  0  0  0
   23.5236  -20.3698  -15.0254 N   0  0  0  0  0  0  0  0  0  0  0  0
   21.7618  -20.4094  -13.4481 C   0  0  0  0  0  0  0  0  0  0  0  0
   20.9917  -19.7130  -12.5137 O   0  0  0  0  0  0  0  0  0  0  0  0
   19.5770  -18.2829  -15.9079 C   0  0  0  0  0  0  0  0  0  0  0  0
   18.3275  -17.7961  -15.6518 C   0  0  0  0  0  0  0  0  0  0  0  0
   22.0656  -21.6042  -13.1133 O   0  0  0  0  0  0  0  0  0  0  0  0
  2  3  1  0
  2  1  1  6
  4  2  1  0
  5  4  2  0
  7  6  1  1
  7  8  1  0
  9  7  1  0
 10  9  1  1
 10 11  1  0
 11  4  1  0
 12 21  1  0
 12 10  1  0
 13 12  2  0
 15 14  1  0
 16 15  2  0
 17 16  1  0
 18 17  2  0
 18 24  1  0
 19 18  1  0
 20 19  1  6
 20 22  1  0
 20 21  1  0
 22 23  1  0
 24 25  2  0
 25 15  1  0
 26 22  2  0
M  END
$$$$
