ALY.pdb
     RDKit          3D

 26 26  0  0  1  0  0  0  0  0999 V2000
   24.9114  -17.0641  -16.1255 C   0  0  0  0  0  0  0  0  0  0  0  0
   26.1889  -17.7458  -16.5985 C   0  0  2  0  0  0  0  0  0  0  0  0
   26.0236  -18.2083  -17.9592 N   0  0  0  0  0  0  0  0  0  0  0  0
   26.4098  -18.9273  -15.7330 C   0  0  0  0  0  0  0  0  0  0  0  0
   25.7797  -19.9862  -16.0596 O   0  0  0  0  0  0  0  0  0  0  0  0
   30.6249  -20.5613  -11.6171 C   0  0  0  0  0  0  0  0  0  0  0  0
   29.2558  -20.9491  -12.2139 C   0  0  2  0  0  0  0  0  0  0  0  0
   29.3967  -22.3151  -12.7741 C   0  0  0  0  0  0  0  0  0  0  0  0
   28.7862  -19.9053  -13.1334 C   0  0  0  0  0  0  0  0  0  0  0  0
   27.4486  -20.0454  -13.7612 C   0  0  2  0  0  0  0  0  0  0  0  0
   27.2736  -18.8538  -14.6190 N   0  0  0  0  0  0  0  0  0  0  0  0
   26.3152  -19.9910  -12.8023 C   0  0  0  0  0  0  0  0  0  0  0  0
   25.8820  -18.8783  -12.3305 O   0  0  0  0  0  0  0  0  0  0  0  0
   27.6786  -20.3625   -5.8565 O   0  0  0  0  0  0  0  0  0  0  0  0
   26.9300  -20.2010   -7.0188 C   0  0  0  0  0  0  0  0  0  0  0  0
   26.3324  -21.2824   -7.5902 C   0  0  0  0  0  0  0  0  0  0  0  0
   25.5854  -21.1422   -8.7439 C   0  0  0  0  0  0  0  0  0  0  0  0
   25.4337  -19.9256   -9.3286 C   0  0  0  0  0  0  0  0  0  0  0  0
   24.6523  -19.7299  -10.5650 C   0  0  0  0  0  0  0  0  0  0  0  0
   24.5152  -20.9939  -11.3506 C   0  0  2  0  0  0  0  0  0  0  0  0
   25.6089  -21.1156  -12.3204 N   0  0  0  0  0  0  0  0  0  0  0  0
   23.2529  -21.0649  -12.1194 C   0  0  0  0  0  0  0  0  0  0  0  0
   23.2167  -21.0788  -13.5157 O   0  0  0  0  0  0  0  0  0  0  0  0
   26.0449  -18.8169   -8.7447 C   0  0  0  0  0  0  0  0  0  0  0  0
   26.7806  -18.9671   -7.6046 C   0  0  0  0  0  0  0  0  0  0  0  0
   22.1108  -21.1168  -11.5498 O   0  0  0  0  0  0  0  0  0  0  0  0
  2  3  1  0
  2  1  1  1
  4  2  1  0
  5  4  2  0
  7  6  1  6
  7  8  1  0
  9  7  1  0
 10  9  1  1
 10 11  1  0
 11  4  1  0
 12 21  1  0
 12 10  1  0
 13 12  2  0
 15 14  1  0
 16 15  2  0
 17 16  1  0
 18 17  2  0
 18 24  1  0
 19 18  1  0
 20 19  1  6
 20 22  1  0
 20 21  1  0
 22 23  1  0
 24 25  2  0
 25 15  1  0
 26 22  2  0
M  END
$$$$
