ALY.pdb
     RDKit          3D

 26 26  0  0  1  0  0  0  0  0999 V2000
   25.6623  -25.3819  -15.6620 C   0  0  0  0  0  0  0  0  0  0  0  0
   26.4529  -24.3976  -16.5143 C   0  0  2  0  0  0  0  0  0  0  0  0
   27.8621  -24.7193  -16.4559 N   0  0  0  0  0  0  0  0  0  0  0  0
   26.2626  -23.0498  -15.9302 C   0  0  0  0  0  0  0  0  0  0  0  0
   27.1197  -22.6919  -15.0571 O   0  0  0  0  0  0  0  0  0  0  0  0
   27.3337  -18.7833  -16.2536 C   0  0  0  0  0  0  0  0  0  0  0  0
   26.6751  -19.5799  -17.3994 C   0  0  2  0  0  0  0  0  0  0  0  0
   26.8220  -18.7696  -18.6329 C   0  0  0  0  0  0  0  0  0  0  0  0
   25.3102  -19.9732  -17.0282 C   0  0  0  0  0  0  0  0  0  0  0  0
   25.1072  -20.8419  -15.8421 C   0  0  2  0  0  0  0  0  0  0  0  0
   25.1855  -22.2332  -16.3370 N   0  0  0  0  0  0  0  0  0  0  0  0
   23.7581  -20.7337  -15.2295 C   0  0  0  0  0  0  0  0  0  0  0  0
   22.7717  -21.4477  -15.6368 O   0  0  0  0  0  0  0  0  0  0  0  0
   23.5236  -22.0257   -7.8544 O   0  0  0  0  0  0  0  0  0  0  0  0
   23.1541  -21.2784   -8.9690 C   0  0  0  0  0  0  0  0  0  0  0  0
   24.0923  -20.5458   -9.6293 C   0  0  0  0  0  0  0  0  0  0  0  0
   23.7450  -19.7976  -10.7376 C   0  0  0  0  0  0  0  0  0  0  0  0
   22.4638  -19.7787  -11.1881 C   0  0  0  0  0  0  0  0  0  0  0  0
   22.0456  -18.9882  -12.3619 C   0  0  0  0  0  0  0  0  0  0  0  0
   22.0607  -19.7960  -13.6193 C   0  0  2  0  0  0  0  0  0  0  0  0
   23.4199  -19.8672  -14.1662 N   0  0  0  0  0  0  0  0  0  0  0  0
   21.2017  -19.2297  -14.6828 C   0  0  0  0  0  0  0  0  0  0  0  0
   19.8436  -19.5342  -14.8014 O   0  0  0  0  0  0  0  0  0  0  0  0
   21.5014  -20.5284  -10.5132 C   0  0  0  0  0  0  0  0  0  0  0  0
   21.8560  -21.2642   -9.4191 C   0  0  0  0  0  0  0  0  0  0  0  0
   21.6526  -18.4233  -15.5648 O   0  0  0  0  0  0  0  0  0  0  0  0
  2  3  1  0
  2  1  1  1
  4  2  1  0
  5  4  2  0
  7  6  1  1
  7  8  1  0
  9  7  1  0
 10  9  1  6
 10 11  1  0
 11  4  1  0
 12 21  1  0
 12 10  1  0
 13 12  2  0
 15 14  1  0
 16 15  2  0
 17 16  1  0
 18 17  2  0
 18 24  1  0
 19 18  1  0
 20 19  1  1
 20 22  1  0
 20 21  1  0
 22 23  1  0
 24 25  2  0
 25 15  1  0
 26 22  2  0
M  END
$$$$
