ALY.pdb
     RDKit          3D

 26 26  0  0  1  0  0  0  0  0999 V2000
   24.4334  -16.7664  -17.6488 C   0  0  0  0  0  0  0  0  0  0  0  0
   25.6415  -17.6869  -17.5320 C   0  0  2  0  0  0  0  0  0  0  0  0
   26.1047  -18.0586  -18.8511 N   0  0  0  0  0  0  0  0  0  0  0  0
   25.1987  -18.9165  -16.8349 C   0  0  0  0  0  0  0  0  0  0  0  0
   24.5038  -19.7322  -17.5255 O   0  0  0  0  0  0  0  0  0  0  0  0
   28.0910  -19.8731  -15.3140 C   0  0  0  0  0  0  0  0  0  0  0  0
   27.4462  -19.9992  -13.9178 C   0  0  2  0  0  0  0  0  0  0  0  0
   28.5114  -20.4409  -12.9851 C   0  0  0  0  0  0  0  0  0  0  0  0
   26.2418  -20.8360  -13.9861 C   0  0  0  0  0  0  0  0  0  0  0  0
   25.1026  -20.3932  -14.8280 C   0  0  2  0  0  0  0  0  0  0  0  0
   25.5420  -19.1432  -15.4846 N   0  0  0  0  0  0  0  0  0  0  0  0
   23.8887  -20.0112  -14.0614 C   0  0  0  0  0  0  0  0  0  0  0  0
   23.7131  -18.8165  -13.6252 O   0  0  0  0  0  0  0  0  0  0  0  0
   16.0679  -17.9000  -11.3434 O   0  0  0  0  0  0  0  0  0  0  0  0
   17.2855  -18.2459  -11.9224 C   0  0  0  0  0  0  0  0  0  0  0  0
   18.3725  -17.4492  -11.7307 C   0  0  0  0  0  0  0  0  0  0  0  0
   19.5895  -17.7758  -12.2971 C   0  0  0  0  0  0  0  0  0  0  0  0
   19.7241  -18.8953  -13.0545 C   0  0  0  0  0  0  0  0  0  0  0  0
   21.0016  -19.2792  -13.6856 C   0  0  0  0  0  0  0  0  0  0  0  0
   21.6449  -20.4382  -12.9953 C   0  0  2  0  0  0  0  0  0  0  0  0
   22.8270  -20.8859  -13.7395 N   0  0  0  0  0  0  0  0  0  0  0  0
   20.7494  -21.6095  -12.8716 C   0  0  0  0  0  0  0  0  0  0  0  0
   20.6790  -22.6143  -13.8395 O   0  0  0  0  0  0  0  0  0  0  0  0
   18.6120  -19.7126  -13.2519 C   0  0  0  0  0  0  0  0  0  0  0  0
   17.4143  -19.3802  -12.6872 C   0  0  0  0  0  0  0  0  0  0  0  0
   19.9791  -21.7745  -11.8661 O   0  0  0  0  0  0  0  0  0  0  0  0
  2  3  1  0
  2  1  1  6
  4  2  1  0
  5  4  2  0
  7  6  1  6
  7  8  1  0
  9  7  1  0
 10  9  1  1
 10 11  1  0
 11  4  1  0
 12 21  1  0
 12 10  1  0
 13 12  2  0
 15 14  1  0
 16 15  2  0
 17 16  1  0
 18 17  2  0
 18 24  1  0
 19 18  1  0
 20 19  1  6
 20 22  1  0
 20 21  1  0
 22 23  1  0
 24 25  2  0
 25 15  1  0
 26 22  2  0
M  END
$$$$
