RPI.pdb
     RDKit          3D

 27 27  0  0  1  0  0  0  0  0999 V2000
   11.9043  -19.4235   22.3088 N   0  0  0  0  0  0  0  0  0  0  0  0
   11.4094  -20.6172   22.9258 C   0  0  0  0  0  0  0  0  0  0  0  0
   12.1561  -21.2888   23.7190 N   0  0  0  0  0  0  0  0  0  0  0  0
   10.0718  -21.0540   22.6460 N   0  0  0  0  0  0  0  0  0  0  0  0
    9.2632  -20.4658   21.6199 C   0  0  0  0  0  0  0  0  0  0  0  0
    9.3224  -18.9367   21.6265 C   0  0  0  0  0  0  0  0  0  0  0  0
    8.5752  -18.4837   20.4022 C   0  0  0  0  0  0  0  0  0  0  0  0
    9.2659  -17.3341   19.6847 C   0  0  2  0  0  0  0  0  0  0  0  0
   10.4742  -17.7590   19.0329 N   0  0  0  0  0  0  0  0  0  0  0  0
    9.3731  -16.1346   20.5122 C   0  0  0  0  0  0  0  0  0  0  0  0
   10.5191  -15.8940   21.0330 O   0  0  0  0  0  0  0  0  0  0  0  0
   11.7639  -22.1334   24.1870 N   0  0  0  0  0  0  0  0  0  0  0  0
    8.3329  -15.2045   20.8016 C   0  0  0  0  0  0  0  0  0  0  0  0
    6.9287  -15.2464   20.4818 C   0  0  0  0  0  0  0  0  0  0  0  0
    6.6042  -13.8098   20.1722 C   0  0  0  0  0  0  0  0  0  0  0  0
    7.6872  -12.9800   20.8173 C   0  0  1  0  0  0  0  0  0  0  0  0
    8.5264  -13.9665   21.5248 C   0  0  0  0  0  0  0  0  0  0  0  0
    8.2584  -14.1053   22.9710 O   0  0  0  0  0  0  0  0  0  0  0  0
    7.2865  -14.8144   23.3203 C   0  0  0  0  0  0  0  0  0  0  0  0
    5.8506  -11.4557   27.1281 C   0  0  0  0  0  0  0  0  0  0  0  0
    6.9382  -12.4591   26.9536 C   0  0  2  0  0  0  0  0  0  0  0  0
    7.3845  -12.6917   25.5493 C   0  0  0  0  0  0  0  0  0  0  0  0
    6.2541  -13.4003   24.8140 C   0  0  2  0  0  0  0  0  0  0  0  0
    8.6188  -13.5074   25.3900 N   0  0  0  0  0  0  0  0  0  0  0  0
    9.0259  -13.4897   23.9986 C   0  0  0  0  0  0  0  0  0  0  0  0
    8.5459  -14.8732   25.9355 O   0  0  0  0  0  0  0  0  0  0  0  0
    8.6868  -15.9525   25.0963 O   0  0  0  0  0  0  0  0  0  0  0  0
  2  4  1  0
  2  1  1  0
  3  2  2  0
  5  4  1  0
  6  5  1  0
  7  6  1  0
  8  7  1  0
  8  9  1  1
 10  8  1  0
 11 10  2  0
 12 16  1  0
 12 10  1  0
 13 14  1  0
 13 12  1  0
 14 15  1  0
 15 16  1  0
 16 17  1  1
 18 17  2  0
 19 20  1  0
 20 21  1  0
 21 22  1  6
 23 21  1  0
 23 24  1  1
 24 17  1  0
 25 26  1  0
 25 23  1  0
 27 25  2  0
M  END
$$$$
