RPI.pdb
     RDKit          3D

 27 27  0  0  1  0  0  0  0  0999 V2000
    7.0622  -21.7698   23.7548 N   0  0  0  0  0  0  0  0  0  0  0  0
    7.1892  -20.6672   24.6596 C   0  0  0  0  0  0  0  0  0  0  0  0
    8.2357  -20.5485   25.3867 N   0  0  0  0  0  0  0  0  0  0  0  0
    6.1339  -19.6992   24.7453 N   0  0  0  0  0  0  0  0  0  0  0  0
    5.6519  -18.9756   23.6064 C   0  0  0  0  0  0  0  0  0  0  0  0
    6.7576  -18.6605   22.5967 C   0  0  0  0  0  0  0  0  0  0  0  0
    6.1099  -17.8541   21.5047 C   0  0  0  0  0  0  0  0  0  0  0  0
    7.0720  -17.5132   20.3771 C   0  0  2  0  0  0  0  0  0  0  0  0
    7.5735  -18.6926   19.7267 N   0  0  0  0  0  0  0  0  0  0  0  0
    8.0733  -16.5237   20.7685 C   0  0  0  0  0  0  0  0  0  0  0  0
    9.2802  -16.9393   20.8839 O   0  0  0  0  0  0  0  0  0  0  0  0
    8.2937  -19.7569   26.0620 N   0  0  0  0  0  0  0  0  0  0  0  0
    7.8457  -15.1428   21.0374 C   0  0  0  0  0  0  0  0  0  0  0  0
    6.6175  -14.3909   21.0788 C   0  0  0  0  0  0  0  0  0  0  0  0
    7.0074  -13.0639   20.4854 C   0  0  0  0  0  0  0  0  0  0  0  0
    8.5076  -12.9635   20.6153 C   0  0  2  0  0  0  0  0  0  0  0  0
    8.8912  -14.1900   21.3411 C   0  0  0  0  0  0  0  0  0  0  0  0
    9.1060  -14.0257   22.7935 O   0  0  0  0  0  0  0  0  0  0  0  0
   10.1134  -13.3811   23.1665 C   0  0  0  0  0  0  0  0  0  0  0  0
    5.9598  -11.4938   25.7208 C   0  0  0  0  0  0  0  0  0  0  0  0
    7.1839  -12.2049   25.2561 C   0  0  2  0  0  0  0  0  0  0  0  0
    7.3871  -13.5741   25.8124 C   0  0  0  0  0  0  0  0  0  0  0  0
    7.6553  -13.4339   27.3053 C   0  0  2  0  0  0  0  0  0  0  0  0
    8.5047  -14.3548   25.2160 N   0  0  0  0  0  0  0  0  0  0  0  0
    8.2497  -14.5487   23.8020 C   0  0  0  0  0  0  0  0  0  0  0  0
    8.8307  -15.6148   25.9049 O   0  0  0  0  0  0  0  0  0  0  0  0
    9.4952  -15.5837   27.1076 O   0  0  0  0  0  0  0  0  0  0  0  0
  2  4  1  0
  2  1  1  0
  3  2  2  0
  5  4  1  0
  6  5  1  0
  7  6  1  0
  8  7  1  0
  8  9  1  1
 10  8  1  0
 11 10  2  0
 12 16  1  0
 12 10  1  0
 13 14  1  0
 13 12  1  0
 14 15  1  0
 15 16  1  0
 16 17  1  1
 18 17  2  0
 19 20  1  0
 20 21  1  0
 21 22  1  6
 23 21  1  0
 23 24  1  1
 24 17  1  0
 25 26  1  0
 25 23  1  0
 27 25  2  0
M  END
$$$$
