RPI.pdb
     RDKit          3D

 27 27  0  0  1  0  0  0  0  0999 V2000
    6.9720  -20.2960   22.0963 N   0  0  0  0  0  0  0  0  0  0  0  0
    7.5824  -20.2515   23.3909 C   0  0  0  0  0  0  0  0  0  0  0  0
    6.8642  -20.0753   24.4354 N   0  0  0  0  0  0  0  0  0  0  0  0
    9.0042  -20.4041   23.5065 N   0  0  0  0  0  0  0  0  0  0  0  0
    9.9078  -20.0753   22.4443 C   0  0  0  0  0  0  0  0  0  0  0  0
   10.4761  -18.6601   22.5705 C   0  0  0  0  0  0  0  0  0  0  0  0
   11.2947  -18.4258   21.3306 C   0  0  0  0  0  0  0  0  0  0  0  0
   10.6434  -17.4377   20.3751 C   0  0  2  0  0  0  0  0  0  0  0  0
   11.5366  -17.0461   19.3195 N   0  0  0  0  0  0  0  0  0  0  0  0
    9.9567  -16.3502   21.0685 C   0  0  0  0  0  0  0  0  0  0  0  0
   10.6571  -15.3157   21.3545 O   0  0  0  0  0  0  0  0  0  0  0  0
    7.3267  -20.0617   25.3692 N   0  0  0  0  0  0  0  0  0  0  0  0
    8.5872  -16.3221   21.4616 C   0  0  0  0  0  0  0  0  0  0  0  0
    7.5618  -17.3270   21.3423 C   0  0  0  0  0  0  0  0  0  0  0  0
    6.3298  -16.5241   21.0224 C   0  0  0  0  0  0  0  0  0  0  0  0
    6.6117  -15.1126   21.4761 C   0  0  2  0  0  0  0  0  0  0  0  0
    7.9470  -15.1924   22.0997 C   0  0  0  0  0  0  0  0  0  0  0  0
    7.9530  -15.2937   23.5736 O   0  0  0  0  0  0  0  0  0  0  0  0
    8.2253  -16.4056   24.0823 C   0  0  0  0  0  0  0  0  0  0  0  0
    5.6069  -11.6157   27.3501 C   0  0  0  0  0  0  0  0  0  0  0  0
    6.1022  -12.6470   26.3956 C   0  0  2  0  0  0  0  0  0  0  0  0
    7.5452  -13.0043   26.5208 C   0  0  0  0  0  0  0  0  0  0  0  0
    8.3582  -11.8821   25.8882 C   0  0  1  0  0  0  0  0  0  0  0  0
    7.9521  -14.2841   25.8800 N   0  0  0  0  0  0  0  0  0  0  0  0
    7.6703  -14.2169   24.4594 C   0  0  0  0  0  0  0  0  0  0  0  0
    7.4065  -15.5018   26.5029 O   0  0  0  0  0  0  0  0  0  0  0  0
    7.9886  -16.0065   27.6411 O   0  0  0  0  0  0  0  0  0  0  0  0
  2  4  1  0
  2  1  1  0
  3  2  2  0
  5  4  1  0
  6  5  1  0
  7  6  1  0
  8  7  1  0
  8  9  1  6
 10  8  1  0
 11 10  2  0
 12 16  1  0
 12 10  1  0
 13 14  1  0
 13 12  1  0
 14 15  1  0
 15 16  1  0
 16 17  1  1
 18 17  2  0
 19 20  1  0
 20 21  1  0
 21 22  1  1
 23 21  1  0
 23 24  1  6
 24 17  1  0
 25 26  1  0
 25 23  1  0
 27 25  2  0
M  END
$$$$
