RPI.pdb
     RDKit          3D

 27 27  0  0  1  0  0  0  0  0999 V2000
    7.2672  -13.4004   18.2928 N   0  0  0  0  0  0  0  0  0  0  0  0
    8.6263  -13.2607   18.7214 C   0  0  0  0  0  0  0  0  0  0  0  0
    8.9933  -12.2193   19.3685 N   0  0  0  0  0  0  0  0  0  0  0  0
    9.5721  -14.2959   18.4181 N   0  0  0  0  0  0  0  0  0  0  0  0
    9.2876  -15.6866   18.6123 C   0  0  0  0  0  0  0  0  0  0  0  0
    9.2513  -16.0802   20.0906 C   0  0  0  0  0  0  0  0  0  0  0  0
    9.0773  -17.5739   20.1219 C   0  0  0  0  0  0  0  0  0  0  0  0
    7.6379  -17.9919   20.3802 C   0  0  2  0  0  0  0  0  0  0  0  0
    6.7955  -17.7405   19.2433 N   0  0  0  0  0  0  0  0  0  0  0  0
    7.1340  -17.5176   21.6671 C   0  0  0  0  0  0  0  0  0  0  0  0
    6.2862  -16.5570   21.6357 O   0  0  0  0  0  0  0  0  0  0  0  0
   10.0114  -12.0395   19.4993 N   0  0  0  0  0  0  0  0  0  0  0  0
    7.4902  -18.0123   22.9552 C   0  0  0  0  0  0  0  0  0  0  0  0
    8.4621  -19.0048   23.3372 C   0  0  0  0  0  0  0  0  0  0  0  0
    7.7905  -19.7221   24.4771 C   0  0  0  0  0  0  0  0  0  0  0  0
    6.7259  -18.7887   24.9995 C   0  0  2  0  0  0  0  0  0  0  0  0
    6.8910  -17.5636   24.1933 C   0  0  0  0  0  0  0  0  0  0  0  0
    7.6615  -16.4802   24.8376 O   0  0  0  0  0  0  0  0  0  0  0  0
    8.8870  -16.4063   24.5889 C   0  0  0  0  0  0  0  0  0  0  0  0
    6.4745  -10.7529   26.7828 C   0  0  0  0  0  0  0  0  0  0  0  0
    7.4465  -11.8713   26.6269 C   0  0  2  0  0  0  0  0  0  0  0  0
    6.8646  -13.1809   26.2123 C   0  0  0  0  0  0  0  0  0  0  0  0
    5.8037  -13.5628   27.2365 C   0  0  2  0  0  0  0  0  0  0  0  0
    7.8270  -14.3107   26.1044 N   0  0  0  0  0  0  0  0  0  0  0  0
    7.1109  -15.5124   25.7231 C   0  0  0  0  0  0  0  0  0  0  0  0
    8.6870  -14.5200   27.2813 O   0  0  0  0  0  0  0  0  0  0  0  0
    8.5032  -15.6282   28.0732 O   0  0  0  0  0  0  0  0  0  0  0  0
  2  4  1  0
  2  1  1  0
  3  2  2  0
  5  4  1  0
  6  5  1  0
  7  6  1  0
  8  7  1  0
  8  9  1  6
 10  8  1  0
 11 10  2  0
 12 16  1  0
 12 10  1  0
 13 14  1  0
 13 12  1  0
 14 15  1  0
 15 16  1  0
 16 17  1  1
 18 17  2  0
 19 20  1  0
 20 21  1  0
 21 22  1  6
 23 21  1  0
 23 24  1  1
 24 17  1  0
 25 26  1  0
 25 23  1  0
 27 25  2  0
M  END
$$$$
