RPI.pdb
     RDKit          3D

 27 27  0  0  1  0  0  0  0  0999 V2000
    8.6446  -19.5354   17.2842 N   0  0  0  0  0  0  0  0  0  0  0  0
    7.2736  -19.7678   17.6261 C   0  0  0  0  0  0  0  0  0  0  0  0
    6.4586  -20.2180   16.7480 N   0  0  0  0  0  0  0  0  0  0  0  0
    6.8217  -19.4902   18.9591 N   0  0  0  0  0  0  0  0  0  0  0  0
    7.6828  -18.9611   19.9748 C   0  0  0  0  0  0  0  0  0  0  0  0
    8.1635  -17.5429   19.6602 C   0  0  0  0  0  0  0  0  0  0  0  0
    7.7933  -16.7018   20.8509 C   0  0  0  0  0  0  0  0  0  0  0  0
    8.4152  -15.3145   20.8060 C   0  0  2  0  0  0  0  0  0  0  0  0
    9.3528  -15.1832   19.7247 N   0  0  0  0  0  0  0  0  0  0  0  0
    8.8806  -14.8612   22.1148 C   0  0  0  0  0  0  0  0  0  0  0  0
   10.1467  -14.7269   22.2617 O   0  0  0  0  0  0  0  0  0  0  0  0
    5.4583  -20.3501   17.0088 N   0  0  0  0  0  0  0  0  0  0  0  0
    8.0709  -14.5546   23.2467 C   0  0  0  0  0  0  0  0  0  0  0  0
    6.6415  -14.4151   23.3606 C   0  0  0  0  0  0  0  0  0  0  0  0
    6.4840  -13.2843   24.3410 C   0  0  0  0  0  0  0  0  0  0  0  0
    7.7857  -13.1935   25.0992 C   0  0  1  0  0  0  0  0  0  0  0  0
    8.5883  -14.3164   24.5766 C   0  0  0  0  0  0  0  0  0  0  0  0
    8.5921  -15.5351   25.4116 O   0  0  0  0  0  0  0  0  0  0  0  0
    8.4903  -16.6412   24.8324 C   0  0  0  0  0  0  0  0  0  0  0  0
   11.4554  -13.8826   30.5198 C   0  0  0  0  0  0  0  0  0  0  0  0
   11.3960  -14.8079   29.3535 C   0  0  2  0  0  0  0  0  0  0  0  0
   10.2106  -14.6494   28.4617 C   0  0  0  0  0  0  0  0  0  0  0  0
    8.9795  -14.5043   29.3470 C   0  0  2  0  0  0  0  0  0  0  0  0
    9.9635  -15.7665   27.5103 N   0  0  0  0  0  0  0  0  0  0  0  0
    8.7028  -15.5434   26.8299 C   0  0  0  0  0  0  0  0  0  0  0  0
   10.0576  -17.1179   28.0877 O   0  0  0  0  0  0  0  0  0  0  0  0
   11.2900  -17.6975   28.2725 O   0  0  0  0  0  0  0  0  0  0  0  0
  2  4  1  0
  2  1  1  0
  3  2  2  0
  5  4  1  0
  6  5  1  0
  7  6  1  0
  8  7  1  0
  8  9  1  6
 10  8  1  0
 11 10  2  0
 12 16  1  0
 12 10  1  0
 13 14  1  0
 13 12  1  0
 14 15  1  0
 15 16  1  0
 16 17  1  1
 18 17  2  0
 19 20  1  0
 20 21  1  0
 21 22  1  6
 23 21  1  0
 23 24  1  1
 24 17  1  0
 25 26  1  0
 25 23  1  0
 27 25  2  0
M  END
$$$$
