RPI.pdb
     RDKit          3D

 27 27  0  0  1  0  0  0  0  0999 V2000
   14.2730  -19.1204   19.7905 N   0  0  0  0  0  0  0  0  0  0  0  0
   14.4228  -20.1234   20.8015 C   0  0  0  0  0  0  0  0  0  0  0  0
   15.3910  -20.9581   20.7415 N   0  0  0  0  0  0  0  0  0  0  0  0
   13.4785  -20.1853   21.8797 N   0  0  0  0  0  0  0  0  0  0  0  0
   12.3376  -19.3224   21.9611 C   0  0  0  0  0  0  0  0  0  0  0  0
   11.8295  -18.8852   20.5855 C   0  0  0  0  0  0  0  0  0  0  0  0
   11.7779  -17.3824   20.6167 C   0  0  0  0  0  0  0  0  0  0  0  0
   10.6137  -16.8182   19.8168 C   0  0  2  0  0  0  0  0  0  0  0  0
   11.0473  -16.2457   18.5720 N   0  0  0  0  0  0  0  0  0  0  0  0
    9.7213  -15.9904   20.6252 C   0  0  0  0  0  0  0  0  0  0  0  0
   10.1208  -14.8022   20.8916 O   0  0  0  0  0  0  0  0  0  0  0  0
   15.4548  -21.7093   21.4611 N   0  0  0  0  0  0  0  0  0  0  0  0
    8.4518  -16.3694   21.1503 C   0  0  0  0  0  0  0  0  0  0  0  0
    7.7384  -17.6174   21.0559 C   0  0  0  0  0  0  0  0  0  0  0  0
    6.3040  -17.1833   20.9181 C   0  0  0  0  0  0  0  0  0  0  0  0
    6.2336  -15.7716   21.4469 C   0  0  1  0  0  0  0  0  0  0  0  0
    7.6008  -15.4973   21.9303 C   0  0  0  0  0  0  0  0  0  0  0  0
    7.8028  -15.6584   23.3849 O   0  0  0  0  0  0  0  0  0  0  0  0
    8.5051  -16.6197   23.7749 C   0  0  0  0  0  0  0  0  0  0  0  0
    6.0091  -11.2141   25.9028 C   0  0  0  0  0  0  0  0  0  0  0  0
    7.1362  -12.1082   25.5152 C   0  0  2  0  0  0  0  0  0  0  0  0
    7.2596  -13.3709   26.3001 C   0  0  0  0  0  0  0  0  0  0  0  0
    8.0314  -13.0523   27.5742 C   0  0  2  0  0  0  0  0  0  0  0  0
    7.9514  -14.4945   25.6124 N   0  0  0  0  0  0  0  0  0  0  0  0
    7.2553  -14.7989   24.3776 C   0  0  0  0  0  0  0  0  0  0  0  0
    8.1800  -15.6927   26.4373 O   0  0  0  0  0  0  0  0  0  0  0  0
    9.2952  -15.7689   27.2371 O   0  0  0  0  0  0  0  0  0  0  0  0
  2  4  1  0
  2  1  1  0
  3  2  2  0
  5  4  1  0
  6  5  1  0
  7  6  1  0
  8  7  1  0
  8  9  1  6
 10  8  1  0
 11 10  2  0
 12 16  1  0
 12 10  1  0
 13 14  1  0
 13 12  1  0
 14 15  1  0
 15 16  1  0
 16 17  1  1
 18 17  2  0
 19 20  1  0
 20 21  1  0
 21 22  1  6
 23 21  1  0
 23 24  1  6
 24 17  1  0
 25 26  1  0
 25 23  1  0
 27 25  2  0
M  END
$$$$
