RPI.pdb
     RDKit          3D

 27 27  0  0  1  0  0  0  0  0999 V2000
    7.7374  -13.1282   16.1281 N   0  0  0  0  0  0  0  0  0  0  0  0
    8.7099  -14.1513   16.3689 C   0  0  0  0  0  0  0  0  0  0  0  0
    9.1095  -14.8982   15.4096 N   0  0  0  0  0  0  0  0  0  0  0  0
    9.2304  -14.3327   17.6935 N   0  0  0  0  0  0  0  0  0  0  0  0
    8.6557  -13.7028   18.8449 C   0  0  0  0  0  0  0  0  0  0  0  0
    7.5717  -14.5574   19.5052 C   0  0  0  0  0  0  0  0  0  0  0  0
    8.1036  -15.9641   19.5276 C   0  0  0  0  0  0  0  0  0  0  0  0
    7.1614  -16.9372   20.2196 C   0  0  2  0  0  0  0  0  0  0  0  0
    5.9109  -17.0589   19.5218 N   0  0  0  0  0  0  0  0  0  0  0  0
    7.0707  -16.7081   21.6598 C   0  0  0  0  0  0  0  0  0  0  0  0
    6.0853  -15.9985   22.0698 O   0  0  0  0  0  0  0  0  0  0  0  0
    9.7525  -15.6905   15.6213 N   0  0  0  0  0  0  0  0  0  0  0  0
    7.9671  -17.1915   22.6566 C   0  0  0  0  0  0  0  0  0  0  0  0
    9.2461  -17.8412   22.5247 C   0  0  0  0  0  0  0  0  0  0  0  0
    9.2310  -18.8576   23.6345 C   0  0  0  0  0  0  0  0  0  0  0  0
    8.1933  -18.3904   24.6257 C   0  0  1  0  0  0  0  0  0  0  0  0
    7.7261  -17.1011   24.0803 C   0  0  0  0  0  0  0  0  0  0  0  0
    8.3363  -15.8990   24.6848 O   0  0  0  0  0  0  0  0  0  0  0  0
    9.4542  -15.5317   24.2551 C   0  0  0  0  0  0  0  0  0  0  0  0
    5.4756  -11.7957   27.5382 C   0  0  0  0  0  0  0  0  0  0  0  0
    6.2341  -13.0312   27.1942 C   0  0  2  0  0  0  0  0  0  0  0  0
    7.4405  -12.8326   26.3393 C   0  0  0  0  0  0  0  0  0  0  0  0
    6.9635  -12.5711   24.9164 C   0  0  1  0  0  0  0  0  0  0  0  0
    8.3997  -13.9695   26.3008 N   0  0  0  0  0  0  0  0  0  0  0  0
    7.7448  -15.1267   25.7228 C   0  0  0  0  0  0  0  0  0  0  0  0
    9.0603  -14.2797   27.5798 O   0  0  0  0  0  0  0  0  0  0  0  0
    9.9212  -13.3681   28.1427 O   0  0  0  0  0  0  0  0  0  0  0  0
  2  4  1  0
  2  1  1  0
  3  2  2  0
  5  4  1  0
  6  5  1  0
  7  6  1  0
  8  7  1  0
  8  9  1  6
 10  8  1  0
 11 10  2  0
 12 16  1  0
 12 10  1  0
 13 14  1  0
 13 12  1  0
 14 15  1  0
 15 16  1  0
 16 17  1  1
 18 17  2  0
 19 20  1  0
 20 21  1  0
 21 22  1  1
 23 21  1  0
 23 24  1  6
 24 17  1  0
 25 26  1  0
 25 23  1  0
 27 25  2  0
M  END
$$$$
