RPI.pdb
     RDKit          3D

 27 27  0  0  1  0  0  0  0  0999 V2000
    7.4465  -22.3077   22.1036 N   0  0  0  0  0  0  0  0  0  0  0  0
    7.0902  -21.1955   22.9321 C   0  0  0  0  0  0  0  0  0  0  0  0
    7.2735  -21.2507   24.1975 N   0  0  0  0  0  0  0  0  0  0  0  0
    6.5253  -20.0210   22.3324 N   0  0  0  0  0  0  0  0  0  0  0  0
    7.3252  -19.0042   21.7166 C   0  0  0  0  0  0  0  0  0  0  0  0
    7.7284  -19.3584   20.2836 C   0  0  0  0  0  0  0  0  0  0  0  0
    7.5446  -18.1037   19.4748 C   0  0  0  0  0  0  0  0  0  0  0  0
    8.8294  -17.3016   19.3355 C   0  0  2  0  0  0  0  0  0  0  0  0
    9.9468  -18.1367   18.9897 N   0  0  0  0  0  0  0  0  0  0  0  0
    9.0416  -16.3770   20.4468 C   0  0  0  0  0  0  0  0  0  0  0  0
   10.1561  -16.4733   21.0722 O   0  0  0  0  0  0  0  0  0  0  0  0
    7.0101  -20.4289   24.7817 N   0  0  0  0  0  0  0  0  0  0  0  0
    8.1350  -15.3792   20.9088 C   0  0  0  0  0  0  0  0  0  0  0  0
    6.8080  -15.0445   20.4586 C   0  0  0  0  0  0  0  0  0  0  0  0
    6.7727  -13.5447   20.5793 C   0  0  0  0  0  0  0  0  0  0  0  0
    7.8655  -13.1698   21.5502 C   0  0  2  0  0  0  0  0  0  0  0  0
    8.4153  -14.4652   21.9947 C   0  0  0  0  0  0  0  0  0  0  0  0
    7.9115  -14.9551   23.2942 O   0  0  0  0  0  0  0  0  0  0  0  0
    6.9157  -15.7152   23.2865 C   0  0  0  0  0  0  0  0  0  0  0  0
    9.6812  -13.0891   28.5056 C   0  0  0  0  0  0  0  0  0  0  0  0
    9.1073  -13.4371   27.1754 C   0  0  2  0  0  0  0  0  0  0  0  0
    8.9999  -14.8951   26.8786 C   0  0  0  0  0  0  0  0  0  0  0  0
   10.3862  -15.3936   26.4910 C   0  0  1  0  0  0  0  0  0  0  0  0
    8.0571  -15.2652   25.7885 N   0  0  0  0  0  0  0  0  0  0  0  0
    8.4765  -14.6245   24.5573 C   0  0  0  0  0  0  0  0  0  0  0  0
    6.6326  -15.0359   26.0829 O   0  0  0  0  0  0  0  0  0  0  0  0
    5.9577  -14.0227   25.4450 O   0  0  0  0  0  0  0  0  0  0  0  0
  2  4  1  0
  2  1  1  0
  3  2  2  0
  5  4  1  0
  6  5  1  0
  7  6  1  0
  8  7  1  0
  8  9  1  1
 10  8  1  0
 11 10  2  0
 12 16  1  0
 12 10  1  0
 13 14  1  0
 13 12  1  0
 14 15  1  0
 15 16  1  0
 16 17  1  1
 18 17  2  0
 19 20  1  0
 20 21  1  0
 21 22  1  1
 23 21  1  0
 23 24  1  6
 24 17  1  0
 25 26  1  0
 25 23  1  0
 27 25  2  0
M  END
$$$$
