SWA.pdb
     RDKit          3D

 26 27  0  0  1  0  0  0  0  0999 V2000
    8.1911  -17.1548   19.3980 O   0  0  0  0  0  0  0  0  0  0  0  0
    7.0984  -17.2367   20.2359 C   0  0  0  0  0  0  0  0  0  0  0  0
    6.8750  -15.8355   20.8155 C   0  0  2  0  0  0  0  0  0  0  0  0
    6.8382  -14.8600   19.7376 N   0  0  0  0  0  0  0  0  0  0  0  0
    8.0217  -15.5407   21.7276 C   0  0  0  0  0  0  0  0  0  0  0  0
    8.9278  -14.7723   21.3135 O   0  0  0  0  0  0  0  0  0  0  0  0
    8.0516  -16.1273   23.0110 N   0  0  0  0  0  0  0  0  0  0  0  0
    9.1460  -15.8742   23.9148 C   0  0  1  0  0  0  0  0  0  0  0  0
    8.5641  -16.0067   25.3051 C   0  0  0  0  0  0  0  0  0  0  0  0
    7.5289  -15.0209   25.6206 C   0  0  0  0  0  0  0  0  0  0  0  0
    6.1692  -15.2928   25.6654 C   0  0  0  0  0  0  0  0  0  0  0  0
    5.5001  -14.1594   25.9862 N   0  0  0  0  0  0  0  0  0  0  0  0
    6.3676  -13.1529   26.1540 C   0  0  0  0  0  0  0  0  0  0  0  0
    6.2018  -11.8237   26.4801 C   0  0  0  0  0  0  0  0  0  0  0  0
    7.3220  -11.0271   26.5774 C   0  0  0  0  0  0  0  0  0  0  0  0
    8.5774  -11.5300   26.3582 C   0  0  0  0  0  0  0  0  0  0  0  0
    8.7260  -12.8557   26.0345 C   0  0  0  0  0  0  0  0  0  0  0  0
    7.6350  -13.6883   25.9263 C   0  0  0  0  0  0  0  0  0  0  0  0
   10.2896  -16.7687   23.6941 C   0  0  0  0  0  0  0  0  0  0  0  0
   10.0813  -17.9904   23.5071 O   0  0  0  0  0  0  0  0  0  0  0  0
   13.9204  -16.3719   22.9095 C   0  0  0  0  0  0  0  0  0  0  0  0
   12.7574  -17.1666   23.4760 C   0  0  2  0  0  0  0  0  0  0  0  0
   11.6223  -16.2982   23.6849 N   0  0  0  0  0  0  0  0  0  0  0  0
   13.1903  -17.8196   24.7086 C   0  0  0  0  0  0  0  0  0  0  0  0
   14.2101  -18.7659   24.6342 O   0  0  0  0  0  0  0  0  0  0  0  0
   12.7151  -17.5986   25.8487 O   0  0  0  0  0  0  0  0  0  0  0  0
  2  1  1  0
  3  2  1  0
  3  4  1  6
  5  7  1  0
  5  3  1  0
  6  5  2  0
  8  7  1  0
  8  9  1  1
  9 10  1  0
 10 18  1  0
 11 10  2  0
 11 12  1  0
 12 13  1  0
 13 14  1  0
 14 15  2  0
 16 15  1  0
 17 16  2  0
 18 13  2  0
 18 17  1  0
 19 23  1  0
 19  8  1  0
 20 19  2  0
 22 21  1  1
 22 24  1  0
 22 23  1  0
 24 25  1  0
 26 24  2  0
M  END
$$$$
