SWA.pdb
     RDKit          3D

 26 27  0  0  1  0  0  0  0  0999 V2000
    8.4592  -16.0820   19.2314 O   0  0  0  0  0  0  0  0  0  0  0  0
    7.2161  -16.1617   19.8239 C   0  0  0  0  0  0  0  0  0  0  0  0
    7.0256  -14.8753   20.6352 C   0  0  2  0  0  0  0  0  0  0  0  0
    7.2166  -13.7199   19.7730 N   0  0  0  0  0  0  0  0  0  0  0  0
    8.0538  -14.8743   21.7201 C   0  0  0  0  0  0  0  0  0  0  0  0
    9.0532  -14.1211   21.5906 O   0  0  0  0  0  0  0  0  0  0  0  0
    7.8730  -15.7094   22.8434 N   0  0  0  0  0  0  0  0  0  0  0  0
    8.8567  -15.7563   23.8964 C   0  0  1  0  0  0  0  0  0  0  0  0
    8.0783  -16.0087   25.1690 C   0  0  0  0  0  0  0  0  0  0  0  0
    7.1993  -14.9072   25.5653 C   0  0  0  0  0  0  0  0  0  0  0  0
    5.8141  -14.9772   25.5986 C   0  0  0  0  0  0  0  0  0  0  0  0
    5.3191  -13.7849   26.0088 N   0  0  0  0  0  0  0  0  0  0  0  0
    6.3254  -12.9337   26.2466 C   0  0  0  0  0  0  0  0  0  0  0  0
    6.3572  -11.6233   26.6735 C   0  0  0  0  0  0  0  0  0  0  0  0
    7.5826  -11.0112   26.8233 C   0  0  0  0  0  0  0  0  0  0  0  0
    8.7506  -11.6765   26.5582 C   0  0  0  0  0  0  0  0  0  0  0  0
    8.7024  -12.9811   26.1340 C   0  0  0  0  0  0  0  0  0  0  0  0
    7.5005  -13.6322   25.9704 C   0  0  0  0  0  0  0  0  0  0  0  0
    9.8984  -16.7646   23.6626 C   0  0  0  0  0  0  0  0  0  0  0  0
    9.5695  -17.8902   23.2200 O   0  0  0  0  0  0  0  0  0  0  0  0
   13.5778  -16.8464   23.2699 C   0  0  0  0  0  0  0  0  0  0  0  0
   12.2942  -17.5061   23.7412 C   0  0  2  0  0  0  0  0  0  0  0  0
   11.2644  -16.5093   23.9200 N   0  0  0  0  0  0  0  0  0  0  0  0
   12.5695  -18.2457   24.9702 C   0  0  0  0  0  0  0  0  0  0  0  0
   13.4914  -19.2891   24.9231 O   0  0  0  0  0  0  0  0  0  0  0  0
   12.0385  -18.0189   26.0842 O   0  0  0  0  0  0  0  0  0  0  0  0
  2  1  1  0
  3  2  1  0
  3  4  1  6
  5  7  1  0
  5  3  1  0
  6  5  2  0
  8  7  1  0
  8  9  1  1
  9 10  1  0
 10 18  1  0
 11 10  2  0
 11 12  1  0
 12 13  1  0
 13 14  1  0
 14 15  2  0
 16 15  1  0
 17 16  2  0
 18 13  2  0
 18 17  1  0
 19 23  1  0
 19  8  1  0
 20 19  2  0
 22 21  1  1
 22 24  1  0
 22 23  1  0
 24 25  1  0
 26 24  2  0
M  END
$$$$
