SWA.pdb
     RDKit          3D

 26 27  0  0  1  0  0  0  0  0999 V2000
    8.5570  -15.5358   19.6071 O   0  0  0  0  0  0  0  0  0  0  0  0
    8.8467  -15.3450   20.9422 C   0  0  0  0  0  0  0  0  0  0  0  0
    9.4338  -16.6612   21.4636 C   0  0  2  0  0  0  0  0  0  0  0  0
    8.4180  -17.7011   21.4215 N   0  0  0  0  0  0  0  0  0  0  0  0
    9.8652  -16.4302   22.8759 C   0  0  0  0  0  0  0  0  0  0  0  0
   10.6920  -15.5091   23.1013 O   0  0  0  0  0  0  0  0  0  0  0  0
    9.3370  -17.2440   23.9010 N   0  0  0  0  0  0  0  0  0  0  0  0
    9.6966  -17.0238   25.2797 C   0  0  1  0  0  0  0  0  0  0  0  0
    8.3875  -16.9558   26.0353 C   0  0  0  0  0  0  0  0  0  0  0  0
    7.5343  -15.8269   25.6606 C   0  0  0  0  0  0  0  0  0  0  0  0
    6.4251  -15.9182   24.8323 C   0  0  0  0  0  0  0  0  0  0  0  0
    5.8701  -14.6900   24.6965 N   0  0  0  0  0  0  0  0  0  0  0  0
    6.5716  -13.7946   25.4037 C   0  0  0  0  0  0  0  0  0  0  0  0
    6.4269  -12.4370   25.5945 C   0  0  0  0  0  0  0  0  0  0  0  0
    7.3369  -11.7865   26.3991 C   0  0  0  0  0  0  0  0  0  0  0  0
    8.3666  -12.4597   27.0021 C   0  0  0  0  0  0  0  0  0  0  0  0
    8.4972  -13.8116   26.8025 C   0  0  0  0  0  0  0  0  0  0  0  0
    7.6112  -14.5022   26.0066 C   0  0  0  0  0  0  0  0  0  0  0  0
   10.6002  -18.0539   25.8076 C   0  0  0  0  0  0  0  0  0  0  0  0
   10.3513  -19.2604   25.5763 O   0  0  0  0  0  0  0  0  0  0  0  0
   13.8826  -18.1115   27.6548 C   0  0  0  0  0  0  0  0  0  0  0  0
   12.5745  -18.7330   27.1993 C   0  0  2  0  0  0  0  0  0  0  0  0
   11.7454  -17.7314   26.5703 N   0  0  0  0  0  0  0  0  0  0  0  0
   11.9213  -19.3504   28.3506 C   0  0  0  0  0  0  0  0  0  0  0  0
   12.5752  -20.3936   29.0026 O   0  0  0  0  0  0  0  0  0  0  0  0
   10.8029  -19.0170   28.8115 O   0  0  0  0  0  0  0  0  0  0  0  0
  2  1  1  0
  3  2  1  0
  3  4  1  1
  5  7  1  0
  5  3  1  0
  6  5  2  0
  8  7  1  0
  8  9  1  1
  9 10  1  0
 10 18  1  0
 11 10  2  0
 11 12  1  0
 12 13  1  0
 13 14  1  0
 14 15  2  0
 16 15  1  0
 17 16  2  0
 18 13  2  0
 18 17  1  0
 19 23  1  0
 19  8  1  0
 20 19  2  0
 22 21  1  1
 22 24  1  0
 22 23  1  0
 24 25  1  0
 26 24  2  0
M  END
$$$$
