SWA.pdb
     RDKit          3D

 26 27  0  0  1  0  0  0  0  0999 V2000
   11.4072  -18.8941   21.4163 O   0  0  0  0  0  0  0  0  0  0  0  0
   12.2146  -17.9934   20.7533 C   0  0  0  0  0  0  0  0  0  0  0  0
   11.3260  -16.8119   20.3488 C   0  0  2  0  0  0  0  0  0  0  0  0
   12.0627  -15.9269   19.4605 N   0  0  0  0  0  0  0  0  0  0  0  0
   10.9556  -16.0819   21.5994 C   0  0  0  0  0  0  0  0  0  0  0  0
   11.7975  -15.2902   22.0966 O   0  0  0  0  0  0  0  0  0  0  0  0
    9.6865  -16.3015   22.1768 N   0  0  0  0  0  0  0  0  0  0  0  0
    9.3310  -15.6936   23.4348 C   0  0  1  0  0  0  0  0  0  0  0  0
    7.8259  -15.5419   23.4020 C   0  0  0  0  0  0  0  0  0  0  0  0
    7.2526  -14.9649   24.6192 C   0  0  0  0  0  0  0  0  0  0  0  0
    6.6154  -15.6942   25.6126 C   0  0  0  0  0  0  0  0  0  0  0  0
    6.2082  -14.8503   26.5909 N   0  0  0  0  0  0  0  0  0  0  0  0
    6.5531  -13.5943   26.2789 C   0  0  0  0  0  0  0  0  0  0  0  0
    6.3742  -12.3902   26.9259 C   0  0  0  0  0  0  0  0  0  0  0  0
    6.8561  -11.2459   26.3282 C   0  0  0  0  0  0  0  0  0  0  0  0
    7.5002  -11.2882   25.1197 C   0  0  0  0  0  0  0  0  0  0  0  0
    7.6707  -12.4950   24.4881 C   0  0  0  0  0  0  0  0  0  0  0  0
    7.2054  -13.6633   25.0482 C   0  0  0  0  0  0  0  0  0  0  0  0
    9.7953  -16.4646   24.5951 C   0  0  0  0  0  0  0  0  0  0  0  0
    9.7835  -17.7167   24.5398 O   0  0  0  0  0  0  0  0  0  0  0  0
   11.7715  -15.7008   27.6675 C   0  0  0  0  0  0  0  0  0  0  0  0
   10.8137  -16.5816   26.8854 C   0  0  2  0  0  0  0  0  0  0  0  0
   10.2572  -15.8418   25.7767 N   0  0  0  0  0  0  0  0  0  0  0  0
    9.7833  -17.0781   27.7937 C   0  0  0  0  0  0  0  0  0  0  0  0
   10.1676  -17.9216   28.8338 O   0  0  0  0  0  0  0  0  0  0  0  0
    8.5607  -16.8063   27.7172 O   0  0  0  0  0  0  0  0  0  0  0  0
  2  1  1  0
  3  2  1  0
  3  4  1  6
  5  7  1  0
  5  3  1  0
  6  5  2  0
  8  7  1  0
  8  9  1  1
  9 10  1  0
 10 18  1  0
 11 10  2  0
 11 12  1  0
 12 13  1  0
 13 14  1  0
 14 15  2  0
 16 15  1  0
 17 16  2  0
 18 13  2  0
 18 17  1  0
 19 23  1  0
 19  8  1  0
 20 19  2  0
 22 21  1  1
 22 24  1  0
 22 23  1  0
 24 25  1  0
 26 24  2  0
M  END
$$$$
