SWA.pdb
     RDKit          3D

 26 27  0  0  1  0  0  0  0  0999 V2000
    9.0702  -17.2953   19.3493 O   0  0  0  0  0  0  0  0  0  0  0  0
    7.8346  -17.2727   19.9622 C   0  0  0  0  0  0  0  0  0  0  0  0
    7.6401  -15.8590   20.5215 C   0  0  2  0  0  0  0  0  0  0  0  0
    7.9549  -14.8787   19.4945 N   0  0  0  0  0  0  0  0  0  0  0  0
    8.5758  -15.7022   21.6765 C   0  0  0  0  0  0  0  0  0  0  0  0
    9.6218  -15.0244   21.5057 O   0  0  0  0  0  0  0  0  0  0  0  0
    8.2597  -16.3130   22.9090 N   0  0  0  0  0  0  0  0  0  0  0  0
    9.1451  -16.1968   24.0408 C   0  0  1  0  0  0  0  0  0  0  0  0
    8.2833  -16.4484   25.2587 C   0  0  0  0  0  0  0  0  0  0  0  0
    7.4440  -15.3135   25.6468 C   0  0  0  0  0  0  0  0  0  0  0  0
    6.0941  -15.4006   25.9548 C   0  0  0  0  0  0  0  0  0  0  0  0
    5.6301  -14.1674   26.2694 N   0  0  0  0  0  0  0  0  0  0  0  0
    6.6229  -13.2730   26.1802 C   0  0  0  0  0  0  0  0  0  0  0  0
    6.6736  -11.9117   26.3925 C   0  0  0  0  0  0  0  0  0  0  0  0
    7.8760  -11.2634   26.2117 C   0  0  0  0  0  0  0  0  0  0  0  0
    9.0033  -11.9423   25.8303 C   0  0  0  0  0  0  0  0  0  0  0  0
    8.9367  -13.2977   25.6229 C   0  0  0  0  0  0  0  0  0  0  0  0
    7.7566  -13.9862   25.7916 C   0  0  0  0  0  0  0  0  0  0  0  0
   10.2944  -17.1077   23.9649 C   0  0  0  0  0  0  0  0  0  0  0  0
   10.1116  -18.2909   23.5936 O   0  0  0  0  0  0  0  0  0  0  0  0
   14.0210  -16.8288   24.1178 C   0  0  0  0  0  0  0  0  0  0  0  0
   12.7294  -17.6017   24.3154 C   0  0  2  0  0  0  0  0  0  0  0  0
   11.6048  -16.6955   24.2968 N   0  0  0  0  0  0  0  0  0  0  0  0
   12.8167  -18.3516   25.5657 C   0  0  0  0  0  0  0  0  0  0  0  0
   13.8797  -19.2360   25.7349 O   0  0  0  0  0  0  0  0  0  0  0  0
   12.0032  -18.2669   26.5173 O   0  0  0  0  0  0  0  0  0  0  0  0
  2  1  1  0
  3  2  1  0
  3  4  1  6
  5  7  1  0
  5  3  1  0
  6  5  2  0
  8  7  1  0
  8  9  1  1
  9 10  1  0
 10 18  1  0
 11 10  2  0
 11 12  1  0
 12 13  1  0
 13 14  1  0
 14 15  2  0
 16 15  1  0
 17 16  2  0
 18 13  2  0
 18 17  1  0
 19 23  1  0
 19  8  1  0
 20 19  2  0
 22 21  1  1
 22 24  1  0
 22 23  1  0
 24 25  1  0
 26 24  2  0
M  END
$$$$
