KKI.pdb
     RDKit          3D

 27 26  0  0  1  0  0  0  0  0999 V2000
   11.6239  -19.5954   21.4218 N   0  0  0  0  0  0  0  0  0  0  0  0
   10.5085  -19.3012   22.2397 C   0  0  1  0  0  0  0  0  0  0  0  0
   10.5086  -20.0456   23.5601 C   0  0  0  0  0  0  0  0  0  0  0  0
   11.8573  -20.3056   24.1254 C   0  0  0  0  0  0  0  0  0  0  0  0
   11.8999  -21.0430   25.4178 C   0  0  0  0  0  0  0  0  0  0  0  0
   13.3044  -21.2394   25.9456 C   0  0  0  0  0  0  0  0  0  0  0  0
   13.2993  -21.8668   27.2541 N   0  0  0  0  0  0  0  0  0  0  0  0
   10.1939  -17.8659   22.4256 C   0  0  0  0  0  0  0  0  0  0  0  0
   11.1594  -17.0686   22.7115 O   0  0  0  0  0  0  0  0  0  0  0  0
    8.9384  -17.2620   22.3239 N   0  0  0  0  0  0  0  0  0  0  0  0
    8.7278  -15.8190   22.4509 C   0  0  1  0  0  0  0  0  0  0  0  0
    7.5878  -15.4870   21.5180 C   0  0  0  0  0  0  0  0  0  0  0  0
    7.4062  -14.0464   21.2047 C   0  0  0  0  0  0  0  0  0  0  0  0
    7.5880  -13.8183   19.6885 C   0  0  0  0  0  0  0  0  0  0  0  0
    7.4882  -12.3484   19.4182 C   0  0  0  0  0  0  0  0  0  0  0  0
    7.7235  -12.1300   18.0030 N   0  0  0  0  0  0  0  0  0  0  0  0
    8.5135  -15.4243   23.8476 C   0  0  0  0  0  0  0  0  0  0  0  0
    7.8976  -16.2670   24.5905 O   0  0  0  0  0  0  0  0  0  0  0  0
    5.4348  -12.3502   26.5734 C   0  0  0  0  0  0  0  0  0  0  0  0
    6.4240  -13.3012   25.9511 C   0  0  0  0  0  0  0  0  0  0  0  0
    7.8597  -12.9265   26.2303 C   0  0  2  0  0  0  0  0  0  0  0  0
    8.2374  -11.6966   25.4268 C   0  0  0  0  0  0  0  0  0  0  0  0
    8.8280  -14.0257   25.8581 C   0  0  2  0  0  0  0  0  0  0  0  0
    8.9313  -14.2037   24.4310 N   0  0  0  0  0  0  0  0  0  0  0  0
    8.3701  -15.2728   26.5267 C   0  0  0  0  0  0  0  0  0  0  0  0
    8.4367  -15.4374   27.7677 O   0  0  0  0  0  0  0  0  0  0  0  0
    7.8420  -16.3205   25.7865 O   0  0  0  0  0  0  0  0  0  0  0  0
  2  1  1  1
  3  2  1  0
  3  4  1  0
  4  5  1  0
  5  6  1  0
  7  6  1  0
  8  9  2  0
  8  2  1  0
 10  8  1  0
 11 17  1  0
 11 10  1  0
 11 12  1  6
 13 12  1  0
 14 13  1  0
 15 14  1  0
 16 15  1  0
 17 24  1  0
 18 17  2  0
 19 20  1  0
 21 20  1  0
 21 22  1  6
 21 23  1  0
 23 25  1  0
 23 24  1  6
 25 26  2  0
 25 27  1  0
M  END
$$$$
