KKI.pdb
     RDKit          3D

 27 26  0  0  1  0  0  0  0  0999 V2000
    7.7632  -16.7073   19.1772 N   0  0  0  0  0  0  0  0  0  0  0  0
    7.8470  -15.5901   20.0399 C   0  0  1  0  0  0  0  0  0  0  0  0
    7.3225  -14.3068   19.4268 C   0  0  0  0  0  0  0  0  0  0  0  0
    7.3287  -14.2812   17.9417 C   0  0  0  0  0  0  0  0  0  0  0  0
    8.5867  -13.8171   17.2951 C   0  0  0  0  0  0  0  0  0  0  0  0
    8.4972  -13.7667   15.7855 C   0  0  0  0  0  0  0  0  0  0  0  0
    9.7200  -13.2542   15.1958 N   0  0  0  0  0  0  0  0  0  0  0  0
    7.3320  -15.7850   21.4148 C   0  0  0  0  0  0  0  0  0  0  0  0
    6.7278  -14.8015   21.9780 O   0  0  0  0  0  0  0  0  0  0  0  0
    7.4288  -16.9425   22.1908 N   0  0  0  0  0  0  0  0  0  0  0  0
    7.0711  -16.9914   23.6094 C   0  0  1  0  0  0  0  0  0  0  0  0
    7.1684  -18.4448   24.0073 C   0  0  0  0  0  0  0  0  0  0  0  0
    6.9611  -18.7367   25.4489 C   0  0  0  0  0  0  0  0  0  0  0  0
    7.0671  -20.2579   25.6907 C   0  0  0  0  0  0  0  0  0  0  0  0
    6.8427  -20.5198   27.1482 C   0  0  0  0  0  0  0  0  0  0  0  0
    7.0554  -21.9342   27.3935 N   0  0  0  0  0  0  0  0  0  0  0  0
    7.8979  -16.0794   24.4076 C   0  0  0  0  0  0  0  0  0  0  0  0
    9.1660  -16.2444   24.3314 O   0  0  0  0  0  0  0  0  0  0  0  0
    6.0506  -11.2851   27.0485 C   0  0  0  0  0  0  0  0  0  0  0  0
    6.5497  -12.6947   26.8628 C   0  0  0  0  0  0  0  0  0  0  0  0
    7.8255  -12.7685   26.0589 C   0  0  2  0  0  0  0  0  0  0  0  0
    7.5846  -12.2364   24.6590 C   0  0  0  0  0  0  0  0  0  0  0  0
    8.3436  -14.1819   25.9234 C   0  0  2  0  0  0  0  0  0  0  0  0
    7.4105  -15.0436   25.2410 N   0  0  0  0  0  0  0  0  0  0  0  0
    8.6422  -14.6837   27.2912 C   0  0  0  0  0  0  0  0  0  0  0  0
    9.5227  -14.1710   28.0215 O   0  0  0  0  0  0  0  0  0  0  0  0
    7.9430  -15.7591   27.8195 O   0  0  0  0  0  0  0  0  0  0  0  0
  2  1  1  6
  3  2  1  0
  3  4  1  0
  4  5  1  0
  5  6  1  0
  7  6  1  0
  8  9  2  0
  8  2  1  0
 10  8  1  0
 11 17  1  0
 11 10  1  0
 11 12  1  1
 13 12  1  0
 14 13  1  0
 15 14  1  0
 16 15  1  0
 17 24  1  0
 18 17  2  0
 19 20  1  0
 21 20  1  0
 21 22  1  6
 21 23  1  0
 23 25  1  0
 23 24  1  1
 25 26  2  0
 25 27  1  0
M  END
$$$$
