KKI.pdb
     RDKit          3D

 27 26  0  0  1  0  0  0  0  0999 V2000
   10.6931  -16.8989   19.5066 N   0  0  0  0  0  0  0  0  0  0  0  0
   10.0550  -17.4079   20.6613 C   0  0  1  0  0  0  0  0  0  0  0  0
   10.4765  -18.8197   21.0174 C   0  0  0  0  0  0  0  0  0  0  0  0
   10.1136  -19.8482   20.0092 C   0  0  0  0  0  0  0  0  0  0  0  0
    8.7757  -20.4819   20.1654 C   0  0  0  0  0  0  0  0  0  0  0  0
    8.4754  -21.5108   19.0972 C   0  0  0  0  0  0  0  0  0  0  0  0
    7.1360  -22.0509   19.2389 N   0  0  0  0  0  0  0  0  0  0  0  0
   10.0536  -16.5253   21.8507 C   0  0  0  0  0  0  0  0  0  0  0  0
   11.1491  -15.9325   22.1636 O   0  0  0  0  0  0  0  0  0  0  0  0
    8.9730  -16.2551   22.6938 N   0  0  0  0  0  0  0  0  0  0  0  0
    9.0628  -15.3718   23.8575 C   0  0  1  0  0  0  0  0  0  0  0  0
    7.6584  -14.8753   24.1052 C   0  0  0  0  0  0  0  0  0  0  0  0
    7.4891  -13.9636   25.2656 C   0  0  0  0  0  0  0  0  0  0  0  0
    6.0058  -13.5544   25.3919 C   0  0  0  0  0  0  0  0  0  0  0  0
    5.8861  -12.5537   26.4999 C   0  0  0  0  0  0  0  0  0  0  0  0
    4.4821  -12.2263   26.6663 N   0  0  0  0  0  0  0  0  0  0  0  0
    9.6868  -16.0457   25.0016 C   0  0  0  0  0  0  0  0  0  0  0  0
   10.0460  -17.2620   24.8207 O   0  0  0  0  0  0  0  0  0  0  0  0
   10.3663  -13.1959   29.5674 C   0  0  0  0  0  0  0  0  0  0  0  0
   11.0184  -14.0010   28.4733 C   0  0  0  0  0  0  0  0  0  0  0  0
   10.7405  -15.4809   28.5833 C   0  0  2  0  0  0  0  0  0  0  0  0
   11.8142  -16.1463   29.4232 C   0  0  0  0  0  0  0  0  0  0  0  0
   10.7267  -16.1691   27.2377 C   0  0  2  0  0  0  0  0  0  0  0  0
    9.9228  -15.4638   26.2707 N   0  0  0  0  0  0  0  0  0  0  0  0
   10.2288  -17.5547   27.4472 C   0  0  0  0  0  0  0  0  0  0  0  0
    9.0148  -17.8561   27.3635 O   0  0  0  0  0  0  0  0  0  0  0  0
   11.1073  -18.5851   27.7489 O   0  0  0  0  0  0  0  0  0  0  0  0
  2  1  1  6
  3  2  1  0
  3  4  1  0
  4  5  1  0
  5  6  1  0
  7  6  1  0
  8  9  2  0
  8  2  1  0
 10  8  1  0
 11 17  1  0
 11 10  1  0
 11 12  1  1
 13 12  1  0
 14 13  1  0
 15 14  1  0
 16 15  1  0
 17 24  1  0
 18 17  2  0
 19 20  1  0
 21 20  1  0
 21 22  1  1
 21 23  1  0
 23 25  1  0
 23 24  1  6
 25 26  2  0
 25 27  1  0
M  END
$$$$
