KKI.pdb
     RDKit          3D

 27 26  0  0  1  0  0  0  0  0999 V2000
    4.9313  -17.7122   20.2454 N   0  0  0  0  0  0  0  0  0  0  0  0
    6.0341  -17.0904   20.8753 C   0  0  1  0  0  0  0  0  0  0  0  0
    6.3084  -15.6859   20.3754 C   0  0  0  0  0  0  0  0  0  0  0  0
    7.3178  -15.6003   19.2892 C   0  0  0  0  0  0  0  0  0  0  0  0
    7.6663  -14.2316   18.8188 C   0  0  0  0  0  0  0  0  0  0  0  0
    8.6005  -14.2306   17.6284 C   0  0  0  0  0  0  0  0  0  0  0  0
    8.9302  -12.8806   17.2108 N   0  0  0  0  0  0  0  0  0  0  0  0
    6.0650  -17.1559   22.3546 C   0  0  0  0  0  0  0  0  0  0  0  0
    4.9871  -16.8746   22.9938 O   0  0  0  0  0  0  0  0  0  0  0  0
    7.1568  -17.4963   23.1568 N   0  0  0  0  0  0  0  0  0  0  0  0
    7.0982  -17.5372   24.6189 C   0  0  1  0  0  0  0  0  0  0  0  0
    7.5424  -18.9268   25.0086 C   0  0  0  0  0  0  0  0  0  0  0  0
    7.6702  -19.1806   26.4666 C   0  0  0  0  0  0  0  0  0  0  0  0
    8.3175  -20.5631   26.6978 C   0  0  0  0  0  0  0  0  0  0  0  0
    8.3444  -20.8300   28.1714 C   0  0  0  0  0  0  0  0  0  0  0  0
    9.0042  -22.1039   28.3901 N   0  0  0  0  0  0  0  0  0  0  0  0
    7.8783  -16.4511   25.2223 C   0  0  0  0  0  0  0  0  0  0  0  0
    8.9837  -16.1546   24.6467 O   0  0  0  0  0  0  0  0  0  0  0  0
    5.5071  -12.2355   27.7552 C   0  0  0  0  0  0  0  0  0  0  0  0
    6.5333  -12.9070   26.8797 C   0  0  0  0  0  0  0  0  0  0  0  0
    7.5984  -13.6315   27.6672 C   0  0  2  0  0  0  0  0  0  0  0  0
    8.6099  -12.6363   28.2035 C   0  0  0  0  0  0  0  0  0  0  0  0
    8.3534  -14.6383   26.8301 C   0  0  2  0  0  0  0  0  0  0  0  0
    7.5082  -15.7132   26.3728 N   0  0  0  0  0  0  0  0  0  0  0  0
    9.4817  -15.1501   27.6527 C   0  0  0  0  0  0  0  0  0  0  0  0
   10.4297  -14.4204   28.0276 O   0  0  0  0  0  0  0  0  0  0  0  0
    9.5273  -16.4805   28.0431 O   0  0  0  0  0  0  0  0  0  0  0  0
  2  1  1  1
  3  2  1  0
  3  4  1  0
  4  5  1  0
  5  6  1  0
  7  6  1  0
  8  9  2  0
  8  2  1  0
 10  8  1  0
 11 17  1  0
 11 10  1  0
 11 12  1  1
 13 12  1  0
 14 13  1  0
 15 14  1  0
 16 15  1  0
 17 24  1  0
 18 17  2  0
 19 20  1  0
 21 20  1  0
 21 22  1  6
 21 23  1  0
 23 25  1  0
 23 24  1  1
 25 26  2  0
 25 27  1  0
M  END
$$$$
