KKI.pdb
     RDKit          3D

 27 26  0  0  1  0  0  0  0  0999 V2000
    6.4301  -16.5568   19.6736 N   0  0  0  0  0  0  0  0  0  0  0  0
    7.0382  -15.6203   20.5412 C   0  0  1  0  0  0  0  0  0  0  0  0
    6.7135  -14.1784   20.2045 C   0  0  0  0  0  0  0  0  0  0  0  0
    7.2310  -13.7167   18.8910 C   0  0  0  0  0  0  0  0  0  0  0  0
    8.6107  -14.1488   18.5367 C   0  0  0  0  0  0  0  0  0  0  0  0
    9.1027  -13.5606   17.2321 C   0  0  0  0  0  0  0  0  0  0  0  0
   10.4906  -13.9030   16.9828 N   0  0  0  0  0  0  0  0  0  0  0  0
    6.8967  -15.8842   21.9917 C   0  0  0  0  0  0  0  0  0  0  0  0
    6.3065  -14.9991   22.7114 O   0  0  0  0  0  0  0  0  0  0  0  0
    7.3411  -17.0115   22.6867 N   0  0  0  0  0  0  0  0  0  0  0  0
    7.0951  -17.2247   24.1139 C   0  0  1  0  0  0  0  0  0  0  0  0
    7.3199  -18.6985   24.3534 C   0  0  0  0  0  0  0  0  0  0  0  0
    7.2697  -19.1391   25.7711 C   0  0  0  0  0  0  0  0  0  0  0  0
    7.4309  -20.6729   25.8437 C   0  0  0  0  0  0  0  0  0  0  0  0
    7.3298  -21.0896   27.2788 C   0  0  0  0  0  0  0  0  0  0  0  0
    8.4780  -21.9197   27.5926 N   0  0  0  0  0  0  0  0  0  0  0  0
    7.9158  -16.3353   24.9432 C   0  0  0  0  0  0  0  0  0  0  0  0
    9.1534  -16.2408   24.6263 O   0  0  0  0  0  0  0  0  0  0  0  0
    5.7898  -11.8704   27.0579 C   0  0  0  0  0  0  0  0  0  0  0  0
    6.8060  -12.7619   26.3925 C   0  0  0  0  0  0  0  0  0  0  0  0
    7.6536  -13.5297   27.3781 C   0  0  2  0  0  0  0  0  0  0  0  0
    8.7168  -12.6195   27.9629 C   0  0  0  0  0  0  0  0  0  0  0  0
    8.3622  -14.7033   26.7416 C   0  0  2  0  0  0  0  0  0  0  0  0
    7.4524  -15.5814   26.0486 N   0  0  0  0  0  0  0  0  0  0  0  0
    9.0942  -15.4231   27.8176 C   0  0  0  0  0  0  0  0  0  0  0  0
   10.0233  -14.8946   28.4727 O   0  0  0  0  0  0  0  0  0  0  0  0
    8.7691  -16.7321   28.1422 O   0  0  0  0  0  0  0  0  0  0  0  0
  2  1  1  6
  3  2  1  0
  3  4  1  0
  4  5  1  0
  5  6  1  0
  7  6  1  0
  8  9  2  0
  8  2  1  0
 10  8  1  0
 11 17  1  0
 11 10  1  0
 11 12  1  1
 13 12  1  0
 14 13  1  0
 15 14  1  0
 16 15  1  0
 17 24  1  0
 18 17  2  0
 19 20  1  0
 21 20  1  0
 21 22  1  6
 21 23  1  0
 23 25  1  0
 23 24  1  1
 25 26  2  0
 25 27  1  0
M  END
$$$$
