KKI.pdb
     RDKit          3D

 27 26  0  0  1  0  0  0  0  0999 V2000
    6.0008  -15.3295   20.9201 N   0  0  0  0  0  0  0  0  0  0  0  0
    7.3454  -15.1291   21.3092 C   0  0  1  0  0  0  0  0  0  0  0  0
    7.7522  -13.6699   21.3641 C   0  0  0  0  0  0  0  0  0  0  0  0
    7.7929  -12.9874   20.0455 C   0  0  0  0  0  0  0  0  0  0  0  0
    8.7073  -13.5733   19.0273 C   0  0  0  0  0  0  0  0  0  0  0  0
    8.7991  -12.7468   17.7631 C   0  0  0  0  0  0  0  0  0  0  0  0
    9.6884  -13.3559   16.7916 N   0  0  0  0  0  0  0  0  0  0  0  0
    7.7941  -15.8635   22.5145 C   0  0  0  0  0  0  0  0  0  0  0  0
    7.0935  -15.7517   23.5851 O   0  0  0  0  0  0  0  0  0  0  0  0
    8.9188  -16.6845   22.6266 N   0  0  0  0  0  0  0  0  0  0  0  0
    9.2205  -17.4758   23.8205 C   0  0  1  0  0  0  0  0  0  0  0  0
    9.7729  -18.7871   23.3150 C   0  0  0  0  0  0  0  0  0  0  0  0
    8.7742  -19.7453   22.7754 C   0  0  0  0  0  0  0  0  0  0  0  0
    9.4805  -21.0565   22.3684 C   0  0  0  0  0  0  0  0  0  0  0  0
    8.4795  -21.9390   21.6884 C   0  0  0  0  0  0  0  0  0  0  0  0
    9.1352  -23.1865   21.3420 N   0  0  0  0  0  0  0  0  0  0  0  0
   10.1038  -16.7512   24.7410 C   0  0  0  0  0  0  0  0  0  0  0  0
   11.1295  -16.1863   24.2213 O   0  0  0  0  0  0  0  0  0  0  0  0
    8.9380  -13.7366   29.3968 C   0  0  0  0  0  0  0  0  0  0  0  0
    9.4538  -14.9873   28.7333 C   0  0  0  0  0  0  0  0  0  0  0  0
   10.3900  -14.7029   27.5835 C   0  0  2  0  0  0  0  0  0  0  0  0
    9.6653  -13.9103   26.5122 C   0  0  0  0  0  0  0  0  0  0  0  0
   10.9134  -15.9649   26.9371 C   0  0  2  0  0  0  0  0  0  0  0  0
    9.9119  -16.6264   26.1383 N   0  0  0  0  0  0  0  0  0  0  0  0
   11.4121  -16.8515   28.0221 C   0  0  0  0  0  0  0  0  0  0  0  0
   10.8453  -17.9265   28.3300 O   0  0  0  0  0  0  0  0  0  0  0  0
   12.5455  -16.5144   28.7476 O   0  0  0  0  0  0  0  0  0  0  0  0
  2  1  1  1
  3  2  1  0
  3  4  1  0
  4  5  1  0
  5  6  1  0
  7  6  1  0
  8  9  2  0
  8  2  1  0
 10  8  1  0
 11 17  1  0
 11 10  1  0
 11 12  1  6
 13 12  1  0
 14 13  1  0
 15 14  1  0
 16 15  1  0
 17 24  1  0
 18 17  2  0
 19 20  1  0
 21 20  1  0
 21 22  1  6
 21 23  1  0
 23 25  1  0
 23 24  1  1
 25 26  2  0
 25 27  1  0
M  END
$$$$
