KKI.pdb
     RDKit          3D

 27 26  0  0  1  0  0  0  0  0999 V2000
   11.9200  -18.5494   21.5038 N   0  0  0  0  0  0  0  0  0  0  0  0
   10.5558  -18.3391   21.8111 C   0  0  1  0  0  0  0  0  0  0  0  0
    9.9529  -19.4256   22.6793 C   0  0  0  0  0  0  0  0  0  0  0  0
   10.9199  -20.1142   23.5719 C   0  0  0  0  0  0  0  0  0  0  0  0
   10.5206  -20.2471   24.9998 C   0  0  0  0  0  0  0  0  0  0  0  0
   11.4576  -21.1242   25.8014 C   0  0  0  0  0  0  0  0  0  0  0  0
   11.1457  -21.0824   27.2179 N   0  0  0  0  0  0  0  0  0  0  0  0
   10.1966  -16.9891   22.3031 C   0  0  0  0  0  0  0  0  0  0  0  0
   11.0722  -16.3425   22.9849 O   0  0  0  0  0  0  0  0  0  0  0  0
    8.9863  -16.3194   22.1078 N   0  0  0  0  0  0  0  0  0  0  0  0
    8.7413  -14.9515   22.5676 C   0  0  1  0  0  0  0  0  0  0  0  0
    7.9266  -14.2928   21.4801 C   0  0  0  0  0  0  0  0  0  0  0  0
    8.6570  -13.9752   20.2263 C   0  0  0  0  0  0  0  0  0  0  0  0
    7.6916  -13.3197   19.2153 C   0  0  0  0  0  0  0  0  0  0  0  0
    8.4340  -13.0930   17.9343 C   0  0  0  0  0  0  0  0  0  0  0  0
    7.5249  -12.4767   16.9857 N   0  0  0  0  0  0  0  0  0  0  0  0
    8.1219  -14.9303   23.8974 C   0  0  0  0  0  0  0  0  0  0  0  0
    7.2434  -15.8327   24.1320 O   0  0  0  0  0  0  0  0  0  0  0  0
   10.6408  -13.5657   28.6732 C   0  0  0  0  0  0  0  0  0  0  0  0
    9.8255  -14.2002   27.5763 C   0  0  0  0  0  0  0  0  0  0  0  0
    8.5189  -13.4873   27.3236 C   0  0  2  0  0  0  0  0  0  0  0  0
    7.6511  -13.5450   28.5665 C   0  0  0  0  0  0  0  0  0  0  0  0
    7.7310  -14.1061   26.1919 C   0  0  2  0  0  0  0  0  0  0  0  0
    8.4178  -14.0056   24.9281 N   0  0  0  0  0  0  0  0  0  0  0  0
    6.4077  -13.4291   26.1434 C   0  0  0  0  0  0  0  0  0  0  0  0
    6.1310  -12.5466   25.2972 O   0  0  0  0  0  0  0  0  0  0  0  0
    5.4110  -13.7563   27.0513 O   0  0  0  0  0  0  0  0  0  0  0  0
  2  1  1  1
  3  2  1  0
  3  4  1  0
  4  5  1  0
  5  6  1  0
  7  6  1  0
  8  9  2  0
  8  2  1  0
 10  8  1  0
 11 17  1  0
 11 10  1  0
 11 12  1  6
 13 12  1  0
 14 13  1  0
 15 14  1  0
 16 15  1  0
 17 24  1  0
 18 17  2  0
 19 20  1  0
 21 20  1  0
 21 22  1  1
 21 23  1  0
 23 25  1  0
 23 24  1  6
 25 26  2  0
 25 27  1  0
M  END
$$$$
