KKI.pdb
     RDKit          3D

 27 26  0  0  1  0  0  0  0  0999 V2000
    6.4531  -17.7996   19.2131 N   0  0  0  0  0  0  0  0  0  0  0  0
    7.2295  -16.9993   20.0827 C   0  0  1  0  0  0  0  0  0  0  0  0
    7.3129  -15.5458   19.6605 C   0  0  0  0  0  0  0  0  0  0  0  0
    7.8071  -15.3294   18.2767 C   0  0  0  0  0  0  0  0  0  0  0  0
    7.8844  -13.9155   17.8173 C   0  0  0  0  0  0  0  0  0  0  0  0
    8.3768  -13.7778   16.3932 C   0  0  0  0  0  0  0  0  0  0  0  0
    8.5712  -12.3868   16.0285 N   0  0  0  0  0  0  0  0  0  0  0  0
    6.9351  -17.1287   21.5285 C   0  0  0  0  0  0  0  0  0  0  0  0
    5.7527  -16.8316   21.9325 O   0  0  0  0  0  0  0  0  0  0  0  0
    7.8150  -17.5465   22.5298 N   0  0  0  0  0  0  0  0  0  0  0  0
    7.4756  -17.5360   23.9537 C   0  0  1  0  0  0  0  0  0  0  0  0
    7.8179  -18.9141   24.4673 C   0  0  0  0  0  0  0  0  0  0  0  0
    7.6827  -19.1107   25.9334 C   0  0  0  0  0  0  0  0  0  0  0  0
    8.0216  -20.5732   26.2942 C   0  0  0  0  0  0  0  0  0  0  0  0
    7.7079  -20.7855   27.7433 C   0  0  0  0  0  0  0  0  0  0  0  0
    8.0370  -22.1575   28.0829 N   0  0  0  0  0  0  0  0  0  0  0  0
    8.1394  -16.4347   24.6601 C   0  0  0  0  0  0  0  0  0  0  0  0
    9.3518  -16.1909   24.3255 O   0  0  0  0  0  0  0  0  0  0  0  0
    5.6946  -11.7607   26.1797 C   0  0  0  0  0  0  0  0  0  0  0  0
    6.6898  -12.7727   25.6737 C   0  0  0  0  0  0  0  0  0  0  0  0
    7.4618  -13.4472   26.7821 C   0  0  2  0  0  0  0  0  0  0  0  0
    8.3754  -12.4434   27.4592 C   0  0  0  0  0  0  0  0  0  0  0  0
    8.3270  -14.5798   26.2790 C   0  0  2  0  0  0  0  0  0  0  0  0
    7.5519  -15.6297   25.6658 N   0  0  0  0  0  0  0  0  0  0  0  0
    9.1126  -15.0915   27.4334 C   0  0  0  0  0  0  0  0  0  0  0  0
    8.8375  -16.1682   28.0136 O   0  0  0  0  0  0  0  0  0  0  0  0
   10.2007  -14.3817   27.9201 O   0  0  0  0  0  0  0  0  0  0  0  0
  2  1  1  6
  3  2  1  0
  3  4  1  0
  4  5  1  0
  5  6  1  0
  7  6  1  0
  8  9  2  0
  8  2  1  0
 10  8  1  0
 11 17  1  0
 11 10  1  0
 11 12  1  1
 13 12  1  0
 14 13  1  0
 15 14  1  0
 16 15  1  0
 17 24  1  0
 18 17  2  0
 19 20  1  0
 21 20  1  0
 21 22  1  6
 21 23  1  0
 23 25  1  0
 23 24  1  1
 25 26  2  0
 25 27  1  0
M  END
$$$$
