KKI.pdb
     RDKit          3D

 27 26  0  0  1  0  0  0  0  0999 V2000
    5.4528  -16.9507   19.9114 N   0  0  0  0  0  0  0  0  0  0  0  0
    6.4039  -16.2984   20.7296 C   0  0  1  0  0  0  0  0  0  0  0  0
    6.4659  -14.7992   20.5146 C   0  0  0  0  0  0  0  0  0  0  0  0
    7.1615  -14.3792   19.2713 C   0  0  0  0  0  0  0  0  0  0  0  0
    8.5087  -13.7696   19.4429 C   0  0  0  0  0  0  0  0  0  0  0  0
    9.1771  -13.4224   18.1305 C   0  0  0  0  0  0  0  0  0  0  0  0
   10.4567  -12.7710   18.3399 N   0  0  0  0  0  0  0  0  0  0  0  0
    6.3709  -16.6394   22.1706 C   0  0  0  0  0  0  0  0  0  0  0  0
    5.3847  -16.2070   22.8706 O   0  0  0  0  0  0  0  0  0  0  0  0
    7.3105  -17.3953   22.8757 N   0  0  0  0  0  0  0  0  0  0  0  0
    7.2681  -17.5792   24.3273 C   0  0  1  0  0  0  0  0  0  0  0  0
    7.7144  -19.0005   24.5741 C   0  0  0  0  0  0  0  0  0  0  0  0
    7.9013  -19.3826   25.9973 C   0  0  0  0  0  0  0  0  0  0  0  0
    8.4148  -20.8362   26.0811 C   0  0  0  0  0  0  0  0  0  0  0  0
    8.5882  -21.1918   27.5257 C   0  0  0  0  0  0  0  0  0  0  0  0
    8.8866  -22.6093   27.6117 N   0  0  0  0  0  0  0  0  0  0  0  0
    8.0566  -16.5577   25.0254 C   0  0  0  0  0  0  0  0  0  0  0  0
    9.2148  -16.3016   24.5415 O   0  0  0  0  0  0  0  0  0  0  0  0
    5.6470  -12.3903   27.1371 C   0  0  0  0  0  0  0  0  0  0  0  0
    6.8760  -12.9608   26.4780 C   0  0  0  0  0  0  0  0  0  0  0  0
    7.7512  -13.7378   27.4319 C   0  0  2  0  0  0  0  0  0  0  0  0
    8.7689  -12.8110   28.0693 C   0  0  0  0  0  0  0  0  0  0  0  0
    8.5155  -14.8459   26.7447 C   0  0  2  0  0  0  0  0  0  0  0  0
    7.6418  -15.8407   26.1738 N   0  0  0  0  0  0  0  0  0  0  0  0
    9.4354  -15.4457   27.7476 C   0  0  0  0  0  0  0  0  0  0  0  0
   10.5185  -14.9076   28.0777 O   0  0  0  0  0  0  0  0  0  0  0  0
    9.1221  -16.6469   28.3671 O   0  0  0  0  0  0  0  0  0  0  0  0
  2  1  1  6
  3  2  1  0
  3  4  1  0
  4  5  1  0
  5  6  1  0
  7  6  1  0
  8  9  2  0
  8  2  1  0
 10  8  1  0
 11 17  1  0
 11 10  1  0
 11 12  1  6
 13 12  1  0
 14 13  1  0
 15 14  1  0
 16 15  1  0
 17 24  1  0
 18 17  2  0
 19 20  1  0
 21 20  1  0
 21 22  1  6
 21 23  1  0
 23 25  1  0
 23 24  1  1
 25 26  2  0
 25 27  1  0
M  END
$$$$
