NSH.pdb
     RDKit          3D

 25 25  0  0  1  0  0  0  0  0999 V2000
    7.2698  -12.7487   14.9199 N   0  0  0  0  0  0  0  0  0  0  0  0
    7.3643  -13.9382   14.1524 C   0  0  0  0  0  0  0  0  0  0  0  0
    6.3257  -14.4791   13.7024 O   0  0  0  0  0  0  0  0  0  0  0  0
    8.7119  -14.5123   13.9049 C   0  0  0  0  0  0  0  0  0  0  0  0
    9.0062  -15.4255   15.0465 C   0  0  2  0  0  0  0  0  0  0  0  0
    7.9635  -16.4588   15.1428 N   0  0  0  0  0  0  0  0  0  0  0  0
    9.2743  -14.8009   16.3360 C   0  0  0  0  0  0  0  0  0  0  0  0
   10.3662  -14.1319   16.4322 O   0  0  0  0  0  0  0  0  0  0  0  0
    7.9183  -13.9690   20.9178 O   0  0  0  0  0  0  0  0  0  0  0  0
    7.6022  -14.6182   19.7151 C   0  0  0  0  0  0  0  0  0  0  0  0
    8.7996  -14.4953   18.7481 C   0  0  2  0  0  0  0  0  0  0  0  0
    8.3918  -14.9129   17.4301 N   0  0  0  0  0  0  0  0  0  0  0  0
    9.8729  -15.3123   19.3381 C   0  0  0  0  0  0  0  0  0  0  0  0
    9.8485  -16.5556   19.1644 O   0  0  0  0  0  0  0  0  0  0  0  0
   10.9218  -14.7312   20.0919 N   0  0  0  0  0  0  0  0  0  0  0  0
   12.0246  -15.4833   20.6765 C   0  0  1  0  0  0  0  0  0  0  0  0
   13.2132  -14.5623   20.7236 C   0  0  0  0  0  0  0  0  0  0  0  0
   13.9765  -14.5301   19.4575 C   0  0  0  0  0  0  0  0  0  0  0  0
   13.8417  -15.4368   18.4238 C   0  0  0  0  0  0  0  0  0  0  0  0
   14.7038  -15.0493   17.4693 N   0  0  0  0  0  0  0  0  0  0  0  0
   15.3595  -13.9526   17.8643 C   0  0  0  0  0  0  0  0  0  0  0  0
   14.9241  -13.6188   19.0871 N   0  0  0  0  0  0  0  0  0  0  0  0
   11.6941  -15.8673   22.0799 C   0  0  0  0  0  0  0  0  0  0  0  0
   10.4874  -15.5466   22.6718 O   0  0  0  0  0  0  0  0  0  0  0  0
   12.5638  -16.5055   22.7257 O   0  0  0  0  0  0  0  0  0  0  0  0
  1  2  1  0
  2  4  1  0
  3  2  2  0
  5  4  1  0
  5  7  1  0
  5  6  1  1
  7  8  2  0
 10  9  1  0
 11 10  1  1
 11 13  1  0
 12 11  1  0
 12  7  1  0
 13 15  1  0
 14 13  2  0
 15 16  1  0
 16 23  1  0
 16 17  1  1
 18 17  1  0
 19 18  2  0
 20 19  1  0
 21 20  1  0
 21 22  2  0
 22 18  1  0
 23 25  2  0
 23 24  1  0
M  END
$$$$
