NSH.pdb
     RDKit          3D

 25 25  0  0  1  0  0  0  0  0999 V2000
    5.2586  -18.3661   15.4724 N   0  0  0  0  0  0  0  0  0  0  0  0
    5.9759  -19.5898   15.4438 C   0  0  0  0  0  0  0  0  0  0  0  0
    6.3917  -20.0484   14.3527 O   0  0  0  0  0  0  0  0  0  0  0  0
    6.2129  -20.2981   16.7279 C   0  0  0  0  0  0  0  0  0  0  0  0
    5.5417  -19.4963   17.7912 C   0  0  2  0  0  0  0  0  0  0  0  0
    6.1037  -18.1372   17.8233 N   0  0  0  0  0  0  0  0  0  0  0  0
    5.4774  -20.0904   19.1207 C   0  0  0  0  0  0  0  0  0  0  0  0
    5.1187  -21.3220   19.1809 O   0  0  0  0  0  0  0  0  0  0  0  0
    5.7805  -17.8145   22.5857 O   0  0  0  0  0  0  0  0  0  0  0  0
    6.3818  -19.0810   22.6352 C   0  0  0  0  0  0  0  0  0  0  0  0
    5.7146  -19.9951   21.5848 C   0  0  2  0  0  0  0  0  0  0  0  0
    5.7911  -19.3669   20.2897 N   0  0  0  0  0  0  0  0  0  0  0  0
    4.3428  -20.2219   22.0688 C   0  0  0  0  0  0  0  0  0  0  0  0
    3.4917  -19.3116   21.9156 O   0  0  0  0  0  0  0  0  0  0  0  0
    3.9666  -21.4333   22.6990 N   0  0  0  0  0  0  0  0  0  0  0  0
    2.6402  -21.6967   23.2420 C   0  0  1  0  0  0  0  0  0  0  0  0
    1.6842  -21.7273   22.0809 C   0  0  0  0  0  0  0  0  0  0  0  0
    1.9422  -22.8405   21.1423 C   0  0  0  0  0  0  0  0  0  0  0  0
    2.9685  -23.7581   21.2589 C   0  0  0  0  0  0  0  0  0  0  0  0
    2.8443  -24.5953   20.2158 N   0  0  0  0  0  0  0  0  0  0  0  0
    1.7957  -24.2385   19.4663 C   0  0  0  0  0  0  0  0  0  0  0  0
    1.2282  -23.1591   20.0223 N   0  0  0  0  0  0  0  0  0  0  0  0
    2.6103  -23.0413   23.8881 C   0  0  0  0  0  0  0  0  0  0  0  0
    1.4777  -23.5458   24.4980 O   0  0  0  0  0  0  0  0  0  0  0  0
    3.6687  -23.7195   23.8629 O   0  0  0  0  0  0  0  0  0  0  0  0
  1  2  1  0
  2  4  1  0
  3  2  2  0
  5  4  1  0
  5  7  1  0
  5  6  1  1
  7  8  2  0
 10  9  1  0
 11 10  1  1
 11 13  1  0
 12 11  1  0
 12  7  1  0
 13 15  1  0
 14 13  2  0
 15 16  1  0
 16 23  1  0
 16 17  1  6
 18 17  1  0
 19 18  2  0
 20 19  1  0
 21 20  1  0
 21 22  2  0
 22 18  1  0
 23 25  2  0
 23 24  1  0
M  END
$$$$
