NSH.pdb
     RDKit          3D

 25 25  0  0  1  0  0  0  0  0999 V2000
    6.4257  -20.3958   18.3584 N   0  0  0  0  0  0  0  0  0  0  0  0
    7.3595  -19.9735   19.3396 C   0  0  0  0  0  0  0  0  0  0  0  0
    7.8830  -20.8133   20.1106 O   0  0  0  0  0  0  0  0  0  0  0  0
    7.6899  -18.5276   19.4221 C   0  0  0  0  0  0  0  0  0  0  0  0
    8.6210  -18.3647   20.5756 C   0  0  2  0  0  0  0  0  0  0  0  0
    8.1770  -19.2033   21.6997 N   0  0  0  0  0  0  0  0  0  0  0  0
    8.9138  -17.0003   20.9968 C   0  0  0  0  0  0  0  0  0  0  0  0
   10.1155  -16.5884   20.8085 O   0  0  0  0  0  0  0  0  0  0  0  0
    5.9683  -14.7016   22.6364 O   0  0  0  0  0  0  0  0  0  0  0  0
    6.9706  -13.9658   21.9868 C   0  0  0  0  0  0  0  0  0  0  0  0
    8.2651  -14.8065   21.9471 C   0  0  2  0  0  0  0  0  0  0  0  0
    7.9411  -16.1621   21.5796 N   0  0  0  0  0  0  0  0  0  0  0  0
    8.8704  -14.6682   23.2820 C   0  0  0  0  0  0  0  0  0  0  0  0
    9.3320  -13.5509   23.6215 O   0  0  0  0  0  0  0  0  0  0  0  0
    8.9438  -15.7589   24.1826 N   0  0  0  0  0  0  0  0  0  0  0  0
    9.6262  -15.7143   25.4695 C   0  0  1  0  0  0  0  0  0  0  0  0
    8.5634  -15.6557   26.5326 C   0  0  0  0  0  0  0  0  0  0  0  0
    7.8258  -14.3741   26.5498 C   0  0  0  0  0  0  0  0  0  0  0  0
    8.2324  -13.2308   27.2103 C   0  0  0  0  0  0  0  0  0  0  0  0
    7.2916  -12.3027   26.9690 N   0  0  0  0  0  0  0  0  0  0  0  0
    6.3301  -12.8179   26.1953 C   0  0  0  0  0  0  0  0  0  0  0  0
    6.6428  -14.0933   25.9274 N   0  0  0  0  0  0  0  0  0  0  0  0
   10.4060  -16.9690   25.6782 C   0  0  0  0  0  0  0  0  0  0  0  0
   10.3991  -18.0068   24.7660 O   0  0  0  0  0  0  0  0  0  0  0  0
   11.0858  -17.0596   26.7321 O   0  0  0  0  0  0  0  0  0  0  0  0
  1  2  1  0
  2  4  1  0
  3  2  2  0
  5  4  1  0
  5  7  1  0
  5  6  1  1
  7  8  2  0
 10  9  1  0
 11 10  1  1
 11 13  1  0
 12 11  1  0
 12  7  1  0
 13 15  1  0
 14 13  2  0
 15 16  1  0
 16 23  1  0
 16 17  1  1
 18 17  1  0
 19 18  2  0
 20 19  1  0
 21 20  1  0
 21 22  2  0
 22 18  1  0
 23 25  2  0
 23 24  1  0
M  END
$$$$
