NSH.pdb
     RDKit          3D

 25 25  0  0  1  0  0  0  0  0999 V2000
    5.3484  -23.9771   18.4265 N   0  0  0  0  0  0  0  0  0  0  0  0
    5.1836  -23.2093   19.6081 C   0  0  0  0  0  0  0  0  0  0  0  0
    4.0475  -22.7834   19.9268 O   0  0  0  0  0  0  0  0  0  0  0  0
    6.3821  -22.9308   20.4406 C   0  0  0  0  0  0  0  0  0  0  0  0
    6.2873  -21.5048   20.8667 C   0  0  2  0  0  0  0  0  0  0  0  0
    6.2573  -20.6299   19.6844 N   0  0  0  0  0  0  0  0  0  0  0  0
    7.2549  -21.0487   21.8569 C   0  0  0  0  0  0  0  0  0  0  0  0
    8.3274  -21.7456   21.9728 O   0  0  0  0  0  0  0  0  0  0  0  0
    6.4046  -17.8380   24.2405 O   0  0  0  0  0  0  0  0  0  0  0  0
    7.7736  -17.9965   23.9785 C   0  0  0  0  0  0  0  0  0  0  0  0
    8.0442  -19.4668   23.5923 C   0  0  2  0  0  0  0  0  0  0  0  0
    7.0424  -19.9041   22.6526 N   0  0  0  0  0  0  0  0  0  0  0  0
    8.0547  -20.2156   24.8598 C   0  0  0  0  0  0  0  0  0  0  0  0
    6.9618  -20.6107   25.3354 O   0  0  0  0  0  0  0  0  0  0  0  0
    9.2601  -20.4959   25.5488 N   0  0  0  0  0  0  0  0  0  0  0  0
    9.3411  -21.2885   26.7689 C   0  0  1  0  0  0  0  0  0  0  0  0
   10.3920  -22.3414   26.5443 C   0  0  0  0  0  0  0  0  0  0  0  0
    9.9390  -23.4387   25.6626 C   0  0  0  0  0  0  0  0  0  0  0  0
    8.6557  -23.5881   25.1733 C   0  0  0  0  0  0  0  0  0  0  0  0
    8.6688  -24.6980   24.4166 N   0  0  0  0  0  0  0  0  0  0  0  0
    9.8932  -25.2361   24.4168 C   0  0  0  0  0  0  0  0  0  0  0  0
   10.6886  -24.4733   25.1796 N   0  0  0  0  0  0  0  0  0  0  0  0
    9.7931  -20.4334   27.9049 C   0  0  0  0  0  0  0  0  0  0  0  0
    9.7188  -20.8483   29.2207 O   0  0  0  0  0  0  0  0  0  0  0  0
   10.2541  -19.2972   27.6266 O   0  0  0  0  0  0  0  0  0  0  0  0
  1  2  1  0
  2  4  1  0
  3  2  2  0
  5  4  1  0
  5  7  1  0
  5  6  1  6
  7  8  2  0
 10  9  1  0
 11 10  1  1
 11 13  1  0
 12 11  1  0
 12  7  1  0
 13 15  1  0
 14 13  2  0
 15 16  1  0
 16 23  1  0
 16 17  1  6
 18 17  1  0
 19 18  2  0
 20 19  1  0
 21 20  1  0
 21 22  2  0
 22 18  1  0
 23 25  2  0
 23 24  1  0
M  END
$$$$
