NSH.pdb
     RDKit          3D

 25 25  0  0  1  0  0  0  0  0999 V2000
   10.5670  -16.0579   11.5080 N   0  0  0  0  0  0  0  0  0  0  0  0
   11.6446  -16.0597   12.4309 C   0  0  0  0  0  0  0  0  0  0  0  0
   12.6258  -16.8200   12.2489 O   0  0  0  0  0  0  0  0  0  0  0  0
   11.5723  -15.1470   13.6007 C   0  0  0  0  0  0  0  0  0  0  0  0
   11.6010  -16.0068   14.8189 C   0  0  2  0  0  0  0  0  0  0  0  0
   10.4096  -16.8691   14.8513 N   0  0  0  0  0  0  0  0  0  0  0  0
   11.8210  -15.3343   16.0933 C   0  0  0  0  0  0  0  0  0  0  0  0
   12.9194  -14.6798   16.2133 O   0  0  0  0  0  0  0  0  0  0  0  0
    9.3939  -16.0277   19.3845 O   0  0  0  0  0  0  0  0  0  0  0  0
    9.8754  -14.7160   19.2600 C   0  0  0  0  0  0  0  0  0  0  0  0
   11.1600  -14.7317   18.4035 C   0  0  2  0  0  0  0  0  0  0  0  0
   10.8874  -15.3868   17.1488 N   0  0  0  0  0  0  0  0  0  0  0  0
   12.1798  -15.4007   19.2280 C   0  0  0  0  0  0  0  0  0  0  0  0
   12.3025  -16.6473   19.1406 O   0  0  0  0  0  0  0  0  0  0  0  0
   13.0166  -14.6751   20.1108 N   0  0  0  0  0  0  0  0  0  0  0  0
   14.0041  -15.2860   20.9913 C   0  0  1  0  0  0  0  0  0  0  0  0
   15.0787  -14.2607   21.2307 C   0  0  0  0  0  0  0  0  0  0  0  0
   15.9392  -14.0313   20.0501 C   0  0  0  0  0  0  0  0  0  0  0  0
   15.8646  -14.7334   18.8626 C   0  0  0  0  0  0  0  0  0  0  0  0
   16.8075  -14.2139   18.0591 N   0  0  0  0  0  0  0  0  0  0  0  0
   17.4555  -13.2303   18.6924 C   0  0  0  0  0  0  0  0  0  0  0  0
   16.9337  -13.1041   19.9204 N   0  0  0  0  0  0  0  0  0  0  0  0
   13.3839  -15.6074   22.3096 C   0  0  0  0  0  0  0  0  0  0  0  0
   12.0783  -15.2746   22.6158 O   0  0  0  0  0  0  0  0  0  0  0  0
   14.0982  -16.2032   23.1557 O   0  0  0  0  0  0  0  0  0  0  0  0
  1  2  1  0
  2  4  1  0
  3  2  2  0
  5  4  1  0
  5  7  1  0
  5  6  1  1
  7  8  2  0
 10  9  1  0
 11 10  1  1
 11 13  1  0
 12 11  1  0
 12  7  1  0
 13 15  1  0
 14 13  2  0
 15 16  1  0
 16 23  1  0
 16 17  1  1
 18 17  1  0
 19 18  2  0
 20 19  1  0
 21 20  1  0
 21 22  2  0
 22 18  1  0
 23 25  2  0
 23 24  1  0
M  END
$$$$
