NSH.pdb
     RDKit          3D

 25 25  0  0  1  0  0  0  0  0999 V2000
    9.7110  -13.1549   11.2640 N   0  0  0  0  0  0  0  0  0  0  0  0
    9.3425  -14.4013   11.8327 C   0  0  0  0  0  0  0  0  0  0  0  0
    8.1754  -14.8376   11.6864 O   0  0  0  0  0  0  0  0  0  0  0  0
   10.3678  -15.1589   12.5952 C   0  0  0  0  0  0  0  0  0  0  0  0
    9.7438  -15.5370   13.8958 C   0  0  2  0  0  0  0  0  0  0  0  0
    8.2808  -15.4128   13.8041 N   0  0  0  0  0  0  0  0  0  0  0  0
   10.2712  -14.8902   15.0909 C   0  0  0  0  0  0  0  0  0  0  0  0
   11.5495  -14.8635   15.2107 O   0  0  0  0  0  0  0  0  0  0  0  0
    7.8818  -14.6728   18.4478 O   0  0  0  0  0  0  0  0  0  0  0  0
    8.7748  -13.6004   18.3042 C   0  0  0  0  0  0  0  0  0  0  0  0
    9.9425  -14.0375   17.3935 C   0  0  2  0  0  0  0  0  0  0  0  0
    9.4372  -14.3169   16.0727 N   0  0  0  0  0  0  0  0  0  0  0  0
   10.5587  -15.1942   18.0642 C   0  0  0  0  0  0  0  0  0  0  0  0
   10.8108  -16.2202   17.3858 O   0  0  0  0  0  0  0  0  0  0  0  0
   10.8688  -15.1750   19.4461 N   0  0  0  0  0  0  0  0  0  0  0  0
   12.2172  -15.2980   19.9849 C   0  0  1  0  0  0  0  0  0  0  0  0
   12.9654  -14.0524   19.5950 C   0  0  0  0  0  0  0  0  0  0  0  0
   14.0912  -14.3132   18.6724 C   0  0  0  0  0  0  0  0  0  0  0  0
   14.3990  -15.5414   18.1196 C   0  0  0  0  0  0  0  0  0  0  0  0
   15.4778  -15.3446   17.3437 N   0  0  0  0  0  0  0  0  0  0  0  0
   15.8469  -14.0601   17.3924 C   0  0  0  0  0  0  0  0  0  0  0  0
   15.0038  -13.4099   18.2064 N   0  0  0  0  0  0  0  0  0  0  0  0
   12.1694  -15.3491   21.4752 C   0  0  0  0  0  0  0  0  0  0  0  0
   13.0846  -16.0656   22.2224 O   0  0  0  0  0  0  0  0  0  0  0  0
   11.2517  -14.7077   22.0474 O   0  0  0  0  0  0  0  0  0  0  0  0
  1  2  1  0
  2  4  1  0
  3  2  2  0
  5  4  1  0
  5  7  1  0
  5  6  1  6
  7  8  2  0
 10  9  1  0
 11 10  1  1
 11 13  1  0
 12 11  1  0
 12  7  1  0
 13 15  1  0
 14 13  2  0
 15 16  1  0
 16 23  1  0
 16 17  1  1
 18 17  1  0
 19 18  2  0
 20 19  1  0
 21 20  1  0
 21 22  2  0
 22 18  1  0
 23 25  2  0
 23 24  1  0
M  END
$$$$
