DPR.pdb
     RDKit          3D

 27 27  0  0  1  0  0  0  0  0999 V2000
   29.3210  -22.8705  -17.2215 N   0  0  0  0  0  0  0  0  0  0  0  0
   28.4626  -21.7660  -17.4981 C   0  0  1  0  0  0  0  0  0  0  0  0
   27.5893  -22.1069  -18.6891 C   0  0  0  0  0  0  0  0  0  0  0  0
   28.3450  -22.3589  -19.9163 C   0  0  0  0  0  0  0  0  0  0  0  0
   28.0064  -23.2700  -20.6880 O   0  0  0  0  0  0  0  0  0  0  0  0
   27.6872  -21.2474  -16.3695 C   0  0  0  0  0  0  0  0  0  0  0  0
   27.0852  -22.0690  -15.6455 O   0  0  0  0  0  0  0  0  0  0  0  0
   29.4553  -21.6071  -20.2712 O   0  0  0  0  0  0  0  0  0  0  0  0
   27.5779  -19.8492  -16.0485 N   0  0  0  0  0  0  0  0  0  0  0  0
   28.3320  -18.8581  -16.7435 C   0  0  0  0  0  0  0  0  0  0  0  0
   27.9996  -17.5547  -16.0692 C   0  0  0  0  0  0  0  0  0  0  0  0
   26.6883  -17.7863  -15.3873 C   0  0  0  0  0  0  0  0  0  0  0  0
   26.7796  -19.2463  -15.0356 C   0  0  1  0  0  0  0  0  0  0  0  0
   25.3784  -19.7633  -14.9702 C   0  0  0  0  0  0  0  0  0  0  0  0
   24.7746  -19.9459  -16.0469 O   0  0  0  0  0  0  0  0  0  0  0  0
   22.0001  -21.7055   -7.2843 N   0  0  0  0  0  0  0  0  0  0  0  0
   21.1777  -21.7531   -8.4292 C   0  0  0  0  0  0  0  0  0  0  0  0
   19.9771  -22.2647   -8.3534 N   0  0  0  0  0  0  0  0  0  0  0  0
   21.6253  -21.2539   -9.6818 N   0  0  0  0  0  0  0  0  0  0  0  0
   22.9380  -20.6595   -9.8270 C   0  0  0  0  0  0  0  0  0  0  0  0
   23.0556  -20.0908  -11.2012 C   0  0  0  0  0  0  0  0  0  0  0  0
   23.1997  -21.1049  -12.2880 C   0  0  0  0  0  0  0  0  0  0  0  0
   23.3519  -20.5300  -13.6652 C   0  0  2  0  0  0  0  0  0  0  0  0
   24.7191  -20.0495  -13.7675 N   0  0  0  0  0  0  0  0  0  0  0  0
   22.4446  -19.3916  -13.9324 C   0  0  0  0  0  0  0  0  0  0  0  0
   22.9440  -18.2268  -13.7936 O   0  0  0  0  0  0  0  0  0  0  0  0
   21.1173  -19.5319  -14.3148 O   0  0  0  0  0  0  0  0  0  0  0  0
  2  1  1  1
  2  3  1  0
  3  4  1  0
  4  8  1  0
  5  4  2  0
  6  2  1  0
  7  6  2  0
  9 13  1  0
  9  6  1  0
 10  9  1  0
 11 10  1  0
 11 12  1  0
 12 13  1  0
 14 15  2  0
 13 14  1  6
 16 17  1  0
 17 18  2  0
 19 17  1  0
 19 20  1  0
 21 20  1  0
 21 22  1  0
 23 22  1  1
 23 24  1  0
 23 25  1  0
 24 14  1  0
 25 27  1  0
 26 25  2  0
M  END
$$$$
