DPR.pdb
     RDKit          3D

 27 27  0  0  1  0  0  0  0  0999 V2000
   28.3437  -22.3881  -16.2517 N   0  0  0  0  0  0  0  0  0  0  0  0
   27.9369  -21.0615  -16.5803 C   0  0  1  0  0  0  0  0  0  0  0  0
   27.8075  -20.9444  -18.0859 C   0  0  0  0  0  0  0  0  0  0  0  0
   29.0602  -21.1869  -18.8019 C   0  0  0  0  0  0  0  0  0  0  0  0
   29.2066  -22.2134  -19.4840 O   0  0  0  0  0  0  0  0  0  0  0  0
   26.7574  -20.5512  -15.8788 C   0  0  0  0  0  0  0  0  0  0  0  0
   25.8355  -21.3547  -15.6215 O   0  0  0  0  0  0  0  0  0  0  0  0
   30.1250  -20.2993  -18.7550 O   0  0  0  0  0  0  0  0  0  0  0  0
   26.5989  -19.1805  -15.4715 N   0  0  0  0  0  0  0  0  0  0  0  0
   27.6736  -18.2459  -15.5460 C   0  0  0  0  0  0  0  0  0  0  0  0
   27.1350  -16.9673  -14.9639 C   0  0  0  0  0  0  0  0  0  0  0  0
   25.6474  -17.0767  -15.0801 C   0  0  0  0  0  0  0  0  0  0  0  0
   25.4369  -18.5590  -14.9326 C   0  0  1  0  0  0  0  0  0  0  0  0
   24.1722  -18.8900  -15.6577 C   0  0  0  0  0  0  0  0  0  0  0  0
   24.2286  -19.0171  -16.8979 O   0  0  0  0  0  0  0  0  0  0  0  0
   18.1951  -24.3001  -13.3666 N   0  0  0  0  0  0  0  0  0  0  0  0
   18.6633  -23.4864  -12.3141 C   0  0  0  0  0  0  0  0  0  0  0  0
   18.0062  -23.4317  -11.1853 N   0  0  0  0  0  0  0  0  0  0  0  0
   19.8466  -22.7117  -12.4491 N   0  0  0  0  0  0  0  0  0  0  0  0
   20.5522  -22.6334  -13.7115 C   0  0  0  0  0  0  0  0  0  0  0  0
   20.7634  -21.1964  -14.0524 C   0  0  0  0  0  0  0  0  0  0  0  0
   21.5474  -20.9580  -15.3009 C   0  0  0  0  0  0  0  0  0  0  0  0
   21.7209  -19.5133  -15.6656 C   0  0  2  0  0  0  0  0  0  0  0  0
   22.9392  -19.0626  -15.0151 N   0  0  0  0  0  0  0  0  0  0  0  0
   20.6093  -18.6515  -15.2048 C   0  0  0  0  0  0  0  0  0  0  0  0
   19.5897  -18.5890  -15.9677 O   0  0  0  0  0  0  0  0  0  0  0  0
   20.6275  -17.9320  -14.0176 O   0  0  0  0  0  0  0  0  0  0  0  0
  2  1  1  6
  2  3  1  0
  3  4  1  0
  4  8  1  0
  5  4  2  0
  6  2  1  0
  7  6  2  0
  9 13  1  0
  9  6  1  0
 10  9  1  0
 11 10  1  0
 11 12  1  0
 12 13  1  0
 14 15  2  0
 13 14  1  6
 16 17  1  0
 17 18  2  0
 19 17  1  0
 19 20  1  0
 21 20  1  0
 21 22  1  0
 23 22  1  1
 23 24  1  0
 23 25  1  0
 24 14  1  0
 25 27  1  0
 26 25  2  0
M  END
$$$$
