DPR.pdb
     RDKit          3D

 27 27  0  0  1  0  0  0  0  0999 V2000
   22.2470  -20.0718  -14.4059 N   0  0  0  0  0  0  0  0  0  0  0  0
   23.5154  -20.3626  -13.8229 C   0  0  1  0  0  0  0  0  0  0  0  0
   23.3584  -21.5147  -12.8506 C   0  0  0  0  0  0  0  0  0  0  0  0
   22.3828  -21.2577  -11.7908 C   0  0  0  0  0  0  0  0  0  0  0  0
   22.5124  -20.2778  -11.0403 O   0  0  0  0  0  0  0  0  0  0  0  0
   24.6266  -20.5675  -14.7540 C   0  0  0  0  0  0  0  0  0  0  0  0
   24.5209  -21.4807  -15.6004 O   0  0  0  0  0  0  0  0  0  0  0  0
   21.2865  -22.0800  -11.5767 O   0  0  0  0  0  0  0  0  0  0  0  0
   25.8310  -19.7805  -14.7488 N   0  0  0  0  0  0  0  0  0  0  0  0
   25.9667  -18.6209  -13.9296 C   0  0  0  0  0  0  0  0  0  0  0  0
   27.3159  -18.0468  -14.2667 C   0  0  0  0  0  0  0  0  0  0  0  0
   28.0929  -19.1828  -14.8531 C   0  0  0  0  0  0  0  0  0  0  0  0
   27.0085  -19.9819  -15.5232 C   0  0  1  0  0  0  0  0  0  0  0  0
   27.4798  -21.4000  -15.5649 C   0  0  0  0  0  0  0  0  0  0  0  0
   27.4588  -22.0518  -14.5009 O   0  0  0  0  0  0  0  0  0  0  0  0
   24.2718  -27.3613  -15.6401 N   0  0  0  0  0  0  0  0  0  0  0  0
   24.2877  -26.7016  -16.8866 C   0  0  0  0  0  0  0  0  0  0  0  0
   23.2476  -26.7657  -17.6759 N   0  0  0  0  0  0  0  0  0  0  0  0
   25.4205  -25.9588  -17.3152 N   0  0  0  0  0  0  0  0  0  0  0  0
   26.7440  -26.5472  -17.3243 C   0  0  0  0  0  0  0  0  0  0  0  0
   27.6990  -25.5659  -17.9165 C   0  0  0  0  0  0  0  0  0  0  0  0
   27.3713  -24.1337  -17.6484 C   0  0  0  0  0  0  0  0  0  0  0  0
   28.3832  -23.4051  -16.8144 C   0  0  2  0  0  0  0  0  0  0  0  0
   27.9391  -22.0243  -16.7322 N   0  0  0  0  0  0  0  0  0  0  0  0
   29.7440  -23.4152  -17.3963 C   0  0  0  0  0  0  0  0  0  0  0  0
   29.9524  -22.6061  -18.3593 O   0  0  0  0  0  0  0  0  0  0  0  0
   30.7697  -24.2399  -16.9541 O   0  0  0  0  0  0  0  0  0  0  0  0
  2  1  1  6
  2  3  1  0
  3  4  1  0
  4  8  1  0
  5  4  2  0
  6  2  1  0
  7  6  2  0
  9 13  1  0
  9  6  1  0
 10  9  1  0
 11 10  1  0
 11 12  1  0
 12 13  1  0
 14 15  2  0
 13 14  1  1
 16 17  1  0
 17 18  2  0
 19 17  1  0
 19 20  1  0
 21 20  1  0
 21 22  1  0
 23 22  1  6
 23 24  1  0
 23 25  1  0
 24 14  1  0
 25 27  1  0
 26 25  2  0
M  END
$$$$
