DPR.pdb
     RDKit          3D

 27 27  0  0  1  0  0  0  0  0999 V2000
   27.4657  -21.8517  -15.8488 N   0  0  0  0  0  0  0  0  0  0  0  0
   26.9043  -20.8522  -15.0009 C   0  0  1  0  0  0  0  0  0  0  0  0
   26.6113  -19.6144  -15.8252 C   0  0  0  0  0  0  0  0  0  0  0  0
   27.7931  -19.0548  -16.4816 C   0  0  0  0  0  0  0  0  0  0  0  0
   28.8009  -18.7611  -15.8195 O   0  0  0  0  0  0  0  0  0  0  0  0
   25.7598  -21.2610  -14.1844 C   0  0  0  0  0  0  0  0  0  0  0  0
   24.7588  -21.7265  -14.7700 O   0  0  0  0  0  0  0  0  0  0  0  0
   27.8449  -18.8293  -17.8493 O   0  0  0  0  0  0  0  0  0  0  0  0
   25.7214  -21.1561  -12.7500 N   0  0  0  0  0  0  0  0  0  0  0  0
   26.8930  -20.8778  -11.9859 C   0  0  0  0  0  0  0  0  0  0  0  0
   26.4554  -20.9283  -10.5472 C   0  0  0  0  0  0  0  0  0  0  0  0
   24.9767  -20.7034  -10.5764 C   0  0  0  0  0  0  0  0  0  0  0  0
   24.5980  -21.3266  -11.8923 C   0  0  1  0  0  0  0  0  0  0  0  0
   23.3592  -20.6319  -12.3588 C   0  0  0  0  0  0  0  0  0  0  0  0
   23.4631  -19.4463  -12.7339 O   0  0  0  0  0  0  0  0  0  0  0  0
   16.9048  -19.6513  -14.9997 N   0  0  0  0  0  0  0  0  0  0  0  0
   17.2494  -19.4061  -16.3452 C   0  0  0  0  0  0  0  0  0  0  0  0
   16.3402  -19.4901  -17.2808 N   0  0  0  0  0  0  0  0  0  0  0  0
   18.5777  -19.0662  -16.7177 N   0  0  0  0  0  0  0  0  0  0  0  0
   19.6474  -19.0405  -15.7417 C   0  0  0  0  0  0  0  0  0  0  0  0
   19.9207  -20.4377  -15.2956 C   0  0  0  0  0  0  0  0  0  0  0  0
   21.1526  -20.6006  -14.4673 C   0  0  0  0  0  0  0  0  0  0  0  0
   20.9096  -20.6614  -12.9882 C   0  0  2  0  0  0  0  0  0  0  0  0
   22.0998  -21.2450  -12.3939 N   0  0  0  0  0  0  0  0  0  0  0  0
   19.7509  -21.5033  -12.6154 C   0  0  0  0  0  0  0  0  0  0  0  0
   18.6789  -20.8849  -12.3089 O   0  0  0  0  0  0  0  0  0  0  0  0
   19.7791  -22.8911  -12.5856 O   0  0  0  0  0  0  0  0  0  0  0  0
  2  1  1  6
  2  3  1  0
  3  4  1  0
  4  8  1  0
  5  4  2  0
  6  2  1  0
  7  6  2  0
  9 13  1  0
  9  6  1  0
 10  9  1  0
 11 10  1  0
 11 12  1  0
 12 13  1  0
 14 15  2  0
 13 14  1  6
 16 17  1  0
 17 18  2  0
 19 17  1  0
 19 20  1  0
 21 20  1  0
 21 22  1  0
 23 22  1  6
 23 24  1  0
 23 25  1  0
 24 14  1  0
 25 27  1  0
 26 25  2  0
M  END
$$$$
