DPR.pdb
     RDKit          3D

 27 27  0  0  1  0  0  0  0  0999 V2000
   27.7224  -20.6778  -18.5858 N   0  0  0  0  0  0  0  0  0  0  0  0
   26.8603  -19.5742  -18.3171 C   0  0  1  0  0  0  0  0  0  0  0  0
   25.9128  -19.3930  -19.4862 C   0  0  0  0  0  0  0  0  0  0  0  0
   26.5864  -19.0438  -20.7372 C   0  0  0  0  0  0  0  0  0  0  0  0
   27.4070  -18.1133  -20.7715 O   0  0  0  0  0  0  0  0  0  0  0  0
   26.1603  -19.5948  -17.0313 C   0  0  0  0  0  0  0  0  0  0  0  0
   25.6377  -20.6696  -16.6658 O   0  0  0  0  0  0  0  0  0  0  0  0
   26.3463  -19.7217  -21.9232 O   0  0  0  0  0  0  0  0  0  0  0  0
   26.0387  -18.4507  -16.1676 N   0  0  0  0  0  0  0  0  0  0  0  0
   26.7576  -17.2439  -16.4142 C   0  0  0  0  0  0  0  0  0  0  0  0
   26.4246  -16.3355  -15.2619 C   0  0  0  0  0  0  0  0  0  0  0  0
   25.1368  -16.8572  -14.7075 C   0  0  0  0  0  0  0  0  0  0  0  0
   25.2602  -18.3314  -14.9816 C   0  0  1  0  0  0  0  0  0  0  0  0
   23.8695  -18.8660  -15.1045 C   0  0  0  0  0  0  0  0  0  0  0  0
   23.2820  -18.7142  -16.1949 O   0  0  0  0  0  0  0  0  0  0  0  0
   18.9865  -23.9979   -9.4799 N   0  0  0  0  0  0  0  0  0  0  0  0
   18.2605  -23.7908  -10.6712 C   0  0  0  0  0  0  0  0  0  0  0  0
   17.1489  -24.4451  -10.8839 N   0  0  0  0  0  0  0  0  0  0  0  0
   18.7112  -22.8777  -11.6621 N   0  0  0  0  0  0  0  0  0  0  0  0
   20.0212  -22.2658  -11.5782 C   0  0  0  0  0  0  0  0  0  0  0  0
   20.2656  -21.4874  -12.8273 C   0  0  0  0  0  0  0  0  0  0  0  0
   21.6308  -20.8918  -12.9365 C   0  0  0  0  0  0  0  0  0  0  0  0
   21.8309  -19.9972  -14.1239 C   0  0  2  0  0  0  0  0  0  0  0  0
   23.2027  -19.5231  -14.0621 N   0  0  0  0  0  0  0  0  0  0  0  0
   20.9376  -18.8171  -14.1300 C   0  0  0  0  0  0  0  0  0  0  0  0
   19.8827  -18.9110  -14.8397 O   0  0  0  0  0  0  0  0  0  0  0  0
   21.1898  -17.6508  -13.4201 O   0  0  0  0  0  0  0  0  0  0  0  0
  2  1  1  6
  2  3  1  0
  3  4  1  0
  4  8  1  0
  5  4  2  0
  6  2  1  0
  7  6  2  0
  9 13  1  0
  9  6  1  0
 10  9  1  0
 11 10  1  0
 11 12  1  0
 12 13  1  0
 14 15  2  0
 13 14  1  6
 16 17  1  0
 17 18  2  0
 19 17  1  0
 19 20  1  0
 21 20  1  0
 21 22  1  0
 23 22  1  1
 23 24  1  0
 23 25  1  0
 24 14  1  0
 25 27  1  0
 26 25  2  0
M  END
$$$$
