DPR.pdb
     RDKit          3D

 27 27  0  0  1  0  0  0  0  0999 V2000
   25.1815  -20.2551  -18.7107 N   0  0  0  0  0  0  0  0  0  0  0  0
   25.3907  -19.3585  -17.6218 C   0  0  1  0  0  0  0  0  0  0  0  0
   24.2590  -18.3507  -17.5889 C   0  0  0  0  0  0  0  0  0  0  0  0
   24.3076  -17.3798  -18.6824 C   0  0  0  0  0  0  0  0  0  0  0  0
   25.2617  -17.3732  -19.4761 O   0  0  0  0  0  0  0  0  0  0  0  0
   25.6294  -19.9703  -16.3132 C   0  0  0  0  0  0  0  0  0  0  0  0
   24.7597  -20.7456  -15.8615 O   0  0  0  0  0  0  0  0  0  0  0  0
   23.3097  -16.4373  -18.8824 O   0  0  0  0  0  0  0  0  0  0  0  0
   26.8046  -19.7290  -15.5191 N   0  0  0  0  0  0  0  0  0  0  0  0
   27.9432  -19.0530  -16.0490 C   0  0  0  0  0  0  0  0  0  0  0  0
   28.9693  -19.0718  -14.9487 C   0  0  0  0  0  0  0  0  0  0  0  0
   28.1916  -19.2764  -13.6872 C   0  0  0  0  0  0  0  0  0  0  0  0
   27.0407  -20.1167  -14.1698 C   0  0  1  0  0  0  0  0  0  0  0  0
   25.8954  -19.8520  -13.2462 C   0  0  0  0  0  0  0  0  0  0  0  0
   25.1164  -18.9215  -13.5370 O   0  0  0  0  0  0  0  0  0  0  0  0
   18.5668  -23.2536  -12.2323 N   0  0  0  0  0  0  0  0  0  0  0  0
   18.5653  -22.1934  -11.3021 C   0  0  0  0  0  0  0  0  0  0  0  0
   17.4642  -21.8730  -10.6746 N   0  0  0  0  0  0  0  0  0  0  0  0
   19.7452  -21.4520  -11.0247 N   0  0  0  0  0  0  0  0  0  0  0  0
   21.0088  -21.7928  -11.6451 C   0  0  0  0  0  0  0  0  0  0  0  0
   21.9868  -20.7008  -11.3681 C   0  0  0  0  0  0  0  0  0  0  0  0
   23.3043  -20.8515  -12.0550 C   0  0  0  0  0  0  0  0  0  0  0  0
   24.4907  -20.4500  -11.2295 C   0  0  2  0  0  0  0  0  0  0  0  0
   25.6589  -20.5936  -12.0812 N   0  0  0  0  0  0  0  0  0  0  0  0
   24.6894  -21.2968  -10.0320 C   0  0  0  0  0  0  0  0  0  0  0  0
   25.3270  -22.3864  -10.2103 O   0  0  0  0  0  0  0  0  0  0  0  0
   24.2271  -20.9677   -8.7649 O   0  0  0  0  0  0  0  0  0  0  0  0
  2  1  1  6
  2  3  1  0
  3  4  1  0
  4  8  1  0
  5  4  2  0
  6  2  1  0
  7  6  2  0
  9 13  1  0
  9  6  1  0
 10  9  1  0
 11 10  1  0
 11 12  1  0
 12 13  1  0
 14 15  2  0
 13 14  1  1
 16 17  1  0
 17 18  2  0
 19 17  1  0
 19 20  1  0
 21 20  1  0
 21 22  1  0
 23 22  1  6
 23 24  1  0
 23 25  1  0
 24 14  1  0
 25 27  1  0
 26 25  2  0
M  END
$$$$
