FPV.pdb
     RDKit          3D

 26 27  0  0  1  0  0  0  0  0999 V2000
    6.6819  -17.3442   26.7307 N   0  0  0  0  0  0  0  0  0  0  0  0
    6.5666  -16.4493   25.6354 C   0  0  1  0  0  0  0  0  0  0  0  0
    6.5306  -15.0257   26.1547 C   0  0  0  0  0  0  0  0  0  0  0  0
    7.7452  -14.7715   26.9708 C   0  0  0  0  0  0  0  0  0  0  0  0
    8.2697  -13.5177   27.1896 C   0  0  0  0  0  0  0  0  0  0  0  0
    9.4142  -13.3066   27.9583 C   0  0  0  0  0  0  0  0  0  0  0  0
   10.0632  -14.3569   28.5293 C   0  0  0  0  0  0  0  0  0  0  0  0
    9.5635  -15.6343   28.3306 C   0  0  0  0  0  0  0  0  0  0  0  0
    8.4308  -15.8351   27.5688 C   0  0  0  0  0  0  0  0  0  0  0  0
    7.4958  -16.6271   24.5242 C   0  0  0  0  0  0  0  0  0  0  0  0
    7.8524  -17.8437   24.3069 O   0  0  0  0  0  0  0  0  0  0  0  0
    8.0425  -15.6442   23.6733 N   0  0  0  0  0  0  0  0  0  0  0  0
    7.9722  -14.1996   23.6976 C   0  0  0  0  0  0  0  0  0  0  0  0
    7.6652  -13.8957   22.2245 C   0  0  0  0  0  0  0  0  0  0  0  0
    8.2630  -15.0519   21.4593 C   0  0  0  0  0  0  0  0  0  0  0  0
    8.8560  -15.9496   22.5123 C   0  0  1  0  0  0  0  0  0  0  0  0
   10.2884  -15.5645   22.6961 C   0  0  0  0  0  0  0  0  0  0  0  0
   10.6538  -14.3936   22.9988 O   0  0  0  0  0  0  0  0  0  0  0  0
   11.1495  -17.3255   25.3972 C   0  0  0  0  0  0  0  0  0  0  0  0
   12.3458  -17.5595   24.5143 C   0  0  2  0  0  0  0  0  0  0  0  0
   13.5648  -17.6520   25.3785 C   0  0  0  0  0  0  0  0  0  0  0  0
   12.4740  -16.5236   23.4274 C   0  0  2  0  0  0  0  0  0  0  0  0
   11.3397  -16.5032   22.5398 N   0  0  0  0  0  0  0  0  0  0  0  0
   13.7423  -16.8008   22.6814 C   0  0  0  0  0  0  0  0  0  0  0  0
   14.8808  -16.0365   22.8721 O   0  0  0  0  0  0  0  0  0  0  0  0
   13.8236  -17.7437   21.8482 O   0  0  0  0  0  0  0  0  0  0  0  0
  2 10  1  0
  2  1  1  1
  3  2  1  0
  4  3  1  0
  5  4  2  0
  6  5  1  0
  7  6  2  0
  7  8  1  0
  8  9  2  0
  9  4  1  0
 10 12  1  0
 11 10  2  0
 12 13  1  0
 12 16  1  0
 13 14  1  0
 14 15  1  0
 16 15  1  0
 17 18  2  0
 16 17  1  1
 20 19  1  1
 20 22  1  0
 21 20  1  0
 22 23  1  6
 23 17  1  0
 24 22  1  0
 25 24  1  0
 26 24  2  0
M  END
$$$$
