FPV.pdb
     RDKit          3D

 26 27  0  0  1  0  0  0  0  0999 V2000
    4.9825  -17.8173   24.4672 N   0  0  0  0  0  0  0  0  0  0  0  0
    5.8515  -16.7262   24.7284 C   0  0  1  0  0  0  0  0  0  0  0  0
    5.8867  -16.4614   26.2205 C   0  0  0  0  0  0  0  0  0  0  0  0
    6.2607  -15.0437   26.4574 C   0  0  0  0  0  0  0  0  0  0  0  0
    7.4763  -14.6497   26.9693 C   0  0  0  0  0  0  0  0  0  0  0  0
    7.8014  -13.3106   27.1850 C   0  0  0  0  0  0  0  0  0  0  0  0
    6.9073  -12.3290   26.8895 C   0  0  0  0  0  0  0  0  0  0  0  0
    5.6728  -12.6885   26.3721 C   0  0  0  0  0  0  0  0  0  0  0  0
    5.3584  -14.0153   26.1615 C   0  0  0  0  0  0  0  0  0  0  0  0
    7.1801  -16.7686   24.1258 C   0  0  0  0  0  0  0  0  0  0  0  0
    7.6542  -17.9505   23.9446 O   0  0  0  0  0  0  0  0  0  0  0  0
    7.9950  -15.6898   23.7247 N   0  0  0  0  0  0  0  0  0  0  0  0
    7.8180  -14.2576   23.8243 C   0  0  0  0  0  0  0  0  0  0  0  0
    8.2327  -13.8117   22.4150 C   0  0  0  0  0  0  0  0  0  0  0  0
    9.2052  -14.8675   21.9469 C   0  0  0  0  0  0  0  0  0  0  0  0
    9.2846  -15.8534   23.0817 C   0  0  1  0  0  0  0  0  0  0  0  0
   10.4223  -15.4529   23.9644 C   0  0  0  0  0  0  0  0  0  0  0  0
   11.0989  -14.4016   23.7823 O   0  0  0  0  0  0  0  0  0  0  0  0
    9.8676  -13.5810   26.0599 C   0  0  0  0  0  0  0  0  0  0  0  0
   10.2395  -14.7464   26.9369 C   0  0  2  0  0  0  0  0  0  0  0  0
   10.6622  -14.2209   28.2735 C   0  0  0  0  0  0  0  0  0  0  0  0
   11.2745  -15.6398   26.3033 C   0  0  2  0  0  0  0  0  0  0  0  0
   10.8175  -16.2396   25.0761 N   0  0  0  0  0  0  0  0  0  0  0  0
   11.6532  -16.6823   27.3091 C   0  0  0  0  0  0  0  0  0  0  0  0
   12.5831  -16.4305   28.3035 O   0  0  0  0  0  0  0  0  0  0  0  0
   11.1389  -17.8334   27.2901 O   0  0  0  0  0  0  0  0  0  0  0  0
  2 10  1  0
  2  1  1  1
  3  2  1  0
  4  3  1  0
  5  4  2  0
  6  5  1  0
  7  6  2  0
  7  8  1  0
  8  9  2  0
  9  4  1  0
 10 12  1  0
 11 10  2  0
 12 13  1  0
 12 16  1  0
 13 14  1  0
 14 15  1  0
 16 15  1  0
 17 18  2  0
 16 17  1  1
 20 19  1  6
 20 22  1  0
 21 20  1  0
 22 23  1  6
 23 17  1  0
 24 22  1  0
 25 24  1  0
 26 24  2  0
M  END
$$$$
