FPV.pdb
     RDKit          3D

 26 27  0  0  1  0  0  0  0  0999 V2000
    5.7538  -18.0395   24.8058 N   0  0  0  0  0  0  0  0  0  0  0  0
    6.4642  -17.2556   23.8600 C   0  0  1  0  0  0  0  0  0  0  0  0
    5.8834  -15.8556   23.8339 C   0  0  0  0  0  0  0  0  0  0  0  0
    6.2814  -15.1375   25.0715 C   0  0  0  0  0  0  0  0  0  0  0  0
    6.7995  -15.7617   26.1837 C   0  0  0  0  0  0  0  0  0  0  0  0
    7.1628  -15.0636   27.3352 C   0  0  0  0  0  0  0  0  0  0  0  0
    7.0133  -13.7130   27.3973 C   0  0  0  0  0  0  0  0  0  0  0  0
    6.4946  -13.0505   26.2959 C   0  0  0  0  0  0  0  0  0  0  0  0
    6.1375  -13.7480   25.1603 C   0  0  0  0  0  0  0  0  0  0  0  0
    7.9213  -17.2665   23.9402 C   0  0  0  0  0  0  0  0  0  0  0  0
    8.4357  -18.3950   24.2810 O   0  0  0  0  0  0  0  0  0  0  0  0
    8.8203  -16.2080   23.6941 N   0  0  0  0  0  0  0  0  0  0  0  0
    8.6090  -14.7941   23.4735 C   0  0  0  0  0  0  0  0  0  0  0  0
    9.5254  -14.5449   22.2673 C   0  0  0  0  0  0  0  0  0  0  0  0
   10.6100  -15.5887   22.3847 C   0  0  0  0  0  0  0  0  0  0  0  0
   10.2585  -16.3774   23.6178 C   0  0  1  0  0  0  0  0  0  0  0  0
   10.9724  -15.7641   24.7789 C   0  0  0  0  0  0  0  0  0  0  0  0
   11.6213  -14.6833   24.6962 O   0  0  0  0  0  0  0  0  0  0  0  0
    9.3981  -14.6237   28.0394 C   0  0  0  0  0  0  0  0  0  0  0  0
   10.7968  -14.4045   27.5284 C   0  0  2  0  0  0  0  0  0  0  0  0
   10.7357  -13.4745   26.3567 C   0  0  0  0  0  0  0  0  0  0  0  0
   11.5075  -15.6962   27.2162 C   0  0  2  0  0  0  0  0  0  0  0  0
   10.9649  -16.3666   26.0626 N   0  0  0  0  0  0  0  0  0  0  0  0
   11.4313  -16.5637   28.4342 C   0  0  0  0  0  0  0  0  0  0  0  0
   12.1266  -16.2563   29.5914 O   0  0  0  0  0  0  0  0  0  0  0  0
   10.7292  -17.6108   28.4541 O   0  0  0  0  0  0  0  0  0  0  0  0
  2 10  1  0
  2  1  1  1
  3  2  1  0
  4  3  1  0
  5  4  2  0
  6  5  1  0
  7  6  2  0
  7  8  1  0
  8  9  2  0
  9  4  1  0
 10 12  1  0
 11 10  2  0
 12 13  1  0
 12 16  1  0
 13 14  1  0
 14 15  1  0
 16 15  1  0
 17 18  2  0
 16 17  1  1
 20 19  1  6
 20 22  1  0
 21 20  1  0
 22 23  1  6
 23 17  1  0
 24 22  1  0
 25 24  1  0
 26 24  2  0
M  END
$$$$
