FPV.pdb
     RDKit          3D

 26 27  0  0  1  0  0  0  0  0999 V2000
    9.3336  -15.3081   22.5835 N   0  0  0  0  0  0  0  0  0  0  0  0
    9.0016  -14.8930   23.8992 C   0  0  1  0  0  0  0  0  0  0  0  0
    7.4940  -14.8906   24.0572 C   0  0  0  0  0  0  0  0  0  0  0  0
    7.0791  -13.6591   24.7765 C   0  0  0  0  0  0  0  0  0  0  0  0
    7.4742  -12.3919   24.4118 C   0  0  0  0  0  0  0  0  0  0  0  0
    7.0724  -11.2513   25.1068 C   0  0  0  0  0  0  0  0  0  0  0  0
    6.2586  -11.3574   26.1916 C   0  0  0  0  0  0  0  0  0  0  0  0
    5.8405  -12.6179   26.5879 C   0  0  0  0  0  0  0  0  0  0  0  0
    6.2423  -13.7416   25.8954 C   0  0  0  0  0  0  0  0  0  0  0  0
    9.6890  -15.5541   25.0039 C   0  0  0  0  0  0  0  0  0  0  0  0
   10.3954  -16.5751   24.6677 O   0  0  0  0  0  0  0  0  0  0  0  0
    9.6737  -15.2164   26.3731 N   0  0  0  0  0  0  0  0  0  0  0  0
    8.9141  -14.2353   27.1165 C   0  0  0  0  0  0  0  0  0  0  0  0
   10.0140  -13.6093   27.9855 C   0  0  0  0  0  0  0  0  0  0  0  0
   11.0436  -14.7012   28.1505 C   0  0  0  0  0  0  0  0  0  0  0  0
   10.5007  -15.8685   27.3702 C   0  0  1  0  0  0  0  0  0  0  0  0
    9.7077  -16.7224   28.3060 C   0  0  0  0  0  0  0  0  0  0  0  0
    8.6324  -16.3380   28.8463 O   0  0  0  0  0  0  0  0  0  0  0  0
    8.1606  -18.2607   26.3896 C   0  0  0  0  0  0  0  0  0  0  0  0
    8.9323  -19.4034   26.9931 C   0  0  2  0  0  0  0  0  0  0  0  0
    8.1678  -20.6696   26.7613 C   0  0  0  0  0  0  0  0  0  0  0  0
    9.2631  -19.1749   28.4454 C   0  0  2  0  0  0  0  0  0  0  0  0
   10.1198  -18.0351   28.6496 N   0  0  0  0  0  0  0  0  0  0  0  0
    9.8916  -20.4278   28.9718 C   0  0  0  0  0  0  0  0  0  0  0  0
    9.2501  -21.2289   29.9011 O   0  0  0  0  0  0  0  0  0  0  0  0
   11.0325  -20.8036   28.5886 O   0  0  0  0  0  0  0  0  0  0  0  0
  2 10  1  0
  2  1  1  6
  3  2  1  0
  4  3  1  0
  5  4  2  0
  6  5  1  0
  7  6  2  0
  7  8  1  0
  8  9  2  0
  9  4  1  0
 10 12  1  0
 11 10  2  0
 12 13  1  0
 12 16  1  0
 13 14  1  0
 14 15  1  0
 16 15  1  0
 17 18  2  0
 16 17  1  1
 20 19  1  1
 20 22  1  0
 21 20  1  0
 22 23  1  6
 23 17  1  0
 24 22  1  0
 25 24  1  0
 26 24  2  0
M  END
$$$$
