FPV.pdb
     RDKit          3D

 26 27  0  0  1  0  0  0  0  0999 V2000
    5.1096  -18.1231   24.0085 N   0  0  0  0  0  0  0  0  0  0  0  0
    5.8247  -16.9633   24.4052 C   0  0  1  0  0  0  0  0  0  0  0  0
    5.5886  -16.7109   25.8811 C   0  0  0  0  0  0  0  0  0  0  0  0
    5.9058  -15.2937   26.1923 C   0  0  0  0  0  0  0  0  0  0  0  0
    5.0538  -14.2449   25.9295 C   0  0  0  0  0  0  0  0  0  0  0  0
    5.3775  -12.9217   26.2292 C   0  0  0  0  0  0  0  0  0  0  0  0
    6.5726  -12.6188   26.8039 C   0  0  0  0  0  0  0  0  0  0  0  0
    7.4560  -13.6496   27.0831 C   0  0  0  0  0  0  0  0  0  0  0  0
    7.1286  -14.9561   26.7836 C   0  0  0  0  0  0  0  0  0  0  0  0
    7.2334  -16.8844   24.0321 C   0  0  0  0  0  0  0  0  0  0  0  0
    7.8077  -18.0200   23.8449 O   0  0  0  0  0  0  0  0  0  0  0  0
    8.0297  -15.7340   23.8547 N   0  0  0  0  0  0  0  0  0  0  0  0
    7.7830  -14.3368   24.1365 C   0  0  0  0  0  0  0  0  0  0  0  0
    8.2883  -13.6826   22.8429 C   0  0  0  0  0  0  0  0  0  0  0  0
    9.3401  -14.6297   22.3170 C   0  0  0  0  0  0  0  0  0  0  0  0
    9.3722  -15.7634   23.3069 C   0  0  1  0  0  0  0  0  0  0  0  0
   10.4177  -15.4557   24.3297 C   0  0  0  0  0  0  0  0  0  0  0  0
   11.2177  -14.4833   24.2264 O   0  0  0  0  0  0  0  0  0  0  0  0
   10.2416  -13.4032   26.2963 C   0  0  0  0  0  0  0  0  0  0  0  0
   10.3353  -14.5570   27.2583 C   0  0  2  0  0  0  0  0  0  0  0  0
   10.8657  -14.0479   28.5625 C   0  0  0  0  0  0  0  0  0  0  0  0
   11.1384  -15.7064   26.7064 C   0  0  2  0  0  0  0  0  0  0  0  0
   10.5779  -16.2476   25.4950 N   0  0  0  0  0  0  0  0  0  0  0  0
   11.2324  -16.7509   27.7752 C   0  0  0  0  0  0  0  0  0  0  0  0
   10.5969  -17.9750   27.6546 O   0  0  0  0  0  0  0  0  0  0  0  0
   11.8955  -16.5562   28.8298 O   0  0  0  0  0  0  0  0  0  0  0  0
  2 10  1  0
  2  1  1  1
  3  2  1  0
  4  3  1  0
  5  4  2  0
  6  5  1  0
  7  6  2  0
  7  8  1  0
  8  9  2  0
  9  4  1  0
 10 12  1  0
 11 10  2  0
 12 13  1  0
 12 16  1  0
 13 14  1  0
 14 15  1  0
 16 15  1  0
 17 18  2  0
 16 17  1  1
 20 19  1  6
 20 22  1  0
 21 20  1  0
 22 23  1  6
 23 17  1  0
 24 22  1  0
 25 24  1  0
 26 24  2  0
M  END
$$$$
