FPV.pdb
     RDKit          3D

 26 27  0  0  1  0  0  0  0  0999 V2000
    5.8082  -17.8315   25.6287 N   0  0  0  0  0  0  0  0  0  0  0  0
    5.9840  -17.1552   24.3936 C   0  0  1  0  0  0  0  0  0  0  0  0
    5.2815  -15.8133   24.4541 C   0  0  0  0  0  0  0  0  0  0  0  0
    5.9130  -14.9771   25.5066 C   0  0  0  0  0  0  0  0  0  0  0  0
    6.8526  -15.4487   26.3953 C   0  0  0  0  0  0  0  0  0  0  0  0
    7.4283  -14.6425   27.3770 C   0  0  0  0  0  0  0  0  0  0  0  0
    7.0716  -13.3347   27.4900 C   0  0  0  0  0  0  0  0  0  0  0  0
    6.1282  -12.8250   26.6120 C   0  0  0  0  0  0  0  0  0  0  0  0
    5.5630  -13.6288   25.6434 C   0  0  0  0  0  0  0  0  0  0  0  0
    7.3420  -17.0641   23.8669 C   0  0  0  0  0  0  0  0  0  0  0  0
    7.8774  -18.1910   23.5542 O   0  0  0  0  0  0  0  0  0  0  0  0
    8.1269  -15.9103   23.6626 N   0  0  0  0  0  0  0  0  0  0  0  0
    7.8648  -14.5090   23.9077 C   0  0  0  0  0  0  0  0  0  0  0  0
    8.3676  -13.8830   22.5992 C   0  0  0  0  0  0  0  0  0  0  0  0
    9.4309  -14.8322   22.1010 C   0  0  0  0  0  0  0  0  0  0  0  0
    9.4714  -15.9397   23.1198 C   0  0  1  0  0  0  0  0  0  0  0  0
   10.5103  -15.5950   24.1376 C   0  0  0  0  0  0  0  0  0  0  0  0
   11.3342  -14.6490   23.9882 O   0  0  0  0  0  0  0  0  0  0  0  0
   10.2443  -13.4304   25.9239 C   0  0  0  0  0  0  0  0  0  0  0  0
   10.2721  -14.5114   26.9709 C   0  0  2  0  0  0  0  0  0  0  0  0
   10.7139  -13.9074   28.2676 C   0  0  0  0  0  0  0  0  0  0  0  0
   11.1098  -15.6943   26.5588 C   0  0  2  0  0  0  0  0  0  0  0  0
   10.6363  -16.3190   25.3504 N   0  0  0  0  0  0  0  0  0  0  0  0
   11.1238  -16.6624   27.7010 C   0  0  0  0  0  0  0  0  0  0  0  0
   11.9551  -16.4865   28.7940 O   0  0  0  0  0  0  0  0  0  0  0  0
   10.3771  -17.6784   27.7124 O   0  0  0  0  0  0  0  0  0  0  0  0
  2 10  1  0
  2  1  1  1
  3  2  1  0
  4  3  1  0
  5  4  2  0
  6  5  1  0
  7  6  2  0
  7  8  1  0
  8  9  2  0
  9  4  1  0
 10 12  1  0
 11 10  2  0
 12 13  1  0
 12 16  1  0
 13 14  1  0
 14 15  1  0
 16 15  1  0
 17 18  2  0
 16 17  1  1
 20 19  1  6
 20 22  1  0
 21 20  1  0
 22 23  1  6
 23 17  1  0
 24 22  1  0
 25 24  1  0
 26 24  2  0
M  END
$$$$
