FPV.pdb
     RDKit          3D

 26 27  0  0  1  0  0  0  0  0999 V2000
    5.2427  -18.0118   24.9943 N   0  0  0  0  0  0  0  0  0  0  0  0
    6.1259  -16.9037   24.9167 C   0  0  1  0  0  0  0  0  0  0  0  0
    6.6751  -16.6046   26.2976 C   0  0  0  0  0  0  0  0  0  0  0  0
    6.7995  -15.1343   26.4669 C   0  0  0  0  0  0  0  0  0  0  0  0
    5.7342  -14.2651   26.4015 C   0  0  0  0  0  0  0  0  0  0  0  0
    5.8789  -12.8871   26.5613 C   0  0  0  0  0  0  0  0  0  0  0  0
    7.1054  -12.3460   26.7921 C   0  0  0  0  0  0  0  0  0  0  0  0
    8.2015  -13.1911   26.8644 C   0  0  0  0  0  0  0  0  0  0  0  0
    8.0504  -14.5532   26.7053 C   0  0  0  0  0  0  0  0  0  0  0  0
    7.1606  -16.9423   23.8882 C   0  0  0  0  0  0  0  0  0  0  0  0
    7.4209  -18.1144   23.4268 O   0  0  0  0  0  0  0  0  0  0  0  0
    7.8986  -15.8692   23.3471 N   0  0  0  0  0  0  0  0  0  0  0  0
    7.9482  -14.4640   23.6867 C   0  0  0  0  0  0  0  0  0  0  0  0
    7.8702  -13.8225   22.2941 C   0  0  0  0  0  0  0  0  0  0  0  0
    8.4659  -14.8500   21.3620 C   0  0  0  0  0  0  0  0  0  0  0  0
    8.8328  -16.0112   22.2470 C   0  0  1  0  0  0  0  0  0  0  0  0
   10.2546  -15.8371   22.6738 C   0  0  0  0  0  0  0  0  0  0  0  0
   10.9589  -14.8443   22.3357 O   0  0  0  0  0  0  0  0  0  0  0  0
   10.4617  -16.0819   26.4902 C   0  0  0  0  0  0  0  0  0  0  0  0
   11.3689  -15.4254   25.4846 C   0  0  2  0  0  0  0  0  0  0  0  0
   10.6402  -14.2726   24.8669 C   0  0  0  0  0  0  0  0  0  0  0  0
   11.9012  -16.3981   24.4641 C   0  0  2  0  0  0  0  0  0  0  0  0
   10.9091  -16.7893   23.4959 N   0  0  0  0  0  0  0  0  0  0  0  0
   12.4367  -17.5853   25.2029 C   0  0  0  0  0  0  0  0  0  0  0  0
   13.5794  -17.5040   25.9803 O   0  0  0  0  0  0  0  0  0  0  0  0
   11.8667  -18.7085   25.1458 O   0  0  0  0  0  0  0  0  0  0  0  0
  2 10  1  0
  2  1  1  1
  3  2  1  0
  4  3  1  0
  5  4  2  0
  6  5  1  0
  7  6  2  0
  7  8  1  0
  8  9  2  0
  9  4  1  0
 10 12  1  0
 11 10  2  0
 12 13  1  0
 12 16  1  0
 13 14  1  0
 14 15  1  0
 16 15  1  0
 17 18  2  0
 16 17  1  1
 20 19  1  1
 20 22  1  0
 21 20  1  0
 22 23  1  6
 23 17  1  0
 24 22  1  0
 25 24  1  0
 26 24  2  0
M  END
$$$$
