QAT.pdb
     RDKit          3D

 22 21  0  0  1  0  0  0  0  0999 V2000
   16.1151   -8.9025  -19.4195 N   0  0  0  0  0  0  0  0  0  0  0  0
   15.6754  -10.2122  -19.1001 C   0  0  0  0  0  0  0  0  0  0  0  0
   14.7205  -10.7718  -19.7117 O   0  0  0  0  0  0  0  0  0  0  0  0
   16.3813  -10.9263  -18.0039 C   0  0  0  0  0  0  0  0  0  0  0  0
   17.5192  -10.0703  -17.4915 C   0  0  0  0  0  0  0  0  0  0  0  0
   18.3149  -10.7445  -16.4228 C   0  0  2  0  0  0  0  0  0  0  0  0
   17.4773  -11.6515  -15.6723 N   0  0  0  0  0  0  0  0  0  0  0  0
   19.0709   -9.8217  -15.5704 C   0  0  0  0  0  0  0  0  0  0  0  0
   18.4742   -9.1732  -14.6834 O   0  0  0  0  0  0  0  0  0  0  0  0
   22.7213   -9.2082  -14.9919 C   0  0  0  0  0  0  0  0  0  0  0  0
   21.2663   -8.7425  -14.9977 C   0  0  2  0  0  0  0  0  0  0  0  0
   20.4725   -9.6632  -15.7484 N   0  0  0  0  0  0  0  0  0  0  0  0
   21.1675   -7.3615  -15.5810 C   0  0  0  0  0  0  0  0  0  0  0  0
   21.1767   -7.1647  -16.8255 O   0  0  0  0  0  0  0  0  0  0  0  0
   18.5687   -5.0429  -15.7870 C   0  0  0  0  0  0  0  0  0  0  0  0
   19.6332   -4.2558  -15.0560 C   0  0  1  0  0  0  0  0  0  0  0  0
   19.3583   -4.4228  -13.6788 O   0  0  0  0  0  0  0  0  0  0  0  0
   20.9929   -4.8811  -15.2822 C   0  0  2  0  0  0  0  0  0  0  0  0
   21.0600   -6.2271  -14.7476 N   0  0  0  0  0  0  0  0  0  0  0  0
   21.9851   -4.0187  -14.5748 C   0  0  0  0  0  0  0  0  0  0  0  0
   22.5813   -4.3961  -13.5381 O   0  0  0  0  0  0  0  0  0  0  0  0
   22.2703   -2.7673  -15.0571 O   0  0  0  0  0  0  0  0  0  0  0  0
  2  4  1  0
  2  1  1  0
  3  2  2  0
  5  4  1  0
  6  5  1  0
  6  7  1  1
  8  9  2  0
  8  6  1  0
 11 10  1  6
 11 12  1  0
 12  8  1  0
 13 11  1  0
 13 19  1  0
 14 13  2  0
 16 18  1  0
 16 15  1  6
 17 16  1  0
 18 19  1  1
 18 20  1  0
 20 22  1  0
 21 20  2  0
M  END
$$$$
