QAT.pdb
     RDKit          3D

 22 21  0  0  1  0  0  0  0  0999 V2000
   20.4890  -10.2903  -19.8689 N   0  0  0  0  0  0  0  0  0  0  0  0
   19.3009  -10.9575  -20.2616 C   0  0  0  0  0  0  0  0  0  0  0  0
   19.2219  -11.6194  -21.3361 O   0  0  0  0  0  0  0  0  0  0  0  0
   18.1249  -10.8566  -19.3579 C   0  0  0  0  0  0  0  0  0  0  0  0
   18.4969  -10.0553  -18.1292 C   0  0  0  0  0  0  0  0  0  0  0  0
   19.0299  -10.9054  -17.0233 C   0  0  2  0  0  0  0  0  0  0  0  0
   17.9919  -11.7712  -16.5130 N   0  0  0  0  0  0  0  0  0  0  0  0
   19.7187  -10.1519  -15.9709 C   0  0  0  0  0  0  0  0  0  0  0  0
   19.0481   -9.5650  -15.0938 O   0  0  0  0  0  0  0  0  0  0  0  0
   23.3101   -9.8904  -14.9046 C   0  0  0  0  0  0  0  0  0  0  0  0
   21.8796   -9.3575  -14.9651 C   0  0  2  0  0  0  0  0  0  0  0  0
   21.1386  -10.0870  -15.9450 N   0  0  0  0  0  0  0  0  0  0  0  0
   21.8872   -7.8911  -15.2919 C   0  0  0  0  0  0  0  0  0  0  0  0
   22.1423   -7.4712  -16.4522 O   0  0  0  0  0  0  0  0  0  0  0  0
   19.5307   -5.4714  -15.8615 C   0  0  0  0  0  0  0  0  0  0  0  0
   20.2666   -4.9032  -14.6689 C   0  0  1  0  0  0  0  0  0  0  0  0
   19.5711   -5.3693  -13.5291 O   0  0  0  0  0  0  0  0  0  0  0  0
   21.6537   -5.5022  -14.5771 C   0  0  2  0  0  0  0  0  0  0  0  0
   21.6064   -6.9249  -14.3016 N   0  0  0  0  0  0  0  0  0  0  0  0
   22.3491   -4.8049  -13.4552 C   0  0  0  0  0  0  0  0  0  0  0  0
   22.5855   -5.3688  -12.3603 O   0  0  0  0  0  0  0  0  0  0  0  0
   22.7524   -3.5030  -13.6044 O   0  0  0  0  0  0  0  0  0  0  0  0
  2  4  1  0
  2  1  1  0
  3  2  2  0
  5  4  1  0
  6  5  1  0
  6  7  1  1
  8  9  2  0
  8  6  1  0
 11 10  1  6
 11 12  1  0
 12  8  1  0
 13 11  1  0
 13 19  1  0
 14 13  2  0
 16 18  1  0
 16 15  1  6
 17 16  1  0
 18 19  1  1
 18 20  1  0
 20 22  1  0
 21 20  2  0
M  END
$$$$
