QAT.pdb
     RDKit          3D

 22 21  0  0  1  0  0  0  0  0999 V2000
   17.7416  -17.3894  -15.2887 N   0  0  0  0  0  0  0  0  0  0  0  0
   16.6408  -17.2334  -16.1689 C   0  0  0  0  0  0  0  0  0  0  0  0
   15.7635  -18.1317  -16.3187 O   0  0  0  0  0  0  0  0  0  0  0  0
   16.5423  -15.9589  -16.9277 C   0  0  0  0  0  0  0  0  0  0  0  0
   17.7545  -15.1009  -16.6371 C   0  0  0  0  0  0  0  0  0  0  0  0
   17.4363  -13.9212  -15.7787 C   0  0  2  0  0  0  0  0  0  0  0  0
   16.0115  -13.6818  -15.7657 N   0  0  0  0  0  0  0  0  0  0  0  0
   18.2175  -12.7225  -16.0990 C   0  0  0  0  0  0  0  0  0  0  0  0
   19.4635  -12.7997  -16.1689 O   0  0  0  0  0  0  0  0  0  0  0  0
   17.2508   -9.2314  -17.1541 C   0  0  0  0  0  0  0  0  0  0  0  0
   18.2557  -10.2769  -16.6733 C   0  0  2  0  0  0  0  0  0  0  0  0
   17.5661  -11.4800  -16.3290 N   0  0  0  0  0  0  0  0  0  0  0  0
   19.0239   -9.7521  -15.4938 C   0  0  0  0  0  0  0  0  0  0  0  0
   18.5608   -9.8054  -14.3232 O   0  0  0  0  0  0  0  0  0  0  0  0
   22.2873  -10.8339  -14.0956 C   0  0  0  0  0  0  0  0  0  0  0  0
   22.4419   -9.3782  -14.4753 C   0  0  1  0  0  0  0  0  0  0  0  0
   22.9277   -9.3759  -15.8035 O   0  0  0  0  0  0  0  0  0  0  0  0
   21.0867   -8.7065  -14.5324 C   0  0  2  0  0  0  0  0  0  0  0  0
   20.3023   -9.1760  -15.6578 N   0  0  0  0  0  0  0  0  0  0  0  0
   21.3390   -7.2428  -14.6827 C   0  0  0  0  0  0  0  0  0  0  0  0
   21.1520   -6.6389  -15.7657 O   0  0  0  0  0  0  0  0  0  0  0  0
   21.7908   -6.5134  -13.6133 O   0  0  0  0  0  0  0  0  0  0  0  0
  2  4  1  0
  2  1  1  0
  3  2  2  0
  5  4  1  0
  6  5  1  0
  6  7  1  6
  8  9  2  0
  8  6  1  0
 11 10  1  1
 11 12  1  0
 12  8  1  0
 13 11  1  0
 13 19  1  0
 14 13  2  0
 16 18  1  0
 16 15  1  6
 17 16  1  0
 18 19  1  6
 18 20  1  0
 20 22  1  0
 21 20  2  0
M  END
$$$$
