QAT.pdb
     RDKit          3D

 22 21  0  0  1  0  0  0  0  0999 V2000
   16.0444  -13.2822  -15.9230 N   0  0  0  0  0  0  0  0  0  0  0  0
   16.4930  -13.5632  -17.2385 C   0  0  0  0  0  0  0  0  0  0  0  0
   16.0188  -14.5134  -17.9251 O   0  0  0  0  0  0  0  0  0  0  0  0
   17.5584  -12.6931  -17.8023 C   0  0  0  0  0  0  0  0  0  0  0  0
   18.0131  -11.7032  -16.7518 C   0  0  0  0  0  0  0  0  0  0  0  0
   19.1220  -10.8233  -17.2272 C   0  0  2  0  0  0  0  0  0  0  0  0
   20.0698  -11.5885  -18.0041 N   0  0  0  0  0  0  0  0  0  0  0  0
   19.7536  -10.0337  -16.1655 C   0  0  0  0  0  0  0  0  0  0  0  0
   19.0380   -9.3864  -15.3704 O   0  0  0  0  0  0  0  0  0  0  0  0
   23.2929   -9.7907  -14.9061 C   0  0  0  0  0  0  0  0  0  0  0  0
   21.8555   -9.2838  -15.0114 C   0  0  2  0  0  0  0  0  0  0  0  0
   21.1692  -10.0021  -16.0383 N   0  0  0  0  0  0  0  0  0  0  0  0
   21.8468   -7.8097  -15.3012 C   0  0  0  0  0  0  0  0  0  0  0  0
   22.2221   -7.3497  -16.4126 O   0  0  0  0  0  0  0  0  0  0  0  0
   19.5072   -5.3807  -16.0380 C   0  0  0  0  0  0  0  0  0  0  0  0
   20.1179   -4.8441  -14.7629 C   0  0  1  0  0  0  0  0  0  0  0  0
   19.3095   -5.3359  -13.7117 O   0  0  0  0  0  0  0  0  0  0  0  0
   21.4880   -5.4492  -14.5449 C   0  0  2  0  0  0  0  0  0  0  0  0
   21.4139   -6.8812  -14.3299 N   0  0  0  0  0  0  0  0  0  0  0  0
   22.0575   -4.7962  -13.3293 C   0  0  0  0  0  0  0  0  0  0  0  0
   22.1835   -5.4039  -12.2396 O   0  0  0  0  0  0  0  0  0  0  0  0
   22.4634   -3.4876  -13.3827 O   0  0  0  0  0  0  0  0  0  0  0  0
  2  4  1  0
  2  1  1  0
  3  2  2  0
  5  4  1  0
  6  5  1  0
  6  7  1  1
  8  9  2  0
  8  6  1  0
 11 10  1  6
 11 12  1  0
 12  8  1  0
 13 11  1  0
 13 19  1  0
 14 13  2  0
 16 18  1  0
 16 15  1  6
 17 16  1  0
 18 19  1  1
 18 20  1  0
 20 22  1  0
 21 20  2  0
M  END
$$$$
