QAT.pdb
     RDKit          3D

 22 21  0  0  1  0  0  0  0  0999 V2000
   27.4933  -17.6253  -19.7159 N   0  0  0  0  0  0  0  0  0  0  0  0
   28.0328  -18.4690  -18.7120 C   0  0  0  0  0  0  0  0  0  0  0  0
   29.2156  -18.3385  -18.2842 O   0  0  0  0  0  0  0  0  0  0  0  0
   27.1531  -19.5343  -18.1632 C   0  0  0  0  0  0  0  0  0  0  0  0
   25.9442  -19.7040  -19.0576 C   0  0  0  0  0  0  0  0  0  0  0  0
   24.7609  -18.9251  -18.5854 C   0  0  2  0  0  0  0  0  0  0  0  0
   25.1860  -17.6713  -18.0066 N   0  0  0  0  0  0  0  0  0  0  0  0
   23.8569  -19.6829  -17.7146 C   0  0  0  0  0  0  0  0  0  0  0  0
   23.3944  -20.7757  -18.1084 O   0  0  0  0  0  0  0  0  0  0  0  0
   22.8745  -19.3752  -14.1076 C   0  0  0  0  0  0  0  0  0  0  0  0
   22.6162  -19.8505  -15.5364 C   0  0  2  0  0  0  0  0  0  0  0  0
   23.5068  -19.1815  -16.4312 N   0  0  0  0  0  0  0  0  0  0  0  0
   21.1872  -19.5880  -15.9185 C   0  0  0  0  0  0  0  0  0  0  0  0
   20.8786  -18.7171  -16.7752 O   0  0  0  0  0  0  0  0  0  0  0  0
   16.9646  -21.0147  -17.2473 C   0  0  0  0  0  0  0  0  0  0  0  0
   18.4513  -21.0126  -16.9705 C   0  0  1  0  0  0  0  0  0  0  0  0
   19.0460  -20.3429  -18.0650 O   0  0  0  0  0  0  0  0  0  0  0  0
   18.7551  -20.1634  -15.7550 C   0  0  2  0  0  0  0  0  0  0  0  0
   20.1318  -20.3145  -15.3256 N   0  0  0  0  0  0  0  0  0  0  0  0
   17.8448  -20.6291  -14.6674 C   0  0  0  0  0  0  0  0  0  0  0  0
   18.0460  -21.6936  -14.0357 O   0  0  0  0  0  0  0  0  0  0  0  0
   16.7446  -19.8834  -14.3304 O   0  0  0  0  0  0  0  0  0  0  0  0
  2  4  1  0
  2  1  1  0
  3  2  2  0
  5  4  1  0
  6  5  1  0
  6  7  1  1
  8  9  2  0
  8  6  1  0
 11 10  1  1
 11 12  1  0
 12  8  1  0
 13 11  1  0
 13 19  1  0
 14 13  2  0
 16 18  1  0
 16 15  1  6
 17 16  1  0
 18 19  1  1
 18 20  1  0
 20 22  1  0
 21 20  2  0
M  END
$$$$
