QAT.pdb
     RDKit          3D

 22 21  0  0  1  0  0  0  0  0999 V2000
   18.1564  -15.8070  -14.4944 N   0  0  0  0  0  0  0  0  0  0  0  0
   16.8519  -16.0170  -15.0091 C   0  0  0  0  0  0  0  0  0  0  0  0
   16.2261  -17.1028  -14.8404 O   0  0  0  0  0  0  0  0  0  0  0  0
   16.2249  -14.9035  -15.7687 C   0  0  0  0  0  0  0  0  0  0  0  0
   17.1584  -13.7125  -15.7854 C   0  0  0  0  0  0  0  0  0  0  0  0
   17.4743  -13.2441  -17.1677 C   0  0  2  0  0  0  0  0  0  0  0  0
   18.2458  -14.2433  -17.8704 N   0  0  0  0  0  0  0  0  0  0  0  0
   18.0781  -11.9091  -17.2215 C   0  0  0  0  0  0  0  0  0  0  0  0
   19.3210  -11.7917  -17.1520 O   0  0  0  0  0  0  0  0  0  0  0  0
   16.6463   -8.4939  -17.9442 C   0  0  0  0  0  0  0  0  0  0  0  0
   17.7755   -9.4335  -17.5248 C   0  0  2  0  0  0  0  0  0  0  0  0
   17.2591  -10.7544  -17.3518 N   0  0  0  0  0  0  0  0  0  0  0  0
   18.4110   -8.9438  -16.2545 C   0  0  0  0  0  0  0  0  0  0  0  0
   17.9410   -9.2351  -15.1223 O   0  0  0  0  0  0  0  0  0  0  0  0
   22.0842   -9.3354  -15.2544 C   0  0  0  0  0  0  0  0  0  0  0  0
   21.7334   -7.8670  -15.1678 C   0  0  1  0  0  0  0  0  0  0  0  0
   22.1093   -7.3072  -16.4110 O   0  0  0  0  0  0  0  0  0  0  0  0
   20.2327   -7.6929  -15.0759 C   0  0  2  0  0  0  0  0  0  0  0  0
   19.5665   -8.1334  -16.2861 N   0  0  0  0  0  0  0  0  0  0  0  0
   19.9809   -6.2350  -14.8764 C   0  0  0  0  0  0  0  0  0  0  0  0
   19.4231   -5.5265  -15.7478 O   0  0  0  0  0  0  0  0  0  0  0  0
   20.3642   -5.6285  -13.7080 O   0  0  0  0  0  0  0  0  0  0  0  0
  2  4  1  0
  2  1  1  0
  3  2  2  0
  5  4  1  0
  6  5  1  0
  6  7  1  1
  8  9  2  0
  8  6  1  0
 11 10  1  1
 11 12  1  0
 12  8  1  0
 13 11  1  0
 13 19  1  0
 14 13  2  0
 16 18  1  0
 16 15  1  6
 17 16  1  0
 18 19  1  6
 18 20  1  0
 20 22  1  0
 21 20  2  0
M  END
$$$$
