QAT.pdb
     RDKit          3D

 22 21  0  0  1  0  0  0  0  0999 V2000
   15.5435  -12.8074  -15.2104 N   0  0  0  0  0  0  0  0  0  0  0  0
   15.9021  -13.1220  -16.5458 C   0  0  0  0  0  0  0  0  0  0  0  0
   15.2443  -13.9446  -17.2455 O   0  0  0  0  0  0  0  0  0  0  0  0
   17.0972  -12.4453  -17.1145 C   0  0  0  0  0  0  0  0  0  0  0  0
   17.6900  -11.5109  -16.0821 C   0  0  0  0  0  0  0  0  0  0  0  0
   18.9216  -10.8195  -16.5666 C   0  0  2  0  0  0  0  0  0  0  0  0
   19.7569  -11.7416  -17.3011 N   0  0  0  0  0  0  0  0  0  0  0  0
   19.6487  -10.0937  -15.5205 C   0  0  0  0  0  0  0  0  0  0  0  0
   19.0121   -9.4147  -14.6856 O   0  0  0  0  0  0  0  0  0  0  0  0
   23.2417  -10.0000  -14.4127 C   0  0  0  0  0  0  0  0  0  0  0  0
   21.8536   -9.3773  -14.5524 C   0  0  2  0  0  0  0  0  0  0  0  0
   21.0672  -10.1593  -15.4532 N   0  0  0  0  0  0  0  0  0  0  0  0
   21.9686   -7.9620  -15.0431 C   0  0  0  0  0  0  0  0  0  0  0  0
   22.2951   -7.6959  -16.2306 O   0  0  0  0  0  0  0  0  0  0  0  0
   19.6242   -4.9366  -13.6508 C   0  0  0  0  0  0  0  0  0  0  0  0
   20.4863   -4.8692  -14.8914 C   0  0  1  0  0  0  0  0  0  0  0  0
   20.7379   -3.4950  -15.1116 O   0  0  0  0  0  0  0  0  0  0  0  0
   21.8375   -5.4964  -14.6234 C   0  0  2  0  0  0  0  0  0  0  0  0
   21.7125   -6.8721  -14.1830 N   0  0  0  0  0  0  0  0  0  0  0  0
   22.4792   -4.6889  -13.5441 C   0  0  0  0  0  0  0  0  0  0  0  0
   22.6790   -5.1470  -12.3940 O   0  0  0  0  0  0  0  0  0  0  0  0
   22.8718   -3.3996  -13.7963 O   0  0  0  0  0  0  0  0  0  0  0  0
  2  4  1  0
  2  1  1  0
  3  2  2  0
  5  4  1  0
  6  5  1  0
  6  7  1  1
  8  9  2  0
  8  6  1  0
 11 10  1  6
 11 12  1  0
 12  8  1  0
 13 11  1  0
 13 19  1  0
 14 13  2  0
 16 18  1  0
 16 15  1  1
 17 16  1  0
 18 19  1  1
 18 20  1  0
 20 22  1  0
 21 20  2  0
M  END
$$$$
