YPL.pdb
     RDKit          3D

 28 29  0  0  1  0  0  0  0  0999 V2000
   19.5738  -18.1514  -15.8764 O   0  0  0  0  0  0  0  0  0  0  0  0
   20.5162  -18.6998  -15.0046 C   0  0  0  0  0  0  0  0  0  0  0  0
   21.7735  -18.1875  -14.8553 C   0  0  0  0  0  0  0  0  0  0  0  0
   22.6835  -18.7473  -13.9887 C   0  0  0  0  0  0  0  0  0  0  0  0
   22.3389  -19.8477  -13.2470 C   0  0  0  0  0  0  0  0  0  0  0  0
   23.2785  -20.4798  -12.3014 C   0  0  0  0  0  0  0  0  0  0  0  0
   24.3144  -21.2800  -13.0210 C   0  0  2  0  0  0  0  0  0  0  0  0
   23.7867  -22.3425  -13.8136 N   0  0  0  0  0  0  0  0  0  0  0  0
   25.4176  -21.7092  -12.1096 C   0  0  0  0  0  0  0  0  0  0  0  0
   25.3089  -22.8100  -11.4720 O   0  0  0  0  0  0  0  0  0  0  0  0
   21.0766  -20.3780  -13.3841 C   0  0  0  0  0  0  0  0  0  0  0  0
   20.1806  -19.8033  -14.2566 C   0  0  0  0  0  0  0  0  0  0  0  0
   26.5983  -20.9633  -11.9009 N   0  0  0  0  0  0  0  0  0  0  0  0
   26.9089  -19.7188  -12.5925 C   0  0  0  0  0  0  0  0  0  0  0  0
   28.1788  -19.2134  -11.8959 C   0  0  0  0  0  0  0  0  0  0  0  0
   28.8646  -20.5479  -11.6006 C   0  0  0  0  0  0  0  0  0  0  0  0
   27.6802  -21.2980  -10.9861 C   0  0  1  0  0  0  0  0  0  0  0  0
   27.3914  -20.6474   -9.6786 C   0  0  0  0  0  0  0  0  0  0  0  0
   26.5387  -19.7021   -9.5730 O   0  0  0  0  0  0  0  0  0  0  0  0
   28.1468  -19.0687   -4.5989 C   0  0  0  0  0  0  0  0  0  0  0  0
   28.3813  -20.5591   -4.7390 C   0  0  2  0  0  0  0  0  0  0  0  0
   29.2973  -21.0981   -3.6956 C   0  0  0  0  0  0  0  0  0  0  0  0
   28.5356  -21.0441   -6.1219 C   0  0  0  0  0  0  0  0  0  0  0  0
   27.6255  -20.5020   -7.1558 C   0  0  2  0  0  0  0  0  0  0  0  0
   28.0378  -21.0306   -8.4761 N   0  0  0  0  0  0  0  0  0  0  0  0
   27.6435  -19.0504   -7.2764 C   0  0  0  0  0  0  0  0  0  0  0  0
   26.6621  -18.2096   -6.8041 O   0  0  0  0  0  0  0  0  0  0  0  0
   28.6182  -18.4749   -7.8586 O   0  0  0  0  0  0  0  0  0  0  0  0
  2 12  2  0
  2  1  1  0
  3  2  1  0
  4  5  1  0
  4  3  2  0
  5 11  2  0
  6  5  1  0
  7  6  1  0
  7  9  1  0
  7  8  1  1
  9 10  2  0
  9 13  1  0
 11 12  1  0
 13 14  1  0
 14 15  1  0
 16 15  1  0
 17 13  1  0
 17 16  1  0
 17 18  1  1
 19 18  2  0
 21 20  1  6
 21 22  1  0
 23 21  1  0
 24 23  1  1
 24 25  1  0
 25 18  1  0
 26 27  1  0
 26 24  1  0
 28 26  2  0
M  END
$$$$
