YPL.pdb
     RDKit          3D

 28 29  0  0  1  0  0  0  0  0999 V2000
   21.6094  -16.0928  -16.8538 O   0  0  0  0  0  0  0  0  0  0  0  0
   21.3274  -17.0224  -15.8512 C   0  0  0  0  0  0  0  0  0  0  0  0
   20.8297  -16.6667  -14.6300 C   0  0  0  0  0  0  0  0  0  0  0  0
   20.5603  -17.6032  -13.6590 C   0  0  0  0  0  0  0  0  0  0  0  0
   20.7903  -18.9325  -13.9039 C   0  0  0  0  0  0  0  0  0  0  0  0
   20.5125  -19.9736  -12.8960 C   0  0  0  0  0  0  0  0  0  0  0  0
   21.6908  -20.8719  -12.7067 C   0  0  2  0  0  0  0  0  0  0  0  0
   22.0748  -21.5881  -13.8793 N   0  0  0  0  0  0  0  0  0  0  0  0
   21.5386  -21.7417  -11.5016 C   0  0  0  0  0  0  0  0  0  0  0  0
   21.1519  -22.9497  -11.6476 O   0  0  0  0  0  0  0  0  0  0  0  0
   21.2916  -19.3099  -15.1285 C   0  0  0  0  0  0  0  0  0  0  0  0
   21.5546  -18.3576  -16.0867 C   0  0  0  0  0  0  0  0  0  0  0  0
   21.7992  -21.3086  -10.1831 N   0  0  0  0  0  0  0  0  0  0  0  0
   22.1762  -19.9453   -9.8327 C   0  0  0  0  0  0  0  0  0  0  0  0
   22.1609  -19.9380   -8.2987 C   0  0  0  0  0  0  0  0  0  0  0  0
   22.6587  -21.3577   -8.0249 C   0  0  0  0  0  0  0  0  0  0  0  0
   21.7398  -22.1248   -8.9790 C   0  0  1  0  0  0  0  0  0  0  0  0
   20.3622  -22.0217   -8.4243 C   0  0  0  0  0  0  0  0  0  0  0  0
   19.5917  -21.0458   -8.7173 O   0  0  0  0  0  0  0  0  0  0  0  0
   17.7216  -25.6466  -10.2704 C   0  0  0  0  0  0  0  0  0  0  0  0
   18.2816  -25.1108   -8.9684 C   0  0  2  0  0  0  0  0  0  0  0  0
   18.3943  -26.1586   -7.9160 C   0  0  0  0  0  0  0  0  0  0  0  0
   17.7941  -23.7766   -8.5761 C   0  0  0  0  0  0  0  0  0  0  0  0
   18.3607  -23.1590   -7.3560 C   0  0  2  0  0  0  0  0  0  0  0  0
   19.8200  -22.9907   -7.5424 N   0  0  0  0  0  0  0  0  0  0  0  0
   18.1952  -23.9511   -6.1446 C   0  0  0  0  0  0  0  0  0  0  0  0
   16.9978  -24.1633   -5.5009 O   0  0  0  0  0  0  0  0  0  0  0  0
   19.2075  -24.5023   -5.6046 O   0  0  0  0  0  0  0  0  0  0  0  0
  2 12  2  0
  2  1  1  0
  3  2  1  0
  4  5  1  0
  4  3  2  0
  5 11  2  0
  6  5  1  0
  7  6  1  0
  7  9  1  0
  7  8  1  6
  9 10  2  0
  9 13  1  0
 11 12  1  0
 13 14  1  0
 14 15  1  0
 16 15  1  0
 17 13  1  0
 17 16  1  0
 17 18  1  1
 19 18  2  0
 21 20  1  6
 21 22  1  0
 23 21  1  0
 24 23  1  6
 24 25  1  0
 25 18  1  0
 26 27  1  0
 26 24  1  0
 28 26  2  0
M  END
$$$$
