YPL.pdb
     RDKit          3D

 28 29  0  0  1  0  0  0  0  0999 V2000
   28.7181  -19.2228   -5.1618 O   0  0  0  0  0  0  0  0  0  0  0  0
   28.2295  -19.3612   -6.4621 C   0  0  0  0  0  0  0  0  0  0  0  0
   26.9227  -19.1372   -6.7902 C   0  0  0  0  0  0  0  0  0  0  0  0
   26.4668  -19.2806   -8.0801 C   0  0  0  0  0  0  0  0  0  0  0  0
   27.3305  -19.6572   -9.0762 C   0  0  0  0  0  0  0  0  0  0  0  0
   26.8895  -19.8192  -10.4748 C   0  0  0  0  0  0  0  0  0  0  0  0
   26.4603  -21.2237  -10.7478 C   0  0  2  0  0  0  0  0  0  0  0  0
   27.5375  -22.1508  -10.8728 N   0  0  0  0  0  0  0  0  0  0  0  0
   25.4794  -21.2965  -11.8722 C   0  0  0  0  0  0  0  0  0  0  0  0
   25.9039  -21.4934  -13.0601 O   0  0  0  0  0  0  0  0  0  0  0  0
   28.6509  -19.8874   -8.7648 C   0  0  0  0  0  0  0  0  0  0  0  0
   29.0874  -19.7384   -7.4680 C   0  0  0  0  0  0  0  0  0  0  0  0
   24.0838  -21.1591  -11.7064 N   0  0  0  0  0  0  0  0  0  0  0  0
   23.4513  -20.6857  -10.4820 C   0  0  0  0  0  0  0  0  0  0  0  0
   21.9722  -20.5374  -10.8609 C   0  0  0  0  0  0  0  0  0  0  0  0
   21.8305  -21.7128  -11.8288 C   0  0  0  0  0  0  0  0  0  0  0  0
   23.0630  -21.4589  -12.7002 C   0  0  1  0  0  0  0  0  0  0  0  0
   22.7952  -20.2136  -13.4707 C   0  0  0  0  0  0  0  0  0  0  0  0
   22.7866  -19.0659  -12.9098 O   0  0  0  0  0  0  0  0  0  0  0  0
   24.2529  -18.5869  -18.9438 C   0  0  0  0  0  0  0  0  0  0  0  0
   23.8930  -18.3987  -17.4841 C   0  0  2  0  0  0  0  0  0  0  0  0
   25.0898  -18.3315  -16.6003 C   0  0  0  0  0  0  0  0  0  0  0  0
   22.7246  -19.1678  -17.0204 C   0  0  0  0  0  0  0  0  0  0  0  0
   22.2737  -18.9753  -15.6237 C   0  0  2  0  0  0  0  0  0  0  0  0
   22.5344  -20.2196  -14.8645 N   0  0  0  0  0  0  0  0  0  0  0  0
   20.8498  -18.7031  -15.4799 C   0  0  0  0  0  0  0  0  0  0  0  0
   20.2837  -17.4491  -15.4894 O   0  0  0  0  0  0  0  0  0  0  0  0
   20.0327  -19.6671  -15.3272 O   0  0  0  0  0  0  0  0  0  0  0  0
  2 12  2  0
  2  1  1  0
  3  2  1  0
  4  5  1  0
  4  3  2  0
  5 11  2  0
  6  5  1  0
  7  6  1  0
  7  9  1  0
  7  8  1  6
  9 10  2  0
  9 13  1  0
 11 12  1  0
 13 14  1  0
 14 15  1  0
 16 15  1  0
 17 13  1  0
 17 16  1  0
 17 18  1  6
 19 18  2  0
 21 20  1  6
 21 22  1  0
 23 21  1  0
 24 23  1  6
 24 25  1  0
 25 18  1  0
 26 27  1  0
 26 24  1  0
 28 26  2  0
M  END
$$$$
