YPL.pdb
     RDKit          3D

 28 29  0  0  1  0  0  0  0  0999 V2000
   26.2818  -13.5682  -18.2327 O   0  0  0  0  0  0  0  0  0  0  0  0
   26.0210  -14.6240  -17.3574 C   0  0  0  0  0  0  0  0  0  0  0  0
   24.7886  -15.2007  -17.2388 C   0  0  0  0  0  0  0  0  0  0  0  0
   24.5584  -16.2406  -16.3681 C   0  0  0  0  0  0  0  0  0  0  0  0
   25.5789  -16.7248  -15.5910 C   0  0  0  0  0  0  0  0  0  0  0  0
   25.3817  -17.8411  -14.6467 C   0  0  0  0  0  0  0  0  0  0  0  0
   25.8264  -19.1375  -15.2407 C   0  0  2  0  0  0  0  0  0  0  0  0
   25.0754  -19.5459  -16.3830 N   0  0  0  0  0  0  0  0  0  0  0  0
   25.9623  -20.2059  -14.2053 C   0  0  0  0  0  0  0  0  0  0  0  0
   24.9778  -20.9872  -13.9805 O   0  0  0  0  0  0  0  0  0  0  0  0
   26.8275  -16.1563  -15.6966 C   0  0  0  0  0  0  0  0  0  0  0  0
   27.0375  -15.1166  -16.5738 C   0  0  0  0  0  0  0  0  0  0  0  0
   27.1315  -20.4144  -13.4414 N   0  0  0  0  0  0  0  0  0  0  0  0
   28.2930  -19.5350  -13.4728 C   0  0  0  0  0  0  0  0  0  0  0  0
   29.1963  -20.0721  -12.3553 C   0  0  0  0  0  0  0  0  0  0  0  0
   28.9033  -21.5680  -12.4777 C   0  0  0  0  0  0  0  0  0  0  0  0
   27.3741  -21.5129  -12.5173 C   0  0  1  0  0  0  0  0  0  0  0  0
   26.9247  -21.0808  -11.1654 C   0  0  0  0  0  0  0  0  0  0  0  0
   27.6912  -21.1588  -10.1464 O   0  0  0  0  0  0  0  0  0  0  0  0
   26.5398  -21.6679   -7.2219 C   0  0  0  0  0  0  0  0  0  0  0  0
   26.6512  -20.3006   -7.8653 C   0  0  2  0  0  0  0  0  0  0  0  0
   27.3344  -19.3072   -6.9911 C   0  0  0  0  0  0  0  0  0  0  0  0
   25.4658  -19.8644   -8.6243 C   0  0  0  0  0  0  0  0  0  0  0  0
   24.9147  -20.7843   -9.6447 C   0  0  2  0  0  0  0  0  0  0  0  0
   25.6287  -20.5594  -10.9223 N   0  0  0  0  0  0  0  0  0  0  0  0
   23.4995  -20.5915   -9.9315 C   0  0  0  0  0  0  0  0  0  0  0  0
   22.9877  -20.2256  -11.1552 O   0  0  0  0  0  0  0  0  0  0  0  0
   22.6376  -20.7588   -9.0100 O   0  0  0  0  0  0  0  0  0  0  0  0
  2 12  2  0
  2  1  1  0
  3  2  1  0
  4  5  1  0
  4  3  2  0
  5 11  2  0
  6  5  1  0
  7  6  1  0
  7  9  1  0
  7  8  1  6
  9 10  2  0
  9 13  1  0
 11 12  1  0
 13 14  1  0
 14 15  1  0
 16 15  1  0
 17 13  1  0
 17 16  1  0
 17 18  1  1
 19 18  2  0
 21 20  1  1
 21 22  1  0
 23 21  1  0
 24 23  1  1
 24 25  1  0
 25 18  1  0
 26 27  1  0
 26 24  1  0
 28 26  2  0
M  END
$$$$
