YPL.pdb
     RDKit          3D

 28 29  0  0  1  0  0  0  0  0999 V2000
   20.3744  -16.9743  -16.9485 O   0  0  0  0  0  0  0  0  0  0  0  0
   21.0549  -17.6585  -15.9397 C   0  0  0  0  0  0  0  0  0  0  0  0
   22.3979  -17.5252  -15.7302 C   0  0  0  0  0  0  0  0  0  0  0  0
   23.0444  -18.2112  -14.7283 C   0  0  0  0  0  0  0  0  0  0  0  0
   22.3404  -19.0550  -13.9084 C   0  0  0  0  0  0  0  0  0  0  0  0
   22.9887  -19.8080  -12.8178 C   0  0  0  0  0  0  0  0  0  0  0  0
   23.8068  -20.9379  -13.3519 C   0  0  2  0  0  0  0  0  0  0  0  0
   23.0476  -21.9481  -14.0141 N   0  0  0  0  0  0  0  0  0  0  0  0
   24.7466  -21.4782  -12.3239 C   0  0  0  0  0  0  0  0  0  0  0  0
   24.3691  -22.4427  -11.5774 O   0  0  0  0  0  0  0  0  0  0  0  0
   20.9864  -19.2023  -14.1043 C   0  0  0  0  0  0  0  0  0  0  0  0
   20.3581  -18.5070  -15.1124 C   0  0  0  0  0  0  0  0  0  0  0  0
   26.0530  -20.9832  -12.1174 N   0  0  0  0  0  0  0  0  0  0  0  0
   26.6163  -19.8462  -12.8339 C   0  0  0  0  0  0  0  0  0  0  0  0
   27.9570  -19.5923  -12.1329 C   0  0  0  0  0  0  0  0  0  0  0  0
   28.3539  -21.0306  -11.7976 C   0  0  0  0  0  0  0  0  0  0  0  0
   27.0366  -21.5079  -11.1812 C   0  0  1  0  0  0  0  0  0  0  0  0
   26.8762  -20.7790   -9.8931 C   0  0  0  0  0  0  0  0  0  0  0  0
   26.1952  -19.7013   -9.8118 O   0  0  0  0  0  0  0  0  0  0  0  0
   28.0404  -19.1963   -4.9074 C   0  0  0  0  0  0  0  0  0  0  0  0
   27.9442  -20.7072   -4.9702 C   0  0  2  0  0  0  0  0  0  0  0  0
   28.7528  -21.3796   -3.9157 C   0  0  0  0  0  0  0  0  0  0  0  0
   27.9498  -21.2817   -6.3272 C   0  0  0  0  0  0  0  0  0  0  0  0
   27.1714  -20.5904   -7.3795 C   0  0  2  0  0  0  0  0  0  0  0  0
   27.4634  -21.2287   -8.6833 N   0  0  0  0  0  0  0  0  0  0  0  0
   27.4909  -19.1780   -7.5388 C   0  0  0  0  0  0  0  0  0  0  0  0
   26.6768  -18.1388   -7.1511 O   0  0  0  0  0  0  0  0  0  0  0  0
   28.5925  -18.8342   -8.0757 O   0  0  0  0  0  0  0  0  0  0  0  0
  2 12  2  0
  2  1  1  0
  3  2  1  0
  4  5  1  0
  4  3  2  0
  5 11  2  0
  6  5  1  0
  7  6  1  0
  7  9  1  0
  7  8  1  1
  9 10  2  0
  9 13  1  0
 11 12  1  0
 13 14  1  0
 14 15  1  0
 16 15  1  0
 17 13  1  0
 17 16  1  0
 17 18  1  1
 19 18  2  0
 21 20  1  6
 21 22  1  0
 23 21  1  0
 24 23  1  1
 24 25  1  0
 25 18  1  0
 26 27  1  0
 26 24  1  0
 28 26  2  0
M  END
$$$$
