YPL.pdb
     RDKit          3D

 28 29  0  0  1  0  0  0  0  0999 V2000
   21.1068  -17.6122  -16.2489 O   0  0  0  0  0  0  0  0  0  0  0  0
   21.8706  -18.0563  -15.1680 C   0  0  0  0  0  0  0  0  0  0  0  0
   23.1746  -18.4433  -15.2917 C   0  0  0  0  0  0  0  0  0  0  0  0
   23.9051  -18.8771  -14.2098 C   0  0  0  0  0  0  0  0  0  0  0  0
   23.3278  -18.9295  -12.9673 C   0  0  0  0  0  0  0  0  0  0  0  0
   24.0721  -19.3827  -11.7768 C   0  0  0  0  0  0  0  0  0  0  0  0
   24.4035  -20.8365  -11.8667 C   0  0  2  0  0  0  0  0  0  0  0  0
   23.2662  -21.6896  -11.9856 N   0  0  0  0  0  0  0  0  0  0  0  0
   25.3532  -21.2575  -10.7930 C   0  0  0  0  0  0  0  0  0  0  0  0
   24.8913  -21.6633   -9.6740 O   0  0  0  0  0  0  0  0  0  0  0  0
   22.0149  -18.5436  -12.8232 C   0  0  0  0  0  0  0  0  0  0  0  0
   21.3009  -18.1127  -13.9181 C   0  0  0  0  0  0  0  0  0  0  0  0
   26.7580  -21.2364  -10.9351 N   0  0  0  0  0  0  0  0  0  0  0  0
   27.4496  -20.7561  -12.1244 C   0  0  0  0  0  0  0  0  0  0  0  0
   28.9297  -20.7609  -11.7211 C   0  0  0  0  0  0  0  0  0  0  0  0
   28.9512  -21.9947  -10.8178 C   0  0  0  0  0  0  0  0  0  0  0  0
   27.7320  -21.6791   -9.9477 C   0  0  1  0  0  0  0  0  0  0  0  0
   28.0964  -20.5059   -9.1070 C   0  0  0  0  0  0  0  0  0  0  0  0
   27.5097  -19.3786   -9.2369 O   0  0  0  0  0  0  0  0  0  0  0  0
   26.4535  -20.4677   -4.0101 C   0  0  0  0  0  0  0  0  0  0  0  0
   27.5039  -19.7133   -4.7996 C   0  0  2  0  0  0  0  0  0  0  0  0
   27.4327  -18.2403   -4.5912 C   0  0  0  0  0  0  0  0  0  0  0  0
   27.7456  -20.2147   -6.1640 C   0  0  0  0  0  0  0  0  0  0  0  0
   29.0039  -19.8224   -6.8376 C   0  0  2  0  0  0  0  0  0  0  0  0
   29.1091  -20.5621   -8.1161 N   0  0  0  0  0  0  0  0  0  0  0  0
   30.2137  -20.1338   -6.0881 C   0  0  0  0  0  0  0  0  0  0  0  0
   30.7815  -21.3836   -5.9950 O   0  0  0  0  0  0  0  0  0  0  0  0
   30.8206  -19.2126   -5.4532 O   0  0  0  0  0  0  0  0  0  0  0  0
  2 12  2  0
  2  1  1  0
  3  2  1  0
  4  5  1  0
  4  3  2  0
  5 11  2  0
  6  5  1  0
  7  6  1  0
  7  9  1  0
  7  8  1  1
  9 10  2  0
  9 13  1  0
 11 12  1  0
 13 14  1  0
 14 15  1  0
 16 15  1  0
 17 13  1  0
 17 16  1  0
 17 18  1  1
 19 18  2  0
 21 20  1  6
 21 22  1  0
 23 21  1  0
 24 23  1  1
 24 25  1  0
 25 18  1  0
 26 27  1  0
 26 24  1  0
 28 26  2  0
M  END
$$$$
