DLL.pdb
     RDKit          3D

 25 24  0  0  1  0  0  0  0  0999 V2000
   27.3991  -18.8810  -15.1823 N   0  0  0  0  0  0  0  0  0  0  0  0
   26.5169  -19.7961  -15.8771 C   0  0  1  0  0  0  0  0  0  0  0  0
   27.4095  -20.7987  -16.5969 C   0  0  0  0  0  0  0  0  0  0  0  0
   28.0480  -20.1056  -17.7461 C   0  0  0  0  0  0  0  0  0  0  0  0
   27.8316  -18.8878  -17.8800 O   0  0  0  0  0  0  0  0  0  0  0  0
   25.6652  -20.5748  -14.9297 C   0  0  0  0  0  0  0  0  0  0  0  0
   25.3066  -21.7130  -15.2584 O   0  0  0  0  0  0  0  0  0  0  0  0
   28.8633  -20.7717  -18.6546 O   0  0  0  0  0  0  0  0  0  0  0  0
   25.5752  -20.9105   -9.1199 C   0  0  0  0  0  0  0  0  0  0  0  0
   25.3895  -21.2749  -10.5375 C   0  0  2  0  0  0  0  0  0  0  0  0
   26.7406  -21.5041  -11.1824 C   0  0  0  0  0  0  0  0  0  0  0  0
   24.5775  -20.3176  -11.3531 C   0  0  0  0  0  0  0  0  0  0  0  0
   24.4032  -20.6822  -12.7748 C   0  0  2  0  0  0  0  0  0  0  0  0
   25.2746  -20.0366  -13.6917 N   0  0  0  0  0  0  0  0  0  0  0  0
   22.9785  -20.4193  -13.1520 C   0  0  0  0  0  0  0  0  0  0  0  0
   22.5646  -19.2406  -13.1021 O   0  0  0  0  0  0  0  0  0  0  0  0
   20.8469  -22.0011  -17.6535 C   0  0  0  0  0  0  0  0  0  0  0  0
   21.0376  -21.1968  -16.4097 C   0  0  1  0  0  0  0  0  0  0  0  0
   20.6351  -19.7481  -16.6887 C   0  0  0  0  0  0  0  0  0  0  0  0
   20.4405  -21.7306  -15.1871 C   0  0  0  0  0  0  0  0  0  0  0  0
   20.6503  -21.1434  -13.8608 C   0  0  2  0  0  0  0  0  0  0  0  0
   22.0896  -21.4403  -13.5593 N   0  0  0  0  0  0  0  0  0  0  0  0
   19.8696  -21.7168  -12.7538 C   0  0  0  0  0  0  0  0  0  0  0  0
   18.6471  -21.1270  -12.3510 O   0  0  0  0  0  0  0  0  0  0  0  0
   20.1833  -22.7253  -12.0905 O   0  0  0  0  0  0  0  0  0  0  0  0
  2  1  1  1
  2  3  1  0
  3  4  1  0
  4  8  1  0
  5  4  2  0
  6 14  1  0
  6  2  1  0
  7  6  2  0
 10  9  1  1
 10 12  1  0
 11 10  1  0
 13 12  1  1
 13 14  1  0
 15 16  2  0
 15 13  1  0
 18 17  1  6
 18 19  1  0
 21 20  1  6
 20 18  1  0
 21 22  1  0
 22 15  1  0
 23 21  1  0
 24 23  1  0
 25 23  2  0
M  END
$$$$
