DLL.pdb
     RDKit          3D

 25 24  0  0  1  0  0  0  0  0999 V2000
   17.7690  -13.8041  -17.9274 N   0  0  0  0  0  0  0  0  0  0  0  0
   17.3217  -12.5648  -17.3255 C   0  0  1  0  0  0  0  0  0  0  0  0
   17.3957  -12.7622  -15.8169 C   0  0  0  0  0  0  0  0  0  0  0  0
   16.2058  -13.5468  -15.3957 C   0  0  0  0  0  0  0  0  0  0  0  0
   15.1097  -13.2545  -15.9066 O   0  0  0  0  0  0  0  0  0  0  0  0
   18.2273  -11.4256  -17.6593 C   0  0  0  0  0  0  0  0  0  0  0  0
   19.3898  -11.6774  -18.0022 O   0  0  0  0  0  0  0  0  0  0  0  0
   16.2874  -14.5767  -14.4650 O   0  0  0  0  0  0  0  0  0  0  0  0
   18.7464   -8.3617  -20.9456 C   0  0  0  0  0  0  0  0  0  0  0  0
   17.5681   -8.1316  -20.0880 C   0  0  2  0  0  0  0  0  0  0  0  0
   16.7338   -7.0070  -20.6653 C   0  0  0  0  0  0  0  0  0  0  0  0
   17.8576   -7.8773  -18.6414 C   0  0  0  0  0  0  0  0  0  0  0  0
   18.5663   -8.9644  -17.9340 C   0  0  2  0  0  0  0  0  0  0  0  0
   17.7797  -10.0954  -17.5888 N   0  0  0  0  0  0  0  0  0  0  0  0
   19.1979   -8.3870  -16.7057 C   0  0  0  0  0  0  0  0  0  0  0  0
   18.4600   -8.1322  -15.7291 O   0  0  0  0  0  0  0  0  0  0  0  0
   23.9285  -10.2282  -14.6210 C   0  0  0  0  0  0  0  0  0  0  0  0
   22.5536   -9.6520  -14.7103 C   0  0  1  0  0  0  0  0  0  0  0  0
   21.8423   -9.8552  -13.3718 C   0  0  0  0  0  0  0  0  0  0  0  0
   22.4490   -8.2830  -15.2112 C   0  0  0  0  0  0  0  0  0  0  0  0
   21.1782   -7.5653  -15.3454 C   0  0  2  0  0  0  0  0  0  0  0  0
   20.5826   -8.1204  -16.6054 N   0  0  0  0  0  0  0  0  0  0  0  0
   21.2592   -6.1087  -15.5337 C   0  0  0  0  0  0  0  0  0  0  0  0
   21.3991   -5.2435  -14.4217 O   0  0  0  0  0  0  0  0  0  0  0  0
   21.2158   -5.5150  -16.6296 O   0  0  0  0  0  0  0  0  0  0  0  0
  2  1  1  6
  2  3  1  0
  3  4  1  0
  4  8  1  0
  5  4  2  0
  6 14  1  0
  6  2  1  0
  7  6  2  0
 10  9  1  6
 10 12  1  0
 11 10  1  0
 13 12  1  1
 13 14  1  0
 15 16  2  0
 15 13  1  0
 18 17  1  1
 18 19  1  0
 21 20  1  6
 20 18  1  0
 21 22  1  0
 22 15  1  0
 23 21  1  0
 24 23  1  0
 25 23  2  0
M  END
$$$$
