DLL.pdb
     RDKit          3D

 25 24  0  0  1  0  0  0  0  0999 V2000
   20.8329  -20.1137  -12.5568 N   0  0  0  0  0  0  0  0  0  0  0  0
   21.8555  -21.1191  -12.7617 C   0  0  1  0  0  0  0  0  0  0  0  0
   21.7466  -21.5605  -14.2155 C   0  0  0  0  0  0  0  0  0  0  0  0
   20.4952  -22.3482  -14.3656 C   0  0  0  0  0  0  0  0  0  0  0  0
   19.4660  -21.7392  -14.7084 O   0  0  0  0  0  0  0  0  0  0  0  0
   23.2285  -20.5614  -12.5790 C   0  0  0  0  0  0  0  0  0  0  0  0
   23.5607  -19.5792  -13.2551 O   0  0  0  0  0  0  0  0  0  0  0  0
   20.4494  -23.7191  -14.1368 O   0  0  0  0  0  0  0  0  0  0  0  0
   25.2549  -19.0137   -8.8782 C   0  0  0  0  0  0  0  0  0  0  0  0
   25.3558  -20.4836   -8.9563 C   0  0  2  0  0  0  0  0  0  0  0  0
   25.9864  -21.0158   -7.6862 C   0  0  0  0  0  0  0  0  0  0  0  0
   26.0674  -21.0227  -10.1580 C   0  0  0  0  0  0  0  0  0  0  0  0
   25.4614  -20.6815  -11.4621 C   0  0  2  0  0  0  0  0  0  0  0  0
   24.1293  -21.1313  -11.6633 N   0  0  0  0  0  0  0  0  0  0  0  0
   26.3496  -21.2150  -12.5426 C   0  0  0  0  0  0  0  0  0  0  0  0
   26.9595  -22.2851  -12.3279 O   0  0  0  0  0  0  0  0  0  0  0  0
   27.4633  -24.2871  -16.0377 C   0  0  0  0  0  0  0  0  0  0  0  0
   26.1926  -23.5043  -16.0898 C   0  0  1  0  0  0  0  0  0  0  0  0
   25.0108  -24.4748  -16.0825 C   0  0  0  0  0  0  0  0  0  0  0  0
   26.0500  -22.4227  -15.1172 C   0  0  0  0  0  0  0  0  0  0  0  0
   27.0004  -21.3137  -14.9949 C   0  0  2  0  0  0  0  0  0  0  0  0
   26.5255  -20.5643  -13.7852 N   0  0  0  0  0  0  0  0  0  0  0  0
   27.0266  -20.3419  -16.0988 C   0  0  0  0  0  0  0  0  0  0  0  0
   26.0199  -19.3531  -16.2144 O   0  0  0  0  0  0  0  0  0  0  0  0
   27.8886  -20.2888  -16.9986 O   0  0  0  0  0  0  0  0  0  0  0  0
  2  1  1  6
  2  3  1  0
  3  4  1  0
  4  8  1  0
  5  4  2  0
  6 14  1  0
  6  2  1  0
  7  6  2  0
 10  9  1  1
 10 12  1  0
 11 10  1  0
 13 12  1  1
 13 14  1  0
 15 16  2  0
 15 13  1  0
 18 17  1  1
 18 19  1  0
 21 20  1  6
 20 18  1  0
 21 22  1  0
 22 15  1  0
 23 21  1  0
 24 23  1  0
 25 23  2  0
M  END
$$$$
