DLL.pdb
     RDKit          3D

 25 24  0  0  1  0  0  0  0  0999 V2000
   18.4306   -9.4860  -19.3352 N   0  0  0  0  0  0  0  0  0  0  0  0
   18.2188  -10.1604  -18.0708 C   0  0  1  0  0  0  0  0  0  0  0  0
   17.6752  -11.5443  -18.4017 C   0  0  0  0  0  0  0  0  0  0  0  0
   16.2693  -11.3904  -18.8585 C   0  0  0  0  0  0  0  0  0  0  0  0
   15.7972  -10.2401  -18.8998 O   0  0  0  0  0  0  0  0  0  0  0  0
   19.4975  -10.3626  -17.3270 C   0  0  0  0  0  0  0  0  0  0  0  0
   19.4719  -11.0184  -16.2775 O   0  0  0  0  0  0  0  0  0  0  0  0
   15.4872  -12.4777  -19.2324 O   0  0  0  0  0  0  0  0  0  0  0  0
   24.5115  -10.4185  -19.8658 C   0  0  0  0  0  0  0  0  0  0  0  0
   23.2691  -10.5565  -19.0820 C   0  0  2  0  0  0  0  0  0  0  0  0
   22.0731  -10.3674  -19.9918 C   0  0  0  0  0  0  0  0  0  0  0  0
   23.1570   -9.6695  -17.8812 C   0  0  0  0  0  0  0  0  0  0  0  0
   21.9292   -9.8409  -17.0765 C   0  0  2  0  0  0  0  0  0  0  0  0
   20.7069   -9.8248  -17.7995 N   0  0  0  0  0  0  0  0  0  0  0  0
   21.9123   -8.7800  -16.0204 C   0  0  0  0  0  0  0  0  0  0  0  0
   22.9339   -8.6368  -15.3140 O   0  0  0  0  0  0  0  0  0  0  0  0
   22.3693   -4.2797  -13.5762 C   0  0  0  0  0  0  0  0  0  0  0  0
   21.4798   -4.3969  -14.7700 C   0  0  1  0  0  0  0  0  0  0  0  0
   21.8350   -3.2907  -15.7644 C   0  0  0  0  0  0  0  0  0  0  0  0
   21.3892   -5.7166  -15.3916 C   0  0  0  0  0  0  0  0  0  0  0  0
   20.8236   -6.8902  -14.7202 C   0  0  2  0  0  0  0  0  0  0  0  0
   20.7983   -7.9404  -15.7912 N   0  0  0  0  0  0  0  0  0  0  0  0
   19.4425   -6.7681  -14.2288 C   0  0  0  0  0  0  0  0  0  0  0  0
   19.1742   -6.6893  -12.8409 O   0  0  0  0  0  0  0  0  0  0  0  0
   18.4199   -6.7235  -14.9414 O   0  0  0  0  0  0  0  0  0  0  0  0
  2  1  1  6
  2  3  1  0
  3  4  1  0
  4  8  1  0
  5  4  2  0
  6 14  1  0
  6  2  1  0
  7  6  2  0
 10  9  1  6
 10 12  1  0
 11 10  1  0
 13 12  1  6
 13 14  1  0
 15 16  2  0
 15 13  1  0
 18 17  1  1
 18 19  1  0
 21 20  1  6
 20 18  1  0
 21 22  1  0
 22 15  1  0
 23 21  1  0
 24 23  1  0
 25 23  2  0
M  END
$$$$
