DLL.pdb
     RDKit          3D

 25 24  0  0  1  0  0  0  0  0999 V2000
   28.4619  -20.6555  -15.7473 N   0  0  0  0  0  0  0  0  0  0  0  0
   27.5095  -19.7534  -15.1329 C   0  0  1  0  0  0  0  0  0  0  0  0
   26.8720  -18.9573  -16.2642 C   0  0  0  0  0  0  0  0  0  0  0  0
   27.8968  -18.0291  -16.8093 C   0  0  0  0  0  0  0  0  0  0  0  0
   28.2736  -18.2073  -17.9815 O   0  0  0  0  0  0  0  0  0  0  0  0
   26.4076  -20.4910  -14.4464 C   0  0  0  0  0  0  0  0  0  0  0  0
   26.0348  -21.5710  -14.9227 O   0  0  0  0  0  0  0  0  0  0  0  0
   28.4322  -16.9898  -16.0564 O   0  0  0  0  0  0  0  0  0  0  0  0
   26.5200  -22.2152  -10.5336 C   0  0  0  0  0  0  0  0  0  0  0  0
   26.1060  -20.8064  -10.3897 C   0  0  2  0  0  0  0  0  0  0  0  0
   26.0411  -20.4455   -8.9201 C   0  0  0  0  0  0  0  0  0  0  0  0
   24.8297  -20.4312  -11.0762 C   0  0  0  0  0  0  0  0  0  0  0  0
   24.8033  -20.6560  -12.5368 C   0  0  2  0  0  0  0  0  0  0  0  0
   25.8019  -19.9791  -13.2862 N   0  0  0  0  0  0  0  0  0  0  0  0
   23.4443  -20.2822  -13.0413 C   0  0  0  0  0  0  0  0  0  0  0  0
   23.0968  -19.0838  -12.9629 O   0  0  0  0  0  0  0  0  0  0  0  0
   21.2529  -22.4058  -17.5574 C   0  0  0  0  0  0  0  0  0  0  0  0
   21.6351  -21.4870  -16.4438 C   0  0  1  0  0  0  0  0  0  0  0  0
   21.6552  -20.0511  -16.9696 C   0  0  0  0  0  0  0  0  0  0  0  0
   20.8901  -21.6278  -15.1943 C   0  0  0  0  0  0  0  0  0  0  0  0
   21.1556  -20.8228  -13.9987 C   0  0  2  0  0  0  0  0  0  0  0  0
   22.5456  -21.2205  -13.5982 N   0  0  0  0  0  0  0  0  0  0  0  0
   20.3004  -21.0759  -12.8290 C   0  0  0  0  0  0  0  0  0  0  0  0
   19.0947  -20.3564  -12.6468 O   0  0  0  0  0  0  0  0  0  0  0  0
   20.5329  -21.9034  -11.9253 O   0  0  0  0  0  0  0  0  0  0  0  0
  2  1  1  6
  2  3  1  0
  3  4  1  0
  4  8  1  0
  5  4  2  0
  6 14  1  0
  6  2  1  0
  7  6  2  0
 10  9  1  1
 10 12  1  0
 11 10  1  0
 13 12  1  1
 13 14  1  0
 15 16  2  0
 15 13  1  0
 18 17  1  6
 18 19  1  0
 21 20  1  6
 20 18  1  0
 21 22  1  0
 22 15  1  0
 23 21  1  0
 24 23  1  0
 25 23  2  0
M  END
$$$$
