QHP.pdb
     RDKit          3D

 27 28  0  0  1  0  0  0  0  0999 V2000
   22.4358   -8.8489  -18.8032 N   0  0  0  0  0  0  0  0  0  0  0  0
   21.2137   -9.1862  -19.5032 C   0  0  0  0  0  0  0  0  0  0  0  0
   20.8623   -8.4038  -20.4012 O   0  0  0  0  0  0  0  0  0  0  0  0
   20.4492  -10.3845  -19.1523 C   0  0  0  0  0  0  0  0  0  0  0  0
   21.0683  -11.2573  -18.1469 C   0  0  0  0  0  0  0  0  0  0  0  0
   20.3938  -11.4638  -16.8457 C   0  0  2  0  0  0  0  0  0  0  0  0
   19.1824  -12.3085  -17.1080 N   0  0  0  0  0  0  0  0  0  0  0  0
   19.9266  -10.3117  -16.0961 C   0  0  0  0  0  0  0  0  0  0  0  0
   18.8313   -9.7434  -16.3420 O   0  0  0  0  0  0  0  0  0  0  0  0
   20.7030   -9.7645  -15.0198 N   0  0  0  0  0  0  0  0  0  0  0  0
   20.2830   -8.5769  -14.2741 C   0  0  1  0  0  0  0  0  0  0  0  0
   20.5951   -8.7758  -12.8044 C   0  0  0  0  0  0  0  0  0  0  0  0
   20.1825   -7.5900  -11.9738 C   0  0  0  0  0  0  0  0  0  0  0  0
   19.6220   -6.4352  -12.5063 C   0  0  0  0  0  0  0  0  0  0  0  0
   19.3911   -5.6177  -11.4811 N   0  0  0  0  0  0  0  0  0  0  0  0
   19.7838   -6.2168  -10.3436 C   0  0  0  0  0  0  0  0  0  0  0  0
   20.2633   -7.4147  -10.6529 N   0  0  0  0  0  0  0  0  0  0  0  0
   21.0840   -7.4392  -14.7631 C   0  0  0  0  0  0  0  0  0  0  0  0
   22.3074   -7.6380  -15.0897 O   0  0  0  0  0  0  0  0  0  0  0  0
   20.5830   -6.1347  -14.8975 N   0  0  0  0  0  0  0  0  0  0  0  0
   19.2057   -5.7566  -14.5229 C   0  0  0  0  0  0  0  0  0  0  0  0
   18.7591   -5.0195  -15.7635 C   0  0  0  0  0  0  0  0  0  0  0  0
   20.0078   -4.3240  -16.2193 C   0  0  0  0  0  0  0  0  0  0  0  0
   21.1426   -4.9044  -15.3898 C   0  0  1  0  0  0  0  0  0  0  0  0
   21.4244   -3.9744  -14.2299 C   0  0  0  0  0  0  0  0  0  0  0  0
   20.8917   -4.1847  -13.1168 O   0  0  0  0  0  0  0  0  0  0  0  0
   22.2607   -2.8772  -14.3426 O   0  0  0  0  0  0  0  0  0  0  0  0
  2  4  1  0
  2  1  1  0
  3  2  2  0
  5  4  1  0
  6  8  1  0
  6  5  1  0
  6  7  1  6
  8  9  2  0
 10 11  1  0
 10  8  1  0
 11 12  1  1
 12 13  1  0
 13 14  2  0
 13 17  1  0
 14 15  1  0
 15 16  1  0
 17 16  2  0
 18 20  1  0
 18 11  1  0
 19 18  2  0
 20 24  1  0
 21 22  1  0
 21 20  1  0
 22 23  1  0
 23 24  1  0
 24 25  1  1
 25 27  1  0
 26 25  2  0
M  END
$$$$
