QHP.pdb
     RDKit          3D

 27 28  0  0  1  0  0  0  0  0999 V2000
   30.7312  -30.7304  -16.2900 N   0  0  0  0  0  0  0  0  0  0  0  0
   30.8097  -32.0550  -16.8702 C   0  0  0  0  0  0  0  0  0  0  0  0
   31.7762  -32.2689  -17.6199 O   0  0  0  0  0  0  0  0  0  0  0  0
   29.7933  -33.0678  -16.5790 C   0  0  0  0  0  0  0  0  0  0  0  0
   28.7777  -32.6788  -15.5927 C   0  0  0  0  0  0  0  0  0  0  0  0
   27.3459  -32.7180  -15.9658 C   0  0  2  0  0  0  0  0  0  0  0  0
   27.1129  -31.5949  -16.9322 N   0  0  0  0  0  0  0  0  0  0  0  0
   26.3374  -32.5748  -14.9314 C   0  0  0  0  0  0  0  0  0  0  0  0
   25.9850  -31.4542  -14.4807 O   0  0  0  0  0  0  0  0  0  0  0  0
   25.6823  -33.7232  -14.3724 N   0  0  0  0  0  0  0  0  0  0  0  0
   24.6984  -33.6177  -13.2936 C   0  0  1  0  0  0  0  0  0  0  0  0
   23.7224  -34.7727  -13.3952 C   0  0  0  0  0  0  0  0  0  0  0  0
   22.7672  -34.6054  -14.5467 C   0  0  0  0  0  0  0  0  0  0  0  0
   22.3235  -33.3709  -15.0053 C   0  0  0  0  0  0  0  0  0  0  0  0
   21.5009  -33.6172  -16.0226 N   0  0  0  0  0  0  0  0  0  0  0  0
   21.4186  -34.9457  -16.2103 C   0  0  0  0  0  0  0  0  0  0  0  0
   22.1914  -35.5379  -15.3089 N   0  0  0  0  0  0  0  0  0  0  0  0
   25.4249  -33.7423  -12.0162 C   0  0  0  0  0  0  0  0  0  0  0  0
   26.5717  -34.3148  -12.0092 O   0  0  0  0  0  0  0  0  0  0  0  0
   24.9336  -33.2644  -10.7911 N   0  0  0  0  0  0  0  0  0  0  0  0
   23.5959  -32.6578  -10.6394 C   0  0  0  0  0  0  0  0  0  0  0  0
   23.9354  -31.3880   -9.8950 C   0  0  0  0  0  0  0  0  0  0  0  0
   25.0646  -31.8050   -8.9996 C   0  0  0  0  0  0  0  0  0  0  0  0
   25.4836  -33.1911   -9.4640 C   0  0  1  0  0  0  0  0  0  0  0  0
   24.8180  -34.2237   -8.5804 C   0  0  0  0  0  0  0  0  0  0  0  0
   23.6870  -34.6678   -8.8813 O   0  0  0  0  0  0  0  0  0  0  0  0
   25.4119  -34.7113   -7.4291 O   0  0  0  0  0  0  0  0  0  0  0  0
  2  4  1  0
  2  1  1  0
  3  2  2  0
  5  4  1  0
  6  8  1  0
  6  5  1  0
  6  7  1  6
  8  9  2  0
 10 11  1  0
 10  8  1  0
 11 12  1  6
 12 13  1  0
 13 14  2  0
 13 17  1  0
 14 15  1  0
 15 16  1  0
 17 16  2  0
 18 20  1  0
 18 11  1  0
 19 18  2  0
 20 24  1  0
 21 22  1  0
 21 20  1  0
 22 23  1  0
 23 24  1  0
 24 25  1  1
 25 27  1  0
 26 25  2  0
M  END
$$$$
