QHP.pdb
     RDKit          3D

 27 28  0  0  1  0  0  0  0  0999 V2000
   22.6263   -3.0301  -14.4045 N   0  0  0  0  0  0  0  0  0  0  0  0
   21.4517   -2.9782  -15.2499 C   0  0  0  0  0  0  0  0  0  0  0  0
   21.1642   -1.8661  -15.7215 O   0  0  0  0  0  0  0  0  0  0  0  0
   20.6600   -4.1806  -15.5163 C   0  0  0  0  0  0  0  0  0  0  0  0
   21.2152   -5.4329  -14.9878 C   0  0  0  0  0  0  0  0  0  0  0  0
   20.4782   -6.7004  -15.1905 C   0  0  2  0  0  0  0  0  0  0  0  0
   19.4216   -6.7690  -14.1281 N   0  0  0  0  0  0  0  0  0  0  0  0
   21.1976   -7.9596  -15.1247 C   0  0  0  0  0  0  0  0  0  0  0  0
   21.3678   -8.5860  -14.0470 O   0  0  0  0  0  0  0  0  0  0  0  0
   21.7502   -8.5589  -16.3063 N   0  0  0  0  0  0  0  0  0  0  0  0
   22.4973   -9.8173  -16.2720 C   0  0  1  0  0  0  0  0  0  0  0  0
   21.6664  -10.9073  -16.9187 C   0  0  0  0  0  0  0  0  0  0  0  0
   20.5094  -11.3256  -16.0511 C   0  0  0  0  0  0  0  0  0  0  0  0
   20.5525  -12.4077  -15.1802 C   0  0  0  0  0  0  0  0  0  0  0  0
   19.3603  -12.4684  -14.5908 N   0  0  0  0  0  0  0  0  0  0  0  0
   18.5868  -11.4737  -15.0592 C   0  0  0  0  0  0  0  0  0  0  0  0
   19.2935  -10.7847  -15.9459 N   0  0  0  0  0  0  0  0  0  0  0  0
   23.7177   -9.6314  -17.0788 C   0  0  0  0  0  0  0  0  0  0  0  0
   23.7127   -8.7584  -18.0175 O   0  0  0  0  0  0  0  0  0  0  0  0
   24.9017  -10.3586  -16.8791 N   0  0  0  0  0  0  0  0  0  0  0  0
   25.0308  -11.4290  -15.8701 C   0  0  0  0  0  0  0  0  0  0  0  0
   26.3069  -11.0192  -15.1734 C   0  0  0  0  0  0  0  0  0  0  0  0
   27.1366  -10.4451  -16.2836 C   0  0  0  0  0  0  0  0  0  0  0  0
   26.2077  -10.3099  -17.4801 C   0  0  1  0  0  0  0  0  0  0  0  0
   26.3967  -11.5098  -18.3826 C   0  0  0  0  0  0  0  0  0  0  0  0
   25.6425  -12.5023  -18.2686 O   0  0  0  0  0  0  0  0  0  0  0  0
   27.3859  -11.5647  -19.3493 O   0  0  0  0  0  0  0  0  0  0  0  0
  2  4  1  0
  2  1  1  0
  3  2  2  0
  5  4  1  0
  6  8  1  0
  6  5  1  0
  6  7  1  1
  8  9  2  0
 10 11  1  0
 10  8  1  0
 11 12  1  6
 12 13  1  0
 13 14  2  0
 13 17  1  0
 14 15  1  0
 15 16  1  0
 17 16  2  0
 18 20  1  0
 18 11  1  0
 19 18  2  0
 20 24  1  0
 21 22  1  0
 21 20  1  0
 22 23  1  0
 23 24  1  0
 24 25  1  6
 25 27  1  0
 26 25  2  0
M  END
$$$$
