QHP.pdb
     RDKit          3D

 27 28  0  0  1  0  0  0  0  0999 V2000
   27.3609  -35.6610  -17.0681 N   0  0  0  0  0  0  0  0  0  0  0  0
   28.7646  -35.5784  -17.4145 C   0  0  0  0  0  0  0  0  0  0  0  0
   29.2702  -36.6023  -17.9021 O   0  0  0  0  0  0  0  0  0  0  0  0
   29.5262  -34.3484  -17.1896 C   0  0  0  0  0  0  0  0  0  0  0  0
   28.8008  -33.2724  -16.5028 C   0  0  0  0  0  0  0  0  0  0  0  0
   29.4347  -31.9428  -16.3570 C   0  0  2  0  0  0  0  0  0  0  0  0
   28.3911  -31.0166  -15.8068 N   0  0  0  0  0  0  0  0  0  0  0  0
   29.9809  -31.2831  -17.5291 C   0  0  0  0  0  0  0  0  0  0  0  0
   30.6878  -31.8865  -18.3772 O   0  0  0  0  0  0  0  0  0  0  0  0
   29.7295  -29.8923  -17.7801 N   0  0  0  0  0  0  0  0  0  0  0  0
   30.2856  -29.1909  -18.9384 C   0  0  1  0  0  0  0  0  0  0  0  0
   29.6249  -27.8325  -19.0622 C   0  0  0  0  0  0  0  0  0  0  0  0
   28.2374  -27.9295  -19.6382 C   0  0  0  0  0  0  0  0  0  0  0  0
   27.6854  -29.1101  -20.1205 C   0  0  0  0  0  0  0  0  0  0  0  0
   26.4593  -28.8106  -20.5440 N   0  0  0  0  0  0  0  0  0  0  0  0
   26.2326  -27.5007  -20.3443 C   0  0  0  0  0  0  0  0  0  0  0  0
   27.3186  -26.9737  -19.7936 N   0  0  0  0  0  0  0  0  0  0  0  0
   31.7226  -28.9802  -18.6823 C   0  0  0  0  0  0  0  0  0  0  0  0
   32.1413  -28.9732  -17.4708 O   0  0  0  0  0  0  0  0  0  0  0  0
   32.6742  -28.7868  -19.6960 N   0  0  0  0  0  0  0  0  0  0  0  0
   32.3297  -28.7596  -21.1317 C   0  0  0  0  0  0  0  0  0  0  0  0
   33.3483  -29.7234  -21.6932 C   0  0  0  0  0  0  0  0  0  0  0  0
   34.5611  -29.4754  -20.8457 C   0  0  0  0  0  0  0  0  0  0  0  0
   34.1000  -28.5969  -19.6933 C   0  0  1  0  0  0  0  0  0  0  0  0
   34.4212  -27.1547  -20.0202 C   0  0  0  0  0  0  0  0  0  0  0  0
   35.5867  -26.7242  -19.8682 O   0  0  0  0  0  0  0  0  0  0  0  0
   33.4671  -26.2682  -20.4890 O   0  0  0  0  0  0  0  0  0  0  0  0
  2  4  1  0
  2  1  1  0
  3  2  2  0
  5  4  1  0
  6  8  1  0
  6  5  1  0
  6  7  1  6
  8  9  2  0
 10 11  1  0
 10  8  1  0
 11 12  1  1
 12 13  1  0
 13 14  2  0
 13 17  1  0
 14 15  1  0
 15 16  1  0
 17 16  2  0
 18 20  1  0
 18 11  1  0
 19 18  2  0
 20 24  1  0
 21 22  1  0
 21 20  1  0
 22 23  1  0
 23 24  1  0
 24 25  1  6
 25 27  1  0
 26 25  2  0
M  END
$$$$
