QHP.pdb
     RDKit          3D

 27 28  0  0  1  0  0  0  0  0999 V2000
   24.2626  -36.7094  -13.3207 N   0  0  0  0  0  0  0  0  0  0  0  0
   24.8946  -36.0848  -14.4643 C   0  0  0  0  0  0  0  0  0  0  0  0
   26.0349  -36.4863  -14.7478 O   0  0  0  0  0  0  0  0  0  0  0  0
   24.2109  -35.0379  -15.2260 C   0  0  0  0  0  0  0  0  0  0  0  0
   22.8605  -34.6975  -14.7610 C   0  0  0  0  0  0  0  0  0  0  0  0
   22.5839  -33.3323  -14.2607 C   0  0  2  0  0  0  0  0  0  0  0  0
   22.9717  -32.3779  -15.3509 N   0  0  0  0  0  0  0  0  0  0  0  0
   23.2536  -32.8656  -13.0601 C   0  0  0  0  0  0  0  0  0  0  0  0
   24.3870  -32.3201  -13.0864 O   0  0  0  0  0  0  0  0  0  0  0  0
   22.6398  -33.0023  -11.7697 N   0  0  0  0  0  0  0  0  0  0  0  0
   23.2656  -32.4990  -10.5458 C   0  0  1  0  0  0  0  0  0  0  0  0
   22.1875  -32.0045   -9.6025 C   0  0  0  0  0  0  0  0  0  0  0  0
   21.5491  -30.7319  -10.0916 C   0  0  0  0  0  0  0  0  0  0  0  0
   22.2429  -29.5404  -10.2653 C   0  0  0  0  0  0  0  0  0  0  0  0
   21.3590  -28.6470  -10.7046 N   0  0  0  0  0  0  0  0  0  0  0  0
   20.1543  -29.2344  -10.8087 C   0  0  0  0  0  0  0  0  0  0  0  0
   20.2796  -30.5011  -10.4341 N   0  0  0  0  0  0  0  0  0  0  0  0
   23.9548  -33.6322   -9.9009 C   0  0  0  0  0  0  0  0  0  0  0  0
   23.6253  -34.8263  -10.2307 O   0  0  0  0  0  0  0  0  0  0  0  0
   24.9645  -33.4833   -8.9371 N   0  0  0  0  0  0  0  0  0  0  0  0
   25.3162  -32.1835   -8.3311 C   0  0  0  0  0  0  0  0  0  0  0  0
   26.8171  -32.1802   -8.5012 C   0  0  0  0  0  0  0  0  0  0  0  0
   27.1885  -33.6213   -8.3117 C   0  0  0  0  0  0  0  0  0  0  0  0
   25.8818  -34.3991   -8.3136 C   0  0  1  0  0  0  0  0  0  0  0  0
   25.4588  -34.6460   -6.8818 C   0  0  0  0  0  0  0  0  0  0  0  0
   24.6633  -33.8590   -6.3208 O   0  0  0  0  0  0  0  0  0  0  0  0
   25.9198  -35.7236   -6.1454 O   0  0  0  0  0  0  0  0  0  0  0  0
  2  4  1  0
  2  1  1  0
  3  2  2  0
  5  4  1  0
  6  8  1  0
  6  5  1  0
  6  7  1  6
  8  9  2  0
 10 11  1  0
 10  8  1  0
 11 12  1  1
 12 13  1  0
 13 14  2  0
 13 17  1  0
 14 15  1  0
 15 16  1  0
 17 16  2  0
 18 20  1  0
 18 11  1  0
 19 18  2  0
 20 24  1  0
 21 22  1  0
 21 20  1  0
 22 23  1  0
 23 24  1  0
 24 25  1  1
 25 27  1  0
 26 25  2  0
M  END
$$$$
