QHP.pdb
     RDKit          3D

 27 28  0  0  1  0  0  0  0  0999 V2000
   14.9890  -12.0779  -17.0029 N   0  0  0  0  0  0  0  0  0  0  0  0
   15.1077  -12.9704  -18.1373 C   0  0  0  0  0  0  0  0  0  0  0  0
   14.0505  -13.2576  -18.7219 O   0  0  0  0  0  0  0  0  0  0  0  0
   16.4101  -13.4961  -18.5508 C   0  0  0  0  0  0  0  0  0  0  0  0
   17.5540  -13.0602  -17.7401 C   0  0  0  0  0  0  0  0  0  0  0  0
   18.9105  -13.5533  -18.0681 C   0  0  2  0  0  0  0  0  0  0  0  0
   18.9560  -15.0024  -17.6838 N   0  0  0  0  0  0  0  0  0  0  0  0
   20.0634  -12.9338  -17.4400 C   0  0  0  0  0  0  0  0  0  0  0  0
   20.4364  -13.2247  -16.2742 O   0  0  0  0  0  0  0  0  0  0  0  0
   20.8455  -11.9507  -18.1346 N   0  0  0  0  0  0  0  0  0  0  0  0
   21.9379  -11.2191  -17.4909 C   0  0  1  0  0  0  0  0  0  0  0  0
   22.8010  -10.5741  -18.5567 C   0  0  0  0  0  0  0  0  0  0  0  0
   23.9359   -9.7835  -17.9623 C   0  0  0  0  0  0  0  0  0  0  0  0
   23.9496   -8.3961  -17.8850 C   0  0  0  0  0  0  0  0  0  0  0  0
   25.1002   -8.0594  -17.3061 N   0  0  0  0  0  0  0  0  0  0  0  0
   25.7940   -9.1757  -17.0242 C   0  0  0  0  0  0  0  0  0  0  0  0
   25.0787  -10.2183  -17.4266 N   0  0  0  0  0  0  0  0  0  0  0  0
   21.3354  -10.1466  -16.6775 C   0  0  0  0  0  0  0  0  0  0  0  0
   20.2149   -9.6449  -17.0460 O   0  0  0  0  0  0  0  0  0  0  0  0
   21.9188   -9.6352  -15.5076 N   0  0  0  0  0  0  0  0  0  0  0  0
   23.2623  -10.0282  -15.0375 C   0  0  0  0  0  0  0  0  0  0  0  0
   22.9777  -10.3648  -13.5927 C   0  0  0  0  0  0  0  0  0  0  0  0
   21.9228   -9.3697  -13.2084 C   0  0  0  0  0  0  0  0  0  0  0  0
   21.4735   -8.7082  -14.5019 C   0  0  1  0  0  0  0  0  0  0  0  0
   22.2090   -7.3952  -14.6597 C   0  0  0  0  0  0  0  0  0  0  0  0
   23.2251   -7.3318  -15.3881 O   0  0  0  0  0  0  0  0  0  0  0  0
   21.8045   -6.2349  -14.0225 O   0  0  0  0  0  0  0  0  0  0  0  0
  2  4  1  0
  2  1  1  0
  3  2  2  0
  5  4  1  0
  6  8  1  0
  6  5  1  0
  6  7  1  1
  8  9  2  0
 10 11  1  0
 10  8  1  0
 11 12  1  6
 12 13  1  0
 13 14  2  0
 13 17  1  0
 14 15  1  0
 15 16  1  0
 17 16  2  0
 18 20  1  0
 18 11  1  0
 19 18  2  0
 20 24  1  0
 21 22  1  0
 21 20  1  0
 22 23  1  0
 23 24  1  0
 24 25  1  6
 25 27  1  0
 26 25  2  0
M  END
$$$$
