QHP.pdb
     RDKit          3D

 27 28  0  0  1  0  0  0  0  0999 V2000
   19.0210  -17.3210  -16.7494 N   0  0  0  0  0  0  0  0  0  0  0  0
   17.6257  -17.0317  -17.0079 C   0  0  0  0  0  0  0  0  0  0  0  0
   16.9462  -17.9677  -17.4595 O   0  0  0  0  0  0  0  0  0  0  0  0
   17.0701  -15.7022  -16.7484 C   0  0  0  0  0  0  0  0  0  0  0  0
   18.0116  -14.7205  -16.1957 C   0  0  0  0  0  0  0  0  0  0  0  0
   18.1517  -13.3980  -16.8456 C   0  0  2  0  0  0  0  0  0  0  0  0
   18.4193  -13.6494  -18.2999 N   0  0  0  0  0  0  0  0  0  0  0  0
   19.1922  -12.4912  -16.3957 C   0  0  0  0  0  0  0  0  0  0  0  0
   19.2883  -12.1118  -15.1999 O   0  0  0  0  0  0  0  0  0  0  0  0
   20.1772  -11.9838  -17.3083 N   0  0  0  0  0  0  0  0  0  0  0  0
   21.2606  -11.0972  -16.8804 C   0  0  1  0  0  0  0  0  0  0  0  0
   22.2792  -10.9811  -17.9966 C   0  0  0  0  0  0  0  0  0  0  0  0
   23.4210  -10.0723  -17.6270 C   0  0  0  0  0  0  0  0  0  0  0  0
   24.5712  -10.5063  -16.9791 C   0  0  0  0  0  0  0  0  0  0  0  0
   25.3455   -9.4349  -16.8216 N   0  0  0  0  0  0  0  0  0  0  0  0
   24.7243   -8.3627  -17.3427 C   0  0  0  0  0  0  0  0  0  0  0  0
   23.5557   -8.7597  -17.8298 N   0  0  0  0  0  0  0  0  0  0  0  0
   20.6775   -9.7621  -16.6510 C   0  0  0  0  0  0  0  0  0  0  0  0
   19.7534   -9.3466  -17.4363 O   0  0  0  0  0  0  0  0  0  0  0  0
   21.0745   -8.9071  -15.6109 N   0  0  0  0  0  0  0  0  0  0  0  0
   22.1675   -9.2312  -14.6725 C   0  0  0  0  0  0  0  0  0  0  0  0
   21.5019   -8.9560  -13.3448 C   0  0  0  0  0  0  0  0  0  0  0  0
   20.6147   -7.7829  -13.6407 C   0  0  0  0  0  0  0  0  0  0  0  0
   20.6138   -7.6236  -15.1531 C   0  0  1  0  0  0  0  0  0  0  0  0
   21.6194   -6.5581  -15.5321 C   0  0  0  0  0  0  0  0  0  0  0  0
   22.7729   -6.8868  -15.8902 O   0  0  0  0  0  0  0  0  0  0  0  0
   21.3191   -5.2073  -15.5004 O   0  0  0  0  0  0  0  0  0  0  0  0
  2  4  1  0
  2  1  1  0
  3  2  2  0
  5  4  1  0
  6  8  1  0
  6  5  1  0
  6  7  1  6
  8  9  2  0
 10 11  1  0
 10  8  1  0
 11 12  1  6
 12 13  1  0
 13 14  2  0
 13 17  1  0
 14 15  1  0
 15 16  1  0
 17 16  2  0
 18 20  1  0
 18 11  1  0
 19 18  2  0
 20 24  1  0
 21 22  1  0
 21 20  1  0
 22 23  1  0
 23 24  1  0
 24 25  1  1
 25 27  1  0
 26 25  2  0
M  END
$$$$
