QHP.pdb
     RDKit          3D

 27 28  0  0  1  0  0  0  0  0999 V2000
   29.1119  -20.6574  -22.0308 N   0  0  0  0  0  0  0  0  0  0  0  0
   29.5292  -19.4783  -21.3008 C   0  0  0  0  0  0  0  0  0  0  0  0
   30.3796  -18.7628  -21.8547 O   0  0  0  0  0  0  0  0  0  0  0  0
   28.9702  -19.1692  -19.9834 C   0  0  0  0  0  0  0  0  0  0  0  0
   28.1083  -20.2067  -19.4032 C   0  0  0  0  0  0  0  0  0  0  0  0
   26.6827  -19.9078  -19.1406 C   0  0  2  0  0  0  0  0  0  0  0  0
   26.3219  -18.7172  -19.9786 N   0  0  0  0  0  0  0  0  0  0  0  0
   26.2599  -19.5913  -17.7883 C   0  0  0  0  0  0  0  0  0  0  0  0
   26.9719  -18.9215  -16.9963 O   0  0  0  0  0  0  0  0  0  0  0  0
   24.9877  -20.0302  -17.2888 N   0  0  0  0  0  0  0  0  0  0  0  0
   24.5707  -19.8106  -15.9029 C   0  0  1  0  0  0  0  0  0  0  0  0
   23.0637  -19.9420  -15.8097 C   0  0  0  0  0  0  0  0  0  0  0  0
   22.5770  -19.8661  -14.3872 C   0  0  0  0  0  0  0  0  0  0  0  0
   22.2119  -20.9784  -13.6385 C   0  0  0  0  0  0  0  0  0  0  0  0
   21.8396  -20.5259  -12.4431 N   0  0  0  0  0  0  0  0  0  0  0  0
   21.9590  -19.1871  -12.4228 C   0  0  0  0  0  0  0  0  0  0  0  0
   22.4077  -18.7952  -13.6083 N   0  0  0  0  0  0  0  0  0  0  0  0
   25.1755  -20.8768  -15.0829 C   0  0  0  0  0  0  0  0  0  0  0  0
   25.2161  -22.0698  -15.5500 O   0  0  0  0  0  0  0  0  0  0  0  0
   25.7194  -20.6638  -13.8064 N   0  0  0  0  0  0  0  0  0  0  0  0
   25.6859  -19.3552  -13.1231 C   0  0  0  0  0  0  0  0  0  0  0  0
   27.1296  -19.2096  -12.7033 C   0  0  0  0  0  0  0  0  0  0  0  0
   27.5360  -20.6154  -12.3731 C   0  0  0  0  0  0  0  0  0  0  0  0
   26.4106  -21.5093  -12.8703 C   0  0  1  0  0  0  0  0  0  0  0  0
   25.4968  -21.8350  -11.7089 C   0  0  0  0  0  0  0  0  0  0  0  0
   25.8721  -22.6374  -10.8245 O   0  0  0  0  0  0  0  0  0  0  0  0
   24.2372  -21.2770  -11.5745 O   0  0  0  0  0  0  0  0  0  0  0  0
  2  4  1  0
  2  1  1  0
  3  2  2  0
  5  4  1  0
  6  8  1  0
  6  5  1  0
  6  7  1  6
  8  9  2  0
 10 11  1  0
 10  8  1  0
 11 12  1  6
 12 13  1  0
 13 14  2  0
 13 17  1  0
 14 15  1  0
 15 16  1  0
 17 16  2  0
 18 20  1  0
 18 11  1  0
 19 18  2  0
 20 24  1  0
 21 22  1  0
 21 20  1  0
 22 23  1  0
 23 24  1  0
 24 25  1  1
 25 27  1  0
 26 25  2  0
M  END
$$$$
