QHP.pdb
     RDKit          3D

 27 28  0  0  1  0  0  0  0  0999 V2000
   27.1936  -19.3824  -17.2026 N   0  0  0  0  0  0  0  0  0  0  0  0
   27.2688  -17.9383  -17.1238 C   0  0  0  0  0  0  0  0  0  0  0  0
   28.2909  -17.4704  -16.5964 O   0  0  0  0  0  0  0  0  0  0  0  0
   26.1868  -17.0971  -17.6389 C   0  0  0  0  0  0  0  0  0  0  0  0
   25.0412  -17.8184  -18.2073 C   0  0  0  0  0  0  0  0  0  0  0  0
   23.7018  -17.6551  -17.5989 C   0  0  2  0  0  0  0  0  0  0  0  0
   23.3882  -16.1884  -17.6142 N   0  0  0  0  0  0  0  0  0  0  0  0
   23.4815  -18.0996  -16.2345 C   0  0  0  0  0  0  0  0  0  0  0  0
   23.5830  -17.3272  -15.2467 O   0  0  0  0  0  0  0  0  0  0  0  0
   23.1263  -19.4606  -15.9478 N   0  0  0  0  0  0  0  0  0  0  0  0
   22.9553  -19.9556  -14.5809 C   0  0  1  0  0  0  0  0  0  0  0  0
   22.0689  -21.1848  -14.6038 C   0  0  0  0  0  0  0  0  0  0  0  0
   20.6130  -20.8288  -14.7446 C   0  0  0  0  0  0  0  0  0  0  0  0
   20.1287  -19.5282  -14.6749 C   0  0  0  0  0  0  0  0  0  0  0  0
   18.8101  -19.6046  -14.8418 N   0  0  0  0  0  0  0  0  0  0  0  0
   18.4619  -20.8920  -15.0109 C   0  0  0  0  0  0  0  0  0  0  0  0
   19.5640  -21.6284  -14.9503 N   0  0  0  0  0  0  0  0  0  0  0  0
   24.2845  -20.3580  -14.0847 C   0  0  0  0  0  0  0  0  0  0  0  0
   25.2839  -20.3150  -14.8862 O   0  0  0  0  0  0  0  0  0  0  0  0
   24.5278  -20.7887  -12.7709 N   0  0  0  0  0  0  0  0  0  0  0  0
   23.4627  -20.9316  -11.7582 C   0  0  0  0  0  0  0  0  0  0  0  0
   24.0656  -20.1805  -10.5945 C   0  0  0  0  0  0  0  0  0  0  0  0
   25.5293  -20.4898  -10.7059 C   0  0  0  0  0  0  0  0  0  0  0  0
   25.7181  -21.1642  -12.0559 C   0  0  1  0  0  0  0  0  0  0  0  0
   25.7377  -22.6637  -11.8538 C   0  0  0  0  0  0  0  0  0  0  0  0
   26.7900  -23.2303  -11.4814 O   0  0  0  0  0  0  0  0  0  0  0  0
   24.6237  -23.4574  -12.0663 O   0  0  0  0  0  0  0  0  0  0  0  0
  2  4  1  0
  2  1  1  0
  3  2  2  0
  5  4  1  0
  6  8  1  0
  6  5  1  0
  6  7  1  1
  8  9  2  0
 10 11  1  0
 10  8  1  0
 11 12  1  6
 12 13  1  0
 13 14  2  0
 13 17  1  0
 14 15  1  0
 15 16  1  0
 17 16  2  0
 18 20  1  0
 18 11  1  0
 19 18  2  0
 20 24  1  0
 21 22  1  0
 21 20  1  0
 22 23  1  0
 23 24  1  0
 24 25  1  1
 25 27  1  0
 26 25  2  0
M  END
$$$$
