QHP.pdb
     RDKit          3D

 27 28  0  0  1  0  0  0  0  0999 V2000
   32.1475  -25.3872  -16.9555 N   0  0  0  0  0  0  0  0  0  0  0  0
   31.8010  -24.8771  -18.2658 C   0  0  0  0  0  0  0  0  0  0  0  0
   32.5252  -25.2428  -19.2058 O   0  0  0  0  0  0  0  0  0  0  0  0
   30.6597  -23.9783  -18.4481 C   0  0  0  0  0  0  0  0  0  0  0  0
   29.9116  -23.6510  -17.2278 C   0  0  0  0  0  0  0  0  0  0  0  0
   28.7559  -22.7296  -17.3058 C   0  0  2  0  0  0  0  0  0  0  0  0
   28.9732  -21.8527  -18.5030 N   0  0  0  0  0  0  0  0  0  0  0  0
   28.4836  -21.8349  -16.1955 C   0  0  0  0  0  0  0  0  0  0  0  0
   29.3520  -21.0542  -15.7271 O   0  0  0  0  0  0  0  0  0  0  0  0
   27.1889  -21.7960  -15.5767 N   0  0  0  0  0  0  0  0  0  0  0  0
   26.9080  -20.9782  -14.3955 C   0  0  1  0  0  0  0  0  0  0  0  0
   26.7686  -19.5286  -14.8152 C   0  0  0  0  0  0  0  0  0  0  0  0
   25.8484  -19.3684  -15.9958 C   0  0  0  0  0  0  0  0  0  0  0  0
   25.2792  -20.4368  -16.6783 C   0  0  0  0  0  0  0  0  0  0  0  0
   24.5345  -19.9132  -17.6498 N   0  0  0  0  0  0  0  0  0  0  0  0
   24.6198  -18.5728  -17.5957 C   0  0  0  0  0  0  0  0  0  0  0  0
   25.4203  -18.2510  -16.5877 N   0  0  0  0  0  0  0  0  0  0  0  0
   25.6141  -21.4228  -13.8450 C   0  0  0  0  0  0  0  0  0  0  0  0
   24.8969  -22.2361  -14.5285 O   0  0  0  0  0  0  0  0  0  0  0  0
   25.1128  -21.0074  -12.6013 N   0  0  0  0  0  0  0  0  0  0  0  0
   25.7258  -19.9257  -11.8046 C   0  0  0  0  0  0  0  0  0  0  0  0
   25.8364  -20.5883  -10.4517 C   0  0  0  0  0  0  0  0  0  0  0  0
   24.6062  -21.4445  -10.3857 C   0  0  0  0  0  0  0  0  0  0  0  0
   24.0094  -21.4367  -11.7844 C   0  0  1  0  0  0  0  0  0  0  0  0
   22.9052  -20.4034  -11.8381 C   0  0  0  0  0  0  0  0  0  0  0  0
   23.1558  -19.2409  -12.2289 O   0  0  0  0  0  0  0  0  0  0  0  0
   21.6023  -20.6873  -11.4667 O   0  0  0  0  0  0  0  0  0  0  0  0
  2  4  1  0
  2  1  1  0
  3  2  2  0
  5  4  1  0
  6  8  1  0
  6  5  1  0
  6  7  1  6
  8  9  2  0
 10 11  1  0
 10  8  1  0
 11 12  1  6
 12 13  1  0
 13 14  2  0
 13 17  1  0
 14 15  1  0
 15 16  1  0
 17 16  2  0
 18 20  1  0
 18 11  1  0
 19 18  2  0
 20 24  1  0
 21 22  1  0
 21 20  1  0
 22 23  1  0
 23 24  1  0
 24 25  1  1
 25 27  1  0
 26 25  2  0
M  END
$$$$
