TKD.pdb
     RDKit          3D

 25 24  0  0  1  0  0  0  0  0999 V2000
   26.4436  -10.2023  -14.8467 C   0  0  0  0  0  0  0  0  0  0  0  0
   26.7537  -11.0129  -16.0758 C   0  0  1  0  0  0  0  0  0  0  0  0
   27.8638  -11.8171  -15.8998 O   0  0  0  0  0  0  0  0  0  0  0  0
   25.5669  -11.8938  -16.4084 C   0  0  2  0  0  0  0  0  0  0  0  0
   25.9319  -12.6891  -17.5550 N   0  0  0  0  0  0  0  0  0  0  0  0
   24.3916  -11.0634  -16.7805 C   0  0  0  0  0  0  0  0  0  0  0  0
   24.3218  -10.6302  -17.9362 O   0  0  0  0  0  0  0  0  0  0  0  0
   23.3615  -10.7536  -15.8722 N   0  0  0  0  0  0  0  0  0  0  0  0
   22.2102   -9.9575  -16.1492 C   0  0  1  0  0  0  0  0  0  0  0  0
   20.8884  -10.6078  -15.8491 C   0  0  0  0  0  0  0  0  0  0  0  0
   20.5920  -11.7446  -16.8313 C   0  0  0  0  0  0  0  0  0  0  0  0
   19.2286  -12.3184  -16.4205 C   0  0  0  0  0  0  0  0  0  0  0  0
   18.8917  -13.5036  -17.2908 C   0  0  0  0  0  0  0  0  0  0  0  0
   17.6295  -14.0441  -16.7907 N   0  0  0  0  0  0  0  0  0  0  0  0
   22.2157   -8.6615  -15.3934 C   0  0  0  0  0  0  0  0  0  0  0  0
   22.3537   -8.6919  -14.1434 O   0  0  0  0  0  0  0  0  0  0  0  0
   22.0737   -7.4045  -16.0139 N   0  0  0  0  0  0  0  0  0  0  0  0
   22.0786   -6.1433  -15.2917 C   0  0  1  0  0  0  0  0  0  0  0  0
   22.3213   -4.9726  -16.2088 C   0  0  0  0  0  0  0  0  0  0  0  0
   22.2362   -3.6735  -15.4945 C   0  0  0  0  0  0  0  0  0  0  0  0
   22.5794   -3.6684  -14.2851 O   0  0  0  0  0  0  0  0  0  0  0  0
   20.7265   -5.9689  -14.7021 C   0  0  0  0  0  0  0  0  0  0  0  0
   20.5248   -5.2768  -13.5194 O   0  0  0  0  0  0  0  0  0  0  0  0
   21.8137   -2.4994  -16.0626 O   0  0  0  0  0  0  0  0  0  0  0  0
   19.7287   -6.4505  -15.2703 O   0  0  0  0  0  0  0  0  0  0  0  0
  2  1  1  1
  2  3  1  0
  4  6  1  0
  4  2  1  0
  4  5  1  6
  6  7  2  0
  8  9  1  0
  8  6  1  0
  9 15  1  0
  9 10  1  1
 11 10  1  0
 12 11  1  0
 12 13  1  0
 13 14  1  0
 15 16  2  0
 17 15  1  0
 17 18  1  0
 18 22  1  0
 18 19  1  6
 20 19  1  0
 21 20  2  0
 22 25  2  0
 22 23  1  0
 24 20  1  0
M  END
$$$$
