TKD.pdb
     RDKit          3D

 25 24  0  0  1  0  0  0  0  0999 V2000
   23.6112  -21.4914   -9.9313 C   0  0  0  0  0  0  0  0  0  0  0  0
   24.7339  -20.5583   -9.5668 C   0  0  1  0  0  0  0  0  0  0  0  0
   25.1057  -20.6874   -8.2420 O   0  0  0  0  0  0  0  0  0  0  0  0
   25.9371  -20.8569  -10.4375 C   0  0  2  0  0  0  0  0  0  0  0  0
   27.0168  -20.0179   -9.9784 N   0  0  0  0  0  0  0  0  0  0  0  0
   25.6533  -20.5065  -11.8539 C   0  0  0  0  0  0  0  0  0  0  0  0
   25.6666  -19.3134  -12.1769 O   0  0  0  0  0  0  0  0  0  0  0  0
   25.3717  -21.4760  -12.8351 N   0  0  0  0  0  0  0  0  0  0  0  0
   24.9437  -21.2174  -14.1715 C   0  0  1  0  0  0  0  0  0  0  0  0
   25.4243  -22.1981  -15.2045 C   0  0  0  0  0  0  0  0  0  0  0  0
   26.8779  -21.9226  -15.5993 C   0  0  0  0  0  0  0  0  0  0  0  0
   27.1968  -22.8860  -16.7513 C   0  0  0  0  0  0  0  0  0  0  0  0
   28.6578  -22.7820  -17.1125 C   0  0  0  0  0  0  0  0  0  0  0  0
   28.8992  -23.7666  -18.1649 N   0  0  0  0  0  0  0  0  0  0  0  0
   23.4490  -21.1825  -14.2967 C   0  0  0  0  0  0  0  0  0  0  0  0
   22.7697  -22.0289  -13.6606 O   0  0  0  0  0  0  0  0  0  0  0  0
   22.7620  -20.2458  -15.0941 N   0  0  0  0  0  0  0  0  0  0  0  0
   21.3150  -20.1122  -15.1157 C   0  0  1  0  0  0  0  0  0  0  0  0
   20.8835  -18.6704  -15.0407 C   0  0  0  0  0  0  0  0  0  0  0  0
   19.4164  -18.5145  -15.2093 C   0  0  0  0  0  0  0  0  0  0  0  0
   18.7327  -19.5694  -15.2247 O   0  0  0  0  0  0  0  0  0  0  0  0
   20.8434  -20.6465  -16.4189 C   0  0  0  0  0  0  0  0  0  0  0  0
   19.6222  -21.2865  -16.5515 O   0  0  0  0  0  0  0  0  0  0  0  0
   18.7724  -17.3120  -15.3470 O   0  0  0  0  0  0  0  0  0  0  0  0
   21.5501  -20.5274  -17.4371 O   0  0  0  0  0  0  0  0  0  0  0  0
  2  1  1  6
  2  3  1  0
  4  6  1  0
  4  2  1  0
  4  5  1  1
  6  7  2  0
  8  9  1  0
  8  6  1  0
  9 15  1  0
  9 10  1  6
 11 10  1  0
 12 11  1  0
 12 13  1  0
 13 14  1  0
 15 16  2  0
 17 15  1  0
 17 18  1  0
 18 22  1  0
 18 19  1  6
 20 19  1  0
 21 20  2  0
 22 25  2  0
 22 23  1  0
 24 20  1  0
M  END
$$$$
