TKD.pdb
     RDKit          3D

 25 24  0  0  1  0  0  0  0  0999 V2000
   15.7600   -5.3340   -8.7039 C   0  0  0  0  0  0  0  0  0  0  0  0
   15.1123   -5.9472   -7.4921 C   0  0  1  0  0  0  0  0  0  0  0  0
   14.3079   -5.0450   -6.8220 O   0  0  0  0  0  0  0  0  0  0  0  0
   14.2631   -7.1266   -7.9199 C   0  0  2  0  0  0  0  0  0  0  0  0
   13.8054   -7.7824   -6.7196 N   0  0  0  0  0  0  0  0  0  0  0  0
   15.0779   -8.1001   -8.6933 C   0  0  0  0  0  0  0  0  0  0  0  0
   15.8832   -8.8092   -8.0795 O   0  0  0  0  0  0  0  0  0  0  0  0
   14.9677   -8.2440  -10.0894 N   0  0  0  0  0  0  0  0  0  0  0  0
   15.7433   -9.1198  -10.9062 C   0  0  1  0  0  0  0  0  0  0  0  0
   14.9550  -10.0294  -11.8069 C   0  0  0  0  0  0  0  0  0  0  0  0
   15.8747  -10.9706  -12.5899 C   0  0  0  0  0  0  0  0  0  0  0  0
   14.9539  -11.8536  -13.4440 C   0  0  0  0  0  0  0  0  0  0  0  0
   15.7845  -12.7808  -14.2962 C   0  0  0  0  0  0  0  0  0  0  0  0
   14.8464  -13.5715  -15.0900 N   0  0  0  0  0  0  0  0  0  0  0  0
   16.6953   -8.3776  -11.7970 C   0  0  0  0  0  0  0  0  0  0  0  0
   16.2463   -7.4567  -12.5270 O   0  0  0  0  0  0  0  0  0  0  0  0
   18.0744   -8.6595  -11.8594 N   0  0  0  0  0  0  0  0  0  0  0  0
   19.0220   -7.8825  -12.6408 C   0  0  1  0  0  0  0  0  0  0  0  0
   20.4078   -8.4722  -12.5902 C   0  0  0  0  0  0  0  0  0  0  0  0
   21.3780   -7.6951  -13.4023 C   0  0  0  0  0  0  0  0  0  0  0  0
   21.0839   -6.4967  -13.6429 O   0  0  0  0  0  0  0  0  0  0  0  0
   18.5722   -7.9339  -14.0554 C   0  0  0  0  0  0  0  0  0  0  0  0
   18.3636   -9.1330  -14.7164 O   0  0  0  0  0  0  0  0  0  0  0  0
   22.5547   -8.1949  -13.8976 O   0  0  0  0  0  0  0  0  0  0  0  0
   18.3700   -6.8800  -14.6869 O   0  0  0  0  0  0  0  0  0  0  0  0
  2  1  1  6
  2  3  1  0
  4  6  1  0
  4  2  1  0
  4  5  1  1
  6  7  2  0
  8  9  1  0
  8  6  1  0
  9 15  1  0
  9 10  1  6
 11 10  1  0
 12 11  1  0
 12 13  1  0
 13 14  1  0
 15 16  2  0
 17 15  1  0
 17 18  1  0
 18 22  1  0
 18 19  1  6
 20 19  1  0
 21 20  2  0
 22 25  2  0
 22 23  1  0
 24 20  1  0
M  END
$$$$
