TKD.pdb
     RDKit          3D

 25 24  0  0  1  0  0  0  0  0999 V2000
   29.3895  -34.4783   -1.4208 C   0  0  0  0  0  0  0  0  0  0  0  0
   28.2497  -33.6076   -1.8756 C   0  0  1  0  0  0  0  0  0  0  0  0
   27.8732  -33.8843   -3.1763 O   0  0  0  0  0  0  0  0  0  0  0  0
   27.0561  -33.8300   -0.9696 C   0  0  2  0  0  0  0  0  0  0  0  0
   25.9722  -33.0302   -1.4853 N   0  0  0  0  0  0  0  0  0  0  0  0
   27.3562  -33.3627    0.4093 C   0  0  0  0  0  0  0  0  0  0  0  0
   27.3987  -32.1453    0.6197 O   0  0  0  0  0  0  0  0  0  0  0  0
   27.5925  -34.2486    1.4775 N   0  0  0  0  0  0  0  0  0  0  0  0
   27.8869  -33.8795    2.8240 C   0  0  1  0  0  0  0  0  0  0  0  0
   27.2028  -34.6991    3.8824 C   0  0  0  0  0  0  0  0  0  0  0  0
   25.8156  -34.1391    4.2095 C   0  0  0  0  0  0  0  0  0  0  0  0
   25.2165  -35.0756    5.2683 C   0  0  0  0  0  0  0  0  0  0  0  0
   23.8130  -34.6351    5.6022 C   0  0  0  0  0  0  0  0  0  0  0  0
   23.2954  -35.5921    6.5776 N   0  0  0  0  0  0  0  0  0  0  0  0
   29.3542  -33.9505    3.1287 C   0  0  0  0  0  0  0  0  0  0  0  0
   30.0257  -34.8995    2.6480 O   0  0  0  0  0  0  0  0  0  0  0  0
   30.0238  -33.0043    3.9298 N   0  0  0  0  0  0  0  0  0  0  0  0
   31.4587  -33.0141    4.1607 C   0  0  1  0  0  0  0  0  0  0  0  0
   32.0357  -31.6220    4.1649 C   0  0  0  0  0  0  0  0  0  0  0  0
   33.4885  -31.6181    4.4719 C   0  0  0  0  0  0  0  0  0  0  0  0
   34.0485  -32.7388    4.5769 O   0  0  0  0  0  0  0  0  0  0  0  0
   31.6827  -33.5885    5.5120 C   0  0  0  0  0  0  0  0  0  0  0  0
   32.5194  -34.6726    5.7195 O   0  0  0  0  0  0  0  0  0  0  0  0
   34.2441  -30.4873    4.6450 O   0  0  0  0  0  0  0  0  0  0  0  0
   31.1119  -33.0974    6.5037 O   0  0  0  0  0  0  0  0  0  0  0  0
  2  1  1  1
  2  3  1  0
  4  6  1  0
  4  2  1  0
  4  5  1  6
  6  7  2  0
  8  9  1  0
  8  6  1  0
  9 15  1  0
  9 10  1  1
 11 10  1  0
 12 11  1  0
 12 13  1  0
 13 14  1  0
 15 16  2  0
 17 15  1  0
 17 18  1  0
 18 22  1  0
 18 19  1  1
 20 19  1  0
 21 20  2  0
 22 25  2  0
 22 23  1  0
 24 20  1  0
M  END
$$$$
