TKD.pdb
     RDKit          3D

 25 24  0  0  1  0  0  0  0  0999 V2000
   15.1827  -14.8243  -17.5582 C   0  0  0  0  0  0  0  0  0  0  0  0
   15.4510  -15.1942  -16.1247 C   0  0  1  0  0  0  0  0  0  0  0  0
   15.9672  -16.4708  -16.0067 O   0  0  0  0  0  0  0  0  0  0  0  0
   16.4433  -14.2152  -15.5313 C   0  0  2  0  0  0  0  0  0  0  0  0
   16.7907  -14.7006  -14.2183 N   0  0  0  0  0  0  0  0  0  0  0  0
   15.8206  -12.8745  -15.3757 C   0  0  0  0  0  0  0  0  0  0  0  0
   15.4686  -12.2695  -16.3945 O   0  0  0  0  0  0  0  0  0  0  0  0
   15.6180  -12.2716  -14.1197 N   0  0  0  0  0  0  0  0  0  0  0  0
   14.9354  -11.0418  -13.8798 C   0  0  1  0  0  0  0  0  0  0  0  0
   14.0692  -11.0132  -12.6515 C   0  0  0  0  0  0  0  0  0  0  0  0
   12.6263  -11.4075  -12.9790 C   0  0  0  0  0  0  0  0  0  0  0  0
   11.8194  -11.1787  -11.6932 C   0  0  0  0  0  0  0  0  0  0  0  0
   10.3839  -11.5871  -11.9133 C   0  0  0  0  0  0  0  0  0  0  0  0
    9.6708  -11.2934  -10.6721 N   0  0  0  0  0  0  0  0  0  0  0  0
   15.8771   -9.8810  -13.7502 C   0  0  0  0  0  0  0  0  0  0  0  0
   16.6700   -9.8526  -12.7741 O   0  0  0  0  0  0  0  0  0  0  0  0
   15.9201   -8.8145  -14.6700 N   0  0  0  0  0  0  0  0  0  0  0  0
   16.8221   -7.6813  -14.5494 C   0  0  1  0  0  0  0  0  0  0  0  0
   17.8698   -7.6805  -15.6324 C   0  0  0  0  0  0  0  0  0  0  0  0
   18.7871   -6.5177  -15.5245 C   0  0  0  0  0  0  0  0  0  0  0  0
   18.6556   -5.7845  -14.5118 O   0  0  0  0  0  0  0  0  0  0  0  0
   16.0081   -6.4510  -14.7224 C   0  0  0  0  0  0  0  0  0  0  0  0
   16.2810   -5.2859  -14.0250 O   0  0  0  0  0  0  0  0  0  0  0  0
   19.7519   -6.1997  -16.4452 O   0  0  0  0  0  0  0  0  0  0  0  0
   15.0460   -6.4427  -15.5128 O   0  0  0  0  0  0  0  0  0  0  0  0
  2  1  1  6
  2  3  1  0
  4  6  1  0
  4  2  1  0
  4  5  1  1
  6  7  2  0
  8  9  1  0
  8  6  1  0
  9 15  1  0
  9 10  1  1
 11 10  1  0
 12 11  1  0
 12 13  1  0
 13 14  1  0
 15 16  2  0
 17 15  1  0
 17 18  1  0
 18 22  1  0
 18 19  1  6
 20 19  1  0
 21 20  2  0
 22 25  2  0
 22 23  1  0
 24 20  1  0
M  END
$$$$
