TKD.pdb
     RDKit          3D

 25 24  0  0  1  0  0  0  0  0999 V2000
   16.7577  -10.5441  -15.1777 C   0  0  0  0  0  0  0  0  0  0  0  0
   17.4626  -11.8475  -14.9164 C   0  0  1  0  0  0  0  0  0  0  0  0
   16.5799  -12.8547  -14.5749 O   0  0  0  0  0  0  0  0  0  0  0  0
   18.2172  -12.2680  -16.1609 C   0  0  2  0  0  0  0  0  0  0  0  0
   18.8393  -13.5378  -15.8759 N   0  0  0  0  0  0  0  0  0  0  0  0
   19.2919  -11.2895  -16.4723 C   0  0  0  0  0  0  0  0  0  0  0  0
   20.3588  -11.3733  -15.8536 O   0  0  0  0  0  0  0  0  0  0  0  0
   19.1414  -10.2773  -17.4392 N   0  0  0  0  0  0  0  0  0  0  0  0
   20.1278   -9.3134  -17.8051 C   0  0  1  0  0  0  0  0  0  0  0  0
   20.0025   -8.7579  -19.1964 C   0  0  0  0  0  0  0  0  0  0  0  0
   20.2468   -9.8402  -20.2517 C   0  0  0  0  0  0  0  0  0  0  0  0
   20.1432   -9.1390  -21.6135 C   0  0  0  0  0  0  0  0  0  0  0  0
   20.3519  -10.1427  -22.7203 C   0  0  0  0  0  0  0  0  0  0  0  0
   20.2436   -9.4066  -23.9779 N   0  0  0  0  0  0  0  0  0  0  0  0
   20.1386   -8.1285  -16.8850 C   0  0  0  0  0  0  0  0  0  0  0  0
   19.0396   -7.6376  -16.5194 O   0  0  0  0  0  0  0  0  0  0  0  0
   21.3223   -7.5331  -16.4058 N   0  0  0  0  0  0  0  0  0  0  0  0
   21.3447   -6.4344  -15.4546 C   0  0  1  0  0  0  0  0  0  0  0  0
   22.0681   -6.8055  -14.1859 C   0  0  0  0  0  0  0  0  0  0  0  0
   22.2029   -5.6528  -13.2595 C   0  0  0  0  0  0  0  0  0  0  0  0
   21.2628   -5.4668  -12.4458 O   0  0  0  0  0  0  0  0  0  0  0  0
   22.1014   -5.3225  -16.0847 C   0  0  0  0  0  0  0  0  0  0  0  0
   22.2072   -4.0763  -15.4894 O   0  0  0  0  0  0  0  0  0  0  0  0
   23.2710   -4.7935  -13.2371 O   0  0  0  0  0  0  0  0  0  0  0  0
   22.6663   -5.4919  -17.1813 O   0  0  0  0  0  0  0  0  0  0  0  0
  2  1  1  6
  2  3  1  0
  4  6  1  0
  4  2  1  0
  4  5  1  1
  6  7  2  0
  8  9  1  0
  8  6  1  0
  9 15  1  0
  9 10  1  6
 11 10  1  0
 12 11  1  0
 12 13  1  0
 13 14  1  0
 15 16  2  0
 17 15  1  0
 17 18  1  0
 18 22  1  0
 18 19  1  1
 20 19  1  0
 21 20  2  0
 22 25  2  0
 22 23  1  0
 24 20  1  0
M  END
$$$$
