TKD.pdb
     RDKit          3D

 25 24  0  0  1  0  0  0  0  0999 V2000
   15.7189  -10.1263  -16.9271 C   0  0  0  0  0  0  0  0  0  0  0  0
   15.4801  -11.3011  -16.0177 C   0  0  1  0  0  0  0  0  0  0  0  0
   14.2097  -11.8238  -16.1691 O   0  0  0  0  0  0  0  0  0  0  0  0
   16.4895  -12.3878  -16.3265 C   0  0  2  0  0  0  0  0  0  0  0  0
   16.2072  -13.4965  -15.4482 N   0  0  0  0  0  0  0  0  0  0  0  0
   17.8684  -11.9130  -16.0387 C   0  0  0  0  0  0  0  0  0  0  0  0
   18.1828  -11.7035  -14.8617 O   0  0  0  0  0  0  0  0  0  0  0  0
   18.8236  -11.6945  -17.0496 N   0  0  0  0  0  0  0  0  0  0  0  0
   20.1540  -11.2162  -16.8572 C   0  0  1  0  0  0  0  0  0  0  0  0
   21.1438  -11.6186  -17.9147 C   0  0  0  0  0  0  0  0  0  0  0  0
   21.7176  -13.0112  -17.6386 C   0  0  0  0  0  0  0  0  0  0  0  0
   22.7651  -13.2653  -18.7318 C   0  0  0  0  0  0  0  0  0  0  0  0
   23.3605  -14.6403  -18.5569 C   0  0  0  0  0  0  0  0  0  0  0  0
   24.3877  -14.7850  -19.5861 N   0  0  0  0  0  0  0  0  0  0  0  0
   20.2178   -9.7194  -16.7778 C   0  0  0  0  0  0  0  0  0  0  0  0
   19.8867   -9.0463  -17.7876 O   0  0  0  0  0  0  0  0  0  0  0  0
   20.6316   -9.0237  -15.6244 N   0  0  0  0  0  0  0  0  0  0  0  0
   20.6090   -7.5755  -15.5044 C   0  0  1  0  0  0  0  0  0  0  0  0
   19.2064   -7.0288  -15.5715 C   0  0  0  0  0  0  0  0  0  0  0  0
   19.1499   -5.5857  -15.2264 C   0  0  0  0  0  0  0  0  0  0  0  0
   20.1821   -4.9067  -15.4588 O   0  0  0  0  0  0  0  0  0  0  0  0
   21.1507   -7.2369  -14.1635 C   0  0  0  0  0  0  0  0  0  0  0  0
   21.4853   -8.2124  -13.2390 O   0  0  0  0  0  0  0  0  0  0  0  0
   18.0603   -4.9586  -14.6792 O   0  0  0  0  0  0  0  0  0  0  0  0
   21.3178   -6.0467  -13.8379 O   0  0  0  0  0  0  0  0  0  0  0  0
  2  1  1  6
  2  3  1  0
  4  6  1  0
  4  2  1  0
  4  5  1  1
  6  7  2  0
  8  9  1  0
  8  6  1  0
  9 15  1  0
  9 10  1  6
 11 10  1  0
 12 11  1  0
 12 13  1  0
 13 14  1  0
 15 16  2  0
 17 15  1  0
 17 18  1  0
 18 22  1  0
 18 19  1  1
 20 19  1  0
 21 20  2  0
 22 25  2  0
 22 23  1  0
 24 20  1  0
M  END
$$$$
