TKD.pdb
     RDKit          3D

 25 24  0  0  1  0  0  0  0  0999 V2000
   24.0594  -11.4091  -20.2558 C   0  0  0  0  0  0  0  0  0  0  0  0
   23.3925  -12.5337  -19.5113 C   0  0  1  0  0  0  0  0  0  0  0  0
   24.0855  -13.7226  -19.6390 O   0  0  0  0  0  0  0  0  0  0  0  0
   23.3066  -12.1803  -18.0406 C   0  0  2  0  0  0  0  0  0  0  0  0
   22.8194  -13.3476  -17.3475 N   0  0  0  0  0  0  0  0  0  0  0  0
   22.3316  -11.0788  -17.8271 C   0  0  0  0  0  0  0  0  0  0  0  0
   22.3699  -10.1058  -18.5886 O   0  0  0  0  0  0  0  0  0  0  0  0
   21.3724  -11.1017  -16.7968 N   0  0  0  0  0  0  0  0  0  0  0  0
   20.3681  -10.1154  -16.5636 C   0  0  1  0  0  0  0  0  0  0  0  0
   19.0187  -10.6486  -16.1702 C   0  0  0  0  0  0  0  0  0  0  0  0
   18.3822  -11.4479  -17.3108 C   0  0  0  0  0  0  0  0  0  0  0  0
   16.9868  -11.8565  -16.8182 C   0  0  0  0  0  0  0  0  0  0  0  0
   16.3279  -12.7505  -17.8392 C   0  0  0  0  0  0  0  0  0  0  0  0
   14.9845  -13.0357  -17.3400 N   0  0  0  0  0  0  0  0  0  0  0  0
   20.7592   -9.1438  -15.4894 C   0  0  0  0  0  0  0  0  0  0  0  0
   21.3572   -9.5776  -14.4712 O   0  0  0  0  0  0  0  0  0  0  0  0
   20.4903   -7.7626  -15.5616 N   0  0  0  0  0  0  0  0  0  0  0  0
   20.9340   -6.8014  -14.5658 C   0  0  1  0  0  0  0  0  0  0  0  0
   21.8890   -5.7913  -15.1475 C   0  0  0  0  0  0  0  0  0  0  0  0
   22.3431   -4.8022  -14.1373 C   0  0  0  0  0  0  0  0  0  0  0  0
   21.7465   -3.6958  -14.1196 O   0  0  0  0  0  0  0  0  0  0  0  0
   19.7328   -6.0587  -14.1057 C   0  0  0  0  0  0  0  0  0  0  0  0
   19.6153   -5.5826  -12.8103 O   0  0  0  0  0  0  0  0  0  0  0  0
   23.3554   -5.0173  -13.2380 O   0  0  0  0  0  0  0  0  0  0  0  0
   18.7898   -5.8454  -14.8903 O   0  0  0  0  0  0  0  0  0  0  0  0
  2  1  1  6
  2  3  1  0
  4  6  1  0
  4  2  1  0
  4  5  1  1
  6  7  2  0
  8  9  1  0
  8  6  1  0
  9 15  1  0
  9 10  1  1
 11 10  1  0
 12 11  1  0
 12 13  1  0
 13 14  1  0
 15 16  2  0
 17 15  1  0
 17 18  1  0
 18 22  1  0
 18 19  1  6
 20 19  1  0
 21 20  2  0
 22 25  2  0
 22 23  1  0
 24 20  1  0
M  END
$$$$
