TKD.pdb
     RDKit          3D

 25 24  0  0  1  0  0  0  0  0999 V2000
   16.8181   -8.3483  -14.2481 C   0  0  0  0  0  0  0  0  0  0  0  0
   17.7014   -8.2126  -13.0376 C   0  0  1  0  0  0  0  0  0  0  0  0
   17.0946   -8.7010  -11.8959 O   0  0  0  0  0  0  0  0  0  0  0  0
   18.9877   -8.9794  -13.2667 C   0  0  2  0  0  0  0  0  0  0  0  0
   19.7544   -8.9037  -12.0473 N   0  0  0  0  0  0  0  0  0  0  0  0
   19.7841   -8.3461  -14.3503 C   0  0  0  0  0  0  0  0  0  0  0  0
   20.2643   -7.2253  -14.1468 O   0  0  0  0  0  0  0  0  0  0  0  0
   20.0107   -8.9706  -15.5915 N   0  0  0  0  0  0  0  0  0  0  0  0
   20.7047   -8.4032  -16.7017 C   0  0  1  0  0  0  0  0  0  0  0  0
   20.8168   -9.2868  -17.9128 C   0  0  0  0  0  0  0  0  0  0  0  0
   21.5386   -8.5716  -19.0583 C   0  0  0  0  0  0  0  0  0  0  0  0
   22.9753   -9.1127  -19.0607 C   0  0  0  0  0  0  0  0  0  0  0  0
   23.7612   -8.4659  -20.1741 C   0  0  0  0  0  0  0  0  0  0  0  0
   25.0325   -9.1814  -20.2587 N   0  0  0  0  0  0  0  0  0  0  0  0
   20.0765   -7.1263  -17.1768 C   0  0  0  0  0  0  0  0  0  0  0  0
   18.8226   -7.0626  -17.2552 O   0  0  0  0  0  0  0  0  0  0  0  0
   20.8218   -5.9877  -17.5420 N   0  0  0  0  0  0  0  0  0  0  0  0
   20.2227   -4.7351  -17.9714 C   0  0  1  0  0  0  0  0  0  0  0  0
   19.9246   -3.8274  -16.8061 C   0  0  0  0  0  0  0  0  0  0  0  0
   19.3391   -2.5332  -17.2389 C   0  0  0  0  0  0  0  0  0  0  0  0
   20.1365   -1.5731  -17.3905 O   0  0  0  0  0  0  0  0  0  0  0  0
   21.2191   -4.0416  -18.8271 C   0  0  0  0  0  0  0  0  0  0  0  0
   20.9262   -2.8572  -19.4828 O   0  0  0  0  0  0  0  0  0  0  0  0
   18.0056   -2.3240  -17.4792 O   0  0  0  0  0  0  0  0  0  0  0  0
   22.3590   -4.5203  -18.9747 O   0  0  0  0  0  0  0  0  0  0  0  0
  2  1  1  6
  2  3  1  0
  4  6  1  0
  4  2  1  0
  4  5  1  1
  6  7  2  0
  8  9  1  0
  8  6  1  0
  9 15  1  0
  9 10  1  6
 11 10  1  0
 12 11  1  0
 12 13  1  0
 13 14  1  0
 15 16  2  0
 17 15  1  0
 17 18  1  0
 18 22  1  0
 18 19  1  1
 20 19  1  0
 21 20  2  0
 22 25  2  0
 22 23  1  0
 24 20  1  0
M  END
$$$$
