FTK.pdb
     RDKit          3D

 28 28  0  0  1  0  0  0  0  0999 V2000
   21.2422  -19.1372  -14.7544 N   0  0  0  0  0  0  0  0  0  0  0  0
   21.7355  -20.4362  -14.2771 C   0  0  1  0  0  0  0  0  0  0  0  0
   23.2183  -20.4956  -14.6564 C   0  0  0  0  0  0  0  0  0  0  0  0
   23.3538  -20.6960  -16.1139 C   0  0  0  0  0  0  0  0  0  0  0  0
   23.1554  -21.9358  -16.6919 C   0  0  0  0  0  0  0  0  0  0  0  0
   23.2896  -22.0933  -18.0635 C   0  0  0  0  0  0  0  0  0  0  0  0
   23.6201  -21.0346  -18.8814 C   0  0  0  0  0  0  0  0  0  0  0  0
   23.8205  -19.7916  -18.3136 C   0  0  0  0  0  0  0  0  0  0  0  0
   23.6835  -19.6432  -16.9361 C   0  0  0  0  0  0  0  0  0  0  0  0
   21.6822  -20.3961  -12.8012 C   0  0  0  0  0  0  0  0  0  0  0  0
   22.2932  -19.4828  -12.2067 O   0  0  0  0  0  0  0  0  0  0  0  0
   21.0639  -18.8576  -10.4889 C   0  0  0  0  0  0  0  0  0  0  0  0
   20.1736  -20.0181  -10.1165 C   0  0  1  0  0  0  0  0  0  0  0  0
   18.9671  -19.8631  -10.7857 O   0  0  0  0  0  0  0  0  0  0  0  0
   20.8240  -21.2747  -10.5922 C   0  0  2  0  0  0  0  0  0  0  0  0
   20.9829  -21.3272  -12.0275 N   0  0  0  0  0  0  0  0  0  0  0  0
   19.9710  -22.4299  -10.2025 C   0  0  0  0  0  0  0  0  0  0  0  0
   19.4137  -23.1334  -11.1222 O   0  0  0  0  0  0  0  0  0  0  0  0
   19.7000  -22.8516   -8.8908 N   0  0  0  0  0  0  0  0  0  0  0  0
   18.9197  -24.0171   -8.6229 C   0  0  1  0  0  0  0  0  0  0  0  0
   18.8655  -24.3950   -7.1699 C   0  0  0  0  0  0  0  0  0  0  0  0
   18.0833  -25.6391   -6.9030 C   0  0  0  0  0  0  0  0  0  0  0  0
   18.0306  -25.9734   -5.4450 C   0  0  0  0  0  0  0  0  0  0  0  0
   17.1329  -27.1514   -5.1458 C   0  0  0  0  0  0  0  0  0  0  0  0
   17.0082  -27.3630   -3.7159 N   0  0  0  0  0  0  0  0  0  0  0  0
   17.5219  -23.8242   -9.0794 C   0  0  0  0  0  0  0  0  0  0  0  0
   16.9146  -24.8190   -9.5455 O   0  0  0  0  0  0  0  0  0  0  0  0
   16.8676  -22.6092   -9.0137 O   0  0  0  0  0  0  0  0  0  0  0  0
  2  1  1  6
  2  3  1  0
  3  4  1  0
  4  9  2  0
  5  6  2  0
  5  4  1  0
  6  7  1  0
  7  8  2  0
  9  8  1  0
 10  2  1  0
 10 16  1  0
 11 10  2  0
 13 12  1  6
 13 15  1  0
 14 13  1  0
 15 16  1  6
 17 15  1  0
 18 17  2  0
 19 17  1  0
 20 19  1  0
 20 26  1  0
 20 21  1  1
 22 21  1  0
 23 22  1  0
 24 23  1  0
 24 25  1  0
 26 28  1  0
 27 26  2  0
M  END
$$$$
