FTK.pdb
     RDKit          3D

 28 28  0  0  1  0  0  0  0  0999 V2000
   27.8455  -21.8266   -9.8546 N   0  0  0  0  0  0  0  0  0  0  0  0
   26.7252  -20.9678   -9.4473 C   0  0  1  0  0  0  0  0  0  0  0  0
   27.3508  -19.7183   -8.8200 C   0  0  0  0  0  0  0  0  0  0  0  0
   27.7423  -20.0024   -7.4240 C   0  0  0  0  0  0  0  0  0  0  0  0
   29.0231  -20.4121   -7.1043 C   0  0  0  0  0  0  0  0  0  0  0  0
   29.3614  -20.6715   -5.7843 C   0  0  0  0  0  0  0  0  0  0  0  0
   28.4449  -20.5311   -4.7648 C   0  0  0  0  0  0  0  0  0  0  0  0
   27.1624  -20.1223   -5.0737 C   0  0  0  0  0  0  0  0  0  0  0  0
   26.8322  -19.8643   -6.4013 C   0  0  0  0  0  0  0  0  0  0  0  0
   26.0561  -20.5235  -10.6872 C   0  0  0  0  0  0  0  0  0  0  0  0
   26.6185  -19.6585  -11.3917 O   0  0  0  0  0  0  0  0  0  0  0  0
   26.3572  -20.3858  -13.4898 C   0  0  0  0  0  0  0  0  0  0  0  0
   25.0649  -21.1627  -13.5570 C   0  0  1  0  0  0  0  0  0  0  0  0
   25.3692  -22.5107  -13.4236 O   0  0  0  0  0  0  0  0  0  0  0  0
   24.2135  -20.7501  -12.4025 C   0  0  2  0  0  0  0  0  0  0  0  0
   24.8222  -21.0186  -11.1197 N   0  0  0  0  0  0  0  0  0  0  0  0
   22.9389  -21.5160  -12.4525 C   0  0  0  0  0  0  0  0  0  0  0  0
   22.7100  -22.4073  -11.5556 O   0  0  0  0  0  0  0  0  0  0  0  0
   21.9206  -21.3642  -13.4074 N   0  0  0  0  0  0  0  0  0  0  0  0
   20.7449  -22.1743  -13.3865 C   0  0  1  0  0  0  0  0  0  0  0  0
   19.7945  -21.8426  -12.2712 C   0  0  0  0  0  0  0  0  0  0  0  0
   18.3943  -22.2983  -12.5214 C   0  0  0  0  0  0  0  0  0  0  0  0
   17.4922  -22.0218  -11.3595 C   0  0  0  0  0  0  0  0  0  0  0  0
   16.0854  -22.5288  -11.5760 C   0  0  0  0  0  0  0  0  0  0  0  0
   15.2903  -22.3939  -10.3699 N   0  0  0  0  0  0  0  0  0  0  0  0
   19.9949  -22.0366  -14.6585 C   0  0  0  0  0  0  0  0  0  0  0  0
   19.2784  -23.0003  -15.0242 O   0  0  0  0  0  0  0  0  0  0  0  0
   20.0511  -20.9049  -15.4489 O   0  0  0  0  0  0  0  0  0  0  0  0
  2  1  1  6
  2  3  1  0
  3  4  1  0
  4  9  2  0
  5  6  2  0
  5  4  1  0
  6  7  1  0
  7  8  2  0
  9  8  1  0
 10  2  1  0
 10 16  1  0
 11 10  2  0
 13 12  1  1
 13 15  1  0
 14 13  1  0
 15 16  1  1
 17 15  1  0
 18 17  2  0
 19 17  1  0
 20 19  1  0
 20 26  1  0
 20 21  1  1
 22 21  1  0
 23 22  1  0
 24 23  1  0
 24 25  1  0
 26 28  1  0
 27 26  2  0
M  END
$$$$
