FTK.pdb
     RDKit          3D

 28 28  0  0  1  0  0  0  0  0999 V2000
   24.4521  -15.8650  -17.1258 N   0  0  0  0  0  0  0  0  0  0  0  0
   23.8504  -14.6618  -17.7166 C   0  0  1  0  0  0  0  0  0  0  0  0
   22.3868  -15.0120  -18.0017 C   0  0  0  0  0  0  0  0  0  0  0  0
   22.3130  -15.9908  -19.1059 C   0  0  0  0  0  0  0  0  0  0  0  0
   22.1510  -17.3415  -18.8615 C   0  0  0  0  0  0  0  0  0  0  0  0
   22.0851  -18.2368  -19.9190 C   0  0  0  0  0  0  0  0  0  0  0  0
   22.1778  -17.8144  -21.2274 C   0  0  0  0  0  0  0  0  0  0  0  0
   22.3398  -16.4668  -21.4824 C   0  0  0  0  0  0  0  0  0  0  0  0
   22.4049  -15.5758  -20.4146 C   0  0  0  0  0  0  0  0  0  0  0  0
   23.8357  -13.6298  -16.6595 C   0  0  0  0  0  0  0  0  0  0  0  0
   23.6303  -13.9867  -15.4799 O   0  0  0  0  0  0  0  0  0  0  0  0
   26.3876  -11.6983  -15.2409 C   0  0  0  0  0  0  0  0  0  0  0  0
   25.4502  -10.6290  -15.7468 C   0  0  1  0  0  0  0  0  0  0  0  0
   25.8978  -10.2252  -16.9975 O   0  0  0  0  0  0  0  0  0  0  0  0
   24.0938  -11.2334  -15.8986 C   0  0  2  0  0  0  0  0  0  0  0  0
   24.0396  -12.2687  -16.9053 N   0  0  0  0  0  0  0  0  0  0  0  0
   23.1410  -10.1682  -16.3128 C   0  0  0  0  0  0  0  0  0  0  0  0
   22.6311  -10.2099  -17.4916 O   0  0  0  0  0  0  0  0  0  0  0  0
   22.7217   -9.0832  -15.5262 N   0  0  0  0  0  0  0  0  0  0  0  0
   21.7247   -8.1675  -15.9805 C   0  0  1  0  0  0  0  0  0  0  0  0
   20.3974   -8.8066  -16.2750 C   0  0  0  0  0  0  0  0  0  0  0  0
   19.3574   -7.8410  -16.7408 C   0  0  0  0  0  0  0  0  0  0  0  0
   18.0172   -8.4870  -16.9047 C   0  0  0  0  0  0  0  0  0  0  0  0
   16.9735   -7.5411  -17.4514 C   0  0  0  0  0  0  0  0  0  0  0  0
   17.3267   -7.0871  -18.7834 N   0  0  0  0  0  0  0  0  0  0  0  0
   21.4883   -7.1102  -14.9676 C   0  0  0  0  0  0  0  0  0  0  0  0
   21.9995   -7.2618  -13.8313 O   0  0  0  0  0  0  0  0  0  0  0  0
   20.7375   -5.9782  -15.2197 O   0  0  0  0  0  0  0  0  0  0  0  0
  2  1  1  1
  2  3  1  0
  3  4  1  0
  4  9  2  0
  5  6  2  0
  5  4  1  0
  6  7  1  0
  7  8  2  0
  9  8  1  0
 10  2  1  0
 10 16  1  0
 11 10  2  0
 13 12  1  6
 13 15  1  0
 14 13  1  0
 15 16  1  6
 17 15  1  0
 18 17  2  0
 19 17  1  0
 20 19  1  0
 20 26  1  0
 20 21  1  1
 22 21  1  0
 23 22  1  0
 24 23  1  0
 24 25  1  0
 26 28  1  0
 27 26  2  0
M  END
$$$$
