FTK.pdb
     RDKit          3D

 28 28  0  0  1  0  0  0  0  0999 V2000
   29.4946  -22.3113  -10.8945 N   0  0  0  0  0  0  0  0  0  0  0  0
   28.4385  -21.5167  -10.2530 C   0  0  1  0  0  0  0  0  0  0  0  0
   29.1505  -20.3898   -9.4983 C   0  0  0  0  0  0  0  0  0  0  0  0
   28.4592  -20.1305   -8.2187 C   0  0  0  0  0  0  0  0  0  0  0  0
   27.2685  -19.4300   -8.1724 C   0  0  0  0  0  0  0  0  0  0  0  0
   26.6424  -19.2020   -6.9558 C   0  0  0  0  0  0  0  0  0  0  0  0
   27.1796  -19.6597   -5.7721 C   0  0  0  0  0  0  0  0  0  0  0  0
   28.3690  -20.3607   -5.8075 C   0  0  0  0  0  0  0  0  0  0  0  0
   28.9900  -20.5847   -7.0333 C   0  0  0  0  0  0  0  0  0  0  0  0
   27.6702  -20.8733  -11.3385 C   0  0  0  0  0  0  0  0  0  0  0  0
   28.2957  -20.2647  -12.2326 O   0  0  0  0  0  0  0  0  0  0  0  0
   24.9177  -23.1957  -12.6595 C   0  0  0  0  0  0  0  0  0  0  0  0
   25.5699  -22.0901  -13.4535 C   0  0  1  0  0  0  0  0  0  0  0  0
   24.8319  -21.9055  -14.6149 O   0  0  0  0  0  0  0  0  0  0  0  0
   25.5067  -20.8370  -12.6448 C   0  0  2  0  0  0  0  0  0  0  0  0
   26.2751  -20.9070  -11.4230 N   0  0  0  0  0  0  0  0  0  0  0  0
   24.0911  -20.5893  -12.2594 C   0  0  0  0  0  0  0  0  0  0  0  0
   23.6490  -21.0786  -11.1565 O   0  0  0  0  0  0  0  0  0  0  0  0
   23.1513  -19.8506  -12.9963 N   0  0  0  0  0  0  0  0  0  0  0  0
   21.8129  -19.6654  -12.5344 C   0  0  1  0  0  0  0  0  0  0  0  0
   21.0074  -18.7071  -13.3650 C   0  0  0  0  0  0  0  0  0  0  0  0
   20.9487  -19.0713  -14.8123 C   0  0  0  0  0  0  0  0  0  0  0  0
   20.1838  -18.0685  -15.6184 C   0  0  0  0  0  0  0  0  0  0  0  0
   20.0066  -18.4871  -17.0594 C   0  0  0  0  0  0  0  0  0  0  0  0
   19.3152  -17.4628  -17.8195 N   0  0  0  0  0  0  0  0  0  0  0  0
   21.0831  -20.9564  -12.5212 C   0  0  0  0  0  0  0  0  0  0  0  0
   21.4408  -21.8407  -13.3372 O   0  0  0  0  0  0  0  0  0  0  0  0
   20.0379  -21.2235  -11.6581 O   0  0  0  0  0  0  0  0  0  0  0  0
  2  1  1  6
  2  3  1  0
  3  4  1  0
  4  9  2  0
  5  6  2  0
  5  4  1  0
  6  7  1  0
  7  8  2  0
  9  8  1  0
 10  2  1  0
 10 16  1  0
 11 10  2  0
 13 12  1  1
 13 15  1  0
 14 13  1  0
 15 16  1  1
 17 15  1  0
 18 17  2  0
 19 17  1  0
 20 19  1  0
 20 26  1  0
 20 21  1  6
 22 21  1  0
 23 22  1  0
 24 23  1  0
 24 25  1  0
 26 28  1  0
 27 26  2  0
M  END
$$$$
