FTK.pdb
     RDKit          3D

 28 28  0  0  1  0  0  0  0  0999 V2000
   28.3579  -11.2442  -19.1968 N   0  0  0  0  0  0  0  0  0  0  0  0
   27.3855  -10.7777  -18.1991 C   0  0  1  0  0  0  0  0  0  0  0  0
   28.1259  -10.7563  -16.8584 C   0  0  0  0  0  0  0  0  0  0  0  0
   28.1903  -12.1230  -16.3010 C   0  0  0  0  0  0  0  0  0  0  0  0
   27.1350  -12.6607  -15.5886 C   0  0  0  0  0  0  0  0  0  0  0  0
   27.2245  -13.9470  -15.0772 C   0  0  0  0  0  0  0  0  0  0  0  0
   28.3517  -14.7183  -15.2604 C   0  0  0  0  0  0  0  0  0  0  0  0
   29.4119  -14.1903  -15.9709 C   0  0  0  0  0  0  0  0  0  0  0  0
   29.3128  -12.8984  -16.4803 C   0  0  0  0  0  0  0  0  0  0  0  0
   27.0772   -9.3712  -18.5296 C   0  0  0  0  0  0  0  0  0  0  0  0
   28.0235   -8.5628  -18.6393 O   0  0  0  0  0  0  0  0  0  0  0  0
   27.4801   -7.1825  -20.4885 C   0  0  0  0  0  0  0  0  0  0  0  0
   25.9801   -7.3112  -20.5949 C   0  0  1  0  0  0  0  0  0  0  0  0
   25.7013   -8.4039  -21.4047 O   0  0  0  0  0  0  0  0  0  0  0  0
   25.4382   -7.5792  -19.2301 C   0  0  2  0  0  0  0  0  0  0  0  0
   25.7795   -8.8904  -18.7278 N   0  0  0  0  0  0  0  0  0  0  0  0
   23.9532   -7.5022  -19.2832 C   0  0  0  0  0  0  0  0  0  0  0  0
   23.2790   -8.5761  -19.4917 O   0  0  0  0  0  0  0  0  0  0  0  0
   23.1797   -6.3413  -19.1229 N   0  0  0  0  0  0  0  0  0  0  0  0
   21.7528   -6.3789  -19.1593 C   0  0  1  0  0  0  0  0  0  0  0  0
   21.0923   -5.4391  -18.1910 C   0  0  0  0  0  0  0  0  0  0  0  0
   19.6008   -5.5173  -18.2026 C   0  0  0  0  0  0  0  0  0  0  0  0
   18.9735   -4.5119  -17.2883 C   0  0  0  0  0  0  0  0  0  0  0  0
   17.4697   -4.6410  -17.2184 C   0  0  0  0  0  0  0  0  0  0  0  0
   16.9111   -3.7199  -16.2464 N   0  0  0  0  0  0  0  0  0  0  0  0
   21.2570   -6.0342  -20.5139 C   0  0  0  0  0  0  0  0  0  0  0  0
   21.9980   -5.3382  -21.2501 O   0  0  0  0  0  0  0  0  0  0  0  0
   20.0276   -6.4426  -20.9939 O   0  0  0  0  0  0  0  0  0  0  0  0
  2  1  1  6
  2  3  1  0
  3  4  1  0
  4  9  2  0
  5  6  2  0
  5  4  1  0
  6  7  1  0
  7  8  2  0
  9  8  1  0
 10  2  1  0
 10 16  1  0
 11 10  2  0
 13 12  1  1
 13 15  1  0
 14 13  1  0
 15 16  1  6
 17 15  1  0
 18 17  2  0
 19 17  1  0
 20 19  1  0
 20 26  1  0
 20 21  1  1
 22 21  1  0
 23 22  1  0
 24 23  1  0
 24 25  1  0
 26 28  1  0
 27 26  2  0
M  END
$$$$
