FTK.pdb
     RDKit          3D

 28 28  0  0  1  0  0  0  0  0999 V2000
   28.2513  -20.8158   -8.9496 N   0  0  0  0  0  0  0  0  0  0  0  0
   26.8160  -20.5644   -8.7627 C   0  0  1  0  0  0  0  0  0  0  0  0
   26.7122  -19.3258   -7.8675 C   0  0  0  0  0  0  0  0  0  0  0  0
   27.2913  -19.6184   -6.5402 C   0  0  0  0  0  0  0  0  0  0  0  0
   28.3496  -18.8844   -6.0385 C   0  0  0  0  0  0  0  0  0  0  0  0
   28.8724  -19.1826   -4.7887 C   0  0  0  0  0  0  0  0  0  0  0  0
   28.3610  -20.2048   -4.0190 C   0  0  0  0  0  0  0  0  0  0  0  0
   27.3035  -20.9443   -4.5113 C   0  0  0  0  0  0  0  0  0  0  0  0
   26.7855  -20.6377   -5.7666 C   0  0  0  0  0  0  0  0  0  0  0  0
   26.2763  -20.1743  -10.0814 C   0  0  0  0  0  0  0  0  0  0  0  0
   26.8536  -19.2672  -10.7177 O   0  0  0  0  0  0  0  0  0  0  0  0
   25.8035  -22.3525  -13.0181 C   0  0  0  0  0  0  0  0  0  0  0  0
   25.5916  -20.8591  -13.0731 C   0  0  1  0  0  0  0  0  0  0  0  0
   25.0072  -20.5552  -14.2952 O   0  0  0  0  0  0  0  0  0  0  0  0
   24.6419  -20.4837  -11.9844 C   0  0  2  0  0  0  0  0  0  0  0  0
   25.1500  -20.7657  -10.6614 N   0  0  0  0  0  0  0  0  0  0  0  0
   23.3905  -21.2711  -12.1510 C   0  0  0  0  0  0  0  0  0  0  0  0
   23.3014  -22.4273  -11.5972 O   0  0  0  0  0  0  0  0  0  0  0  0
   22.2537  -20.8731  -12.8729 N   0  0  0  0  0  0  0  0  0  0  0  0
   21.0877  -21.6938  -12.9498 C   0  0  1  0  0  0  0  0  0  0  0  0
   20.0971  -21.4523  -11.8465 C   0  0  0  0  0  0  0  0  0  0  0  0
   18.7646  -22.0819  -12.0890 C   0  0  0  0  0  0  0  0  0  0  0  0
   17.8190  -21.8638  -10.9494 C   0  0  0  0  0  0  0  0  0  0  0  0
   16.6624  -22.8361  -10.9531 C   0  0  0  0  0  0  0  0  0  0  0  0
   15.7892  -22.6132   -9.8161 N   0  0  0  0  0  0  0  0  0  0  0  0
   20.3786  -21.4723  -14.2334 C   0  0  0  0  0  0  0  0  0  0  0  0
   20.7543  -20.5151  -14.9534 O   0  0  0  0  0  0  0  0  0  0  0  0
   19.3337  -22.2664  -14.6650 O   0  0  0  0  0  0  0  0  0  0  0  0
  2  1  1  6
  2  3  1  0
  3  4  1  0
  4  9  2  0
  5  6  2  0
  5  4  1  0
  6  7  1  0
  7  8  2  0
  9  8  1  0
 10  2  1  0
 10 16  1  0
 11 10  2  0
 13 12  1  6
 13 15  1  0
 14 13  1  0
 15 16  1  1
 17 15  1  0
 18 17  2  0
 19 17  1  0
 20 19  1  0
 20 26  1  0
 20 21  1  1
 22 21  1  0
 23 22  1  0
 24 23  1  0
 24 25  1  0
 26 28  1  0
 27 26  2  0
M  END
$$$$
