FTK.pdb
     RDKit          3D

 28 28  0  0  1  0  0  0  0  0999 V2000
   28.4999  -13.7434  -18.4390 N   0  0  0  0  0  0  0  0  0  0  0  0
   27.2702  -13.0379  -18.8244 C   0  0  1  0  0  0  0  0  0  0  0  0
   26.3124  -14.1083  -19.3565 C   0  0  0  0  0  0  0  0  0  0  0  0
   26.8033  -14.6181  -20.6533 C   0  0  0  0  0  0  0  0  0  0  0  0
   27.4031  -15.8589  -20.7590 C   0  0  0  0  0  0  0  0  0  0  0  0
   27.8542  -16.3109  -21.9904 C   0  0  0  0  0  0  0  0  0  0  0  0
   27.7208  -15.5486  -23.1307 C   0  0  0  0  0  0  0  0  0  0  0  0
   27.1228  -14.3072  -23.0358 C   0  0  0  0  0  0  0  0  0  0  0  0
   26.6732  -13.8621  -21.7956 C   0  0  0  0  0  0  0  0  0  0  0  0
   26.6682  -12.5194  -17.5788 C   0  0  0  0  0  0  0  0  0  0  0  0
   26.9397  -13.0914  -16.5017 O   0  0  0  0  0  0  0  0  0  0  0  0
   27.4627  -10.9420  -15.2272 C   0  0  0  0  0  0  0  0  0  0  0  0
   26.3388  -10.0066  -15.6016 C   0  0  1  0  0  0  0  0  0  0  0  0
   26.8525   -9.0429  -16.4587 O   0  0  0  0  0  0  0  0  0  0  0  0
   25.3037  -10.7934  -16.3349 C   0  0  2  0  0  0  0  0  0  0  0  0
   25.8072  -11.4188  -17.5364 N   0  0  0  0  0  0  0  0  0  0  0  0
   24.2079   -9.8740  -16.7447 C   0  0  0  0  0  0  0  0  0  0  0  0
   24.2373   -9.3508  -17.9180 O   0  0  0  0  0  0  0  0  0  0  0  0
   23.1036   -9.5033  -15.9605 N   0  0  0  0  0  0  0  0  0  0  0  0
   22.0706   -8.6592  -16.4697 C   0  0  1  0  0  0  0  0  0  0  0  0
   20.6835   -9.0975  -16.0946 C   0  0  0  0  0  0  0  0  0  0  0  0
   19.6054   -8.3577  -16.8164 C   0  0  0  0  0  0  0  0  0  0  0  0
   18.2383   -8.8300  -16.4312 C   0  0  0  0  0  0  0  0  0  0  0  0
   17.1465   -8.2174  -17.2772 C   0  0  0  0  0  0  0  0  0  0  0  0
   15.8480   -8.7634  -16.9295 N   0  0  0  0  0  0  0  0  0  0  0  0
   22.2415   -7.2712  -15.9761 C   0  0  0  0  0  0  0  0  0  0  0  0
   22.7103   -7.1124  -14.8226 O   0  0  0  0  0  0  0  0  0  0  0  0
   21.9099   -6.1581  -16.7244 O   0  0  0  0  0  0  0  0  0  0  0  0
  2  1  1  1
  2  3  1  0
  3  4  1  0
  4  9  2  0
  5  6  2  0
  5  4  1  0
  6  7  1  0
  7  8  2  0
  9  8  1  0
 10  2  1  0
 10 16  1  0
 11 10  2  0
 13 12  1  6
 13 15  1  0
 14 13  1  0
 15 16  1  6
 17 15  1  0
 18 17  2  0
 19 17  1  0
 20 19  1  0
 20 26  1  0
 20 21  1  1
 22 21  1  0
 23 22  1  0
 24 23  1  0
 24 25  1  0
 26 28  1  0
 27 26  2  0
M  END
$$$$
