EKY.pdb
     RDKit          3D

 31 31  0  0  1  0  0  0  0  0999 V2000
   24.2166  -12.4473  -17.4110 N   0  0  0  0  0  0  0  0  0  0  0  0
   24.2195  -11.6936  -16.1941 C   0  0  1  0  0  0  0  0  0  0  0  0
   25.6310  -11.3042  -15.8134 C   0  0  0  0  0  0  0  0  0  0  0  0
   26.3423  -10.8557  -17.0661 C   0  0  0  0  0  0  0  0  0  0  0  0
   27.7423  -10.5121  -16.7327 C   0  0  0  0  0  0  0  0  0  0  0  0
   28.5811  -11.4163  -16.5935 O   0  0  0  0  0  0  0  0  0  0  0  0
   23.3469  -10.4884  -16.3353 C   0  0  0  0  0  0  0  0  0  0  0  0
   23.5816   -9.6306  -17.2189 O   0  0  0  0  0  0  0  0  0  0  0  0
   28.1488   -9.2025  -16.5698 O   0  0  0  0  0  0  0  0  0  0  0  0
   22.2309  -10.2582  -15.4936 N   0  0  0  0  0  0  0  0  0  0  0  0
   21.3213   -9.1547  -15.5888 C   0  0  1  0  0  0  0  0  0  0  0  0
   19.9225   -9.6725  -15.3575 C   0  0  0  0  0  0  0  0  0  0  0  0
   18.8735   -8.6286  -15.5017 C   0  0  0  0  0  0  0  0  0  0  0  0
   17.4671   -9.0961  -15.3232 C   0  0  0  0  0  0  0  0  0  0  0  0
   16.5514   -7.9174  -15.6223 C   0  0  0  0  0  0  0  0  0  0  0  0
   15.1670   -8.2565  -15.4489 N   0  0  0  0  0  0  0  0  0  0  0  0
   21.6282   -8.0548  -14.6671 C   0  0  0  0  0  0  0  0  0  0  0  0
   21.8987   -8.2962  -13.4765 O   0  0  0  0  0  0  0  0  0  0  0  0
   24.6596   -3.7714  -19.6978 O   0  0  0  0  0  0  0  0  0  0  0  0
   24.3277   -4.0855  -18.3982 C   0  0  0  0  0  0  0  0  0  0  0  0
   24.7468   -5.3062  -17.8986 C   0  0  0  0  0  0  0  0  0  0  0  0
   24.4202   -5.6391  -16.5879 C   0  0  0  0  0  0  0  0  0  0  0  0
   23.7000   -4.8202  -15.7545 C   0  0  0  0  0  0  0  0  0  0  0  0
   23.3391   -5.1638  -14.3657 C   0  0  0  0  0  0  0  0  0  0  0  0
   21.9211   -5.5738  -14.2787 C   0  0  2  0  0  0  0  0  0  0  0  0
   21.6184   -6.7229  -15.1229 N   0  0  0  0  0  0  0  0  0  0  0  0
   20.9941   -4.5047  -14.6640 C   0  0  0  0  0  0  0  0  0  0  0  0
   20.9523   -3.4358  -14.0158 O   0  0  0  0  0  0  0  0  0  0  0  0
   23.2997   -3.6015  -16.3012 C   0  0  0  0  0  0  0  0  0  0  0  0
   23.5968   -3.2246  -17.5912 C   0  0  0  0  0  0  0  0  0  0  0  0
   20.1376   -4.6323  -15.7470 O   0  0  0  0  0  0  0  0  0  0  0  0
  2  1  1  6
  3  2  1  0
  3  4  1  0
  5  9  1  0
  5  4  1  0
  6  5  2  0
  7  2  1  0
  7  8  2  0
 10  7  1  0
 11 10  1  0
 11 12  1  1
 13 12  1  0
 13 14  1  0
 14 15  1  0
 16 15  1  0
 17 26  1  0
 17 11  1  0
 18 17  2  0
 19 20  1  0
 20 30  2  0
 20 21  1  0
 21 22  2  0
 22 23  1  0
 23 24  1  0
 25 24  1  6
 25 26  1  0
 25 27  1  0
 27 31  1  0
 28 27  2  0
 29 23  2  0
 30 29  1  0
M  END
$$$$
