EKY.pdb
     RDKit          3D

 31 31  0  0  1  0  0  0  0  0999 V2000
   26.2001  -23.0295  -19.0089 N   0  0  0  0  0  0  0  0  0  0  0  0
   25.0477  -22.7873  -18.1950 C   0  0  1  0  0  0  0  0  0  0  0  0
   24.3736  -21.4946  -18.5994 C   0  0  0  0  0  0  0  0  0  0  0  0
   24.2152  -21.5038  -20.0999 C   0  0  0  0  0  0  0  0  0  0  0  0
   23.5238  -20.2658  -20.5224 C   0  0  0  0  0  0  0  0  0  0  0  0
   22.2854  -20.2508  -20.6060 O   0  0  0  0  0  0  0  0  0  0  0  0
   24.1023  -23.9410  -18.2886 C   0  0  0  0  0  0  0  0  0  0  0  0
   23.2628  -24.0044  -19.2176 O   0  0  0  0  0  0  0  0  0  0  0  0
   24.2211  -19.1143  -20.8299 O   0  0  0  0  0  0  0  0  0  0  0  0
   24.1063  -25.0021  -17.3500 N   0  0  0  0  0  0  0  0  0  0  0  0
   23.2511  -26.1518  -17.3792 C   0  0  1  0  0  0  0  0  0  0  0  0
   24.0978  -27.3782  -17.1399 C   0  0  0  0  0  0  0  0  0  0  0  0
   24.8574  -27.8167  -18.3406 C   0  0  0  0  0  0  0  0  0  0  0  0
   25.6897  -29.0436  -18.1668 C   0  0  0  0  0  0  0  0  0  0  0  0
   24.8699  -30.2268  -18.6624 C   0  0  0  0  0  0  0  0  0  0  0  0
   25.6024  -31.4590  -18.5789 N   0  0  0  0  0  0  0  0  0  0  0  0
   22.1433  -26.0887  -16.4189 C   0  0  0  0  0  0  0  0  0  0  0  0
   22.3714  -25.8510  -15.2187 O   0  0  0  0  0  0  0  0  0  0  0  0
   21.0984  -20.3763  -14.0342 O   0  0  0  0  0  0  0  0  0  0  0  0
   20.5269  -21.5233  -14.5397 C   0  0  0  0  0  0  0  0  0  0  0  0
   20.9135  -21.9387  -15.8020 C   0  0  0  0  0  0  0  0  0  0  0  0
   20.3461  -23.0952  -16.3274 C   0  0  0  0  0  0  0  0  0  0  0  0
   19.4170  -23.8544  -15.6609 C   0  0  0  0  0  0  0  0  0  0  0  0
   18.8008  -25.0778  -16.2090 C   0  0  0  0  0  0  0  0  0  0  0  0
   19.6621  -26.2542  -15.9623 C   0  0  2  0  0  0  0  0  0  0  0  0
   20.8187  -26.2962  -16.8483 N   0  0  0  0  0  0  0  0  0  0  0  0
   18.9508  -27.5260  -16.1277 C   0  0  0  0  0  0  0  0  0  0  0  0
   19.3466  -28.3717  -16.9598 O   0  0  0  0  0  0  0  0  0  0  0  0
   19.0586  -23.3971  -14.3932 C   0  0  0  0  0  0  0  0  0  0  0  0
   19.5901  -22.2601  -13.8283 C   0  0  0  0  0  0  0  0  0  0  0  0
   17.8263  -27.8395  -15.3795 O   0  0  0  0  0  0  0  0  0  0  0  0
  2  1  1  6
  3  2  1  0
  3  4  1  0
  5  9  1  0
  5  4  1  0
  6  5  2  0
  7  2  1  0
  7  8  2  0
 10  7  1  0
 11 10  1  0
 11 12  1  1
 13 12  1  0
 13 14  1  0
 14 15  1  0
 16 15  1  0
 17 26  1  0
 17 11  1  0
 18 17  2  0
 19 20  1  0
 20 30  2  0
 20 21  1  0
 21 22  2  0
 22 23  1  0
 23 24  1  0
 25 24  1  6
 25 26  1  0
 25 27  1  0
 27 31  1  0
 28 27  2  0
 29 23  2  0
 30 29  1  0
M  END
$$$$
