EKY.pdb
     RDKit          3D

 31 31  0  0  1  0  0  0  0  0999 V2000
   19.4314  -12.9736  -16.6469 N   0  0  0  0  0  0  0  0  0  0  0  0
   19.1262  -11.5783  -16.7412 C   0  0  1  0  0  0  0  0  0  0  0  0
   17.7905  -11.2816  -16.0955 C   0  0  0  0  0  0  0  0  0  0  0  0
   16.7567  -12.1734  -16.7377 C   0  0  0  0  0  0  0  0  0  0  0  0
   16.3263  -13.1985  -15.7614 C   0  0  0  0  0  0  0  0  0  0  0  0
   15.7723  -12.8495  -14.7069 O   0  0  0  0  0  0  0  0  0  0  0  0
   20.2182  -10.7712  -16.1169 C   0  0  0  0  0  0  0  0  0  0  0  0
   20.0198  -10.1485  -15.0470 O   0  0  0  0  0  0  0  0  0  0  0  0
   16.5240  -14.5460  -15.9895 O   0  0  0  0  0  0  0  0  0  0  0  0
   21.5092  -10.6703  -16.6915 N   0  0  0  0  0  0  0  0  0  0  0  0
   22.5798   -9.8475  -16.2112 C   0  0  1  0  0  0  0  0  0  0  0  0
   23.8755  -10.3800  -16.7733 C   0  0  0  0  0  0  0  0  0  0  0  0
   24.2692  -11.6974  -16.2074 C   0  0  0  0  0  0  0  0  0  0  0  0
   25.5669  -12.2495  -16.6967 C   0  0  0  0  0  0  0  0  0  0  0  0
   25.7790  -13.5936  -16.0140 C   0  0  0  0  0  0  0  0  0  0  0  0
   27.0114  -14.2107  -16.4164 N   0  0  0  0  0  0  0  0  0  0  0  0
   22.4200   -8.4241  -16.5304 C   0  0  0  0  0  0  0  0  0  0  0  0
   22.5333   -8.0324  -17.7063 O   0  0  0  0  0  0  0  0  0  0  0  0
   20.6977   -0.0710  -17.2893 O   0  0  0  0  0  0  0  0  0  0  0  0
   20.7311   -1.4324  -17.0814 C   0  0  0  0  0  0  0  0  0  0  0  0
   19.8848   -1.9633  -16.1237 C   0  0  0  0  0  0  0  0  0  0  0  0
   19.9059   -3.3365  -15.9013 C   0  0  0  0  0  0  0  0  0  0  0  0
   20.7246   -4.2025  -16.5821 C   0  0  0  0  0  0  0  0  0  0  0  0
   20.7636   -5.6592  -16.3507 C   0  0  0  0  0  0  0  0  0  0  0  0
   22.0439   -6.0566  -15.7268 C   0  0  2  0  0  0  0  0  0  0  0  0
   22.1381   -7.4951  -15.5110 N   0  0  0  0  0  0  0  0  0  0  0  0
   22.2685   -5.4141  -14.4278 C   0  0  0  0  0  0  0  0  0  0  0  0
   22.5995   -4.2097  -14.3634 O   0  0  0  0  0  0  0  0  0  0  0  0
   21.5591   -3.6223  -17.5368 C   0  0  0  0  0  0  0  0  0  0  0  0
   21.5767   -2.2705  -17.7951 C   0  0  0  0  0  0  0  0  0  0  0  0
   22.1255   -6.1049  -13.2340 O   0  0  0  0  0  0  0  0  0  0  0  0
  2  1  1  1
  3  2  1  0
  3  4  1  0
  5  9  1  0
  5  4  1  0
  6  5  2  0
  7  2  1  0
  7  8  2  0
 10  7  1  0
 11 10  1  0
 11 12  1  6
 13 12  1  0
 13 14  1  0
 14 15  1  0
 16 15  1  0
 17 26  1  0
 17 11  1  0
 18 17  2  0
 19 20  1  0
 20 30  2  0
 20 21  1  0
 21 22  2  0
 22 23  1  0
 23 24  1  0
 25 24  1  1
 25 26  1  0
 25 27  1  0
 27 31  1  0
 28 27  2  0
 29 23  2  0
 30 29  1  0
M  END
$$$$
