EKY.pdb
     RDKit          3D

 31 31  0  0  1  0  0  0  0  0999 V2000
   23.1030  -15.6082  -16.3581 N   0  0  0  0  0  0  0  0  0  0  0  0
   21.7068  -15.9131  -16.2771 C   0  0  1  0  0  0  0  0  0  0  0  0
   20.9876  -15.4458  -17.5234 C   0  0  0  0  0  0  0  0  0  0  0  0
   21.1040  -16.5344  -18.5617 C   0  0  0  0  0  0  0  0  0  0  0  0
   21.4602  -15.9275  -19.8632 C   0  0  0  0  0  0  0  0  0  0  0  0
   20.6050  -15.2924  -20.5005 O   0  0  0  0  0  0  0  0  0  0  0  0
   21.5139  -17.3793  -16.0607 C   0  0  0  0  0  0  0  0  0  0  0  0
   20.3619  -17.8626  -15.9547 O   0  0  0  0  0  0  0  0  0  0  0  0
   22.7283  -16.0470  -20.3967 O   0  0  0  0  0  0  0  0  0  0  0  0
   22.6024  -18.2810  -15.9660 N   0  0  0  0  0  0  0  0  0  0  0  0
   22.5123  -19.6747  -15.6446 C   0  0  1  0  0  0  0  0  0  0  0  0
   23.8265  -20.3282  -15.9972 C   0  0  0  0  0  0  0  0  0  0  0  0
   23.8161  -21.8058  -15.8317 C   0  0  0  0  0  0  0  0  0  0  0  0
   25.1135  -22.4952  -16.0957 C   0  0  0  0  0  0  0  0  0  0  0  0
   24.8935  -23.9852  -15.8741 C   0  0  0  0  0  0  0  0  0  0  0  0
   26.0935  -24.7426  -16.0930 N   0  0  0  0  0  0  0  0  0  0  0  0
   22.1601  -19.9366  -14.2443 C   0  0  0  0  0  0  0  0  0  0  0  0
   22.9000  -19.5319  -13.3292 O   0  0  0  0  0  0  0  0  0  0  0  0
   15.7476  -16.8479  -13.8789 O   0  0  0  0  0  0  0  0  0  0  0  0
   16.8648  -17.4975  -13.4017 C   0  0  0  0  0  0  0  0  0  0  0  0
   16.6794  -18.5239  -12.4920 C   0  0  0  0  0  0  0  0  0  0  0  0
   17.7971  -19.1905  -12.0002 C   0  0  0  0  0  0  0  0  0  0  0  0
   19.0840  -18.8864  -12.3678 C   0  0  0  0  0  0  0  0  0  0  0  0
   20.2787  -19.5789  -11.8481 C   0  0  0  0  0  0  0  0  0  0  0  0
   20.5022  -20.8507  -12.5686 C   0  0  2  0  0  0  0  0  0  0  0  0
   20.9856  -20.6457  -13.9283 N   0  0  0  0  0  0  0  0  0  0  0  0
   19.2907  -21.6715  -12.6651 C   0  0  0  0  0  0  0  0  0  0  0  0
   18.7737  -21.9126  -13.7782 O   0  0  0  0  0  0  0  0  0  0  0  0
   19.2214  -17.8461  -13.2860 C   0  0  0  0  0  0  0  0  0  0  0  0
   18.1489  -17.1553  -13.8027 C   0  0  0  0  0  0  0  0  0  0  0  0
   18.6768  -22.2069  -11.5430 O   0  0  0  0  0  0  0  0  0  0  0  0
  2  1  1  6
  3  2  1  0
  3  4  1  0
  5  9  1  0
  5  4  1  0
  6  5  2  0
  7  2  1  0
  7  8  2  0
 10  7  1  0
 11 10  1  0
 11 12  1  1
 13 12  1  0
 13 14  1  0
 14 15  1  0
 16 15  1  0
 17 26  1  0
 17 11  1  0
 18 17  2  0
 19 20  1  0
 20 30  2  0
 20 21  1  0
 21 22  2  0
 22 23  1  0
 23 24  1  0
 25 24  1  6
 25 26  1  0
 25 27  1  0
 27 31  1  0
 28 27  2  0
 29 23  2  0
 30 29  1  0
M  END
$$$$
