EKY.pdb
     RDKit          3D

 31 31  0  0  1  0  0  0  0  0999 V2000
   20.4663  -14.0486  -17.1342 N   0  0  0  0  0  0  0  0  0  0  0  0
   19.6931  -12.8927  -17.4731 C   0  0  1  0  0  0  0  0  0  0  0  0
   18.3870  -12.8843  -16.7094 C   0  0  0  0  0  0  0  0  0  0  0  0
   17.6544  -14.1639  -17.0294 C   0  0  0  0  0  0  0  0  0  0  0  0
   16.3327  -14.1457  -16.3646 C   0  0  0  0  0  0  0  0  0  0  0  0
   15.8777  -15.1900  -15.8717 O   0  0  0  0  0  0  0  0  0  0  0  0
   20.4820  -11.6517  -17.2062 C   0  0  0  0  0  0  0  0  0  0  0  0
   21.2099  -11.5646  -16.1891 O   0  0  0  0  0  0  0  0  0  0  0  0
   15.5818  -12.9903  -16.2746 O   0  0  0  0  0  0  0  0  0  0  0  0
   20.4482  -10.5313  -18.0725 N   0  0  0  0  0  0  0  0  0  0  0  0
   21.0907   -9.2714  -17.8407 C   0  0  1  0  0  0  0  0  0  0  0  0
   21.0042   -8.4553  -19.1075 C   0  0  0  0  0  0  0  0  0  0  0  0
   21.7991   -7.1997  -19.0582 C   0  0  0  0  0  0  0  0  0  0  0  0
   21.6978   -6.3226  -20.2619 C   0  0  0  0  0  0  0  0  0  0  0  0
   22.6303   -5.1389  -20.0455 C   0  0  0  0  0  0  0  0  0  0  0  0
   22.5762   -4.2073  -21.1368 N   0  0  0  0  0  0  0  0  0  0  0  0
   20.5382   -8.5268  -16.7032 C   0  0  0  0  0  0  0  0  0  0  0  0
   19.3082   -8.4983  -16.5150 O   0  0  0  0  0  0  0  0  0  0  0  0
   19.2803   -5.3279   -8.7706 O   0  0  0  0  0  0  0  0  0  0  0  0
   19.8401   -5.8912   -9.8962 C   0  0  0  0  0  0  0  0  0  0  0  0
   19.3827   -7.1349  -10.2952 C   0  0  0  0  0  0  0  0  0  0  0  0
   19.9374   -7.7180  -11.4300 C   0  0  0  0  0  0  0  0  0  0  0  0
   20.9206   -7.1264  -12.1830 C   0  0  0  0  0  0  0  0  0  0  0  0
   21.5238   -7.7366  -13.3834 C   0  0  0  0  0  0  0  0  0  0  0  0
   20.9397   -7.1611  -14.6138 C   0  0  2  0  0  0  0  0  0  0  0  0
   21.3940   -7.8417  -15.8200 N   0  0  0  0  0  0  0  0  0  0  0  0
   21.2534   -5.7384  -14.7822 C   0  0  0  0  0  0  0  0  0  0  0  0
   20.3815   -4.8664  -14.5731 O   0  0  0  0  0  0  0  0  0  0  0  0
   21.3494   -5.8747  -11.7429 C   0  0  0  0  0  0  0  0  0  0  0  0
   20.8335   -5.2548  -10.6276 C   0  0  0  0  0  0  0  0  0  0  0  0
   22.5114   -5.3068  -15.1744 O   0  0  0  0  0  0  0  0  0  0  0  0
  2  1  1  1
  3  2  1  0
  3  4  1  0
  5  9  1  0
  5  4  1  0
  6  5  2  0
  7  2  1  0
  7  8  2  0
 10  7  1  0
 11 10  1  0
 11 12  1  6
 13 12  1  0
 13 14  1  0
 14 15  1  0
 16 15  1  0
 17 26  1  0
 17 11  1  0
 18 17  2  0
 19 20  1  0
 20 30  2  0
 20 21  1  0
 21 22  2  0
 22 23  1  0
 23 24  1  0
 25 24  1  1
 25 26  1  0
 25 27  1  0
 27 31  1  0
 28 27  2  0
 29 23  2  0
 30 29  1  0
M  END
$$$$
