EKY.pdb
     RDKit          3D

 31 31  0  0  1  0  0  0  0  0999 V2000
   18.7738  -19.7930  -15.4721 N   0  0  0  0  0  0  0  0  0  0  0  0
   17.5238  -20.2595  -14.9535 C   0  0  1  0  0  0  0  0  0  0  0  0
   16.4048  -19.9809  -15.9330 C   0  0  0  0  0  0  0  0  0  0  0  0
   16.9932  -19.2476  -17.1130 C   0  0  0  0  0  0  0  0  0  0  0  0
   16.7262  -17.7996  -16.9668 C   0  0  0  0  0  0  0  0  0  0  0  0
   15.5552  -17.3884  -16.9534 O   0  0  0  0  0  0  0  0  0  0  0  0
   17.6124  -21.7173  -14.6361 C   0  0  0  0  0  0  0  0  0  0  0  0
   16.6137  -22.3373  -14.2002 O   0  0  0  0  0  0  0  0  0  0  0  0
   17.7506  -16.8819  -16.8434 O   0  0  0  0  0  0  0  0  0  0  0  0
   18.8070  -22.4591  -14.8083 N   0  0  0  0  0  0  0  0  0  0  0  0
   18.9861  -23.8461  -14.4953 C   0  0  1  0  0  0  0  0  0  0  0  0
   20.1789  -24.3557  -15.2672 C   0  0  0  0  0  0  0  0  0  0  0  0
   20.3880  -25.8218  -15.1337 C   0  0  0  0  0  0  0  0  0  0  0  0
   21.6201  -26.3608  -15.7815 C   0  0  0  0  0  0  0  0  0  0  0  0
   21.6044  -27.8731  -15.6078 C   0  0  0  0  0  0  0  0  0  0  0  0
   22.8106  -28.4812  -16.0947 N   0  0  0  0  0  0  0  0  0  0  0  0
   19.1421  -24.1127  -13.0607 C   0  0  0  0  0  0  0  0  0  0  0  0
   19.9360  -23.4347  -12.3833 O   0  0  0  0  0  0  0  0  0  0  0  0
   17.3794  -24.8238   -4.7473 O   0  0  0  0  0  0  0  0  0  0  0  0
   17.6180  -24.6290   -6.0900 C   0  0  0  0  0  0  0  0  0  0  0  0
   16.5674  -24.1946   -6.8792 C   0  0  0  0  0  0  0  0  0  0  0  0
   16.7913  -23.9927   -8.2374 C   0  0  0  0  0  0  0  0  0  0  0  0
   18.0040  -24.2016   -8.8452 C   0  0  0  0  0  0  0  0  0  0  0  0
   18.2536  -24.0000  -10.2854 C   0  0  0  0  0  0  0  0  0  0  0  0
   18.2783  -25.2946  -10.9993 C   0  0  2  0  0  0  0  0  0  0  0  0
   18.3964  -25.1348  -12.4433 N   0  0  0  0  0  0  0  0  0  0  0  0
   17.0791  -26.1029  -10.7556 C   0  0  0  0  0  0  0  0  0  0  0  0
   17.1480  -27.1550  -10.0828 O   0  0  0  0  0  0  0  0  0  0  0  0
   19.0321  -24.6387   -8.0106 C   0  0  0  0  0  0  0  0  0  0  0  0
   18.8628  -24.8532   -6.6617 C   0  0  0  0  0  0  0  0  0  0  0  0
   15.8370  -25.7398  -11.2535 O   0  0  0  0  0  0  0  0  0  0  0  0
  2  1  1  6
  3  2  1  0
  3  4  1  0
  5  9  1  0
  5  4  1  0
  6  5  2  0
  7  2  1  0
  7  8  2  0
 10  7  1  0
 11 10  1  0
 11 12  1  6
 13 12  1  0
 13 14  1  0
 14 15  1  0
 16 15  1  0
 17 26  1  0
 17 11  1  0
 18 17  2  0
 19 20  1  0
 20 30  2  0
 20 21  1  0
 21 22  2  0
 22 23  1  0
 23 24  1  0
 25 24  1  1
 25 26  1  0
 25 27  1  0
 27 31  1  0
 28 27  2  0
 29 23  2  0
 30 29  1  0
M  END
$$$$
