EKY.pdb
     RDKit          3D

 31 31  0  0  1  0  0  0  0  0999 V2000
   24.0437   -7.9707  -21.4912 N   0  0  0  0  0  0  0  0  0  0  0  0
   24.0694   -8.9329  -20.4319 C   0  0  1  0  0  0  0  0  0  0  0  0
   25.4309   -8.9617  -19.7727 C   0  0  0  0  0  0  0  0  0  0  0  0
   25.8074   -7.5428  -19.4242 C   0  0  0  0  0  0  0  0  0  0  0  0
   27.1154   -7.5438  -18.7325 C   0  0  0  0  0  0  0  0  0  0  0  0
   27.7189   -8.6145  -18.5594 O   0  0  0  0  0  0  0  0  0  0  0  0
   22.9951   -8.6300  -19.4379 C   0  0  0  0  0  0  0  0  0  0  0  0
   22.7592   -7.4479  -19.0935 O   0  0  0  0  0  0  0  0  0  0  0  0
   27.6916   -6.3778  -18.2685 O   0  0  0  0  0  0  0  0  0  0  0  0
   22.2034   -9.6443  -18.8451 N   0  0  0  0  0  0  0  0  0  0  0  0
   21.2246   -9.4512  -17.8162 C   0  0  1  0  0  0  0  0  0  0  0  0
   20.3049  -10.6481  -17.8067 C   0  0  0  0  0  0  0  0  0  0  0  0
   19.1835  -10.5252  -16.8381 C   0  0  0  0  0  0  0  0  0  0  0  0
   18.2879  -11.7147  -16.7314 C   0  0  0  0  0  0  0  0  0  0  0  0
   17.1795  -11.3664  -15.7477 C   0  0  0  0  0  0  0  0  0  0  0  0
   16.1430  -12.3599  -15.7342 N   0  0  0  0  0  0  0  0  0  0  0  0
   21.8020   -9.2281  -16.4857 C   0  0  0  0  0  0  0  0  0  0  0  0
   22.7563   -9.9252  -16.0954 O   0  0  0  0  0  0  0  0  0  0  0  0
   21.8683   -1.9978  -16.7329 O   0  0  0  0  0  0  0  0  0  0  0  0
   22.1588   -3.2174  -16.1621 C   0  0  0  0  0  0  0  0  0  0  0  0
   22.6207   -4.2269  -16.9886 C   0  0  0  0  0  0  0  0  0  0  0  0
   22.9189   -5.4648  -16.4282 C   0  0  0  0  0  0  0  0  0  0  0  0
   22.7802   -5.7455  -15.0919 C   0  0  0  0  0  0  0  0  0  0  0  0
   23.0844   -7.0557  -14.4855 C   0  0  0  0  0  0  0  0  0  0  0  0
   21.8572   -7.8700  -14.3539 C   0  0  2  0  0  0  0  0  0  0  0  0
   21.2814   -8.2264  -15.6447 N   0  0  0  0  0  0  0  0  0  0  0  0
   20.8044   -7.1944  -13.5884 C   0  0  0  0  0  0  0  0  0  0  0  0
   19.7496   -6.8238  -14.1491 O   0  0  0  0  0  0  0  0  0  0  0  0
   22.3122   -4.6984  -14.2989 C   0  0  0  0  0  0  0  0  0  0  0  0
   22.0031   -3.4557  -14.8036 C   0  0  0  0  0  0  0  0  0  0  0  0
   20.9324   -6.9421  -12.2310 O   0  0  0  0  0  0  0  0  0  0  0  0
  2  1  1  6
  3  2  1  0
  3  4  1  0
  5  9  1  0
  5  4  1  0
  6  5  2  0
  7  2  1  0
  7  8  2  0
 10  7  1  0
 11 10  1  0
 11 12  1  1
 13 12  1  0
 13 14  1  0
 14 15  1  0
 16 15  1  0
 17 26  1  0
 17 11  1  0
 18 17  2  0
 19 20  1  0
 20 30  2  0
 20 21  1  0
 21 22  2  0
 22 23  1  0
 23 24  1  0
 25 24  1  6
 25 26  1  0
 25 27  1  0
 27 31  1  0
 28 27  2  0
 29 23  2  0
 30 29  1  0
M  END
$$$$
