EKY.pdb
     RDKit          3D

 31 31  0  0  1  0  0  0  0  0999 V2000
   26.0988  -16.0721  -17.2914 N   0  0  0  0  0  0  0  0  0  0  0  0
   24.6697  -16.1530  -17.2891 C   0  0  1  0  0  0  0  0  0  0  0  0
   24.1088  -15.6865  -18.6145 C   0  0  0  0  0  0  0  0  0  0  0  0
   24.5319  -14.2527  -18.8184 C   0  0  0  0  0  0  0  0  0  0  0  0
   25.4611  -14.1796  -19.9675 C   0  0  0  0  0  0  0  0  0  0  0  0
   26.3218  -13.2861  -20.0068 O   0  0  0  0  0  0  0  0  0  0  0  0
   24.2357  -17.5496  -16.9813 C   0  0  0  0  0  0  0  0  0  0  0  0
   23.0909  -17.9475  -17.3021 O   0  0  0  0  0  0  0  0  0  0  0  0
   25.3995  -15.0844  -21.0089 O   0  0  0  0  0  0  0  0  0  0  0  0
   25.0799  -18.4778  -16.3235 N   0  0  0  0  0  0  0  0  0  0  0  0
   24.6933  -19.7733  -15.8477 C   0  0  1  0  0  0  0  0  0  0  0  0
   25.9416  -20.5261  -15.4561 C   0  0  0  0  0  0  0  0  0  0  0  0
   26.7764  -20.9329  -16.6174 C   0  0  0  0  0  0  0  0  0  0  0  0
   28.0360  -21.6615  -16.2847 C   0  0  0  0  0  0  0  0  0  0  0  0
   28.6779  -22.0890  -17.5972 C   0  0  0  0  0  0  0  0  0  0  0  0
   29.9072  -22.8003  -17.3862 N   0  0  0  0  0  0  0  0  0  0  0  0
   23.7389  -19.7330  -14.7338 C   0  0  0  0  0  0  0  0  0  0  0  0
   24.0553  -19.1870  -13.6611 O   0  0  0  0  0  0  0  0  0  0  0  0
   16.9986  -19.2503   -9.4476 O   0  0  0  0  0  0  0  0  0  0  0  0
   18.0281  -19.1907  -10.3610 C   0  0  0  0  0  0  0  0  0  0  0  0
   17.7162  -18.8656  -11.6696 C   0  0  0  0  0  0  0  0  0  0  0  0
   18.7441  -18.8009  -12.6048 C   0  0  0  0  0  0  0  0  0  0  0  0
   20.0608  -19.0432  -12.3024 C   0  0  0  0  0  0  0  0  0  0  0  0
   21.1597  -18.9866  -13.2854 C   0  0  0  0  0  0  0  0  0  0  0  0
   21.4639  -20.3353  -13.8097 C   0  0  2  0  0  0  0  0  0  0  0  0
   22.4623  -20.3106  -14.8713 N   0  0  0  0  0  0  0  0  0  0  0  0
   20.2828  -21.0165  -14.3499 C   0  0  0  0  0  0  0  0  0  0  0  0
   19.5463  -21.6989  -13.6040 O   0  0  0  0  0  0  0  0  0  0  0  0
   20.3267  -19.3666  -10.9724 C   0  0  0  0  0  0  0  0  0  0  0  0
   19.3467  -19.4436  -10.0090 C   0  0  0  0  0  0  0  0  0  0  0  0
   19.9382  -20.9338  -15.6904 O   0  0  0  0  0  0  0  0  0  0  0  0
  2  1  1  6
  3  2  1  0
  3  4  1  0
  5  9  1  0
  5  4  1  0
  6  5  2  0
  7  2  1  0
  7  8  2  0
 10  7  1  0
 11 10  1  0
 11 12  1  1
 13 12  1  0
 13 14  1  0
 14 15  1  0
 16 15  1  0
 17 26  1  0
 17 11  1  0
 18 17  2  0
 19 20  1  0
 20 30  2  0
 20 21  1  0
 21 22  2  0
 22 23  1  0
 23 24  1  0
 25 24  1  6
 25 26  1  0
 25 27  1  0
 27 31  1  0
 28 27  2  0
 29 23  2  0
 30 29  1  0
M  END
$$$$
