WYG.pdb
     RDKit          3D

 31 33  0  0  1  0  0  0  0  0999 V2000
    6.4401  -18.0568   23.5725 N   0  0  0  0  0  0  0  0  0  0  0  0
    7.0735  -16.7853   23.8051 C   0  0  1  0  0  0  0  0  0  0  0  0
    7.4669  -16.6451   25.2295 C   0  0  0  0  0  0  0  0  0  0  0  0
    6.7369  -15.5109   25.8460 C   0  0  0  0  0  0  0  0  0  0  0  0
    5.5028  -15.5669   26.4981 C   0  0  0  0  0  0  0  0  0  0  0  0
    5.1622  -14.3556   26.9648 N   0  0  0  0  0  0  0  0  0  0  0  0
    6.1413  -13.4904   26.6383 C   0  0  0  0  0  0  0  0  0  0  0  0
    6.2955  -12.1411   26.8607 C   0  0  0  0  0  0  0  0  0  0  0  0
    7.4164  -11.5026   26.3937 C   0  0  0  0  0  0  0  0  0  0  0  0
    8.3869  -12.1947   25.7062 C   0  0  0  0  0  0  0  0  0  0  0  0
    8.2462  -13.5518   25.4752 C   0  0  0  0  0  0  0  0  0  0  0  0
    7.1300  -14.1885   25.9415 C   0  0  0  0  0  0  0  0  0  0  0  0
    8.2577  -16.6807   22.8801 C   0  0  0  0  0  0  0  0  0  0  0  0
    8.7600  -17.7126   22.3665 O   0  0  0  0  0  0  0  0  0  0  0  0
    6.4913  -13.9811   16.6568 O   0  0  0  0  0  0  0  0  0  0  0  0
    7.3490  -13.9567   17.7643 C   0  0  0  0  0  0  0  0  0  0  0  0
    8.4400  -14.8131   17.7458 C   0  0  0  0  0  0  0  0  0  0  0  0
    9.3349  -14.8372   18.8214 C   0  0  0  0  0  0  0  0  0  0  0  0
    9.1200  -14.0092   19.8853 C   0  0  0  0  0  0  0  0  0  0  0  0
   10.0420  -14.0081   21.0348 C   0  0  0  0  0  0  0  0  0  0  0  0
   10.0326  -15.3360   21.7023 C   0  0  2  0  0  0  0  0  0  0  0  0
    8.8613  -15.4407   22.5427 N   0  0  0  0  0  0  0  0  0  0  0  0
   11.2125  -15.7043   22.4554 C   0  0  0  0  0  0  0  0  0  0  0  0
   12.3322  -15.6703   21.8283 O   0  0  0  0  0  0  0  0  0  0  0  0
    8.0436  -13.1694   19.8952 C   0  0  0  0  0  0  0  0  0  0  0  0
    7.1435  -13.1304   18.8370 C   0  0  0  0  0  0  0  0  0  0  0  0
   11.2631  -16.0947   23.7991 N   0  0  0  0  0  0  0  0  0  0  0  0
   12.5032  -16.4189   24.4527 C   0  0  0  0  0  0  0  0  0  0  0  0
   12.8755  -17.8419   24.2896 C   0  0  0  0  0  0  0  0  0  0  0  0
   13.9403  -18.4575   24.9080 O   0  0  0  0  0  0  0  0  0  0  0  0
   12.1528  -18.5313   23.5223 O   0  0  0  0  0  0  0  0  0  0  0  0
  2  1  1  1
  2  3  1  0
  4  3  1  0
  4  5  2  0
  6  5  1  0
  7  6  1  0
  8  7  2  0
  9  8  1  0
 10  9  2  0
 10 11  1  0
 11 12  2  0
 12  7  1  0
 12  4  1  0
 13  2  1  0
 13 14  2  0
 16 26  2  0
 16 15  1  0
 17 16  1  0
 18 19  1  0
 18 17  2  0
 19 25  2  0
 20 19  1  0
 21 20  1  1
 21 22  1  0
 22 13  1  0
 23 21  1  0
 24 23  2  0
 25 26  1  0
 27 23  1  0
 28 27  1  0
 29 28  1  0
 30 29  1  0
 31 29  2  0
M  END
$$$$
