WYG.pdb
     RDKit          3D

 31 33  0  0  1  0  0  0  0  0999 V2000
    6.2593  -18.2860   23.8695 N   0  0  0  0  0  0  0  0  0  0  0  0
    6.7863  -16.9550   24.0214 C   0  0  1  0  0  0  0  0  0  0  0  0
    6.9925  -16.6304   25.4551 C   0  0  0  0  0  0  0  0  0  0  0  0
    6.4383  -15.2877   25.7539 C   0  0  0  0  0  0  0  0  0  0  0  0
    5.0892  -14.9516   25.8890 C   0  0  0  0  0  0  0  0  0  0  0  0
    4.9568  -13.6521   26.1972 N   0  0  0  0  0  0  0  0  0  0  0  0
    6.1881  -13.1115   26.2703 C   0  0  0  0  0  0  0  0  0  0  0  0
    6.6230  -11.8341   26.5407 C   0  0  0  0  0  0  0  0  0  0  0  0
    7.9678  -11.5626   26.5365 C   0  0  0  0  0  0  0  0  0  0  0  0
    8.8857  -12.5512   26.2652 C   0  0  0  0  0  0  0  0  0  0  0  0
    8.4638  -13.8404   25.9920 C   0  0  0  0  0  0  0  0  0  0  0  0
    7.1239  -14.1116   25.9973 C   0  0  0  0  0  0  0  0  0  0  0  0
    8.0675  -16.8706   23.2341 C   0  0  0  0  0  0  0  0  0  0  0  0
    8.5143  -17.8794   22.6312 O   0  0  0  0  0  0  0  0  0  0  0  0
    6.4353  -14.0392   17.2932 O   0  0  0  0  0  0  0  0  0  0  0  0
    7.2929  -14.0563   18.4009 C   0  0  0  0  0  0  0  0  0  0  0  0
    8.4979  -14.7300   18.2649 C   0  0  0  0  0  0  0  0  0  0  0  0
    9.3991  -14.7843   19.3342 C   0  0  0  0  0  0  0  0  0  0  0  0
    9.0770  -14.1674   20.5086 C   0  0  0  0  0  0  0  0  0  0  0  0
   10.0022  -14.2043   21.6550 C   0  0  0  0  0  0  0  0  0  0  0  0
    9.9909  -15.5521   22.2813 C   0  0  2  0  0  0  0  0  0  0  0  0
    8.8272  -15.6757   23.1296 N   0  0  0  0  0  0  0  0  0  0  0  0
   11.1757  -15.9505   23.0109 C   0  0  0  0  0  0  0  0  0  0  0  0
   12.2935  -15.8732   22.3842 O   0  0  0  0  0  0  0  0  0  0  0  0
    7.8889  -13.5066   20.6338 C   0  0  0  0  0  0  0  0  0  0  0  0
    6.9806  -13.4412   19.5840 C   0  0  0  0  0  0  0  0  0  0  0  0
   11.2329  -16.4126   24.3314 N   0  0  0  0  0  0  0  0  0  0  0  0
   12.4827  -16.6855   24.9902 C   0  0  0  0  0  0  0  0  0  0  0  0
   13.0790  -17.9716   24.5654 C   0  0  0  0  0  0  0  0  0  0  0  0
   12.4477  -18.9202   23.7929 O   0  0  0  0  0  0  0  0  0  0  0  0
   14.2565  -18.2029   24.9479 O   0  0  0  0  0  0  0  0  0  0  0  0
  2  1  1  1
  2  3  1  0
  4  3  1  0
  4  5  2  0
  6  5  1  0
  7  6  1  0
  8  7  2  0
  9  8  1  0
 10  9  2  0
 10 11  1  0
 11 12  2  0
 12  7  1  0
 12  4  1  0
 13  2  1  0
 13 14  2  0
 16 26  2  0
 16 15  1  0
 17 16  1  0
 18 19  1  0
 18 17  2  0
 19 25  2  0
 20 19  1  0
 21 20  1  1
 21 22  1  0
 22 13  1  0
 23 21  1  0
 24 23  2  0
 25 26  1  0
 27 23  1  0
 28 27  1  0
 29 28  1  0
 30 29  1  0
 31 29  2  0
M  END
$$$$
