WYG.pdb
     RDKit          3D

 31 33  0  0  1  0  0  0  0  0999 V2000
    6.8885  -17.7928   25.0650 N   0  0  0  0  0  0  0  0  0  0  0  0
    7.5327  -16.7213   24.3513 C   0  0  1  0  0  0  0  0  0  0  0  0
    8.3282  -15.8755   25.2761 C   0  0  0  0  0  0  0  0  0  0  0  0
    7.4259  -14.9987   26.0612 C   0  0  0  0  0  0  0  0  0  0  0  0
    6.6649  -15.3646   27.1739 C   0  0  0  0  0  0  0  0  0  0  0  0
    5.9950  -14.3055   27.6544 N   0  0  0  0  0  0  0  0  0  0  0  0
    6.2910  -13.2393   26.8868 C   0  0  0  0  0  0  0  0  0  0  0  0
    5.8796  -11.9267   26.9284 C   0  0  0  0  0  0  0  0  0  0  0  0
    6.3465  -11.0417   25.9900 C   0  0  0  0  0  0  0  0  0  0  0  0
    7.2200  -11.4506   25.0085 C   0  0  0  0  0  0  0  0  0  0  0  0
    7.6430  -12.7670   24.9538 C   0  0  0  0  0  0  0  0  0  0  0  0
    7.1789  -13.6489   25.8896 C   0  0  0  0  0  0  0  0  0  0  0  0
    8.3857  -17.3311   23.2700 C   0  0  0  0  0  0  0  0  0  0  0  0
    8.8009  -18.5132   23.3746 O   0  0  0  0  0  0  0  0  0  0  0  0
    8.1917  -11.2569   19.4632 O   0  0  0  0  0  0  0  0  0  0  0  0
    8.3332  -12.6487   19.5396 C   0  0  0  0  0  0  0  0  0  0  0  0
    9.5787  -13.1811   19.2400 C   0  0  0  0  0  0  0  0  0  0  0  0
    9.7858  -14.5639   19.2975 C   0  0  0  0  0  0  0  0  0  0  0  0
    8.7492  -15.3786   19.6513 C   0  0  0  0  0  0  0  0  0  0  0  0
    8.9318  -16.8391   19.7222 C   0  0  0  0  0  0  0  0  0  0  0  0
    9.5299  -17.2194   21.0286 C   0  0  2  0  0  0  0  0  0  0  0  0
    8.7617  -16.6234   22.0980 N   0  0  0  0  0  0  0  0  0  0  0  0
   10.9369  -16.9370   21.2173 C   0  0  0  0  0  0  0  0  0  0  0  0
   11.7325  -17.3160   20.2839 O   0  0  0  0  0  0  0  0  0  0  0  0
    7.5267  -14.8461   19.9445 C   0  0  0  0  0  0  0  0  0  0  0  0
    7.3006  -13.4758   19.8932 C   0  0  0  0  0  0  0  0  0  0  0  0
   11.5243  -16.2924   22.3127 N   0  0  0  0  0  0  0  0  0  0  0  0
   12.9349  -16.0140   22.3669 C   0  0  0  0  0  0  0  0  0  0  0  0
   13.7128  -17.1345   22.9408 C   0  0  0  0  0  0  0  0  0  0  0  0
   13.2119  -18.3868   23.2163 O   0  0  0  0  0  0  0  0  0  0  0  0
   14.9266  -16.9104   23.1918 O   0  0  0  0  0  0  0  0  0  0  0  0
  2  1  1  1
  2  3  1  0
  4  3  1  0
  4  5  2  0
  6  5  1  0
  7  6  1  0
  8  7  2  0
  9  8  1  0
 10  9  2  0
 10 11  1  0
 11 12  2  0
 12  7  1  0
 12  4  1  0
 13  2  1  0
 13 14  2  0
 16 26  2  0
 16 15  1  0
 17 16  1  0
 18 19  1  0
 18 17  2  0
 19 25  2  0
 20 19  1  0
 21 20  1  6
 21 22  1  0
 22 13  1  0
 23 21  1  0
 24 23  2  0
 25 26  1  0
 27 23  1  0
 28 27  1  0
 29 28  1  0
 30 29  1  0
 31 29  2  0
M  END
$$$$
