WYG.pdb
     RDKit          3D

 31 33  0  0  1  0  0  0  0  0999 V2000
    7.6143  -18.7552   26.3198 N   0  0  0  0  0  0  0  0  0  0  0  0
    8.4550  -17.6590   25.9150 C   0  0  1  0  0  0  0  0  0  0  0  0
    9.8835  -17.9657   26.1770 C   0  0  0  0  0  0  0  0  0  0  0  0
   10.3540  -17.2077   27.3616 C   0  0  0  0  0  0  0  0  0  0  0  0
   10.5965  -17.7189   28.6387 C   0  0  0  0  0  0  0  0  0  0  0  0
   11.0492  -16.7535   29.4537 N   0  0  0  0  0  0  0  0  0  0  0  0
   11.1139  -15.6073   28.7496 C   0  0  0  0  0  0  0  0  0  0  0  0
   11.4962  -14.3308   29.0934 C   0  0  0  0  0  0  0  0  0  0  0  0
   11.4493  -13.3342   28.1519 C   0  0  0  0  0  0  0  0  0  0  0  0
   11.0246  -13.5955   26.8693 C   0  0  0  0  0  0  0  0  0  0  0  0
   10.6374  -14.8741   26.5085 C   0  0  0  0  0  0  0  0  0  0  0  0
   10.6853  -15.8677   27.4461 C   0  0  0  0  0  0  0  0  0  0  0  0
    8.1946  -17.3886   24.4564 C   0  0  0  0  0  0  0  0  0  0  0  0
    7.7062  -18.2818   23.7185 O   0  0  0  0  0  0  0  0  0  0  0  0
    5.3744  -12.7673   27.0325 O   0  0  0  0  0  0  0  0  0  0  0  0
    5.9635  -13.1906   25.8339 C   0  0  0  0  0  0  0  0  0  0  0  0
    5.4872  -14.3640   25.2679 C   0  0  0  0  0  0  0  0  0  0  0  0
    6.0333  -14.8410   24.0710 C   0  0  0  0  0  0  0  0  0  0  0  0
    7.0376  -14.1381   23.4704 C   0  0  0  0  0  0  0  0  0  0  0  0
    7.6357  -14.6110   22.2094 C   0  0  0  0  0  0  0  0  0  0  0  0
    8.3345  -15.9048   22.4254 C   0  0  2  0  0  0  0  0  0  0  0  0
    8.4788  -16.1394   23.8443 N   0  0  0  0  0  0  0  0  0  0  0  0
    9.6099  -16.0842   21.7652 C   0  0  0  0  0  0  0  0  0  0  0  0
    9.6155  -15.9932   20.4847 O   0  0  0  0  0  0  0  0  0  0  0  0
    7.5004  -12.9841   24.0343 C   0  0  0  0  0  0  0  0  0  0  0  0
    6.9715  -12.4938   25.2223 C   0  0  0  0  0  0  0  0  0  0  0  0
   10.8420  -16.3471   22.3761 N   0  0  0  0  0  0  0  0  0  0  0  0
   12.0536  -16.4981   21.6148 C   0  0  0  0  0  0  0  0  0  0  0  0
   13.2664  -16.4393   22.4608 C   0  0  0  0  0  0  0  0  0  0  0  0
   14.5418  -16.2004   22.0009 O   0  0  0  0  0  0  0  0  0  0  0  0
   13.1039  -16.6241   23.6961 O   0  0  0  0  0  0  0  0  0  0  0  0
  2  1  1  6
  2  3  1  0
  4  3  1  0
  4  5  2  0
  6  5  1  0
  7  6  1  0
  8  7  2  0
  9  8  1  0
 10  9  2  0
 10 11  1  0
 11 12  2  0
 12  7  1  0
 12  4  1  0
 13  2  1  0
 13 14  2  0
 16 26  2  0
 16 15  1  0
 17 16  1  0
 18 19  1  0
 18 17  2  0
 19 25  2  0
 20 19  1  0
 21 20  1  1
 21 22  1  0
 22 13  1  0
 23 21  1  0
 24 23  2  0
 25 26  1  0
 27 23  1  0
 28 27  1  0
 29 28  1  0
 30 29  1  0
 31 29  2  0
M  END
$$$$
