WYG.pdb
     RDKit          3D

 31 33  0  0  1  0  0  0  0  0999 V2000
    6.0933  -18.5226   23.9391 N   0  0  0  0  0  0  0  0  0  0  0  0
    6.5545  -17.1910   24.2327 C   0  0  1  0  0  0  0  0  0  0  0  0
    6.7121  -16.9985   25.6961 C   0  0  0  0  0  0  0  0  0  0  0  0
    6.5967  -15.5586   26.0316 C   0  0  0  0  0  0  0  0  0  0  0  0
    5.4375  -14.7805   25.9875 C   0  0  0  0  0  0  0  0  0  0  0  0
    5.6962  -13.5278   26.3935 N   0  0  0  0  0  0  0  0  0  0  0  0
    7.0035  -13.4508   26.7075 C   0  0  0  0  0  0  0  0  0  0  0  0
    7.7862  -12.4142   27.1620 C   0  0  0  0  0  0  0  0  0  0  0  0
    9.1220  -12.6260   27.3920 C   0  0  0  0  0  0  0  0  0  0  0  0
    9.6878  -13.8612   27.1735 C   0  0  0  0  0  0  0  0  0  0  0  0
    8.9136  -14.9133   26.7169 C   0  0  0  0  0  0  0  0  0  0  0  0
    7.5822  -14.7030   26.4889 C   0  0  0  0  0  0  0  0  0  0  0  0
    7.8485  -16.9745   23.4928 C   0  0  0  0  0  0  0  0  0  0  0  0
    8.4077  -17.9270   22.8921 O   0  0  0  0  0  0  0  0  0  0  0  0
    6.6562  -13.5015   17.4053 O   0  0  0  0  0  0  0  0  0  0  0  0
    7.4341  -13.6301   18.5634 C   0  0  0  0  0  0  0  0  0  0  0  0
    6.7656  -13.8276   19.7627 C   0  0  0  0  0  0  0  0  0  0  0  0
    7.4846  -13.9638   20.9556 C   0  0  0  0  0  0  0  0  0  0  0  0
    8.8478  -13.8998   20.9227 C   0  0  0  0  0  0  0  0  0  0  0  0
    9.6366  -14.0392   22.1596 C   0  0  0  0  0  0  0  0  0  0  0  0
    9.6520  -15.4580   22.6021 C   0  0  2  0  0  0  0  0  0  0  0  0
    8.4966  -15.7127   23.4323 N   0  0  0  0  0  0  0  0  0  0  0  0
   10.8484  -15.9289   23.2667 C   0  0  0  0  0  0  0  0  0  0  0  0
   11.9688  -15.6509   22.7051 O   0  0  0  0  0  0  0  0  0  0  0  0
    9.4976  -13.7052   19.7379 C   0  0  0  0  0  0  0  0  0  0  0  0
    8.8020  -13.5676   18.5426 C   0  0  0  0  0  0  0  0  0  0  0  0
   10.9142  -16.6574   24.4606 N   0  0  0  0  0  0  0  0  0  0  0  0
   12.1667  -17.0873   25.0234 C   0  0  0  0  0  0  0  0  0  0  0  0
   11.9938  -17.8298   26.2918 C   0  0  0  0  0  0  0  0  0  0  0  0
   13.0061  -18.1408   27.1714 O   0  0  0  0  0  0  0  0  0  0  0  0
   10.8238  -18.1997   26.5758 O   0  0  0  0  0  0  0  0  0  0  0  0
  2  1  1  1
  2  3  1  0
  4  3  1  0
  4  5  2  0
  6  5  1  0
  7  6  1  0
  8  7  2  0
  9  8  1  0
 10  9  2  0
 10 11  1  0
 11 12  2  0
 12  7  1  0
 12  4  1  0
 13  2  1  0
 13 14  2  0
 16 26  2  0
 16 15  1  0
 17 16  1  0
 18 19  1  0
 18 17  2  0
 19 25  2  0
 20 19  1  0
 21 20  1  1
 21 22  1  0
 22 13  1  0
 23 21  1  0
 24 23  2  0
 25 26  1  0
 27 23  1  0
 28 27  1  0
 29 28  1  0
 30 29  1  0
 31 29  2  0
M  END
$$$$
