WYG.pdb
     RDKit          3D

 31 33  0  0  1  0  0  0  0  0999 V2000
    7.1458  -17.6837   24.2730 N   0  0  0  0  0  0  0  0  0  0  0  0
    8.2758  -16.8940   24.6875 C   0  0  1  0  0  0  0  0  0  0  0  0
    8.0613  -16.3405   26.0481 C   0  0  0  0  0  0  0  0  0  0  0  0
    7.0835  -15.2270   25.9922 C   0  0  0  0  0  0  0  0  0  0  0  0
    5.6990  -15.3219   26.1514 C   0  0  0  0  0  0  0  0  0  0  0  0
    5.1326  -14.1074   26.0768 N   0  0  0  0  0  0  0  0  0  0  0  0
    6.1083  -13.2024   25.8702 C   0  0  0  0  0  0  0  0  0  0  0  0
    6.0837  -11.8355   25.7118 C   0  0  0  0  0  0  0  0  0  0  0  0
    7.2577  -11.1582   25.4997 C   0  0  0  0  0  0  0  0  0  0  0  0
    8.4581  -11.8287   25.4433 C   0  0  0  0  0  0  0  0  0  0  0  0
    8.4989  -13.2028   25.6012 C   0  0  0  0  0  0  0  0  0  0  0  0
    7.3293  -13.8779   25.8138 C   0  0  0  0  0  0  0  0  0  0  0  0
    9.5015  -17.7668   24.6205 C   0  0  0  0  0  0  0  0  0  0  0  0
    9.3927  -19.0189   24.5866 O   0  0  0  0  0  0  0  0  0  0  0  0
   10.7441  -16.8643   18.5353 O   0  0  0  0  0  0  0  0  0  0  0  0
   11.3036  -17.0652   19.8039 C   0  0  0  0  0  0  0  0  0  0  0  0
   11.6446  -15.9380   20.5370 C   0  0  0  0  0  0  0  0  0  0  0  0
   12.2076  -16.0704   21.8114 C   0  0  0  0  0  0  0  0  0  0  0  0
   12.4157  -17.3195   22.3211 C   0  0  0  0  0  0  0  0  0  0  0  0
   13.0064  -17.4960   23.6596 C   0  0  0  0  0  0  0  0  0  0  0  0
   12.0021  -18.0699   24.5929 C   0  0  2  0  0  0  0  0  0  0  0  0
   10.8193  -17.2392   24.5927 N   0  0  0  0  0  0  0  0  0  0  0  0
   12.4303  -18.3153   25.9535 C   0  0  0  0  0  0  0  0  0  0  0  0
   13.5155  -18.9840   26.1060 O   0  0  0  0  0  0  0  0  0  0  0  0
   12.0772  -18.4235   21.5927 C   0  0  0  0  0  0  0  0  0  0  0  0
   11.5171  -18.3133   20.3256 C   0  0  0  0  0  0  0  0  0  0  0  0
   11.7853  -17.8998   27.1247 N   0  0  0  0  0  0  0  0  0  0  0  0
   12.2614  -18.2720   28.4304 C   0  0  0  0  0  0  0  0  0  0  0  0
   11.4802  -19.3794   29.0248 C   0  0  0  0  0  0  0  0  0  0  0  0
   11.5905  -19.8172   30.3254 O   0  0  0  0  0  0  0  0  0  0  0  0
   10.6536  -19.9573   28.2703 O   0  0  0  0  0  0  0  0  0  0  0  0
  2  1  1  1
  2  3  1  0
  4  3  1  0
  4  5  2  0
  6  5  1  0
  7  6  1  0
  8  7  2  0
  9  8  1  0
 10  9  2  0
 10 11  1  0
 11 12  2  0
 12  7  1  0
 12  4  1  0
 13  2  1  0
 13 14  2  0
 16 26  2  0
 16 15  1  0
 17 16  1  0
 18 19  1  0
 18 17  2  0
 19 25  2  0
 20 19  1  0
 21 20  1  6
 21 22  1  0
 22 13  1  0
 23 21  1  0
 24 23  2  0
 25 26  1  0
 27 23  1  0
 28 27  1  0
 29 28  1  0
 30 29  1  0
 31 29  2  0
M  END
$$$$
