WYG.pdb
     RDKit          3D

 31 33  0  0  1  0  0  0  0  0999 V2000
    6.2074  -18.3999   23.8032 N   0  0  0  0  0  0  0  0  0  0  0  0
    6.6691  -17.0706   24.1065 C   0  0  1  0  0  0  0  0  0  0  0  0
    6.8036  -16.8810   25.5726 C   0  0  0  0  0  0  0  0  0  0  0  0
    6.5978  -15.4537   25.9184 C   0  0  0  0  0  0  0  0  0  0  0  0
    5.4258  -14.7130   25.7481 C   0  0  0  0  0  0  0  0  0  0  0  0
    5.5892  -13.4621   26.2059 N   0  0  0  0  0  0  0  0  0  0  0  0
    6.8454  -13.3497   26.6781 C   0  0  0  0  0  0  0  0  0  0  0  0
    7.5304  -12.2987   27.2438 C   0  0  0  0  0  0  0  0  0  0  0  0
    8.8352  -12.4720   27.6307 C   0  0  0  0  0  0  0  0  0  0  0  0
    9.4663  -13.6828   27.4596 C   0  0  0  0  0  0  0  0  0  0  0  0
    8.7905  -14.7489   26.8926 C   0  0  0  0  0  0  0  0  0  0  0  0
    7.4900  -14.5769   26.5082 C   0  0  0  0  0  0  0  0  0  0  0  0
    7.9758  -16.8581   23.3882 C   0  0  0  0  0  0  0  0  0  0  0  0
    8.6489  -17.8398   22.9831 O   0  0  0  0  0  0  0  0  0  0  0  0
    6.5723  -14.0219   17.1105 O   0  0  0  0  0  0  0  0  0  0  0  0
    7.3816  -14.0431   18.2539 C   0  0  0  0  0  0  0  0  0  0  0  0
    6.9715  -13.2845   19.3405 C   0  0  0  0  0  0  0  0  0  0  0  0
    7.7354  -13.2628   20.5128 C   0  0  0  0  0  0  0  0  0  0  0  0
    8.8855  -13.9958   20.5721 C   0  0  0  0  0  0  0  0  0  0  0  0
    9.7141  -13.9963   21.7906 C   0  0  0  0  0  0  0  0  0  0  0  0
    9.7360  -15.3532   22.3967 C   0  0  2  0  0  0  0  0  0  0  0  0
    8.5109  -15.5680   23.1331 N   0  0  0  0  0  0  0  0  0  0  0  0
   10.8736  -15.6868   23.2270 C   0  0  0  0  0  0  0  0  0  0  0  0
   10.8272  -15.3041   24.4516 O   0  0  0  0  0  0  0  0  0  0  0  0
    9.2817  -14.7396   19.4981 C   0  0  0  0  0  0  0  0  0  0  0  0
    8.5373  -14.7745   18.3249 C   0  0  0  0  0  0  0  0  0  0  0  0
   12.0228  -16.3845   22.8359 N   0  0  0  0  0  0  0  0  0  0  0  0
   13.0836  -16.6854   23.7602 C   0  0  0  0  0  0  0  0  0  0  0  0
   14.1378  -17.5317   23.1582 C   0  0  0  0  0  0  0  0  0  0  0  0
   14.1250  -18.0153   21.8694 O   0  0  0  0  0  0  0  0  0  0  0  0
   15.1172  -17.8243   23.8942 O   0  0  0  0  0  0  0  0  0  0  0  0
  2  1  1  1
  2  3  1  0
  4  3  1  0
  4  5  2  0
  6  5  1  0
  7  6  1  0
  8  7  2  0
  9  8  1  0
 10  9  2  0
 10 11  1  0
 11 12  2  0
 12  7  1  0
 12  4  1  0
 13  2  1  0
 13 14  2  0
 16 26  2  0
 16 15  1  0
 17 16  1  0
 18 19  1  0
 18 17  2  0
 19 25  2  0
 20 19  1  0
 21 20  1  1
 21 22  1  0
 22 13  1  0
 23 21  1  0
 24 23  2  0
 25 26  1  0
 27 23  1  0
 28 27  1  0
 29 28  1  0
 30 29  1  0
 31 29  2  0
M  END
$$$$
