WYG.pdb
     RDKit          3D

 31 33  0  0  1  0  0  0  0  0999 V2000
    7.2319  -18.9127   26.2338 N   0  0  0  0  0  0  0  0  0  0  0  0
    8.0288  -17.7277   26.0526 C   0  0  1  0  0  0  0  0  0  0  0  0
    9.4170  -17.9480   26.5298 C   0  0  0  0  0  0  0  0  0  0  0  0
    9.6871  -17.0923   27.7105 C   0  0  0  0  0  0  0  0  0  0  0  0
   10.1073  -17.5181   28.9728 C   0  0  0  0  0  0  0  0  0  0  0  0
   10.2888  -16.4671   29.7874 N   0  0  0  0  0  0  0  0  0  0  0  0
    9.9983  -15.3475   29.0976 C   0  0  0  0  0  0  0  0  0  0  0  0
   10.0078  -14.0166   29.4477 C   0  0  0  0  0  0  0  0  0  0  0  0
    9.6458  -13.0713   28.5218 C   0  0  0  0  0  0  0  0  0  0  0  0
    9.2735  -13.4378   27.2487 C   0  0  0  0  0  0  0  0  0  0  0  0
    9.2594  -14.7719   26.8818 C   0  0  0  0  0  0  0  0  0  0  0  0
    9.6212  -15.7141   27.8038 C   0  0  0  0  0  0  0  0  0  0  0  0
    7.9862  -17.3587   24.5929 C   0  0  0  0  0  0  0  0  0  0  0  0
    7.8441  -18.2462   23.7137 O   0  0  0  0  0  0  0  0  0  0  0  0
    7.4808  -12.7966   17.1523 O   0  0  0  0  0  0  0  0  0  0  0  0
    7.5125  -13.1683   18.5027 C   0  0  0  0  0  0  0  0  0  0  0  0
    8.6393  -12.8220   19.2339 C   0  0  0  0  0  0  0  0  0  0  0  0
    8.7329  -13.1640   20.5877 C   0  0  0  0  0  0  0  0  0  0  0  0
    7.7039  -13.8406   21.1765 C   0  0  0  0  0  0  0  0  0  0  0  0
    7.7688  -14.2166   22.5999 C   0  0  0  0  0  0  0  0  0  0  0  0
    8.0951  -15.6602   22.7357 C   0  0  2  0  0  0  0  0  0  0  0  0
    8.1015  -16.0195   24.1357 N   0  0  0  0  0  0  0  0  0  0  0  0
    9.3117  -16.1240   22.1036 C   0  0  0  0  0  0  0  0  0  0  0  0
    9.2093  -16.5518   20.8976 O   0  0  0  0  0  0  0  0  0  0  0  0
    6.5986  -14.1775   20.4494 C   0  0  0  0  0  0  0  0  0  0  0  0
    6.4863  -13.8471   19.1041 C   0  0  0  0  0  0  0  0  0  0  0  0
   10.5923  -16.1558   22.6689 N   0  0  0  0  0  0  0  0  0  0  0  0
   11.7503  -16.5510   21.9119 C   0  0  0  0  0  0  0  0  0  0  0  0
   13.0103  -16.3709   22.6667 C   0  0  0  0  0  0  0  0  0  0  0  0
   13.0969  -16.1637   24.0250 O   0  0  0  0  0  0  0  0  0  0  0  0
   14.0791  -16.4128   22.0016 O   0  0  0  0  0  0  0  0  0  0  0  0
  2  1  1  6
  2  3  1  0
  4  3  1  0
  4  5  2  0
  6  5  1  0
  7  6  1  0
  8  7  2  0
  9  8  1  0
 10  9  2  0
 10 11  1  0
 11 12  2  0
 12  7  1  0
 12  4  1  0
 13  2  1  0
 13 14  2  0
 16 26  2  0
 16 15  1  0
 17 16  1  0
 18 19  1  0
 18 17  2  0
 19 25  2  0
 20 19  1  0
 21 20  1  1
 21 22  1  0
 22 13  1  0
 23 21  1  0
 24 23  2  0
 25 26  1  0
 27 23  1  0
 28 27  1  0
 29 28  1  0
 30 29  1  0
 31 29  2  0
M  END
$$$$
