WYG.pdb
     RDKit          3D

 31 33  0  0  1  0  0  0  0  0999 V2000
    6.7197  -18.3355   25.1931 N   0  0  0  0  0  0  0  0  0  0  0  0
    7.5811  -17.4969   24.4013 C   0  0  1  0  0  0  0  0  0  0  0  0
    6.8180  -16.3727   23.8035 C   0  0  0  0  0  0  0  0  0  0  0  0
    6.4743  -15.3816   24.8517 C   0  0  0  0  0  0  0  0  0  0  0  0
    5.7555  -15.6214   26.0252 C   0  0  0  0  0  0  0  0  0  0  0  0
    5.6656  -14.5012   26.7589 N   0  0  0  0  0  0  0  0  0  0  0  0
    6.3080  -13.5171   26.1012 C   0  0  0  0  0  0  0  0  0  0  0  0
    6.5115  -12.1880   26.3945 C   0  0  0  0  0  0  0  0  0  0  0  0
    7.2101  -11.4007   25.5147 C   0  0  0  0  0  0  0  0  0  0  0  0
    7.7090  -11.9237   24.3437 C   0  0  0  0  0  0  0  0  0  0  0  0
    7.5129  -13.2583   24.0352 C   0  0  0  0  0  0  0  0  0  0  0  0
    6.8178  -14.0434   24.9122 C   0  0  0  0  0  0  0  0  0  0  0  0
    8.6986  -17.0118   25.2872 C   0  0  0  0  0  0  0  0  0  0  0  0
    8.4792  -16.7214   26.4907 O   0  0  0  0  0  0  0  0  0  0  0  0
   11.0423  -17.5821   30.4699 O   0  0  0  0  0  0  0  0  0  0  0  0
   10.8588  -16.8651   29.2803 C   0  0  0  0  0  0  0  0  0  0  0  0
   11.9866  -16.3245   28.6803 C   0  0  0  0  0  0  0  0  0  0  0  0
   11.8712  -15.5973   27.4902 C   0  0  0  0  0  0  0  0  0  0  0  0
   10.6379  -15.4280   26.9301 C   0  0  0  0  0  0  0  0  0  0  0  0
   10.4795  -14.6681   25.6775 C   0  0  0  0  0  0  0  0  0  0  0  0
   10.6138  -15.5737   24.5066 C   0  0  2  0  0  0  0  0  0  0  0  0
   10.0325  -16.8579   24.8259 N   0  0  0  0  0  0  0  0  0  0  0  0
   11.9427  -15.7569   23.9632 C   0  0  0  0  0  0  0  0  0  0  0  0
   12.8331  -16.2261   24.7600 O   0  0  0  0  0  0  0  0  0  0  0  0
    9.5332  -15.9634   27.5273 C   0  0  0  0  0  0  0  0  0  0  0  0
    9.6266  -16.6887   28.7092 C   0  0  0  0  0  0  0  0  0  0  0  0
   12.3617  -15.4764   22.6570 N   0  0  0  0  0  0  0  0  0  0  0  0
   12.5191  -16.5098   21.6682 C   0  0  0  0  0  0  0  0  0  0  0  0
   13.8635  -17.1274   21.7020 C   0  0  0  0  0  0  0  0  0  0  0  0
   14.2790  -18.1640   20.8971 O   0  0  0  0  0  0  0  0  0  0  0  0
   14.6809  -16.6578   22.5373 O   0  0  0  0  0  0  0  0  0  0  0  0
  2  1  1  1
  2  3  1  0
  4  3  1  0
  4  5  2  0
  6  5  1  0
  7  6  1  0
  8  7  2  0
  9  8  1  0
 10  9  2  0
 10 11  1  0
 11 12  2  0
 12  7  1  0
 12  4  1  0
 13  2  1  0
 13 14  2  0
 16 26  2  0
 16 15  1  0
 17 16  1  0
 18 19  1  0
 18 17  2  0
 19 25  2  0
 20 19  1  0
 21 20  1  1
 21 22  1  0
 22 13  1  0
 23 21  1  0
 24 23  2  0
 25 26  1  0
 27 23  1  0
 28 27  1  0
 29 28  1  0
 30 29  1  0
 31 29  2  0
M  END
$$$$
