GTG.pdb
     RDKit          3D

 16 15  0  0  1  0  0  0  0  0999 V2000
    4.6763  -20.1162   20.6090 N   0  0  0  0  0  0  0  0  0  0  0  0
    4.4349  -19.2733   21.7619 C   0  0  0  0  0  0  0  0  0  0  0  0
    5.7336  -18.6398   22.1841 C   0  0  0  0  0  0  0  0  0  0  0  0
    6.7811  -19.3338   22.2032 O   0  0  0  0  0  0  0  0  0  0  0  0
    8.2462  -14.4913   23.1080 C   0  0  0  0  0  0  0  0  0  0  0  0
    6.9814  -15.2107   22.6924 C   0  0  1  0  0  0  0  0  0  0  0  0
    6.8250  -15.0465   21.3319 O   0  0  0  0  0  0  0  0  0  0  0  0
    7.0311  -16.6791   23.0864 C   0  0  2  0  0  0  0  0  0  0  0  0
    5.8196  -17.2885   22.5613 N   0  0  0  0  0  0  0  0  0  0  0  0
    7.1312  -16.8327   24.5458 C   0  0  0  0  0  0  0  0  0  0  0  0
    6.0870  -16.5597   25.2304 O   0  0  0  0  0  0  0  0  0  0  0  0
    8.3157  -17.2623   25.2008 N   0  0  0  0  0  0  0  0  0  0  0  0
    8.2530  -17.4471   26.6324 C   0  0  0  0  0  0  0  0  0  0  0  0
    9.5282  -17.8497   27.2210 C   0  0  0  0  0  0  0  0  0  0  0  0
    9.6673  -18.0367   28.5814 O   0  0  0  0  0  0  0  0  0  0  0  0
   10.5253  -18.0325   26.4855 O   0  0  0  0  0  0  0  0  0  0  0  0
  2  1  1  0
  2  3  1  0
  3  4  2  0
  6  5  1  6
  6  8  1  0
  7  6  1  0
  9  3  1  0
  8  9  1  1
 10  8  1  0
 10 12  1  0
 11 10  2  0
 13 12  1  0
 14 13  1  0
 15 14  1  0
 16 14  2  0
M  END
$$$$
