GTG.pdb
     RDKit          3D

 16 15  0  0  1  0  0  0  0  0999 V2000
    7.0395  -17.5602   16.3257 N   0  0  0  0  0  0  0  0  0  0  0  0
    6.9560  -16.9282   17.6263 C   0  0  0  0  0  0  0  0  0  0  0  0
    8.1872  -16.0891   17.8414 C   0  0  0  0  0  0  0  0  0  0  0  0
    9.1287  -16.1510   17.0115 O   0  0  0  0  0  0  0  0  0  0  0  0
    7.9224  -12.5792   18.3604 C   0  0  0  0  0  0  0  0  0  0  0  0
    8.9359  -12.9740   19.4125 C   0  0  1  0  0  0  0  0  0  0  0  0
    8.3286  -12.8770   20.6470 O   0  0  0  0  0  0  0  0  0  0  0  0
    9.4790  -14.3712   19.1536 C   0  0  2  0  0  0  0  0  0  0  0  0
    8.3245  -15.2308   18.9461 N   0  0  0  0  0  0  0  0  0  0  0  0
   10.3088  -14.8332   20.2767 C   0  0  0  0  0  0  0  0  0  0  0  0
    9.6968  -15.3183   21.2886 O   0  0  0  0  0  0  0  0  0  0  0  0
   11.7270  -14.7605   20.2743 N   0  0  0  0  0  0  0  0  0  0  0  0
   12.4217  -15.3043   21.4186 C   0  0  0  0  0  0  0  0  0  0  0  0
   13.8712  -15.1342   21.3509 C   0  0  0  0  0  0  0  0  0  0  0  0
   14.6926  -15.5289   22.3876 O   0  0  0  0  0  0  0  0  0  0  0  0
   14.3928  -14.6200   20.3349 O   0  0  0  0  0  0  0  0  0  0  0  0
  2  1  1  0
  2  3  1  0
  3  4  2  0
  6  5  1  6
  6  8  1  0
  7  6  1  0
  9  3  1  0
  8  9  1  1
 10  8  1  0
 10 12  1  0
 11 10  2  0
 13 12  1  0
 14 13  1  0
 15 14  1  0
 16 14  2  0
M  END
$$$$
