GTG.pdb
     RDKit          3D

 16 15  0  0  1  0  0  0  0  0999 V2000
    7.9391  -17.9101   16.8640 N   0  0  0  0  0  0  0  0  0  0  0  0
    7.4036  -17.8783   18.2094 C   0  0  0  0  0  0  0  0  0  0  0  0
    8.2562  -16.9686   19.0530 C   0  0  0  0  0  0  0  0  0  0  0  0
    9.2760  -16.4354   18.5481 O   0  0  0  0  0  0  0  0  0  0  0  0
    6.7685  -14.1883   21.0179 C   0  0  0  0  0  0  0  0  0  0  0  0
    7.6904  -14.9184   21.9702 C   0  0  1  0  0  0  0  0  0  0  0  0
    6.9129  -15.6879   22.8103 O   0  0  0  0  0  0  0  0  0  0  0  0
    8.7100  -15.7555   21.2127 C   0  0  2  0  0  0  0  0  0  0  0  0
    7.9518  -16.6905   20.3967 N   0  0  0  0  0  0  0  0  0  0  0  0
    9.6175  -16.4502   22.1385 C   0  0  0  0  0  0  0  0  0  0  0  0
    9.1529  -17.4738   22.7469 O   0  0  0  0  0  0  0  0  0  0  0  0
   10.9548  -16.0335   22.3722 N   0  0  0  0  0  0  0  0  0  0  0  0
   11.7336  -16.8003   23.3173 C   0  0  0  0  0  0  0  0  0  0  0  0
   13.1285  -16.3735   23.3997 C   0  0  0  0  0  0  0  0  0  0  0  0
   14.0184  -16.9806   24.2626 O   0  0  0  0  0  0  0  0  0  0  0  0
   13.5386  -15.4368   22.6765 O   0  0  0  0  0  0  0  0  0  0  0  0
  2  1  1  0
  2  3  1  0
  3  4  2  0
  6  5  1  6
  6  8  1  0
  7  6  1  0
  9  3  1  0
  8  9  1  1
 10  8  1  0
 10 12  1  0
 11 10  2  0
 13 12  1  0
 14 13  1  0
 15 14  1  0
 16 14  2  0
M  END
$$$$
