GTG.pdb
     RDKit          3D

 16 15  0  0  1  0  0  0  0  0999 V2000
    8.2377  -12.3820   18.3005 N   0  0  0  0  0  0  0  0  0  0  0  0
    9.0560  -13.4539   18.8289 C   0  0  0  0  0  0  0  0  0  0  0  0
    8.5610  -13.8136   20.2043 C   0  0  0  0  0  0  0  0  0  0  0  0
    7.7593  -13.0449   20.7921 O   0  0  0  0  0  0  0  0  0  0  0  0
    6.6922  -16.8621   23.1481 C   0  0  0  0  0  0  0  0  0  0  0  0
    7.5343  -16.5714   21.9249 C   0  0  1  0  0  0  0  0  0  0  0  0
    6.6820  -16.3503   20.8633 O   0  0  0  0  0  0  0  0  0  0  0  0
    8.4617  -15.3899   22.1658 C   0  0  2  0  0  0  0  0  0  0  0  0
    8.9654  -14.9882   20.8621 N   0  0  0  0  0  0  0  0  0  0  0  0
    9.5519  -15.7512   23.0847 C   0  0  0  0  0  0  0  0  0  0  0  0
   10.6331  -16.1854   22.5592 O   0  0  0  0  0  0  0  0  0  0  0  0
    9.4463  -15.6366   24.4962 N   0  0  0  0  0  0  0  0  0  0  0  0
   10.6329  -15.9072   25.2749 C   0  0  0  0  0  0  0  0  0  0  0  0
   10.5655  -17.1649   26.0155 C   0  0  0  0  0  0  0  0  0  0  0  0
   11.5904  -17.5671   26.8479 O   0  0  0  0  0  0  0  0  0  0  0  0
    9.5607  -17.9037   25.9012 O   0  0  0  0  0  0  0  0  0  0  0  0
  2  1  1  0
  2  3  1  0
  3  4  2  0
  6  5  1  1
  6  8  1  0
  7  6  1  0
  9  3  1  0
  8  9  1  6
 10  8  1  0
 10 12  1  0
 11 10  2  0
 13 12  1  0
 14 13  1  0
 15 14  1  0
 16 14  2  0
M  END
$$$$
