GTG.pdb
     RDKit          3D

 16 15  0  0  1  0  0  0  0  0999 V2000
    4.5804  -19.3700   22.6540 N   0  0  0  0  0  0  0  0  0  0  0  0
    4.8212  -17.9626   22.8969 C   0  0  0  0  0  0  0  0  0  0  0  0
    6.0168  -17.5259   22.0931 C   0  0  0  0  0  0  0  0  0  0  0  0
    6.0896  -17.8359   20.8775 O   0  0  0  0  0  0  0  0  0  0  0  0
    7.0321  -14.0248   21.8327 C   0  0  0  0  0  0  0  0  0  0  0  0
    7.6065  -15.1503   21.0001 C   0  0  1  0  0  0  0  0  0  0  0  0
    8.5609  -14.6151   20.1603 O   0  0  0  0  0  0  0  0  0  0  0  0
    8.1775  -16.2495   21.8831 C   0  0  2  0  0  0  0  0  0  0  0  0
    7.0647  -16.7773   22.6564 N   0  0  0  0  0  0  0  0  0  0  0  0
    9.2469  -15.7307   22.7495 C   0  0  0  0  0  0  0  0  0  0  0  0
    8.8961  -14.9519   23.7004 O   0  0  0  0  0  0  0  0  0  0  0  0
   10.6172  -16.0572   22.5700 N   0  0  0  0  0  0  0  0  0  0  0  0
   11.5524  -15.5607   23.5531 C   0  0  0  0  0  0  0  0  0  0  0  0
   12.9303  -15.9786   23.3049 C   0  0  0  0  0  0  0  0  0  0  0  0
   13.9459  -15.6755   24.1890 O   0  0  0  0  0  0  0  0  0  0  0  0
   13.2093  -16.6269   22.2703 O   0  0  0  0  0  0  0  0  0  0  0  0
  2  1  1  0
  2  3  1  0
  3  4  2  0
  6  5  1  1
  6  8  1  0
  7  6  1  0
  9  3  1  0
  8  9  1  1
 10  8  1  0
 10 12  1  0
 11 10  2  0
 13 12  1  0
 14 13  1  0
 15 14  1  0
 16 14  2  0
M  END
$$$$
