GTG.pdb
     RDKit          3D

 16 15  0  0  1  0  0  0  0  0999 V2000
    9.8675  -16.1299   15.9121 N   0  0  0  0  0  0  0  0  0  0  0  0
    8.8509  -16.2261   16.9394 C   0  0  0  0  0  0  0  0  0  0  0  0
    9.3210  -15.4850   18.1625 C   0  0  0  0  0  0  0  0  0  0  0  0
   10.5335  -15.1715   18.2658 O   0  0  0  0  0  0  0  0  0  0  0  0
    7.2268  -12.6721   19.7137 C   0  0  0  0  0  0  0  0  0  0  0  0
    7.6995  -13.5640   20.8411 C   0  0  1  0  0  0  0  0  0  0  0  0
    6.6287  -14.3259   21.2596 O   0  0  0  0  0  0  0  0  0  0  0  0
    8.8742  -14.4255   20.4030 C   0  0  2  0  0  0  0  0  0  0  0  0
    8.4465  -15.1271   19.2031 N   0  0  0  0  0  0  0  0  0  0  0  0
    9.2730  -15.3584   21.4679 C   0  0  0  0  0  0  0  0  0  0  0  0
    8.9624  -16.5879   21.3080 O   0  0  0  0  0  0  0  0  0  0  0  0
    9.9719  -14.9501   22.6347 N   0  0  0  0  0  0  0  0  0  0  0  0
   10.3024  -15.9712   23.6021 C   0  0  0  0  0  0  0  0  0  0  0  0
   11.6994  -16.3951   23.5426 C   0  0  0  0  0  0  0  0  0  0  0  0
   12.4575  -16.5421   24.6866 O   0  0  0  0  0  0  0  0  0  0  0  0
   12.2328  -16.6336   22.4349 O   0  0  0  0  0  0  0  0  0  0  0  0
  2  1  1  0
  2  3  1  0
  3  4  2  0
  6  5  1  6
  6  8  1  0
  7  6  1  0
  9  3  1  0
  8  9  1  6
 10  8  1  0
 10 12  1  0
 11 10  2  0
 13 12  1  0
 14 13  1  0
 15 14  1  0
 16 14  2  0
M  END
$$$$
