RGR.pdb
     RDKit          3D

 27 26  0  0  1  0  0  0  0  0999 V2000
   23.9991  -21.2681   -6.6166 N   0  0  0  0  0  0  0  0  0  0  0  0
   25.4062  -21.1155   -6.4660 C   0  0  0  0  0  0  0  0  0  0  0  0
   25.9267  -20.3025   -5.6095 N   0  0  0  0  0  0  0  0  0  0  0  0
   26.3425  -21.8668   -7.2675 N   0  0  0  0  0  0  0  0  0  0  0  0
   26.9641  -21.2745   -8.4380 C   0  0  0  0  0  0  0  0  0  0  0  0
   25.9908  -20.4964   -9.2477 C   0  0  0  0  0  0  0  0  0  0  0  0
   25.7034  -20.9913  -10.6009 C   0  0  0  0  0  0  0  0  0  0  0  0
   26.7958  -21.6352  -11.3619 C   0  0  2  0  0  0  0  0  0  0  0  0
   28.0512  -21.6994  -10.6820 N   0  0  0  0  0  0  0  0  0  0  0  0
   26.9231  -20.9040  -12.6638 C   0  0  0  0  0  0  0  0  0  0  0  0
   25.9703  -20.9122  -13.4842 O   0  0  0  0  0  0  0  0  0  0  0  0
   26.9505  -20.1179   -5.5430 N   0  0  0  0  0  0  0  0  0  0  0  0
   28.0868  -20.1794  -13.0433 C   0  0  0  0  0  0  0  0  0  0  0  0
   28.1811  -19.5614  -14.3505 C   0  0  0  0  0  0  0  0  0  0  0  0
   27.1806  -18.5079  -14.5479 O   0  0  0  0  0  0  0  0  0  0  0  0
   26.6413  -17.9720  -13.5535 N   0  0  0  0  0  0  0  0  0  0  0  0
   25.8903  -14.3275  -20.8767 C   0  0  0  0  0  0  0  0  0  0  0  0
   25.2476  -13.2222  -20.2897 N   0  0  0  0  0  0  0  0  0  0  0  0
   24.8422  -12.2050  -20.9849 N   0  0  0  0  0  0  0  0  0  0  0  0
   25.0345  -13.2191  -18.8857 C   0  0  0  0  0  0  0  0  0  0  0  0
   26.0610  -13.7011  -17.9696 C   0  0  0  0  0  0  0  0  0  0  0  0
   25.4610  -14.7974  -17.1420 C   0  0  0  0  0  0  0  0  0  0  0  0
   26.4470  -15.9294  -16.9101 C   0  0  1  0  0  0  0  0  0  0  0  0
   25.8606  -17.0000  -16.0278 N   0  0  0  0  0  0  0  0  0  0  0  0
   26.8029  -18.0756  -15.8411 C   0  0  0  0  0  0  0  0  0  0  0  0
   24.5603  -17.4980  -16.5602 O   0  0  0  0  0  0  0  0  0  0  0  0
   24.4986  -18.4888  -17.3302 O   0  0  0  0  0  0  0  0  0  0  0  0
  2  1  1  0
  3  2  2  0
  4  2  1  0
  5  4  1  0
  6  5  1  0
  7  6  1  0
  8  7  1  0
  8  9  1  1
 10  8  1  0
 11 10  2  0
 12 10  1  0
 13 12  1  0
 14 13  1  0
 14 15  2  0
 17 16  1  0
 17 18  2  0
 19 17  1  0
 20 19  1  0
 21 20  1  0
 23 22  1  1
 22 21  1  0
 23 24  1  0
 24 14  1  0
 25 23  1  0
 26 25  2  0
 27 25  1  0
M  END
$$$$
