RGR.pdb
     RDKit          3D

 27 26  0  0  1  0  0  0  0  0999 V2000
   25.1027  -25.2992  -15.4138 N   0  0  0  0  0  0  0  0  0  0  0  0
   26.1464  -25.2641  -16.3810 C   0  0  0  0  0  0  0  0  0  0  0  0
   27.1292  -26.1003  -16.3695 N   0  0  0  0  0  0  0  0  0  0  0  0
   26.1680  -24.2845  -17.4409 N   0  0  0  0  0  0  0  0  0  0  0  0
   25.0661  -23.3566  -17.6201 C   0  0  0  0  0  0  0  0  0  0  0  0
   25.2827  -22.0893  -16.8748 C   0  0  0  0  0  0  0  0  0  0  0  0
   24.2808  -21.7330  -15.8609 C   0  0  0  0  0  0  0  0  0  0  0  0
   24.4500  -20.4649  -15.1191 C   0  0  2  0  0  0  0  0  0  0  0  0
   25.8036  -20.0402  -14.9468 N   0  0  0  0  0  0  0  0  0  0  0  0
   23.7620  -20.6265  -13.7976 C   0  0  0  0  0  0  0  0  0  0  0  0
   24.2927  -20.1689  -12.7535 O   0  0  0  0  0  0  0  0  0  0  0  0
   27.9031  -26.0850  -17.0677 N   0  0  0  0  0  0  0  0  0  0  0  0
   22.5100  -21.2837  -13.6427 C   0  0  0  0  0  0  0  0  0  0  0  0
   21.7117  -21.0849  -12.4500 C   0  0  0  0  0  0  0  0  0  0  0  0
   20.4847  -21.8876  -12.4544 O   0  0  0  0  0  0  0  0  0  0  0  0
   19.9465  -22.1898  -13.5432 N   0  0  0  0  0  0  0  0  0  0  0  0
   17.9795  -25.1172   -5.4893 C   0  0  0  0  0  0  0  0  0  0  0  0
   18.1995  -26.0275   -6.5392 N   0  0  0  0  0  0  0  0  0  0  0  0
   18.4153  -27.2893   -6.3303 N   0  0  0  0  0  0  0  0  0  0  0  0
   18.1851  -25.5487   -7.8761 C   0  0  0  0  0  0  0  0  0  0  0  0
   16.9348  -25.1767   -8.5268 C   0  0  0  0  0  0  0  0  0  0  0  0
   17.2617  -24.6851   -9.9046 C   0  0  0  0  0  0  0  0  0  0  0  0
   18.4350  -23.7203   -9.8926 C   0  0  2  0  0  0  0  0  0  0  0  0
   18.7055  -23.1633  -11.2655 N   0  0  0  0  0  0  0  0  0  0  0  0
   19.8855  -22.3344  -11.2529 C   0  0  0  0  0  0  0  0  0  0  0  0
   17.5252  -22.4266  -11.8007 O   0  0  0  0  0  0  0  0  0  0  0  0
   17.4011  -21.1849  -11.6558 O   0  0  0  0  0  0  0  0  0  0  0  0
  2  1  1  0
  3  2  2  0
  4  2  1  0
  5  4  1  0
  6  5  1  0
  7  6  1  0
  8  7  1  0
  8  9  1  1
 10  8  1  0
 11 10  2  0
 12 10  1  0
 13 12  1  0
 14 13  1  0
 14 15  2  0
 17 16  1  0
 17 18  2  0
 19 17  1  0
 20 19  1  0
 21 20  1  0
 23 22  1  6
 22 21  1  0
 23 24  1  0
 24 14  1  0
 25 23  1  0
 26 25  2  0
 27 25  1  0
M  END
$$$$
