RGR.pdb
     RDKit          3D

 27 26  0  0  1  0  0  0  0  0999 V2000
   31.5762  -21.4181   -8.0504 N   0  0  0  0  0  0  0  0  0  0  0  0
   31.9680  -22.2785   -9.1144 C   0  0  0  0  0  0  0  0  0  0  0  0
   33.1036  -22.8914   -9.1268 N   0  0  0  0  0  0  0  0  0  0  0  0
   31.1120  -22.5197  -10.2514 N   0  0  0  0  0  0  0  0  0  0  0  0
   29.8573  -21.8058  -10.4039 C   0  0  0  0  0  0  0  0  0  0  0  0
   29.8811  -20.8877  -11.5721 C   0  0  0  0  0  0  0  0  0  0  0  0
   28.6363  -20.1715  -11.8822 C   0  0  0  0  0  0  0  0  0  0  0  0
   27.7458  -20.7261  -12.9245 C   0  0  2  0  0  0  0  0  0  0  0  0
   28.4082  -21.1887  -14.1033 N   0  0  0  0  0  0  0  0  0  0  0  0
   26.7328  -19.6716  -13.2526 C   0  0  0  0  0  0  0  0  0  0  0  0
   25.9414  -19.2636  -12.3648 O   0  0  0  0  0  0  0  0  0  0  0  0
   33.4196  -23.4971   -9.9142 N   0  0  0  0  0  0  0  0  0  0  0  0
   26.6045  -19.0843  -14.5418 C   0  0  0  0  0  0  0  0  0  0  0  0
   25.3547  -18.4827  -14.9606 C   0  0  0  0  0  0  0  0  0  0  0  0
   24.3415  -19.4811  -15.3164 O   0  0  0  0  0  0  0  0  0  0  0  0
   24.5094  -20.6774  -14.9891 N   0  0  0  0  0  0  0  0  0  0  0  0
   17.3186  -21.6841  -12.3968 C   0  0  0  0  0  0  0  0  0  0  0  0
   17.7933  -20.4215  -11.9971 N   0  0  0  0  0  0  0  0  0  0  0  0
   17.3483  -19.8150  -10.9405 N   0  0  0  0  0  0  0  0  0  0  0  0
   18.7957  -19.7873  -12.7780 C   0  0  0  0  0  0  0  0  0  0  0  0
   20.0055  -20.5002  -13.1692 C   0  0  0  0  0  0  0  0  0  0  0  0
   20.4770  -19.9263  -14.4713 C   0  0  0  0  0  0  0  0  0  0  0  0
   21.6285  -20.7277  -15.0537 C   0  0  1  0  0  0  0  0  0  0  0  0
   22.1490  -20.1041  -16.3220 N   0  0  0  0  0  0  0  0  0  0  0  0
   23.1691  -19.1287  -16.0259 C   0  0  0  0  0  0  0  0  0  0  0  0
   21.0477  -19.5143  -17.1353 O   0  0  0  0  0  0  0  0  0  0  0  0
   20.9821  -18.2802  -17.3610 O   0  0  0  0  0  0  0  0  0  0  0  0
  2  1  1  0
  3  2  2  0
  4  2  1  0
  5  4  1  0
  6  5  1  0
  7  6  1  0
  8  7  1  0
  8  9  1  6
 10  8  1  0
 11 10  2  0
 12 10  1  0
 13 12  1  0
 14 13  1  0
 14 15  2  0
 17 16  1  0
 17 18  2  0
 19 17  1  0
 20 19  1  0
 21 20  1  0
 23 22  1  6
 22 21  1  0
 23 24  1  0
 24 14  1  0
 25 23  1  0
 26 25  2  0
 27 25  1  0
M  END
$$$$
