RGR.pdb
     RDKit          3D

 27 26  0  0  1  0  0  0  0  0999 V2000
   18.4930  -24.7831   -5.9349 N   0  0  0  0  0  0  0  0  0  0  0  0
   17.7257  -25.8258   -5.3434 C   0  0  0  0  0  0  0  0  0  0  0  0
   17.1543  -25.6979   -4.1934 N   0  0  0  0  0  0  0  0  0  0  0  0
   17.5387  -27.0980   -5.9993 N   0  0  0  0  0  0  0  0  0  0  0  0
   18.1087  -27.3510   -7.3101 C   0  0  0  0  0  0  0  0  0  0  0  0
   17.7111  -28.6817   -7.8392 C   0  0  0  0  0  0  0  0  0  0  0  0
   18.1492  -29.0151   -9.2014 C   0  0  0  0  0  0  0  0  0  0  0  0
   19.2832  -29.9498   -9.3673 C   0  0  2  0  0  0  0  0  0  0  0  0
   19.7817  -30.5182   -8.1546 N   0  0  0  0  0  0  0  0  0  0  0  0
   20.3622  -29.2150  -10.1034 C   0  0  0  0  0  0  0  0  0  0  0  0
   21.5152  -29.7099  -10.1851 O   0  0  0  0  0  0  0  0  0  0  0  0
   16.6333  -26.4688   -3.7232 N   0  0  0  0  0  0  0  0  0  0  0  0
   20.1609  -27.9564  -10.7346 C   0  0  0  0  0  0  0  0  0  0  0  0
   20.8246  -27.6393  -11.9830 C   0  0  0  0  0  0  0  0  0  0  0  0
   20.4280  -26.3315  -12.5143 O   0  0  0  0  0  0  0  0  0  0  0  0
   19.5281  -25.6772  -11.9408 N   0  0  0  0  0  0  0  0  0  0  0  0
   22.9356  -21.1899  -19.4877 C   0  0  0  0  0  0  0  0  0  0  0  0
   21.9470  -20.4992  -18.7632 N   0  0  0  0  0  0  0  0  0  0  0  0
   21.4673  -19.3598  -19.1558 N   0  0  0  0  0  0  0  0  0  0  0  0
   21.4560  -21.0690  -17.5587 C   0  0  0  0  0  0  0  0  0  0  0  0
   21.9352  -22.3638  -17.0908 C   0  0  0  0  0  0  0  0  0  0  0  0
   21.1899  -22.7040  -15.8355 C   0  0  0  0  0  0  0  0  0  0  0  0
   21.4817  -24.1223  -15.3765 C   0  0  2  0  0  0  0  0  0  0  0  0
   20.6192  -24.5116  -14.2047 N   0  0  0  0  0  0  0  0  0  0  0  0
   21.0380  -25.7824  -13.6669 C   0  0  0  0  0  0  0  0  0  0  0  0
   19.1733  -24.5207  -14.5672 O   0  0  0  0  0  0  0  0  0  0  0  0
   18.6544  -25.4825  -15.1870 O   0  0  0  0  0  0  0  0  0  0  0  0
  2  1  1  0
  3  2  2  0
  4  2  1  0
  5  4  1  0
  6  5  1  0
  7  6  1  0
  8  7  1  0
  8  9  1  1
 10  8  1  0
 11 10  2  0
 12 10  1  0
 13 12  1  0
 14 13  1  0
 14 15  2  0
 17 16  1  0
 17 18  2  0
 19 17  1  0
 20 19  1  0
 21 20  1  0
 23 22  1  1
 22 21  1  0
 23 24  1  0
 24 14  1  0
 25 23  1  0
 26 25  2  0
 27 25  1  0
M  END
$$$$
