RGR.pdb
     RDKit          3D

 27 26  0  0  1  0  0  0  0  0999 V2000
   27.7564  -20.7254  -19.2828 N   0  0  0  0  0  0  0  0  0  0  0  0
   28.1674  -19.3627  -19.2881 C   0  0  0  0  0  0  0  0  0  0  0  0
   28.9842  -18.8894  -20.1680 N   0  0  0  0  0  0  0  0  0  0  0  0
   27.6915  -18.4213  -18.3028 N   0  0  0  0  0  0  0  0  0  0  0  0
   26.5819  -18.7553  -17.4285 C   0  0  0  0  0  0  0  0  0  0  0  0
   25.3249  -18.9776  -18.1895 C   0  0  0  0  0  0  0  0  0  0  0  0
   24.1227  -19.3029  -17.4101 C   0  0  0  0  0  0  0  0  0  0  0  0
   23.5110  -18.2405  -16.5829 C   0  0  2  0  0  0  0  0  0  0  0  0
   24.1462  -16.9634  -16.6711 N   0  0  0  0  0  0  0  0  0  0  0  0
   23.4866  -18.7354  -15.1686 C   0  0  0  0  0  0  0  0  0  0  0  0
   24.4570  -18.5000  -14.4044 O   0  0  0  0  0  0  0  0  0  0  0  0
   29.3578  -17.9167  -20.1388 N   0  0  0  0  0  0  0  0  0  0  0  0
   22.4045  -19.4763  -14.6178 C   0  0  0  0  0  0  0  0  0  0  0  0
   22.3920  -19.8367  -13.2144 C   0  0  0  0  0  0  0  0  0  0  0  0
   21.2545  -20.6928  -12.8639 O   0  0  0  0  0  0  0  0  0  0  0  0
   20.3174  -20.8423  -13.6801 N   0  0  0  0  0  0  0  0  0  0  0  0
   18.0100  -25.2083   -6.5769 C   0  0  0  0  0  0  0  0  0  0  0  0
   17.0889  -25.3279   -7.6336 N   0  0  0  0  0  0  0  0  0  0  0  0
   16.1954  -26.2673   -7.6727 N   0  0  0  0  0  0  0  0  0  0  0  0
   17.1385  -24.3871   -8.6961 C   0  0  0  0  0  0  0  0  0  0  0  0
   18.2742  -23.4859   -8.8485 C   0  0  0  0  0  0  0  0  0  0  0  0
   17.9960  -22.5886  -10.0166 C   0  0  0  0  0  0  0  0  0  0  0  0
   19.1679  -21.6672  -10.3081 C   0  0  1  0  0  0  0  0  0  0  0  0
   20.1091  -22.2732  -11.3157 N   0  0  0  0  0  0  0  0  0  0  0  0
   21.1840  -21.3607  -11.6184 C   0  0  0  0  0  0  0  0  0  0  0  0
   19.3903  -22.7005  -12.5498 O   0  0  0  0  0  0  0  0  0  0  0  0
   19.1796  -23.9126  -12.8044 O   0  0  0  0  0  0  0  0  0  0  0  0
  2  1  1  0
  3  2  2  0
  4  2  1  0
  5  4  1  0
  6  5  1  0
  7  6  1  0
  8  7  1  0
  8  9  1  1
 10  8  1  0
 11 10  2  0
 12 10  1  0
 13 12  1  0
 14 13  1  0
 14 15  2  0
 17 16  1  0
 17 18  2  0
 19 17  1  0
 20 19  1  0
 21 20  1  0
 23 22  1  1
 22 21  1  0
 23 24  1  0
 24 14  1  0
 25 23  1  0
 26 25  2  0
 27 25  1  0
M  END
$$$$
