MPR.pdb
     RDKit          3D

 27 27  0  0  1  0  0  0  0  0999 V2000
   24.8965  -22.3030  -21.9000 C   0  0  0  0  0  0  0  0  0  0  0  0
   25.2614  -20.5536  -21.5981 S   0  0  0  0  0  0  0  0  0  0  0  0
   26.8776  -20.3536  -20.7710 C   0  0  0  0  0  0  0  0  0  0  0  0
   26.6921  -19.9216  -19.3563 C   0  0  0  0  0  0  0  0  0  0  0  0
   27.9721  -19.6620  -18.6017 C   0  0  2  0  0  0  0  0  0  0  0  0
   28.9546  -20.6792  -18.7688 N   0  0  0  0  0  0  0  0  0  0  0  0
   27.7001  -19.3668  -17.1959 C   0  0  0  0  0  0  0  0  0  0  0  0
   27.5613  -20.4019  -16.4474 O   0  0  0  0  0  0  0  0  0  0  0  0
   27.5774  -18.1251  -16.5926 N   0  0  0  0  0  0  0  0  0  0  0  0
   28.3451  -16.8907  -16.8790 C   0  0  0  0  0  0  0  0  0  0  0  0
   27.1616  -15.9384  -17.1858 C   0  0  0  0  0  0  0  0  0  0  0  0
   26.0622  -16.4696  -16.2662 C   0  0  0  0  0  0  0  0  0  0  0  0
   26.7082  -17.6208  -15.5363 C   0  0  1  0  0  0  0  0  0  0  0  0
   25.8333  -18.5141  -14.8485 C   0  0  0  0  0  0  0  0  0  0  0  0
   25.0429  -19.2359  -15.5652 O   0  0  0  0  0  0  0  0  0  0  0  0
   24.3193  -22.1321   -6.6946 N   0  0  0  0  0  0  0  0  0  0  0  0
   23.0666  -22.0349   -7.3761 C   0  0  0  0  0  0  0  0  0  0  0  0
   21.9833  -22.4990   -6.8171 N   0  0  0  0  0  0  0  0  0  0  0  0
   22.9640  -21.4478   -8.6554 N   0  0  0  0  0  0  0  0  0  0  0  0
   24.1452  -20.7039   -9.1784 C   0  0  0  0  0  0  0  0  0  0  0  0
   23.8882  -20.2271  -10.5449 C   0  0  0  0  0  0  0  0  0  0  0  0
   24.9104  -19.6988  -11.4312 C   0  0  0  0  0  0  0  0  0  0  0  0
   24.6566  -19.6520  -12.8923 C   0  0  2  0  0  0  0  0  0  0  0  0
   25.7090  -18.7126  -13.4696 N   0  0  0  0  0  0  0  0  0  0  0  0
   23.4249  -18.8949  -13.1929 C   0  0  0  0  0  0  0  0  0  0  0  0
   23.5079  -17.5201  -13.4766 O   0  0  0  0  0  0  0  0  0  0  0  0
   22.3033  -19.3816  -13.2148 O   0  0  0  0  0  0  0  0  0  0  0  0
  2  1  1  0
  3  2  1  0
  4  3  1  0
  4  5  1  0
  5  6  1  1
  7  8  2  0
  7  5  1  0
  9  7  1  0
 10  9  1  0
 11 10  1  0
 12 11  1  0
 12 13  1  0
 13 14  1  6
 13  9  1  0
 14 15  2  0
 17 18  2  0
 17 16  1  0
 19 17  1  0
 20 19  1  0
 21 20  1  0
 22 21  1  0
 23 22  1  1
 24 23  1  0
 24 14  1  0
 25 26  1  0
 25 23  1  0
 27 25  2  0
M  END
$$$$
