MPR.pdb
     RDKit          3D

 27 27  0  0  1  0  0  0  0  0999 V2000
   29.4407  -19.3327   -6.3891 C   0  0  0  0  0  0  0  0  0  0  0  0
   27.9194  -20.1232   -5.8016 S   0  0  0  0  0  0  0  0  0  0  0  0
   26.4834  -19.6116   -6.8079 C   0  0  0  0  0  0  0  0  0  0  0  0
   26.5204  -20.2688   -8.1454 C   0  0  0  0  0  0  0  0  0  0  0  0
   25.4517  -19.8088   -9.1055 C   0  0  2  0  0  0  0  0  0  0  0  0
   24.1286  -19.9262   -8.5924 N   0  0  0  0  0  0  0  0  0  0  0  0
   25.6092  -20.4497  -10.4101 C   0  0  0  0  0  0  0  0  0  0  0  0
   24.9098  -21.5152  -10.5723 O   0  0  0  0  0  0  0  0  0  0  0  0
   26.4095  -20.0475  -11.4677 N   0  0  0  0  0  0  0  0  0  0  0  0
   27.1340  -18.7652  -11.6288 C   0  0  0  0  0  0  0  0  0  0  0  0
   28.5645  -19.3231  -11.8386 C   0  0  0  0  0  0  0  0  0  0  0  0
   28.3022  -20.6412  -12.5668 C   0  0  0  0  0  0  0  0  0  0  0  0
   26.8020  -20.6965  -12.7129 C   0  0  1  0  0  0  0  0  0  0  0  0
   26.2394  -21.9599  -13.0641 C   0  0  0  0  0  0  0  0  0  0  0  0
   26.5858  -22.9787  -12.3558 O   0  0  0  0  0  0  0  0  0  0  0  0
   22.9538  -26.7793  -12.3145 N   0  0  0  0  0  0  0  0  0  0  0  0
   21.8495  -27.1327  -13.1505 C   0  0  0  0  0  0  0  0  0  0  0  0
   20.8875  -27.8768  -12.6789 N   0  0  0  0  0  0  0  0  0  0  0  0
   21.7680  -26.6991  -14.4911 N   0  0  0  0  0  0  0  0  0  0  0  0
   21.6098  -25.2385  -14.7436 C   0  0  0  0  0  0  0  0  0  0  0  0
   22.7951  -24.7044  -15.4293 C   0  0  0  0  0  0  0  0  0  0  0  0
   23.5192  -23.5189  -15.0048 C   0  0  0  0  0  0  0  0  0  0  0  0
   24.8353  -23.6677  -14.3363 C   0  0  2  0  0  0  0  0  0  0  0  0
   25.3474  -22.2514  -14.1013 N   0  0  0  0  0  0  0  0  0  0  0  0
   25.8552  -24.1707  -15.2784 C   0  0  0  0  0  0  0  0  0  0  0  0
   26.1315  -25.5485  -15.3306 O   0  0  0  0  0  0  0  0  0  0  0  0
   26.5001  -23.4638  -16.0399 O   0  0  0  0  0  0  0  0  0  0  0  0
  2  1  1  0
  3  2  1  0
  4  3  1  0
  4  5  1  0
  5  6  1  1
  7  8  2  0
  7  5  1  0
  9  7  1  0
 10  9  1  0
 11 10  1  0
 12 11  1  0
 12 13  1  0
 13 14  1  1
 13  9  1  0
 14 15  2  0
 17 18  2  0
 17 16  1  0
 19 17  1  0
 20 19  1  0
 21 20  1  0
 22 21  1  0
 23 22  1  6
 24 23  1  0
 24 14  1  0
 25 26  1  0
 25 23  1  0
 27 25  2  0
M  END
$$$$
