MPR.pdb
     RDKit          3D

 27 27  0  0  1  0  0  0  0  0999 V2000
   27.7393  -19.8780  -21.0198 C   0  0  0  0  0  0  0  0  0  0  0  0
   28.5129  -21.5170  -21.0275 S   0  0  0  0  0  0  0  0  0  0  0  0
   28.0237  -22.4804  -19.5548 C   0  0  0  0  0  0  0  0  0  0  0  0
   27.5883  -21.5721  -18.4557 C   0  0  0  0  0  0  0  0  0  0  0  0
   28.0641  -21.9704  -17.0808 C   0  0  2  0  0  0  0  0  0  0  0  0
   28.5177  -23.3176  -16.9971 N   0  0  0  0  0  0  0  0  0  0  0  0
   27.0611  -21.6495  -16.0667 C   0  0  0  0  0  0  0  0  0  0  0  0
   26.0585  -22.4521  -16.0309 O   0  0  0  0  0  0  0  0  0  0  0  0
   27.0688  -20.6012  -15.1601 N   0  0  0  0  0  0  0  0  0  0  0  0
   28.2366  -19.9778  -14.4946 C   0  0  0  0  0  0  0  0  0  0  0  0
   28.0049  -18.5089  -14.9309 C   0  0  0  0  0  0  0  0  0  0  0  0
   26.4802  -18.4177  -14.9902 C   0  0  0  0  0  0  0  0  0  0  0  0
   26.0066  -19.7893  -14.5785 C   0  0  1  0  0  0  0  0  0  0  0  0
   24.6416  -20.1034  -14.8511 C   0  0  0  0  0  0  0  0  0  0  0  0
   24.2499  -20.0239  -16.0758 O   0  0  0  0  0  0  0  0  0  0  0  0
   17.4744  -24.8197  -13.5889 N   0  0  0  0  0  0  0  0  0  0  0  0
   18.8118  -25.3236  -13.6137 C   0  0  0  0  0  0  0  0  0  0  0  0
   19.0410  -26.5431  -14.0159 N   0  0  0  0  0  0  0  0  0  0  0  0
   19.9079  -24.5331  -13.2068 N   0  0  0  0  0  0  0  0  0  0  0  0
   19.6286  -23.1552  -12.7110 C   0  0  0  0  0  0  0  0  0  0  0  0
   20.2744  -22.1574  -13.5757 C   0  0  0  0  0  0  0  0  0  0  0  0
   21.6685  -21.7640  -13.4686 C   0  0  0  0  0  0  0  0  0  0  0  0
   22.2150  -20.7506  -14.4043 C   0  0  2  0  0  0  0  0  0  0  0  0
   23.6455  -20.4883  -13.9478 N   0  0  0  0  0  0  0  0  0  0  0  0
   21.6082  -19.4257  -14.1655 C   0  0  0  0  0  0  0  0  0  0  0  0
   20.7181  -18.8898  -15.1131 O   0  0  0  0  0  0  0  0  0  0  0  0
   21.8246  -18.7347  -13.1801 O   0  0  0  0  0  0  0  0  0  0  0  0
  2  1  1  0
  3  2  1  0
  4  3  1  0
  4  5  1  0
  5  6  1  6
  7  8  2  0
  7  5  1  0
  9  7  1  0
 10  9  1  0
 11 10  1  0
 12 11  1  0
 12 13  1  0
 13 14  1  6
 13  9  1  0
 14 15  2  0
 17 18  2  0
 17 16  1  0
 19 17  1  0
 20 19  1  0
 21 20  1  0
 22 21  1  0
 23 22  1  1
 24 23  1  0
 24 14  1  0
 25 26  1  0
 25 23  1  0
 27 25  2  0
M  END
$$$$
