MPR.pdb
     RDKit          3D

 27 27  0  0  1  0  0  0  0  0999 V2000
   26.0323  -15.4141  -14.4664 C   0  0  0  0  0  0  0  0  0  0  0  0
   27.2520  -15.7315  -15.7688 S   0  0  0  0  0  0  0  0  0  0  0  0
   27.8941  -17.4383  -15.6645 C   0  0  0  0  0  0  0  0  0  0  0  0
   26.8388  -18.3652  -15.1650 C   0  0  0  0  0  0  0  0  0  0  0  0
   27.2901  -19.7916  -14.9718 C   0  0  2  0  0  0  0  0  0  0  0  0
   27.8767  -20.3713  -16.1327 N   0  0  0  0  0  0  0  0  0  0  0  0
   26.2141  -20.6101  -14.4155 C   0  0  0  0  0  0  0  0  0  0  0  0
   25.2788  -20.9035  -15.2461 O   0  0  0  0  0  0  0  0  0  0  0  0
   26.0911  -21.0944  -13.1227 N   0  0  0  0  0  0  0  0  0  0  0  0
   27.1565  -21.6276  -12.2419 C   0  0  0  0  0  0  0  0  0  0  0  0
   26.9540  -20.6888  -11.0257 C   0  0  0  0  0  0  0  0  0  0  0  0
   25.4468  -20.4349  -11.0508 C   0  0  0  0  0  0  0  0  0  0  0  0
   24.9508  -21.2400  -12.2259 C   0  0  1  0  0  0  0  0  0  0  0  0
   23.6357  -20.9448  -12.6945 C   0  0  0  0  0  0  0  0  0  0  0  0
   23.3340  -19.7041  -12.8660 O   0  0  0  0  0  0  0  0  0  0  0  0
   17.9191  -25.6798  -13.0586 N   0  0  0  0  0  0  0  0  0  0  0  0
   16.9887  -24.6002  -13.1685 C   0  0  0  0  0  0  0  0  0  0  0  0
   16.0432  -24.4623  -12.2804 N   0  0  0  0  0  0  0  0  0  0  0  0
   17.0592  -23.6675  -14.2253 N   0  0  0  0  0  0  0  0  0  0  0  0
   18.3535  -23.5339  -14.9528 C   0  0  0  0  0  0  0  0  0  0  0  0
   19.1431  -22.4257  -14.3971 C   0  0  0  0  0  0  0  0  0  0  0  0
   20.5340  -22.5363  -13.9932 C   0  0  0  0  0  0  0  0  0  0  0  0
   21.2292  -21.3494  -13.4371 C   0  0  2  0  0  0  0  0  0  0  0  0
   22.6027  -21.8391  -12.9934 N   0  0  0  0  0  0  0  0  0  0  0  0
   20.6500  -20.9558  -12.1370 C   0  0  0  0  0  0  0  0  0  0  0  0
   19.7351  -19.8894  -12.0799 O   0  0  0  0  0  0  0  0  0  0  0  0
   20.9106  -21.4982  -11.0725 O   0  0  0  0  0  0  0  0  0  0  0  0
  2  1  1  0
  3  2  1  0
  4  3  1  0
  4  5  1  0
  5  6  1  6
  7  8  2  0
  7  5  1  0
  9  7  1  0
 10  9  1  0
 11 10  1  0
 12 11  1  0
 12 13  1  0
 13 14  1  6
 13  9  1  0
 14 15  2  0
 17 18  2  0
 17 16  1  0
 19 17  1  0
 20 19  1  0
 21 20  1  0
 22 21  1  0
 23 22  1  1
 24 23  1  0
 24 14  1  0
 25 26  1  0
 25 23  1  0
 27 25  2  0
M  END
$$$$
