MPR.pdb
     RDKit          3D

 27 27  0  0  1  0  0  0  0  0999 V2000
   20.6964  -10.8994    8.3063 C   0  0  0  0  0  0  0  0  0  0  0  0
   21.4182  -12.1462    9.4059 S   0  0  0  0  0  0  0  0  0  0  0  0
   21.5518  -13.7630    8.5665 C   0  0  0  0  0  0  0  0  0  0  0  0
   22.0895  -14.7943    9.4990 C   0  0  0  0  0  0  0  0  0  0  0  0
   22.3370  -16.1445    8.8734 C   0  0  2  0  0  0  0  0  0  0  0  0
   22.9959  -16.0820    7.6126 N   0  0  0  0  0  0  0  0  0  0  0  0
   21.1070  -16.9335    8.8278 C   0  0  0  0  0  0  0  0  0  0  0  0
   20.4135  -16.7848    7.7566 O   0  0  0  0  0  0  0  0  0  0  0  0
   20.6151  -17.8039    9.7877 N   0  0  0  0  0  0  0  0  0  0  0  0
   21.3660  -18.5058   10.8548 C   0  0  0  0  0  0  0  0  0  0  0  0
   20.5591  -18.0097   12.0814 C   0  0  0  0  0  0  0  0  0  0  0  0
   19.1464  -17.8713   11.5143 C   0  0  0  0  0  0  0  0  0  0  0  0
   19.2762  -18.3043   10.0753 C   0  0  1  0  0  0  0  0  0  0  0  0
   18.1925  -17.9745    9.2075 C   0  0  0  0  0  0  0  0  0  0  0  0
   17.9981  -16.7267    8.9526 O   0  0  0  0  0  0  0  0  0  0  0  0
   14.8339  -20.3086    1.3305 N   0  0  0  0  0  0  0  0  0  0  0  0
   15.7785  -20.7299    2.3172 C   0  0  0  0  0  0  0  0  0  0  0  0
   16.5294  -21.7734    2.0963 N   0  0  0  0  0  0  0  0  0  0  0  0
   15.9237  -20.0448    3.5425 N   0  0  0  0  0  0  0  0  0  0  0  0
   14.7530  -20.0089    4.4647 C   0  0  0  0  0  0  0  0  0  0  0  0
   15.0064  -19.0864    5.5807 C   0  0  0  0  0  0  0  0  0  0  0  0
   16.0387  -19.2819    6.5835 C   0  0  0  0  0  0  0  0  0  0  0  0
   16.1611  -18.3162    7.7031 C   0  0  2  0  0  0  0  0  0  0  0  0
   17.2868  -18.8409    8.5868 N   0  0  0  0  0  0  0  0  0  0  0  0
   15.0162  -18.4291    8.6289 C   0  0  0  0  0  0  0  0  0  0  0  0
   13.9357  -17.5374    8.5073 O   0  0  0  0  0  0  0  0  0  0  0  0
   14.9294  -19.2604    9.5215 O   0  0  0  0  0  0  0  0  0  0  0  0
  2  1  1  0
  3  2  1  0
  4  3  1  0
  4  5  1  0
  5  6  1  6
  7  8  2  0
  7  5  1  0
  9  7  1  0
 10  9  1  0
 11 10  1  0
 12 11  1  0
 12 13  1  0
 13 14  1  6
 13  9  1  0
 14 15  2  0
 17 18  2  0
 17 16  1  0
 19 17  1  0
 20 19  1  0
 21 20  1  0
 22 21  1  0
 23 22  1  6
 24 23  1  0
 24 14  1  0
 25 26  1  0
 25 23  1  0
 27 25  2  0
M  END
$$$$
