MPR.pdb
     RDKit          3D

 27 27  0  0  1  0  0  0  0  0999 V2000
   23.7559  -24.7394  -20.5704 C   0  0  0  0  0  0  0  0  0  0  0  0
   25.1944  -23.6398  -20.6498 S   0  0  0  0  0  0  0  0  0  0  0  0
   25.8686  -23.3198  -18.9827 C   0  0  0  0  0  0  0  0  0  0  0  0
   24.7691  -23.0183  -18.0222 C   0  0  0  0  0  0  0  0  0  0  0  0
   25.2171  -22.7902  -16.5999 C   0  0  2  0  0  0  0  0  0  0  0  0
   25.8714  -23.9122  -16.0162 N   0  0  0  0  0  0  0  0  0  0  0  0
   24.1162  -22.2897  -15.7784 C   0  0  0  0  0  0  0  0  0  0  0  0
   23.2825  -23.1882  -15.3934 O   0  0  0  0  0  0  0  0  0  0  0  0
   23.8751  -20.9852  -15.3771 N   0  0  0  0  0  0  0  0  0  0  0  0
   24.8643  -19.9192  -15.0936 C   0  0  0  0  0  0  0  0  0  0  0  0
   24.3397  -18.8390  -16.0732 C   0  0  0  0  0  0  0  0  0  0  0  0
   22.8327  -19.0948  -16.0719 C   0  0  0  0  0  0  0  0  0  0  0  0
   22.6485  -20.2432  -15.1115 C   0  0  1  0  0  0  0  0  0  0  0  0
   21.3895  -20.9140  -15.1501 C   0  0  0  0  0  0  0  0  0  0  0  0
   21.0556  -21.4810  -16.2576 O   0  0  0  0  0  0  0  0  0  0  0  0
   17.9359  -26.1220   -9.3190 N   0  0  0  0  0  0  0  0  0  0  0  0
   17.6784  -24.7477   -9.0219 C   0  0  0  0  0  0  0  0  0  0  0  0
   17.1919  -24.4128   -7.8588 N   0  0  0  0  0  0  0  0  0  0  0  0
   17.9338  -23.7270   -9.9626 N   0  0  0  0  0  0  0  0  0  0  0  0
   18.4924  -24.1225  -11.2869 C   0  0  0  0  0  0  0  0  0  0  0  0
   18.5703  -22.9578  -12.1800 C   0  0  0  0  0  0  0  0  0  0  0  0
   19.1793  -22.9791  -13.4985 C   0  0  0  0  0  0  0  0  0  0  0  0
   19.1222  -21.7646  -14.3487 C   0  0  2  0  0  0  0  0  0  0  0  0
   20.4431  -21.0368  -14.1276 N   0  0  0  0  0  0  0  0  0  0  0  0
   18.1737  -20.7756  -13.7984 C   0  0  0  0  0  0  0  0  0  0  0  0
   18.6441  -19.7685  -12.9369 O   0  0  0  0  0  0  0  0  0  0  0  0
   16.9745  -20.7616  -14.0375 O   0  0  0  0  0  0  0  0  0  0  0  0
  2  1  1  0
  3  2  1  0
  4  3  1  0
  4  5  1  0
  5  6  1  1
  7  8  2  0
  7  5  1  0
  9  7  1  0
 10  9  1  0
 11 10  1  0
 12 11  1  0
 12 13  1  0
 13 14  1  6
 13  9  1  0
 14 15  2  0
 17 18  2  0
 17 16  1  0
 19 17  1  0
 20 19  1  0
 21 20  1  0
 22 21  1  0
 23 22  1  1
 24 23  1  0
 24 14  1  0
 25 26  1  0
 25 23  1  0
 27 25  2  0
M  END
$$$$
