MPR.pdb
     RDKit          3D

 27 27  0  0  1  0  0  0  0  0999 V2000
   29.2622  -20.1818   -7.5962 C   0  0  0  0  0  0  0  0  0  0  0  0
   30.4038  -21.3235   -8.4196 S   0  0  0  0  0  0  0  0  0  0  0  0
   30.0656  -21.4102  -10.2124 C   0  0  0  0  0  0  0  0  0  0  0  0
   28.6073  -21.2520  -10.4785 C   0  0  0  0  0  0  0  0  0  0  0  0
   28.1999  -21.4676  -11.9149 C   0  0  2  0  0  0  0  0  0  0  0  0
   29.2945  -21.4938  -12.8254 N   0  0  0  0  0  0  0  0  0  0  0  0
   27.1595  -20.5201  -12.3115 C   0  0  0  0  0  0  0  0  0  0  0  0
   26.2078  -20.3806  -11.4597 O   0  0  0  0  0  0  0  0  0  0  0  0
   27.0849  -19.7723  -13.4760 N   0  0  0  0  0  0  0  0  0  0  0  0
   28.0962  -18.8423  -14.0306 C   0  0  0  0  0  0  0  0  0  0  0  0
   28.2655  -19.4808  -15.4325 C   0  0  0  0  0  0  0  0  0  0  0  0
   26.8665  -20.0261  -15.7189 C   0  0  0  0  0  0  0  0  0  0  0  0
   26.0590  -19.6430  -14.5039 C   0  0  1  0  0  0  0  0  0  0  0  0
   24.8014  -20.2969  -14.3392 C   0  0  0  0  0  0  0  0  0  0  0  0
   24.8210  -21.5354  -13.9854 O   0  0  0  0  0  0  0  0  0  0  0  0
   18.0717  -21.5541  -10.7772 N   0  0  0  0  0  0  0  0  0  0  0  0
   19.0145  -22.2416   -9.9517 C   0  0  0  0  0  0  0  0  0  0  0  0
   18.6486  -23.3062   -9.2926 N   0  0  0  0  0  0  0  0  0  0  0  0
   20.3474  -21.7962   -9.8221 N   0  0  0  0  0  0  0  0  0  0  0  0
   20.7208  -20.5115  -10.4796 C   0  0  0  0  0  0  0  0  0  0  0  0
   20.9596  -20.7194  -11.9150 C   0  0  0  0  0  0  0  0  0  0  0  0
   22.1594  -20.2927  -12.6135 C   0  0  0  0  0  0  0  0  0  0  0  0
   22.2744  -20.5229  -14.0746 C   0  0  2  0  0  0  0  0  0  0  0  0
   23.5201  -19.7660  -14.5204 N   0  0  0  0  0  0  0  0  0  0  0  0
   21.2307  -19.7832  -14.8122 C   0  0  0  0  0  0  0  0  0  0  0  0
   21.4902  -18.4737  -15.2542 O   0  0  0  0  0  0  0  0  0  0  0  0
   20.1239  -20.2306  -15.0770 O   0  0  0  0  0  0  0  0  0  0  0  0
  2  1  1  0
  3  2  1  0
  4  3  1  0
  4  5  1  0
  5  6  1  6
  7  8  2  0
  7  5  1  0
  9  7  1  0
 10  9  1  0
 11 10  1  0
 12 11  1  0
 12 13  1  0
 13 14  1  1
 13  9  1  0
 14 15  2  0
 17 18  2  0
 17 16  1  0
 19 17  1  0
 20 19  1  0
 21 20  1  0
 22 21  1  0
 23 22  1  1
 24 23  1  0
 24 14  1  0
 25 26  1  0
 25 23  1  0
 27 25  2  0
M  END
$$$$
