MPR.pdb
     RDKit          3D

 27 27  0  0  1  0  0  0  0  0999 V2000
   22.5433  -17.9394  -15.5273 C   0  0  0  0  0  0  0  0  0  0  0  0
   21.9013  -17.8231  -17.2181 S   0  0  0  0  0  0  0  0  0  0  0  0
   23.0197  -18.6489  -18.4028 C   0  0  0  0  0  0  0  0  0  0  0  0
   24.4430  -18.3507  -18.0744 C   0  0  0  0  0  0  0  0  0  0  0  0
   25.3536  -19.5533  -18.0598 C   0  0  2  0  0  0  0  0  0  0  0  0
   24.8994  -20.6284  -18.8757 N   0  0  0  0  0  0  0  0  0  0  0  0
   25.6472  -19.9707  -16.6898 C   0  0  0  0  0  0  0  0  0  0  0  0
   24.6704  -20.5432  -16.0823 O   0  0  0  0  0  0  0  0  0  0  0  0
   26.8328  -19.8221  -15.9876 N   0  0  0  0  0  0  0  0  0  0  0  0
   28.2157  -19.8252  -16.5193 C   0  0  0  0  0  0  0  0  0  0  0  0
   28.6847  -18.4522  -15.9748 C   0  0  0  0  0  0  0  0  0  0  0  0
   27.9162  -18.3380  -14.6585 C   0  0  0  0  0  0  0  0  0  0  0  0
   27.1258  -19.6199  -14.5737 C   0  0  1  0  0  0  0  0  0  0  0  0
   26.0684  -19.6576  -13.6162 C   0  0  0  0  0  0  0  0  0  0  0  0
   25.2149  -18.6929  -13.6399 O   0  0  0  0  0  0  0  0  0  0  0  0
   18.9399  -18.8934  -11.6940 N   0  0  0  0  0  0  0  0  0  0  0  0
   19.0475  -20.0097  -10.8078 C   0  0  0  0  0  0  0  0  0  0  0  0
   18.1722  -20.1710   -9.8541 N   0  0  0  0  0  0  0  0  0  0  0  0
   20.0886  -20.9546  -10.9312 N   0  0  0  0  0  0  0  0  0  0  0  0
   21.3025  -20.5588  -11.7006 C   0  0  0  0  0  0  0  0  0  0  0  0
   22.3236  -21.6135  -11.6274 C   0  0  0  0  0  0  0  0  0  0  0  0
   23.6400  -21.5192  -12.2340 C   0  0  0  0  0  0  0  0  0  0  0  0
   24.6160  -20.5322  -11.7104 C   0  0  2  0  0  0  0  0  0  0  0  0
   25.8304  -20.6179  -12.6276 N   0  0  0  0  0  0  0  0  0  0  0  0
   25.2061  -20.9931  -10.4376 C   0  0  0  0  0  0  0  0  0  0  0  0
   26.2659  -21.9171  -10.4591 O   0  0  0  0  0  0  0  0  0  0  0  0
   24.8353  -20.6259   -9.3316 O   0  0  0  0  0  0  0  0  0  0  0  0
  2  1  1  0
  3  2  1  0
  4  3  1  0
  4  5  1  0
  5  6  1  6
  7  8  2  0
  7  5  1  0
  9  7  1  0
 10  9  1  0
 11 10  1  0
 12 11  1  0
 12 13  1  0
 13 14  1  1
 13  9  1  0
 14 15  2  0
 17 18  2  0
 17 16  1  0
 19 17  1  0
 20 19  1  0
 21 20  1  0
 22 21  1  0
 23 22  1  6
 24 23  1  0
 24 14  1  0
 25 26  1  0
 25 23  1  0
 27 25  2  0
M  END
$$$$
