MPR.pdb
     RDKit          3D

 27 27  0  0  1  0  0  0  0  0999 V2000
   28.3700  -17.8455   -9.4638 C   0  0  0  0  0  0  0  0  0  0  0  0
   29.2508  -17.3042  -10.9524 S   0  0  0  0  0  0  0  0  0  0  0  0
   29.2249  -18.6013  -12.2382 C   0  0  0  0  0  0  0  0  0  0  0  0
   27.8219  -18.9680  -12.5840 C   0  0  0  0  0  0  0  0  0  0  0  0
   27.6901  -20.0494  -13.6274 C   0  0  2  0  0  0  0  0  0  0  0  0
   28.4711  -19.8195  -14.7957 N   0  0  0  0  0  0  0  0  0  0  0  0
   26.2849  -20.3142  -13.9320 C   0  0  0  0  0  0  0  0  0  0  0  0
   25.7703  -19.5327  -14.8125 O   0  0  0  0  0  0  0  0  0  0  0  0
   25.4633  -21.2903  -13.3906 N   0  0  0  0  0  0  0  0  0  0  0  0
   25.8483  -22.6241  -12.8730 C   0  0  0  0  0  0  0  0  0  0  0  0
   25.2586  -22.5061  -11.4447 C   0  0  0  0  0  0  0  0  0  0  0  0
   24.0293  -21.6249  -11.6659 C   0  0  0  0  0  0  0  0  0  0  0  0
   24.0267  -21.3510  -13.1492 C   0  0  1  0  0  0  0  0  0  0  0  0
   23.1843  -20.2922  -13.6029 C   0  0  0  0  0  0  0  0  0  0  0  0
   23.1977  -19.1954  -12.9274 O   0  0  0  0  0  0  0  0  0  0  0  0
   17.4423  -18.5670  -20.2899 N   0  0  0  0  0  0  0  0  0  0  0  0
   17.4950  -17.3910  -19.4791 C   0  0  0  0  0  0  0  0  0  0  0  0
   16.6961  -16.3907  -19.7297 N   0  0  0  0  0  0  0  0  0  0  0  0
   18.4003  -17.2745  -18.4027 N   0  0  0  0  0  0  0  0  0  0  0  0
   19.2900  -18.4345  -18.1107 C   0  0  0  0  0  0  0  0  0  0  0  0
   20.1048  -18.1690  -16.9164 C   0  0  0  0  0  0  0  0  0  0  0  0
   21.0999  -19.0849  -16.3867 C   0  0  0  0  0  0  0  0  0  0  0  0
   21.3188  -19.1570  -14.9211 C   0  0  2  0  0  0  0  0  0  0  0  0
   22.3205  -20.2851  -14.7029 N   0  0  0  0  0  0  0  0  0  0  0  0
   20.1347  -19.7109  -14.2342 C   0  0  0  0  0  0  0  0  0  0  0  0
   19.9263  -21.1016  -14.2244 O   0  0  0  0  0  0  0  0  0  0  0  0
   19.2937  -19.0371  -13.6562 O   0  0  0  0  0  0  0  0  0  0  0  0
  2  1  1  0
  3  2  1  0
  4  3  1  0
  4  5  1  0
  5  6  1  6
  7  8  2  0
  7  5  1  0
  9  7  1  0
 10  9  1  0
 11 10  1  0
 12 11  1  0
 12 13  1  0
 13 14  1  1
 13  9  1  0
 14 15  2  0
 17 18  2  0
 17 16  1  0
 19 17  1  0
 20 19  1  0
 21 20  1  0
 22 21  1  0
 23 22  1  6
 24 23  1  0
 24 14  1  0
 25 26  1  0
 25 23  1  0
 27 25  2  0
M  END
$$$$
