MPR.pdb
     RDKit          3D

 27 27  0  0  1  0  0  0  0  0999 V2000
   25.5896  -20.2186  -20.7382 C   0  0  0  0  0  0  0  0  0  0  0  0
   27.1545  -21.0302  -21.1590 S   0  0  0  0  0  0  0  0  0  0  0  0
   27.8293  -21.9379  -19.7248 C   0  0  0  0  0  0  0  0  0  0  0  0
   27.0595  -21.6132  -18.4902 C   0  0  0  0  0  0  0  0  0  0  0  0
   27.7699  -21.9358  -17.1991 C   0  0  2  0  0  0  0  0  0  0  0  0
   28.3811  -23.2219  -17.1850 N   0  0  0  0  0  0  0  0  0  0  0  0
   26.8930  -21.7159  -16.0502 C   0  0  0  0  0  0  0  0  0  0  0  0
   25.9621  -22.5903  -15.9106 O   0  0  0  0  0  0  0  0  0  0  0  0
   26.9505  -20.6940  -15.1157 N   0  0  0  0  0  0  0  0  0  0  0  0
   28.1517  -20.0073  -14.5859 C   0  0  0  0  0  0  0  0  0  0  0  0
   27.7670  -18.5475  -14.9360 C   0  0  0  0  0  0  0  0  0  0  0  0
   26.2452  -18.5629  -14.7933 C   0  0  0  0  0  0  0  0  0  0  0  0
   25.9227  -19.9750  -14.3725 C   0  0  1  0  0  0  0  0  0  0  0  0
   24.5576  -20.3777  -14.4763 C   0  0  0  0  0  0  0  0  0  0  0  0
   24.0667  -20.5027  -15.6607 O   0  0  0  0  0  0  0  0  0  0  0  0
   18.4475  -24.6014   -9.3424 N   0  0  0  0  0  0  0  0  0  0  0  0
   17.8410  -24.3282  -10.6076 C   0  0  0  0  0  0  0  0  0  0  0  0
   16.6305  -24.7474  -10.8537 N   0  0  0  0  0  0  0  0  0  0  0  0
   18.5220  -23.6124  -11.6154 N   0  0  0  0  0  0  0  0  0  0  0  0
   19.9388  -23.2253  -11.3600 C   0  0  0  0  0  0  0  0  0  0  0  0
   20.4884  -22.4981  -12.5132 C   0  0  0  0  0  0  0  0  0  0  0  0
   21.8267  -21.9357  -12.5616 C   0  0  0  0  0  0  0  0  0  0  0  0
   22.2332  -21.1183  -13.7311 C   0  0  2  0  0  0  0  0  0  0  0  0
   23.6566  -20.6551  -13.4431 N   0  0  0  0  0  0  0  0  0  0  0  0
   21.5252  -19.8225  -13.7447 C   0  0  0  0  0  0  0  0  0  0  0  0
   20.3854  -19.6635  -14.5529 O   0  0  0  0  0  0  0  0  0  0  0  0
   21.8609  -18.8453  -13.0905 O   0  0  0  0  0  0  0  0  0  0  0  0
  2  1  1  0
  3  2  1  0
  4  3  1  0
  4  5  1  0
  5  6  1  6
  7  8  2  0
  7  5  1  0
  9  7  1  0
 10  9  1  0
 11 10  1  0
 12 11  1  0
 12 13  1  0
 13 14  1  6
 13  9  1  0
 14 15  2  0
 17 18  2  0
 17 16  1  0
 19 17  1  0
 20 19  1  0
 21 20  1  0
 22 21  1  0
 23 22  1  1
 24 23  1  0
 24 14  1  0
 25 26  1  0
 25 23  1  0
 27 25  2  0
M  END
$$$$
