EFD.pdb
     RDKit          3D

 29 29  0  0  1  0  0  0  0  0999 V2000
   10.7873  -16.5068   19.9742 N   0  0  0  0  0  0  0  0  0  0  0  0
    9.6857  -16.8924   20.7949 C   0  0  1  0  0  0  0  0  0  0  0  0
    9.7431  -18.3248   21.2524 C   0  0  0  0  0  0  0  0  0  0  0  0
   11.1530  -18.8154   21.4587 C   0  0  0  0  0  0  0  0  0  0  0  0
   11.2406  -20.2189   21.8357 C   0  0  0  0  0  0  0  0  0  0  0  0
   11.9109  -21.0191   21.1512 O   0  0  0  0  0  0  0  0  0  0  0  0
    9.6536  -16.0295   22.0050 C   0  0  0  0  0  0  0  0  0  0  0  0
   10.7226  -15.5454   22.5000 O   0  0  0  0  0  0  0  0  0  0  0  0
   10.5855  -20.6884   22.9545 O   0  0  0  0  0  0  0  0  0  0  0  0
    8.4512  -15.6904   22.6822 N   0  0  0  0  0  0  0  0  0  0  0  0
    8.4445  -14.8368   23.8700 C   0  0  1  0  0  0  0  0  0  0  0  0
    7.0888  -14.1738   23.9094 C   0  0  0  0  0  0  0  0  0  0  0  0
    6.9251  -13.3109   25.0864 C   0  0  0  0  0  0  0  0  0  0  0  0
    7.7083  -12.1714   25.2732 C   0  0  0  0  0  0  0  0  0  0  0  0
    7.5554  -11.3631   26.3721 C   0  0  0  0  0  0  0  0  0  0  0  0
    6.6038  -11.6850   27.3156 C   0  0  0  0  0  0  0  0  0  0  0  0
    5.8039  -12.8136   27.1636 C   0  0  0  0  0  0  0  0  0  0  0  0
    5.9780  -13.6051   26.0543 C   0  0  0  0  0  0  0  0  0  0  0  0
    8.7788  -15.5903   25.0824 C   0  0  0  0  0  0  0  0  0  0  0  0
    8.8862  -15.0307   26.1985 O   0  0  0  0  0  0  0  0  0  0  0  0
    9.0010  -17.0053   25.0597 N   0  0  0  0  0  0  0  0  0  0  0  0
    9.3468  -17.7500   26.2735 C   0  0  1  0  0  0  0  0  0  0  0  0
    9.1106  -19.2177   26.0598 C   0  0  0  0  0  0  0  0  0  0  0  0
    7.7005  -19.5158   25.8217 C   0  0  0  0  0  0  0  0  0  0  0  0
    7.1615  -19.2510   24.7327 O   0  0  0  0  0  0  0  0  0  0  0  0
   10.7504  -17.4106   26.6045 C   0  0  0  0  0  0  0  0  0  0  0  0
   11.4453  -16.7547   25.7932 O   0  0  0  0  0  0  0  0  0  0  0  0
    6.9474  -20.1064   26.8307 O   0  0  0  0  0  0  0  0  0  0  0  0
   11.3523  -17.7904   27.7965 O   0  0  0  0  0  0  0  0  0  0  0  0
  2  1  1  6
  2  7  1  0
  2  3  1  0
  4  3  1  0
  4  5  1  0
  5  6  2  0
  5  9  1  0
  7  8  2  0
 10 11  1  0
 10  7  1  0
 11 12  1  1
 13 14  2  0
 13 12  1  0
 15 14  1  0
 16 15  2  0
 17 16  1  0
 17 18  2  0
 18 13  1  0
 19 11  1  0
 20 19  2  0
 21 19  1  0
 22 26  1  0
 22 21  1  0
 22 23  1  6
 23 24  1  0
 24 28  1  0
 24 25  2  0
 26 29  1  0
 27 26  2  0
M  END
$$$$
