EFD.pdb
     RDKit          3D

 29 29  0  0  1  0  0  0  0  0999 V2000
    8.7469  -17.6217   20.1758 N   0  0  0  0  0  0  0  0  0  0  0  0
   10.0738  -17.2717   20.5660 C   0  0  1  0  0  0  0  0  0  0  0  0
   10.8795  -16.6316   19.4680 C   0  0  0  0  0  0  0  0  0  0  0  0
   10.5405  -17.1743   18.1035 C   0  0  0  0  0  0  0  0  0  0  0  0
   11.7022  -17.4244   17.2623 C   0  0  0  0  0  0  0  0  0  0  0  0
   12.8545  -17.2101   17.6919 O   0  0  0  0  0  0  0  0  0  0  0  0
   10.0117  -16.3143   21.7016 C   0  0  0  0  0  0  0  0  0  0  0  0
   11.0638  -15.7579   22.1551 O   0  0  0  0  0  0  0  0  0  0  0  0
   11.5502  -17.9020   15.9778 O   0  0  0  0  0  0  0  0  0  0  0  0
    8.7977  -15.9592   22.3492 N   0  0  0  0  0  0  0  0  0  0  0  0
    8.7793  -15.2128   23.6071 C   0  0  1  0  0  0  0  0  0  0  0  0
    7.4568  -14.4861   23.6509 C   0  0  0  0  0  0  0  0  0  0  0  0
    7.2808  -13.7248   24.8944 C   0  0  0  0  0  0  0  0  0  0  0  0
    7.9530  -12.5227   25.1179 C   0  0  0  0  0  0  0  0  0  0  0  0
    7.7884  -11.8092   26.2790 C   0  0  0  0  0  0  0  0  0  0  0  0
    6.9373  -12.2923   27.2494 C   0  0  0  0  0  0  0  0  0  0  0  0
    6.2497  -13.4877   27.0621 C   0  0  0  0  0  0  0  0  0  0  0  0
    6.4329  -14.1816   25.8907 C   0  0  0  0  0  0  0  0  0  0  0  0
    9.0224  -16.0852   24.7600 C   0  0  0  0  0  0  0  0  0  0  0  0
    8.2864  -17.0681   25.0106 O   0  0  0  0  0  0  0  0  0  0  0  0
   10.1125  -15.8641   25.6628 N   0  0  0  0  0  0  0  0  0  0  0  0
   10.4314  -16.8140   26.7322 C   0  0  1  0  0  0  0  0  0  0  0  0
   11.8813  -17.1988   26.6610 C   0  0  0  0  0  0  0  0  0  0  0  0
   12.2338  -17.7654   25.3614 C   0  0  0  0  0  0  0  0  0  0  0  0
   11.6172  -18.7395   24.8953 O   0  0  0  0  0  0  0  0  0  0  0  0
   10.0432  -16.1734   28.0103 C   0  0  0  0  0  0  0  0  0  0  0  0
    9.8020  -14.9438   28.0480 O   0  0  0  0  0  0  0  0  0  0  0  0
   13.2776  -17.2054   24.6326 O   0  0  0  0  0  0  0  0  0  0  0  0
    9.9293  -16.8812   29.1992 O   0  0  0  0  0  0  0  0  0  0  0  0
  2  1  1  6
  2  7  1  0
  2  3  1  0
  4  3  1  0
  4  5  1  0
  5  6  2  0
  5  9  1  0
  7  8  2  0
 10 11  1  0
 10  7  1  0
 11 12  1  1
 13 14  2  0
 13 12  1  0
 15 14  1  0
 16 15  2  0
 17 16  1  0
 17 18  2  0
 18 13  1  0
 19 11  1  0
 20 19  2  0
 21 19  1  0
 22 26  1  0
 22 21  1  0
 22 23  1  1
 23 24  1  0
 24 28  1  0
 24 25  2  0
 26 29  1  0
 27 26  2  0
M  END
$$$$
