EFD.pdb
     RDKit          3D

 29 29  0  0  1  0  0  0  0  0999 V2000
   10.1583  -16.1480   19.0710 N   0  0  0  0  0  0  0  0  0  0  0  0
    9.3345  -16.8014   20.0355 C   0  0  1  0  0  0  0  0  0  0  0  0
    9.6745  -18.2531   20.2389 C   0  0  0  0  0  0  0  0  0  0  0  0
   10.8490  -18.6993   19.4067 C   0  0  0  0  0  0  0  0  0  0  0  0
   11.1463  -20.1202   19.5190 C   0  0  0  0  0  0  0  0  0  0  0  0
   10.2237  -20.9562   19.6090 O   0  0  0  0  0  0  0  0  0  0  0  0
    9.4775  -16.1130   21.3454 C   0  0  0  0  0  0  0  0  0  0  0  0
   10.6168  -15.9720   21.8968 O   0  0  0  0  0  0  0  0  0  0  0  0
   12.4508  -20.5669   19.5279 O   0  0  0  0  0  0  0  0  0  0  0  0
    8.3745  -15.5743   22.0613 N   0  0  0  0  0  0  0  0  0  0  0  0
    8.5338  -14.9435   23.3712 C   0  0  1  0  0  0  0  0  0  0  0  0
    7.3265  -14.0584   23.5665 C   0  0  0  0  0  0  0  0  0  0  0  0
    7.3339  -13.3866   24.8725 C   0  0  0  0  0  0  0  0  0  0  0  0
    8.2538  -12.3816   25.1733 C   0  0  0  0  0  0  0  0  0  0  0  0
    8.2610  -11.7518   26.3929 C   0  0  0  0  0  0  0  0  0  0  0  0
    7.3360  -12.1215   27.3454 C   0  0  0  0  0  0  0  0  0  0  0  0
    6.4030  -13.1199   27.0817 C   0  0  0  0  0  0  0  0  0  0  0  0
    6.4181  -13.7337   25.8528 C   0  0  0  0  0  0  0  0  0  0  0  0
    8.7272  -15.9363   24.4324 C   0  0  0  0  0  0  0  0  0  0  0  0
    7.9359  -16.8951   24.5912 O   0  0  0  0  0  0  0  0  0  0  0  0
    9.8289  -15.8669   25.3455 N   0  0  0  0  0  0  0  0  0  0  0  0
   10.1112  -16.9467   26.2951 C   0  0  1  0  0  0  0  0  0  0  0  0
   11.4318  -17.5836   25.9700 C   0  0  0  0  0  0  0  0  0  0  0  0
   11.7900  -18.6223   26.9326 C   0  0  0  0  0  0  0  0  0  0  0  0
   10.9846  -19.5173   27.2434 O   0  0  0  0  0  0  0  0  0  0  0  0
   10.0480  -16.3569   27.6526 C   0  0  0  0  0  0  0  0  0  0  0  0
   10.1383  -15.1156   27.8022 O   0  0  0  0  0  0  0  0  0  0  0  0
   13.0543  -18.6101   27.5118 O   0  0  0  0  0  0  0  0  0  0  0  0
    9.8899  -17.1263   28.7974 O   0  0  0  0  0  0  0  0  0  0  0  0
  2  1  1  6
  2  7  1  0
  2  3  1  0
  4  3  1  0
  4  5  1  0
  5  6  2  0
  5  9  1  0
  7  8  2  0
 10 11  1  0
 10  7  1  0
 11 12  1  1
 13 14  2  0
 13 12  1  0
 15 14  1  0
 16 15  2  0
 17 16  1  0
 17 18  2  0
 18 13  1  0
 19 11  1  0
 20 19  2  0
 21 19  1  0
 22 26  1  0
 22 21  1  0
 22 23  1  6
 23 24  1  0
 24 28  1  0
 24 25  2  0
 26 29  1  0
 27 26  2  0
M  END
$$$$
