EFD.pdb
     RDKit          3D

 29 29  0  0  1  0  0  0  0  0999 V2000
    8.7417  -18.6325   21.3166 N   0  0  0  0  0  0  0  0  0  0  0  0
   10.0522  -18.0842   21.4491 C   0  0  1  0  0  0  0  0  0  0  0  0
   10.6789  -17.6888   20.1394 C   0  0  0  0  0  0  0  0  0  0  0  0
    9.6936  -17.0617   19.1869 C   0  0  0  0  0  0  0  0  0  0  0  0
   10.2726  -16.6757   17.9080 C   0  0  0  0  0  0  0  0  0  0  0  0
   10.6239  -15.4959   17.7010 O   0  0  0  0  0  0  0  0  0  0  0  0
    9.9892  -16.8720   22.3073 C   0  0  0  0  0  0  0  0  0  0  0  0
   11.0254  -16.1659   22.5307 O   0  0  0  0  0  0  0  0  0  0  0  0
   10.4429  -17.6055   16.9042 O   0  0  0  0  0  0  0  0  0  0  0  0
    8.7917  -16.4239   22.9274 N   0  0  0  0  0  0  0  0  0  0  0  0
    8.7993  -15.4326   24.0030 C   0  0  1  0  0  0  0  0  0  0  0  0
    7.4265  -14.8048   24.0122 C   0  0  0  0  0  0  0  0  0  0  0  0
    7.3016  -13.7540   25.0306 C   0  0  0  0  0  0  0  0  0  0  0  0
    8.3495  -12.8757   25.3083 C   0  0  0  0  0  0  0  0  0  0  0  0
    8.2337  -11.8922   26.2589 C   0  0  0  0  0  0  0  0  0  0  0  0
    7.0521  -11.7689   26.9575 C   0  0  0  0  0  0  0  0  0  0  0  0
    5.9849  -12.6267   26.7082 C   0  0  0  0  0  0  0  0  0  0  0  0
    6.1278  -13.6021   25.7514 C   0  0  0  0  0  0  0  0  0  0  0  0
    9.1965  -16.0242   25.2842 C   0  0  0  0  0  0  0  0  0  0  0  0
    8.6212  -17.0350   25.7509 O   0  0  0  0  0  0  0  0  0  0  0  0
   10.2622  -15.4818   26.0730 N   0  0  0  0  0  0  0  0  0  0  0  0
   10.7515  -16.1596   27.2766 C   0  0  1  0  0  0  0  0  0  0  0  0
   12.2278  -15.9307   27.4301 C   0  0  0  0  0  0  0  0  0  0  0  0
   13.0080  -16.7583   26.5133 C   0  0  0  0  0  0  0  0  0  0  0  0
   12.8651  -16.6648   25.2816 O   0  0  0  0  0  0  0  0  0  0  0  0
    9.9455  -15.6579   28.4139 C   0  0  0  0  0  0  0  0  0  0  0  0
    9.3316  -14.5694   28.3158 O   0  0  0  0  0  0  0  0  0  0  0  0
   13.9268  -17.6670   27.0273 O   0  0  0  0  0  0  0  0  0  0  0  0
    9.8313  -16.3474   29.6135 O   0  0  0  0  0  0  0  0  0  0  0  0
  2  1  1  6
  2  7  1  0
  2  3  1  0
  4  3  1  0
  4  5  1  0
  5  6  2  0
  5  9  1  0
  7  8  2  0
 10 11  1  0
 10  7  1  0
 11 12  1  1
 13 14  2  0
 13 12  1  0
 15 14  1  0
 16 15  2  0
 17 16  1  0
 17 18  2  0
 18 13  1  0
 19 11  1  0
 20 19  2  0
 21 19  1  0
 22 26  1  0
 22 21  1  0
 22 23  1  1
 23 24  1  0
 24 28  1  0
 24 25  2  0
 26 29  1  0
 27 26  2  0
M  END
$$$$
