EFD.pdb
     RDKit          3D

 29 29  0  0  1  0  0  0  0  0999 V2000
   10.2201  -16.4169   19.1779 N   0  0  0  0  0  0  0  0  0  0  0  0
    8.9262  -16.2371   19.7518 C   0  0  1  0  0  0  0  0  0  0  0  0
    8.1022  -17.4955   19.7950 C   0  0  0  0  0  0  0  0  0  0  0  0
    8.9370  -18.7325   20.0044 C   0  0  0  0  0  0  0  0  0  0  0  0
    8.1591  -19.9585   20.1118 C   0  0  0  0  0  0  0  0  0  0  0  0
    7.8211  -20.5872   19.0877 O   0  0  0  0  0  0  0  0  0  0  0  0
    9.0755  -15.7432   21.1460 C   0  0  0  0  0  0  0  0  0  0  0  0
   10.0966  -16.0406   21.8466 O   0  0  0  0  0  0  0  0  0  0  0  0
    7.7827  -20.4464   21.3453 O   0  0  0  0  0  0  0  0  0  0  0  0
    8.1080  -14.9205   21.7835 N   0  0  0  0  0  0  0  0  0  0  0  0
    8.2423  -14.5049   23.1795 C   0  0  1  0  0  0  0  0  0  0  0  0
    7.0561  -13.6193   23.4754 C   0  0  0  0  0  0  0  0  0  0  0  0
    7.0650  -13.1197   24.8565 C   0  0  0  0  0  0  0  0  0  0  0  0
    8.0236  -12.2074   25.2985 C   0  0  0  0  0  0  0  0  0  0  0  0
    8.0323  -11.7384   26.5886 C   0  0  0  0  0  0  0  0  0  0  0  0
    7.0695  -12.1800   27.4704 C   0  0  0  0  0  0  0  0  0  0  0  0
    6.0972  -13.0898   27.0658 C   0  0  0  0  0  0  0  0  0  0  0  0
    6.1117  -13.5428   25.7690 C   0  0  0  0  0  0  0  0  0  0  0  0
    8.3705  -15.6556   24.0789 C   0  0  0  0  0  0  0  0  0  0  0  0
    7.6085  -16.6470   23.9948 O   0  0  0  0  0  0  0  0  0  0  0  0
    9.3716  -15.7117   25.1020 N   0  0  0  0  0  0  0  0  0  0  0  0
    9.6394  -16.9426   25.8507 C   0  0  1  0  0  0  0  0  0  0  0  0
   10.7262  -17.7282   25.1745 C   0  0  0  0  0  0  0  0  0  0  0  0
   11.1354  -18.8874   25.9638 C   0  0  0  0  0  0  0  0  0  0  0  0
   10.2958  -19.6116   26.5268 O   0  0  0  0  0  0  0  0  0  0  0  0
    9.9642  -16.5426   27.2396 C   0  0  0  0  0  0  0  0  0  0  0  0
    9.6449  -17.2856   28.1974 O   0  0  0  0  0  0  0  0  0  0  0  0
   12.4879  -19.1863   26.0876 O   0  0  0  0  0  0  0  0  0  0  0  0
   10.6206  -15.3578   27.5443 O   0  0  0  0  0  0  0  0  0  0  0  0
  2  1  1  1
  2  7  1  0
  2  3  1  0
  4  3  1  0
  4  5  1  0
  5  6  2  0
  5  9  1  0
  7  8  2  0
 10 11  1  0
 10  7  1  0
 11 12  1  1
 13 14  2  0
 13 12  1  0
 15 14  1  0
 16 15  2  0
 17 16  1  0
 17 18  2  0
 18 13  1  0
 19 11  1  0
 20 19  2  0
 21 19  1  0
 22 26  1  0
 22 21  1  0
 22 23  1  6
 23 24  1  0
 24 28  1  0
 24 25  2  0
 26 29  1  0
 27 26  2  0
M  END
$$$$
