EFD.pdb
     RDKit          3D

 29 29  0  0  1  0  0  0  0  0999 V2000
   10.3777  -16.5859   19.3139 N   0  0  0  0  0  0  0  0  0  0  0  0
    9.1331  -16.6154   20.0109 C   0  0  1  0  0  0  0  0  0  0  0  0
    8.5733  -18.0002   20.1932 C   0  0  0  0  0  0  0  0  0  0  0  0
    9.6347  -19.0691   20.1483 C   0  0  0  0  0  0  0  0  0  0  0  0
    9.1151  -20.4229   20.2787 C   0  0  0  0  0  0  0  0  0  0  0  0
    7.8860  -20.6259   20.3569 O   0  0  0  0  0  0  0  0  0  0  0  0
    9.3153  -16.0174   21.3597 C   0  0  0  0  0  0  0  0  0  0  0  0
   10.3985  -16.1738   22.0111 O   0  0  0  0  0  0  0  0  0  0  0  0
    9.9708  -21.5035   20.3180 O   0  0  0  0  0  0  0  0  0  0  0  0
    8.3131  -15.2440   22.0054 N   0  0  0  0  0  0  0  0  0  0  0  0
    8.4860  -14.7289   23.3634 C   0  0  1  0  0  0  0  0  0  0  0  0
    7.2988  -13.8365   23.6339 C   0  0  0  0  0  0  0  0  0  0  0  0
    7.3583  -13.2189   24.9651 C   0  0  0  0  0  0  0  0  0  0  0  0
    6.2631  -13.2358   25.8294 C   0  0  0  0  0  0  0  0  0  0  0  0
    6.3177  -12.6603   27.0744 C   0  0  0  0  0  0  0  0  0  0  0  0
    7.4843  -12.0497   27.4816 C   0  0  0  0  0  0  0  0  0  0  0  0
    8.5974  -12.0129   26.6471 C   0  0  0  0  0  0  0  0  0  0  0  0
    8.5153  -12.5967   25.4062 C   0  0  0  0  0  0  0  0  0  0  0  0
    8.6566  -15.8113   24.3374 C   0  0  0  0  0  0  0  0  0  0  0  0
    7.8589  -16.7760   24.3982 O   0  0  0  0  0  0  0  0  0  0  0  0
    9.7420  -15.8274   25.2722 N   0  0  0  0  0  0  0  0  0  0  0  0
   10.0623  -17.0210   26.0598 C   0  0  1  0  0  0  0  0  0  0  0  0
   11.2918  -17.6845   25.5089 C   0  0  0  0  0  0  0  0  0  0  0  0
   11.7238  -18.8088   26.3356 C   0  0  0  0  0  0  0  0  0  0  0  0
   12.9220  -18.9713   26.6259 O   0  0  0  0  0  0  0  0  0  0  0  0
   10.1962  -16.5863   27.4696 C   0  0  0  0  0  0  0  0  0  0  0  0
   10.3457  -15.3714   27.7400 O   0  0  0  0  0  0  0  0  0  0  0  0
   10.7782  -19.7134   26.8062 O   0  0  0  0  0  0  0  0  0  0  0  0
   10.1641  -17.4762   28.5347 O   0  0  0  0  0  0  0  0  0  0  0  0
  2  1  1  1
  2  7  1  0
  2  3  1  0
  4  3  1  0
  4  5  1  0
  5  6  2  0
  5  9  1  0
  7  8  2  0
 10 11  1  0
 10  7  1  0
 11 12  1  1
 13 14  2  0
 13 12  1  0
 15 14  1  0
 16 15  2  0
 17 16  1  0
 17 18  2  0
 18 13  1  0
 19 11  1  0
 20 19  2  0
 21 19  1  0
 22 26  1  0
 22 21  1  0
 22 23  1  6
 23 24  1  0
 24 28  1  0
 24 25  2  0
 26 29  1  0
 27 26  2  0
M  END
$$$$
