VSM.pdb
     RDKit          3D

 22 21  0  0  1  0  0  0  0  0999 V2000
   18.4731  -11.4411  -18.4323 C   0  0  0  0  0  0  0  0  0  0  0  0
   19.9298  -11.4607  -18.7604 C   0  0  2  0  0  0  0  0  0  0  0  0
   20.3710  -12.8110  -19.2740 C   0  0  0  0  0  0  0  0  0  0  0  0
   20.7986  -10.9405  -17.6483 C   0  0  2  0  0  0  0  0  0  0  0  0
   20.9834  -11.9495  -16.6417 N   0  0  0  0  0  0  0  0  0  0  0  0
   20.3001   -9.6591  -17.0780 C   0  0  0  0  0  0  0  0  0  0  0  0
   20.3994   -8.6041  -17.7554 O   0  0  0  0  0  0  0  0  0  0  0  0
   17.2260   -8.9691  -14.4452 O   0  0  0  0  0  0  0  0  0  0  0  0
   18.4557   -8.4714  -14.0176 C   0  0  0  0  0  0  0  0  0  0  0  0
   19.3549   -8.2900  -15.2198 C   0  0  2  0  0  0  0  0  0  0  0  0
   19.7126   -9.5671  -15.7957 N   0  0  0  0  0  0  0  0  0  0  0  0
   20.5378   -7.5132  -14.7619 C   0  0  0  0  0  0  0  0  0  0  0  0
   21.6339   -8.1249  -14.7485 O   0  0  0  0  0  0  0  0  0  0  0  0
   26.3781   -4.2851  -16.8521 C   0  0  0  0  0  0  0  0  0  0  0  0
   24.7797   -5.1505  -16.9809 S   0  0  0  0  0  0  0  0  0  0  0  0
   23.9232   -4.9775  -15.4031 C   0  0  0  0  0  0  0  0  0  0  0  0
   22.6141   -5.6372  -15.3175 C   0  0  0  0  0  0  0  0  0  0  0  0
   21.7324   -5.4108  -14.1464 C   0  0  2  0  0  0  0  0  0  0  0  0
   20.4752   -6.1716  -14.3596 N   0  0  0  0  0  0  0  0  0  0  0  0
   21.4364   -4.0500  -13.7416 C   0  0  0  0  0  0  0  0  0  0  0  0
   20.3860   -3.4280  -14.1131 O   0  0  0  0  0  0  0  0  0  0  0  0
   22.2732   -3.3312  -12.9154 O   0  0  0  0  0  0  0  0  0  0  0  0
  2  1  1  1
  2  3  1  0
  4  2  1  0
  4  5  1  1
  6  4  1  0
  6 11  1  0
  7  6  2  0
  8  9  1  0
 10 11  1  0
 10  9  1  1
 10 12  1  0
 12 19  1  0
 13 12  2  0
 15 14  1  0
 16 15  1  0
 17 16  1  0
 18 17  1  6
 19 18  1  0
 20 22  1  0
 20 18  1  0
 21 20  2  0
M  END
$$$$
