VSM.pdb
     RDKit          3D

 22 21  0  0  1  0  0  0  0  0999 V2000
   17.2329  -11.4571  -17.7251 C   0  0  0  0  0  0  0  0  0  0  0  0
   17.4082  -10.2723  -16.8332 C   0  0  2  0  0  0  0  0  0  0  0  0
   16.9823   -8.9916  -17.5116 C   0  0  0  0  0  0  0  0  0  0  0  0
   18.7781  -10.1863  -16.2182 C   0  0  2  0  0  0  0  0  0  0  0  0
   19.0595  -11.3693  -15.4522 N   0  0  0  0  0  0  0  0  0  0  0  0
   18.9785   -8.9411  -15.4277 C   0  0  0  0  0  0  0  0  0  0  0  0
   18.3807   -8.8065  -14.3293 O   0  0  0  0  0  0  0  0  0  0  0  0
   22.1280   -7.0366  -14.1401 O   0  0  0  0  0  0  0  0  0  0  0  0
   21.4273   -6.2442  -15.0476 C   0  0  0  0  0  0  0  0  0  0  0  0
   19.9811   -6.6859  -15.0681 C   0  0  2  0  0  0  0  0  0  0  0  0
   19.8184   -7.8876  -15.8554 N   0  0  0  0  0  0  0  0  0  0  0  0
   19.1871   -5.5424  -15.5918 C   0  0  0  0  0  0  0  0  0  0  0  0
   19.0875   -5.4596  -16.8404 O   0  0  0  0  0  0  0  0  0  0  0  0
   13.6836   -0.0527  -14.3331 C   0  0  0  0  0  0  0  0  0  0  0  0
   14.5152   -1.5755  -13.7761 S   0  0  0  0  0  0  0  0  0  0  0  0
   15.9562   -1.8405  -14.8279 C   0  0  0  0  0  0  0  0  0  0  0  0
   16.7264   -3.0598  -14.5514 C   0  0  0  0  0  0  0  0  0  0  0  0
   17.8988   -3.4152  -15.3877 C   0  0  2  0  0  0  0  0  0  0  0  0
   18.5682   -4.5887  -14.7713 N   0  0  0  0  0  0  0  0  0  0  0  0
   18.8724   -2.3887  -15.7064 C   0  0  0  0  0  0  0  0  0  0  0  0
   20.0094   -2.3078  -15.1329 O   0  0  0  0  0  0  0  0  0  0  0  0
   18.6370   -1.4254  -16.6637 O   0  0  0  0  0  0  0  0  0  0  0  0
  2  1  1  6
  2  3  1  0
  4  2  1  0
  4  5  1  1
  6  4  1  0
  6 11  1  0
  7  6  2  0
  8  9  1  0
 10 11  1  0
 10  9  1  6
 10 12  1  0
 12 19  1  0
 13 12  2  0
 15 14  1  0
 16 15  1  0
 17 16  1  0
 18 17  1  1
 19 18  1  0
 20 22  1  0
 20 18  1  0
 21 20  2  0
M  END
$$$$
