VSM.pdb
     RDKit          3D

 22 21  0  0  1  0  0  0  0  0999 V2000
   19.0252  -13.8531  -15.7537 C   0  0  0  0  0  0  0  0  0  0  0  0
   17.6719  -13.2424  -15.5934 C   0  0  2  0  0  0  0  0  0  0  0  0
   16.5807  -14.1558  -16.0999 C   0  0  0  0  0  0  0  0  0  0  0  0
   17.5777  -11.8475  -16.1480 C   0  0  2  0  0  0  0  0  0  0  0  0
   17.5359  -11.8801  -17.5842 N   0  0  0  0  0  0  0  0  0  0  0  0
   18.6479  -10.9491  -15.6348 C   0  0  0  0  0  0  0  0  0  0  0  0
   18.6695  -10.6533  -14.4126 O   0  0  0  0  0  0  0  0  0  0  0  0
   21.7313   -9.6627  -18.0445 O   0  0  0  0  0  0  0  0  0  0  0  0
   21.9792   -9.6998  -16.6734 C   0  0  0  0  0  0  0  0  0  0  0  0
   20.6715   -9.5224  -15.9348 C   0  0  2  0  0  0  0  0  0  0  0  0
   19.6550  -10.4042  -16.4636 N   0  0  0  0  0  0  0  0  0  0  0  0
   20.3029   -8.0858  -16.0470 C   0  0  0  0  0  0  0  0  0  0  0  0
   19.4756   -7.7921  -16.9443 O   0  0  0  0  0  0  0  0  0  0  0  0
   15.9689   -2.5546  -15.8339 C   0  0  0  0  0  0  0  0  0  0  0  0
   16.5582   -4.2783  -15.7870 S   0  0  0  0  0  0  0  0  0  0  0  0
   18.3506   -4.2496  -15.5888 C   0  0  0  0  0  0  0  0  0  0  0  0
   19.0124   -5.5600  -15.6213 C   0  0  0  0  0  0  0  0  0  0  0  0
   20.4852   -5.6631  -15.4783 C   0  0  2  0  0  0  0  0  0  0  0  0
   20.8265   -7.0845  -15.2170 N   0  0  0  0  0  0  0  0  0  0  0  0
   21.1619   -4.7992  -14.5301 C   0  0  0  0  0  0  0  0  0  0  0  0
   21.1492   -3.5263  -14.6187 O   0  0  0  0  0  0  0  0  0  0  0  0
   21.8658   -5.2978  -13.4552 O   0  0  0  0  0  0  0  0  0  0  0  0
  2  1  1  6
  2  3  1  0
  4  2  1  0
  4  5  1  6
  6  4  1  0
  6 11  1  0
  7  6  2  0
  8  9  1  0
 10 11  1  0
 10  9  1  6
 10 12  1  0
 12 19  1  0
 13 12  2  0
 15 14  1  0
 16 15  1  0
 17 16  1  0
 18 17  1  1
 19 18  1  0
 20 22  1  0
 20 18  1  0
 21 20  2  0
M  END
$$$$
