VSM.pdb
     RDKit          3D

 22 21  0  0  1  0  0  0  0  0999 V2000
   17.0284  -12.3665  -18.1540 C   0  0  0  0  0  0  0  0  0  0  0  0
   18.1734  -13.1448  -17.5942 C   0  0  2  0  0  0  0  0  0  0  0  0
   17.7863  -14.5733  -17.2922 C   0  0  0  0  0  0  0  0  0  0  0  0
   18.8513  -12.4609  -16.4388 C   0  0  2  0  0  0  0  0  0  0  0  0
   18.0480  -12.5662  -15.2518 N   0  0  0  0  0  0  0  0  0  0  0  0
   19.2281  -11.0532  -16.7422 C   0  0  0  0  0  0  0  0  0  0  0  0
   20.0204  -10.8188  -17.6905 O   0  0  0  0  0  0  0  0  0  0  0  0
   17.2193   -7.9192  -15.0952 O   0  0  0  0  0  0  0  0  0  0  0  0
   17.9293   -7.6647  -16.2673 C   0  0  0  0  0  0  0  0  0  0  0  0
   19.1193   -8.5957  -16.3305 C   0  0  2  0  0  0  0  0  0  0  0  0
   18.7334   -9.9512  -16.0080 N   0  0  0  0  0  0  0  0  0  0  0  0
   20.1439   -8.0516  -15.3996 C   0  0  0  0  0  0  0  0  0  0  0  0
   19.9481   -8.2548  -14.1764 O   0  0  0  0  0  0  0  0  0  0  0  0
   26.0080  -10.8942  -14.8390 C   0  0  0  0  0  0  0  0  0  0  0  0
   25.4679   -9.3867  -15.7088 S   0  0  0  0  0  0  0  0  0  0  0  0
   24.2261   -8.5687  -14.6881 C   0  0  0  0  0  0  0  0  0  0  0  0
   23.6186   -7.3662  -15.2721 C   0  0  0  0  0  0  0  0  0  0  0  0
   22.2829   -6.9037  -14.8226 C   0  0  2  0  0  0  0  0  0  0  0  0
   21.2789   -7.3461  -15.8232 N   0  0  0  0  0  0  0  0  0  0  0  0
   22.0945   -5.5013  -14.5048 C   0  0  0  0  0  0  0  0  0  0  0  0
   22.7566   -4.9005  -13.5942 O   0  0  0  0  0  0  0  0  0  0  0  0
   21.1841   -4.7125  -15.1745 O   0  0  0  0  0  0  0  0  0  0  0  0
  2  1  1  1
  2  3  1  0
  4  2  1  0
  4  5  1  1
  6  4  1  0
  6 11  1  0
  7  6  2  0
  8  9  1  0
 10 11  1  0
 10  9  1  1
 10 12  1  0
 12 19  1  0
 13 12  2  0
 15 14  1  0
 16 15  1  0
 17 16  1  0
 18 17  1  6
 19 18  1  0
 20 22  1  0
 20 18  1  0
 21 20  2  0
M  END
$$$$
