VSM.pdb
     RDKit          3D

 22 21  0  0  1  0  0  0  0  0999 V2000
   19.3531  -12.7904  -15.8658 C   0  0  0  0  0  0  0  0  0  0  0  0
   18.3438  -11.8663  -16.4635 C   0  0  2  0  0  0  0  0  0  0  0  0
   17.4347  -12.5811  -17.4351 C   0  0  0  0  0  0  0  0  0  0  0  0
   18.9476  -10.6126  -17.0344 C   0  0  2  0  0  0  0  0  0  0  0  0
   19.5852  -10.8902  -18.2921 N   0  0  0  0  0  0  0  0  0  0  0  0
   19.8587   -9.9243  -16.0795 C   0  0  0  0  0  0  0  0  0  0  0  0
   19.3955   -9.4816  -14.9973 O   0  0  0  0  0  0  0  0  0  0  0  0
   23.6373  -10.7463  -14.8969 O   0  0  0  0  0  0  0  0  0  0  0  0
   23.5203   -9.5007  -15.5112 C   0  0  0  0  0  0  0  0  0  0  0  0
   22.0866   -9.0328  -15.3996 C   0  0  2  0  0  0  0  0  0  0  0  0
   21.2374   -9.7407  -16.3314 N   0  0  0  0  0  0  0  0  0  0  0  0
   22.0923   -7.5631  -15.6278 C   0  0  0  0  0  0  0  0  0  0  0  0
   21.8990   -7.1825  -16.8083 O   0  0  0  0  0  0  0  0  0  0  0  0
   17.9726   -1.8615  -16.4043 C   0  0  0  0  0  0  0  0  0  0  0  0
   18.4076   -3.6029  -16.0894 S   0  0  0  0  0  0  0  0  0  0  0  0
   20.1322   -3.6607  -15.5646 C   0  0  0  0  0  0  0  0  0  0  0  0
   20.6901   -5.0049  -15.3702 C   0  0  0  0  0  0  0  0  0  0  0  0
   22.0826   -5.1795  -14.8896 C   0  0  2  0  0  0  0  0  0  0  0  0
   22.2981   -6.6218  -14.6093 N   0  0  0  0  0  0  0  0  0  0  0  0
   22.5488   -4.3741  -13.7773 C   0  0  0  0  0  0  0  0  0  0  0  0
   22.8188   -4.8639  -12.6304 O   0  0  0  0  0  0  0  0  0  0  0  0
   22.7402   -3.0135  -13.8855 O   0  0  0  0  0  0  0  0  0  0  0  0
  2  1  1  6
  2  3  1  0
  4  2  1  0
  4  5  1  6
  6  4  1  0
  6 11  1  0
  7  6  2  0
  8  9  1  0
 10 11  1  0
 10  9  1  6
 10 12  1  0
 12 19  1  0
 13 12  2  0
 15 14  1  0
 16 15  1  0
 17 16  1  0
 18 17  1  1
 19 18  1  0
 20 22  1  0
 20 18  1  0
 21 20  2  0
M  END
$$$$
