VSM.pdb
     RDKit          3D

 22 21  0  0  1  0  0  0  0  0999 V2000
   13.6434   -6.8984   -9.8703 C   0  0  0  0  0  0  0  0  0  0  0  0
   14.6614   -7.4070   -8.9032 C   0  0  2  0  0  0  0  0  0  0  0  0
   14.3135   -7.0426   -7.4792 C   0  0  0  0  0  0  0  0  0  0  0  0
   16.0724   -7.0440   -9.2767 C   0  0  2  0  0  0  0  0  0  0  0  0
   16.3210   -5.6543   -9.0080 N   0  0  0  0  0  0  0  0  0  0  0  0
   16.4130   -7.4179  -10.6766 C   0  0  0  0  0  0  0  0  0  0  0  0
   16.3738   -8.6279  -11.0174 O   0  0  0  0  0  0  0  0  0  0  0  0
   15.2124   -6.3993  -14.2562 O   0  0  0  0  0  0  0  0  0  0  0  0
   16.5183   -5.9693  -14.0271 C   0  0  0  0  0  0  0  0  0  0  0  0
   17.1560   -6.8706  -12.9937 C   0  0  2  0  0  0  0  0  0  0  0  0
   16.7834   -6.4682  -11.6559 N   0  0  0  0  0  0  0  0  0  0  0  0
   18.6248   -6.8193  -13.2225 C   0  0  0  0  0  0  0  0  0  0  0  0
   19.2383   -5.8640  -12.6869 O   0  0  0  0  0  0  0  0  0  0  0  0
   21.8812  -11.9228  -15.1430 C   0  0  0  0  0  0  0  0  0  0  0  0
   23.3211  -10.9499  -14.5948 S   0  0  0  0  0  0  0  0  0  0  0  0
   22.7971   -9.2340  -14.4101 C   0  0  0  0  0  0  0  0  0  0  0  0
   21.3515   -9.0262  -14.2579 C   0  0  0  0  0  0  0  0  0  0  0  0
   20.7988   -7.6571  -14.1159 C   0  0  2  0  0  0  0  0  0  0  0  0
   19.3234   -7.7647  -13.9866 N   0  0  0  0  0  0  0  0  0  0  0  0
   21.1470   -6.6523  -15.1021 C   0  0  0  0  0  0  0  0  0  0  0  0
   20.5234   -6.5187  -16.2073 O   0  0  0  0  0  0  0  0  0  0  0  0
   22.1801   -5.7609  -14.9087 O   0  0  0  0  0  0  0  0  0  0  0  0
  2  1  1  6
  2  3  1  0
  4  2  1  0
  4  5  1  6
  6  4  1  0
  6 11  1  0
  7  6  2  0
  8  9  1  0
 10 11  1  0
 10  9  1  6
 10 12  1  0
 12 19  1  0
 13 12  2  0
 15 14  1  0
 16 15  1  0
 17 16  1  0
 18 17  1  6
 19 18  1  0
 20 22  1  0
 20 18  1  0
 21 20  2  0
M  END
$$$$
