VSM.pdb
     RDKit          3D

 22 21  0  0  1  0  0  0  0  0999 V2000
   12.9862   -7.3140   -9.9202 C   0  0  0  0  0  0  0  0  0  0  0  0
   13.8029   -8.4014   -9.3031 C   0  0  2  0  0  0  0  0  0  0  0  0
   13.2838   -8.7869   -7.9380 C   0  0  0  0  0  0  0  0  0  0  0  0
   15.2798   -8.1170   -9.3135 C   0  0  2  0  0  0  0  0  0  0  0  0
   15.5969   -7.0747   -8.3762 N   0  0  0  0  0  0  0  0  0  0  0  0
   15.8021   -7.8279  -10.6770 C   0  0  0  0  0  0  0  0  0  0  0  0
   15.7351   -8.7179  -11.5632 O   0  0  0  0  0  0  0  0  0  0  0  0
   16.8372   -4.0691  -11.8268 O   0  0  0  0  0  0  0  0  0  0  0  0
   16.6598   -4.9936  -12.8546 C   0  0  0  0  0  0  0  0  0  0  0  0
   16.9773   -6.3758  -12.3296 C   0  0  2  0  0  0  0  0  0  0  0  0
   16.3776   -6.5863  -11.0309 N   0  0  0  0  0  0  0  0  0  0  0  0
   18.4593   -6.4998  -12.3064 C   0  0  0  0  0  0  0  0  0  0  0  0
   19.0070   -6.4179  -11.1799 O   0  0  0  0  0  0  0  0  0  0  0  0
   24.4213  -10.8502  -14.1774 C   0  0  0  0  0  0  0  0  0  0  0  0
   22.6558  -10.4388  -14.3625 S   0  0  0  0  0  0  0  0  0  0  0  0
   22.4178   -8.7399  -13.8056 C   0  0  0  0  0  0  0  0  0  0  0  0
   21.0267   -8.2703  -13.7816 C   0  0  0  0  0  0  0  0  0  0  0  0
   20.7036   -6.8976  -13.3219 C   0  0  2  0  0  0  0  0  0  0  0  0
   19.2382   -6.6977  -13.4553 N   0  0  0  0  0  0  0  0  0  0  0  0
   21.4204   -5.7761  -13.8980 C   0  0  0  0  0  0  0  0  0  0  0  0
   22.5788   -5.4154  -13.5027 O   0  0  0  0  0  0  0  0  0  0  0  0
   20.8977   -5.0203  -14.9252 O   0  0  0  0  0  0  0  0  0  0  0  0
  2  1  1  1
  2  3  1  0
  4  2  1  0
  4  5  1  1
  6  4  1  0
  6 11  1  0
  7  6  2  0
  8  9  1  0
 10 11  1  0
 10  9  1  1
 10 12  1  0
 12 19  1  0
 13 12  2  0
 15 14  1  0
 16 15  1  0
 17 16  1  0
 18 17  1  6
 19 18  1  0
 20 22  1  0
 20 18  1  0
 21 20  2  0
M  END
$$$$
