GAM.pdb
     RDKit          3D

 18 17  0  0  1  0  0  0  0  0999 V2000
    6.5421  -18.8009   19.8425 N   0  0  0  0  0  0  0  0  0  0  0  0
    6.0776  -17.4968   20.1923 C   0  0  0  0  0  0  0  0  0  0  0  0
    7.1333  -16.4791   20.2400 C   0  0  0  0  0  0  0  0  0  0  0  0
    8.3202  -16.8988   20.4508 O   0  0  0  0  0  0  0  0  0  0  0  0
    7.6107  -12.8217   19.5839 C   0  0  0  0  0  0  0  0  0  0  0  0
    8.0489  -14.1657   20.1168 C   0  0  2  0  0  0  0  0  0  0  0  0
    6.9419  -15.0883   20.0728 N   0  0  0  0  0  0  0  0  0  0  0  0
    8.5471  -14.0743   21.5144 C   0  0  0  0  0  0  0  0  0  0  0  0
    9.5982  -13.4178   21.7801 O   0  0  0  0  0  0  0  0  0  0  0  0
    6.6132  -10.7252   27.2241 C   0  0  0  0  0  0  0  0  0  0  0  0
    6.1212  -12.4323   26.9248 S   0  0  0  0  0  0  0  0  0  0  0  0
    7.4659  -13.3660   26.1146 C   0  0  0  0  0  0  0  0  0  0  0  0
    7.1123  -13.6981   24.6924 C   0  0  0  0  0  0  0  0  0  0  0  0
    8.2434  -14.3816   24.0184 C   0  0  2  0  0  0  0  0  0  0  0  0
    7.9058  -14.6928   22.6127 N   0  0  0  0  0  0  0  0  0  0  0  0
    8.7587  -15.5707   24.6950 C   0  0  0  0  0  0  0  0  0  0  0  0
    9.0368  -15.6938   25.9055 O   0  0  0  0  0  0  0  0  0  0  0  0
    8.9822  -16.7368   23.9280 O   0  0  0  0  0  0  0  0  0  0  0  0
  2  1  1  0
  3  2  1  0
  4  3  2  0
  6  5  1  1
  6  7  1  0
  7  3  1  0
  8  6  1  0
  8  9  2  0
 11 10  1  0
 12 13  1  0
 12 11  1  0
 14 13  1  1
 14 15  1  0
 15  8  1  0
 16 14  1  0
 16 18  1  0
 17 16  2  0
M  END
$$$$
