GAM.pdb
     RDKit          3D

 18 17  0  0  1  0  0  0  0  0999 V2000
    6.1414  -19.2498   21.2040 N   0  0  0  0  0  0  0  0  0  0  0  0
    5.7636  -17.8754   21.2893 C   0  0  0  0  0  0  0  0  0  0  0  0
    6.8811  -16.9376   21.1340 C   0  0  0  0  0  0  0  0  0  0  0  0
    8.0545  -17.4227   21.2650 O   0  0  0  0  0  0  0  0  0  0  0  0
    7.5367  -13.4090   20.0729 C   0  0  0  0  0  0  0  0  0  0  0  0
    7.9229  -14.7101   20.7367 C   0  0  2  0  0  0  0  0  0  0  0  0
    6.7620  -15.5568   20.8544 N   0  0  0  0  0  0  0  0  0  0  0  0
    8.5032  -14.4942   22.0881 C   0  0  0  0  0  0  0  0  0  0  0  0
    9.6772  -14.0342   22.2172 O   0  0  0  0  0  0  0  0  0  0  0  0
    6.2423  -10.8378   26.5725 C   0  0  0  0  0  0  0  0  0  0  0  0
    6.8288  -12.1545   27.6535 S   0  0  0  0  0  0  0  0  0  0  0  0
    7.9366  -13.2933   26.7522 C   0  0  0  0  0  0  0  0  0  0  0  0
    7.3971  -13.6021   25.3842 C   0  0  0  0  0  0  0  0  0  0  0  0
    8.3516  -14.4461   24.6241 C   0  0  2  0  0  0  0  0  0  0  0  0
    7.8105  -14.7769   23.2883 N   0  0  0  0  0  0  0  0  0  0  0  0
    8.8072  -15.6570   25.3048 C   0  0  0  0  0  0  0  0  0  0  0  0
    8.5186  -16.8387   25.0250 O   0  0  0  0  0  0  0  0  0  0  0  0
    9.6754  -15.5196   26.4118 O   0  0  0  0  0  0  0  0  0  0  0  0
  2  1  1  0
  3  2  1  0
  4  3  2  0
  6  5  1  1
  6  7  1  0
  7  3  1  0
  8  6  1  0
  8  9  2  0
 11 10  1  0
 12 13  1  0
 12 11  1  0
 14 13  1  1
 14 15  1  0
 15  8  1  0
 16 14  1  0
 16 18  1  0
 17 16  2  0
M  END
$$$$
