GAM.pdb
     RDKit          3D

 18 17  0  0  1  0  0  0  0  0999 V2000
    7.7433  -12.1845   18.7892 N   0  0  0  0  0  0  0  0  0  0  0  0
    8.6608  -13.2553   19.0134 C   0  0  0  0  0  0  0  0  0  0  0  0
    8.2457  -14.1875   20.0675 C   0  0  0  0  0  0  0  0  0  0  0  0
    7.2429  -13.8373   20.7753 O   0  0  0  0  0  0  0  0  0  0  0  0
    8.7937  -17.7214   21.1023 C   0  0  0  0  0  0  0  0  0  0  0  0
    8.3401  -16.3062   21.3741 C   0  0  2  0  0  0  0  0  0  0  0  0
    8.8609  -15.4271   20.3570 N   0  0  0  0  0  0  0  0  0  0  0  0
    8.7898  -15.8243   22.7065 C   0  0  0  0  0  0  0  0  0  0  0  0
    9.9348  -15.2993   22.8470 O   0  0  0  0  0  0  0  0  0  0  0  0
    6.4469  -10.6349   26.6770 C   0  0  0  0  0  0  0  0  0  0  0  0
    6.2437  -12.4217   26.7861 S   0  0  0  0  0  0  0  0  0  0  0  0
    7.5407  -13.2850   25.8325 C   0  0  0  0  0  0  0  0  0  0  0  0
    7.3917  -14.7760   25.9447 C   0  0  0  0  0  0  0  0  0  0  0  0
    8.4747  -15.4668   25.2024 C   0  0  2  0  0  0  0  0  0  0  0  0
    7.9988  -15.9136   23.8755 N   0  0  0  0  0  0  0  0  0  0  0  0
    9.1238  -16.5692   25.9099 C   0  0  0  0  0  0  0  0  0  0  0  0
    8.8908  -17.7895   25.7897 O   0  0  0  0  0  0  0  0  0  0  0  0
   10.1373  -16.2628   26.8465 O   0  0  0  0  0  0  0  0  0  0  0  0
  2  1  1  0
  3  2  1  0
  4  3  2  0
  6  5  1  6
  6  7  1  0
  7  3  1  0
  8  6  1  0
  8  9  2  0
 11 10  1  0
 12 13  1  0
 12 11  1  0
 14 13  1  1
 14 15  1  0
 15  8  1  0
 16 14  1  0
 16 18  1  0
 17 16  2  0
M  END
$$$$
