GAM.pdb
     RDKit          3D

 18 17  0  0  1  0  0  0  0  0999 V2000
    7.8197  -12.2015   18.6192 N   0  0  0  0  0  0  0  0  0  0  0  0
    8.7041  -13.2714   18.9537 C   0  0  0  0  0  0  0  0  0  0  0  0
    8.1884  -14.1709   19.9916 C   0  0  0  0  0  0  0  0  0  0  0  0
    7.1458  -13.7815   20.6165 O   0  0  0  0  0  0  0  0  0  0  0  0
    8.3989  -17.6925   21.0794 C   0  0  0  0  0  0  0  0  0  0  0  0
    8.1708  -16.2318   21.3908 C   0  0  2  0  0  0  0  0  0  0  0  0
    8.7482  -15.4190   20.3494 N   0  0  0  0  0  0  0  0  0  0  0  0
    8.7668  -15.8416   22.6954 C   0  0  0  0  0  0  0  0  0  0  0  0
    9.9947  -15.5377   22.7756 O   0  0  0  0  0  0  0  0  0  0  0  0
    6.1625  -10.5981   26.2368 C   0  0  0  0  0  0  0  0  0  0  0  0
    6.2115  -12.3588   26.6159 S   0  0  0  0  0  0  0  0  0  0  0  0
    7.5190  -13.1968   25.6543 C   0  0  0  0  0  0  0  0  0  0  0  0
    7.6106  -14.6513   26.0202 C   0  0  0  0  0  0  0  0  0  0  0  0
    8.6238  -15.3383   25.1820 C   0  0  2  0  0  0  0  0  0  0  0  0
    8.0315  -15.7830   23.9021 N   0  0  0  0  0  0  0  0  0  0  0  0
    9.3358  -16.4410   25.8257 C   0  0  0  0  0  0  0  0  0  0  0  0
    9.1354  -17.6638   25.6754 O   0  0  0  0  0  0  0  0  0  0  0  0
   10.3781  -16.1318   26.7291 O   0  0  0  0  0  0  0  0  0  0  0  0
  2  1  1  0
  3  2  1  0
  4  3  2  0
  6  5  1  6
  6  7  1  0
  7  3  1  0
  8  6  1  0
  8  9  2  0
 11 10  1  0
 12 13  1  0
 12 11  1  0
 14 13  1  1
 14 15  1  0
 15  8  1  0
 16 14  1  0
 16 18  1  0
 17 16  2  0
M  END
$$$$
