GAM.pdb
     RDKit          3D

 18 17  0  0  1  0  0  0  0  0999 V2000
    7.7611  -12.1442   18.8609 N   0  0  0  0  0  0  0  0  0  0  0  0
    8.8284  -12.9884   19.2933 C   0  0  0  0  0  0  0  0  0  0  0  0
    8.4361  -13.9786   20.3022 C   0  0  0  0  0  0  0  0  0  0  0  0
    7.3835  -13.7193   20.9760 O   0  0  0  0  0  0  0  0  0  0  0  0
    9.0993  -17.5117   21.2117 C   0  0  0  0  0  0  0  0  0  0  0  0
    8.6308  -16.1187   21.5621 C   0  0  2  0  0  0  0  0  0  0  0  0
    9.1234  -15.1818   20.5833 N   0  0  0  0  0  0  0  0  0  0  0  0
    9.0949  -15.6985   22.9103 C   0  0  0  0  0  0  0  0  0  0  0  0
   10.2453  -15.1892   23.0639 O   0  0  0  0  0  0  0  0  0  0  0  0
    6.2442  -10.8453   26.2719 C   0  0  0  0  0  0  0  0  0  0  0  0
    6.3830  -12.5694   26.7763 S   0  0  0  0  0  0  0  0  0  0  0  0
    7.6430  -13.4405   25.7814 C   0  0  0  0  0  0  0  0  0  0  0  0
    7.8283  -14.8526   26.2604 C   0  0  0  0  0  0  0  0  0  0  0  0
    8.8401  -15.5563   25.4345 C   0  0  2  0  0  0  0  0  0  0  0  0
    8.3125  -15.8321   24.0809 N   0  0  0  0  0  0  0  0  0  0  0  0
    9.4020  -16.7718   26.0210 C   0  0  0  0  0  0  0  0  0  0  0  0
    9.2102  -17.9495   25.6548 O   0  0  0  0  0  0  0  0  0  0  0  0
   10.2668  -16.6444   27.1320 O   0  0  0  0  0  0  0  0  0  0  0  0
  2  1  1  0
  3  2  1  0
  4  3  2  0
  6  5  1  6
  6  7  1  0
  7  3  1  0
  8  6  1  0
  8  9  2  0
 11 10  1  0
 12 13  1  0
 12 11  1  0
 14 13  1  1
 14 15  1  0
 15  8  1  0
 16 14  1  0
 16 18  1  0
 17 16  2  0
M  END
$$$$
