GAM.pdb
     RDKit          3D

 18 17  0  0  1  0  0  0  0  0999 V2000
    6.4682  -19.6118   20.7780 N   0  0  0  0  0  0  0  0  0  0  0  0
    6.1216  -18.4583   21.5448 C   0  0  0  0  0  0  0  0  0  0  0  0
    7.0398  -17.3272   21.3713 C   0  0  0  0  0  0  0  0  0  0  0  0
    8.2867  -17.6001   21.3731 O   0  0  0  0  0  0  0  0  0  0  0  0
    6.9335  -13.6324   20.7016 C   0  0  0  0  0  0  0  0  0  0  0  0
    7.6349  -14.9373   20.9979 C   0  0  2  0  0  0  0  0  0  0  0  0
    6.6571  -15.9764   21.2045 N   0  0  0  0  0  0  0  0  0  0  0  0
    8.5014  -14.8422   22.2020 C   0  0  0  0  0  0  0  0  0  0  0  0
    9.5329  -14.1057   22.1946 O   0  0  0  0  0  0  0  0  0  0  0  0
    6.9320  -10.7864   27.6582 C   0  0  0  0  0  0  0  0  0  0  0  0
    6.3334  -12.3641   27.0270 S   0  0  0  0  0  0  0  0  0  0  0  0
    7.7212  -13.4108   26.4658 C   0  0  0  0  0  0  0  0  0  0  0  0
    7.3934  -14.0923   25.1674 C   0  0  0  0  0  0  0  0  0  0  0  0
    8.5117  -14.9684   24.7398 C   0  0  2  0  0  0  0  0  0  0  0  0
    8.2463  -15.5432   23.4035 N   0  0  0  0  0  0  0  0  0  0  0  0
    8.8882  -16.0203   25.6826 C   0  0  0  0  0  0  0  0  0  0  0  0
    8.7257  -17.2508   25.5508 O   0  0  0  0  0  0  0  0  0  0  0  0
    9.5102  -15.6450   26.8952 O   0  0  0  0  0  0  0  0  0  0  0  0
  2  1  1  0
  3  2  1  0
  4  3  2  0
  6  5  1  1
  6  7  1  0
  7  3  1  0
  8  6  1  0
  8  9  2  0
 11 10  1  0
 12 13  1  0
 12 11  1  0
 14 13  1  1
 14 15  1  0
 15  8  1  0
 16 14  1  0
 16 18  1  0
 17 16  2  0
M  END
$$$$
