GAM.pdb
     RDKit          3D

 18 17  0  0  1  0  0  0  0  0999 V2000
    6.7431  -19.0277   19.8846 N   0  0  0  0  0  0  0  0  0  0  0  0
    6.4252  -17.9668   20.7858 C   0  0  0  0  0  0  0  0  0  0  0  0
    7.2458  -16.7640   20.6063 C   0  0  0  0  0  0  0  0  0  0  0  0
    8.4411  -16.9455   20.1970 O   0  0  0  0  0  0  0  0  0  0  0  0
    6.8837  -13.0374   20.5976 C   0  0  0  0  0  0  0  0  0  0  0  0
    7.6926  -14.3134   20.6060 C   0  0  2  0  0  0  0  0  0  0  0  0
    6.8222  -15.4369   20.8478 N   0  0  0  0  0  0  0  0  0  0  0  0
    8.7547  -14.2918   21.6459 C   0  0  0  0  0  0  0  0  0  0  0  0
    9.6757  -13.4220   21.6055 O   0  0  0  0  0  0  0  0  0  0  0  0
    6.5537  -11.5602   27.5816 C   0  0  0  0  0  0  0  0  0  0  0  0
    7.0950  -12.0232   25.9267 S   0  0  0  0  0  0  0  0  0  0  0  0
    6.8963  -13.8184   25.6541 C   0  0  0  0  0  0  0  0  0  0  0  0
    7.1938  -14.1844   24.2274 C   0  0  0  0  0  0  0  0  0  0  0  0
    8.5269  -14.8266   24.1195 C   0  0  2  0  0  0  0  0  0  0  0  0
    8.8127  -15.2098   22.7202 N   0  0  0  0  0  0  0  0  0  0  0  0
    8.7596  -15.9573   25.0164 C   0  0  0  0  0  0  0  0  0  0  0  0
    8.1156  -17.0249   25.0738 O   0  0  0  0  0  0  0  0  0  0  0  0
    9.8259  -15.8739   25.9406 O   0  0  0  0  0  0  0  0  0  0  0  0
  2  1  1  0
  3  2  1  0
  4  3  2  0
  6  5  1  1
  6  7  1  0
  7  3  1  0
  8  6  1  0
  8  9  2  0
 11 10  1  0
 12 13  1  0
 12 11  1  0
 14 13  1  6
 14 15  1  0
 15  8  1  0
 16 14  1  0
 16 18  1  0
 17 16  2  0
M  END
$$$$
