GAM.pdb
     RDKit          3D

 18 17  0  0  1  0  0  0  0  0999 V2000
    7.1284  -13.1045   18.3108 N   0  0  0  0  0  0  0  0  0  0  0  0
    8.3698  -13.2403   19.0030 C   0  0  0  0  0  0  0  0  0  0  0  0
    8.3683  -14.2841   20.0339 C   0  0  0  0  0  0  0  0  0  0  0  0
    7.3172  -14.3737   20.7526 O   0  0  0  0  0  0  0  0  0  0  0  0
   10.4064  -17.2349   21.1079 C   0  0  0  0  0  0  0  0  0  0  0  0
    9.3135  -16.2097   21.3004 C   0  0  2  0  0  0  0  0  0  0  0  0
    9.4256  -15.1870   20.2905 N   0  0  0  0  0  0  0  0  0  0  0  0
    9.3778  -15.5735   22.6424 C   0  0  0  0  0  0  0  0  0  0  0  0
   10.2263  -14.6629   22.8816 O   0  0  0  0  0  0  0  0  0  0  0  0
    6.6173  -11.2121   27.8606 C   0  0  0  0  0  0  0  0  0  0  0  0
    6.5592  -12.1071   26.2980 S   0  0  0  0  0  0  0  0  0  0  0  0
    7.1129  -13.8342   26.5148 C   0  0  0  0  0  0  0  0  0  0  0  0
    7.1594  -14.5560   25.1978 C   0  0  0  0  0  0  0  0  0  0  0  0
    8.4893  -15.1800   24.9902 C   0  0  2  0  0  0  0  0  0  0  0  0
    8.5252  -15.9264   23.7141 N   0  0  0  0  0  0  0  0  0  0  0  0
    8.9735  -16.0181   26.0858 C   0  0  0  0  0  0  0  0  0  0  0  0
    9.1641  -15.6803   27.2721 O   0  0  0  0  0  0  0  0  0  0  0  0
    9.2722  -17.3729   25.8144 O   0  0  0  0  0  0  0  0  0  0  0  0
  2  1  1  0
  3  2  1  0
  4  3  2  0
  6  5  1  1
  6  7  1  0
  7  3  1  0
  8  6  1  0
  8  9  2  0
 11 10  1  0
 12 13  1  0
 12 11  1  0
 14 13  1  1
 14 15  1  0
 15  8  1  0
 16 14  1  0
 16 18  1  0
 17 16  2  0
M  END
$$$$
