GAM.pdb
     RDKit          3D

 18 17  0  0  1  0  0  0  0  0999 V2000
    5.2689  -19.5202   21.4708 N   0  0  0  0  0  0  0  0  0  0  0  0
    5.5702  -18.4401   22.3547 C   0  0  0  0  0  0  0  0  0  0  0  0
    6.6153  -17.5369   21.8604 C   0  0  0  0  0  0  0  0  0  0  0  0
    7.8150  -17.9692   21.9157 O   0  0  0  0  0  0  0  0  0  0  0  0
    6.9991  -14.2320   20.1406 C   0  0  0  0  0  0  0  0  0  0  0  0
    7.5024  -15.3810   20.9827 C   0  0  2  0  0  0  0  0  0  0  0  0
    6.4009  -16.2421   21.3345 N   0  0  0  0  0  0  0  0  0  0  0  0
    8.1648  -14.9100   22.2272 C   0  0  0  0  0  0  0  0  0  0  0  0
    9.2619  -14.2778   22.1714 O   0  0  0  0  0  0  0  0  0  0  0  0
    6.6652  -10.3749   26.9879 C   0  0  0  0  0  0  0  0  0  0  0  0
    6.6394  -12.0727   27.5904 S   0  0  0  0  0  0  0  0  0  0  0  0
    7.8535  -13.1014   26.6937 C   0  0  0  0  0  0  0  0  0  0  0  0
    7.2244  -13.7632   25.5004 C   0  0  0  0  0  0  0  0  0  0  0  0
    8.2344  -14.5397   24.7402 C   0  0  2  0  0  0  0  0  0  0  0  0
    7.6367  -15.1261   23.5213 N   0  0  0  0  0  0  0  0  0  0  0  0
    8.9506  -15.5625   25.5005 C   0  0  0  0  0  0  0  0  0  0  0  0
    8.8801  -16.8007   25.3598 O   0  0  0  0  0  0  0  0  0  0  0  0
    9.8346  -15.1451   26.5216 O   0  0  0  0  0  0  0  0  0  0  0  0
  2  1  1  0
  3  2  1  0
  4  3  2  0
  6  5  1  1
  6  7  1  0
  7  3  1  0
  8  6  1  0
  8  9  2  0
 11 10  1  0
 12 13  1  0
 12 11  1  0
 14 13  1  1
 14 15  1  0
 15  8  1  0
 16 14  1  0
 16 18  1  0
 17 16  2  0
M  END
$$$$
