WAY.pdb
     RDKit          3D

 32 34  0  0  1  0  0  0  0  0999 V2000
   27.5009  -21.5075  -15.7350 N   0  0  0  0  0  0  0  0  0  0  0  0
   26.7138  -21.8775  -14.5749 C   0  0  1  0  0  0  0  0  0  0  0  0
   26.3239  -20.6704  -13.7530 C   0  0  0  0  0  0  0  0  0  0  0  0
   27.4961  -20.0969  -13.0470 C   0  0  0  0  0  0  0  0  0  0  0  0
   28.0065  -18.8282  -13.2137 C   0  0  0  0  0  0  0  0  0  0  0  0
   29.0800  -18.6629  -12.3966 N   0  0  0  0  0  0  0  0  0  0  0  0
   29.2737  -19.8112  -11.6996 C   0  0  0  0  0  0  0  0  0  0  0  0
   30.2330  -20.1374  -10.7490 C   0  0  0  0  0  0  0  0  0  0  0  0
   30.1841  -21.3995  -10.2015 C   0  0  0  0  0  0  0  0  0  0  0  0
   29.2263  -22.3230  -10.5685 C   0  0  0  0  0  0  0  0  0  0  0  0
   28.2934  -21.9439  -11.5219 C   0  0  0  0  0  0  0  0  0  0  0  0
   28.3005  -20.6914  -12.0996 C   0  0  0  0  0  0  0  0  0  0  0  0
   25.4557  -22.4961  -15.0600 C   0  0  0  0  0  0  0  0  0  0  0  0
   24.9719  -22.0741  -16.1378 O   0  0  0  0  0  0  0  0  0  0  0  0
   23.2549  -25.3644  -14.4224 C   0  0  0  0  0  0  0  0  0  0  0  0
   23.4514  -23.9060  -14.7850 C   0  0  2  0  0  0  0  0  0  0  0  0
   24.7796  -23.5268  -14.3774 N   0  0  0  0  0  0  0  0  0  0  0  0
   22.4364  -23.0454  -14.1010 C   0  0  0  0  0  0  0  0  0  0  0  0
   21.8328  -23.4784  -13.0808 O   0  0  0  0  0  0  0  0  0  0  0  0
   25.7234  -21.0578   -9.3246 O   0  0  0  0  0  0  0  0  0  0  0  0
   24.8054  -20.7064  -10.3288 C   0  0  0  0  0  0  0  0  0  0  0  0
   23.4681  -20.5745  -10.0197 C   0  0  0  0  0  0  0  0  0  0  0  0
   22.5599  -20.2239  -11.0271 C   0  0  0  0  0  0  0  0  0  0  0  0
   22.9889  -20.0123  -12.3103 C   0  0  0  0  0  0  0  0  0  0  0  0
   22.0362  -19.6471  -13.3563 C   0  0  0  0  0  0  0  0  0  0  0  0
   21.2511  -20.8867  -13.7684 C   0  0  2  0  0  0  0  0  0  0  0  0
   22.1332  -21.7538  -14.5682 N   0  0  0  0  0  0  0  0  0  0  0  0
   20.0285  -20.5932  -14.5239 C   0  0  0  0  0  0  0  0  0  0  0  0
   19.9524  -20.7461  -15.7611 O   0  0  0  0  0  0  0  0  0  0  0  0
   24.3203  -20.1461  -12.6060 C   0  0  0  0  0  0  0  0  0  0  0  0
   25.2563  -20.4948  -11.6269 C   0  0  0  0  0  0  0  0  0  0  0  0
   18.9027  -20.1279  -13.8613 O   0  0  0  0  0  0  0  0  0  0  0  0
  2  1  1  6
  2 13  1  0
  2  3  1  0
  4  5  2  0
  4  3  1  0
  6  5  1  0
  7 12  2  0
  7  6  1  0
  8  7  1  0
  9 10  1  0
  9  8  2  0
 10 11  2  0
 11 12  1  0
 12  4  1  0
 13 14  2  0
 16 15  1  1
 17 16  1  0
 17 13  1  0
 18 16  1  0
 19 18  2  0
 20 21  1  0
 21 22  2  0
 21 31  1  0
 22 23  1  0
 23 24  2  0
 24 25  1  0
 26 25  1  6
 26 27  1  0
 26 28  1  0
 27 18  1  0
 28 32  1  0
 29 28  2  0
 30 24  1  0
 31 30  2  0
M  END
$$$$
