WAY.pdb
     RDKit          3D

 32 34  0  0  1  0  0  0  0  0999 V2000
   26.1985  -22.2499  -10.3454 N   0  0  0  0  0  0  0  0  0  0  0  0
   26.1420  -20.8099  -10.5054 C   0  0  1  0  0  0  0  0  0  0  0  0
   27.1288  -20.1058   -9.6024 C   0  0  0  0  0  0  0  0  0  0  0  0
   26.7638  -20.2683   -8.1736 C   0  0  0  0  0  0  0  0  0  0  0  0
   25.5323  -20.6467   -7.6857 C   0  0  0  0  0  0  0  0  0  0  0  0
   25.5785  -20.6886   -6.3279 N   0  0  0  0  0  0  0  0  0  0  0  0
   26.8277  -20.3413   -5.9269 C   0  0  0  0  0  0  0  0  0  0  0  0
   27.3679  -20.2357   -4.6512 C   0  0  0  0  0  0  0  0  0  0  0  0
   28.6868  -19.8555   -4.5472 C   0  0  0  0  0  0  0  0  0  0  0  0
   29.4630  -19.5843   -5.6559 C   0  0  0  0  0  0  0  0  0  0  0  0
   28.8724  -19.7057   -6.9047 C   0  0  0  0  0  0  0  0  0  0  0  0
   27.5550  -20.0833   -7.0610 C   0  0  0  0  0  0  0  0  0  0  0  0
   26.5306  -20.4938  -11.9017 C   0  0  0  0  0  0  0  0  0  0  0  0
   26.7253  -19.2906  -12.1986 O   0  0  0  0  0  0  0  0  0  0  0  0
   27.6309  -21.7875  -15.0786 C   0  0  0  0  0  0  0  0  0  0  0  0
   26.5305  -21.1057  -14.2905 C   0  0  2  0  0  0  0  0  0  0  0  0
   26.6916  -21.4688  -12.9063 N   0  0  0  0  0  0  0  0  0  0  0  0
   25.1822  -21.5299  -14.7815 C   0  0  0  0  0  0  0  0  0  0  0  0
   24.6131  -22.5307  -14.2645 O   0  0  0  0  0  0  0  0  0  0  0  0
   20.4297  -22.5235  -10.3184 O   0  0  0  0  0  0  0  0  0  0  0  0
   21.0697  -21.7914  -11.3328 C   0  0  0  0  0  0  0  0  0  0  0  0
   20.7760  -22.0505  -12.6550 C   0  0  0  0  0  0  0  0  0  0  0  0
   21.4188  -21.3158  -13.6598 C   0  0  0  0  0  0  0  0  0  0  0  0
   22.3322  -20.3469  -13.3397 C   0  0  0  0  0  0  0  0  0  0  0  0
   22.9991  -19.5844  -14.3927 C   0  0  0  0  0  0  0  0  0  0  0  0
   23.1132  -20.4536  -15.6395 C   0  0  2  0  0  0  0  0  0  0  0  0
   24.5245  -20.8371  -15.8140 N   0  0  0  0  0  0  0  0  0  0  0  0
   22.6209  -19.8090  -16.8617 C   0  0  0  0  0  0  0  0  0  0  0  0
   23.2132  -18.8493  -17.3982 O   0  0  0  0  0  0  0  0  0  0  0  0
   22.6161  -20.0979  -12.0223 C   0  0  0  0  0  0  0  0  0  0  0  0
   21.9945  -20.8109  -10.9920 C   0  0  0  0  0  0  0  0  0  0  0  0
   21.4569  -20.2650  -17.4617 O   0  0  0  0  0  0  0  0  0  0  0  0
  2  1  1  6
  2 13  1  0
  2  3  1  0
  4  5  2  0
  4  3  1  0
  6  5  1  0
  7 12  2  0
  7  6  1  0
  8  7  1  0
  9 10  1  0
  9  8  2  0
 10 11  2  0
 11 12  1  0
 12  4  1  0
 13 14  2  0
 16 15  1  6
 17 16  1  0
 17 13  1  0
 18 16  1  0
 19 18  2  0
 20 21  1  0
 21 22  2  0
 21 31  1  0
 22 23  1  0
 23 24  2  0
 24 25  1  0
 26 25  1  1
 26 27  1  0
 26 28  1  0
 27 18  1  0
 28 32  1  0
 29 28  2  0
 30 24  1  0
 31 30  2  0
M  END
$$$$
