WAY.pdb
     RDKit          3D

 32 34  0  0  1  0  0  0  0  0999 V2000
   16.4103  -14.7905    8.6679 N   0  0  0  0  0  0  0  0  0  0  0  0
   16.9016  -15.5208    7.5157 C   0  0  1  0  0  0  0  0  0  0  0  0
   18.3868  -15.3222    7.3169 C   0  0  0  0  0  0  0  0  0  0  0  0
   18.6606  -14.3593    6.2219 C   0  0  0  0  0  0  0  0  0  0  0  0
   18.9506  -13.0206    6.3682 C   0  0  0  0  0  0  0  0  0  0  0  0
   19.1432  -12.4641    5.1431 N   0  0  0  0  0  0  0  0  0  0  0  0
   18.9815  -13.4272    4.2007 C   0  0  0  0  0  0  0  0  0  0  0  0
   19.0741  -13.3576    2.8161 C   0  0  0  0  0  0  0  0  0  0  0  0
   18.8556  -14.5153    2.1040 C   0  0  0  0  0  0  0  0  0  0  0  0
   18.5542  -15.7122    2.7218 C   0  0  0  0  0  0  0  0  0  0  0  0
   18.4745  -15.7239    4.1061 C   0  0  0  0  0  0  0  0  0  0  0  0
   18.6850  -14.5908    4.8639 C   0  0  0  0  0  0  0  0  0  0  0  0
   16.6883  -16.9665    7.7713 C   0  0  0  0  0  0  0  0  0  0  0  0
   17.2370  -17.4712    8.7803 O   0  0  0  0  0  0  0  0  0  0  0  0
   14.4186  -19.6648    7.0066 C   0  0  0  0  0  0  0  0  0  0  0  0
   15.8531  -19.2145    7.1970 C   0  0  2  0  0  0  0  0  0  0  0  0
   15.9062  -17.7976    6.9448 N   0  0  0  0  0  0  0  0  0  0  0  0
   16.7680  -19.9396    6.2610 C   0  0  0  0  0  0  0  0  0  0  0  0
   17.3057  -19.3183    5.3032 O   0  0  0  0  0  0  0  0  0  0  0  0
   21.7469  -22.4405   10.4763 O   0  0  0  0  0  0  0  0  0  0  0  0
   21.1392  -22.1543    9.2419 C   0  0  0  0  0  0  0  0  0  0  0  0
   20.9956  -23.1519    8.3008 C   0  0  0  0  0  0  0  0  0  0  0  0
   20.3886  -22.8577    7.0730 C   0  0  0  0  0  0  0  0  0  0  0  0
   19.9392  -21.5927    6.8022 C   0  0  0  0  0  0  0  0  0  0  0  0
   19.3072  -21.2926    5.5194 C   0  0  0  0  0  0  0  0  0  0  0  0
   17.9465  -21.9769    5.4635 C   0  0  2  0  0  0  0  0  0  0  0  0
   17.0481  -21.3088    6.4206 N   0  0  0  0  0  0  0  0  0  0  0  0
   17.9912  -23.4152    5.7481 C   0  0  0  0  0  0  0  0  0  0  0  0
   17.4709  -23.9127    6.7688 O   0  0  0  0  0  0  0  0  0  0  0  0
   20.0873  -20.6092    7.7451 C   0  0  0  0  0  0  0  0  0  0  0  0
   20.6881  -20.8653    8.9819 C   0  0  0  0  0  0  0  0  0  0  0  0
   18.6290  -24.2739    4.8657 O   0  0  0  0  0  0  0  0  0  0  0  0
  2  1  1  1
  2 13  1  0
  2  3  1  0
  4  5  2  0
  4  3  1  0
  6  5  1  0
  7 12  2  0
  7  6  1  0
  8  7  1  0
  9 10  1  0
  9  8  2  0
 10 11  2  0
 11 12  1  0
 12  4  1  0
 13 14  2  0
 16 15  1  6
 17 16  1  0
 17 13  1  0
 18 16  1  0
 19 18  2  0
 20 21  1  0
 21 22  2  0
 21 31  1  0
 22 23  1  0
 23 24  2  0
 24 25  1  0
 26 25  1  1
 26 27  1  0
 26 28  1  0
 27 18  1  0
 28 32  1  0
 29 28  2  0
 30 24  1  0
 31 30  2  0
M  END
$$$$
