LYR.pdb
     RDKit          3D

 32 32  0  0  1  0  0  0  0  0999 V2000
   27.0524  -20.5481   -9.1335 C   0  0  0  0  0  0  0  0  0  0  0  0
   25.7547  -20.0134   -9.6978 C   0  0  2  0  0  0  0  0  0  0  0  0
   24.7971  -19.6326   -8.5934 C   0  0  0  0  0  0  0  0  0  0  0  0
   25.1171  -21.0997  -10.5288 C   0  0  0  0  0  0  0  0  0  0  0  0
   26.1107  -21.5324  -11.5964 C   0  0  2  0  0  0  0  0  0  0  0  0
   26.8888  -20.4313  -12.0813 N   0  0  0  0  0  0  0  0  0  0  0  0
   25.4289  -22.2160  -12.7176 C   0  0  0  0  0  0  0  0  0  0  0  0
   24.7125  -23.2330  -12.5720 O   0  0  0  0  0  0  0  0  0  0  0  0
   19.1459  -20.3511  -13.3414 O   0  0  0  0  0  0  0  0  0  0  0  0
   20.3740  -20.5596  -13.9706 C   0  0  0  0  0  0  0  0  0  0  0  0
   21.3067  -19.5498  -14.0883 C   0  0  0  0  0  0  0  0  0  0  0  0
   22.5306  -19.7889  -14.7250 C   0  0  0  0  0  0  0  0  0  0  0  0
   22.8334  -21.0267  -15.2461 C   0  0  0  0  0  0  0  0  0  0  0  0
   24.1083  -21.3093  -15.9259 C   0  0  0  0  0  0  0  0  0  0  0  0
   24.9365  -22.2923  -15.1830 C   0  0  2  0  0  0  0  0  0  0  0  0
   25.5860  -21.7055  -14.0233 N   0  0  0  0  0  0  0  0  0  0  0  0
   25.9817  -22.8978  -16.0140 C   0  0  0  0  0  0  0  0  0  0  0  0
   27.0699  -22.3105  -16.1771 O   0  0  0  0  0  0  0  0  0  0  0  0
   21.8772  -22.0213  -15.1128 C   0  0  0  0  0  0  0  0  0  0  0  0
   20.6659  -21.7879  -14.4835 C   0  0  0  0  0  0  0  0  0  0  0  0
   29.0995  -29.5399  -19.2028 N   0  0  0  0  0  0  0  0  0  0  0  0
   29.6483  -29.6901  -17.9033 C   0  0  0  0  0  0  0  0  0  0  0  0
   30.8276  -30.1738  -17.7125 N   0  0  0  0  0  0  0  0  0  0  0  0
   28.8716  -29.2960  -16.8049 N   0  0  0  0  0  0  0  0  0  0  0  0
   27.5132  -28.7094  -16.9897 C   0  0  0  0  0  0  0  0  0  0  0  0
   27.7142  -27.2779  -17.2575 C   0  0  0  0  0  0  0  0  0  0  0  0
   26.6815  -26.2754  -17.1190 C   0  0  0  0  0  0  0  0  0  0  0  0
   26.8794  -24.8410  -17.3916 C   0  0  2  0  0  0  0  0  0  0  0  0
   25.7648  -24.1410  -16.6306 N   0  0  0  0  0  0  0  0  0  0  0  0
   26.7132  -24.4302  -18.7929 C   0  0  0  0  0  0  0  0  0  0  0  0
   25.5098  -24.1249  -19.1764 O   0  0  0  0  0  0  0  0  0  0  0  0
   27.6664  -24.3148  -19.7736 O   0  0  0  0  0  0  0  0  0  0  0  0
  2  3  1  1
  2  1  1  0
  4  2  1  0
  5  4  1  0
  5  6  1  6
  7  5  1  0
  8  7  2  0
  9 10  1  0
 10 11  2  0
 10 20  1  0
 11 12  1  0
 12 13  2  0
 13 14  1  0
 15 14  1  6
 15 16  1  0
 16  7  1  0
 17 15  1  0
 17 18  2  0
 19 13  1  0
 20 19  2  0
 21 22  1  0
 22 24  1  0
 23 22  2  0
 24 25  1  0
 25 26  1  0
 26 27  1  0
 28 29  1  0
 28 27  1  6
 29 17  1  0
 30 28  1  0
 31 30  2  0
 32 30  1  0
M  END
$$$$
