LYR.pdb
     RDKit          3D

 32 32  0  0  1  0  0  0  0  0999 V2000
   20.8101  -20.9328  -11.0319 C   0  0  0  0  0  0  0  0  0  0  0  0
   19.8428  -20.6219  -12.1526 C   0  0  2  0  0  0  0  0  0  0  0  0
   18.4450  -21.0784  -11.8072 C   0  0  0  0  0  0  0  0  0  0  0  0
   20.2954  -21.3624  -13.3870 C   0  0  0  0  0  0  0  0  0  0  0  0
   21.7376  -20.9747  -13.6772 C   0  0  2  0  0  0  0  0  0  0  0  0
   21.8884  -19.5595  -13.8429 N   0  0  0  0  0  0  0  0  0  0  0  0
   22.2571  -21.6916  -14.8627 C   0  0  0  0  0  0  0  0  0  0  0  0
   22.2224  -22.9376  -14.9851 O   0  0  0  0  0  0  0  0  0  0  0  0
   22.5239  -15.3194  -18.3179 O   0  0  0  0  0  0  0  0  0  0  0  0
   22.5807  -16.7137  -18.3392 C   0  0  0  0  0  0  0  0  0  0  0  0
   23.6303  -17.3855  -18.9312 C   0  0  0  0  0  0  0  0  0  0  0  0
   23.6601  -18.7854  -18.9370 C   0  0  0  0  0  0  0  0  0  0  0  0
   22.6519  -19.5224  -18.3575 C   0  0  0  0  0  0  0  0  0  0  0  0
   22.6505  -20.9945  -18.3513 C   0  0  0  0  0  0  0  0  0  0  0  0
   23.3087  -21.5529  -17.1434 C   0  0  2  0  0  0  0  0  0  0  0  0
   22.8234  -20.9441  -15.9165 N   0  0  0  0  0  0  0  0  0  0  0  0
   24.7662  -21.3960  -17.1666 C   0  0  0  0  0  0  0  0  0  0  0  0
   25.3012  -20.4340  -16.5803 O   0  0  0  0  0  0  0  0  0  0  0  0
   21.6110  -18.8201  -17.7706 C   0  0  0  0  0  0  0  0  0  0  0  0
   21.5788  -17.4357  -17.7632 C   0  0  0  0  0  0  0  0  0  0  0  0
   31.5330  -25.7199  -16.1072 N   0  0  0  0  0  0  0  0  0  0  0  0
   31.9406  -24.9320  -17.2141 C   0  0  0  0  0  0  0  0  0  0  0  0
   32.8979  -25.2974  -17.9959 N   0  0  0  0  0  0  0  0  0  0  0  0
   31.2722  -23.7228  -17.4507 N   0  0  0  0  0  0  0  0  0  0  0  0
   29.9282  -23.4549  -16.8627 C   0  0  0  0  0  0  0  0  0  0  0  0
   28.9467  -24.0144  -17.8034 C   0  0  0  0  0  0  0  0  0  0  0  0
   27.5548  -23.6252  -17.8481 C   0  0  0  0  0  0  0  0  0  0  0  0
   27.0846  -22.2295  -17.8068 C   0  0  2  0  0  0  0  0  0  0  0  0
   25.5679  -22.3265  -17.8480 N   0  0  0  0  0  0  0  0  0  0  0  0
   27.4542  -21.3985  -18.9613 C   0  0  0  0  0  0  0  0  0  0  0  0
   26.5875  -21.3146  -19.9257 O   0  0  0  0  0  0  0  0  0  0  0  0
   28.6043  -20.6792  -19.1695 O   0  0  0  0  0  0  0  0  0  0  0  0
  2  3  1  1
  2  1  1  0
  4  2  1  0
  5  4  1  0
  5  6  1  6
  7  5  1  0
  8  7  2  0
  9 10  1  0
 10 11  2  0
 10 20  1  0
 11 12  1  0
 12 13  2  0
 13 14  1  0
 15 14  1  6
 15 16  1  0
 16  7  1  0
 17 15  1  0
 17 18  2  0
 19 13  1  0
 20 19  2  0
 21 22  1  0
 22 24  1  0
 23 22  2  0
 24 25  1  0
 25 26  1  0
 26 27  1  0
 28 29  1  0
 28 27  1  6
 29 17  1  0
 30 28  1  0
 31 30  2  0
 32 30  1  0
M  END
$$$$
