LYR.pdb
     RDKit          3D

 32 32  0  0  1  0  0  0  0  0999 V2000
   29.0503  -21.4748  -20.6087 C   0  0  0  0  0  0  0  0  0  0  0  0
   30.1890  -20.8910  -19.8020 C   0  0  2  0  0  0  0  0  0  0  0  0
   31.4953  -21.5743  -20.1311 C   0  0  0  0  0  0  0  0  0  0  0  0
   29.8921  -21.1084  -18.3386 C   0  0  0  0  0  0  0  0  0  0  0  0
   28.5142  -20.5376  -18.0388 C   0  0  2  0  0  0  0  0  0  0  0  0
   28.5177  -19.1047  -18.0350 N   0  0  0  0  0  0  0  0  0  0  0  0
   27.9865  -21.0560  -16.7574 C   0  0  0  0  0  0  0  0  0  0  0  0
   27.8715  -22.2768  -16.5024 O   0  0  0  0  0  0  0  0  0  0  0  0
   25.0579  -21.0043   -8.4247 O   0  0  0  0  0  0  0  0  0  0  0  0
   25.5903  -20.6271   -9.6584 C   0  0  0  0  0  0  0  0  0  0  0  0
   24.8415  -19.9351  -10.5878 C   0  0  0  0  0  0  0  0  0  0  0  0
   25.4029  -19.5700  -11.8175 C   0  0  0  0  0  0  0  0  0  0  0  0
   26.7053  -19.8889  -12.1293 C   0  0  0  0  0  0  0  0  0  0  0  0
   27.3236  -19.5247  -13.4148 C   0  0  0  0  0  0  0  0  0  0  0  0
   27.0897  -20.5502  -14.4625 C   0  0  2  0  0  0  0  0  0  0  0  0
   27.5890  -20.1375  -15.7632 N   0  0  0  0  0  0  0  0  0  0  0  0
   25.6716  -20.8871  -14.6215 C   0  0  0  0  0  0  0  0  0  0  0  0
   24.9242  -20.1469  -15.2916 O   0  0  0  0  0  0  0  0  0  0  0  0
   27.4329  -20.5841  -11.1761 C   0  0  0  0  0  0  0  0  0  0  0  0
   26.8804  -20.9465   -9.9591 C   0  0  0  0  0  0  0  0  0  0  0  0
   22.1396  -27.7379  -15.2956 N   0  0  0  0  0  0  0  0  0  0  0  0
   20.8465  -27.1594  -15.2214 C   0  0  0  0  0  0  0  0  0  0  0  0
   19.8098  -27.8471  -14.8846 N   0  0  0  0  0  0  0  0  0  0  0  0
   20.7094  -25.7981  -15.5266 N   0  0  0  0  0  0  0  0  0  0  0  0
   21.9005  -24.9442  -15.8020 C   0  0  0  0  0  0  0  0  0  0  0  0
   22.6053  -24.7925  -14.5207 C   0  0  0  0  0  0  0  0  0  0  0  0
   23.7622  -23.9469  -14.3282 C   0  0  0  0  0  0  0  0  0  0  0  0
   23.7120  -22.4751  -14.2791 C   0  0  2  0  0  0  0  0  0  0  0  0
   25.1467  -22.0433  -14.0212 N   0  0  0  0  0  0  0  0  0  0  0  0
   22.9274  -21.9012  -13.1768 C   0  0  0  0  0  0  0  0  0  0  0  0
   23.5136  -21.8177  -12.0203 O   0  0  0  0  0  0  0  0  0  0  0  0
   21.6401  -21.4256  -13.1948 O   0  0  0  0  0  0  0  0  0  0  0  0
  2  3  1  6
  2  1  1  0
  4  2  1  0
  5  4  1  0
  5  6  1  1
  7  5  1  0
  8  7  2  0
  9 10  1  0
 10 11  2  0
 10 20  1  0
 11 12  1  0
 12 13  2  0
 13 14  1  0
 15 14  1  1
 15 16  1  0
 16  7  1  0
 17 15  1  0
 17 18  2  0
 19 13  1  0
 20 19  2  0
 21 22  1  0
 22 24  1  0
 23 22  2  0
 24 25  1  0
 25 26  1  0
 26 27  1  0
 28 29  1  0
 28 27  1  1
 29 17  1  0
 30 28  1  0
 31 30  2  0
 32 30  1  0
M  END
$$$$
