LYR.pdb
     RDKit          3D

 32 32  0  0  1  0  0  0  0  0999 V2000
   25.3511  -26.2272  -16.4995 C   0  0  0  0  0  0  0  0  0  0  0  0
   23.9048  -26.0660  -16.0866 C   0  0  2  0  0  0  0  0  0  0  0  0
   22.9717  -26.4690  -17.2040 C   0  0  0  0  0  0  0  0  0  0  0  0
   23.6641  -24.6114  -15.7650 C   0  0  0  0  0  0  0  0  0  0  0  0
   24.5880  -24.2133  -14.6238 C   0  0  2  0  0  0  0  0  0  0  0  0
   24.2378  -24.8679  -13.3983 N   0  0  0  0  0  0  0  0  0  0  0  0
   24.6080  -22.7455  -14.4377 C   0  0  0  0  0  0  0  0  0  0  0  0
   23.7354  -22.1203  -13.7926 O   0  0  0  0  0  0  0  0  0  0  0  0
   27.2430  -14.3698  -15.6527 O   0  0  0  0  0  0  0  0  0  0  0  0
   27.1967  -15.7594  -15.5320 C   0  0  0  0  0  0  0  0  0  0  0  0
   26.9915  -16.3729  -14.3134 C   0  0  0  0  0  0  0  0  0  0  0  0
   26.9499  -17.7695  -14.2233 C   0  0  0  0  0  0  0  0  0  0  0  0
   27.1115  -18.5610  -15.3380 C   0  0  0  0  0  0  0  0  0  0  0  0
   27.0786  -20.0316  -15.2765 C   0  0  0  0  0  0  0  0  0  0  0  0
   25.7286  -20.5508  -14.9417 C   0  0  2  0  0  0  0  0  0  0  0  0
   25.6595  -22.0005  -15.0117 N   0  0  0  0  0  0  0  0  0  0  0  0
   24.6811  -20.0169  -15.8177 C   0  0  0  0  0  0  0  0  0  0  0  0
   24.4898  -20.5202  -16.9427 O   0  0  0  0  0  0  0  0  0  0  0  0
   27.3159  -17.9167  -16.5481 C   0  0  0  0  0  0  0  0  0  0  0  0
   27.3574  -16.5356  -16.6404 C   0  0  0  0  0  0  0  0  0  0  0  0
   17.0840  -19.9320  -14.3637 N   0  0  0  0  0  0  0  0  0  0  0  0
   18.2966  -20.4633  -14.8733 C   0  0  0  0  0  0  0  0  0  0  0  0
   18.4452  -21.7221  -15.1065 N   0  0  0  0  0  0  0  0  0  0  0  0
   19.3550  -19.5792  -15.1253 N   0  0  0  0  0  0  0  0  0  0  0  0
   19.1194  -18.1143  -15.2741 C   0  0  0  0  0  0  0  0  0  0  0  0
   20.3962  -17.5331  -15.7141 C   0  0  0  0  0  0  0  0  0  0  0  0
   21.6933  -18.0358  -15.3197 C   0  0  0  0  0  0  0  0  0  0  0  0
   22.7576  -18.4113  -16.2668 C   0  0  2  0  0  0  0  0  0  0  0  0
   23.8878  -18.9371  -15.3964 N   0  0  0  0  0  0  0  0  0  0  0  0
   23.3417  -17.3059  -17.0394 C   0  0  0  0  0  0  0  0  0  0  0  0
   24.3407  -16.6752  -16.4985 O   0  0  0  0  0  0  0  0  0  0  0  0
   22.9802  -16.8378  -18.2778 O   0  0  0  0  0  0  0  0  0  0  0  0
  2  3  1  6
  2  1  1  0
  4  2  1  0
  5  4  1  0
  5  6  1  1
  7  5  1  0
  8  7  2  0
  9 10  1  0
 10 11  2  0
 10 20  1  0
 11 12  1  0
 12 13  2  0
 13 14  1  0
 15 14  1  6
 15 16  1  0
 16  7  1  0
 17 15  1  0
 17 18  2  0
 19 13  1  0
 20 19  2  0
 21 22  1  0
 22 24  1  0
 23 22  2  0
 24 25  1  0
 25 26  1  0
 26 27  1  0
 28 29  1  0
 28 27  1  1
 29 17  1  0
 30 28  1  0
 31 30  2  0
 32 30  1  0
M  END
$$$$
