LYR.pdb
     RDKit          3D

 32 32  0  0  1  0  0  0  0  0999 V2000
   31.9763  -36.5331  -18.8809 C   0  0  0  0  0  0  0  0  0  0  0  0
   32.1859  -35.0597  -19.1514 C   0  0  2  0  0  0  0  0  0  0  0  0
   32.0862  -34.7579  -20.6280 C   0  0  0  0  0  0  0  0  0  0  0  0
   33.5693  -34.6843  -18.6798 C   0  0  0  0  0  0  0  0  0  0  0  0
   33.7809  -33.2016  -18.9462 C   0  0  2  0  0  0  0  0  0  0  0  0
   35.1149  -32.7858  -18.6289 N   0  0  0  0  0  0  0  0  0  0  0  0
   32.7951  -32.3789  -18.2110 C   0  0  0  0  0  0  0  0  0  0  0  0
   32.7430  -32.3180  -16.9612 O   0  0  0  0  0  0  0  0  0  0  0  0
   27.2750  -25.8979  -16.2308 O   0  0  0  0  0  0  0  0  0  0  0  0
   28.2136  -26.7390  -16.8303 C   0  0  0  0  0  0  0  0  0  0  0  0
   29.4475  -26.9696  -16.2579 C   0  0  0  0  0  0  0  0  0  0  0  0
   30.3689  -27.8187  -16.8828 C   0  0  0  0  0  0  0  0  0  0  0  0
   30.0711  -28.4405  -18.0745 C   0  0  0  0  0  0  0  0  0  0  0  0
   31.0192  -29.3343  -18.7597 C   0  0  0  0  0  0  0  0  0  0  0  0
   30.8862  -30.7442  -18.3140 C   0  0  2  0  0  0  0  0  0  0  0  0
   31.8599  -31.6190  -18.9447 N   0  0  0  0  0  0  0  0  0  0  0  0
   29.5562  -31.3011  -18.5798 C   0  0  0  0  0  0  0  0  0  0  0  0
   29.2661  -31.7101  -19.7218 O   0  0  0  0  0  0  0  0  0  0  0  0
   28.8242  -28.1899  -18.6254 C   0  0  0  0  0  0  0  0  0  0  0  0
   27.9108  -27.3507  -18.0097 C   0  0  0  0  0  0  0  0  0  0  0  0
   24.5241  -36.6716  -14.2239 N   0  0  0  0  0  0  0  0  0  0  0  0
   25.3071  -35.7806  -13.4458 C   0  0  0  0  0  0  0  0  0  0  0  0
   25.2830  -35.7985  -12.1574 N   0  0  0  0  0  0  0  0  0  0  0  0
   26.1259  -34.8595  -14.1138 N   0  0  0  0  0  0  0  0  0  0  0  0
   26.2187  -34.8451  -15.6020 C   0  0  0  0  0  0  0  0  0  0  0  0
   27.1773  -33.7849  -15.9460 C   0  0  0  0  0  0  0  0  0  0  0  0
   26.8012  -32.4969  -16.4849 C   0  0  0  0  0  0  0  0  0  0  0  0
   27.2338  -31.9924  -17.7999 C   0  0  2  0  0  0  0  0  0  0  0  0
   28.6020  -31.3774  -17.5520 N   0  0  0  0  0  0  0  0  0  0  0  0
   26.4165  -30.9106  -18.3673 C   0  0  0  0  0  0  0  0  0  0  0  0
   25.3723  -31.2629  -19.0556 O   0  0  0  0  0  0  0  0  0  0  0  0
   26.5979  -29.5539  -18.2680 O   0  0  0  0  0  0  0  0  0  0  0  0
  2  3  1  6
  2  1  1  0
  4  2  1  0
  5  4  1  0
  5  6  1  1
  7  5  1  0
  8  7  2  0
  9 10  1  0
 10 11  2  0
 10 20  1  0
 11 12  1  0
 12 13  2  0
 13 14  1  0
 15 14  1  6
 15 16  1  0
 16  7  1  0
 17 15  1  0
 17 18  2  0
 19 13  1  0
 20 19  2  0
 21 22  1  0
 22 24  1  0
 23 22  2  0
 24 25  1  0
 25 26  1  0
 26 27  1  0
 28 29  1  0
 28 27  1  1
 29 17  1  0
 30 28  1  0
 31 30  2  0
 32 30  1  0
M  END
$$$$
