LYR.pdb
     RDKit          3D

 32 32  0  0  1  0  0  0  0  0999 V2000
   17.5107  -19.8798  -16.4710 C   0  0  0  0  0  0  0  0  0  0  0  0
   18.1707  -18.7397  -15.7276 C   0  0  2  0  0  0  0  0  0  0  0  0
   17.2605  -17.5364  -15.6575 C   0  0  0  0  0  0  0  0  0  0  0  0
   19.4219  -18.3490  -16.4752 C   0  0  0  0  0  0  0  0  0  0  0  0
   20.3749  -19.5347  -16.4682 C   0  0  2  0  0  0  0  0  0  0  0  0
   19.7098  -20.7539  -16.1158 N   0  0  0  0  0  0  0  0  0  0  0  0
   21.5233  -19.2939  -15.5668 C   0  0  0  0  0  0  0  0  0  0  0  0
   22.1944  -18.2365  -15.5722 O   0  0  0  0  0  0  0  0  0  0  0  0
   27.5396  -20.6532   -9.2616 O   0  0  0  0  0  0  0  0  0  0  0  0
   26.3914  -20.7132  -10.0527 C   0  0  0  0  0  0  0  0  0  0  0  0
   25.2911  -19.9230   -9.7911 C   0  0  0  0  0  0  0  0  0  0  0  0
   24.1529  -20.0053  -10.6025 C   0  0  0  0  0  0  0  0  0  0  0  0
   24.1016  -20.8691  -11.6733 C   0  0  0  0  0  0  0  0  0  0  0  0
   22.9187  -20.9835  -12.5423 C   0  0  0  0  0  0  0  0  0  0  0  0
   23.0616  -20.1978  -13.7938 C   0  0  2  0  0  0  0  0  0  0  0  0
   21.8913  -20.3001  -14.6489 N   0  0  0  0  0  0  0  0  0  0  0  0
   24.2251  -20.6022  -14.5890 C   0  0  0  0  0  0  0  0  0  0  0  0
   24.1857  -21.6474  -15.2684 O   0  0  0  0  0  0  0  0  0  0  0  0
   25.2218  -21.6500  -11.9114 C   0  0  0  0  0  0  0  0  0  0  0  0
   26.3489  -21.5708  -11.1108 C   0  0  0  0  0  0  0  0  0  0  0  0
   28.3300  -16.1427  -20.3734 N   0  0  0  0  0  0  0  0  0  0  0  0
   27.0624  -16.5393  -19.8752 C   0  0  0  0  0  0  0  0  0  0  0  0
   25.9632  -16.1849  -20.4474 N   0  0  0  0  0  0  0  0  0  0  0  0
   27.0216  -17.3403  -18.7256 N   0  0  0  0  0  0  0  0  0  0  0  0
   28.2630  -17.6661  -17.9663 C   0  0  0  0  0  0  0  0  0  0  0  0
   27.9655  -18.8775  -17.1881 C   0  0  0  0  0  0  0  0  0  0  0  0
   26.8654  -18.9917  -16.2568 C   0  0  0  0  0  0  0  0  0  0  0  0
   26.5848  -20.1932  -15.4515 C   0  0  2  0  0  0  0  0  0  0  0  0
   25.3894  -19.8167  -14.5908 N   0  0  0  0  0  0  0  0  0  0  0  0
   27.6387  -20.5862  -14.5055 C   0  0  0  0  0  0  0  0  0  0  0  0
   27.7152  -19.9108  -13.3981 O   0  0  0  0  0  0  0  0  0  0  0  0
   28.5693  -21.5880  -14.6232 O   0  0  0  0  0  0  0  0  0  0  0  0
  2  3  1  6
  2  1  1  0
  4  2  1  0
  5  4  1  0
  5  6  1  1
  7  5  1  0
  8  7  2  0
  9 10  1  0
 10 11  2  0
 10 20  1  0
 11 12  1  0
 12 13  2  0
 13 14  1  0
 15 14  1  1
 15 16  1  0
 16  7  1  0
 17 15  1  0
 17 18  2  0
 19 13  1  0
 20 19  2  0
 21 22  1  0
 22 24  1  0
 23 22  2  0
 24 25  1  0
 25 26  1  0
 26 27  1  0
 28 29  1  0
 28 27  1  1
 29 17  1  0
 30 28  1  0
 31 30  2  0
 32 30  1  0
M  END
$$$$
