LYR.pdb
     RDKit          3D

 32 32  0  0  1  0  0  0  0  0999 V2000
   27.0942  -18.7118  -19.8523 C   0  0  0  0  0  0  0  0  0  0  0  0
   25.5818  -18.6961  -19.8316 C   0  0  2  0  0  0  0  0  0  0  0  0
   25.0378  -17.5617  -20.6674 C   0  0  0  0  0  0  0  0  0  0  0  0
   25.1303  -18.4973  -18.4054 C   0  0  0  0  0  0  0  0  0  0  0  0
   25.8624  -19.5002  -17.5264 C   0  0  2  0  0  0  0  0  0  0  0  0
   25.8001  -20.8275  -18.0626 N   0  0  0  0  0  0  0  0  0  0  0  0
   25.3429  -19.4781  -16.1411 C   0  0  0  0  0  0  0  0  0  0  0  0
   25.2392  -18.4322  -15.4601 O   0  0  0  0  0  0  0  0  0  0  0  0
   18.9026  -18.2170  -16.6265 O   0  0  0  0  0  0  0  0  0  0  0  0
   19.8975  -18.9985  -16.0373 C   0  0  0  0  0  0  0  0  0  0  0  0
   20.3049  -18.7897  -14.7357 C   0  0  0  0  0  0  0  0  0  0  0  0
   21.3057  -19.5900  -14.1714 C   0  0  0  0  0  0  0  0  0  0  0  0
   21.9048  -20.5974  -14.8935 C   0  0  0  0  0  0  0  0  0  0  0  0
   22.9632  -21.4527  -14.3316 C   0  0  0  0  0  0  0  0  0  0  0  0
   24.2711  -20.7541  -14.2571 C   0  0  2  0  0  0  0  0  0  0  0  0
   24.9402  -20.6918  -15.5454 N   0  0  0  0  0  0  0  0  0  0  0  0
   25.1972  -21.3816  -13.3094 C   0  0  0  0  0  0  0  0  0  0  0  0
   25.7601  -22.4552  -13.6026 O   0  0  0  0  0  0  0  0  0  0  0  0
   21.4749  -20.7836  -16.1980 C   0  0  0  0  0  0  0  0  0  0  0  0
   20.4853  -19.9938  -16.7589 C   0  0  0  0  0  0  0  0  0  0  0  0
   32.5149  -21.5797   -9.5012 N   0  0  0  0  0  0  0  0  0  0  0  0
   32.0977  -21.6864  -10.8529 C   0  0  0  0  0  0  0  0  0  0  0  0
   32.7909  -22.3245  -11.7324 N   0  0  0  0  0  0  0  0  0  0  0  0
   30.8935  -21.0739  -11.2266 N   0  0  0  0  0  0  0  0  0  0  0  0
   30.0069  -20.4310  -10.2145 C   0  0  0  0  0  0  0  0  0  0  0  0
   28.7395  -21.1757  -10.2430 C   0  0  0  0  0  0  0  0  0  0  0  0
   27.6182  -20.8335  -11.0893 C   0  0  0  0  0  0  0  0  0  0  0  0
   26.2984  -21.4844  -11.0167 C   0  0  2  0  0  0  0  0  0  0  0  0
   25.4561  -20.7787  -12.0675 N   0  0  0  0  0  0  0  0  0  0  0  0
   25.5709  -21.3099   -9.7516 C   0  0  0  0  0  0  0  0  0  0  0  0
   24.6695  -20.3747   -9.7169 O   0  0  0  0  0  0  0  0  0  0  0  0
   25.7054  -22.0104   -8.5792 O   0  0  0  0  0  0  0  0  0  0  0  0
  2  3  1  6
  2  1  1  0
  4  2  1  0
  5  4  1  0
  5  6  1  6
  7  5  1  0
  8  7  2  0
  9 10  1  0
 10 11  2  0
 10 20  1  0
 11 12  1  0
 12 13  2  0
 13 14  1  0
 15 14  1  6
 15 16  1  0
 16  7  1  0
 17 15  1  0
 17 18  2  0
 19 13  1  0
 20 19  2  0
 21 22  1  0
 22 24  1  0
 23 22  2  0
 24 25  1  0
 25 26  1  0
 26 27  1  0
 28 29  1  0
 28 27  1  1
 29 17  1  0
 30 28  1  0
 31 30  2  0
 32 30  1  0
M  END
$$$$
