LYR.pdb
     RDKit          3D

 32 32  0  0  1  0  0  0  0  0999 V2000
   29.0643  -21.7647  -20.0719 C   0  0  0  0  0  0  0  0  0  0  0  0
   29.8490  -21.9112  -18.7870 C   0  0  2  0  0  0  0  0  0  0  0  0
   31.0608  -22.7905  -18.9867 C   0  0  0  0  0  0  0  0  0  0  0  0
   28.9547  -22.5577  -17.7576 C   0  0  0  0  0  0  0  0  0  0  0  0
   27.7667  -21.6402  -17.5105 C   0  0  2  0  0  0  0  0  0  0  0  0
   28.1133  -20.2596  -17.6747 N   0  0  0  0  0  0  0  0  0  0  0  0
   27.1817  -21.8698  -16.1709 C   0  0  0  0  0  0  0  0  0  0  0  0
   26.8485  -23.0008  -15.7486 O   0  0  0  0  0  0  0  0  0  0  0  0
   24.9475  -20.5248   -7.7757 O   0  0  0  0  0  0  0  0  0  0  0  0
   25.4502  -20.3688   -9.0682 C   0  0  0  0  0  0  0  0  0  0  0  0
   24.8460  -19.5309   -9.9827 C   0  0  0  0  0  0  0  0  0  0  0  0
   25.3734  -19.3946  -11.2726 C   0  0  0  0  0  0  0  0  0  0  0  0
   26.4988  -20.0869  -11.6596 C   0  0  0  0  0  0  0  0  0  0  0  0
   27.0751  -19.9701  -13.0092 C   0  0  0  0  0  0  0  0  0  0  0  0
   26.4316  -20.8930  -13.9778 C   0  0  2  0  0  0  0  0  0  0  0  0
   26.9841  -20.7655  -15.3157 N   0  0  0  0  0  0  0  0  0  0  0  0
   24.9829  -20.6914  -14.0784 C   0  0  0  0  0  0  0  0  0  0  0  0
   24.5299  -19.6959  -14.6778 O   0  0  0  0  0  0  0  0  0  0  0  0
   27.0839  -20.9207  -10.7196 C   0  0  0  0  0  0  0  0  0  0  0  0
   26.5647  -21.0575   -9.4431 C   0  0  0  0  0  0  0  0  0  0  0  0
   17.3004  -24.2128  -14.1714 N   0  0  0  0  0  0  0  0  0  0  0  0
   18.3006  -24.6890  -15.0575 C   0  0  0  0  0  0  0  0  0  0  0  0
   18.0177  -25.1132  -16.2411 N   0  0  0  0  0  0  0  0  0  0  0  0
   19.6315  -24.6916  -14.6170 N   0  0  0  0  0  0  0  0  0  0  0  0
   19.9830  -24.3146  -13.2177 C   0  0  0  0  0  0  0  0  0  0  0  0
   20.5788  -22.9724  -13.2887 C   0  0  0  0  0  0  0  0  0  0  0  0
   22.0003  -22.7207  -13.3707 C   0  0  0  0  0  0  0  0  0  0  0  0
   22.5954  -21.3821  -13.5285 C   0  0  2  0  0  0  0  0  0  0  0  0
   24.0974  -21.6164  -13.5013 N   0  0  0  0  0  0  0  0  0  0  0  0
   22.3284  -20.4339  -12.4378 C   0  0  0  0  0  0  0  0  0  0  0  0
   21.2798  -19.6766  -12.5618 O   0  0  0  0  0  0  0  0  0  0  0  0
   23.0385  -20.2327  -11.2808 O   0  0  0  0  0  0  0  0  0  0  0  0
  2  3  1  6
  2  1  1  0
  4  2  1  0
  5  4  1  0
  5  6  1  1
  7  5  1  0
  8  7  2  0
  9 10  1  0
 10 11  2  0
 10 20  1  0
 11 12  1  0
 12 13  2  0
 13 14  1  0
 15 14  1  1
 15 16  1  0
 16  7  1  0
 17 15  1  0
 17 18  2  0
 19 13  1  0
 20 19  2  0
 21 22  1  0
 22 24  1  0
 23 22  2  0
 24 25  1  0
 25 26  1  0
 26 27  1  0
 28 29  1  0
 28 27  1  1
 29 17  1  0
 30 28  1  0
 31 30  2  0
 32 30  1  0
M  END
$$$$
