AHL.pdb
     RDKit          3D

 24 24  0  0  1  0  0  0  0  0999 V2000
   23.8761  -17.2388  -16.0148 C   0  0  0  0  0  0  0  0  0  0  0  0
   25.2862  -17.7725  -16.1515 C   0  0  2  0  0  0  0  0  0  0  0  0
   25.6615  -17.6956  -17.5516 N   0  0  0  0  0  0  0  0  0  0  0  0
   25.2952  -19.2094  -15.6738 C   0  0  0  0  0  0  0  0  0  0  0  0
   24.3996  -19.9294  -16.1622 O   0  0  0  0  0  0  0  0  0  0  0  0
   26.2613  -19.6560  -14.7468 N   0  0  0  0  0  0  0  0  0  0  0  0
   26.4223  -20.9664  -14.2471 C   0  0  1  0  0  0  0  0  0  0  0  0
   27.8510  -21.4959  -14.3340 C   0  0  0  0  0  0  0  0  0  0  0  0
   28.3723  -21.4735  -15.7153 C   0  0  0  0  0  0  0  0  0  0  0  0
   28.2219  -22.5048  -16.6595 C   0  0  0  0  0  0  0  0  0  0  0  0
   28.8371  -22.0887  -17.7784 N   0  0  0  0  0  0  0  0  0  0  0  0
   29.3633  -20.8703  -17.6053 C   0  0  0  0  0  0  0  0  0  0  0  0
   29.0558  -20.5338  -16.3331 N   0  0  0  0  0  0  0  0  0  0  0  0
   25.8104  -21.1552  -12.9254 C   0  0  0  0  0  0  0  0  0  0  0  0
   26.5109  -21.5084  -11.9390 O   0  0  0  0  0  0  0  0  0  0  0  0
   25.6962  -21.8848   -8.9758 C   0  0  0  0  0  0  0  0  0  0  0  0
   25.7798  -20.5935   -9.7448 C   0  0  2  0  0  0  0  0  0  0  0  0
   26.2188  -19.5135   -8.7398 C   0  0  0  0  0  0  0  0  0  0  0  0
   24.5126  -20.1125  -10.3376 C   0  0  0  0  0  0  0  0  0  0  0  0
   23.8484  -20.9648  -11.3573 C   0  0  2  0  0  0  0  0  0  0  0  0
   24.4068  -20.9561  -12.6689 N   0  0  0  0  0  0  0  0  0  0  0  0
   22.3811  -20.7310  -11.3484 C   0  0  0  0  0  0  0  0  0  0  0  0
   21.8924  -20.0789  -12.2996 O   0  0  0  0  0  0  0  0  0  0  0  0
   21.5132  -21.1781  -10.3704 O   0  0  0  0  0  0  0  0  0  0  0  0
  2  1  1  6
  2  3  1  0
  4  2  1  0
  4  5  2  0
  6  4  1  0
  7  6  1  0
  7 14  1  0
  7  8  1  1
  9 10  2  0
  9  8  1  0
 11 10  1  0
 12 13  2  0
 12 11  1  0
 13  9  1  0
 14 15  2  0
 17 18  1  1
 17 16  1  0
 19 17  1  0
 20 19  1  1
 21 14  1  0
 21 20  1  0
 22 24  1  0
 22 20  1  0
 23 22  2  0
M  END
$$$$
