AHL.pdb
     RDKit          3D

 24 24  0  0  1  0  0  0  0  0999 V2000
   25.4596  -37.7742  -13.1133 C   0  0  0  0  0  0  0  0  0  0  0  0
   24.4499  -36.9628  -13.8969 C   0  0  2  0  0  0  0  0  0  0  0  0
   25.1196  -36.4195  -15.0645 N   0  0  0  0  0  0  0  0  0  0  0  0
   23.9446  -35.8490  -13.0041 C   0  0  0  0  0  0  0  0  0  0  0  0
   24.8101  -35.0147  -12.6667 O   0  0  0  0  0  0  0  0  0  0  0  0
   22.5905  -35.7984  -12.6090 N   0  0  0  0  0  0  0  0  0  0  0  0
   21.9811  -34.8378  -11.7731 C   0  0  1  0  0  0  0  0  0  0  0  0
   20.4568  -34.8242  -11.8469 C   0  0  0  0  0  0  0  0  0  0  0  0
   19.8671  -33.7481  -11.0255 C   0  0  0  0  0  0  0  0  0  0  0  0
   19.7510  -32.4004  -11.4102 C   0  0  0  0  0  0  0  0  0  0  0  0
   19.1644  -31.7615  -10.3848 N   0  0  0  0  0  0  0  0  0  0  0  0
   18.9037  -32.6106   -9.3836 C   0  0  0  0  0  0  0  0  0  0  0  0
   19.3488  -33.8105   -9.8175 N   0  0  0  0  0  0  0  0  0  0  0  0
   22.4976  -34.8635  -10.3985 C   0  0  0  0  0  0  0  0  0  0  0  0
   22.6121  -35.9538   -9.7768 O   0  0  0  0  0  0  0  0  0  0  0  0
   26.4131  -34.6069   -8.6511 C   0  0  0  0  0  0  0  0  0  0  0  0
   25.8085  -33.2417   -8.8419 C   0  0  2  0  0  0  0  0  0  0  0  0
   26.8758  -32.2248   -8.3992 C   0  0  0  0  0  0  0  0  0  0  0  0
   24.6038  -32.9510   -8.0338 C   0  0  0  0  0  0  0  0  0  0  0  0
   23.3599  -33.7056   -8.3344 C   0  0  2  0  0  0  0  0  0  0  0  0
   22.8988  -33.6791   -9.6832 N   0  0  0  0  0  0  0  0  0  0  0  0
   22.2997  -33.3653   -7.3507 C   0  0  0  0  0  0  0  0  0  0  0  0
   21.1815  -33.0225   -7.7991 O   0  0  0  0  0  0  0  0  0  0  0  0
   22.4525  -33.3979   -5.9777 O   0  0  0  0  0  0  0  0  0  0  0  0
  2  1  1  1
  2  3  1  0
  4  2  1  0
  4  5  2  0
  6  4  1  0
  7  6  1  0
  7 14  1  0
  7  8  1  1
  9 10  2  0
  9  8  1  0
 11 10  1  0
 12 13  2  0
 12 11  1  0
 13  9  1  0
 14 15  2  0
 17 18  1  1
 17 16  1  0
 19 17  1  0
 20 19  1  6
 21 14  1  0
 21 20  1  0
 22 24  1  0
 22 20  1  0
 23 22  2  0
M  END
$$$$
