AHL.pdb
     RDKit          3D

 24 24  0  0  1  0  0  0  0  0999 V2000
   27.6636  -19.6057  -16.2468 C   0  0  0  0  0  0  0  0  0  0  0  0
   28.0678  -20.2788  -14.9525 C   0  0  2  0  0  0  0  0  0  0  0  0
   28.0744  -21.7132  -15.1755 N   0  0  0  0  0  0  0  0  0  0  0  0
   27.0537  -19.9077  -13.8909 C   0  0  0  0  0  0  0  0  0  0  0  0
   26.9324  -18.6817  -13.6881 O   0  0  0  0  0  0  0  0  0  0  0  0
   26.3246  -20.9054  -13.2088 N   0  0  0  0  0  0  0  0  0  0  0  0
   25.3023  -20.7127  -12.2546 C   0  0  1  0  0  0  0  0  0  0  0  0
   23.9332  -21.2228  -12.6957 C   0  0  0  0  0  0  0  0  0  0  0  0
   23.3790  -20.4379  -13.8170 C   0  0  0  0  0  0  0  0  0  0  0  0
   22.5505  -19.3088  -13.6898 C   0  0  0  0  0  0  0  0  0  0  0  0
   22.2724  -18.8986  -14.9381 N   0  0  0  0  0  0  0  0  0  0  0  0
   22.8665  -19.6888  -15.8403 C   0  0  0  0  0  0  0  0  0  0  0  0
   23.5304  -20.6137  -15.1124 N   0  0  0  0  0  0  0  0  0  0  0  0
   25.6835  -21.1576  -10.9079 C   0  0  0  0  0  0  0  0  0  0  0  0
   26.0581  -22.3440  -10.7066 O   0  0  0  0  0  0  0  0  0  0  0  0
   28.7440  -20.7404   -7.2267 C   0  0  0  0  0  0  0  0  0  0  0  0
   27.8282  -19.5823   -7.5199 C   0  0  2  0  0  0  0  0  0  0  0  0
   28.1291  -18.5075   -6.4600 C   0  0  0  0  0  0  0  0  0  0  0  0
   26.3793  -19.8642   -7.4194 C   0  0  0  0  0  0  0  0  0  0  0  0
   25.7732  -20.7812   -8.4189 C   0  0  2  0  0  0  0  0  0  0  0  0
   25.6576  -20.2952   -9.7542 N   0  0  0  0  0  0  0  0  0  0  0  0
   24.5042  -21.3492   -7.8950 C   0  0  0  0  0  0  0  0  0  0  0  0
   23.4394  -21.0060   -8.4583 O   0  0  0  0  0  0  0  0  0  0  0  0
   24.4082  -22.2279   -6.8328 O   0  0  0  0  0  0  0  0  0  0  0  0
  2  1  1  6
  2  3  1  0
  4  2  1  0
  4  5  2  0
  6  4  1  0
  7  6  1  0
  7 14  1  0
  7  8  1  6
  9 10  2  0
  9  8  1  0
 11 10  1  0
 12 13  2  0
 12 11  1  0
 13  9  1  0
 14 15  2  0
 17 18  1  1
 17 16  1  0
 19 17  1  0
 20 19  1  1
 21 14  1  0
 21 20  1  0
 22 24  1  0
 22 20  1  0
 23 22  2  0
M  END
$$$$
