AHL.pdb
     RDKit          3D

 24 24  0  0  1  0  0  0  0  0999 V2000
   16.2808   -7.5141  -19.4437 C   0  0  0  0  0  0  0  0  0  0  0  0
   17.4140   -8.5022  -19.2667 C   0  0  2  0  0  0  0  0  0  0  0  0
   16.8972   -9.8312  -19.5381 N   0  0  0  0  0  0  0  0  0  0  0  0
   17.9083   -8.4024  -17.8388 C   0  0  0  0  0  0  0  0  0  0  0  0
   17.0104   -8.2658  -16.9820 O   0  0  0  0  0  0  0  0  0  0  0  0
   19.2878   -8.4640  -17.5464 N   0  0  0  0  0  0  0  0  0  0  0  0
   19.8932   -8.4046  -16.2726 C   0  0  1  0  0  0  0  0  0  0  0  0
   20.6490   -9.6715  -15.8816 C   0  0  0  0  0  0  0  0  0  0  0  0
   19.7658  -10.8533  -15.8224 C   0  0  0  0  0  0  0  0  0  0  0  0
   18.8327  -11.1228  -14.8053 C   0  0  0  0  0  0  0  0  0  0  0  0
   18.2427  -12.2852  -15.1288 N   0  0  0  0  0  0  0  0  0  0  0  0
   18.7379  -12.7654  -16.2758 C   0  0  0  0  0  0  0  0  0  0  0  0
   19.6636  -11.8603  -16.6634 N   0  0  0  0  0  0  0  0  0  0  0  0
   20.6692   -7.1753  -16.0632 C   0  0  0  0  0  0  0  0  0  0  0  0
   21.5743   -6.8423  -16.8745 O   0  0  0  0  0  0  0  0  0  0  0  0
   20.7554   -3.0535  -17.1782 C   0  0  0  0  0  0  0  0  0  0  0  0
   19.8375   -3.4236  -16.0441 C   0  0  2  0  0  0  0  0  0  0  0  0
   19.0087   -2.1667  -15.7241 C   0  0  0  0  0  0  0  0  0  0  0  0
   20.4991   -3.8125  -14.7792 C   0  0  0  0  0  0  0  0  0  0  0  0
   21.2278   -5.1066  -14.7391 C   0  0  2  0  0  0  0  0  0  0  0  0
   20.4576   -6.2879  -14.9482 N   0  0  0  0  0  0  0  0  0  0  0  0
   22.0853   -5.1783  -13.5279 C   0  0  0  0  0  0  0  0  0  0  0  0
   21.7955   -6.0363  -12.6626 O   0  0  0  0  0  0  0  0  0  0  0  0
   23.1791   -4.3703  -13.2822 O   0  0  0  0  0  0  0  0  0  0  0  0
  2  1  1  1
  2  3  1  0
  4  2  1  0
  4  5  2  0
  6  4  1  0
  7  6  1  0
  7 14  1  0
  7  8  1  6
  9 10  2  0
  9  8  1  0
 11 10  1  0
 12 13  2  0
 12 11  1  0
 13  9  1  0
 14 15  2  0
 17 18  1  1
 17 16  1  0
 19 17  1  0
 20 19  1  1
 21 14  1  0
 21 20  1  0
 22 24  1  0
 22 20  1  0
 23 22  2  0
M  END
$$$$
