KDV.pdb
     RDKit          3D

 25 24  0  0  1  0  0  0  0  0999 V2000
   17.9291  -11.7723  -15.6682 N   0  0  0  0  0  0  0  0  0  0  0  0
   16.8469  -11.2900  -14.7976 C   0  0  1  0  0  0  0  0  0  0  0  0
   16.1221  -12.3547  -14.0692 C   0  0  0  0  0  0  0  0  0  0  0  0
   15.1611  -13.1825  -14.8232 C   0  0  0  0  0  0  0  0  0  0  0  0
   14.3999  -14.2256  -14.1050 C   0  0  0  0  0  0  0  0  0  0  0  0
   13.4774  -15.0795  -14.9079 C   0  0  0  0  0  0  0  0  0  0  0  0
   12.8902  -16.0468  -13.9565 N   0  0  0  0  0  0  0  0  0  0  0  0
   17.4246  -10.2451  -13.8984 C   0  0  0  0  0  0  0  0  0  0  0  0
   18.6323  -10.0568  -13.7033 O   0  0  0  0  0  0  0  0  0  0  0  0
   16.5166   -9.3702  -13.1868 N   0  0  0  0  0  0  0  0  0  0  0  0
   17.0142   -8.2015  -12.4978 C   0  0  1  0  0  0  0  0  0  0  0  0
   17.9191   -7.3701  -13.3227 C   0  0  0  0  0  0  0  0  0  0  0  0
   18.3583   -6.1297  -12.6304 C   0  0  0  0  0  0  0  0  0  0  0  0
   19.0114   -6.2479  -11.5664 O   0  0  0  0  0  0  0  0  0  0  0  0
   15.9107   -7.4484  -11.8322 C   0  0  0  0  0  0  0  0  0  0  0  0
   15.0346   -6.9233  -12.5597 O   0  0  0  0  0  0  0  0  0  0  0  0
   18.0876   -4.8546  -13.0931 O   0  0  0  0  0  0  0  0  0  0  0  0
   15.7869   -7.1177   -7.4615 C   0  0  0  0  0  0  0  0  0  0  0  0
   14.5718   -7.3202   -8.3268 C   0  0  1  0  0  0  0  0  0  0  0  0
   13.3599   -6.8156   -7.6203 C   0  0  0  0  0  0  0  0  0  0  0  0
   14.7662   -6.6789   -9.6909 C   0  0  2  0  0  0  0  0  0  0  0  0
   15.7975   -7.3016  -10.4474 N   0  0  0  0  0  0  0  0  0  0  0  0
   14.8034   -5.2119   -9.6046 C   0  0  0  0  0  0  0  0  0  0  0  0
   13.8127   -4.5387   -9.2790 O   0  0  0  0  0  0  0  0  0  0  0  0
   15.9844   -4.5626   -9.9000 O   0  0  0  0  0  0  0  0  0  0  0  0
  2  8  1  0
  2  1  1  1
  3  2  1  0
  4  3  1  0
  5  4  1  0
  6  5  1  0
  7  6  1  0
  8  9  2  0
 10 11  1  0
 10  8  1  0
 11 12  1  6
 12 13  1  0
 13 14  2  0
 15 11  1  0
 16 15  2  0
 17 13  1  0
 19 18  1  1
 19 21  1  0
 20 19  1  0
 21 23  1  0
 21 22  1  1
 22 15  1  0
 23 25  1  0
 24 23  2  0
M  END
$$$$
