KDV.pdb
     RDKit          3D

 25 24  0  0  1  0  0  0  0  0999 V2000
   25.8156  -22.8060  -12.4467 N   0  0  0  0  0  0  0  0  0  0  0  0
   25.2298  -21.4807  -12.1973 C   0  0  1  0  0  0  0  0  0  0  0  0
   25.9741  -20.6522  -11.2230 C   0  0  0  0  0  0  0  0  0  0  0  0
   25.4234  -20.5178   -9.8607 C   0  0  0  0  0  0  0  0  0  0  0  0
   24.1355  -21.1692   -9.5437 C   0  0  0  0  0  0  0  0  0  0  0  0
   23.5388  -20.8976   -8.2040 C   0  0  0  0  0  0  0  0  0  0  0  0
   22.3431  -21.7621   -8.1107 N   0  0  0  0  0  0  0  0  0  0  0  0
   25.0446  -20.8141  -13.5221 C   0  0  0  0  0  0  0  0  0  0  0  0
   25.9392  -20.6134  -14.3537 O   0  0  0  0  0  0  0  0  0  0  0  0
   23.7192  -20.3571  -13.8840 N   0  0  0  0  0  0  0  0  0  0  0  0
   23.4714  -19.7869  -15.1884 C   0  0  1  0  0  0  0  0  0  0  0  0
   22.0447  -19.8089  -15.5814 C   0  0  0  0  0  0  0  0  0  0  0  0
   21.8269  -19.4039  -16.9954 C   0  0  0  0  0  0  0  0  0  0  0  0
   22.8336  -19.1384  -17.6945 O   0  0  0  0  0  0  0  0  0  0  0  0
   24.1388  -18.4605  -15.3407 C   0  0  0  0  0  0  0  0  0  0  0  0
   23.6806  -17.4930  -14.6876 O   0  0  0  0  0  0  0  0  0  0  0  0
   20.5784  -19.3036  -17.5824 O   0  0  0  0  0  0  0  0  0  0  0  0
   27.6514  -17.2894  -14.7512 C   0  0  0  0  0  0  0  0  0  0  0  0
   27.3850  -17.0473  -16.2129 C   0  0  1  0  0  0  0  0  0  0  0  0
   28.1029  -18.0656  -17.0317 C   0  0  0  0  0  0  0  0  0  0  0  0
   25.8915  -17.0154  -16.4925 C   0  0  2  0  0  0  0  0  0  0  0  0
   25.2459  -18.2396  -16.1638 N   0  0  0  0  0  0  0  0  0  0  0  0
   25.5954  -16.4461  -17.8152 C   0  0  0  0  0  0  0  0  0  0  0  0
   24.9674  -17.0717  -18.6840 O   0  0  0  0  0  0  0  0  0  0  0  0
   26.0360  -15.1697  -18.0985 O   0  0  0  0  0  0  0  0  0  0  0  0
  2  8  1  0
  2  1  1  6
  3  2  1  0
  4  3  1  0
  5  4  1  0
  6  5  1  0
  7  6  1  0
  8  9  2  0
 10 11  1  0
 10  8  1  0
 11 12  1  1
 12 13  1  0
 13 14  2  0
 15 11  1  0
 16 15  2  0
 17 13  1  0
 19 18  1  1
 19 21  1  0
 20 19  1  0
 21 23  1  0
 21 22  1  6
 22 15  1  0
 23 25  1  0
 24 23  2  0
M  END
$$$$
