KDV.pdb
     RDKit          3D

 25 24  0  0  1  0  0  0  0  0999 V2000
   20.8326  -19.4643  -17.5122 N   0  0  0  0  0  0  0  0  0  0  0  0
   21.9074  -18.6483  -16.9285 C   0  0  1  0  0  0  0  0  0  0  0  0
   21.4413  -17.5610  -16.0398 C   0  0  0  0  0  0  0  0  0  0  0  0
   20.1521  -16.9137  -16.3503 C   0  0  0  0  0  0  0  0  0  0  0  0
   18.9822  -17.7630  -16.6561 C   0  0  0  0  0  0  0  0  0  0  0  0
   17.7324  -17.0789  -17.0974 C   0  0  0  0  0  0  0  0  0  0  0  0
   16.7291  -17.3511  -16.0462 N   0  0  0  0  0  0  0  0  0  0  0  0
   22.8720  -19.5801  -16.2686 C   0  0  0  0  0  0  0  0  0  0  0  0
   22.5650  -20.5084  -15.5096 O   0  0  0  0  0  0  0  0  0  0  0  0
   24.2861  -19.4012  -16.5229 N   0  0  0  0  0  0  0  0  0  0  0  0
   25.2541  -20.3082  -15.9499 C   0  0  1  0  0  0  0  0  0  0  0  0
   26.3599  -20.6516  -16.8717 C   0  0  0  0  0  0  0  0  0  0  0  0
   27.3076  -21.6422  -16.2962 C   0  0  0  0  0  0  0  0  0  0  0  0
   27.0430  -22.1261  -15.1699 O   0  0  0  0  0  0  0  0  0  0  0  0
   25.6898  -19.8579  -14.5952 C   0  0  0  0  0  0  0  0  0  0  0  0
   26.4206  -18.8416  -14.5199 O   0  0  0  0  0  0  0  0  0  0  0  0
   28.4629  -22.0597  -16.9321 O   0  0  0  0  0  0  0  0  0  0  0  0
   24.9966  -22.4680  -11.1327 C   0  0  0  0  0  0  0  0  0  0  0  0
   24.9744  -20.9662  -11.0306 C   0  0  1  0  0  0  0  0  0  0  0  0
   25.3567  -20.5489   -9.6514 C   0  0  0  0  0  0  0  0  0  0  0  0
   25.8539  -20.3384  -12.0993 C   0  0  2  0  0  0  0  0  0  0  0  0
   25.3248  -20.5010  -13.4098 N   0  0  0  0  0  0  0  0  0  0  0  0
   27.2711  -20.6809  -11.9112 C   0  0  0  0  0  0  0  0  0  0  0  0
   27.9099  -21.3501  -12.7386 O   0  0  0  0  0  0  0  0  0  0  0  0
   27.9106  -20.2426  -10.7700 O   0  0  0  0  0  0  0  0  0  0  0  0
  2  8  1  0
  2  1  1  1
  3  2  1  0
  4  3  1  0
  5  4  1  0
  6  5  1  0
  7  6  1  0
  8  9  2  0
 10 11  1  0
 10  8  1  0
 11 12  1  6
 12 13  1  0
 13 14  2  0
 15 11  1  0
 16 15  2  0
 17 13  1  0
 19 18  1  1
 19 21  1  0
 20 19  1  0
 21 23  1  0
 21 22  1  6
 22 15  1  0
 23 25  1  0
 24 23  2  0
M  END
$$$$
