KDV.pdb
     RDKit          3D

 25 24  0  0  1  0  0  0  0  0999 V2000
   16.6652  -12.4845  -19.7087 N   0  0  0  0  0  0  0  0  0  0  0  0
   16.5758  -11.7848  -18.4187 C   0  0  1  0  0  0  0  0  0  0  0  0
   15.7366  -12.4642  -17.4069 C   0  0  0  0  0  0  0  0  0  0  0  0
   14.6074  -13.2880  -17.8798 C   0  0  0  0  0  0  0  0  0  0  0  0
   14.7002  -14.7584  -17.7676 C   0  0  0  0  0  0  0  0  0  0  0  0
   13.4850  -15.5523  -18.1106 C   0  0  0  0  0  0  0  0  0  0  0  0
   13.9018  -16.9701  -18.0661 N   0  0  0  0  0  0  0  0  0  0  0  0
   17.9710  -11.5225  -17.9514 C   0  0  0  0  0  0  0  0  0  0  0  0
   18.4546  -11.9192  -16.8832 O   0  0  0  0  0  0  0  0  0  0  0  0
   18.8468  -10.7428  -18.8008 N   0  0  0  0  0  0  0  0  0  0  0  0
   20.2113  -10.4815  -18.4031 C   0  0  1  0  0  0  0  0  0  0  0  0
   21.0947  -10.1108  -19.5312 C   0  0  0  0  0  0  0  0  0  0  0  0
   21.2319  -11.1944  -20.5400 C   0  0  0  0  0  0  0  0  0  0  0  0
   21.5318  -12.3427  -20.1348 O   0  0  0  0  0  0  0  0  0  0  0  0
   20.2718   -9.5551  -17.2344 C   0  0  0  0  0  0  0  0  0  0  0  0
   19.5488   -8.5307  -17.2576 O   0  0  0  0  0  0  0  0  0  0  0  0
   21.0477  -11.0078  -21.8981 O   0  0  0  0  0  0  0  0  0  0  0  0
   23.3489   -9.9977  -14.1170 C   0  0  0  0  0  0  0  0  0  0  0  0
   21.9034   -9.7110  -13.8098 C   0  0  1  0  0  0  0  0  0  0  0  0
   21.7980   -8.9855  -12.5117 C   0  0  0  0  0  0  0  0  0  0  0  0
   21.2450   -8.9619  -14.9566 C   0  0  2  0  0  0  0  0  0  0  0  0
   21.0829   -9.7687  -16.1170 N   0  0  0  0  0  0  0  0  0  0  0  0
   21.8400   -7.6322  -15.1536 C   0  0  0  0  0  0  0  0  0  0  0  0
   22.6532   -7.3943  -16.0606 O   0  0  0  0  0  0  0  0  0  0  0  0
   21.4807   -6.6140  -14.2947 O   0  0  0  0  0  0  0  0  0  0  0  0
  2  8  1  0
  2  1  1  6
  3  2  1  0
  4  3  1  0
  5  4  1  0
  6  5  1  0
  7  6  1  0
  8  9  2  0
 10 11  1  0
 10  8  1  0
 11 12  1  6
 12 13  1  0
 13 14  2  0
 15 11  1  0
 16 15  2  0
 17 13  1  0
 19 18  1  6
 19 21  1  0
 20 19  1  0
 21 23  1  0
 21 22  1  6
 22 15  1  0
 23 25  1  0
 24 23  2  0
M  END
$$$$
