KDV.pdb
     RDKit          3D

 25 24  0  0  1  0  0  0  0  0999 V2000
   25.5007  -23.3950  -15.5991 N   0  0  0  0  0  0  0  0  0  0  0  0
   24.6454  -24.5811  -15.7521 C   0  0  1  0  0  0  0  0  0  0  0  0
   25.3395  -25.8713  -15.5448 C   0  0  0  0  0  0  0  0  0  0  0  0
   25.7185  -26.6561  -16.7356 C   0  0  0  0  0  0  0  0  0  0  0  0
   24.6532  -27.2727  -17.5530 C   0  0  0  0  0  0  0  0  0  0  0  0
   25.0728  -28.0684  -18.7428 C   0  0  0  0  0  0  0  0  0  0  0  0
   23.8223  -28.5271  -19.3845 N   0  0  0  0  0  0  0  0  0  0  0  0
   23.4583  -24.3977  -14.8626 C   0  0  0  0  0  0  0  0  0  0  0  0
   23.4708  -24.4751  -13.6273 O   0  0  0  0  0  0  0  0  0  0  0  0
   22.1786  -24.1050  -15.4734 N   0  0  0  0  0  0  0  0  0  0  0  0
   21.0055  -23.9005  -14.6547 C   0  0  1  0  0  0  0  0  0  0  0  0
   20.1334  -22.8056  -15.1351 C   0  0  0  0  0  0  0  0  0  0  0  0
   20.6560  -21.4562  -14.7935 C   0  0  0  0  0  0  0  0  0  0  0  0
   20.9338  -20.6757  -15.7350 O   0  0  0  0  0  0  0  0  0  0  0  0
   20.2980  -25.1864  -14.3828 C   0  0  0  0  0  0  0  0  0  0  0  0
   20.0150  -25.9200  -15.3596 O   0  0  0  0  0  0  0  0  0  0  0  0
   20.8528  -21.0137  -13.4978 O   0  0  0  0  0  0  0  0  0  0  0  0
   21.3496  -27.5836  -11.5080 C   0  0  0  0  0  0  0  0  0  0  0  0
   19.8603  -27.3875  -11.4107 C   0  0  1  0  0  0  0  0  0  0  0  0
   19.5400  -26.5345  -10.2307 C   0  0  0  0  0  0  0  0  0  0  0  0
   19.3025  -26.8278  -12.7089 C   0  0  2  0  0  0  0  0  0  0  0  0
   19.9400  -25.6188  -13.1034 N   0  0  0  0  0  0  0  0  0  0  0  0
   17.8324  -26.8339  -12.7195 C   0  0  0  0  0  0  0  0  0  0  0  0
   17.1616  -25.7929  -12.6371 O   0  0  0  0  0  0  0  0  0  0  0  0
   17.1778  -28.0441  -12.8222 O   0  0  0  0  0  0  0  0  0  0  0  0
  2  8  1  0
  2  1  1  1
  3  2  1  0
  4  3  1  0
  5  4  1  0
  6  5  1  0
  7  6  1  0
  8  9  2  0
 10 11  1  0
 10  8  1  0
 11 12  1  6
 12 13  1  0
 13 14  2  0
 15 11  1  0
 16 15  2  0
 17 13  1  0
 19 18  1  6
 19 21  1  0
 20 19  1  0
 21 23  1  0
 21 22  1  1
 22 15  1  0
 23 25  1  0
 24 23  2  0
M  END
$$$$
