KDV.pdb
     RDKit          3D

 25 24  0  0  1  0  0  0  0  0999 V2000
   28.0644  -18.3819  -18.8763 N   0  0  0  0  0  0  0  0  0  0  0  0
   26.7890  -18.7278  -19.5207 C   0  0  1  0  0  0  0  0  0  0  0  0
   26.9220  -19.3246  -20.8681 C   0  0  0  0  0  0  0  0  0  0  0  0
   27.8057  -18.6541  -21.8413 C   0  0  0  0  0  0  0  0  0  0  0  0
   29.0771  -18.0697  -21.3667 C   0  0  0  0  0  0  0  0  0  0  0  0
   29.9047  -17.3250  -22.3593 C   0  0  0  0  0  0  0  0  0  0  0  0
   29.6399  -15.8915  -22.1130 N   0  0  0  0  0  0  0  0  0  0  0  0
   26.0208  -19.5846  -18.5668 C   0  0  0  0  0  0  0  0  0  0  0  0
   24.9184  -20.0992  -18.7953 O   0  0  0  0  0  0  0  0  0  0  0  0
   26.5928  -19.8476  -17.2630 N   0  0  0  0  0  0  0  0  0  0  0  0
   25.8851  -20.6640  -16.3035 C   0  0  1  0  0  0  0  0  0  0  0  0
   26.7624  -21.2504  -15.2657 C   0  0  0  0  0  0  0  0  0  0  0  0
   27.7184  -22.2496  -15.8121 C   0  0  0  0  0  0  0  0  0  0  0  0
   28.9156  -21.9042  -15.9537 O   0  0  0  0  0  0  0  0  0  0  0  0
   24.6778  -19.9634  -15.7749 C   0  0  0  0  0  0  0  0  0  0  0  0
   24.8522  -19.0088  -14.9807 O   0  0  0  0  0  0  0  0  0  0  0  0
   27.3623  -23.5368  -16.1722 O   0  0  0  0  0  0  0  0  0  0  0  0
   20.7684  -20.8510  -17.4317 C   0  0  0  0  0  0  0  0  0  0  0  0
   21.1501  -19.5334  -16.8118 C   0  0  1  0  0  0  0  0  0  0  0  0
   19.9232  -18.8053  -16.3795 C   0  0  0  0  0  0  0  0  0  0  0  0
   22.1428  -19.7361  -15.6789 C   0  0  2  0  0  0  0  0  0  0  0  0
   23.3685  -20.3080  -16.1197 N   0  0  0  0  0  0  0  0  0  0  0  0
   21.5113  -20.3517  -14.5027 C   0  0  0  0  0  0  0  0  0  0  0  0
   21.7060  -21.5358  -14.1856 O   0  0  0  0  0  0  0  0  0  0  0  0
   20.6692  -19.5822  -13.7266 O   0  0  0  0  0  0  0  0  0  0  0  0
  2  8  1  0
  2  1  1  1
  3  2  1  0
  4  3  1  0
  5  4  1  0
  6  5  1  0
  7  6  1  0
  8  9  2  0
 10 11  1  0
 10  8  1  0
 11 12  1  1
 12 13  1  0
 13 14  2  0
 15 11  1  0
 16 15  2  0
 17 13  1  0
 19 18  1  1
 19 21  1  0
 20 19  1  0
 21 23  1  0
 21 22  1  6
 22 15  1  0
 23 25  1  0
 24 23  2  0
M  END
$$$$
