KDV.pdb
     RDKit          3D

 25 24  0  0  1  0  0  0  0  0999 V2000
   16.7030  -11.8314  -14.2928 N   0  0  0  0  0  0  0  0  0  0  0  0
   17.6713  -11.8719  -15.3985 C   0  0  1  0  0  0  0  0  0  0  0  0
   17.1702  -12.5169  -16.6323 C   0  0  0  0  0  0  0  0  0  0  0  0
   15.7634  -12.2880  -17.0143 C   0  0  0  0  0  0  0  0  0  0  0  0
   14.7986  -13.3997  -16.8852 C   0  0  0  0  0  0  0  0  0  0  0  0
   13.3915  -13.1417  -17.3075 C   0  0  0  0  0  0  0  0  0  0  0  0
   12.6674  -14.4142  -17.1019 N   0  0  0  0  0  0  0  0  0  0  0  0
   18.1633  -10.4775  -15.6170 C   0  0  0  0  0  0  0  0  0  0  0  0
   18.9841  -10.1348  -16.4778 O   0  0  0  0  0  0  0  0  0  0  0  0
   17.6522   -9.4251  -14.7640 N   0  0  0  0  0  0  0  0  0  0  0  0
   18.0260   -8.0485  -14.9946 C   0  0  1  0  0  0  0  0  0  0  0  0
   16.8738   -7.1200  -15.0210 C   0  0  0  0  0  0  0  0  0  0  0  0
   17.2652   -5.7195  -15.3311 C   0  0  0  0  0  0  0  0  0  0  0  0
   16.7322   -4.7978  -14.6683 O   0  0  0  0  0  0  0  0  0  0  0  0
   19.1439   -7.6284  -14.0992 C   0  0  0  0  0  0  0  0  0  0  0  0
   18.9282   -7.5968  -12.8642 O   0  0  0  0  0  0  0  0  0  0  0  0
   18.1827   -5.3762  -16.3076 O   0  0  0  0  0  0  0  0  0  0  0  0
   22.6395   -9.1292  -13.9427 C   0  0  0  0  0  0  0  0  0  0  0  0
   22.8097   -7.6588  -14.2167 C   0  0  1  0  0  0  0  0  0  0  0  0
   23.1815   -7.4518  -15.6455 C   0  0  0  0  0  0  0  0  0  0  0  0
   21.5638   -6.8862  -13.8160 C   0  0  2  0  0  0  0  0  0  0  0  0
   20.4148   -7.2751  -14.5592 N   0  0  0  0  0  0  0  0  0  0  0  0
   21.8259   -5.4435  -13.7107 C   0  0  0  0  0  0  0  0  0  0  0  0
   21.3211   -4.6166  -14.4867 O   0  0  0  0  0  0  0  0  0  0  0  0
   22.6670   -4.9961  -12.7127 O   0  0  0  0  0  0  0  0  0  0  0  0
  2  8  1  0
  2  1  1  1
  3  2  1  0
  4  3  1  0
  5  4  1  0
  6  5  1  0
  7  6  1  0
  8  9  2  0
 10 11  1  0
 10  8  1  0
 11 12  1  1
 12 13  1  0
 13 14  2  0
 15 11  1  0
 16 15  2  0
 17 13  1  0
 19 18  1  6
 19 21  1  0
 20 19  1  0
 21 23  1  0
 21 22  1  6
 22 15  1  0
 23 25  1  0
 24 23  2  0
M  END
$$$$
