KDV.pdb
     RDKit          3D

 25 24  0  0  1  0  0  0  0  0999 V2000
   26.8757  -19.5166  -16.8522 N   0  0  0  0  0  0  0  0  0  0  0  0
   26.2909  -19.5699  -15.5043 C   0  0  1  0  0  0  0  0  0  0  0  0
   26.9661  -18.7114  -14.5060 C   0  0  0  0  0  0  0  0  0  0  0  0
   27.2848  -19.2954  -13.1889 C   0  0  0  0  0  0  0  0  0  0  0  0
   26.9784  -20.7204  -12.9467 C   0  0  0  0  0  0  0  0  0  0  0  0
   27.2498  -21.2601  -11.5830 C   0  0  0  0  0  0  0  0  0  0  0  0
   26.7699  -22.6584  -11.5981 N   0  0  0  0  0  0  0  0  0  0  0  0
   24.8292  -19.2873  -15.6365 C   0  0  0  0  0  0  0  0  0  0  0  0
   24.3291  -18.1677  -15.8058 O   0  0  0  0  0  0  0  0  0  0  0  0
   23.9034  -20.3982  -15.5637 N   0  0  0  0  0  0  0  0  0  0  0  0
   22.4774  -20.1671  -15.5974 C   0  0  1  0  0  0  0  0  0  0  0  0
   21.8527  -20.5171  -16.8927 C   0  0  0  0  0  0  0  0  0  0  0  0
   21.8513  -19.3875  -17.8595 C   0  0  0  0  0  0  0  0  0  0  0  0
   22.7283  -18.5003  -17.7309 O   0  0  0  0  0  0  0  0  0  0  0  0
   21.8008  -20.7508  -14.4019 C   0  0  0  0  0  0  0  0  0  0  0  0
   22.0254  -21.9537  -14.1277 O   0  0  0  0  0  0  0  0  0  0  0  0
   20.9388  -19.2601  -18.8911 O   0  0  0  0  0  0  0  0  0  0  0  0
   21.6380  -19.1704  -10.8530 C   0  0  0  0  0  0  0  0  0  0  0  0
   20.2289  -19.4575  -11.2978 C   0  0  1  0  0  0  0  0  0  0  0  0
   19.5447  -18.1832  -11.6593 C   0  0  0  0  0  0  0  0  0  0  0  0
   20.2148  -20.4731  -12.4284 C   0  0  2  0  0  0  0  0  0  0  0  0
   20.9382  -20.0315  -13.5709 N   0  0  0  0  0  0  0  0  0  0  0  0
   18.8662  -21.0078  -12.6657 C   0  0  0  0  0  0  0  0  0  0  0  0
   18.2585  -21.6816  -11.8188 O   0  0  0  0  0  0  0  0  0  0  0  0
   18.2578  -20.7513  -13.8772 O   0  0  0  0  0  0  0  0  0  0  0  0
  2  8  1  0
  2  1  1  6
  3  2  1  0
  4  3  1  0
  5  4  1  0
  6  5  1  0
  7  6  1  0
  8  9  2  0
 10 11  1  0
 10  8  1  0
 11 12  1  6
 12 13  1  0
 13 14  2  0
 15 11  1  0
 16 15  2  0
 17 13  1  0
 19 18  1  6
 19 21  1  0
 20 19  1  0
 21 23  1  0
 21 22  1  6
 22 15  1  0
 23 25  1  0
 24 23  2  0
M  END
$$$$
