KDV.pdb
     RDKit          3D

 25 24  0  0  1  0  0  0  0  0999 V2000
   17.4506  -12.6674  -20.1123 N   0  0  0  0  0  0  0  0  0  0  0  0
   17.4304  -12.4674  -18.6559 C   0  0  1  0  0  0  0  0  0  0  0  0
   17.5983  -13.7049  -17.8622 C   0  0  0  0  0  0  0  0  0  0  0  0
   18.0632  -14.9198  -18.5587 C   0  0  0  0  0  0  0  0  0  0  0  0
   18.3029  -16.1468  -17.7711 C   0  0  0  0  0  0  0  0  0  0  0  0
   18.7855  -17.3521  -18.5052 C   0  0  0  0  0  0  0  0  0  0  0  0
   19.0792  -18.3660  -17.4701 N   0  0  0  0  0  0  0  0  0  0  0  0
   18.4409  -11.4147  -18.3322 C   0  0  0  0  0  0  0  0  0  0  0  0
   19.6582  -11.6039  -18.2117 O   0  0  0  0  0  0  0  0  0  0  0  0
   17.9816  -10.0551  -18.1393 N   0  0  0  0  0  0  0  0  0  0  0  0
   18.9273   -8.9895  -17.8980 C   0  0  1  0  0  0  0  0  0  0  0  0
   18.4878   -7.6788  -18.4265 C   0  0  0  0  0  0  0  0  0  0  0  0
   18.4060   -7.6504  -19.9108 C   0  0  0  0  0  0  0  0  0  0  0  0
   19.3091   -8.2272  -20.5623 O   0  0  0  0  0  0  0  0  0  0  0  0
   19.3752   -8.9684  -16.4743 C   0  0  0  0  0  0  0  0  0  0  0  0
   18.4982   -9.0378  -15.5807 O   0  0  0  0  0  0  0  0  0  0  0  0
   17.3915   -7.0248  -20.6127 O   0  0  0  0  0  0  0  0  0  0  0  0
   22.0432  -11.1545  -14.8829 C   0  0  0  0  0  0  0  0  0  0  0  0
   22.4360   -9.7363  -14.5662 C   0  0  1  0  0  0  0  0  0  0  0  0
   23.6345   -9.3544  -15.3663 C   0  0  0  0  0  0  0  0  0  0  0  0
   21.2644   -8.7910  -14.7754 C   0  0  2  0  0  0  0  0  0  0  0  0
   20.7138   -8.8816  -16.0840 N   0  0  0  0  0  0  0  0  0  0  0  0
   21.5555   -7.4406  -14.2727 C   0  0  0  0  0  0  0  0  0  0  0  0
   21.6960   -6.4650  -15.0271 O   0  0  0  0  0  0  0  0  0  0  0  0
   21.6792   -7.2552  -12.9111 O   0  0  0  0  0  0  0  0  0  0  0  0
  2  8  1  0
  2  1  1  6
  3  2  1  0
  4  3  1  0
  5  4  1  0
  6  5  1  0
  7  6  1  0
  8  9  2  0
 10 11  1  0
 10  8  1  0
 11 12  1  1
 12 13  1  0
 13 14  2  0
 15 11  1  0
 16 15  2  0
 17 13  1  0
 19 18  1  6
 19 21  1  0
 20 19  1  0
 21 23  1  0
 21 22  1  6
 22 15  1  0
 23 25  1  0
 24 23  2  0
M  END
$$$$
