QTF.pdb
     RDKit          3D

 28 28  0  0  1  0  0  0  0  0999 V2000
   11.1327  -19.1728   15.2591 N   0  0  0  0  0  0  0  0  0  0  0  0
   10.3245  -18.0018   15.3030 C   0  0  0  0  0  0  0  0  0  0  0  0
   10.7981  -16.9503   14.8128 O   0  0  0  0  0  0  0  0  0  0  0  0
    8.9418  -18.0281   15.9172 C   0  0  0  0  0  0  0  0  0  0  0  0
    8.9114  -16.9841   16.9909 C   0  0  0  0  0  0  0  0  0  0  0  0
    9.3510  -17.4350   18.3367 C   0  0  2  0  0  0  0  0  0  0  0  0
    9.1748  -18.8811   18.4181 N   0  0  0  0  0  0  0  0  0  0  0  0
    8.8304  -16.6973   19.4880 C   0  0  0  0  0  0  0  0  0  0  0  0
    8.8482  -15.4507   19.4671 O   0  0  0  0  0  0  0  0  0  0  0  0
    5.5311  -17.1649   20.9171 C   0  0  0  0  0  0  0  0  0  0  0  0
    6.3730  -17.2599   22.1852 C   0  0  1  0  0  0  0  0  0  0  0  0
    6.5551  -18.6151   22.4088 O   0  0  0  0  0  0  0  0  0  0  0  0
    7.7464  -16.6700   21.8049 C   0  0  2  0  0  0  0  0  0  0  0  0
    8.2938  -17.3203   20.6640 N   0  0  0  0  0  0  0  0  0  0  0  0
    8.6081  -16.6213   22.9925 C   0  0  0  0  0  0  0  0  0  0  0  0
    9.6705  -17.3057   23.1042 O   0  0  0  0  0  0  0  0  0  0  0  0
    8.3239  -15.7876   24.1256 N   0  0  0  0  0  0  0  0  0  0  0  0
    9.1711  -15.7669   25.3159 C   0  0  1  0  0  0  0  0  0  0  0  0
    9.6087  -14.3874   25.6572 C   0  0  0  0  0  0  0  0  0  0  0  0
    8.4573  -13.4822   25.7906 C   0  0  0  0  0  0  0  0  0  0  0  0
    7.9097  -13.2341   27.0447 C   0  0  0  0  0  0  0  0  0  0  0  0
    6.8397  -12.4002   27.2280 C   0  0  0  0  0  0  0  0  0  0  0  0
    6.2380  -11.7483   26.1438 C   0  0  0  0  0  0  0  0  0  0  0  0
    6.7810  -11.9928   24.8974 C   0  0  0  0  0  0  0  0  0  0  0  0
    7.8580  -12.8333   24.7184 C   0  0  0  0  0  0  0  0  0  0  0  0
    8.5220  -16.4506   26.4520 C   0  0  0  0  0  0  0  0  0  0  0  0
    9.1070  -16.7833   27.6456 O   0  0  0  0  0  0  0  0  0  0  0  0
    7.2783  -16.7820   26.3342 O   0  0  0  0  0  0  0  0  0  0  0  0
  2  3  2  0
  2  1  1  0
  4  2  1  0
  5  4  1  0
  6  5  1  0
  6  7  1  1
  8  9  2  0
  8  6  1  0
 11 10  1  6
 11 13  1  0
 12 11  1  0
 13 14  1  6
 14  8  1  0
 15 13  1  0
 15 16  2  0
 17 15  1  0
 18 17  1  0
 18 19  1  1
 20 19  1  0
 20 21  2  0
 22 21  1  0
 23 22  2  0
 24 25  2  0
 24 23  1  0
 25 20  1  0
 26 18  1  0
 27 26  1  0
 28 26  2  0
M  END
$$$$
