QTF.pdb
     RDKit          3D

 28 28  0  0  1  0  0  0  0  0999 V2000
    7.6264  -12.1720   18.1292 N   0  0  0  0  0  0  0  0  0  0  0  0
    8.5911  -12.6152   19.0775 C   0  0  0  0  0  0  0  0  0  0  0  0
    8.7003  -11.9645   20.1428 O   0  0  0  0  0  0  0  0  0  0  0  0
    9.4512  -13.8309   18.8087 C   0  0  0  0  0  0  0  0  0  0  0  0
    8.5278  -14.9781   18.5350 C   0  0  0  0  0  0  0  0  0  0  0  0
    8.8101  -16.2241   19.2936 C   0  0  2  0  0  0  0  0  0  0  0  0
    8.7640  -17.3488   18.3651 N   0  0  0  0  0  0  0  0  0  0  0  0
    8.0603  -16.4325   20.5326 C   0  0  0  0  0  0  0  0  0  0  0  0
    6.8495  -16.7225   20.4663 O   0  0  0  0  0  0  0  0  0  0  0  0
    6.6865  -18.2579   21.7912 C   0  0  0  0  0  0  0  0  0  0  0  0
    7.5199  -18.1339   23.0624 C   0  0  1  0  0  0  0  0  0  0  0  0
    8.6254  -18.9447   22.8617 O   0  0  0  0  0  0  0  0  0  0  0  0
    8.0193  -16.6747   23.0789 C   0  0  2  0  0  0  0  0  0  0  0  0
    8.6312  -16.3205   21.8442 N   0  0  0  0  0  0  0  0  0  0  0  0
    8.8231  -16.4421   24.2850 C   0  0  0  0  0  0  0  0  0  0  0  0
   10.0836  -16.3003   24.2590 O   0  0  0  0  0  0  0  0  0  0  0  0
    8.2479  -16.3479   25.5965 N   0  0  0  0  0  0  0  0  0  0  0  0
    9.0426  -16.0272   26.7800 C   0  0  1  0  0  0  0  0  0  0  0  0
    8.2477  -15.2831   27.7927 C   0  0  0  0  0  0  0  0  0  0  0  0
    7.6446  -14.0742   27.2116 C   0  0  0  0  0  0  0  0  0  0  0  0
    6.3582  -14.1232   26.6852 C   0  0  0  0  0  0  0  0  0  0  0  0
    5.7472  -13.0295   26.1336 C   0  0  0  0  0  0  0  0  0  0  0  0
    6.3999  -11.7914   26.0733 C   0  0  0  0  0  0  0  0  0  0  0  0
    7.6774  -11.7405   26.5963 C   0  0  0  0  0  0  0  0  0  0  0  0
    8.2878  -12.8445   27.1502 C   0  0  0  0  0  0  0  0  0  0  0  0
    9.6852  -17.2322   27.3410 C   0  0  0  0  0  0  0  0  0  0  0  0
   10.7103  -17.2614   28.2498 O   0  0  0  0  0  0  0  0  0  0  0  0
    9.2590  -18.3882   26.9505 O   0  0  0  0  0  0  0  0  0  0  0  0
  2  3  2  0
  2  1  1  0
  4  2  1  0
  5  4  1  0
  6  5  1  0
  6  7  1  6
  8  9  2  0
  8  6  1  0
 11 10  1  6
 11 13  1  0
 12 11  1  0
 13 14  1  6
 14  8  1  0
 15 13  1  0
 15 16  2  0
 17 15  1  0
 18 17  1  0
 18 19  1  1
 20 19  1  0
 20 21  2  0
 22 21  1  0
 23 22  2  0
 24 25  2  0
 24 23  1  0
 25 20  1  0
 26 18  1  0
 27 26  1  0
 28 26  2  0
M  END
$$$$
