QTF.pdb
     RDKit          3D

 28 28  0  0  1  0  0  0  0  0999 V2000
   15.6175  -15.1569   18.0642 N   0  0  0  0  0  0  0  0  0  0  0  0
   14.4198  -14.4337   18.3264 C   0  0  0  0  0  0  0  0  0  0  0  0
   14.4693  -13.5175   19.1798 O   0  0  0  0  0  0  0  0  0  0  0  0
   13.1341  -14.7587   17.5974 C   0  0  0  0  0  0  0  0  0  0  0  0
   12.4254  -15.8121   18.3923 C   0  0  0  0  0  0  0  0  0  0  0  0
   10.9856  -15.9955   18.0746 C   0  0  2  0  0  0  0  0  0  0  0  0
   10.6258  -15.0612   17.0130 N   0  0  0  0  0  0  0  0  0  0  0  0
   10.0534  -16.0168   19.2021 C   0  0  0  0  0  0  0  0  0  0  0  0
    9.2080  -15.1062   19.3064 O   0  0  0  0  0  0  0  0  0  0  0  0
    7.9496  -18.8274   20.2598 C   0  0  0  0  0  0  0  0  0  0  0  0
    8.6191  -18.4794   21.5852 C   0  0  1  0  0  0  0  0  0  0  0  0
    9.6752  -19.3673   21.7117 O   0  0  0  0  0  0  0  0  0  0  0  0
    9.2234  -17.0757   21.3778 C   0  0  2  0  0  0  0  0  0  0  0  0
   10.0464  -17.0299   20.2181 N   0  0  0  0  0  0  0  0  0  0  0  0
    9.8452  -16.6170   22.6261 C   0  0  0  0  0  0  0  0  0  0  0  0
   11.1007  -16.5115   22.7748 O   0  0  0  0  0  0  0  0  0  0  0  0
    9.0825  -16.2417   23.7824 N   0  0  0  0  0  0  0  0  0  0  0  0
    9.7104  -15.8380   25.0385 C   0  0  1  0  0  0  0  0  0  0  0  0
    8.7427  -15.1704   25.9489 C   0  0  0  0  0  0  0  0  0  0  0  0
    9.3911  -14.7548   27.2017 C   0  0  0  0  0  0  0  0  0  0  0  0
    9.4760  -15.6430   28.2686 C   0  0  0  0  0  0  0  0  0  0  0  0
   10.0691  -15.3108   29.4567 C   0  0  0  0  0  0  0  0  0  0  0  0
   10.6267  -14.0411   29.6554 C   0  0  0  0  0  0  0  0  0  0  0  0
   10.5441  -13.1576   28.5966 C   0  0  0  0  0  0  0  0  0  0  0  0
    9.9457  -13.4971   27.4029 C   0  0  0  0  0  0  0  0  0  0  0  0
   10.4033  -16.9709   25.6838 C   0  0  0  0  0  0  0  0  0  0  0  0
   11.6376  -16.9402   26.2780 O   0  0  0  0  0  0  0  0  0  0  0  0
    9.8093  -18.1185   25.7014 O   0  0  0  0  0  0  0  0  0  0  0  0
  2  3  2  0
  2  1  1  0
  4  2  1  0
  5  4  1  0
  6  5  1  0
  6  7  1  6
  8  9  2  0
  8  6  1  0
 11 10  1  6
 11 13  1  0
 12 11  1  0
 13 14  1  6
 14  8  1  0
 15 13  1  0
 15 16  2  0
 17 15  1  0
 18 17  1  0
 18 19  1  1
 20 19  1  0
 20 21  2  0
 22 21  1  0
 23 22  2  0
 24 25  2  0
 24 23  1  0
 25 20  1  0
 26 18  1  0
 27 26  1  0
 28 26  2  0
M  END
$$$$
