QTF.pdb
     RDKit          3D

 28 28  0  0  1  0  0  0  0  0999 V2000
    8.1314  -12.2029   18.2184 N   0  0  0  0  0  0  0  0  0  0  0  0
    8.1425  -13.5375   17.7234 C   0  0  0  0  0  0  0  0  0  0  0  0
    8.8281  -13.7724   16.7012 O   0  0  0  0  0  0  0  0  0  0  0  0
    7.3565  -14.6332   18.4102 C   0  0  0  0  0  0  0  0  0  0  0  0
    7.4925  -14.4205   19.8867 C   0  0  0  0  0  0  0  0  0  0  0  0
    8.5660  -15.2035   20.5516 C   0  0  2  0  0  0  0  0  0  0  0  0
    8.9835  -16.2712   19.6488 N   0  0  0  0  0  0  0  0  0  0  0  0
    8.3180  -15.6376   21.9266 C   0  0  0  0  0  0  0  0  0  0  0  0
    7.2827  -15.2536   22.5056 O   0  0  0  0  0  0  0  0  0  0  0  0
    8.7023  -19.2186   23.0938 C   0  0  0  0  0  0  0  0  0  0  0  0
    9.4944  -18.4328   24.1336 C   0  0  1  0  0  0  0  0  0  0  0  0
   10.8112  -18.4725   23.7044 O   0  0  0  0  0  0  0  0  0  0  0  0
    9.0112  -16.9748   23.9943 C   0  0  2  0  0  0  0  0  0  0  0  0
    9.2022  -16.4877   22.6712 N   0  0  0  0  0  0  0  0  0  0  0  0
    9.5887  -16.1590   25.0695 C   0  0  0  0  0  0  0  0  0  0  0  0
   10.6090  -15.4227   24.9067 O   0  0  0  0  0  0  0  0  0  0  0  0
    9.0414  -16.1204   26.3957 N   0  0  0  0  0  0  0  0  0  0  0  0
    9.6977  -15.4154   27.4944 C   0  0  1  0  0  0  0  0  0  0  0  0
    8.7434  -14.5605   28.2491 C   0  0  0  0  0  0  0  0  0  0  0  0
    8.1191  -13.5585   27.3721 C   0  0  0  0  0  0  0  0  0  0  0  0
    6.8113  -13.7365   26.9337 C   0  0  0  0  0  0  0  0  0  0  0  0
    6.1802  -12.8363   26.1181 C   0  0  0  0  0  0  0  0  0  0  0  0
    6.8329  -11.6765   25.6810 C   0  0  0  0  0  0  0  0  0  0  0  0
    8.1318  -11.4974   26.1160 C   0  0  0  0  0  0  0  0  0  0  0  0
    8.7624  -12.4068   26.9368 C   0  0  0  0  0  0  0  0  0  0  0  0
   10.4344  -16.3481   28.3703 C   0  0  0  0  0  0  0  0  0  0  0  0
   11.3198  -16.0101   29.3600 O   0  0  0  0  0  0  0  0  0  0  0  0
   10.2455  -17.6161   28.2064 O   0  0  0  0  0  0  0  0  0  0  0  0
  2  3  2  0
  2  1  1  0
  4  2  1  0
  5  4  1  0
  6  5  1  0
  6  7  1  6
  8  9  2  0
  8  6  1  0
 11 10  1  6
 11 13  1  0
 12 11  1  0
 13 14  1  6
 14  8  1  0
 15 13  1  0
 15 16  2  0
 17 15  1  0
 18 17  1  0
 18 19  1  1
 20 19  1  0
 20 21  2  0
 22 21  1  0
 23 22  2  0
 24 25  2  0
 24 23  1  0
 25 20  1  0
 26 18  1  0
 27 26  1  0
 28 26  2  0
M  END
$$$$
