QTF.pdb
     RDKit          3D

 28 28  0  0  1  0  0  0  0  0999 V2000
    9.0622  -11.9067   18.8319 N   0  0  0  0  0  0  0  0  0  0  0  0
    8.2719  -12.4499   19.8839 C   0  0  0  0  0  0  0  0  0  0  0  0
    7.7879  -11.6510   20.7191 O   0  0  0  0  0  0  0  0  0  0  0  0
    8.0232  -13.9391   19.9867 C   0  0  0  0  0  0  0  0  0  0  0  0
    8.7327  -14.5895   18.8390 C   0  0  0  0  0  0  0  0  0  0  0  0
    8.6708  -16.0736   18.8043 C   0  0  2  0  0  0  0  0  0  0  0  0
    7.7090  -16.4703   17.7812 N   0  0  0  0  0  0  0  0  0  0  0  0
    8.5091  -16.7624   20.0849 C   0  0  0  0  0  0  0  0  0  0  0  0
    7.8166  -17.7982   20.1324 O   0  0  0  0  0  0  0  0  0  0  0  0
    9.3306  -18.8811   20.9059 C   0  0  0  0  0  0  0  0  0  0  0  0
    9.8539  -18.4458   22.2707 C   0  0  1  0  0  0  0  0  0  0  0  0
   11.2159  -18.2554   22.1023 O   0  0  0  0  0  0  0  0  0  0  0  0
    9.2255  -17.0600   22.5226 C   0  0  2  0  0  0  0  0  0  0  0  0
    9.1002  -16.3186   21.3147 N   0  0  0  0  0  0  0  0  0  0  0  0
    9.9349  -16.3886   23.6186 C   0  0  0  0  0  0  0  0  0  0  0  0
   10.5509  -15.2892   23.4723 O   0  0  0  0  0  0  0  0  0  0  0  0
    9.9844  -16.9175   24.9518 N   0  0  0  0  0  0  0  0  0  0  0  0
    9.2469  -16.3173   26.0612 C   0  0  1  0  0  0  0  0  0  0  0  0
    7.8577  -15.9592   25.6700 C   0  0  0  0  0  0  0  0  0  0  0  0
    7.5575  -14.5575   25.9981 C   0  0  0  0  0  0  0  0  0  0  0  0
    8.5792  -13.6141   26.0190 C   0  0  0  0  0  0  0  0  0  0  0  0
    8.3575  -12.2964   26.3161 C   0  0  0  0  0  0  0  0  0  0  0  0
    7.0711  -11.8305   26.6173 C   0  0  0  0  0  0  0  0  0  0  0  0
    6.0548  -12.7658   26.5964 C   0  0  0  0  0  0  0  0  0  0  0  0
    6.2835  -14.0911   26.2969 C   0  0  0  0  0  0  0  0  0  0  0  0
    9.2921  -17.1719   27.2643 C   0  0  0  0  0  0  0  0  0  0  0  0
    9.7854  -16.8233   28.4941 O   0  0  0  0  0  0  0  0  0  0  0  0
    8.8287  -18.3751   27.1749 O   0  0  0  0  0  0  0  0  0  0  0  0
  2  3  2  0
  2  1  1  0
  4  2  1  0
  5  4  1  0
  6  5  1  0
  6  7  1  6
  8  9  2  0
  8  6  1  0
 11 10  1  6
 11 13  1  0
 12 11  1  0
 13 14  1  6
 14  8  1  0
 15 13  1  0
 15 16  2  0
 17 15  1  0
 18 17  1  0
 18 19  1  6
 20 19  1  0
 20 21  2  0
 22 21  1  0
 23 22  2  0
 24 25  2  0
 24 23  1  0
 25 20  1  0
 26 18  1  0
 27 26  1  0
 28 26  2  0
M  END
$$$$
