AFN.pdb
     RDKit          3D

 25 25  0  0  1  0  0  0  0  0999 V2000
   10.5375  -19.0062   21.7734 C   0  0  0  0  0  0  0  0  0  0  0  0
    9.6883  -18.0180   21.0266 C   0  0  2  0  0  0  0  0  0  0  0  0
   10.0610  -17.8468   19.6542 N   0  0  0  0  0  0  0  0  0  0  0  0
    9.6033  -16.7443   21.7794 C   0  0  0  0  0  0  0  0  0  0  0  0
   10.4830  -15.8766   21.5823 O   0  0  0  0  0  0  0  0  0  0  0  0
    8.5560  -16.5004   22.7045 N   0  0  0  0  0  0  0  0  0  0  0  0
    8.4929  -15.2565   23.4773 C   0  0  1  0  0  0  0  0  0  0  0  0
    7.1088  -15.0279   24.0077 C   0  0  0  0  0  0  0  0  0  0  0  0
    6.9853  -13.8187   24.8476 C   0  0  0  0  0  0  0  0  0  0  0  0
    7.4230  -12.5879   24.4337 C   0  0  0  0  0  0  0  0  0  0  0  0
    7.2725  -11.4869   25.2714 C   0  0  0  0  0  0  0  0  0  0  0  0
    6.6946  -11.6015   26.5075 C   0  0  0  0  0  0  0  0  0  0  0  0
    6.2448  -12.8430   26.9440 C   0  0  0  0  0  0  0  0  0  0  0  0
    6.4006  -13.9216   26.1044 C   0  0  0  0  0  0  0  0  0  0  0  0
    9.5388  -15.3268   24.5190 C   0  0  0  0  0  0  0  0  0  0  0  0
   10.5553  -14.5643   24.4714 O   0  0  0  0  0  0  0  0  0  0  0  0
   10.9852  -14.6349   29.5591 N   0  0  0  0  0  0  0  0  0  0  0  0
   10.3223  -15.8221   29.2139 C   0  0  0  0  0  0  0  0  0  0  0  0
   10.4380  -16.8525   29.9221 O   0  0  0  0  0  0  0  0  0  0  0  0
    9.4748  -15.8676   28.0022 C   0  0  0  0  0  0  0  0  0  0  0  0
   10.3142  -16.1858   26.7719 C   0  0  2  0  0  0  0  0  0  0  0  0
    9.4603  -16.2333   25.6033 N   0  0  0  0  0  0  0  0  0  0  0  0
   11.0474  -17.4623   26.9617 C   0  0  0  0  0  0  0  0  0  0  0  0
   10.4757  -18.6883   26.6807 O   0  0  0  0  0  0  0  0  0  0  0  0
   12.2260  -17.4212   27.3925 O   0  0  0  0  0  0  0  0  0  0  0  0
  2  1  1  1
  2  4  1  0
  2  3  1  0
  4  5  2  0
  6  7  1  0
  6  4  1  0
  7  8  1  1
  9  8  1  0
  9 10  2  0
 11 10  1  0
 12 11  2  0
 13 14  2  0
 13 12  1  0
 14  9  1  0
 15 22  1  0
 15  7  1  0
 16 15  2  0
 18 19  2  0
 18 17  1  0
 21 20  1  1
 20 18  1  0
 21 23  1  0
 21 22  1  0
 23 24  1  0
 25 23  2  0
M  END
$$$$
