AFN.pdb
     RDKit          3D

 25 25  0  0  1  0  0  0  0  0999 V2000
    9.4484  -18.3059   20.7695 C   0  0  0  0  0  0  0  0  0  0  0  0
    9.4701  -16.8277   20.5054 C   0  0  2  0  0  0  0  0  0  0  0  0
   10.4680  -16.4170   19.5636 N   0  0  0  0  0  0  0  0  0  0  0  0
    9.5205  -16.0800   21.7839 C   0  0  0  0  0  0  0  0  0  0  0  0
   10.6384  -15.7348   22.2278 O   0  0  0  0  0  0  0  0  0  0  0  0
    8.3388  -15.7565   22.4987 N   0  0  0  0  0  0  0  0  0  0  0  0
    8.3732  -14.8912   23.6813 C   0  0  1  0  0  0  0  0  0  0  0  0
    7.0311  -14.2680   23.9254 C   0  0  0  0  0  0  0  0  0  0  0  0
    6.9905  -13.3870   25.1108 C   0  0  0  0  0  0  0  0  0  0  0  0
    6.2406  -13.6802   26.2196 C   0  0  0  0  0  0  0  0  0  0  0  0
    6.2497  -12.8103   27.3058 C   0  0  0  0  0  0  0  0  0  0  0  0
    6.9934  -11.6605   27.2959 C   0  0  0  0  0  0  0  0  0  0  0  0
    7.7602  -11.3469   26.1788 C   0  0  0  0  0  0  0  0  0  0  0  0
    7.7407  -12.2170   25.1133 C   0  0  0  0  0  0  0  0  0  0  0  0
    8.8819  -15.6997   24.8089 C   0  0  0  0  0  0  0  0  0  0  0  0
    8.2919  -16.7705   25.1586 O   0  0  0  0  0  0  0  0  0  0  0  0
   11.6778  -17.5002   24.5075 N   0  0  0  0  0  0  0  0  0  0  0  0
   12.6033  -16.8150   25.3088 C   0  0  0  0  0  0  0  0  0  0  0  0
   13.8276  -16.8271   25.0308 O   0  0  0  0  0  0  0  0  0  0  0  0
   12.1378  -16.0665   26.4970 C   0  0  0  0  0  0  0  0  0  0  0  0
   10.6195  -16.1189   26.6033 C   0  0  2  0  0  0  0  0  0  0  0  0
   10.0332  -15.3260   25.5428 N   0  0  0  0  0  0  0  0  0  0  0  0
   10.1778  -15.6499   27.9405 C   0  0  0  0  0  0  0  0  0  0  0  0
    9.4058  -14.5160   28.1048 O   0  0  0  0  0  0  0  0  0  0  0  0
   10.5201  -16.3091   28.9528 O   0  0  0  0  0  0  0  0  0  0  0  0
  2  1  1  1
  2  4  1  0
  2  3  1  0
  4  5  2  0
  6  7  1  0
  6  4  1  0
  7  8  1  1
  9  8  1  0
  9 10  2  0
 11 10  1  0
 12 11  2  0
 13 14  2  0
 13 12  1  0
 14  9  1  0
 15 22  1  0
 15  7  1  0
 16 15  2  0
 18 19  2  0
 18 17  1  0
 21 20  1  1
 20 18  1  0
 21 23  1  0
 21 22  1  0
 23 24  1  0
 25 23  2  0
M  END
$$$$
