AFN.pdb
     RDKit          3D

 25 25  0  0  1  0  0  0  0  0999 V2000
    8.0578  -17.7766   17.6965 C   0  0  0  0  0  0  0  0  0  0  0  0
    8.5568  -18.3301   19.0003 C   0  0  2  0  0  0  0  0  0  0  0  0
    7.5322  -18.8991   19.8239 N   0  0  0  0  0  0  0  0  0  0  0  0
    9.3859  -17.3213   19.7008 C   0  0  0  0  0  0  0  0  0  0  0  0
   10.2860  -16.7386   19.0556 O   0  0  0  0  0  0  0  0  0  0  0  0
    9.1765  -17.0131   21.0695 N   0  0  0  0  0  0  0  0  0  0  0  0
   10.0203  -16.0422   21.7724 C   0  0  1  0  0  0  0  0  0  0  0  0
    9.1822  -15.0002   22.4514 C   0  0  0  0  0  0  0  0  0  0  0  0
    8.4584  -14.1155   21.5153 C   0  0  0  0  0  0  0  0  0  0  0  0
    9.0850  -13.1226   20.8086 C   0  0  0  0  0  0  0  0  0  0  0  0
    8.3463  -12.3264   19.9385 C   0  0  0  0  0  0  0  0  0  0  0  0
    6.9999  -12.5099   19.7687 C   0  0  0  0  0  0  0  0  0  0  0  0
    6.3476  -13.5126   20.4781 C   0  0  0  0  0  0  0  0  0  0  0  0
    7.0917  -14.2913   21.3340 C   0  0  0  0  0  0  0  0  0  0  0  0
   10.9044  -16.7990   22.6832 C   0  0  0  0  0  0  0  0  0  0  0  0
   10.4824  -17.1996   23.8139 O   0  0  0  0  0  0  0  0  0  0  0  0
   12.0093  -20.3874   22.3234 N   0  0  0  0  0  0  0  0  0  0  0  0
   13.0720  -19.7918   21.6279 C   0  0  0  0  0  0  0  0  0  0  0  0
   13.2848  -20.0659   20.4212 O   0  0  0  0  0  0  0  0  0  0  0  0
   13.9566  -18.8277   22.3183 C   0  0  0  0  0  0  0  0  0  0  0  0
   13.1413  -17.8762   23.1838 C   0  0  2  0  0  0  0  0  0  0  0  0
   12.2435  -17.1093   22.3454 N   0  0  0  0  0  0  0  0  0  0  0  0
   14.0392  -16.9928   23.9691 C   0  0  0  0  0  0  0  0  0  0  0  0
   14.3268  -15.6996   23.5769 O   0  0  0  0  0  0  0  0  0  0  0  0
   14.5522  -17.4406   25.0240 O   0  0  0  0  0  0  0  0  0  0  0  0
  2  1  1  6
  2  4  1  0
  2  3  1  0
  4  5  2  0
  6  7  1  0
  6  4  1  0
  7  8  1  1
  9  8  1  0
  9 10  2  0
 11 10  1  0
 12 11  2  0
 13 14  2  0
 13 12  1  0
 14  9  1  0
 15 22  1  0
 15  7  1  0
 16 15  2  0
 18 19  2  0
 18 17  1  0
 21 20  1  6
 20 18  1  0
 21 23  1  0
 21 22  1  0
 23 24  1  0
 25 23  2  0
M  END
$$$$
