MTA.pdb
     RDKit          3D

 21 20  0  0  1  0  0  0  0  0999 V2000
    8.5306  -11.3825   20.8532 C   0  0  0  0  0  0  0  0  0  0  0  0
    7.6729  -12.2072   19.4845 S   0  0  0  0  0  0  0  0  0  0  0  0
    8.3499  -13.9066   19.3881 C   0  0  0  0  0  0  0  0  0  0  0  0
    8.4073  -14.4667   20.7700 C   0  0  0  0  0  0  0  0  0  0  0  0
    9.0981  -15.7898   20.8584 C   0  0  2  0  0  0  0  0  0  0  0  0
    8.5330  -16.7179   19.8871 N   0  0  0  0  0  0  0  0  0  0  0  0
    9.0471  -16.3333   22.2196 C   0  0  0  0  0  0  0  0  0  0  0  0
    7.9901  -16.7795   22.7238 O   0  0  0  0  0  0  0  0  0  0  0  0
   11.0133  -19.1177   23.4462 C   0  0  0  0  0  0  0  0  0  0  0  0
   11.2080  -18.0239   24.4362 C   0  0  1  0  0  0  0  0  0  0  0  0
   12.4342  -17.3982   24.1046 O   0  0  0  0  0  0  0  0  0  0  0  0
   10.1365  -16.9565   24.4277 C   0  0  2  0  0  0  0  0  0  0  0  0
   10.2003  -16.3929   23.0693 N   0  0  0  0  0  0  0  0  0  0  0  0
   10.3343  -15.8996   25.4187 C   0  0  0  0  0  0  0  0  0  0  0  0
   10.5784  -14.7113   25.0139 O   0  0  0  0  0  0  0  0  0  0  0  0
    9.2597  -13.9476   27.5535 C   0  0  0  0  0  0  0  0  0  0  0  0
   10.3919  -14.9179   27.7359 C   0  0  2  0  0  0  0  0  0  0  0  0
   10.2827  -16.0542   26.8265 N   0  0  0  0  0  0  0  0  0  0  0  0
   10.5199  -15.3657   29.1410 C   0  0  0  0  0  0  0  0  0  0  0  0
   10.4661  -16.7144   29.4612 O   0  0  0  0  0  0  0  0  0  0  0  0
   10.6765  -14.5258   30.0366 O   0  0  0  0  0  0  0  0  0  0  0  0
  2  1  1  0
  3  4  1  0
  3  2  1  0
  4  5  1  0
  5  7  1  0
  5  6  1  6
  7 13  1  0
  8  7  2  0
 10  9  1  6
 10 11  1  0
 10 12  1  0
 12 14  1  0
 12 13  1  6
 14 15  2  0
 14 18  1  0
 17 19  1  0
 17 16  1  1
 18 17  1  0
 19 20  1  0
 21 19  2  0
M  END
$$$$
