MTA.pdb
     RDKit          3D

 21 20  0  0  1  0  0  0  0  0999 V2000
    7.9463  -11.5721   26.5345 C   0  0  0  0  0  0  0  0  0  0  0  0
    6.4224  -12.4971   26.2011 S   0  0  0  0  0  0  0  0  0  0  0  0
    6.9104  -13.9935   25.2640 C   0  0  0  0  0  0  0  0  0  0  0  0
    6.4867  -13.8155   23.8442 C   0  0  0  0  0  0  0  0  0  0  0  0
    7.5517  -14.1478   22.8488 C   0  0  2  0  0  0  0  0  0  0  0  0
    7.0401  -13.9895   21.4934 N   0  0  0  0  0  0  0  0  0  0  0  0
    8.0932  -15.4928   23.0694 C   0  0  0  0  0  0  0  0  0  0  0  0
    7.3752  -16.5192   23.0282 O   0  0  0  0  0  0  0  0  0  0  0  0
   10.7784  -16.7929   21.0080 C   0  0  0  0  0  0  0  0  0  0  0  0
   11.1778  -17.0675   22.4150 C   0  0  1  0  0  0  0  0  0  0  0  0
   12.0528  -16.0206   22.7938 O   0  0  0  0  0  0  0  0  0  0  0  0
   10.0386  -17.0898   23.4097 C   0  0  2  0  0  0  0  0  0  0  0  0
    9.4796  -15.7294   23.3475 N   0  0  0  0  0  0  0  0  0  0  0  0
   10.4438  -17.4030   24.7793 C   0  0  0  0  0  0  0  0  0  0  0  0
   10.9920  -16.4886   25.4856 O   0  0  0  0  0  0  0  0  0  0  0  0
   10.3189  -20.1515   27.3711 C   0  0  0  0  0  0  0  0  0  0  0  0
   10.9159  -18.9375   26.7181 C   0  0  2  0  0  0  0  0  0  0  0  0
   10.2893  -18.6518   25.4313 N   0  0  0  0  0  0  0  0  0  0  0  0
   12.3865  -19.0429   26.5870 C   0  0  0  0  0  0  0  0  0  0  0  0
   13.2087  -18.8802   27.6925 O   0  0  0  0  0  0  0  0  0  0  0  0
   12.8845  -19.2786   25.4786 O   0  0  0  0  0  0  0  0  0  0  0  0
  2  1  1  0
  3  4  1  0
  3  2  1  0
  4  5  1  0
  5  7  1  0
  5  6  1  6
  7 13  1  0
  8  7  2  0
 10  9  1  6
 10 11  1  0
 10 12  1  0
 12 14  1  0
 12 13  1  1
 14 15  2  0
 14 18  1  0
 17 19  1  0
 17 16  1  6
 18 17  1  0
 19 20  1  0
 21 19  2  0
M  END
$$$$
