MTA.pdb
     RDKit          3D

 21 20  0  0  1  0  0  0  0  0999 V2000
    7.2023  -11.7868   19.8741 C   0  0  0  0  0  0  0  0  0  0  0  0
    8.0466  -12.6242   18.5049 S   0  0  0  0  0  0  0  0  0  0  0  0
    9.4620  -13.5292   19.2351 C   0  0  0  0  0  0  0  0  0  0  0  0
    9.0950  -13.9288   20.6252 C   0  0  0  0  0  0  0  0  0  0  0  0
   10.0034  -14.9576   21.2188 C   0  0  2  0  0  0  0  0  0  0  0  0
   10.1975  -16.0572   20.2823 N   0  0  0  0  0  0  0  0  0  0  0  0
    9.5055  -15.4313   22.5144 C   0  0  0  0  0  0  0  0  0  0  0  0
    8.4741  -14.9606   23.0486 O   0  0  0  0  0  0  0  0  0  0  0  0
    9.7213  -19.2621   23.7245 C   0  0  0  0  0  0  0  0  0  0  0  0
   10.2129  -18.2940   24.7423 C   0  0  1  0  0  0  0  0  0  0  0  0
   11.6203  -18.2407   24.5962 O   0  0  0  0  0  0  0  0  0  0  0  0
    9.6865  -16.8843   24.5896 C   0  0  2  0  0  0  0  0  0  0  0  0
   10.1615  -16.4645   23.2611 N   0  0  0  0  0  0  0  0  0  0  0  0
   10.1634  -15.9519   25.6101 C   0  0  0  0  0  0  0  0  0  0  0  0
   11.4073  -15.6571   25.6446 O   0  0  0  0  0  0  0  0  0  0  0  0
    9.0500  -13.3552   28.0334 C   0  0  0  0  0  0  0  0  0  0  0  0
    9.9546  -14.4913   27.6497 C   0  0  2  0  0  0  0  0  0  0  0  0
    9.3698  -15.3176   26.5983 N   0  0  0  0  0  0  0  0  0  0  0  0
   10.3468  -15.3096   28.8192 C   0  0  0  0  0  0  0  0  0  0  0  0
   10.0543  -16.6649   28.8643 O   0  0  0  0  0  0  0  0  0  0  0  0
   10.9415  -14.7761   29.7646 O   0  0  0  0  0  0  0  0  0  0  0  0
  2  1  1  0
  3  4  1  0
  3  2  1  0
  4  5  1  0
  5  7  1  0
  5  6  1  6
  7 13  1  0
  8  7  2  0
 10  9  1  6
 10 11  1  0
 10 12  1  0
 12 14  1  0
 12 13  1  6
 14 15  2  0
 14 18  1  0
 17 19  1  0
 17 16  1  1
 18 17  1  0
 19 20  1  0
 21 19  2  0
M  END
$$$$
