MTA.pdb
     RDKit          3D

 21 20  0  0  1  0  0  0  0  0999 V2000
    6.6809  -10.6622   25.6895 C   0  0  0  0  0  0  0  0  0  0  0  0
    5.7195  -11.5074   26.9742 S   0  0  0  0  0  0  0  0  0  0  0  0
    6.5288  -13.1263   27.2565 C   0  0  0  0  0  0  0  0  0  0  0  0
    6.4477  -13.9167   25.9933 C   0  0  0  0  0  0  0  0  0  0  0  0
    7.1384  -15.2410   26.0628 C   0  0  2  0  0  0  0  0  0  0  0  0
    8.4116  -15.1080   26.7594 N   0  0  0  0  0  0  0  0  0  0  0  0
    7.3092  -15.8291   24.7303 C   0  0  0  0  0  0  0  0  0  0  0  0
    6.3724  -16.4011   24.1252 O   0  0  0  0  0  0  0  0  0  0  0  0
    9.2753  -16.1591   20.3822 C   0  0  0  0  0  0  0  0  0  0  0  0
    8.8528  -15.6050   21.6972 C   0  0  1  0  0  0  0  0  0  0  0  0
    7.5438  -15.0969   21.5149 O   0  0  0  0  0  0  0  0  0  0  0  0
    8.7969  -16.6104   22.8258 C   0  0  2  0  0  0  0  0  0  0  0  0
    8.5572  -15.7919   24.0256 N   0  0  0  0  0  0  0  0  0  0  0  0
   10.0191  -17.3960   22.9908 C   0  0  0  0  0  0  0  0  0  0  0  0
   11.1201  -16.7854   23.2154 O   0  0  0  0  0  0  0  0  0  0  0  0
   11.1436  -20.9727   23.4557 C   0  0  0  0  0  0  0  0  0  0  0  0
   11.3698  -19.5098   23.1998 C   0  0  2  0  0  0  0  0  0  0  0  0
   10.1193  -18.8082   22.9275 N   0  0  0  0  0  0  0  0  0  0  0  0
   12.3593  -19.2800   22.1231 C   0  0  0  0  0  0  0  0  0  0  0  0
   13.7182  -19.2683   22.4020 O   0  0  0  0  0  0  0  0  0  0  0  0
   11.9671  -19.0966   20.9636 O   0  0  0  0  0  0  0  0  0  0  0  0
  2  1  1  0
  3  4  1  0
  3  2  1  0
  4  5  1  0
  5  7  1  0
  5  6  1  6
  7 13  1  0
  8  7  2  0
 10  9  1  6
 10 11  1  0
 10 12  1  0
 12 14  1  0
 12 13  1  1
 14 15  2  0
 14 18  1  0
 17 19  1  0
 17 16  1  6
 18 17  1  0
 19 20  1  0
 21 19  2  0
M  END
$$$$
