MTA.pdb
     RDKit          3D

 21 20  0  0  1  0  0  0  0  0999 V2000
    7.2366  -12.0425   27.9978 C   0  0  0  0  0  0  0  0  0  0  0  0
    6.4975  -11.4301   26.4591 S   0  0  0  0  0  0  0  0  0  0  0  0
    5.8885  -12.8979   25.5480 C   0  0  0  0  0  0  0  0  0  0  0  0
    6.9997  -13.8903   25.4630 C   0  0  0  0  0  0  0  0  0  0  0  0
    6.6417  -15.1374   24.7199 C   0  0  2  0  0  0  0  0  0  0  0  0
    5.4651  -15.7575   25.3158 N   0  0  0  0  0  0  0  0  0  0  0  0
    7.7721  -16.0696   24.6576 C   0  0  0  0  0  0  0  0  0  0  0  0
    8.0095  -16.8967   25.5688 O   0  0  0  0  0  0  0  0  0  0  0  0
    9.1427  -17.0423   20.9701 C   0  0  0  0  0  0  0  0  0  0  0  0
   10.2109  -17.0085   22.0057 C   0  0  1  0  0  0  0  0  0  0  0  0
   10.8438  -15.7475   21.8861 O   0  0  0  0  0  0  0  0  0  0  0  0
    9.7227  -17.1384   23.4313 C   0  0  2  0  0  0  0  0  0  0  0  0
    8.6847  -16.1016   23.5524 N   0  0  0  0  0  0  0  0  0  0  0  0
   10.7590  -16.9305   24.4418 C   0  0  0  0  0  0  0  0  0  0  0  0
   10.9489  -15.7511   24.8982 O   0  0  0  0  0  0  0  0  0  0  0  0
   11.4053  -17.4939   27.3944 C   0  0  0  0  0  0  0  0  0  0  0  0
   12.3340  -17.7266   26.2369 C   0  0  2  0  0  0  0  0  0  0  0  0
   11.6039  -17.9280   24.9892 N   0  0  0  0  0  0  0  0  0  0  0  0
   13.2748  -18.8401   26.4937 C   0  0  0  0  0  0  0  0  0  0  0  0
   14.1904  -18.7671   27.5334 O   0  0  0  0  0  0  0  0  0  0  0  0
   13.2417  -19.8450   25.7717 O   0  0  0  0  0  0  0  0  0  0  0  0
  2  1  1  0
  3  4  1  0
  3  2  1  0
  4  5  1  0
  5  7  1  0
  5  6  1  1
  7 13  1  0
  8  7  2  0
 10  9  1  6
 10 11  1  0
 10 12  1  0
 12 14  1  0
 12 13  1  1
 14 15  2  0
 14 18  1  0
 17 19  1  0
 17 16  1  1
 18 17  1  0
 19 20  1  0
 21 19  2  0
M  END
$$$$
