MTA.pdb
     RDKit          3D

 21 20  0  0  1  0  0  0  0  0999 V2000
    8.5481  -12.4803   27.1928 C   0  0  0  0  0  0  0  0  0  0  0  0
    7.8281  -12.5170   25.5287 S   0  0  0  0  0  0  0  0  0  0  0  0
    6.9619  -14.1228   25.3662 C   0  0  0  0  0  0  0  0  0  0  0  0
    6.3374  -14.1830   24.0123 C   0  0  0  0  0  0  0  0  0  0  0  0
    7.3244  -14.3044   22.8956 C   0  0  2  0  0  0  0  0  0  0  0  0
    6.6449  -14.1995   21.6105 N   0  0  0  0  0  0  0  0  0  0  0  0
    8.1019  -15.5437   22.9974 C   0  0  0  0  0  0  0  0  0  0  0  0
    7.5612  -16.6742   23.0160 O   0  0  0  0  0  0  0  0  0  0  0  0
   12.5133  -17.6133   22.1814 C   0  0  0  0  0  0  0  0  0  0  0  0
   11.4995  -16.5250   22.2297 C   0  0  1  0  0  0  0  0  0  0  0  0
   11.0229  -16.3636   20.9061 O   0  0  0  0  0  0  0  0  0  0  0  0
   10.3035  -16.8048   23.1122 C   0  0  2  0  0  0  0  0  0  0  0  0
    9.5329  -15.5508   23.0827 N   0  0  0  0  0  0  0  0  0  0  0  0
   10.6435  -17.1518   24.4914 C   0  0  0  0  0  0  0  0  0  0  0  0
   11.2568  -16.2913   25.2116 O   0  0  0  0  0  0  0  0  0  0  0  0
   10.1507  -19.8767   27.0698 C   0  0  0  0  0  0  0  0  0  0  0  0
   10.8421  -18.6796   26.4821 C   0  0  2  0  0  0  0  0  0  0  0  0
   10.3569  -18.3796   25.1387 N   0  0  0  0  0  0  0  0  0  0  0  0
   12.3153  -18.8234   26.5007 C   0  0  0  0  0  0  0  0  0  0  0  0
   13.0358  -18.5734   27.6595 O   0  0  0  0  0  0  0  0  0  0  0  0
   12.9070  -19.1704   25.4704 O   0  0  0  0  0  0  0  0  0  0  0  0
  2  1  1  0
  3  4  1  0
  3  2  1  0
  4  5  1  0
  5  7  1  0
  5  6  1  6
  7 13  1  0
  8  7  2  0
 10  9  1  6
 10 11  1  0
 10 12  1  0
 12 14  1  0
 12 13  1  1
 14 15  2  0
 14 18  1  0
 17 19  1  0
 17 16  1  6
 18 17  1  0
 19 20  1  0
 21 19  2  0
M  END
$$$$
