MTA.pdb
     RDKit          3D

 21 20  0  0  1  0  0  0  0  0999 V2000
    8.2903  -11.4130   20.3080 C   0  0  0  0  0  0  0  0  0  0  0  0
    6.9961  -12.1303   19.2594 S   0  0  0  0  0  0  0  0  0  0  0  0
    7.8496  -12.9962   17.8895 C   0  0  0  0  0  0  0  0  0  0  0  0
    8.9538  -13.8156   18.4695 C   0  0  0  0  0  0  0  0  0  0  0  0
    9.7722  -14.5379   17.4477 C   0  0  2  0  0  0  0  0  0  0  0  0
    8.9048  -15.2804   16.5420 N   0  0  0  0  0  0  0  0  0  0  0  0
   10.7709  -15.4088   18.0763 C   0  0  0  0  0  0  0  0  0  0  0  0
   10.5355  -16.6087   18.3510 O   0  0  0  0  0  0  0  0  0  0  0  0
   14.0106  -16.1077   16.6498 C   0  0  0  0  0  0  0  0  0  0  0  0
   14.2797  -15.7245   18.0623 C   0  0  1  0  0  0  0  0  0  0  0  0
   14.6587  -14.3604   18.0412 O   0  0  0  0  0  0  0  0  0  0  0  0
   13.0965  -15.8530   18.9956 C   0  0  2  0  0  0  0  0  0  0  0  0
   12.0850  -14.9509   18.4209 N   0  0  0  0  0  0  0  0  0  0  0  0
   13.3791  -15.4727   20.3789 C   0  0  0  0  0  0  0  0  0  0  0  0
   13.7514  -14.2745   20.6263 O   0  0  0  0  0  0  0  0  0  0  0  0
   12.8283  -16.5850   23.9085 C   0  0  0  0  0  0  0  0  0  0  0  0
   13.6093  -15.8493   22.8572 C   0  0  2  0  0  0  0  0  0  0  0  0
   13.2815  -16.3161   21.5137 N   0  0  0  0  0  0  0  0  0  0  0  0
   15.0675  -15.9080   23.1046 C   0  0  0  0  0  0  0  0  0  0  0  0
   15.6303  -15.2347   24.1790 O   0  0  0  0  0  0  0  0  0  0  0  0
   15.7890  -16.5653   22.3433 O   0  0  0  0  0  0  0  0  0  0  0  0
  2  1  1  0
  3  4  1  0
  3  2  1  0
  4  5  1  0
  5  7  1  0
  5  6  1  1
  7 13  1  0
  8  7  2  0
 10  9  1  6
 10 11  1  0
 10 12  1  0
 12 14  1  0
 12 13  1  6
 14 15  2  0
 14 18  1  0
 17 19  1  0
 17 16  1  1
 18 17  1  0
 19 20  1  0
 21 19  2  0
M  END
$$$$
