KPI.pdb
     RDKit          3D

 25 25  0  0  1  0  0  0  0  0999 V2000
    9.8888  -16.8486   18.9387 N   0  0  0  0  0  0  0  0  0  0  0  0
    9.8554  -17.5168   20.2468 C   0  0  1  0  0  0  0  0  0  0  0  0
   11.2731  -17.5060   20.8376 C   0  0  0  0  0  0  0  0  0  0  0  0
   11.8822  -18.8320   20.4049 C   0  0  0  0  0  0  0  0  0  0  0  0
   13.2810  -19.0064   20.9549 C   0  0  0  0  0  0  0  0  0  0  0  0
   13.8867  -20.3215   20.5173 C   0  0  0  0  0  0  0  0  0  0  0  0
   15.2279  -20.3745   21.1092 N   0  0  0  0  0  0  0  0  0  0  0  0
    8.9801  -16.7924   21.1771 C   0  0  0  0  0  0  0  0  0  0  0  0
    8.7721  -15.5536   21.0156 O   0  0  0  0  0  0  0  0  0  0  0  0
    8.3584  -17.4356   22.2484 N   0  0  0  0  0  0  0  0  0  0  0  0
    8.5751  -18.7926   22.7082 C   0  0  0  0  0  0  0  0  0  0  0  0
    7.1943  -19.2541   23.1601 C   0  0  0  0  0  0  0  0  0  0  0  0
    6.4839  -18.0075   23.5145 C   0  0  0  0  0  0  0  0  0  0  0  0
    7.3428  -16.8645   23.1175 C   0  0  1  0  0  0  0  0  0  0  0  0
    7.9937  -16.1858   24.2569 C   0  0  0  0  0  0  0  0  0  0  0  0
    9.1651  -16.5770   24.5747 O   0  0  0  0  0  0  0  0  0  0  0  0
    5.6985  -11.6014   27.2287 C   0  0  0  0  0  0  0  0  0  0  0  0
    6.1287  -12.9440   26.7194 C   0  0  0  0  0  0  0  0  0  0  0  0
    7.4893  -12.9899   26.1259 C   0  0  2  0  0  0  0  0  0  0  0  0
    7.4740  -12.2993   24.7774 C   0  0  0  0  0  0  0  0  0  0  0  0
    8.0596  -14.3680   25.9234 C   0  0  2  0  0  0  0  0  0  0  0  0
    7.3431  -15.1443   24.9661 N   0  0  0  0  0  0  0  0  0  0  0  0
    8.2929  -15.1074   27.1894 C   0  0  0  0  0  0  0  0  0  0  0  0
    7.6222  -16.1426   27.4274 O   0  0  0  0  0  0  0  0  0  0  0  0
    9.2225  -14.7178   28.1424 O   0  0  0  0  0  0  0  0  0  0  0  0
  2  1  1  6
  2  3  1  0
  2  8  1  0
  4  3  1  0
  5  6  1  0
  5  4  1  0
  6  7  1  0
  8  9  2  0
  8 10  1  0
 10 11  1  0
 11 12  1  0
 13 12  1  0
 14 10  1  0
 14 13  1  0
 14 15  1  1
 16 15  2  0
 18 17  1  0
 19 18  1  0
 19 21  1  0
 19 20  1  6
 21 22  1  6
 22 15  1  0
 23 25  1  0
 23 21  1  0
 24 23  2  0
M  END
$$$$
