KPI.pdb
     RDKit          3D

 25 25  0  0  1  0  0  0  0  0999 V2000
    6.8359  -18.4710   19.9866 N   0  0  0  0  0  0  0  0  0  0  0  0
    6.4348  -17.1571   20.5076 C   0  0  1  0  0  0  0  0  0  0  0  0
    5.4616  -17.3709   21.6765 C   0  0  0  0  0  0  0  0  0  0  0  0
    4.1466  -17.7623   21.0177 C   0  0  0  0  0  0  0  0  0  0  0  0
    3.4232  -18.8281   21.8118 C   0  0  0  0  0  0  0  0  0  0  0  0
    2.2736  -19.4179   21.0255 C   0  0  0  0  0  0  0  0  0  0  0  0
    1.7155  -20.4916   21.8548 N   0  0  0  0  0  0  0  0  0  0  0  0
    7.5989  -16.4271   21.0256 C   0  0  0  0  0  0  0  0  0  0  0  0
    8.6215  -17.0631   21.4178 O   0  0  0  0  0  0  0  0  0  0  0  0
    7.6160  -15.0334   21.0984 N   0  0  0  0  0  0  0  0  0  0  0  0
    6.4938  -14.1288   20.9490 C   0  0  0  0  0  0  0  0  0  0  0  0
    7.0856  -12.9221   20.2296 C   0  0  0  0  0  0  0  0  0  0  0  0
    8.5199  -12.9443   20.5859 C   0  0  0  0  0  0  0  0  0  0  0  0
    8.7863  -14.2021   21.3267 C   0  0  1  0  0  0  0  0  0  0  0  0
    8.9776  -14.0080   22.7787 C   0  0  0  0  0  0  0  0  0  0  0  0
    9.5723  -12.9426   23.1495 O   0  0  0  0  0  0  0  0  0  0  0  0
    6.9259  -11.8340   27.2347 C   0  0  0  0  0  0  0  0  0  0  0  0
    7.7478  -13.0393   26.8901 C   0  0  0  0  0  0  0  0  0  0  0  0
    7.7606  -13.4067   25.4511 C   0  0  2  0  0  0  0  0  0  0  0  0
    6.3370  -13.5847   24.9642 C   0  0  0  0  0  0  0  0  0  0  0  0
    8.5166  -14.6633   25.1120 C   0  0  2  0  0  0  0  0  0  0  0  0
    8.5196  -14.9659   23.7188 N   0  0  0  0  0  0  0  0  0  0  0  0
    8.1318  -15.8318   25.9429 C   0  0  0  0  0  0  0  0  0  0  0  0
    8.3464  -15.8016   27.1802 O   0  0  0  0  0  0  0  0  0  0  0  0
    7.5396  -16.9751   25.4270 O   0  0  0  0  0  0  0  0  0  0  0  0
  2  1  1  1
  2  3  1  0
  2  8  1  0
  4  3  1  0
  5  6  1  0
  5  4  1  0
  6  7  1  0
  8  9  2  0
  8 10  1  0
 10 11  1  0
 11 12  1  0
 13 12  1  0
 14 10  1  0
 14 13  1  0
 14 15  1  1
 16 15  2  0
 18 17  1  0
 19 18  1  0
 19 21  1  0
 19 20  1  1
 21 22  1  6
 22 15  1  0
 23 25  1  0
 23 21  1  0
 24 23  2  0
M  END
$$$$
