KPI.pdb
     RDKit          3D

 25 25  0  0  1  0  0  0  0  0999 V2000
   10.4086  -16.4579   18.6399 N   0  0  0  0  0  0  0  0  0  0  0  0
   10.1673  -17.1829   19.8948 C   0  0  1  0  0  0  0  0  0  0  0  0
   11.5132  -17.3930   20.6046 C   0  0  0  0  0  0  0  0  0  0  0  0
   11.1660  -18.1612   21.8718 C   0  0  0  0  0  0  0  0  0  0  0  0
   12.3722  -18.8835   22.4313 C   0  0  0  0  0  0  0  0  0  0  0  0
   12.0075  -19.7101   23.6444 C   0  0  0  0  0  0  0  0  0  0  0  0
   13.2516  -20.3355   24.1059 N   0  0  0  0  0  0  0  0  0  0  0  0
    9.3094  -16.3974   20.7911 C   0  0  0  0  0  0  0  0  0  0  0  0
    9.4833  -15.1476   20.8990 O   0  0  0  0  0  0  0  0  0  0  0  0
    8.2912  -16.9925   21.5373 N   0  0  0  0  0  0  0  0  0  0  0  0
    8.0134  -18.4077   21.6790 C   0  0  0  0  0  0  0  0  0  0  0  0
    6.4920  -18.4809   21.7416 C   0  0  0  0  0  0  0  0  0  0  0  0
    6.0779  -17.1589   22.2568 C   0  0  0  0  0  0  0  0  0  0  0  0
    7.2832  -16.2958   22.3192 C   0  0  1  0  0  0  0  0  0  0  0  0
    7.7874  -16.0765   23.6905 C   0  0  0  0  0  0  0  0  0  0  0  0
    8.8315  -16.7219   24.0362 O   0  0  0  0  0  0  0  0  0  0  0  0
    5.8481  -11.4919   26.1763 C   0  0  0  0  0  0  0  0  0  0  0  0
    6.8835  -12.4507   25.6705 C   0  0  0  0  0  0  0  0  0  0  0  0
    7.0834  -13.6641   26.5033 C   0  0  2  0  0  0  0  0  0  0  0  0
    7.9156  -13.3091   27.7186 C   0  0  0  0  0  0  0  0  0  0  0  0
    7.7591  -14.8178   25.8120 C   0  0  2  0  0  0  0  0  0  0  0  0
    7.1375  -15.1866   24.5831 N   0  0  0  0  0  0  0  0  0  0  0  0
    7.9968  -15.9855   26.6974 C   0  0  0  0  0  0  0  0  0  0  0  0
    9.0237  -16.0075   27.4207 O   0  0  0  0  0  0  0  0  0  0  0  0
    7.1392  -17.0728   26.7758 O   0  0  0  0  0  0  0  0  0  0  0  0
  2  1  1  6
  2  3  1  0
  2  8  1  0
  4  3  1  0
  5  6  1  0
  5  4  1  0
  6  7  1  0
  8  9  2  0
  8 10  1  0
 10 11  1  0
 11 12  1  0
 13 12  1  0
 14 10  1  0
 14 13  1  0
 14 15  1  1
 16 15  2  0
 18 17  1  0
 19 18  1  0
 19 21  1  0
 19 20  1  1
 21 22  1  6
 22 15  1  0
 23 25  1  0
 23 21  1  0
 24 23  2  0
M  END
$$$$
