KPI.pdb
     RDKit          3D

 25 25  0  0  1  0  0  0  0  0999 V2000
   11.2892  -17.2232   19.4083 N   0  0  0  0  0  0  0  0  0  0  0  0
    9.8987  -16.9581   19.8018 C   0  0  1  0  0  0  0  0  0  0  0  0
    9.2308  -18.2924   20.1660 C   0  0  0  0  0  0  0  0  0  0  0  0
   10.2544  -19.0134   21.0313 C   0  0  0  0  0  0  0  0  0  0  0  0
    9.7184  -20.3328   21.5429 C   0  0  0  0  0  0  0  0  0  0  0  0
   10.7459  -21.0579   22.3833 C   0  0  0  0  0  0  0  0  0  0  0  0
   10.0662  -22.2311   22.9433 N   0  0  0  0  0  0  0  0  0  0  0  0
    9.8511  -16.0975   20.9906 C   0  0  0  0  0  0  0  0  0  0  0  0
   10.9263  -15.7390   21.5559 O   0  0  0  0  0  0  0  0  0  0  0  0
    8.6406  -15.6528   21.5244 N   0  0  0  0  0  0  0  0  0  0  0  0
    7.3064  -15.9152   21.0233 C   0  0  0  0  0  0  0  0  0  0  0  0
    6.5481  -14.6215   21.2972 C   0  0  0  0  0  0  0  0  0  0  0  0
    7.2603  -14.0083   22.4379 C   0  0  0  0  0  0  0  0  0  0  0  0
    8.4801  -14.8118   22.6991 C   0  0  1  0  0  0  0  0  0  0  0  0
    8.3863  -15.6609   23.9044 C   0  0  0  0  0  0  0  0  0  0  0  0
    8.1302  -16.8973   23.7262 O   0  0  0  0  0  0  0  0  0  0  0  0
   10.2386  -13.1962   28.5112 C   0  0  0  0  0  0  0  0  0  0  0  0
   10.1801  -14.2171   27.4151 C   0  0  0  0  0  0  0  0  0  0  0  0
    9.1436  -15.2675   27.5827 C   0  0  2  0  0  0  0  0  0  0  0  0
    9.6356  -16.3077   28.5683 C   0  0  0  0  0  0  0  0  0  0  0  0
    8.7452  -15.9886   26.3231 C   0  0  2  0  0  0  0  0  0  0  0  0
    8.5731  -15.1231   25.2033 N   0  0  0  0  0  0  0  0  0  0  0  0
    7.5976  -16.9129   26.5041 C   0  0  0  0  0  0  0  0  0  0  0  0
    6.4377  -16.5094   26.2399 O   0  0  0  0  0  0  0  0  0  0  0  0
    7.7306  -18.2178   26.9554 O   0  0  0  0  0  0  0  0  0  0  0  0
  2  1  1  1
  2  3  1  0
  2  8  1  0
  4  3  1  0
  5  6  1  0
  5  4  1  0
  6  7  1  0
  8  9  2  0
  8 10  1  0
 10 11  1  0
 11 12  1  0
 13 12  1  0
 14 10  1  0
 14 13  1  0
 14 15  1  1
 16 15  2  0
 18 17  1  0
 19 18  1  0
 19 21  1  0
 19 20  1  1
 21 22  1  6
 22 15  1  0
 23 25  1  0
 23 21  1  0
 24 23  2  0
M  END
$$$$
