KPI.pdb
     RDKit          3D

 25 25  0  0  1  0  0  0  0  0999 V2000
    7.9403  -18.9921   20.3044 N   0  0  0  0  0  0  0  0  0  0  0  0
    7.2169  -17.7237   20.4679 C   0  0  1  0  0  0  0  0  0  0  0  0
    6.0143  -17.9625   21.3930 C   0  0  0  0  0  0  0  0  0  0  0  0
    5.8713  -19.4764   21.4579 C   0  0  0  0  0  0  0  0  0  0  0  0
    5.6872  -19.9563   22.8811 C   0  0  0  0  0  0  0  0  0  0  0  0
    5.4217  -21.4445   22.9323 C   0  0  0  0  0  0  0  0  0  0  0  0
    5.3426  -21.8001   24.3533 N   0  0  0  0  0  0  0  0  0  0  0  0
    8.0745  -16.7158   21.1041 C   0  0  0  0  0  0  0  0  0  0  0  0
    9.0346  -17.0790   21.8459 O   0  0  0  0  0  0  0  0  0  0  0  0
    7.8640  -15.3494   20.9127 N   0  0  0  0  0  0  0  0  0  0  0  0
    6.8131  -14.7189   20.1393 C   0  0  0  0  0  0  0  0  0  0  0  0
    7.4901  -13.5015   19.5202 C   0  0  0  0  0  0  0  0  0  0  0  0
    8.6023  -13.1868   20.4414 C   0  0  0  0  0  0  0  0  0  0  0  0
    8.6816  -14.2736   21.4485 C   0  0  1  0  0  0  0  0  0  0  0  0
    8.1759  -13.8871   22.7818 C   0  0  0  0  0  0  0  0  0  0  0  0
    7.3117  -12.9504   22.8268 O   0  0  0  0  0  0  0  0  0  0  0  0
    6.0935  -11.7630   27.2085 C   0  0  0  0  0  0  0  0  0  0  0  0
    7.3706  -12.4785   26.8859 C   0  0  0  0  0  0  0  0  0  0  0  0
    7.3558  -13.2632   25.6250 C   0  0  2  0  0  0  0  0  0  0  0  0
    6.3990  -14.4291   25.7687 C   0  0  0  0  0  0  0  0  0  0  0  0
    8.6866  -13.8189   25.1944 C   0  0  2  0  0  0  0  0  0  0  0  0
    8.6326  -14.5304   23.9602 N   0  0  0  0  0  0  0  0  0  0  0  0
    9.3840  -14.5848   26.2578 C   0  0  0  0  0  0  0  0  0  0  0  0
    9.6278  -14.0262   27.3562 O   0  0  0  0  0  0  0  0  0  0  0  0
    9.7902  -15.9028   26.1097 O   0  0  0  0  0  0  0  0  0  0  0  0
  2  1  1  1
  2  3  1  0
  2  8  1  0
  4  3  1  0
  5  6  1  0
  5  4  1  0
  6  7  1  0
  8  9  2  0
  8 10  1  0
 10 11  1  0
 11 12  1  0
 13 12  1  0
 14 10  1  0
 14 13  1  0
 14 15  1  1
 16 15  2  0
 18 17  1  0
 19 18  1  0
 19 21  1  0
 19 20  1  1
 21 22  1  6
 22 15  1  0
 23 25  1  0
 23 21  1  0
 24 23  2  0
M  END
$$$$
