KPI.pdb
     RDKit          3D

 25 25  0  0  1  0  0  0  0  0999 V2000
   10.7650  -17.9539   19.8743 N   0  0  0  0  0  0  0  0  0  0  0  0
    9.4669  -17.2869   20.0443 C   0  0  1  0  0  0  0  0  0  0  0  0
    8.4006  -18.3565   20.3239 C   0  0  0  0  0  0  0  0  0  0  0  0
    9.0649  -19.3191   21.2979 C   0  0  0  0  0  0  0  0  0  0  0  0
    8.1542  -20.4775   21.6419 C   0  0  0  0  0  0  0  0  0  0  0  0
    8.7708  -21.3711   22.6950 C   0  0  0  0  0  0  0  0  0  0  0  0
    7.7692  -22.3980   23.0017 N   0  0  0  0  0  0  0  0  0  0  0  0
    9.4980  -16.3776   21.1968 C   0  0  0  0  0  0  0  0  0  0  0  0
   10.4912  -16.3855   21.9826 O   0  0  0  0  0  0  0  0  0  0  0  0
    8.4534  -15.4892   21.4567 N   0  0  0  0  0  0  0  0  0  0  0  0
    7.1515  -15.4488   20.8216 C   0  0  0  0  0  0  0  0  0  0  0  0
    6.8265  -13.9617   20.7400 C   0  0  0  0  0  0  0  0  0  0  0  0
    7.6006  -13.3517   21.8414 C   0  0  0  0  0  0  0  0  0  0  0  0
    8.4738  -14.4020   22.4213 C   0  0  1  0  0  0  0  0  0  0  0  0
    8.0145  -14.8991   23.7345 C   0  0  0  0  0  0  0  0  0  0  0  0
    7.2452  -15.9162   23.7345 O   0  0  0  0  0  0  0  0  0  0  0  0
   10.6586  -12.8121   28.1484 C   0  0  0  0  0  0  0  0  0  0  0  0
   10.1121  -13.8903   27.2619 C   0  0  0  0  0  0  0  0  0  0  0  0
    8.6500  -14.1246   27.3775 C   0  0  2  0  0  0  0  0  0  0  0  0
    8.3708  -14.9690   28.6041 C   0  0  0  0  0  0  0  0  0  0  0  0
    8.0106  -14.8100   26.1998 C   0  0  2  0  0  0  0  0  0  0  0  0
    8.4124  -14.2716   24.9424 N   0  0  0  0  0  0  0  0  0  0  0  0
    6.5360  -14.9378   26.3143 C   0  0  0  0  0  0  0  0  0  0  0  0
    5.8054  -14.0058   25.8951 O   0  0  0  0  0  0  0  0  0  0  0  0
    5.9047  -16.0430   26.8658 O   0  0  0  0  0  0  0  0  0  0  0  0
  2  1  1  1
  2  3  1  0
  2  8  1  0
  4  3  1  0
  5  6  1  0
  5  4  1  0
  6  7  1  0
  8  9  2  0
  8 10  1  0
 10 11  1  0
 11 12  1  0
 13 12  1  0
 14 10  1  0
 14 13  1  0
 14 15  1  1
 16 15  2  0
 18 17  1  0
 19 18  1  0
 19 21  1  0
 19 20  1  1
 21 22  1  6
 22 15  1  0
 23 25  1  0
 23 21  1  0
 24 23  2  0
M  END
$$$$
