KPI.pdb
     RDKit          3D

 25 25  0  0  1  0  0  0  0  0999 V2000
   11.2350  -17.0860   19.2753 N   0  0  0  0  0  0  0  0  0  0  0  0
    9.8529  -16.9834   19.7630 C   0  0  1  0  0  0  0  0  0  0  0  0
    9.4075  -18.3653   20.2641 C   0  0  0  0  0  0  0  0  0  0  0  0
   10.0244  -19.3501   19.2813 C   0  0  0  0  0  0  0  0  0  0  0  0
    9.6333  -20.7757   19.6042 C   0  0  0  0  0  0  0  0  0  0  0  0
   10.3204  -21.7592   18.6831 C   0  0  0  0  0  0  0  0  0  0  0  0
    9.9420  -23.0966   19.1525 N   0  0  0  0  0  0  0  0  0  0  0  0
    9.7700  -16.0517   20.8949 C   0  0  0  0  0  0  0  0  0  0  0  0
   10.8267  -15.6733   21.4818 O   0  0  0  0  0  0  0  0  0  0  0  0
    8.5458  -15.5599   21.3502 N   0  0  0  0  0  0  0  0  0  0  0  0
    7.2332  -15.8025   20.7859 C   0  0  0  0  0  0  0  0  0  0  0  0
    6.4974  -14.4819   20.9819 C   0  0  0  0  0  0  0  0  0  0  0  0
    7.1649  -13.8536   22.1412 C   0  0  0  0  0  0  0  0  0  0  0  0
    8.3466  -14.6803   22.4901 C   0  0  1  0  0  0  0  0  0  0  0  0
    8.1660  -15.4903   23.7124 C   0  0  0  0  0  0  0  0  0  0  0  0
    7.8246  -16.7091   23.5570 O   0  0  0  0  0  0  0  0  0  0  0  0
   10.3842  -13.2697   28.3412 C   0  0  0  0  0  0  0  0  0  0  0  0
   10.0829  -14.1861   27.1938 C   0  0  0  0  0  0  0  0  0  0  0  0
    8.9117  -15.0787   27.3871 C   0  0  2  0  0  0  0  0  0  0  0  0
    9.2529  -16.1424   28.4107 C   0  0  0  0  0  0  0  0  0  0  0  0
    8.4234  -15.7809   26.1486 C   0  0  2  0  0  0  0  0  0  0  0  0
    8.3637  -14.9354   25.0024 N   0  0  0  0  0  0  0  0  0  0  0  0
    7.1665  -16.5440   26.3536 C   0  0  0  0  0  0  0  0  0  0  0  0
    6.0651  -15.9823   26.1314 O   0  0  0  0  0  0  0  0  0  0  0  0
    7.1337  -17.8624   26.7833 O   0  0  0  0  0  0  0  0  0  0  0  0
  2  1  1  1
  2  3  1  0
  2  8  1  0
  4  3  1  0
  5  6  1  0
  5  4  1  0
  6  7  1  0
  8  9  2  0
  8 10  1  0
 10 11  1  0
 11 12  1  0
 13 12  1  0
 14 10  1  0
 14 13  1  0
 14 15  1  1
 16 15  2  0
 18 17  1  0
 19 18  1  0
 19 21  1  0
 19 20  1  1
 21 22  1  6
 22 15  1  0
 23 25  1  0
 23 21  1  0
 24 23  2  0
M  END
$$$$
