KPI.pdb
     RDKit          3D

 25 25  0  0  1  0  0  0  0  0999 V2000
    8.2815  -14.5444   20.2173 N   0  0  0  0  0  0  0  0  0  0  0  0
    7.4152  -14.5604   21.4039 C   0  0  1  0  0  0  0  0  0  0  0  0
    6.7974  -15.9601   21.5394 C   0  0  0  0  0  0  0  0  0  0  0  0
    7.9797  -16.9145   21.4518 C   0  0  0  0  0  0  0  0  0  0  0  0
    7.5413  -18.3561   21.5910 C   0  0  0  0  0  0  0  0  0  0  0  0
    8.7095  -19.3055   21.4429 C   0  0  0  0  0  0  0  0  0  0  0  0
    8.1599  -20.6589   21.5779 N   0  0  0  0  0  0  0  0  0  0  0  0
    8.1960  -14.2991   22.6198 C   0  0  0  0  0  0  0  0  0  0  0  0
    9.4612  -14.2761   22.5666 O   0  0  0  0  0  0  0  0  0  0  0  0
    7.5793  -14.0691   23.8505 N   0  0  0  0  0  0  0  0  0  0  0  0
    6.1741  -14.2144   24.1735 C   0  0  0  0  0  0  0  0  0  0  0  0
    5.9028  -13.0827   25.1582 C   0  0  0  0  0  0  0  0  0  0  0  0
    7.2152  -12.8099   25.7807 C   0  0  0  0  0  0  0  0  0  0  0  0
    8.2354  -13.6159   25.0658 C   0  0  1  0  0  0  0  0  0  0  0  0
    8.7147  -14.7843   25.8325 C   0  0  0  0  0  0  0  0  0  0  0  0
    8.3382  -15.9356   25.4338 O   0  0  0  0  0  0  0  0  0  0  0  0
   11.0983  -14.8748   30.7727 C   0  0  0  0  0  0  0  0  0  0  0  0
   11.1500  -14.3291   29.3775 C   0  0  0  0  0  0  0  0  0  0  0  0
   11.4771  -15.3209   28.3214 C   0  0  2  0  0  0  0  0  0  0  0  0
   12.5612  -14.7610   27.4232 C   0  0  0  0  0  0  0  0  0  0  0  0
   10.3266  -15.7314   27.4422 C   0  0  2  0  0  0  0  0  0  0  0  0
    9.5570  -14.6310   26.9631 N   0  0  0  0  0  0  0  0  0  0  0  0
    9.4796  -16.7994   28.0303 C   0  0  0  0  0  0  0  0  0  0  0  0
    8.2952  -16.5342   28.3540 O   0  0  0  0  0  0  0  0  0  0  0  0
    9.9245  -18.0950   28.2484 O   0  0  0  0  0  0  0  0  0  0  0  0
  2  1  1  6
  2  3  1  0
  2  8  1  0
  4  3  1  0
  5  6  1  0
  5  4  1  0
  6  7  1  0
  8  9  2  0
  8 10  1  0
 10 11  1  0
 11 12  1  0
 13 12  1  0
 14 10  1  0
 14 13  1  0
 14 15  1  1
 16 15  2  0
 18 17  1  0
 19 18  1  0
 19 21  1  0
 19 20  1  6
 21 22  1  1
 22 15  1  0
 23 25  1  0
 23 21  1  0
 24 23  2  0
M  END
$$$$
