KPI.pdb
     RDKit          3D

 25 25  0  0  1  0  0  0  0  0999 V2000
   10.5277  -18.2489   20.4931 N   0  0  0  0  0  0  0  0  0  0  0  0
    9.3106  -17.4259   20.4954 C   0  0  1  0  0  0  0  0  0  0  0  0
    8.1091  -18.3309   20.8064 C   0  0  0  0  0  0  0  0  0  0  0  0
    8.5105  -19.0872   22.0647 C   0  0  0  0  0  0  0  0  0  0  0  0
    7.4577  -20.0978   22.4649 C   0  0  0  0  0  0  0  0  0  0  0  0
    7.8446  -20.8258   23.7330 C   0  0  0  0  0  0  0  0  0  0  0  0
    6.7680  -21.7853   24.0018 N   0  0  0  0  0  0  0  0  0  0  0  0
    9.3792  -16.4012   21.5449 C   0  0  0  0  0  0  0  0  0  0  0  0
   10.2706  -16.4726   22.4418 O   0  0  0  0  0  0  0  0  0  0  0  0
    8.4817  -15.3331   21.5850 N   0  0  0  0  0  0  0  0  0  0  0  0
    7.2606  -15.1782   20.8202 C   0  0  0  0  0  0  0  0  0  0  0  0
    7.1983  -13.6844   20.5227 C   0  0  0  0  0  0  0  0  0  0  0  0
    7.9730  -13.0562   21.6134 C   0  0  0  0  0  0  0  0  0  0  0  0
    8.6072  -14.1393   22.4047 C   0  0  1  0  0  0  0  0  0  0  0  0
    7.9666  -14.3717   23.7155 C   0  0  0  0  0  0  0  0  0  0  0  0
    7.0867  -15.2926   23.7776 O   0  0  0  0  0  0  0  0  0  0  0  0
   10.9249  -13.0510   28.1245 C   0  0  0  0  0  0  0  0  0  0  0  0
    9.9713  -13.9033   27.3426 C   0  0  0  0  0  0  0  0  0  0  0  0
    8.5749  -13.4008   27.2840 C   0  0  2  0  0  0  0  0  0  0  0  0
    7.8502  -13.7773   28.5601 C   0  0  0  0  0  0  0  0  0  0  0  0
    7.7537  -13.9083   26.1293 C   0  0  2  0  0  0  0  0  0  0  0  0
    8.3156  -13.6031   24.8551 N   0  0  0  0  0  0  0  0  0  0  0  0
    6.3171  -13.5438   26.2150 C   0  0  0  0  0  0  0  0  0  0  0  0
    5.9095  -12.5139   25.6223 O   0  0  0  0  0  0  0  0  0  0  0  0
    5.3813  -14.2840   26.9223 O   0  0  0  0  0  0  0  0  0  0  0  0
  2  1  1  1
  2  3  1  0
  2  8  1  0
  4  3  1  0
  5  6  1  0
  5  4  1  0
  6  7  1  0
  8  9  2  0
  8 10  1  0
 10 11  1  0
 11 12  1  0
 13 12  1  0
 14 10  1  0
 14 13  1  0
 14 15  1  1
 16 15  2  0
 18 17  1  0
 19 18  1  0
 19 21  1  0
 19 20  1  1
 21 22  1  6
 22 15  1  0
 23 25  1  0
 23 21  1  0
 24 23  2  0
M  END
$$$$
