KPI.pdb
     RDKit          3D

 25 25  0  0  1  0  0  0  0  0999 V2000
   11.4651  -17.4663   19.6058 N   0  0  0  0  0  0  0  0  0  0  0  0
   10.0980  -17.6224   20.1209 C   0  0  1  0  0  0  0  0  0  0  0  0
   10.0366  -18.9049   20.9638 C   0  0  0  0  0  0  0  0  0  0  0  0
    9.7295  -20.0103   19.9637 C   0  0  0  0  0  0  0  0  0  0  0  0
    9.6973  -21.3686   20.6298 C   0  0  0  0  0  0  0  0  0  0  0  0
    9.3770  -22.4635   19.6366 C   0  0  0  0  0  0  0  0  0  0  0  0
    9.5251  -23.7314   20.3594 N   0  0  0  0  0  0  0  0  0  0  0  0
    9.7416  -16.4977   20.9952 C   0  0  0  0  0  0  0  0  0  0  0  0
   10.6474  -15.8677   21.6168 O   0  0  0  0  0  0  0  0  0  0  0  0
    8.4166  -16.0929   21.1637 N   0  0  0  0  0  0  0  0  0  0  0  0
    7.2284  -16.7114   20.6109 C   0  0  0  0  0  0  0  0  0  0  0  0
    6.3109  -15.5348   20.2986 C   0  0  0  0  0  0  0  0  0  0  0  0
    6.7396  -14.4720   21.2320 C   0  0  0  0  0  0  0  0  0  0  0  0
    7.9632  -14.9421   21.9273 C   0  0  1  0  0  0  0  0  0  0  0  0
    7.7335  -15.3413   23.3311 C   0  0  0  0  0  0  0  0  0  0  0  0
    8.0679  -16.5269   23.6606 O   0  0  0  0  0  0  0  0  0  0  0  0
    6.3008  -10.9217   26.2433 C   0  0  0  0  0  0  0  0  0  0  0  0
    7.2909  -11.9755   25.8479 C   0  0  0  0  0  0  0  0  0  0  0  0
    7.0611  -13.3160   26.4445 C   0  0  2  0  0  0  0  0  0  0  0  0
    7.7213  -13.3809   27.8065 C   0  0  0  0  0  0  0  0  0  0  0  0
    7.5721  -14.4787   25.6367 C   0  0  2  0  0  0  0  0  0  0  0  0
    7.1652  -14.4440   24.2708 N   0  0  0  0  0  0  0  0  0  0  0  0
    7.3195  -15.7985   26.2678 C   0  0  0  0  0  0  0  0  0  0  0  0
    6.2168  -16.3689   26.0762 O   0  0  0  0  0  0  0  0  0  0  0  0
    8.2432  -16.4516   27.0705 O   0  0  0  0  0  0  0  0  0  0  0  0
  2  1  1  1
  2  3  1  0
  2  8  1  0
  4  3  1  0
  5  6  1  0
  5  4  1  0
  6  7  1  0
  8  9  2  0
  8 10  1  0
 10 11  1  0
 11 12  1  0
 13 12  1  0
 14 10  1  0
 14 13  1  0
 14 15  1  1
 16 15  2  0
 18 17  1  0
 19 18  1  0
 19 21  1  0
 19 20  1  1
 21 22  1  6
 22 15  1  0
 23 25  1  0
 23 21  1  0
 24 23  2  0
M  END
$$$$
