SNP.pdb
     RDKit          3D

 22 22  0  0  1  0  0  0  0  0999 V2000
   16.7645  -12.6972  -16.2223 O   0  0  0  0  0  0  0  0  0  0  0  0
   16.9532  -12.5806  -17.5856 C   0  0  0  0  0  0  0  0  0  0  0  0
   18.1661  -13.4006  -17.9807 C   0  0  2  0  0  0  0  0  0  0  0  0
   18.0513  -14.6836  -17.3575 N   0  0  0  0  0  0  0  0  0  0  0  0
   19.4144  -12.7410  -17.4724 C   0  0  0  0  0  0  0  0  0  0  0  0
   19.8727  -13.0175  -16.3315 O   0  0  0  0  0  0  0  0  0  0  0  0
   23.7678  -10.0204  -17.3119 N   0  0  0  0  0  0  0  0  0  0  0  0
   23.3199   -9.9119  -18.6439 C   0  0  0  0  0  0  0  0  0  0  0  0
   24.0913   -9.4020  -19.4922 O   0  0  0  0  0  0  0  0  0  0  0  0
   21.9654  -10.4059  -18.9644 C   0  0  0  0  0  0  0  0  0  0  0  0
   21.3101  -11.1376  -17.8044 C   0  0  2  0  0  0  0  0  0  0  0  0
   20.1010  -11.7966  -18.2628 N   0  0  0  0  0  0  0  0  0  0  0  0
   20.8947  -10.0695  -16.8453 C   0  0  0  0  0  0  0  0  0  0  0  0
   19.7855   -9.4702  -17.1042 O   0  0  0  0  0  0  0  0  0  0  0  0
   21.6262   -9.6919  -15.7047 N   0  0  0  0  0  0  0  0  0  0  0  0
   22.9232  -10.1915  -15.3263 C   0  0  0  0  0  0  0  0  0  0  0  0
   23.0480   -9.9423  -13.8295 C   0  0  0  0  0  0  0  0  0  0  0  0
   21.6259   -9.5123  -13.4431 C   0  0  0  0  0  0  0  0  0  0  0  0
   21.2597   -8.7210  -14.7114 C   0  0  1  0  0  0  0  0  0  0  0  0
   22.2107   -7.5486  -14.7598 C   0  0  0  0  0  0  0  0  0  0  0  0
   23.1859   -7.4470  -15.7222 O   0  0  0  0  0  0  0  0  0  0  0  0
   22.1158   -6.6372  -13.9023 O   0  0  0  0  0  0  0  0  0  0  0  0
  1  2  1  0
  3  4  1  1
  3  2  1  0
  3  5  1  0
  5 12  1  0
  5  6  2  0
  8  7  1  0
  8 10  1  0
  9  8  2  0
 11 10  1  6
 11 13  1  0
 12 11  1  0
 13 14  2  0
 13 15  1  0
 15 16  1  0
 16 17  1  0
 18 17  1  0
 19 15  1  0
 19 18  1  0
 19 20  1  6
 21 20  1  0
 22 20  2  0
M  END
$$$$
