SNP.pdb
     RDKit          3D

 22 22  0  0  1  0  0  0  0  0999 V2000
   25.2215  -14.0555  -15.3445 O   0  0  0  0  0  0  0  0  0  0  0  0
   24.8776  -12.7564  -15.6640 C   0  0  0  0  0  0  0  0  0  0  0  0
   23.8097  -12.7867  -16.7403 C   0  0  2  0  0  0  0  0  0  0  0  0
   24.4306  -13.1920  -17.9642 N   0  0  0  0  0  0  0  0  0  0  0  0
   23.2426  -11.4110  -16.9339 C   0  0  0  0  0  0  0  0  0  0  0  0
   23.7331  -10.6241  -17.7873 O   0  0  0  0  0  0  0  0  0  0  0  0
   18.4792  -11.6948  -15.9825 N   0  0  0  0  0  0  0  0  0  0  0  0
   19.2447  -10.7598  -16.7080 C   0  0  0  0  0  0  0  0  0  0  0  0
   19.2120  -10.8075  -17.9615 O   0  0  0  0  0  0  0  0  0  0  0  0
   20.0426   -9.7758  -15.9486 C   0  0  0  0  0  0  0  0  0  0  0  0
   21.4889   -9.7007  -16.4102 C   0  0  2  0  0  0  0  0  0  0  0  0
   22.1472  -10.9703  -16.1632 N   0  0  0  0  0  0  0  0  0  0  0  0
   22.1364   -8.6872  -15.5232 C   0  0  0  0  0  0  0  0  0  0  0  0
   22.6927   -9.1376  -14.4535 O   0  0  0  0  0  0  0  0  0  0  0  0
   22.1734   -7.3054  -15.7837 N   0  0  0  0  0  0  0  0  0  0  0  0
   21.4727   -6.6236  -16.8416 C   0  0  0  0  0  0  0  0  0  0  0  0
   22.2200   -5.3160  -17.0647 C   0  0  0  0  0  0  0  0  0  0  0  0
   23.4862   -5.5067  -16.2179 C   0  0  0  0  0  0  0  0  0  0  0  0
   22.8758   -6.2936  -15.0444 C   0  0  1  0  0  0  0  0  0  0  0  0
   21.8901   -5.3589  -14.3840 C   0  0  0  0  0  0  0  0  0  0  0  0
   22.2741   -4.4787  -13.4015 O   0  0  0  0  0  0  0  0  0  0  0  0
   20.6855   -5.3789  -14.7352 O   0  0  0  0  0  0  0  0  0  0  0  0
  1  2  1  0
  3  4  1  6
  3  2  1  0
  3  5  1  0
  5 12  1  0
  5  6  2  0
  8  7  1  0
  8 10  1  0
  9  8  2  0
 11 10  1  1
 11 13  1  0
 12 11  1  0
 13 14  2  0
 13 15  1  0
 15 16  1  0
 16 17  1  0
 18 17  1  0
 19 15  1  0
 19 18  1  0
 19 20  1  6
 21 20  1  0
 22 20  2  0
M  END
$$$$
