SNP.pdb
     RDKit          3D

 22 22  0  0  1  0  0  0  0  0999 V2000
   13.9277  -10.1591  -14.1851 O   0  0  0  0  0  0  0  0  0  0  0  0
   15.3046  -10.0547  -14.1498 C   0  0  0  0  0  0  0  0  0  0  0  0
   15.8650  -10.5657  -15.4630 C   0  0  2  0  0  0  0  0  0  0  0  0
   15.9538  -11.9914  -15.3779 N   0  0  0  0  0  0  0  0  0  0  0  0
   17.2470  -10.0203  -15.6736 C   0  0  0  0  0  0  0  0  0  0  0  0
   18.2635  -10.7033  -15.3764 O   0  0  0  0  0  0  0  0  0  0  0  0
   18.8732   -9.2130  -19.0587 N   0  0  0  0  0  0  0  0  0  0  0  0
   18.7216   -7.8137  -18.9829 C   0  0  0  0  0  0  0  0  0  0  0  0
   18.6518   -7.1632  -20.0537 O   0  0  0  0  0  0  0  0  0  0  0  0
   18.6536   -7.1932  -17.6443 C   0  0  0  0  0  0  0  0  0  0  0  0
   18.7545   -8.2052  -16.5147 C   0  0  2  0  0  0  0  0  0  0  0  0
   17.4363   -8.7299  -16.2094 N   0  0  0  0  0  0  0  0  0  0  0  0
   19.2067   -7.4255  -15.3226 C   0  0  0  0  0  0  0  0  0  0  0  0
   18.2863   -6.8317  -14.6467 O   0  0  0  0  0  0  0  0  0  0  0  0
   20.5452   -7.3073  -14.9065 N   0  0  0  0  0  0  0  0  0  0  0  0
   21.7025   -7.7551  -15.6379 C   0  0  0  0  0  0  0  0  0  0  0  0
   22.8109   -7.9219  -14.6076 C   0  0  0  0  0  0  0  0  0  0  0  0
   22.0575   -7.7669  -13.2791 C   0  0  0  0  0  0  0  0  0  0  0  0
   21.0372   -6.6957  -13.7034 C   0  0  1  0  0  0  0  0  0  0  0  0
   21.8431   -5.4641  -14.0427 C   0  0  0  0  0  0  0  0  0  0  0  0
   22.0445   -5.0663  -15.3422 O   0  0  0  0  0  0  0  0  0  0  0  0
   22.3467   -4.7788  -13.1198 O   0  0  0  0  0  0  0  0  0  0  0  0
  1  2  1  0
  3  4  1  1
  3  2  1  0
  3  5  1  0
  5 12  1  0
  5  6  2  0
  8  7  1  0
  8 10  1  0
  9  8  2  0
 11 10  1  6
 11 13  1  0
 12 11  1  0
 13 14  2  0
 13 15  1  0
 15 16  1  0
 16 17  1  0
 18 17  1  0
 19 15  1  0
 19 18  1  0
 19 20  1  6
 21 20  1  0
 22 20  2  0
M  END
$$$$
