SNP.pdb
     RDKit          3D

 22 22  0  0  1  0  0  0  0  0999 V2000
   28.0378  -20.1587  -18.3241 O   0  0  0  0  0  0  0  0  0  0  0  0
   27.7125  -19.8745  -17.0121 C   0  0  0  0  0  0  0  0  0  0  0  0
   28.2734  -20.9682  -16.1239 C   0  0  2  0  0  0  0  0  0  0  0  0
   28.6642  -22.0591  -16.9635 N   0  0  0  0  0  0  0  0  0  0  0  0
   27.2106  -21.4559  -15.1836 C   0  0  0  0  0  0  0  0  0  0  0  0
   26.4792  -22.4360  -15.4875 O   0  0  0  0  0  0  0  0  0  0  0  0
   25.0736  -21.7315   -9.8328 N   0  0  0  0  0  0  0  0  0  0  0  0
   24.9289  -20.7270  -10.8110 C   0  0  0  0  0  0  0  0  0  0  0  0
   23.8485  -20.0903  -10.8557 O   0  0  0  0  0  0  0  0  0  0  0  0
   26.0600  -20.4819  -11.7285 C   0  0  0  0  0  0  0  0  0  0  0  0
   25.8804  -21.1463  -13.0837 C   0  0  2  0  0  0  0  0  0  0  0  0
   27.0085  -20.8257  -13.9385 N   0  0  0  0  0  0  0  0  0  0  0  0
   24.6734  -20.5019  -13.6848 C   0  0  0  0  0  0  0  0  0  0  0  0
   24.8459  -19.3341  -14.1976 O   0  0  0  0  0  0  0  0  0  0  0  0
   23.3931  -21.0834  -13.7227 N   0  0  0  0  0  0  0  0  0  0  0  0
   22.9854  -22.2803  -13.0327 C   0  0  0  0  0  0  0  0  0  0  0  0
   21.7656  -22.8005  -13.7806 C   0  0  0  0  0  0  0  0  0  0  0  0
   21.7443  -21.9196  -15.0377 C   0  0  0  0  0  0  0  0  0  0  0  0
   22.2317  -20.5990  -14.4156 C   0  0  1  0  0  0  0  0  0  0  0  0
   21.1706  -20.1902  -13.4215 C   0  0  0  0  0  0  0  0  0  0  0  0
   20.0391  -19.5136  -13.8080 O   0  0  0  0  0  0  0  0  0  0  0  0
   21.3170  -20.4715  -12.2073 O   0  0  0  0  0  0  0  0  0  0  0  0
  1  2  1  0
  3  4  1  6
  3  2  1  0
  3  5  1  0
  5 12  1  0
  5  6  2  0
  8  7  1  0
  8 10  1  0
  9  8  2  0
 11 10  1  1
 11 13  1  0
 12 11  1  0
 13 14  2  0
 13 15  1  0
 15 16  1  0
 16 17  1  0
 18 17  1  0
 19 15  1  0
 19 18  1  0
 19 20  1  1
 21 20  1  0
 22 20  2  0
M  END
$$$$
