SNP.pdb
     RDKit          3D

 22 22  0  0  1  0  0  0  0  0999 V2000
   14.5720  -10.2817  -14.5752 O   0  0  0  0  0  0  0  0  0  0  0  0
   15.2953  -11.4583  -14.5854 C   0  0  0  0  0  0  0  0  0  0  0  0
   16.7117  -11.1549  -15.0342 C   0  0  2  0  0  0  0  0  0  0  0  0
   17.4368  -12.3881  -15.0650 N   0  0  0  0  0  0  0  0  0  0  0  0
   17.3756  -10.2437  -14.0440 C   0  0  0  0  0  0  0  0  0  0  0  0
   17.6286  -10.6360  -12.8735 O   0  0  0  0  0  0  0  0  0  0  0  0
   21.2806   -8.2116  -15.1866 N   0  0  0  0  0  0  0  0  0  0  0  0
   20.6731   -7.7810  -13.9898 C   0  0  0  0  0  0  0  0  0  0  0  0
   21.2884   -7.9607  -12.9110 O   0  0  0  0  0  0  0  0  0  0  0  0
   19.3444   -7.1417  -14.0755 C   0  0  0  0  0  0  0  0  0  0  0  0
   18.2429   -7.9731  -13.4384 C   0  0  2  0  0  0  0  0  0  0  0  0
   17.7303   -8.9274  -14.4041 N   0  0  0  0  0  0  0  0  0  0  0  0
   17.1399   -7.0096  -13.1411 C   0  0  0  0  0  0  0  0  0  0  0  0
   16.2407   -6.8731  -14.0518 O   0  0  0  0  0  0  0  0  0  0  0  0
   17.0298   -6.2634  -11.9538 N   0  0  0  0  0  0  0  0  0  0  0  0
   17.9518   -6.2907  -10.8474 C   0  0  0  0  0  0  0  0  0  0  0  0
   17.1712   -5.7927   -9.6388 C   0  0  0  0  0  0  0  0  0  0  0  0
   15.7300   -5.7529  -10.1658 C   0  0  0  0  0  0  0  0  0  0  0  0
   16.0135   -5.3076  -11.6115 C   0  0  1  0  0  0  0  0  0  0  0  0
   16.6165   -3.9264  -11.5112 C   0  0  0  0  0  0  0  0  0  0  0  0
   17.9636   -3.7113  -11.6742 O   0  0  0  0  0  0  0  0  0  0  0  0
   15.8755   -2.9420  -11.2729 O   0  0  0  0  0  0  0  0  0  0  0  0
  1  2  1  0
  3  4  1  1
  3  2  1  0
  3  5  1  0
  5 12  1  0
  5  6  2  0
  8  7  1  0
  8 10  1  0
  9  8  2  0
 11 10  1  6
 11 13  1  0
 12 11  1  0
 13 14  2  0
 13 15  1  0
 15 16  1  0
 16 17  1  0
 18 17  1  0
 19 15  1  0
 19 18  1  0
 19 20  1  1
 21 20  1  0
 22 20  2  0
M  END
$$$$
