SNP.pdb
     RDKit          3D

 22 22  0  0  1  0  0  0  0  0999 V2000
   14.0782   -8.4671  -11.9369 O   0  0  0  0  0  0  0  0  0  0  0  0
   15.4135   -8.1151  -11.9663 C   0  0  0  0  0  0  0  0  0  0  0  0
   16.2506   -9.3792  -11.9349 C   0  0  2  0  0  0  0  0  0  0  0  0
   16.3166   -9.8292  -10.5781 N   0  0  0  0  0  0  0  0  0  0  0  0
   17.6455   -9.0781  -12.3988 C   0  0  0  0  0  0  0  0  0  0  0  0
   18.5341   -8.7160  -11.5819 O   0  0  0  0  0  0  0  0  0  0  0  0
   21.8358   -8.6837  -15.3274 N   0  0  0  0  0  0  0  0  0  0  0  0
   20.9776   -9.5713  -16.0074 C   0  0  0  0  0  0  0  0  0  0  0  0
   21.4229  -10.1792  -17.0108 O   0  0  0  0  0  0  0  0  0  0  0  0
   19.6009   -9.7343  -15.4981 C   0  0  0  0  0  0  0  0  0  0  0  0
   19.3301   -8.9169  -14.2456 C   0  0  2  0  0  0  0  0  0  0  0  0
   17.9906   -9.1944  -13.7609 N   0  0  0  0  0  0  0  0  0  0  0  0
   19.3523   -7.4903  -14.6903 C   0  0  0  0  0  0  0  0  0  0  0  0
   18.3053   -7.0693  -15.3092 O   0  0  0  0  0  0  0  0  0  0  0  0
   20.4231   -6.6036  -14.4760 N   0  0  0  0  0  0  0  0  0  0  0  0
   21.7171   -6.9501  -13.9464 C   0  0  0  0  0  0  0  0  0  0  0  0
   22.3043   -5.6580  -13.3955 C   0  0  0  0  0  0  0  0  0  0  0  0
   21.1113   -4.6943  -13.4621 C   0  0  0  0  0  0  0  0  0  0  0  0
   20.4667   -5.1973  -14.7660 C   0  0  1  0  0  0  0  0  0  0  0  0
   21.4730   -4.9267  -15.8594 C   0  0  0  0  0  0  0  0  0  0  0  0
   22.2276   -5.9322  -16.4135 O   0  0  0  0  0  0  0  0  0  0  0  0
   21.6317   -3.7550  -16.2801 O   0  0  0  0  0  0  0  0  0  0  0  0
  1  2  1  0
  3  4  1  1
  3  2  1  0
  3  5  1  0
  5 12  1  0
  5  6  2  0
  8  7  1  0
  8 10  1  0
  9  8  2  0
 11 10  1  6
 11 13  1  0
 12 11  1  0
 13 14  2  0
 13 15  1  0
 15 16  1  0
 16 17  1  0
 18 17  1  0
 19 15  1  0
 19 18  1  0
 19 20  1  6
 21 20  1  0
 22 20  2  0
M  END
$$$$
