SNP.pdb
     RDKit          3D

 22 22  0  0  1  0  0  0  0  0999 V2000
   20.5438  -20.5727  -15.5852 O   0  0  0  0  0  0  0  0  0  0  0  0
   20.0225  -20.3787  -14.3209 C   0  0  0  0  0  0  0  0  0  0  0  0
   20.8990  -21.1025  -13.3170 C   0  0  2  0  0  0  0  0  0  0  0  0
   20.2342  -21.0714  -12.0502 N   0  0  0  0  0  0  0  0  0  0  0  0
   22.2107  -20.3874  -13.1773 C   0  0  0  0  0  0  0  0  0  0  0  0
   22.2514  -19.1397  -13.0052 O   0  0  0  0  0  0  0  0  0  0  0  0
   24.7157  -20.4076  -10.4252 N   0  0  0  0  0  0  0  0  0  0  0  0
   25.6313  -21.3060  -11.0094 C   0  0  0  0  0  0  0  0  0  0  0  0
   26.3230  -22.0285  -10.2516 O   0  0  0  0  0  0  0  0  0  0  0  0
   25.7234  -21.3448  -12.4830 C   0  0  0  0  0  0  0  0  0  0  0  0
   24.7152  -20.4347  -13.1653 C   0  0  2  0  0  0  0  0  0  0  0  0
   23.4267  -21.0988  -13.2359 N   0  0  0  0  0  0  0  0  0  0  0  0
   25.2083  -20.2767  -14.5672 C   0  0  0  0  0  0  0  0  0  0  0  0
   24.5094  -20.8468  -15.4854 O   0  0  0  0  0  0  0  0  0  0  0  0
   26.3615  -19.5586  -14.9320 N   0  0  0  0  0  0  0  0  0  0  0  0
   27.3570  -19.0393  -14.0297 C   0  0  0  0  0  0  0  0  0  0  0  0
   28.0631  -17.9205  -14.7832 C   0  0  0  0  0  0  0  0  0  0  0  0
   27.1844  -17.7523  -16.0307 C   0  0  0  0  0  0  0  0  0  0  0  0
   26.8027  -19.2258  -16.2580 C   0  0  1  0  0  0  0  0  0  0  0  0
   28.0928  -19.9471  -16.5689 C   0  0  0  0  0  0  0  0  0  0  0  0
   28.7034  -19.8419  -17.7952 O   0  0  0  0  0  0  0  0  0  0  0  0
   28.6297  -20.6644  -15.6902 O   0  0  0  0  0  0  0  0  0  0  0  0
  1  2  1  0
  3  4  1  1
  3  2  1  0
  3  5  1  0
  5 12  1  0
  5  6  2  0
  8  7  1  0
  8 10  1  0
  9  8  2  0
 11 10  1  1
 11 13  1  0
 12 11  1  0
 13 14  2  0
 13 15  1  0
 15 16  1  0
 16 17  1  0
 18 17  1  0
 19 15  1  0
 19 18  1  0
 19 20  1  1
 21 20  1  0
 22 20  2  0
M  END
$$$$
