SNP.pdb
     RDKit          3D

 22 22  0  0  1  0  0  0  0  0999 V2000
   27.5232  -12.0944  -15.9765 O   0  0  0  0  0  0  0  0  0  0  0  0
   26.4810  -11.1902  -15.9130 C   0  0  0  0  0  0  0  0  0  0  0  0
   25.2402  -11.8362  -16.4985 C   0  0  2  0  0  0  0  0  0  0  0  0
   25.6105  -12.4624  -17.7307 N   0  0  0  0  0  0  0  0  0  0  0  0
   24.2109  -10.7855  -16.7958 C   0  0  0  0  0  0  0  0  0  0  0  0
   24.2178  -10.1665  -17.8934 O   0  0  0  0  0  0  0  0  0  0  0  0
   19.0182   -8.8904  -16.8374 N   0  0  0  0  0  0  0  0  0  0  0  0
   19.8370   -8.8287  -15.6917 C   0  0  0  0  0  0  0  0  0  0  0  0
   19.6377   -7.9049  -14.8661 O   0  0  0  0  0  0  0  0  0  0  0  0
   20.8843   -9.8574  -15.5294 C   0  0  0  0  0  0  0  0  0  0  0  0
   22.2325   -9.4248  -16.0821 C   0  0  2  0  0  0  0  0  0  0  0  0
   23.2134  -10.4692  -15.8508 N   0  0  0  0  0  0  0  0  0  0  0  0
   22.6395   -8.2462  -15.2584 C   0  0  0  0  0  0  0  0  0  0  0  0
   23.2136   -8.5054  -14.1361 O   0  0  0  0  0  0  0  0  0  0  0  0
   22.4378   -6.9045  -15.6298 N   0  0  0  0  0  0  0  0  0  0  0  0
   21.6968   -6.4450  -16.7764 C   0  0  0  0  0  0  0  0  0  0  0  0
   22.2028   -5.0386  -17.0665 C   0  0  0  0  0  0  0  0  0  0  0  0
   23.4217   -4.9250  -16.1402 C   0  0  0  0  0  0  0  0  0  0  0  0
   22.8890   -5.7279  -14.9401 C   0  0  1  0  0  0  0  0  0  0  0  0
   21.7048   -4.9526  -14.4129 C   0  0  0  0  0  0  0  0  0  0  0  0
   20.4167   -5.2635  -14.7756 O   0  0  0  0  0  0  0  0  0  0  0  0
   21.8920   -3.9968  -13.6215 O   0  0  0  0  0  0  0  0  0  0  0  0
  1  2  1  0
  3  4  1  6
  3  2  1  0
  3  5  1  0
  5 12  1  0
  5  6  2  0
  8  7  1  0
  8 10  1  0
  9  8  2  0
 11 10  1  1
 11 13  1  0
 12 11  1  0
 13 14  2  0
 13 15  1  0
 15 16  1  0
 16 17  1  0
 18 17  1  0
 19 15  1  0
 19 18  1  0
 19 20  1  6
 21 20  1  0
 22 20  2  0
M  END
$$$$
