SNP.pdb
     RDKit          3D

 22 22  0  0  1  0  0  0  0  0999 V2000
   26.3821  -17.6102  -16.4969 O   0  0  0  0  0  0  0  0  0  0  0  0
   27.3450  -18.1401  -17.3335 C   0  0  0  0  0  0  0  0  0  0  0  0
   28.2490  -19.0474  -16.5215 C   0  0  2  0  0  0  0  0  0  0  0  0
   28.9865  -19.8651  -17.4354 N   0  0  0  0  0  0  0  0  0  0  0  0
   27.4201  -19.9453  -15.6507 C   0  0  0  0  0  0  0  0  0  0  0  0
   26.8612  -20.9699  -16.1259 O   0  0  0  0  0  0  0  0  0  0  0  0
   26.0353  -22.2970  -10.9822 N   0  0  0  0  0  0  0  0  0  0  0  0
   25.8343  -20.9026  -11.0293 C   0  0  0  0  0  0  0  0  0  0  0  0
   24.9686  -20.3996  -10.2729 O   0  0  0  0  0  0  0  0  0  0  0  0
   26.6564  -20.1131  -11.9686 C   0  0  0  0  0  0  0  0  0  0  0  0
   26.3927  -20.4597  -13.4248 C   0  0  2  0  0  0  0  0  0  0  0  0
   27.2498  -19.6600  -14.2805 N   0  0  0  0  0  0  0  0  0  0  0  0
   24.9848  -20.0320  -13.6859 C   0  0  0  0  0  0  0  0  0  0  0  0
   24.7954  -18.7717  -13.8656 O   0  0  0  0  0  0  0  0  0  0  0  0
   23.8832  -20.9047  -13.7463 N   0  0  0  0  0  0  0  0  0  0  0  0
   23.8874  -22.3002  -13.3893 C   0  0  0  0  0  0  0  0  0  0  0  0
   22.7015  -22.9219  -14.1140 C   0  0  0  0  0  0  0  0  0  0  0  0
   22.2554  -21.7928  -15.0535 C   0  0  0  0  0  0  0  0  0  0  0  0
   22.5370  -20.5896  -14.1360 C   0  0  1  0  0  0  0  0  0  0  0  0
   21.6087  -20.7409  -12.9541 C   0  0  0  0  0  0  0  0  0  0  0  0
   20.3086  -20.2985  -12.9937 O   0  0  0  0  0  0  0  0  0  0  0  0
   22.0266  -21.2840  -11.9028 O   0  0  0  0  0  0  0  0  0  0  0  0
  1  2  1  0
  3  4  1  6
  3  2  1  0
  3  5  1  0
  5 12  1  0
  5  6  2  0
  8  7  1  0
  8 10  1  0
  9  8  2  0
 11 10  1  1
 11 13  1  0
 12 11  1  0
 13 14  2  0
 13 15  1  0
 15 16  1  0
 16 17  1  0
 18 17  1  0
 19 15  1  0
 19 18  1  0
 19 20  1  1
 21 20  1  0
 22 20  2  0
M  END
$$$$
