AYF.pdb
     RDKit          3D

 29 30  0  0  1  0  0  0  0  0999 V2000
   11.1491  -19.3597   20.5486 C   0  0  0  0  0  0  0  0  0  0  0  0
   10.9399  -17.9580   20.0793 C   0  0  2  0  0  0  0  0  0  0  0  0
   12.1400  -17.5017   19.4127 N   0  0  0  0  0  0  0  0  0  0  0  0
   10.6143  -17.0159   21.1702 C   0  0  0  0  0  0  0  0  0  0  0  0
   11.5209  -16.2583   21.5990 O   0  0  0  0  0  0  0  0  0  0  0  0
    7.3753  -12.8888   17.3479 O   0  0  0  0  0  0  0  0  0  0  0  0
    7.4787  -13.4332   18.6171 C   0  0  0  0  0  0  0  0  0  0  0  0
    6.8842  -14.6707   18.8622 C   0  0  0  0  0  0  0  0  0  0  0  0
    6.9987  -15.1941   20.1327 C   0  0  0  0  0  0  0  0  0  0  0  0
    7.6581  -14.5691   21.1538 C   0  0  0  0  0  0  0  0  0  0  0  0
    7.7376  -15.2027   22.4918 C   0  0  0  0  0  0  0  0  0  0  0  0
    9.0849  -15.8502   22.7207 C   0  0  2  0  0  0  0  0  0  0  0  0
    9.3521  -16.9019   21.7715 N   0  0  0  0  0  0  0  0  0  0  0  0
    9.2171  -16.3524   24.1092 C   0  0  0  0  0  0  0  0  0  0  0  0
    9.2761  -17.5881   24.3100 O   0  0  0  0  0  0  0  0  0  0  0  0
    8.2435  -13.3347   20.8845 C   0  0  0  0  0  0  0  0  0  0  0  0
    8.1512  -12.7724   19.6171 C   0  0  0  0  0  0  0  0  0  0  0  0
    9.2729  -15.4411   25.1667 N   0  0  0  0  0  0  0  0  0  0  0  0
    9.4354  -15.8188   26.5622 C   0  0  1  0  0  0  0  0  0  0  0  0
    9.3883  -14.5648   27.3662 C   0  0  0  0  0  0  0  0  0  0  0  0
    8.2468  -13.6986   27.0400 C   0  0  0  0  0  0  0  0  0  0  0  0
    8.4955  -12.4911   26.4063 C   0  0  0  0  0  0  0  0  0  0  0  0
    7.4223  -11.6874   26.1075 C   0  0  0  0  0  0  0  0  0  0  0  0
    6.1186  -12.0106   26.4001 C   0  0  0  0  0  0  0  0  0  0  0  0
    5.8648  -13.2227   27.0364 C   0  0  0  0  0  0  0  0  0  0  0  0
    6.9289  -14.0524   27.3491 C   0  0  0  0  0  0  0  0  0  0  0  0
    8.4892  -16.8654   26.9593 C   0  0  0  0  0  0  0  0  0  0  0  0
    7.3985  -17.2537   26.1856 O   0  0  0  0  0  0  0  0  0  0  0  0
    8.6283  -17.4736   28.0488 O   0  0  0  0  0  0  0  0  0  0  0  0
  2  1  1  1
  3  2  1  0
  4 13  1  0
  4  2  1  0
  5  4  2  0
  7  8  2  0
  7  6  1  0
  9  8  1  0
 10  9  2  0
 11 10  1  0
 12 11  1  1
 12 13  1  0
 14 18  1  0
 14 12  1  0
 15 14  2  0
 16 10  1  0
 16 17  2  0
 17  7  1  0
 19 18  1  0
 19 20  1  1
 21 26  1  0
 21 20  1  0
 22 21  2  0
 23 24  2  0
 23 22  1  0
 24 25  1  0
 25 26  2  0
 27 19  1  0
 28 27  1  0
 29 27  2  0
M  END
$$$$
