AYF.pdb
     RDKit          3D

 29 30  0  0  1  0  0  0  0  0999 V2000
    7.9947  -19.4971   22.3139 C   0  0  0  0  0  0  0  0  0  0  0  0
    7.9263  -18.5123   21.1940 C   0  0  2  0  0  0  0  0  0  0  0  0
    8.6808  -19.0248   20.0711 N   0  0  0  0  0  0  0  0  0  0  0  0
    8.4529  -17.1787   21.5517 C   0  0  0  0  0  0  0  0  0  0  0  0
    9.6559  -16.9202   21.2955 O   0  0  0  0  0  0  0  0  0  0  0  0
    7.9615  -13.2079   16.4739 O   0  0  0  0  0  0  0  0  0  0  0  0
    7.8498  -13.3495   17.8470 C   0  0  0  0  0  0  0  0  0  0  0  0
    8.7735  -12.6958   18.6620 C   0  0  0  0  0  0  0  0  0  0  0  0
    8.6444  -12.8508   20.0260 C   0  0  0  0  0  0  0  0  0  0  0  0
    7.6678  -13.6043   20.6145 C   0  0  0  0  0  0  0  0  0  0  0  0
    7.5972  -13.7167   22.0911 C   0  0  0  0  0  0  0  0  0  0  0  0
    8.3309  -14.9410   22.5909 C   0  0  2  0  0  0  0  0  0  0  0  0
    7.7006  -16.1655   22.1644 N   0  0  0  0  0  0  0  0  0  0  0  0
    8.4848  -14.9176   24.0651 C   0  0  0  0  0  0  0  0  0  0  0  0
    8.1995  -13.8716   24.6937 O   0  0  0  0  0  0  0  0  0  0  0  0
    6.7572  -14.2472   19.7799 C   0  0  0  0  0  0  0  0  0  0  0  0
    6.8524  -14.1167   18.3997 C   0  0  0  0  0  0  0  0  0  0  0  0
    8.9446  -16.0597   24.7257 N   0  0  0  0  0  0  0  0  0  0  0  0
    9.0714  -16.1715   26.1706 C   0  0  1  0  0  0  0  0  0  0  0  0
    7.7423  -15.8374   26.7564 C   0  0  0  0  0  0  0  0  0  0  0  0
    7.4797  -14.3936   26.8356 C   0  0  0  0  0  0  0  0  0  0  0  0
    8.4467  -13.5779   27.4021 C   0  0  0  0  0  0  0  0  0  0  0  0
    8.1911  -12.2301   27.4737 C   0  0  0  0  0  0  0  0  0  0  0  0
    7.0342  -11.6447   27.0171 C   0  0  0  0  0  0  0  0  0  0  0  0
    6.0606  -12.4609   26.4472 C   0  0  0  0  0  0  0  0  0  0  0  0
    6.2927  -13.8237   26.3625 C   0  0  0  0  0  0  0  0  0  0  0  0
    9.6373  -17.4628   26.5718 C   0  0  0  0  0  0  0  0  0  0  0  0
   10.1067  -17.7347   27.8542 O   0  0  0  0  0  0  0  0  0  0  0  0
    9.7245  -18.4065   25.7483 O   0  0  0  0  0  0  0  0  0  0  0  0
  2  1  1  1
  3  2  1  0
  4 13  1  0
  4  2  1  0
  5  4  2  0
  7  8  2  0
  7  6  1  0
  9  8  1  0
 10  9  2  0
 11 10  1  0
 12 11  1  1
 12 13  1  0
 14 18  1  0
 14 12  1  0
 15 14  2  0
 16 10  1  0
 16 17  2  0
 17  7  1  0
 19 18  1  0
 19 20  1  1
 21 26  1  0
 21 20  1  0
 22 21  2  0
 23 24  2  0
 23 22  1  0
 24 25  1  0
 25 26  2  0
 27 19  1  0
 28 27  1  0
 29 27  2  0
M  END
$$$$
