AYF.pdb
     RDKit          3D

 29 30  0  0  1  0  0  0  0  0999 V2000
    8.2686  -12.1193   19.3724 C   0  0  0  0  0  0  0  0  0  0  0  0
    8.6392  -13.4821   18.8883 C   0  0  2  0  0  0  0  0  0  0  0  0
    7.9732  -13.7303   17.6283 N   0  0  0  0  0  0  0  0  0  0  0  0
    8.2819  -14.5589   19.8352 C   0  0  0  0  0  0  0  0  0  0  0  0
    7.2376  -15.2244   19.6206 O   0  0  0  0  0  0  0  0  0  0  0  0
   14.4211  -16.6847   19.1863 O   0  0  0  0  0  0  0  0  0  0  0  0
   13.1535  -16.8501   19.7193 C   0  0  0  0  0  0  0  0  0  0  0  0
   12.0499  -16.5817   18.9101 C   0  0  0  0  0  0  0  0  0  0  0  0
   10.7973  -16.7522   19.4607 C   0  0  0  0  0  0  0  0  0  0  0  0
   10.5838  -17.1666   20.7455 C   0  0  0  0  0  0  0  0  0  0  0  0
    9.2027  -17.3278   21.2599 C   0  0  0  0  0  0  0  0  0  0  0  0
    8.6513  -16.0232   21.7900 C   0  0  2  0  0  0  0  0  0  0  0  0
    9.0311  -14.8988   20.9714 N   0  0  0  0  0  0  0  0  0  0  0  0
    9.0465  -15.8002   23.2012 C   0  0  0  0  0  0  0  0  0  0  0  0
   10.0890  -15.1503   23.4495 O   0  0  0  0  0  0  0  0  0  0  0  0
   11.7014  -17.4284   21.5338 C   0  0  0  0  0  0  0  0  0  0  0  0
   12.9814  -17.2691   21.0169 C   0  0  0  0  0  0  0  0  0  0  0  0
    8.2514  -16.3178   24.2269 N   0  0  0  0  0  0  0  0  0  0  0  0
    8.5305  -16.1421   25.6439 C   0  0  1  0  0  0  0  0  0  0  0  0
    7.2853  -15.6222   26.2767 C   0  0  0  0  0  0  0  0  0  0  0  0
    7.2413  -14.1564   26.3730 C   0  0  0  0  0  0  0  0  0  0  0  0
    6.0247  -13.5499   26.6445 C   0  0  0  0  0  0  0  0  0  0  0  0
    5.9933  -12.1793   26.7304 C   0  0  0  0  0  0  0  0  0  0  0  0
    7.0962  -11.3760   26.5630 C   0  0  0  0  0  0  0  0  0  0  0  0
    8.3199  -11.9816   26.2905 C   0  0  0  0  0  0  0  0  0  0  0  0
    8.3799  -13.3623   26.1984 C   0  0  0  0  0  0  0  0  0  0  0  0
    9.0914  -17.3553   26.2455 C   0  0  0  0  0  0  0  0  0  0  0  0
    9.7827  -17.3687   27.4542 O   0  0  0  0  0  0  0  0  0  0  0  0
    8.9672  -18.4677   25.6767 O   0  0  0  0  0  0  0  0  0  0  0  0
  2  1  1  1
  3  2  1  0
  4 13  1  0
  4  2  1  0
  5  4  2  0
  7  8  2  0
  7  6  1  0
  9  8  1  0
 10  9  2  0
 11 10  1  0
 12 11  1  6
 12 13  1  0
 14 18  1  0
 14 12  1  0
 15 14  2  0
 16 10  1  0
 16 17  2  0
 17  7  1  0
 19 18  1  0
 19 20  1  1
 21 26  1  0
 21 20  1  0
 22 21  2  0
 23 24  2  0
 23 22  1  0
 24 25  1  0
 25 26  2  0
 27 19  1  0
 28 27  1  0
 29 27  2  0
M  END
$$$$
