AYF.pdb
     RDKit          3D

 29 30  0  0  1  0  0  0  0  0999 V2000
    7.9779  -19.7555   21.8736 C   0  0  0  0  0  0  0  0  0  0  0  0
    8.0595  -18.6204   20.9073 C   0  0  2  0  0  0  0  0  0  0  0  0
    8.7242  -19.0737   19.7051 N   0  0  0  0  0  0  0  0  0  0  0  0
    8.7852  -17.4479   21.4387 C   0  0  0  0  0  0  0  0  0  0  0  0
   10.0129  -17.3400   21.1922 O   0  0  0  0  0  0  0  0  0  0  0  0
    7.4475  -13.5343   16.7135 O   0  0  0  0  0  0  0  0  0  0  0  0
    7.6875  -13.6364   18.0737 C   0  0  0  0  0  0  0  0  0  0  0  0
    6.6393  -14.0230   18.9083 C   0  0  0  0  0  0  0  0  0  0  0  0
    6.8998  -14.1178   20.2591 C   0  0  0  0  0  0  0  0  0  0  0  0
    8.1198  -13.8551   20.8163 C   0  0  0  0  0  0  0  0  0  0  0  0
    8.3172  -13.9840   22.2800 C   0  0  0  0  0  0  0  0  0  0  0  0
    8.9766  -15.2970   22.6383 C   0  0  2  0  0  0  0  0  0  0  0  0
    8.1988  -16.4322   22.2083 N   0  0  0  0  0  0  0  0  0  0  0  0
    9.2665  -15.3808   24.0896 C   0  0  0  0  0  0  0  0  0  0  0  0
   10.1905  -14.6838   24.5704 O   0  0  0  0  0  0  0  0  0  0  0  0
    9.1506  -13.4710   19.9625 C   0  0  0  0  0  0  0  0  0  0  0  0
    8.9296  -13.3636   18.5948 C   0  0  0  0  0  0  0  0  0  0  0  0
    8.5062  -16.2337   24.8936 N   0  0  0  0  0  0  0  0  0  0  0  0
    8.7083  -16.4024   26.3244 C   0  0  1  0  0  0  0  0  0  0  0  0
    7.4755  -15.9129   27.0040 C   0  0  0  0  0  0  0  0  0  0  0  0
    7.3051  -14.4548   26.9363 C   0  0  0  0  0  0  0  0  0  0  0  0
    8.3161  -13.6490   27.4366 C   0  0  0  0  0  0  0  0  0  0  0  0
    8.1467  -12.2875   27.3708 C   0  0  0  0  0  0  0  0  0  0  0  0
    7.0347  -11.6789   26.8388 C   0  0  0  0  0  0  0  0  0  0  0  0
    6.0173  -12.4849   26.3352 C   0  0  0  0  0  0  0  0  0  0  0  0
    6.1624  -13.8614   26.3889 C   0  0  0  0  0  0  0  0  0  0  0  0
    9.1212  -17.7679   26.6613 C   0  0  0  0  0  0  0  0  0  0  0  0
    9.2593  -18.7863   25.7217 O   0  0  0  0  0  0  0  0  0  0  0  0
    9.3751  -18.0847   27.8493 O   0  0  0  0  0  0  0  0  0  0  0  0
  2  1  1  1
  3  2  1  0
  4 13  1  0
  4  2  1  0
  5  4  2  0
  7  8  2  0
  7  6  1  0
  9  8  1  0
 10  9  2  0
 11 10  1  0
 12 11  1  1
 12 13  1  0
 14 18  1  0
 14 12  1  0
 15 14  2  0
 16 10  1  0
 16 17  2  0
 17  7  1  0
 19 18  1  0
 19 20  1  1
 21 26  1  0
 21 20  1  0
 22 21  2  0
 23 24  2  0
 23 22  1  0
 24 25  1  0
 25 26  2  0
 27 19  1  0
 28 27  1  0
 29 27  2  0
M  END
$$$$
