AYF.pdb
     RDKit          3D

 29 30  0  0  1  0  0  0  0  0999 V2000
    8.2975  -12.2517   19.8528 C   0  0  0  0  0  0  0  0  0  0  0  0
    8.5454  -13.5948   19.2500 C   0  0  2  0  0  0  0  0  0  0  0  0
    7.4723  -13.9020   18.3298 N   0  0  0  0  0  0  0  0  0  0  0  0
    8.6395  -14.6789   20.2498 C   0  0  0  0  0  0  0  0  0  0  0  0
    7.5905  -15.2933   20.5690 O   0  0  0  0  0  0  0  0  0  0  0  0
    8.7359  -19.3755   16.4870 O   0  0  0  0  0  0  0  0  0  0  0  0
    9.2126  -18.8585   17.6801 C   0  0  0  0  0  0  0  0  0  0  0  0
    8.7211  -19.3801   18.8764 C   0  0  0  0  0  0  0  0  0  0  0  0
    9.2087  -18.8506   20.0524 C   0  0  0  0  0  0  0  0  0  0  0  0
   10.1395  -17.8512   20.1056 C   0  0  0  0  0  0  0  0  0  0  0  0
   10.6140  -17.3396   21.4137 C   0  0  0  0  0  0  0  0  0  0  0  0
    9.8176  -16.1343   21.8609 C   0  0  2  0  0  0  0  0  0  0  0  0
    9.8279  -15.0795   20.8782 N   0  0  0  0  0  0  0  0  0  0  0  0
   10.2862  -15.6307   23.1741 C   0  0  0  0  0  0  0  0  0  0  0  0
   11.1947  -14.7681   23.2100 O   0  0  0  0  0  0  0  0  0  0  0  0
   10.6152  -17.3469   18.8980 C   0  0  0  0  0  0  0  0  0  0  0  0
   10.1495  -17.8530   17.6906 C   0  0  0  0  0  0  0  0  0  0  0  0
    9.7080  -16.1261   24.3456 N   0  0  0  0  0  0  0  0  0  0  0  0
   10.1838  -15.8163   25.6850 C   0  0  1  0  0  0  0  0  0  0  0  0
   10.1915  -14.3319   25.8172 C   0  0  0  0  0  0  0  0  0  0  0  0
    8.8705  -13.7600   26.1129 C   0  0  0  0  0  0  0  0  0  0  0  0
    7.9348  -13.6996   25.0920 C   0  0  0  0  0  0  0  0  0  0  0  0
    6.7036  -13.1613   25.3776 C   0  0  0  0  0  0  0  0  0  0  0  0
    6.3466  -12.6801   26.6148 C   0  0  0  0  0  0  0  0  0  0  0  0
    7.2837  -12.7392   27.6428 C   0  0  0  0  0  0  0  0  0  0  0  0
    8.5331  -13.2773   27.3821 C   0  0  0  0  0  0  0  0  0  0  0  0
    9.4338  -16.5430   26.7136 C   0  0  0  0  0  0  0  0  0  0  0  0
    9.8463  -16.6487   28.0394 O   0  0  0  0  0  0  0  0  0  0  0  0
    8.3541  -17.1182   26.4315 O   0  0  0  0  0  0  0  0  0  0  0  0
  2  1  1  1
  3  2  1  0
  4 13  1  0
  4  2  1  0
  5  4  2  0
  7  8  2  0
  7  6  1  0
  9  8  1  0
 10  9  2  0
 11 10  1  0
 12 11  1  6
 12 13  1  0
 14 18  1  0
 14 12  1  0
 15 14  2  0
 16 10  1  0
 16 17  2  0
 17  7  1  0
 19 18  1  0
 19 20  1  1
 21 26  1  0
 21 20  1  0
 22 21  2  0
 23 24  2  0
 23 22  1  0
 24 25  1  0
 25 26  2  0
 27 19  1  0
 28 27  1  0
 29 27  2  0
M  END
$$$$
