AYF.pdb
     RDKit          3D

 29 30  0  0  1  0  0  0  0  0999 V2000
    7.4349  -19.7612   19.4787 C   0  0  0  0  0  0  0  0  0  0  0  0
    8.3622  -19.6955   20.6469 C   0  0  2  0  0  0  0  0  0  0  0  0
    8.2838  -20.9405   21.3795 N   0  0  0  0  0  0  0  0  0  0  0  0
    8.0652  -18.5808   21.5704 C   0  0  0  0  0  0  0  0  0  0  0  0
    8.2160  -17.4033   21.1576 O   0  0  0  0  0  0  0  0  0  0  0  0
    7.2944  -21.9280   28.3619 O   0  0  0  0  0  0  0  0  0  0  0  0
    7.0030  -20.9512   27.4243 C   0  0  0  0  0  0  0  0  0  0  0  0
    6.9811  -19.6186   27.8348 C   0  0  0  0  0  0  0  0  0  0  0  0
    6.6882  -18.6624   26.8854 C   0  0  0  0  0  0  0  0  0  0  0  0
    6.4211  -18.9504   25.5764 C   0  0  0  0  0  0  0  0  0  0  0  0
    6.1179  -17.8611   24.6175 C   0  0  0  0  0  0  0  0  0  0  0  0
    7.2858  -17.5914   23.6954 C   0  0  2  0  0  0  0  0  0  0  0  0
    7.6217  -18.7402   22.8916 N   0  0  0  0  0  0  0  0  0  0  0  0
    8.4713  -17.1135   24.4463 C   0  0  0  0  0  0  0  0  0  0  0  0
    9.4327  -17.8952   24.6343 O   0  0  0  0  0  0  0  0  0  0  0  0
    6.4491  -20.2881   25.1907 C   0  0  0  0  0  0  0  0  0  0  0  0
    6.7401  -21.2825   26.1166 C   0  0  0  0  0  0  0  0  0  0  0  0
    8.4952  -15.8029   24.9300 N   0  0  0  0  0  0  0  0  0  0  0  0
    9.6242  -15.2125   25.6324 C   0  0  1  0  0  0  0  0  0  0  0  0
    9.4942  -13.7329   25.5095 C   0  0  0  0  0  0  0  0  0  0  0  0
    8.1982  -13.2152   25.9701 C   0  0  0  0  0  0  0  0  0  0  0  0
    8.1285  -12.6384   27.2287 C   0  0  0  0  0  0  0  0  0  0  0  0
    6.9123  -12.1594   27.6512 C   0  0  0  0  0  0  0  0  0  0  0  0
    5.7628  -12.2189   26.8997 C   0  0  0  0  0  0  0  0  0  0  0  0
    5.8290  -12.7974   25.6350 C   0  0  0  0  0  0  0  0  0  0  0  0
    7.0431  -13.2885   25.1840 C   0  0  0  0  0  0  0  0  0  0  0  0
    9.7494  -15.7291   26.9984 C   0  0  0  0  0  0  0  0  0  0  0  0
    8.7871  -16.5257   27.6135 O   0  0  0  0  0  0  0  0  0  0  0  0
   10.7625  -15.4655   27.6916 O   0  0  0  0  0  0  0  0  0  0  0  0
  2  1  1  6
  3  2  1  0
  4 13  1  0
  4  2  1  0
  5  4  2  0
  7  8  2  0
  7  6  1  0
  9  8  1  0
 10  9  2  0
 11 10  1  0
 12 11  1  1
 12 13  1  0
 14 18  1  0
 14 12  1  0
 15 14  2  0
 16 10  1  0
 16 17  2  0
 17  7  1  0
 19 18  1  0
 19 20  1  1
 21 26  1  0
 21 20  1  0
 22 21  2  0
 23 24  2  0
 23 22  1  0
 24 25  1  0
 25 26  2  0
 27 19  1  0
 28 27  1  0
 29 27  2  0
M  END
$$$$
