AYF.pdb
     RDKit          3D

 29 30  0  0  1  0  0  0  0  0999 V2000
    7.3650  -19.4623   21.7889 C   0  0  0  0  0  0  0  0  0  0  0  0
    7.7075  -18.4017   20.7957 C   0  0  2  0  0  0  0  0  0  0  0  0
    8.4087  -19.0073   19.6846 N   0  0  0  0  0  0  0  0  0  0  0  0
    8.5465  -17.3217   21.3556 C   0  0  0  0  0  0  0  0  0  0  0  0
    9.7897  -17.3749   21.1786 O   0  0  0  0  0  0  0  0  0  0  0  0
    7.7847  -13.0994   16.6368 O   0  0  0  0  0  0  0  0  0  0  0  0
    7.9149  -13.2809   18.0036 C   0  0  0  0  0  0  0  0  0  0  0  0
    9.1512  -13.0240   18.5954 C   0  0  0  0  0  0  0  0  0  0  0  0
    9.2590  -13.2117   19.9572 C   0  0  0  0  0  0  0  0  0  0  0  0
    8.2273  -13.6323   20.7487 C   0  0  0  0  0  0  0  0  0  0  0  0
    8.4263  -13.8064   22.2075 C   0  0  0  0  0  0  0  0  0  0  0  0
    8.9435  -15.1888   22.5367 C   0  0  2  0  0  0  0  0  0  0  0  0
    8.0530  -16.2265   22.0799 N   0  0  0  0  0  0  0  0  0  0  0  0
    9.2177  -15.3351   23.9861 C   0  0  0  0  0  0  0  0  0  0  0  0
   10.2381  -14.7947   24.4736 O   0  0  0  0  0  0  0  0  0  0  0  0
    7.0027  -13.8822   20.1348 C   0  0  0  0  0  0  0  0  0  0  0  0
    6.8521  -13.7052   18.7648 C   0  0  0  0  0  0  0  0  0  0  0  0
    8.3356  -16.0715   24.7810 N   0  0  0  0  0  0  0  0  0  0  0  0
    8.5120  -16.2910   26.2083 C   0  0  1  0  0  0  0  0  0  0  0  0
    7.2956  -15.7631   26.8885 C   0  0  0  0  0  0  0  0  0  0  0  0
    7.2645  -14.2970   26.9857 C   0  0  0  0  0  0  0  0  0  0  0  0
    6.0672  -13.6450   26.7353 C   0  0  0  0  0  0  0  0  0  0  0  0
    6.0487  -12.2745   26.8265 C   0  0  0  0  0  0  0  0  0  0  0  0
    7.1468  -11.5137   27.1510 C   0  0  0  0  0  0  0  0  0  0  0  0
    8.3511  -12.1651   27.4035 C   0  0  0  0  0  0  0  0  0  0  0  0
    8.3977  -13.5468   27.3185 C   0  0  0  0  0  0  0  0  0  0  0  0
    8.8555  -17.6838   26.5091 C   0  0  0  0  0  0  0  0  0  0  0  0
    8.9634  -18.6786   25.5407 O   0  0  0  0  0  0  0  0  0  0  0  0
    9.0733  -18.0481   27.6908 O   0  0  0  0  0  0  0  0  0  0  0  0
  2  1  1  1
  3  2  1  0
  4 13  1  0
  4  2  1  0
  5  4  2  0
  7  8  2  0
  7  6  1  0
  9  8  1  0
 10  9  2  0
 11 10  1  0
 12 11  1  1
 12 13  1  0
 14 18  1  0
 14 12  1  0
 15 14  2  0
 16 10  1  0
 16 17  2  0
 17  7  1  0
 19 18  1  0
 19 20  1  1
 21 26  1  0
 21 20  1  0
 22 21  2  0
 23 24  2  0
 23 22  1  0
 24 25  1  0
 25 26  2  0
 27 19  1  0
 28 27  1  0
 29 27  2  0
M  END
$$$$
