PCT.pdb
     RDKit          3D

 21 21  0  0  1  0  0  0  0  0999 V2000
   22.1392  -10.6804  -19.0309 N   0  0  0  0  0  0  0  0  0  0  0  0
   22.1924  -11.6662  -20.0847 C   0  0  0  0  0  0  0  0  0  0  0  0
   20.9063  -12.4417  -19.9801 C   0  0  0  0  0  0  0  0  0  0  0  0
   20.1118  -11.7638  -18.9066 C   0  0  0  0  0  0  0  0  0  0  0  0
   20.7400  -10.4027  -18.8127 C   0  0  1  0  0  0  0  0  0  0  0  0
   20.5045   -9.7408  -17.5122 C   0  0  0  0  0  0  0  0  0  0  0  0
   19.3233   -9.4733  -17.1770 O   0  0  0  0  0  0  0  0  0  0  0  0
   21.5664   -9.4116  -16.6589 N   0  0  0  0  0  0  0  0  0  0  0  0
   21.3831   -8.7339  -15.3684 C   0  0  1  0  0  0  0  0  0  0  0  0
   22.1012   -9.5090  -14.2855 C   0  0  0  0  0  0  0  0  0  0  0  0
   22.1606   -8.6178  -12.7219 S   0  0  0  0  0  0  0  0  0  0  0  0
   21.8308   -7.3472  -15.5228 C   0  0  0  0  0  0  0  0  0  0  0  0
   22.9769   -7.1077  -16.0404 O   0  0  0  0  0  0  0  0  0  0  0  0
   20.2575   -4.5027  -17.3530 C   0  0  0  0  0  0  0  0  0  0  0  0
   20.5666   -3.9960  -15.9672 C   0  0  1  0  0  0  0  0  0  0  0  0
   19.4028   -4.0613  -15.2044 O   0  0  0  0  0  0  0  0  0  0  0  0
   21.6508   -4.8743  -15.3455 C   0  0  2  0  0  0  0  0  0  0  0  0
   21.0874   -6.2123  -15.1414 N   0  0  0  0  0  0  0  0  0  0  0  0
   22.1311   -4.3140  -14.0703 C   0  0  0  0  0  0  0  0  0  0  0  0
   22.7100   -3.1835  -14.0151 O   0  0  0  0  0  0  0  0  0  0  0  0
   21.9685   -5.0007  -12.8832 O   0  0  0  0  0  0  0  0  0  0  0  0
  2  1  1  0
  3  2  1  0
  4  5  1  0
  4  3  1  0
  5  1  1  0
  6  8  1  0
  5  6  1  1
  7  6  2  0
  9 12  1  0
  9  8  1  0
  9 10  1  1
 11 10  1  0
 12 18  1  0
 13 12  2  0
 15 16  1  0
 15 14  1  6
 17 19  1  0
 17 15  1  0
 17 18  1  1
 19 21  1  0
 20 19  2  0
M  END
$$$$
