PCT.pdb
     RDKit          3D

 21 21  0  0  1  0  0  0  0  0999 V2000
   19.7093  -11.6747  -17.5735 N   0  0  0  0  0  0  0  0  0  0  0  0
   18.9930  -12.7642  -18.1941 C   0  0  0  0  0  0  0  0  0  0  0  0
   18.1645  -13.3809  -17.0989 C   0  0  0  0  0  0  0  0  0  0  0  0
   18.3745  -12.5137  -15.8961 C   0  0  0  0  0  0  0  0  0  0  0  0
   18.8847  -11.2262  -16.4774 C   0  0  1  0  0  0  0  0  0  0  0  0
   19.6484  -10.4117  -15.5088 C   0  0  0  0  0  0  0  0  0  0  0  0
   19.0622   -9.9914  -14.4799 O   0  0  0  0  0  0  0  0  0  0  0  0
   20.9999  -10.1057  -15.7193 N   0  0  0  0  0  0  0  0  0  0  0  0
   21.8111   -9.3396  -14.7637 C   0  0  1  0  0  0  0  0  0  0  0  0
   23.2131   -9.9070  -14.7240 C   0  0  0  0  0  0  0  0  0  0  0  0
   23.8965  -10.1753  -16.3682 S   0  0  0  0  0  0  0  0  0  0  0  0
   21.7372   -7.9266  -15.1446 C   0  0  0  0  0  0  0  0  0  0  0  0
   21.9725   -7.5862  -16.3561 O   0  0  0  0  0  0  0  0  0  0  0  0
   19.1934   -5.8832  -15.8498 C   0  0  0  0  0  0  0  0  0  0  0  0
   19.9239   -5.0483  -14.8289 C   0  0  1  0  0  0  0  0  0  0  0  0
   19.3178   -5.2384  -13.5891 O   0  0  0  0  0  0  0  0  0  0  0  0
   21.3837   -5.4944  -14.7726 C   0  0  2  0  0  0  0  0  0  0  0  0
   21.4174   -6.8705  -14.2680 N   0  0  0  0  0  0  0  0  0  0  0  0
   22.1843   -4.6067  -13.9113 C   0  0  0  0  0  0  0  0  0  0  0  0
   22.7289   -5.0285  -12.8428 O   0  0  0  0  0  0  0  0  0  0  0  0
   22.3726   -3.2776  -14.2359 O   0  0  0  0  0  0  0  0  0  0  0  0
  2  1  1  0
  3  2  1  0
  4  5  1  0
  4  3  1  0
  5  1  1  0
  6  8  1  0
  5  6  1  1
  7  6  2  0
  9 12  1  0
  9  8  1  0
  9 10  1  6
 11 10  1  0
 12 18  1  0
 13 12  2  0
 15 16  1  0
 15 14  1  6
 17 19  1  0
 17 15  1  0
 17 18  1  1
 19 21  1  0
 20 19  2  0
M  END
$$$$
