PCT.pdb
     RDKit          3D

 21 21  0  0  1  0  0  0  0  0999 V2000
   21.4039  -12.3618  -18.0403 N   0  0  0  0  0  0  0  0  0  0  0  0
   21.5019  -13.5101  -18.9104 C   0  0  0  0  0  0  0  0  0  0  0  0
   20.1739  -13.6007  -19.6137 C   0  0  0  0  0  0  0  0  0  0  0  0
   19.4013  -12.3950  -19.1752 C   0  0  0  0  0  0  0  0  0  0  0  0
   20.4644  -11.4635  -18.6672 C   0  0  1  0  0  0  0  0  0  0  0  0
   19.9494  -10.4532  -17.7191 C   0  0  0  0  0  0  0  0  0  0  0  0
   19.0654   -9.6518  -18.1133 O   0  0  0  0  0  0  0  0  0  0  0  0
   20.4270  -10.3776  -16.4036 N   0  0  0  0  0  0  0  0  0  0  0  0
   19.9206   -9.4147  -15.4164 C   0  0  1  0  0  0  0  0  0  0  0  0
   19.3816  -10.1605  -14.2154 C   0  0  0  0  0  0  0  0  0  0  0  0
   17.6404  -10.5849  -14.3901 S   0  0  0  0  0  0  0  0  0  0  0  0
   21.0016   -8.4733  -15.1130 C   0  0  0  0  0  0  0  0  0  0  0  0
   22.1846   -8.9161  -14.9047 O   0  0  0  0  0  0  0  0  0  0  0  0
   22.1296   -5.8042  -17.3091 C   0  0  0  0  0  0  0  0  0  0  0  0
   21.9928   -5.1501  -15.9577 C   0  0  1  0  0  0  0  0  0  0  0  0
   20.7717   -4.4810  -15.9136 O   0  0  0  0  0  0  0  0  0  0  0  0
   22.0397   -6.2271  -14.8755 C   0  0  2  0  0  0  0  0  0  0  0  0
   20.8530   -7.0744  -15.0284 N   0  0  0  0  0  0  0  0  0  0  0  0
   22.0827   -5.6335  -13.5277 C   0  0  0  0  0  0  0  0  0  0  0  0
   21.1402   -5.8075  -12.6925 O   0  0  0  0  0  0  0  0  0  0  0  0
   23.1543   -4.8628  -13.1216 O   0  0  0  0  0  0  0  0  0  0  0  0
  2  1  1  0
  3  2  1  0
  4  5  1  0
  4  3  1  0
  5  1  1  0
  6  8  1  0
  5  6  1  1
  7  6  2  0
  9 12  1  0
  9  8  1  0
  9 10  1  1
 11 10  1  0
 12 18  1  0
 13 12  2  0
 15 16  1  0
 15 14  1  6
 17 19  1  0
 17 15  1  0
 17 18  1  1
 19 21  1  0
 20 19  2  0
M  END
$$$$
