PCT.pdb
     RDKit          3D

 21 21  0  0  1  0  0  0  0  0999 V2000
   18.7320  -11.6454  -17.5323 N   0  0  0  0  0  0  0  0  0  0  0  0
   18.0465  -12.8485  -17.9425 C   0  0  0  0  0  0  0  0  0  0  0  0
   18.9199  -13.9876  -17.4888 C   0  0  0  0  0  0  0  0  0  0  0  0
   20.0406  -13.3569  -16.7211 C   0  0  0  0  0  0  0  0  0  0  0  0
   19.5011  -12.0013  -16.3643 C   0  0  1  0  0  0  0  0  0  0  0  0
   20.5594  -11.0102  -16.0768 C   0  0  0  0  0  0  0  0  0  0  0  0
   21.3127  -11.2018  -15.0895 O   0  0  0  0  0  0  0  0  0  0  0  0
   20.7321   -9.8745  -16.8797 N   0  0  0  0  0  0  0  0  0  0  0  0
   21.7706   -8.8646  -16.6348 C   0  0  1  0  0  0  0  0  0  0  0  0
   22.4350   -8.4973  -17.9435 C   0  0  0  0  0  0  0  0  0  0  0  0
   23.4521   -7.0173  -17.8103 S   0  0  0  0  0  0  0  0  0  0  0  0
   21.1459   -7.7403  -15.9330 C   0  0  0  0  0  0  0  0  0  0  0  0
   20.0866   -7.2059  -16.4138 O   0  0  0  0  0  0  0  0  0  0  0  0
   19.2427   -7.4340  -13.1157 C   0  0  0  0  0  0  0  0  0  0  0  0
   20.3097   -6.4030  -12.8483 C   0  0  1  0  0  0  0  0  0  0  0  0
   21.2658   -6.9665  -12.0063 O   0  0  0  0  0  0  0  0  0  0  0  0
   20.9524   -5.9957  -14.1728 C   0  0  2  0  0  0  0  0  0  0  0  0
   21.6207   -7.1743  -14.7328 N   0  0  0  0  0  0  0  0  0  0  0  0
   21.9131   -4.8940  -13.9879 C   0  0  0  0  0  0  0  0  0  0  0  0
   23.1456   -5.0306  -14.2676 O   0  0  0  0  0  0  0  0  0  0  0  0
   21.5064   -3.6671  -13.5014 O   0  0  0  0  0  0  0  0  0  0  0  0
  2  1  1  0
  3  2  1  0
  4  5  1  0
  4  3  1  0
  5  1  1  0
  6  8  1  0
  5  6  1  6
  7  6  2  0
  9 12  1  0
  9  8  1  0
  9 10  1  6
 11 10  1  0
 12 18  1  0
 13 12  2  0
 15 16  1  0
 15 14  1  6
 17 19  1  0
 17 15  1  0
 17 18  1  1
 19 21  1  0
 20 19  2  0
M  END
$$$$
