PCT.pdb
     RDKit          3D

 21 21  0  0  1  0  0  0  0  0999 V2000
   33.2979  -10.7654  -18.4190 N   0  0  0  0  0  0  0  0  0  0  0  0
   33.1393  -12.0866  -18.9797 C   0  0  0  0  0  0  0  0  0  0  0  0
   31.9542  -12.6879  -18.2722 C   0  0  0  0  0  0  0  0  0  0  0  0
   31.4136  -11.6015  -17.3944 C   0  0  0  0  0  0  0  0  0  0  0  0
   31.9822  -10.3488  -17.9972 C   0  0  1  0  0  0  0  0  0  0  0  0
   32.0390   -9.2185  -17.0464 C   0  0  0  0  0  0  0  0  0  0  0  0
   30.9692   -8.8143  -16.5256 O   0  0  0  0  0  0  0  0  0  0  0  0
   33.2537   -8.5993  -16.7218 N   0  0  0  0  0  0  0  0  0  0  0  0
   33.3621   -7.4881  -15.7670 C   0  0  1  0  0  0  0  0  0  0  0  0
   34.5807   -7.6911  -14.8935 C   0  0  0  0  0  0  0  0  0  0  0  0
   35.0211   -6.2110  -13.9673 S   0  0  0  0  0  0  0  0  0  0  0  0
   33.3632   -6.2383  -16.5318 C   0  0  0  0  0  0  0  0  0  0  0  0
   34.2622   -6.0437  -17.4222 O   0  0  0  0  0  0  0  0  0  0  0  0
   31.3008   -5.1405  -19.0382 C   0  0  0  0  0  0  0  0  0  0  0  0
   31.2851   -3.9536  -18.1087 C   0  0  1  0  0  0  0  0  0  0  0  0
   30.1336   -4.0208  -17.3275 O   0  0  0  0  0  0  0  0  0  0  0  0
   32.5257   -4.0009  -17.2188 C   0  0  2  0  0  0  0  0  0  0  0  0
   32.4302   -5.1942  -16.3723 N   0  0  0  0  0  0  0  0  0  0  0  0
   32.6410   -2.7868  -16.3921 C   0  0  0  0  0  0  0  0  0  0  0  0
   32.5914   -2.8376  -15.1228 O   0  0  0  0  0  0  0  0  0  0  0  0
   32.8080   -1.5436  -16.9700 O   0  0  0  0  0  0  0  0  0  0  0  0
  2  1  1  0
  3  2  1  0
  4  5  1  0
  4  3  1  0
  5  1  1  0
  6  8  1  0
  5  6  1  1
  7  6  2  0
  9 12  1  0
  9  8  1  0
  9 10  1  6
 11 10  1  0
 12 18  1  0
 13 12  2  0
 15 16  1  0
 15 14  1  6
 17 19  1  0
 17 15  1  0
 17 18  1  1
 19 21  1  0
 20 19  2  0
M  END
$$$$
