PCT.pdb
     RDKit          3D

 21 21  0  0  1  0  0  0  0  0999 V2000
   24.9824  -32.1257   -3.6173 N   0  0  0  0  0  0  0  0  0  0  0  0
   24.7183  -32.9145   -4.7977 C   0  0  0  0  0  0  0  0  0  0  0  0
   25.4119  -34.2310   -4.5694 C   0  0  0  0  0  0  0  0  0  0  0  0
   25.9612  -34.1624   -3.1778 C   0  0  0  0  0  0  0  0  0  0  0  0
   25.1573  -33.0670   -2.5376 C   0  0  1  0  0  0  0  0  0  0  0  0
   25.8313  -32.4536   -1.3738 C   0  0  0  0  0  0  0  0  0  0  0  0
   26.6064  -31.4838   -1.5680 O   0  0  0  0  0  0  0  0  0  0  0  0
   25.6205  -32.9325   -0.0736 N   0  0  0  0  0  0  0  0  0  0  0  0
   26.2439  -32.3364    1.1157 C   0  0  1  0  0  0  0  0  0  0  0  0
   25.2816  -31.3574    1.7521 C   0  0  0  0  0  0  0  0  0  0  0  0
   25.9376  -30.6258    3.2610 S   0  0  0  0  0  0  0  0  0  0  0  0
   26.6695  -33.4293    1.9941 C   0  0  0  0  0  0  0  0  0  0  0  0
   25.8583  -34.3861    2.2498 O   0  0  0  0  0  0  0  0  0  0  0  0
   29.3852  -35.8596    1.6732 C   0  0  0  0  0  0  0  0  0  0  0  0
   29.5510  -35.2758    3.0533 C   0  0  1  0  0  0  0  0  0  0  0  0
   30.5432  -34.2992    3.0024 O   0  0  0  0  0  0  0  0  0  0  0  0
   28.2268  -34.6552    3.4944 C   0  0  2  0  0  0  0  0  0  0  0  0
   27.9364  -33.5277    2.6034 N   0  0  0  0  0  0  0  0  0  0  0  0
   28.2840  -34.2064    4.8966 C   0  0  0  0  0  0  0  0  0  0  0  0
   28.1616  -32.9803    5.2095 O   0  0  0  0  0  0  0  0  0  0  0  0
   28.4738  -35.1068    5.9265 O   0  0  0  0  0  0  0  0  0  0  0  0
  2  1  1  0
  3  2  1  0
  4  5  1  0
  4  3  1  0
  5  1  1  0
  6  8  1  0
  5  6  1  1
  7  6  2  0
  9 12  1  0
  9  8  1  0
  9 10  1  1
 11 10  1  0
 12 18  1  0
 13 12  2  0
 15 16  1  0
 15 14  1  6
 17 19  1  0
 17 15  1  0
 17 18  1  6
 19 21  1  0
 20 19  2  0
M  END
$$$$
