PCT.pdb
     RDKit          3D

 21 21  0  0  1  0  0  0  0  0999 V2000
   20.0797  -19.2480  -13.0929 N   0  0  0  0  0  0  0  0  0  0  0  0
   20.1778  -18.4265  -14.2765 C   0  0  0  0  0  0  0  0  0  0  0  0
   21.4065  -18.9062  -15.0024 C   0  0  0  0  0  0  0  0  0  0  0  0
   21.8991  -20.0881  -14.2258 C   0  0  0  0  0  0  0  0  0  0  0  0
   20.6980  -20.5081  -13.4278 C   0  0  1  0  0  0  0  0  0  0  0  0
   21.0438  -21.2912  -12.2227 C   0  0  0  0  0  0  0  0  0  0  0  0
   21.6245  -22.3961  -12.3678 O   0  0  0  0  0  0  0  0  0  0  0  0
   20.7369  -20.8246  -10.9373 N   0  0  0  0  0  0  0  0  0  0  0  0
   21.0867  -21.5532   -9.7105 C   0  0  1  0  0  0  0  0  0  0  0  0
   22.0613  -20.7309   -8.8963 C   0  0  0  0  0  0  0  0  0  0  0  0
   22.4515  -21.4915   -7.3115 S   0  0  0  0  0  0  0  0  0  0  0  0
   19.8403  -21.8841   -9.0149 C   0  0  0  0  0  0  0  0  0  0  0  0
   18.9510  -20.9786   -8.8477 O   0  0  0  0  0  0  0  0  0  0  0  0
   16.9720  -23.7687   -9.7467 C   0  0  0  0  0  0  0  0  0  0  0  0
   17.4106  -24.3443   -8.4241 C   0  0  1  0  0  0  0  0  0  0  0  0
   18.1279  -25.5133   -8.6684 O   0  0  0  0  0  0  0  0  0  0  0  0
   18.2954  -23.3267   -7.7066 C   0  0  2  0  0  0  0  0  0  0  0  0
   19.5188  -23.1544   -8.4960 N   0  0  0  0  0  0  0  0  0  0  0  0
   18.6192  -23.7662   -6.3381 C   0  0  0  0  0  0  0  0  0  0  0  0
   19.8151  -24.0088   -5.9814 O   0  0  0  0  0  0  0  0  0  0  0  0
   17.6296  -23.9311   -5.3890 O   0  0  0  0  0  0  0  0  0  0  0  0
  2  1  1  0
  3  2  1  0
  4  5  1  0
  4  3  1  0
  5  1  1  0
  6  8  1  0
  5  6  1  1
  7  6  2  0
  9 12  1  0
  9  8  1  0
  9 10  1  1
 11 10  1  0
 12 18  1  0
 13 12  2  0
 15 16  1  0
 15 14  1  6
 17 19  1  0
 17 15  1  0
 17 18  1  6
 19 21  1  0
 20 19  2  0
M  END
$$$$
