PCT.pdb
     RDKit          3D

 21 21  0  0  1  0  0  0  0  0999 V2000
   17.7864  -11.8842  -16.1151 N   0  0  0  0  0  0  0  0  0  0  0  0
   17.2061  -13.2051  -16.0539 C   0  0  0  0  0  0  0  0  0  0  0  0
   18.3155  -14.1531  -16.4243 C   0  0  0  0  0  0  0  0  0  0  0  0
   19.5395  -13.3034  -16.5753 C   0  0  0  0  0  0  0  0  0  0  0  0
   19.1903  -12.0498  -15.8254 C   0  0  1  0  0  0  0  0  0  0  0  0
   19.9839  -10.8770  -16.2493 C   0  0  0  0  0  0  0  0  0  0  0  0
   21.2289  -10.8986  -16.0805 O   0  0  0  0  0  0  0  0  0  0  0  0
   19.3750   -9.7558  -16.8293 N   0  0  0  0  0  0  0  0  0  0  0  0
   20.1227   -8.5712  -17.2719 C   0  0  1  0  0  0  0  0  0  0  0  0
   19.6734   -8.1824  -18.6634 C   0  0  0  0  0  0  0  0  0  0  0  0
   20.2097   -6.5266  -19.1250 S   0  0  0  0  0  0  0  0  0  0  0  0
   19.9451   -7.5256  -16.2609 C   0  0  0  0  0  0  0  0  0  0  0  0
   18.7861   -7.3272  -15.7546 O   0  0  0  0  0  0  0  0  0  0  0  0
   21.0230   -7.2342  -12.9068 C   0  0  0  0  0  0  0  0  0  0  0  0
   21.4935   -5.9453  -13.5316 C   0  0  1  0  0  0  0  0  0  0  0  0
   22.8354   -6.0873  -13.8774 O   0  0  0  0  0  0  0  0  0  0  0  0
   20.6580   -5.6618  -14.7786 C   0  0  2  0  0  0  0  0  0  0  0  0
   20.9709   -6.6896  -15.7763 N   0  0  0  0  0  0  0  0  0  0  0  0
   20.9327   -4.3175  -15.3156 C   0  0  0  0  0  0  0  0  0  0  0  0
   20.6774   -3.2675  -14.6460 O   0  0  0  0  0  0  0  0  0  0  0  0
   21.4801   -4.1496  -16.5723 O   0  0  0  0  0  0  0  0  0  0  0  0
  2  1  1  0
  3  2  1  0
  4  5  1  0
  4  3  1  0
  5  1  1  0
  6  8  1  0
  5  6  1  6
  7  6  2  0
  9 12  1  0
  9  8  1  0
  9 10  1  6
 11 10  1  0
 12 18  1  0
 13 12  2  0
 15 16  1  0
 15 14  1  6
 17 19  1  0
 17 15  1  0
 17 18  1  6
 19 21  1  0
 20 19  2  0
M  END
$$$$
