CEG.pdb
     RDKit          3D

 20 19  0  0  1  0  0  0  0  0999 V2000
   21.0984  -10.7582  -16.0643 N   0  0  0  0  0  0  0  0  0  0  0  0
   21.3450   -9.4664  -15.4226 C   0  0  1  0  0  0  0  0  0  0  0  0
   22.7916   -9.1006  -15.7187 C   0  0  0  0  0  0  0  0  0  0  0  0
   23.8944  -10.0396  -14.6458 S   0  0  0  0  0  0  0  0  0  0  0  0
   20.4190   -8.4709  -15.9727 C   0  0  0  0  0  0  0  0  0  0  0  0
   19.9090   -8.7138  -17.1073 O   0  0  0  0  0  0  0  0  0  0  0  0
   20.0808   -7.2807  -15.3045 N   0  0  0  0  0  0  0  0  0  0  0  0
   19.1014   -6.3170  -15.8263 C   0  0  1  0  0  0  0  0  0  0  0  0
   17.7087   -6.7350  -15.4716 C   0  0  0  0  0  0  0  0  0  0  0  0
   16.6195   -5.9280  -16.0851 C   0  0  0  0  0  0  0  0  0  0  0  0
   15.2522   -6.3247  -15.6618 C   0  0  0  0  0  0  0  0  0  0  0  0
   14.5807   -7.2351  -16.2010 O   0  0  0  0  0  0  0  0  0  0  0  0
   19.4595   -4.9494  -15.3619 C   0  0  0  0  0  0  0  0  0  0  0  0
   19.3736   -4.5998  -14.1619 O   0  0  0  0  0  0  0  0  0  0  0  0
   14.6382   -5.6670  -14.5989 O   0  0  0  0  0  0  0  0  0  0  0  0
   19.9265   -3.9489  -16.2704 N   0  0  0  0  0  0  0  0  0  0  0  0
   20.2885   -2.6313  -15.8128 C   0  0  0  0  0  0  0  0  0  0  0  0
   21.4354   -2.6513  -14.8808 C   0  0  0  0  0  0  0  0  0  0  0  0
   22.4805   -2.0256  -15.1659 O   0  0  0  0  0  0  0  0  0  0  0  0
   21.3759   -3.3513  -13.6935 O   0  0  0  0  0  0  0  0  0  0  0  0
  2  1  1  6
  3  2  1  0
  4  3  1  0
  5  2  1  0
  6  5  2  0
  7  5  1  0
  8  7  1  0
  8  9  1  1
 10  9  1  0
 11 10  1  0
 11 12  2  0
 13 14  2  0
 13  8  1  0
 15 11  1  0
 16 13  1  0
 17 18  1  0
 17 16  1  0
 18 20  1  0
 19 18  2  0
M  END
$$$$
