CEG.pdb
     RDKit          3D

 20 19  0  0  1  0  0  0  0  0999 V2000
   25.1375  -11.4560  -17.6987 N   0  0  0  0  0  0  0  0  0  0  0  0
   25.0888  -10.6598  -16.4719 C   0  0  1  0  0  0  0  0  0  0  0  0
   26.4883  -10.1039  -16.2560 C   0  0  0  0  0  0  0  0  0  0  0  0
   27.5934  -11.4184  -15.7084 S   0  0  0  0  0  0  0  0  0  0  0  0
   24.1059   -9.5835  -16.6350 C   0  0  0  0  0  0  0  0  0  0  0  0
   24.0230   -9.0381  -17.7761 O   0  0  0  0  0  0  0  0  0  0  0  0
   23.2679   -9.1411  -15.5961 N   0  0  0  0  0  0  0  0  0  0  0  0
   22.2196   -8.1285  -15.7857 C   0  0  1  0  0  0  0  0  0  0  0  0
   20.8613   -8.7467  -15.6702 C   0  0  0  0  0  0  0  0  0  0  0  0
   20.5439   -9.7937  -16.6786 C   0  0  0  0  0  0  0  0  0  0  0  0
   19.1780  -10.3645  -16.5578 C   0  0  0  0  0  0  0  0  0  0  0  0
   18.9323  -11.5810  -16.3838 O   0  0  0  0  0  0  0  0  0  0  0  0
   22.4512   -6.9971  -14.8475 C   0  0  0  0  0  0  0  0  0  0  0  0
   22.6336   -7.1648  -13.6194 O   0  0  0  0  0  0  0  0  0  0  0  0
   18.0681   -9.5274  -16.6375 O   0  0  0  0  0  0  0  0  0  0  0  0
   22.4787   -5.6416  -15.3019 N   0  0  0  0  0  0  0  0  0  0  0  0
   22.6231   -4.5446  -14.3788 C   0  0  0  0  0  0  0  0  0  0  0  0
   21.3389   -4.1508  -13.7625 C   0  0  0  0  0  0  0  0  0  0  0  0
   20.2896   -4.7605  -14.0660 O   0  0  0  0  0  0  0  0  0  0  0  0
   21.2737   -3.1163  -12.8520 O   0  0  0  0  0  0  0  0  0  0  0  0
  2  1  1  6
  3  2  1  0
  4  3  1  0
  5  2  1  0
  6  5  2  0
  7  5  1  0
  8  7  1  0
  8  9  1  1
 10  9  1  0
 11 10  1  0
 11 12  2  0
 13 14  2  0
 13  8  1  0
 15 11  1  0
 16 13  1  0
 17 18  1  0
 17 16  1  0
 18 20  1  0
 19 18  2  0
M  END
$$$$
