CEG.pdb
     RDKit          3D

 20 19  0  0  1  0  0  0  0  0999 V2000
   26.9961  -19.9696  -17.7400 N   0  0  0  0  0  0  0  0  0  0  0  0
   27.1047  -20.8992  -16.6151 C   0  0  1  0  0  0  0  0  0  0  0  0
   28.5874  -21.0376  -16.3042 C   0  0  0  0  0  0  0  0  0  0  0  0
   29.3206  -22.3017  -17.3593 S   0  0  0  0  0  0  0  0  0  0  0  0
   26.3670  -20.3568  -15.4693 C   0  0  0  0  0  0  0  0  0  0  0  0
   26.3218  -19.0959  -15.3495 O   0  0  0  0  0  0  0  0  0  0  0  0
   25.7205  -21.1643  -14.5168 N   0  0  0  0  0  0  0  0  0  0  0  0
   24.9711  -20.6180  -13.3765 C   0  0  1  0  0  0  0  0  0  0  0  0
   23.5017  -20.8397  -13.5554 C   0  0  0  0  0  0  0  0  0  0  0  0
   22.6478  -19.6287  -13.4196 C   0  0  0  0  0  0  0  0  0  0  0  0
   21.1888  -19.8996  -13.4816 C   0  0  0  0  0  0  0  0  0  0  0  0
   20.3020  -19.0158  -13.4266 O   0  0  0  0  0  0  0  0  0  0  0  0
   25.5182  -21.1799  -12.1120 C   0  0  0  0  0  0  0  0  0  0  0  0
   25.5886  -22.4118  -11.8953 O   0  0  0  0  0  0  0  0  0  0  0  0
   20.7323  -21.2090  -13.6093 O   0  0  0  0  0  0  0  0  0  0  0  0
   25.9989  -20.3345  -11.0637 N   0  0  0  0  0  0  0  0  0  0  0  0
   25.1301  -19.8849  -10.0057 C   0  0  0  0  0  0  0  0  0  0  0  0
   24.6825  -20.9903   -9.1328 C   0  0  0  0  0  0  0  0  0  0  0  0
   24.2870  -22.0632   -9.6399 O   0  0  0  0  0  0  0  0  0  0  0  0
   24.6924  -20.8615   -7.7592 O   0  0  0  0  0  0  0  0  0  0  0  0
  2  1  1  6
  3  2  1  0
  4  3  1  0
  5  2  1  0
  6  5  2  0
  7  5  1  0
  8  7  1  0
  8  9  1  6
 10  9  1  0
 11 10  1  0
 11 12  2  0
 13 14  2  0
 13  8  1  0
 15 11  1  0
 16 13  1  0
 17 18  1  0
 17 16  1  0
 18 20  1  0
 19 18  2  0
M  END
$$$$
