CEG.pdb
     RDKit          3D

 20 19  0  0  1  0  0  0  0  0999 V2000
   26.0277  -11.4675  -17.7908 N   0  0  0  0  0  0  0  0  0  0  0  0
   25.6575  -10.9763  -16.4631 C   0  0  1  0  0  0  0  0  0  0  0  0
   26.9156  -10.3781  -15.8520 C   0  0  0  0  0  0  0  0  0  0  0  0
   28.0041  -11.6942  -15.2759 S   0  0  0  0  0  0  0  0  0  0  0  0
   24.5994   -9.9697  -16.5998 C   0  0  0  0  0  0  0  0  0  0  0  0
   24.7179   -9.1233  -17.5357 O   0  0  0  0  0  0  0  0  0  0  0  0
   23.4805   -9.9075  -15.7504 N   0  0  0  0  0  0  0  0  0  0  0  0
   22.4025   -8.9217  -15.9129 C   0  0  1  0  0  0  0  0  0  0  0  0
   21.0726   -9.6029  -15.9993 C   0  0  0  0  0  0  0  0  0  0  0  0
   19.8950   -8.7011  -16.1174 C   0  0  0  0  0  0  0  0  0  0  0  0
   18.5941   -9.4074  -16.2387 C   0  0  0  0  0  0  0  0  0  0  0  0
   17.7772   -9.5523  -15.2995 O   0  0  0  0  0  0  0  0  0  0  0  0
   22.4937   -7.9078  -14.8276 C   0  0  0  0  0  0  0  0  0  0  0  0
   22.8532   -8.1962  -13.6627 O   0  0  0  0  0  0  0  0  0  0  0  0
   18.2177   -9.9605  -17.4601 O   0  0  0  0  0  0  0  0  0  0  0  0
   22.1723   -6.5337  -15.0583 N   0  0  0  0  0  0  0  0  0  0  0  0
   22.1979   -5.5684  -13.9887 C   0  0  0  0  0  0  0  0  0  0  0  0
   21.7616   -4.2262  -14.4273 C   0  0  0  0  0  0  0  0  0  0  0  0
   21.6974   -3.2907  -13.5992 O   0  0  0  0  0  0  0  0  0  0  0  0
   21.4212   -3.9823  -15.7419 O   0  0  0  0  0  0  0  0  0  0  0  0
  2  1  1  6
  3  2  1  0
  4  3  1  0
  5  2  1  0
  6  5  2  0
  7  5  1  0
  8  7  1  0
  8  9  1  1
 10  9  1  0
 11 10  1  0
 11 12  2  0
 13 14  2  0
 13  8  1  0
 15 11  1  0
 16 13  1  0
 17 18  1  0
 17 16  1  0
 18 20  1  0
 19 18  2  0
M  END
$$$$
