CEG.pdb
     RDKit          3D

 20 19  0  0  1  0  0  0  0  0999 V2000
   25.8732  -11.0733  -17.7622 N   0  0  0  0  0  0  0  0  0  0  0  0
   25.2218  -11.0708  -16.4519 C   0  0  1  0  0  0  0  0  0  0  0  0
   26.3240  -10.9062  -15.4164 C   0  0  0  0  0  0  0  0  0  0  0  0
   27.2849  -12.4264  -15.2955 S   0  0  0  0  0  0  0  0  0  0  0  0
   24.2635   -9.9620  -16.3927 C   0  0  0  0  0  0  0  0  0  0  0  0
   24.5348   -8.9210  -17.0628 O   0  0  0  0  0  0  0  0  0  0  0  0
   23.0786  -10.0069  -15.6369 N   0  0  0  0  0  0  0  0  0  0  0  0
   22.0374   -8.9724  -15.7132 C   0  0  1  0  0  0  0  0  0  0  0  0
   20.6750   -9.5918  -15.6907 C   0  0  0  0  0  0  0  0  0  0  0  0
   20.3890  -10.5557  -16.7876 C   0  0  0  0  0  0  0  0  0  0  0  0
   19.5280  -11.6981  -16.3883 C   0  0  0  0  0  0  0  0  0  0  0  0
   18.3038  -11.7842  -16.6422 O   0  0  0  0  0  0  0  0  0  0  0  0
   22.2623   -7.9660  -14.6405 C   0  0  0  0  0  0  0  0  0  0  0  0
   22.7218   -8.2698  -13.5153 O   0  0  0  0  0  0  0  0  0  0  0  0
   20.0774  -12.7660  -15.6833 O   0  0  0  0  0  0  0  0  0  0  0  0
   21.9630   -6.5819  -14.8382 N   0  0  0  0  0  0  0  0  0  0  0  0
   22.0849   -5.6281  -13.7649 C   0  0  0  0  0  0  0  0  0  0  0  0
   21.8708   -4.2373  -14.2167 C   0  0  0  0  0  0  0  0  0  0  0  0
   21.6199   -4.0051  -15.4200 O   0  0  0  0  0  0  0  0  0  0  0  0
   21.9427   -3.1819  -13.3311 O   0  0  0  0  0  0  0  0  0  0  0  0
  2  1  1  6
  3  2  1  0
  4  3  1  0
  5  2  1  0
  6  5  2  0
  7  5  1  0
  8  7  1  0
  8  9  1  1
 10  9  1  0
 11 10  1  0
 11 12  2  0
 13 14  2  0
 13  8  1  0
 15 11  1  0
 16 13  1  0
 17 18  1  0
 17 16  1  0
 18 20  1  0
 19 18  2  0
M  END
$$$$
