CEG.pdb
     RDKit          3D

 20 19  0  0  1  0  0  0  0  0999 V2000
   23.6225  -11.6370  -18.6163 N   0  0  0  0  0  0  0  0  0  0  0  0
   24.1004  -10.6266  -17.6719 C   0  0  1  0  0  0  0  0  0  0  0  0
   25.2749   -9.9263  -18.3386 C   0  0  0  0  0  0  0  0  0  0  0  0
   26.7589  -10.9383  -18.1884 S   0  0  0  0  0  0  0  0  0  0  0  0
   23.0128   -9.6864  -17.3814 C   0  0  0  0  0  0  0  0  0  0  0  0
   22.3575   -9.2312  -18.3661 O   0  0  0  0  0  0  0  0  0  0  0  0
   22.6747   -9.2778  -16.0791 N   0  0  0  0  0  0  0  0  0  0  0  0
   21.5362   -8.3963  -15.7840 C   0  0  1  0  0  0  0  0  0  0  0  0
   20.2967   -9.1987  -15.5392 C   0  0  0  0  0  0  0  0  0  0  0  0
   19.0686   -8.4113  -15.2466 C   0  0  0  0  0  0  0  0  0  0  0  0
   17.8746   -9.2361  -14.9303 C   0  0  0  0  0  0  0  0  0  0  0  0
   17.8993  -10.2815  -14.2397 O   0  0  0  0  0  0  0  0  0  0  0  0
   21.8964   -7.4830  -14.6659 C   0  0  0  0  0  0  0  0  0  0  0  0
   22.4331   -7.8885  -13.6090 O   0  0  0  0  0  0  0  0  0  0  0  0
   16.6243   -8.8584  -15.4135 O   0  0  0  0  0  0  0  0  0  0  0  0
   21.6467   -6.0769  -14.7380 N   0  0  0  0  0  0  0  0  0  0  0  0
   21.9434   -5.2053  -13.6295 C   0  0  0  0  0  0  0  0  0  0  0  0
   21.8416   -3.7758  -13.9907 C   0  0  0  0  0  0  0  0  0  0  0  0
   22.0805   -2.8980  -13.1320 O   0  0  0  0  0  0  0  0  0  0  0  0
   21.4860   -3.3872  -15.2658 O   0  0  0  0  0  0  0  0  0  0  0  0
  2  1  1  6
  3  2  1  0
  4  3  1  0
  5  2  1  0
  6  5  2  0
  7  5  1  0
  8  7  1  0
  8  9  1  1
 10  9  1  0
 11 10  1  0
 11 12  2  0
 13 14  2  0
 13  8  1  0
 15 11  1  0
 16 13  1  0
 17 18  1  0
 17 16  1  0
 18 20  1  0
 19 18  2  0
M  END
$$$$
