CEG.pdb
     RDKit          3D

 20 19  0  0  1  0  0  0  0  0999 V2000
   19.1367  -11.6175  -16.4744 N   0  0  0  0  0  0  0  0  0  0  0  0
   18.9487  -10.3111  -17.1064 C   0  0  1  0  0  0  0  0  0  0  0  0
   17.4615  -10.1760  -17.3963 C   0  0  0  0  0  0  0  0  0  0  0  0
   17.0486  -11.0594  -18.9121 S   0  0  0  0  0  0  0  0  0  0  0  0
   19.4120   -9.2625  -16.1915 C   0  0  0  0  0  0  0  0  0  0  0  0
   19.2337   -9.4511  -14.9509 O   0  0  0  0  0  0  0  0  0  0  0  0
   20.0342   -8.0792  -16.6273 N   0  0  0  0  0  0  0  0  0  0  0  0
   20.6030   -7.0846  -15.7067 C   0  0  1  0  0  0  0  0  0  0  0  0
   22.0752   -6.9372  -15.9325 C   0  0  0  0  0  0  0  0  0  0  0  0
   22.7695   -5.9729  -15.0370 C   0  0  0  0  0  0  0  0  0  0  0  0
   24.1939   -5.7339  -15.3830 C   0  0  0  0  0  0  0  0  0  0  0  0
   25.1029   -6.5892  -15.2694 O   0  0  0  0  0  0  0  0  0  0  0  0
   19.8422   -5.8113  -15.8247 C   0  0  0  0  0  0  0  0  0  0  0  0
   19.6050   -5.2663  -16.9276 O   0  0  0  0  0  0  0  0  0  0  0  0
   24.5892   -4.4905  -15.8697 O   0  0  0  0  0  0  0  0  0  0  0  0
   19.3348   -5.1331  -14.6728 N   0  0  0  0  0  0  0  0  0  0  0  0
   18.6380   -3.8771  -14.7889 C   0  0  0  0  0  0  0  0  0  0  0  0
   19.5405   -2.7592  -15.1354 C   0  0  0  0  0  0  0  0  0  0  0  0
   20.7799   -2.9167  -15.0715 O   0  0  0  0  0  0  0  0  0  0  0  0
   19.0396   -1.5361  -15.5310 O   0  0  0  0  0  0  0  0  0  0  0  0
  2  1  1  1
  3  2  1  0
  4  3  1  0
  5  2  1  0
  6  5  2  0
  7  5  1  0
  8  7  1  0
  8  9  1  6
 10  9  1  0
 11 10  1  0
 11 12  2  0
 13 14  2  0
 13  8  1  0
 15 11  1  0
 16 13  1  0
 17 18  1  0
 17 16  1  0
 18 20  1  0
 19 18  2  0
M  END
$$$$
