CEG.pdb
     RDKit          3D

 20 19  0  0  1  0  0  0  0  0999 V2000
   25.1916  -12.0913  -17.8255 N   0  0  0  0  0  0  0  0  0  0  0  0
   25.4896  -11.0495  -16.8421 C   0  0  1  0  0  0  0  0  0  0  0  0
   26.9827  -10.7742  -16.9361 C   0  0  0  0  0  0  0  0  0  0  0  0
   27.4869   -9.6627  -15.6098 S   0  0  0  0  0  0  0  0  0  0  0  0
   24.7046   -9.8512  -17.1572 C   0  0  0  0  0  0  0  0  0  0  0  0
   24.9222   -9.2886  -18.2719 O   0  0  0  0  0  0  0  0  0  0  0  0
   23.7389   -9.3121  -16.2888 N   0  0  0  0  0  0  0  0  0  0  0  0
   22.9825   -8.0882  -16.5890 C   0  0  1  0  0  0  0  0  0  0  0  0
   21.6905   -8.4191  -17.2682 C   0  0  0  0  0  0  0  0  0  0  0  0
   20.8290   -7.2559  -17.6124 C   0  0  0  0  0  0  0  0  0  0  0  0
   19.5454   -7.6181  -18.2661 C   0  0  0  0  0  0  0  0  0  0  0  0
   18.7470   -8.4795  -17.8290 O   0  0  0  0  0  0  0  0  0  0  0  0
   22.8243   -7.2884  -15.3443 C   0  0  0  0  0  0  0  0  0  0  0  0
   22.6053   -7.8130  -14.2279 O   0  0  0  0  0  0  0  0  0  0  0  0
   19.1653   -6.9824  -19.4454 O   0  0  0  0  0  0  0  0  0  0  0  0
   22.9149   -5.8614  -15.3550 N   0  0  0  0  0  0  0  0  0  0  0  0
   22.8662   -5.0982  -14.1337 C   0  0  0  0  0  0  0  0  0  0  0  0
   21.4826   -4.8355  -13.6853 C   0  0  0  0  0  0  0  0  0  0  0  0
   20.8059   -3.9437  -14.2433 O   0  0  0  0  0  0  0  0  0  0  0  0
   20.9182   -5.5601  -12.6558 O   0  0  0  0  0  0  0  0  0  0  0  0
  2  1  1  6
  3  2  1  0
  4  3  1  0
  5  2  1  0
  6  5  2  0
  7  5  1  0
  8  7  1  0
  8  9  1  1
 10  9  1  0
 11 10  1  0
 11 12  2  0
 13 14  2  0
 13  8  1  0
 15 11  1  0
 16 13  1  0
 17 18  1  0
 17 16  1  0
 18 20  1  0
 19 18  2  0
M  END
$$$$
