CEG.pdb
     RDKit          3D

 20 19  0  0  1  0  0  0  0  0999 V2000
   25.4633  -15.5502  -15.1007 N   0  0  0  0  0  0  0  0  0  0  0  0
   24.8520  -14.9198  -16.2711 C   0  0  1  0  0  0  0  0  0  0  0  0
   24.3468  -16.0460  -17.1602 C   0  0  0  0  0  0  0  0  0  0  0  0
   25.7295  -16.8116  -18.0266 S   0  0  0  0  0  0  0  0  0  0  0  0
   23.7538  -14.0522  -15.8322 C   0  0  0  0  0  0  0  0  0  0  0  0
   23.0393  -14.4595  -14.8679 O   0  0  0  0  0  0  0  0  0  0  0  0
   23.4676  -12.8106  -16.4270 N   0  0  0  0  0  0  0  0  0  0  0  0
   22.3940  -11.9234  -15.9574 C   0  0  1  0  0  0  0  0  0  0  0  0
   22.8808  -10.5114  -15.8596 C   0  0  0  0  0  0  0  0  0  0  0  0
   21.8758   -9.5155  -15.3990 C   0  0  0  0  0  0  0  0  0  0  0  0
   22.3714   -8.1157  -15.3699 C   0  0  0  0  0  0  0  0  0  0  0  0
   22.7923   -7.5352  -14.3421 O   0  0  0  0  0  0  0  0  0  0  0  0
   21.1986  -12.0924  -16.8270 C   0  0  0  0  0  0  0  0  0  0  0  0
   21.2577  -12.0249  -18.0766 O   0  0  0  0  0  0  0  0  0  0  0  0
   22.3866   -7.3619  -16.5407 O   0  0  0  0  0  0  0  0  0  0  0  0
   19.9028  -12.3442  -16.2774 N   0  0  0  0  0  0  0  0  0  0  0  0
   18.7491  -12.5117  -17.1244 C   0  0  0  0  0  0  0  0  0  0  0  0
   18.1949  -11.2222  -17.5874 C   0  0  0  0  0  0  0  0  0  0  0  0
   18.8517  -10.1694  -17.4290 O   0  0  0  0  0  0  0  0  0  0  0  0
   16.9583  -11.1560  -18.1955 O   0  0  0  0  0  0  0  0  0  0  0  0
  2  1  1  1
  3  2  1  0
  4  3  1  0
  5  2  1  0
  6  5  2  0
  7  5  1  0
  8  7  1  0
  8  9  1  6
 10  9  1  0
 11 10  1  0
 11 12  2  0
 13 14  2  0
 13  8  1  0
 15 11  1  0
 16 13  1  0
 17 18  1  0
 17 16  1  0
 18 20  1  0
 19 18  2  0
M  END
$$$$
