CEG.pdb
     RDKit          3D

 20 19  0  0  1  0  0  0  0  0999 V2000
   26.2916  -20.9481  -13.7970 N   0  0  0  0  0  0  0  0  0  0  0  0
   25.3081  -20.8671  -14.8775 C   0  0  1  0  0  0  0  0  0  0  0  0
   25.2135  -22.2575  -15.4874 C   0  0  0  0  0  0  0  0  0  0  0  0
   24.6857  -22.1392  -17.2067 S   0  0  0  0  0  0  0  0  0  0  0  0
   24.0194  -20.4376  -14.3244 C   0  0  0  0  0  0  0  0  0  0  0  0
   23.7665  -20.7532  -13.1233 O   0  0  0  0  0  0  0  0  0  0  0  0
   23.0714  -19.7037  -15.0594 N   0  0  0  0  0  0  0  0  0  0  0  0
   21.7287  -19.3895  -14.5508 C   0  0  1  0  0  0  0  0  0  0  0  0
   21.1812  -18.1698  -15.2237 C   0  0  0  0  0  0  0  0  0  0  0  0
   19.8367  -17.7302  -14.7625 C   0  0  0  0  0  0  0  0  0  0  0  0
   19.2449  -16.6294  -15.5650 C   0  0  0  0  0  0  0  0  0  0  0  0
   18.0629  -16.2284  -15.4531 O   0  0  0  0  0  0  0  0  0  0  0  0
   20.8601  -20.5911  -14.6760 C   0  0  0  0  0  0  0  0  0  0  0  0
   20.7363  -21.2258  -15.7490 O   0  0  0  0  0  0  0  0  0  0  0  0
   20.0204  -15.9719  -16.5166 O   0  0  0  0  0  0  0  0  0  0  0  0
   20.1113  -21.0923  -13.5658 N   0  0  0  0  0  0  0  0  0  0  0  0
   18.7424  -21.5168  -13.7156 C   0  0  0  0  0  0  0  0  0  0  0  0
   18.5797  -22.5422  -14.7674 C   0  0  0  0  0  0  0  0  0  0  0  0
   18.5995  -23.7553  -14.4629 O   0  0  0  0  0  0  0  0  0  0  0  0
   18.4050  -22.1854  -16.0887 O   0  0  0  0  0  0  0  0  0  0  0  0
  2  1  1  1
  3  2  1  0
  4  3  1  0
  5  2  1  0
  6  5  2  0
  7  5  1  0
  8  7  1  0
  8  9  1  6
 10  9  1  0
 11 10  1  0
 11 12  2  0
 13 14  2  0
 13  8  1  0
 15 11  1  0
 16 13  1  0
 17 18  1  0
 17 16  1  0
 18 20  1  0
 19 18  2  0
M  END
$$$$
