GDM.pdb
     RDKit          3D

 21 20  0  0  1  0  0  0  0  0999 V2000
   16.7856   -1.8725  -15.5938 N   0  0  0  0  0  0  0  0  0  0  0  0
   17.6337   -2.5715  -14.6478 C   0  0  0  0  0  0  0  0  0  0  0  0
   16.9141   -3.7435  -14.0892 C   0  0  0  0  0  0  0  0  0  0  0  0
   15.7805   -3.6413  -13.5940 O   0  0  0  0  0  0  0  0  0  0  0  0
   17.5370   -5.0279  -14.1187 N   0  0  0  0  0  0  0  0  0  0  0  0
   16.9746   -6.2086  -13.5267 C   0  0  1  0  0  0  0  0  0  0  0  0
   17.5735   -7.4835  -14.0516 C   0  0  0  0  0  0  0  0  0  0  0  0
   16.9047   -8.6886  -13.5527 C   0  0  0  0  0  0  0  0  0  0  0  0
   15.6410   -8.6772  -13.4314 O   0  0  0  0  0  0  0  0  0  0  0  0
   17.0766   -6.1595  -12.0335 C   0  0  0  0  0  0  0  0  0  0  0  0
   18.1885   -5.8736  -11.5230 O   0  0  0  0  0  0  0  0  0  0  0  0
   17.5353   -9.8705  -13.1908 O   0  0  0  0  0  0  0  0  0  0  0  0
   13.0453   -4.3709   -5.4736 C   0  0  0  0  0  0  0  0  0  0  0  0
   13.3117   -4.4739   -7.2323 S   0  0  0  0  0  0  0  0  0  0  0  0
   14.6923   -5.4469   -7.7878 C   0  0  0  0  0  0  0  0  0  0  0  0
   14.8503   -5.5837   -9.2619 C   0  0  0  0  0  0  0  0  0  0  0  0
   16.0737   -6.3346   -9.7088 C   0  0  2  0  0  0  0  0  0  0  0  0
   16.0006   -6.4154  -11.1805 N   0  0  0  0  0  0  0  0  0  0  0  0
   16.0500   -7.7081   -9.1530 C   0  0  0  0  0  0  0  0  0  0  0  0
   15.7577   -8.7980   -9.9201 O   0  0  0  0  0  0  0  0  0  0  0  0
   16.3090   -7.8671   -7.9392 O   0  0  0  0  0  0  0  0  0  0  0  0
  2  1  1  0
  3  2  1  0
  4  3  2  0
  5  3  1  0
  6 10  1  0
  6  5  1  0
  7  8  1  0
  6  7  1  6
  8 12  1  0
  9  8  2  0
 10 11  2  0
 13 14  1  0
 14 15  1  0
 16 15  1  0
 17 16  1  1
 18 17  1  0
 18 10  1  0
 19 20  1  0
 19 17  1  0
 21 19  2  0
M  END
$$$$
