GDM.pdb
     RDKit          3D

 21 20  0  0  1  0  0  0  0  0999 V2000
   12.4513  -10.6922   -9.2562 N   0  0  0  0  0  0  0  0  0  0  0  0
   13.5159  -10.0191   -8.5377 C   0  0  0  0  0  0  0  0  0  0  0  0
   14.0735   -8.9210   -9.3664 C   0  0  0  0  0  0  0  0  0  0  0  0
   13.6637   -8.6948  -10.5160 O   0  0  0  0  0  0  0  0  0  0  0  0
   15.1107   -8.0975   -8.8329 N   0  0  0  0  0  0  0  0  0  0  0  0
   15.6836   -6.9769   -9.5234 C   0  0  1  0  0  0  0  0  0  0  0  0
   15.9397   -5.7935   -8.6327 C   0  0  0  0  0  0  0  0  0  0  0  0
   14.7168   -5.0906   -8.2338 C   0  0  0  0  0  0  0  0  0  0  0  0
   13.7295   -5.0864   -9.0319 O   0  0  0  0  0  0  0  0  0  0  0  0
   16.9380   -7.3732  -10.2390 C   0  0  0  0  0  0  0  0  0  0  0  0
   17.9509   -7.6547   -9.5510 O   0  0  0  0  0  0  0  0  0  0  0  0
   14.5294   -4.4120   -7.0380 O   0  0  0  0  0  0  0  0  0  0  0  0
   17.9619  -13.2412  -13.9126 C   0  0  0  0  0  0  0  0  0  0  0  0
   17.5998  -11.5339  -14.2711 S   0  0  0  0  0  0  0  0  0  0  0  0
   18.1807  -10.3203  -13.1086 C   0  0  0  0  0  0  0  0  0  0  0  0
   17.7686   -8.9129  -13.3653 C   0  0  0  0  0  0  0  0  0  0  0  0
   18.2412   -7.9107  -12.3493 C   0  0  2  0  0  0  0  0  0  0  0  0
   17.0395   -7.4453  -11.6302 N   0  0  0  0  0  0  0  0  0  0  0  0
   18.8641   -6.7551  -13.0369 C   0  0  0  0  0  0  0  0  0  0  0  0
   20.2071   -6.6836  -13.2675 O   0  0  0  0  0  0  0  0  0  0  0  0
   18.1282   -5.8175  -13.4178 O   0  0  0  0  0  0  0  0  0  0  0  0
  2  1  1  0
  3  2  1  0
  4  3  2  0
  5  3  1  0
  6 10  1  0
  6  5  1  0
  7  8  1  0
  6  7  1  1
  8 12  1  0
  9  8  2  0
 10 11  2  0
 13 14  1  0
 14 15  1  0
 16 15  1  0
 17 16  1  6
 18 17  1  0
 18 10  1  0
 19 20  1  0
 19 17  1  0
 21 19  2  0
M  END
$$$$
