GDM.pdb
     RDKit          3D

 21 20  0  0  1  0  0  0  0  0999 V2000
   15.4773  -11.3221  -14.6309 N   0  0  0  0  0  0  0  0  0  0  0  0
   16.0563  -12.0738  -15.7274 C   0  0  0  0  0  0  0  0  0  0  0  0
   17.2434  -11.3605  -16.2619 C   0  0  0  0  0  0  0  0  0  0  0  0
   18.3873  -11.8341  -16.1730 O   0  0  0  0  0  0  0  0  0  0  0  0
   17.0725  -10.0935  -16.8976 N   0  0  0  0  0  0  0  0  0  0  0  0
   18.1490   -9.3134  -17.4390 C   0  0  1  0  0  0  0  0  0  0  0  0
   17.6908   -8.2354  -18.3811 C   0  0  0  0  0  0  0  0  0  0  0  0
   18.7927   -7.5629  -19.0754 C   0  0  0  0  0  0  0  0  0  0  0  0
   18.6651   -6.3355  -19.3738 O   0  0  0  0  0  0  0  0  0  0  0  0
   18.9896   -8.7292  -16.3459 C   0  0  0  0  0  0  0  0  0  0  0  0
   18.4068   -8.2024  -15.3654 O   0  0  0  0  0  0  0  0  0  0  0  0
   19.9921   -8.1532  -19.4478 O   0  0  0  0  0  0  0  0  0  0  0  0
   25.6642  -10.5508  -15.3104 C   0  0  0  0  0  0  0  0  0  0  0  0
   24.6809  -10.1456  -13.8809 S   0  0  0  0  0  0  0  0  0  0  0  0
   23.3847   -8.9486  -14.1010 C   0  0  0  0  0  0  0  0  0  0  0  0
   22.3281   -9.2971  -15.0903 C   0  0  0  0  0  0  0  0  0  0  0  0
   21.2293   -8.2819  -15.2397 C   0  0  2  0  0  0  0  0  0  0  0  0
   20.3862   -8.7398  -16.3609 N   0  0  0  0  0  0  0  0  0  0  0  0
   21.8092   -6.9627  -15.5855 C   0  0  0  0  0  0  0  0  0  0  0  0
   21.9051   -6.5259  -16.8746 O   0  0  0  0  0  0  0  0  0  0  0  0
   22.2214   -6.2289  -14.6596 O   0  0  0  0  0  0  0  0  0  0  0  0
  2  1  1  0
  3  2  1  0
  4  3  2  0
  5  3  1  0
  6 10  1  0
  6  5  1  0
  7  8  1  0
  6  7  1  1
  8 12  1  0
  9  8  2  0
 10 11  2  0
 13 14  1  0
 14 15  1  0
 16 15  1  0
 17 16  1  6
 18 17  1  0
 18 10  1  0
 19 20  1  0
 19 17  1  0
 21 19  2  0
M  END
$$$$
