GDM.pdb
     RDKit          3D

 21 20  0  0  1  0  0  0  0  0999 V2000
   19.6716  -17.6165  -11.7858 N   0  0  0  0  0  0  0  0  0  0  0  0
   19.6323  -18.6146  -12.8369 C   0  0  0  0  0  0  0  0  0  0  0  0
   20.6670  -19.6507  -12.5932 C   0  0  0  0  0  0  0  0  0  0  0  0
   20.7343  -20.2696  -11.5193 O   0  0  0  0  0  0  0  0  0  0  0  0
   21.6150  -19.9495  -13.6182 N   0  0  0  0  0  0  0  0  0  0  0  0
   22.5993  -20.9903  -13.5252 C   0  0  1  0  0  0  0  0  0  0  0  0
   22.8350  -21.7076  -14.8249 C   0  0  0  0  0  0  0  0  0  0  0  0
   21.6780  -22.4849  -15.2783 C   0  0  0  0  0  0  0  0  0  0  0  0
   21.1338  -22.1777  -16.3834 O   0  0  0  0  0  0  0  0  0  0  0  0
   23.8892  -20.4602  -12.9796 C   0  0  0  0  0  0  0  0  0  0  0  0
   24.4384  -19.5019  -13.5784 O   0  0  0  0  0  0  0  0  0  0  0  0
   21.1053  -23.5509  -14.5991 O   0  0  0  0  0  0  0  0  0  0  0  0
   27.0144  -19.2810   -6.8630 C   0  0  0  0  0  0  0  0  0  0  0  0
   27.4030  -20.8537   -7.6047 S   0  0  0  0  0  0  0  0  0  0  0  0
   27.3568  -20.9468   -9.3798 C   0  0  0  0  0  0  0  0  0  0  0  0
   26.0146  -21.1414   -9.9939 C   0  0  0  0  0  0  0  0  0  0  0  0
   25.8523  -20.5701  -11.3751 C   0  0  2  0  0  0  0  0  0  0  0  0
   24.5123  -20.9762  -11.8410 N   0  0  0  0  0  0  0  0  0  0  0  0
   26.8701  -21.1523  -12.2813 C   0  0  0  0  0  0  0  0  0  0  0  0
   26.5660  -22.1283  -13.1850 O   0  0  0  0  0  0  0  0  0  0  0  0
   28.0457  -20.7293  -12.2114 O   0  0  0  0  0  0  0  0  0  0  0  0
  2  1  1  0
  3  2  1  0
  4  3  2  0
  5  3  1  0
  6 10  1  0
  6  5  1  0
  7  8  1  0
  6  7  1  6
  8 12  1  0
  9  8  2  0
 10 11  2  0
 13 14  1  0
 14 15  1  0
 16 15  1  0
 17 16  1  1
 18 17  1  0
 18 10  1  0
 19 20  1  0
 19 17  1  0
 21 19  2  0
M  END
$$$$
