GDM.pdb
     RDKit          3D

 21 20  0  0  1  0  0  0  0  0999 V2000
   15.4481  -10.9003  -11.1455 N   0  0  0  0  0  0  0  0  0  0  0  0
   15.3620  -10.0177   -9.9982 C   0  0  0  0  0  0  0  0  0  0  0  0
   15.7145   -8.6316  -10.3954 C   0  0  0  0  0  0  0  0  0  0  0  0
   15.7204   -8.2718  -11.5834 O   0  0  0  0  0  0  0  0  0  0  0  0
   16.0575   -7.6795   -9.3882 N   0  0  0  0  0  0  0  0  0  0  0  0
   16.3806   -6.3066   -9.6555 C   0  0  1  0  0  0  0  0  0  0  0  0
   15.8614   -5.3566   -8.6128 C   0  0  0  0  0  0  0  0  0  0  0  0
   14.3983   -5.3294   -8.5279 C   0  0  0  0  0  0  0  0  0  0  0  0
   13.7283   -5.2267   -9.6014 O   0  0  0  0  0  0  0  0  0  0  0  0
   17.8567   -6.1291   -9.8352 C   0  0  0  0  0  0  0  0  0  0  0  0
   18.6200   -6.5465   -8.9286 O   0  0  0  0  0  0  0  0  0  0  0  0
   13.6560   -5.4067   -7.3580 O   0  0  0  0  0  0  0  0  0  0  0  0
   23.3320   -9.6392  -13.0779 C   0  0  0  0  0  0  0  0  0  0  0  0
   21.6942   -9.1845  -12.5435 S   0  0  0  0  0  0  0  0  0  0  0  0
   21.3985   -7.4631  -12.2106 C   0  0  0  0  0  0  0  0  0  0  0  0
   20.0397   -7.1130  -11.7130 C   0  0  0  0  0  0  0  0  0  0  0  0
   19.8438   -5.6685  -11.3450 C   0  0  2  0  0  0  0  0  0  0  0  0
   18.4274   -5.5238  -10.9571 N   0  0  0  0  0  0  0  0  0  0  0  0
   20.1064   -4.8105  -12.5244 C   0  0  0  0  0  0  0  0  0  0  0  0
   21.3196   -4.2254  -12.7423 O   0  0  0  0  0  0  0  0  0  0  0  0
   19.1809   -4.6214  -13.3449 O   0  0  0  0  0  0  0  0  0  0  0  0
  2  1  1  0
  3  2  1  0
  4  3  2  0
  5  3  1  0
  6 10  1  0
  6  5  1  0
  7  8  1  0
  6  7  1  1
  8 12  1  0
  9  8  2  0
 10 11  2  0
 13 14  1  0
 14 15  1  0
 16 15  1  0
 17 16  1  6
 18 17  1  0
 18 10  1  0
 19 20  1  0
 19 17  1  0
 21 19  2  0
M  END
$$$$
