GDM.pdb
     RDKit          3D

 21 20  0  0  1  0  0  0  0  0999 V2000
   18.6848  -22.1838  -11.4015 N   0  0  0  0  0  0  0  0  0  0  0  0
   19.7932  -23.1010  -11.5821 C   0  0  0  0  0  0  0  0  0  0  0  0
   20.7054  -22.5945  -12.6380 C   0  0  0  0  0  0  0  0  0  0  0  0
   21.7418  -23.2001  -12.9544 O   0  0  0  0  0  0  0  0  0  0  0  0
   20.3885  -21.3772  -13.3134 N   0  0  0  0  0  0  0  0  0  0  0  0
   21.1311  -20.8579  -14.4268 C   0  0  1  0  0  0  0  0  0  0  0  0
   20.3492  -19.8859  -15.2655 C   0  0  0  0  0  0  0  0  0  0  0  0
   19.1966  -20.4934  -15.9372 C   0  0  0  0  0  0  0  0  0  0  0  0
   18.0449  -19.9985  -15.7364 O   0  0  0  0  0  0  0  0  0  0  0  0
   22.4163  -20.2388  -13.9712 C   0  0  0  0  0  0  0  0  0  0  0  0
   22.3584  -19.2550  -13.1919 O   0  0  0  0  0  0  0  0  0  0  0  0
   19.2439  -21.5849  -16.7927 O   0  0  0  0  0  0  0  0  0  0  0  0
   28.8306  -21.1435  -10.2967 C   0  0  0  0  0  0  0  0  0  0  0  0
   27.9641  -21.7743  -11.7200 S   0  0  0  0  0  0  0  0  0  0  0  0
   27.0423  -20.6052  -12.6921 C   0  0  0  0  0  0  0  0  0  0  0  0
   25.7299  -21.0743  -13.2157 C   0  0  0  0  0  0  0  0  0  0  0  0
   24.9472  -20.0529  -13.9930 C   0  0  2  0  0  0  0  0  0  0  0  0
   23.6742  -20.6980  -14.3683 N   0  0  0  0  0  0  0  0  0  0  0  0
   25.6821  -19.6915  -15.2280 C   0  0  0  0  0  0  0  0  0  0  0  0
   25.2915  -20.1273  -16.4606 O   0  0  0  0  0  0  0  0  0  0  0  0
   26.6932  -18.9608  -15.1307 O   0  0  0  0  0  0  0  0  0  0  0  0
  2  1  1  0
  3  2  1  0
  4  3  2  0
  5  3  1  0
  6 10  1  0
  6  5  1  0
  7  8  1  0
  6  7  1  1
  8 12  1  0
  9  8  2  0
 10 11  2  0
 13 14  1  0
 14 15  1  0
 16 15  1  0
 17 16  1  1
 18 17  1  0
 18 10  1  0
 19 20  1  0
 19 17  1  0
 21 19  2  0
M  END
$$$$
