GDM.pdb
     RDKit          3D

 21 20  0  0  1  0  0  0  0  0999 V2000
   21.3290  -10.9969    7.2532 N   0  0  0  0  0  0  0  0  0  0  0  0
   20.3535  -11.2326    6.2067 C   0  0  0  0  0  0  0  0  0  0  0  0
   19.4373  -12.3310    6.6036 C   0  0  0  0  0  0  0  0  0  0  0  0
   19.4938  -12.8581    7.7260 O   0  0  0  0  0  0  0  0  0  0  0  0
   18.4607  -12.7999    5.6735 N   0  0  0  0  0  0  0  0  0  0  0  0
   17.5254  -13.8528    5.9514 C   0  0  1  0  0  0  0  0  0  0  0  0
   16.3510  -13.8719    5.0133 C   0  0  0  0  0  0  0  0  0  0  0  0
   15.1887  -14.5849    5.5510 C   0  0  0  0  0  0  0  0  0  0  0  0
   15.2915  -15.8290    5.7821 O   0  0  0  0  0  0  0  0  0  0  0  0
   18.2074  -15.1860    5.9617 C   0  0  0  0  0  0  0  0  0  0  0  0
   18.8929  -15.5104    4.9600 O   0  0  0  0  0  0  0  0  0  0  0  0
   13.9556  -14.0172    5.8389 O   0  0  0  0  0  0  0  0  0  0  0  0
   23.7158  -16.8448    8.2044 C   0  0  0  0  0  0  0  0  0  0  0  0
   22.5178  -17.8430    9.0663 S   0  0  0  0  0  0  0  0  0  0  0  0
   20.9970  -18.1990    8.2167 C   0  0  0  0  0  0  0  0  0  0  0  0
   20.1115  -17.0353    7.9368 C   0  0  0  0  0  0  0  0  0  0  0  0
   18.8910  -17.3413    7.1140 C   0  0  2  0  0  0  0  0  0  0  0  0
   18.1201  -16.0860    7.0261 N   0  0  0  0  0  0  0  0  0  0  0  0
   18.0656  -18.3620    7.8016 C   0  0  0  0  0  0  0  0  0  0  0  0
   18.3273  -19.6973    7.7008 O   0  0  0  0  0  0  0  0  0  0  0  0
   17.0986  -17.9800    8.4977 O   0  0  0  0  0  0  0  0  0  0  0  0
  2  1  1  0
  3  2  1  0
  4  3  2  0
  5  3  1  0
  6 10  1  0
  6  5  1  0
  7  8  1  0
  6  7  1  6
  8 12  1  0
  9  8  2  0
 10 11  2  0
 13 14  1  0
 14 15  1  0
 16 15  1  0
 17 16  1  1
 18 17  1  0
 18 10  1  0
 19 20  1  0
 19 17  1  0
 21 19  2  0
M  END
$$$$
