GDM.pdb
     RDKit          3D

 21 20  0  0  1  0  0  0  0  0999 V2000
   12.5493  -13.1312  -11.6793 N   0  0  0  0  0  0  0  0  0  0  0  0
   13.5297  -12.7927  -12.6926 C   0  0  0  0  0  0  0  0  0  0  0  0
   14.5716  -11.9064  -12.1159 C   0  0  0  0  0  0  0  0  0  0  0  0
   14.9164  -11.9883  -10.9263 O   0  0  0  0  0  0  0  0  0  0  0  0
   15.1995  -10.9298  -12.9469 N   0  0  0  0  0  0  0  0  0  0  0  0
   16.2356  -10.0413  -12.5021 C   0  0  1  0  0  0  0  0  0  0  0  0
   17.1778   -9.6263  -13.5973 C   0  0  0  0  0  0  0  0  0  0  0  0
   18.2025   -8.6765  -13.1540 C   0  0  0  0  0  0  0  0  0  0  0  0
   19.0252   -9.0427  -12.2591 O   0  0  0  0  0  0  0  0  0  0  0  0
   15.6551   -8.8366  -11.8281 C   0  0  0  0  0  0  0  0  0  0  0  0
   14.7258   -8.2213  -12.4082 O   0  0  0  0  0  0  0  0  0  0  0  0
   18.3641   -7.3831  -13.6299 O   0  0  0  0  0  0  0  0  0  0  0  0
   12.7111   -5.3215   -5.9125 C   0  0  0  0  0  0  0  0  0  0  0  0
   13.3632   -6.6511   -6.9032 S   0  0  0  0  0  0  0  0  0  0  0  0
   15.0186   -6.4633   -7.5242 C   0  0  0  0  0  0  0  0  0  0  0  0
   15.5094   -7.5413   -8.4262 C   0  0  0  0  0  0  0  0  0  0  0  0
   15.5040   -7.2038   -9.8912 C   0  0  2  0  0  0  0  0  0  0  0  0
   16.0935   -8.3624  -10.5897 N   0  0  0  0  0  0  0  0  0  0  0  0
   16.3548   -6.0152  -10.1351 C   0  0  0  0  0  0  0  0  0  0  0  0
   15.8707   -4.7429  -10.0416 O   0  0  0  0  0  0  0  0  0  0  0  0
   17.5568   -6.1909  -10.4351 O   0  0  0  0  0  0  0  0  0  0  0  0
  2  1  1  0
  3  2  1  0
  4  3  2  0
  5  3  1  0
  6 10  1  0
  6  5  1  0
  7  8  1  0
  6  7  1  6
  8 12  1  0
  9  8  2  0
 10 11  2  0
 13 14  1  0
 14 15  1  0
 16 15  1  0
 17 16  1  1
 18 17  1  0
 18 10  1  0
 19 20  1  0
 19 17  1  0
 21 19  2  0
M  END
$$$$
