GDM.pdb
     RDKit          3D

 21 20  0  0  1  0  0  0  0  0999 V2000
   13.2819   -7.2996  -15.9591 N   0  0  0  0  0  0  0  0  0  0  0  0
   13.8372   -8.6245  -15.7614 C   0  0  0  0  0  0  0  0  0  0  0  0
   14.7485   -8.6242  -14.5897 C   0  0  0  0  0  0  0  0  0  0  0  0
   14.4548   -9.2020  -13.5311 O   0  0  0  0  0  0  0  0  0  0  0  0
   16.0001   -7.9424  -14.6752 N   0  0  0  0  0  0  0  0  0  0  0  0
   16.9835   -7.9318  -13.6296 C   0  0  1  0  0  0  0  0  0  0  0  0
   18.3756   -7.6492  -14.1213 C   0  0  0  0  0  0  0  0  0  0  0  0
   19.4021   -7.8153  -13.0883 C   0  0  0  0  0  0  0  0  0  0  0  0
   20.5852   -7.4285  -13.3384 O   0  0  0  0  0  0  0  0  0  0  0  0
   16.6054   -6.9668  -12.5486 C   0  0  0  0  0  0  0  0  0  0  0  0
   16.3859   -5.7719  -12.8690 O   0  0  0  0  0  0  0  0  0  0  0  0
   19.2008   -8.3686  -11.8318 O   0  0  0  0  0  0  0  0  0  0  0  0
   12.1659   -8.4111   -8.1873 C   0  0  0  0  0  0  0  0  0  0  0  0
   13.1457   -7.2331   -7.2779 S   0  0  0  0  0  0  0  0  0  0  0  0
   14.4720   -6.4345   -8.1523 C   0  0  0  0  0  0  0  0  0  0  0  0
   15.0267   -7.1707   -9.3215 C   0  0  0  0  0  0  0  0  0  0  0  0
   16.0328   -6.4101  -10.1398 C   0  0  2  0  0  0  0  0  0  0  0  0
   16.4849   -7.3265  -11.2045 N   0  0  0  0  0  0  0  0  0  0  0  0
   17.1954   -6.0482   -9.2952 C   0  0  0  0  0  0  0  0  0  0  0  0
   17.1517   -5.0194   -8.3999 O   0  0  0  0  0  0  0  0  0  0  0  0
   18.2492   -6.7130   -9.4106 O   0  0  0  0  0  0  0  0  0  0  0  0
  2  1  1  0
  3  2  1  0
  4  3  2  0
  5  3  1  0
  6 10  1  0
  6  5  1  0
  7  8  1  0
  6  7  1  6
  8 12  1  0
  9  8  2  0
 10 11  2  0
 13 14  1  0
 14 15  1  0
 16 15  1  0
 17 16  1  1
 18 17  1  0
 18 10  1  0
 19 20  1  0
 19 17  1  0
 21 19  2  0
M  END
$$$$
