KTR.pdb
     RDKit          3D

 28 27  0  0  1  0  0  0  0  0999 V2000
   29.3271  -28.3413  -16.0491 N   0  0  0  0  0  0  0  0  0  0  0  0
   29.2272  -27.5557  -17.2637 C   0  0  1  0  0  0  0  0  0  0  0  0
   28.2898  -28.2231  -18.2424 C   0  0  0  0  0  0  0  0  0  0  0  0
   28.2333  -29.7000  -18.0956 C   0  0  0  0  0  0  0  0  0  0  0  0
   26.9286  -30.2608  -17.6784 C   0  0  0  0  0  0  0  0  0  0  0  0
   26.8888  -31.7563  -17.5737 C   0  0  0  0  0  0  0  0  0  0  0  0
   27.7689  -32.2044  -16.5055 N   0  0  0  0  0  0  0  0  0  0  0  0
   28.8131  -26.1989  -16.9079 C   0  0  0  0  0  0  0  0  0  0  0  0
   28.4404  -25.9042  -15.7192 O   0  0  0  0  0  0  0  0  0  0  0  0
   28.9908  -21.4026  -17.8490 C   0  0  0  0  0  0  0  0  0  0  0  0
   29.3882  -22.8333  -18.1537 C   0  0  1  0  0  0  0  0  0  0  0  0
   30.7149  -23.0815  -17.9169 O   0  0  0  0  0  0  0  0  0  0  0  0
   28.4445  -23.7432  -17.3916 C   0  0  2  0  0  0  0  0  0  0  0  0
   28.7837  -25.1005  -17.8205 N   0  0  0  0  0  0  0  0  0  0  0  0
   27.0192  -23.4392  -17.6644 C   0  0  0  0  0  0  0  0  0  0  0  0
   26.4939  -23.6436  -18.7933 O   0  0  0  0  0  0  0  0  0  0  0  0
   19.8067  -24.7407  -14.4442 N   0  0  0  0  0  0  0  0  0  0  0  0
   21.0769  -25.2470  -14.0435 C   0  0  0  0  0  0  0  0  0  0  0  0
   21.1787  -26.5133  -13.7868 N   0  0  0  0  0  0  0  0  0  0  0  0
   22.2195  -24.4219  -13.9183 N   0  0  0  0  0  0  0  0  0  0  0  0
   22.1652  -22.9824  -14.0476 C   0  0  0  0  0  0  0  0  0  0  0  0
   22.6591  -22.6109  -15.4429 C   0  0  0  0  0  0  0  0  0  0  0  0
   24.1310  -22.8995  -15.4801 C   0  0  0  0  0  0  0  0  0  0  0  0
   24.8020  -22.5870  -16.7831 C   0  0  2  0  0  0  0  0  0  0  0  0
   26.2280  -22.9077  -16.6365 N   0  0  0  0  0  0  0  0  0  0  0  0
   24.7001  -21.1388  -17.0539 C   0  0  0  0  0  0  0  0  0  0  0  0
   23.6356  -20.6416  -17.8272 O   0  0  0  0  0  0  0  0  0  0  0  0
   25.5202  -20.2762  -16.6336 O   0  0  0  0  0  0  0  0  0  0  0  0
  2  1  1  1
  3  2  1  0
  4  3  1  0
  5  4  1  0
  6  5  1  0
  7  6  1  0
  8  9  2  0
  8  2  1  0
 11 10  1  1
 11 13  1  0
 12 11  1  0
 13 14  1  6
 14  8  1  0
 15 13  1  0
 16 15  2  0
 18 17  1  0
 19 18  2  0
 20 18  1  0
 21 20  1  0
 21 22  1  0
 22 23  1  0
 24 23  1  1
 24 26  1  0
 24 25  1  0
 25 15  1  0
 26 27  1  0
 28 26  2  0
M  END
$$$$
