KTR.pdb
     RDKit          3D

 28 27  0  0  1  0  0  0  0  0999 V2000
   25.7680  -22.1704  -11.3154 N   0  0  0  0  0  0  0  0  0  0  0  0
   25.4594  -22.0769  -12.7290 C   0  0  1  0  0  0  0  0  0  0  0  0
   24.1751  -22.8117  -13.0335 C   0  0  0  0  0  0  0  0  0  0  0  0
   24.3879  -24.1432  -13.6563 C   0  0  0  0  0  0  0  0  0  0  0  0
   23.1650  -24.8753  -14.0557 C   0  0  0  0  0  0  0  0  0  0  0  0
   23.4087  -26.2076  -14.6997 C   0  0  0  0  0  0  0  0  0  0  0  0
   22.1439  -26.8098  -15.0924 N   0  0  0  0  0  0  0  0  0  0  0  0
   25.4134  -20.6637  -13.1030 C   0  0  0  0  0  0  0  0  0  0  0  0
   24.9496  -19.7763  -12.3055 O   0  0  0  0  0  0  0  0  0  0  0  0
   28.1394  -18.4550  -14.4967 C   0  0  0  0  0  0  0  0  0  0  0  0
   26.9814  -18.3785  -15.4719 C   0  0  1  0  0  0  0  0  0  0  0  0
   27.1835  -19.1274  -16.6015 O   0  0  0  0  0  0  0  0  0  0  0  0
   25.7185  -18.7356  -14.7124 C   0  0  2  0  0  0  0  0  0  0  0  0
   25.8668  -20.1468  -14.3550 N   0  0  0  0  0  0  0  0  0  0  0  0
   24.4918  -18.5158  -15.5156 C   0  0  0  0  0  0  0  0  0  0  0  0
   23.8737  -19.4660  -16.0697 O   0  0  0  0  0  0  0  0  0  0  0  0
   19.9014  -10.8124  -15.6290 N   0  0  0  0  0  0  0  0  0  0  0  0
   19.1854  -11.7493  -16.4290 C   0  0  0  0  0  0  0  0  0  0  0  0
   18.0562  -11.3777  -16.9452 N   0  0  0  0  0  0  0  0  0  0  0  0
   19.6616  -13.0584  -16.6767 N   0  0  0  0  0  0  0  0  0  0  0  0
   20.8169  -13.6126  -16.0059 C   0  0  0  0  0  0  0  0  0  0  0  0
   21.0929  -14.9929  -16.5956 C   0  0  0  0  0  0  0  0  0  0  0  0
   22.3150  -15.5283  -15.9092 C   0  0  0  0  0  0  0  0  0  0  0  0
   22.7609  -16.8796  -16.3791 C   0  0  2  0  0  0  0  0  0  0  0  0
   24.0011  -17.2112  -15.6652 N   0  0  0  0  0  0  0  0  0  0  0  0
   23.0826  -16.8181  -17.8192 C   0  0  0  0  0  0  0  0  0  0  0  0
   24.4240  -16.7530  -18.2375 O   0  0  0  0  0  0  0  0  0  0  0  0
   22.2215  -16.8189  -18.7420 O   0  0  0  0  0  0  0  0  0  0  0  0
  2  1  1  1
  3  2  1  0
  4  3  1  0
  5  4  1  0
  6  5  1  0
  7  6  1  0
  8  9  2  0
  8  2  1  0
 11 10  1  1
 11 13  1  0
 12 11  1  0
 13 14  1  6
 14  8  1  0
 15 13  1  0
 16 15  2  0
 18 17  1  0
 19 18  2  0
 20 18  1  0
 21 20  1  0
 21 22  1  0
 22 23  1  0
 24 23  1  1
 24 26  1  0
 24 25  1  0
 25 15  1  0
 26 27  1  0
 28 26  2  0
M  END
$$$$
