KTR.pdb
     RDKit          3D

 28 27  0  0  1  0  0  0  0  0999 V2000
   24.6790  -18.5264  -16.5826 N   0  0  0  0  0  0  0  0  0  0  0  0
   23.4051  -19.1329  -16.9165 C   0  0  1  0  0  0  0  0  0  0  0  0
   23.5774  -20.1251  -18.0425 C   0  0  0  0  0  0  0  0  0  0  0  0
   24.1619  -19.5305  -19.2716 C   0  0  0  0  0  0  0  0  0  0  0  0
   24.4109  -20.4674  -20.3901 C   0  0  0  0  0  0  0  0  0  0  0  0
   25.0380  -19.8489  -21.6040 C   0  0  0  0  0  0  0  0  0  0  0  0
   25.2184  -20.8554  -22.6390 N   0  0  0  0  0  0  0  0  0  0  0  0
   22.8431  -19.7318  -15.7062 C   0  0  0  0  0  0  0  0  0  0  0  0
   23.5945  -20.1749  -14.7692 O   0  0  0  0  0  0  0  0  0  0  0  0
   20.9798  -18.1223  -13.2535 C   0  0  0  0  0  0  0  0  0  0  0  0
   20.0662  -19.2737  -13.6240 C   0  0  1  0  0  0  0  0  0  0  0  0
   19.0414  -18.8976  -14.4523 O   0  0  0  0  0  0  0  0  0  0  0  0
   20.9335  -20.3858  -14.1810 C   0  0  2  0  0  0  0  0  0  0  0  0
   21.4447  -19.8780  -15.4546 N   0  0  0  0  0  0  0  0  0  0  0  0
   20.1819  -21.6490  -14.3746 C   0  0  0  0  0  0  0  0  0  0  0  0
   19.5310  -21.8874  -15.4290 O   0  0  0  0  0  0  0  0  0  0  0  0
   16.7913  -27.1572  -10.5236 N   0  0  0  0  0  0  0  0  0  0  0  0
   17.7323  -28.2244  -10.6018 C   0  0  0  0  0  0  0  0  0  0  0  0
   17.2856  -29.4401  -10.5550 N   0  0  0  0  0  0  0  0  0  0  0  0
   19.1241  -28.0033  -10.7282 N   0  0  0  0  0  0  0  0  0  0  0  0
   19.7026  -26.6812  -10.8246 C   0  0  0  0  0  0  0  0  0  0  0  0
   19.2287  -26.0484  -12.1300 C   0  0  0  0  0  0  0  0  0  0  0  0
   19.8759  -24.6981  -12.2248 C   0  0  0  0  0  0  0  0  0  0  0  0
   19.5134  -23.9096  -13.4465 C   0  0  2  0  0  0  0  0  0  0  0  0
   20.1934  -22.6109  -13.3549 N   0  0  0  0  0  0  0  0  0  0  0  0
   18.0598  -23.6484  -13.4500 C   0  0  0  0  0  0  0  0  0  0  0  0
   17.5360  -22.5802  -12.6997 O   0  0  0  0  0  0  0  0  0  0  0  0
   17.2153  -24.3299  -14.0947 O   0  0  0  0  0  0  0  0  0  0  0  0
  2  1  1  1
  3  2  1  0
  4  3  1  0
  5  4  1  0
  6  5  1  0
  7  6  1  0
  8  9  2  0
  8  2  1  0
 11 10  1  6
 11 13  1  0
 12 11  1  0
 13 14  1  6
 14  8  1  0
 15 13  1  0
 16 15  2  0
 18 17  1  0
 19 18  2  0
 20 18  1  0
 21 20  1  0
 21 22  1  0
 22 23  1  0
 24 23  1  1
 24 26  1  0
 24 25  1  0
 25 15  1  0
 26 27  1  0
 28 26  2  0
M  END
$$$$
