KTR.pdb
     RDKit          3D

 28 27  0  0  1  0  0  0  0  0999 V2000
   29.4625  -24.2272  -18.1915 N   0  0  0  0  0  0  0  0  0  0  0  0
   29.8832  -23.1396  -17.3298 C   0  0  1  0  0  0  0  0  0  0  0  0
   31.0457  -22.4007  -17.9501 C   0  0  0  0  0  0  0  0  0  0  0  0
   31.8384  -23.2293  -18.8940 C   0  0  0  0  0  0  0  0  0  0  0  0
   33.2881  -23.3266  -18.6115 C   0  0  0  0  0  0  0  0  0  0  0  0
   34.0763  -24.1098  -19.6188 C   0  0  0  0  0  0  0  0  0  0  0  0
   35.4525  -24.2557  -19.1700 N   0  0  0  0  0  0  0  0  0  0  0  0
   28.7298  -22.2784  -17.0703 C   0  0  0  0  0  0  0  0  0  0  0  0
   28.8577  -21.0112  -16.9414 O   0  0  0  0  0  0  0  0  0  0  0  0
   27.5973  -20.1370  -17.8119 C   0  0  0  0  0  0  0  0  0  0  0  0
   26.2625  -20.8553  -17.8153 C   0  0  1  0  0  0  0  0  0  0  0  0
   25.9599  -21.4151  -19.0288 O   0  0  0  0  0  0  0  0  0  0  0  0
   26.2709  -21.8430  -16.6648 C   0  0  2  0  0  0  0  0  0  0  0  0
   27.3873  -22.7483  -16.9390 N   0  0  0  0  0  0  0  0  0  0  0  0
   24.9955  -22.5902  -16.5489 C   0  0  0  0  0  0  0  0  0  0  0  0
   24.8558  -23.7547  -17.0143 O   0  0  0  0  0  0  0  0  0  0  0  0
   18.0173  -23.0766  -12.3340 N   0  0  0  0  0  0  0  0  0  0  0  0
   17.4664  -22.2627  -13.3657 C   0  0  0  0  0  0  0  0  0  0  0  0
   16.2165  -22.4208  -13.6696 N   0  0  0  0  0  0  0  0  0  0  0  0
   18.2306  -21.2967  -14.0621 N   0  0  0  0  0  0  0  0  0  0  0  0
   19.6462  -21.1050  -13.8360 C   0  0  0  0  0  0  0  0  0  0  0  0
   20.3973  -22.2321  -14.5390 C   0  0  0  0  0  0  0  0  0  0  0  0
   21.7437  -21.6919  -14.9220 C   0  0  0  0  0  0  0  0  0  0  0  0
   22.6365  -22.6665  -15.6281 C   0  0  2  0  0  0  0  0  0  0  0  0
   23.9089  -21.9856  -15.9018 N   0  0  0  0  0  0  0  0  0  0  0  0
   22.0390  -23.0271  -16.9297 C   0  0  0  0  0  0  0  0  0  0  0  0
   21.2214  -24.1666  -17.0362 O   0  0  0  0  0  0  0  0  0  0  0  0
   22.2073  -22.3732  -17.9962 O   0  0  0  0  0  0  0  0  0  0  0  0
  2  1  1  6
  3  2  1  0
  4  3  1  0
  5  4  1  0
  6  5  1  0
  7  6  1  0
  8  9  2  0
  8  2  1  0
 11 10  1  6
 11 13  1  0
 12 11  1  0
 13 14  1  6
 14  8  1  0
 15 13  1  0
 16 15  2  0
 18 17  1  0
 19 18  2  0
 20 18  1  0
 21 20  1  0
 21 22  1  0
 22 23  1  0
 24 23  1  6
 24 26  1  0
 24 25  1  0
 25 15  1  0
 26 27  1  0
 28 26  2  0
M  END
$$$$
