KTR.pdb
     RDKit          3D

 28 27  0  0  1  0  0  0  0  0999 V2000
   26.6360  -15.8918  -18.3998 N   0  0  0  0  0  0  0  0  0  0  0  0
   25.9097  -17.1086  -18.7063 C   0  0  1  0  0  0  0  0  0  0  0  0
   26.8383  -18.1323  -19.3161 C   0  0  0  0  0  0  0  0  0  0  0  0
   26.9407  -18.0330  -20.7944 C   0  0  0  0  0  0  0  0  0  0  0  0
   26.0036  -18.8785  -21.5677 C   0  0  0  0  0  0  0  0  0  0  0  0
   26.1323  -18.7638  -23.0575 C   0  0  0  0  0  0  0  0  0  0  0  0
   25.2658  -19.7343  -23.7085 N   0  0  0  0  0  0  0  0  0  0  0  0
   25.2577  -17.5817  -17.4855 C   0  0  0  0  0  0  0  0  0  0  0  0
   25.8749  -18.3206  -16.6418 O   0  0  0  0  0  0  0  0  0  0  0  0
   24.6188  -16.1049  -14.6523 C   0  0  0  0  0  0  0  0  0  0  0  0
   23.2082  -16.5545  -14.9772 C   0  0  1  0  0  0  0  0  0  0  0  0
   22.4291  -15.5468  -15.4825 O   0  0  0  0  0  0  0  0  0  0  0  0
   23.3106  -17.7678  -15.8810 C   0  0  2  0  0  0  0  0  0  0  0  0
   23.9103  -17.2771  -17.1223 N   0  0  0  0  0  0  0  0  0  0  0  0
   21.9929  -18.3967  -16.1384 C   0  0  0  0  0  0  0  0  0  0  0  0
   21.3272  -18.1556  -17.1829 O   0  0  0  0  0  0  0  0  0  0  0  0
   18.7828  -24.1964  -10.4877 N   0  0  0  0  0  0  0  0  0  0  0  0
   18.1288  -22.9446  -10.6762 C   0  0  0  0  0  0  0  0  0  0  0  0
   17.4092  -22.4766   -9.7052 N   0  0  0  0  0  0  0  0  0  0  0  0
   18.2382  -22.2024  -11.8760 N   0  0  0  0  0  0  0  0  0  0  0  0
   18.8505  -22.7338  -13.0737 C   0  0  0  0  0  0  0  0  0  0  0  0
   18.7335  -21.6830  -14.1743 C   0  0  0  0  0  0  0  0  0  0  0  0
   20.0407  -20.9481  -14.2217 C   0  0  0  0  0  0  0  0  0  0  0  0
   20.1484  -19.9230  -15.3096 C   0  0  2  0  0  0  0  0  0  0  0  0
   21.4680  -19.2882  -15.1926 N   0  0  0  0  0  0  0  0  0  0  0  0
   19.1321  -18.8725  -15.0980 C   0  0  0  0  0  0  0  0  0  0  0  0
   17.8991  -18.9419  -15.7711 O   0  0  0  0  0  0  0  0  0  0  0  0
   19.2832  -17.8790  -14.3343 O   0  0  0  0  0  0  0  0  0  0  0  0
  2  1  1  1
  3  2  1  0
  4  3  1  0
  5  4  1  0
  6  5  1  0
  7  6  1  0
  8  9  2  0
  8  2  1  0
 11 10  1  6
 11 13  1  0
 12 11  1  0
 13 14  1  6
 14  8  1  0
 15 13  1  0
 16 15  2  0
 18 17  1  0
 19 18  2  0
 20 18  1  0
 21 20  1  0
 21 22  1  0
 22 23  1  0
 24 23  1  1
 24 26  1  0
 24 25  1  0
 25 15  1  0
 26 27  1  0
 28 26  2  0
M  END
$$$$
