KTR.pdb
     RDKit          3D

 28 27  0  0  1  0  0  0  0  0999 V2000
   19.3843  -24.3116   -9.5229 N   0  0  0  0  0  0  0  0  0  0  0  0
   18.1891  -25.0325   -9.1303 C   0  0  1  0  0  0  0  0  0  0  0  0
   18.1617  -26.3944   -9.7833 C   0  0  0  0  0  0  0  0  0  0  0  0
   19.3147  -26.6418  -10.6862 C   0  0  0  0  0  0  0  0  0  0  0  0
   20.0596  -27.9002  -10.4571 C   0  0  0  0  0  0  0  0  0  0  0  0
   19.8457  -28.9588  -11.4977 C   0  0  0  0  0  0  0  0  0  0  0  0
   20.6993  -30.1049  -11.2251 N   0  0  0  0  0  0  0  0  0  0  0  0
   18.1426  -25.0963   -7.6698 C   0  0  0  0  0  0  0  0  0  0  0  0
   19.2023  -24.9762   -6.9617 O   0  0  0  0  0  0  0  0  0  0  0  0
   15.5177  -24.4455   -3.6032 C   0  0  0  0  0  0  0  0  0  0  0  0
   15.6856  -24.4104   -5.1093 C   0  0  1  0  0  0  0  0  0  0  0  0
   15.6744  -23.1384   -5.6188 O   0  0  0  0  0  0  0  0  0  0  0  0
   16.9343  -25.2006   -5.4496 C   0  0  2  0  0  0  0  0  0  0  0  0
   16.9491  -25.2923   -6.9099 N   0  0  0  0  0  0  0  0  0  0  0  0
   16.9392  -26.5482   -4.8313 C   0  0  0  0  0  0  0  0  0  0  0  0
   16.1070  -27.4388   -5.1573 O   0  0  0  0  0  0  0  0  0  0  0  0
   21.3759  -32.8027   -4.5911 N   0  0  0  0  0  0  0  0  0  0  0  0
   20.7093  -32.9843   -3.3449 C   0  0  0  0  0  0  0  0  0  0  0  0
   20.5424  -34.1935   -2.9095 N   0  0  0  0  0  0  0  0  0  0  0  0
   20.2289  -31.8993   -2.5742 N   0  0  0  0  0  0  0  0  0  0  0  0
   20.0380  -30.5735   -3.1199 C   0  0  0  0  0  0  0  0  0  0  0  0
   19.5760  -29.6562   -1.9912 C   0  0  0  0  0  0  0  0  0  0  0  0
   19.3183  -28.3081   -2.5973 C   0  0  0  0  0  0  0  0  0  0  0  0
   17.9138  -28.0880   -3.0712 C   0  0  2  0  0  0  0  0  0  0  0  0
   17.8986  -26.8446   -3.8532 N   0  0  0  0  0  0  0  0  0  0  0  0
   17.0273  -27.8889   -1.9069 C   0  0  0  0  0  0  0  0  0  0  0  0
   16.3046  -28.9745   -1.3801 O   0  0  0  0  0  0  0  0  0  0  0  0
   16.8570  -26.7833   -1.3223 O   0  0  0  0  0  0  0  0  0  0  0  0
  2  1  1  1
  3  2  1  0
  4  3  1  0
  5  4  1  0
  6  5  1  0
  7  6  1  0
  8  9  2  0
  8  2  1  0
 11 10  1  1
 11 13  1  0
 12 11  1  0
 13 14  1  6
 14  8  1  0
 15 13  1  0
 16 15  2  0
 18 17  1  0
 19 18  2  0
 20 18  1  0
 21 20  1  0
 21 22  1  0
 22 23  1  0
 24 23  1  1
 24 26  1  0
 24 25  1  0
 25 15  1  0
 26 27  1  0
 28 26  2  0
M  END
$$$$
