KTR.pdb
     RDKit          3D

 28 27  0  0  1  0  0  0  0  0999 V2000
   25.4981  -20.1151  -15.7641 N   0  0  0  0  0  0  0  0  0  0  0  0
   24.5466  -21.2066  -15.6896 C   0  0  1  0  0  0  0  0  0  0  0  0
   25.2680  -22.5147  -15.4649 C   0  0  0  0  0  0  0  0  0  0  0  0
   25.6126  -23.2249  -16.7230 C   0  0  0  0  0  0  0  0  0  0  0  0
   26.4379  -24.4446  -16.5741 C   0  0  0  0  0  0  0  0  0  0  0  0
   26.7911  -25.1289  -17.8611 C   0  0  0  0  0  0  0  0  0  0  0  0
   27.5916  -26.3135  -17.5919 N   0  0  0  0  0  0  0  0  0  0  0  0
   23.5710  -20.9032  -14.6430 C   0  0  0  0  0  0  0  0  0  0  0  0
   23.7505  -19.9376  -13.8219 O   0  0  0  0  0  0  0  0  0  0  0  0
   22.1588  -18.9082  -13.8757 C   0  0  0  0  0  0  0  0  0  0  0  0
   20.9332  -19.7955  -13.9660 C   0  0  1  0  0  0  0  0  0  0  0  0
   20.3493  -19.7761  -15.2055 O   0  0  0  0  0  0  0  0  0  0  0  0
   21.3340  -21.1798  -13.4942 C   0  0  2  0  0  0  0  0  0  0  0  0
   22.3583  -21.6294  -14.4375 N   0  0  0  0  0  0  0  0  0  0  0  0
   20.1896  -22.1218  -13.4617 C   0  0  0  0  0  0  0  0  0  0  0  0
   19.8536  -22.8039  -14.4687 O   0  0  0  0  0  0  0  0  0  0  0  0
   18.9378  -24.7184   -6.6488 N   0  0  0  0  0  0  0  0  0  0  0  0
   17.6052  -24.2675   -6.8753 C   0  0  0  0  0  0  0  0  0  0  0  0
   16.7659  -24.3157   -5.8890 N   0  0  0  0  0  0  0  0  0  0  0  0
   17.1723  -23.7731   -8.1284 N   0  0  0  0  0  0  0  0  0  0  0  0
   16.8656  -24.6356   -9.2481 C   0  0  0  0  0  0  0  0  0  0  0  0
   16.5130  -23.7556  -10.4441 C   0  0  0  0  0  0  0  0  0  0  0  0
   17.7286  -22.9347  -10.7599 C   0  0  0  0  0  0  0  0  0  0  0  0
   18.3032  -23.1588  -12.1257 C   0  0  2  0  0  0  0  0  0  0  0  0
   19.4562  -22.2610  -12.2752 N   0  0  0  0  0  0  0  0  0  0  0  0
   17.3081  -22.7743  -13.1471 C   0  0  0  0  0  0  0  0  0  0  0  0
   16.5569  -23.7652  -13.8044 O   0  0  0  0  0  0  0  0  0  0  0  0
   17.0660  -21.5849  -13.4933 O   0  0  0  0  0  0  0  0  0  0  0  0
  2  1  1  1
  3  2  1  0
  4  3  1  0
  5  4  1  0
  6  5  1  0
  7  6  1  0
  8  9  2  0
  8  2  1  0
 11 10  1  6
 11 13  1  0
 12 11  1  0
 13 14  1  6
 14  8  1  0
 15 13  1  0
 16 15  2  0
 18 17  1  0
 19 18  2  0
 20 18  1  0
 21 20  1  0
 21 22  1  0
 22 23  1  0
 24 23  1  1
 24 26  1  0
 24 25  1  0
 25 15  1  0
 26 27  1  0
 28 26  2  0
M  END
$$$$
