KTR.pdb
     RDKit          3D

 28 27  0  0  1  0  0  0  0  0999 V2000
   27.9317  -18.3706  -19.2367 N   0  0  0  0  0  0  0  0  0  0  0  0
   26.7448  -17.9292  -18.5306 C   0  0  1  0  0  0  0  0  0  0  0  0
   25.7885  -17.2549  -19.4861 C   0  0  0  0  0  0  0  0  0  0  0  0
   26.3515  -16.0400  -20.1288 C   0  0  0  0  0  0  0  0  0  0  0  0
   25.4760  -15.3604  -21.1098 C   0  0  0  0  0  0  0  0  0  0  0  0
   26.0169  -14.0708  -21.6518 C   0  0  0  0  0  0  0  0  0  0  0  0
   25.0644  -13.4824  -22.5808 N   0  0  0  0  0  0  0  0  0  0  0  0
   26.1552  -19.0796  -17.8465 C   0  0  0  0  0  0  0  0  0  0  0  0
   26.1237  -20.2372  -18.3919 O   0  0  0  0  0  0  0  0  0  0  0  0
   27.1774  -20.4726  -14.7833 C   0  0  0  0  0  0  0  0  0  0  0  0
   25.6914  -20.2953  -14.5422 C   0  0  1  0  0  0  0  0  0  0  0  0
   25.4063  -19.2413  -13.7142 O   0  0  0  0  0  0  0  0  0  0  0  0
   25.0137  -20.2173  -15.8964 C   0  0  2  0  0  0  0  0  0  0  0  0
   25.5739  -19.0300  -16.5427 N   0  0  0  0  0  0  0  0  0  0  0  0
   23.5383  -20.1184  -15.7878 C   0  0  0  0  0  0  0  0  0  0  0  0
   22.9326  -19.0141  -15.8653 O   0  0  0  0  0  0  0  0  0  0  0  0
   17.9702  -27.1601  -14.9444 N   0  0  0  0  0  0  0  0  0  0  0  0
   17.1906  -25.9677  -14.9710 C   0  0  0  0  0  0  0  0  0  0  0  0
   15.9005  -26.0799  -15.0240 N   0  0  0  0  0  0  0  0  0  0  0  0
   17.7720  -24.6781  -14.9412 N   0  0  0  0  0  0  0  0  0  0  0  0
   19.1859  -24.4504  -15.1435 C   0  0  0  0  0  0  0  0  0  0  0  0
   19.4178  -22.9446  -15.2309 C   0  0  0  0  0  0  0  0  0  0  0  0
   20.8911  -22.7367  -15.4236 C   0  0  0  0  0  0  0  0  0  0  0  0
   21.3349  -21.3056  -15.3950 C   0  0  2  0  0  0  0  0  0  0  0  0
   22.7903  -21.2878  -15.5931 N   0  0  0  0  0  0  0  0  0  0  0  0
   21.0632  -20.7329  -14.0610 C   0  0  0  0  0  0  0  0  0  0  0  0
   19.8720  -20.0213  -13.8310 O   0  0  0  0  0  0  0  0  0  0  0  0
   21.8407  -20.8322  -13.0716 O   0  0  0  0  0  0  0  0  0  0  0  0
  2  1  1  6
  3  2  1  0
  4  3  1  0
  5  4  1  0
  6  5  1  0
  7  6  1  0
  8  9  2  0
  8  2  1  0
 11 10  1  6
 11 13  1  0
 12 11  1  0
 13 14  1  1
 14  8  1  0
 15 13  1  0
 16 15  2  0
 18 17  1  0
 19 18  2  0
 20 18  1  0
 21 20  1  0
 21 22  1  0
 22 23  1  0
 24 23  1  1
 24 26  1  0
 24 25  1  0
 25 15  1  0
 26 27  1  0
 28 26  2  0
M  END
$$$$
