FHD.pdb
     RDKit          3D

 30 31  0  0  1  0  0  0  0  0999 V2000
    7.8244  -15.5091   25.3619 N   0  0  0  0  0  0  0  0  0  0  0  0
    6.8556  -15.8102   24.3071 C   0  0  1  0  0  0  0  0  0  0  0  0
    5.9086  -14.6359   24.2542 C   0  0  0  0  0  0  0  0  0  0  0  0
    6.4377  -13.5932   25.1719 C   0  0  0  0  0  0  0  0  0  0  0  0
    6.2833  -12.2459   24.9290 C   0  0  0  0  0  0  0  0  0  0  0  0
    6.7922  -11.2981   25.8099 C   0  0  0  0  0  0  0  0  0  0  0  0
    7.4674  -11.6755   26.9546 C   0  0  0  0  0  0  0  0  0  0  0  0
    7.6277  -13.0180   27.2077 C   0  0  0  0  0  0  0  0  0  0  0  0
    7.1206  -13.9522   26.3299 C   0  0  0  0  0  0  0  0  0  0  0  0
    7.6190  -15.9804   23.0542 C   0  0  0  0  0  0  0  0  0  0  0  0
    7.0538  -16.1670   21.9267 O   0  0  0  0  0  0  0  0  0  0  0  0
    9.0324  -15.9546   22.9767 N   0  0  0  0  0  0  0  0  0  0  0  0
    9.8016  -16.1478   21.7923 C   0  0  1  0  0  0  0  0  0  0  0  0
   10.1917  -14.9272   21.0509 C   0  0  0  0  0  0  0  0  0  0  0  0
    8.9403  -14.2399   20.6087 C   0  0  0  0  0  0  0  0  0  0  0  0
    7.9595  -14.7337   19.7571 C   0  0  0  0  0  0  0  0  0  0  0  0
    6.9878  -13.8470   19.5885 N   0  0  0  0  0  0  0  0  0  0  0  0
    7.3173  -12.7702   20.3215 C   0  0  0  0  0  0  0  0  0  0  0  0
    8.5052  -13.0091   20.9420 N   0  0  0  0  0  0  0  0  0  0  0  0
   10.9091  -17.0756   22.0933 C   0  0  0  0  0  0  0  0  0  0  0  0
   11.9384  -17.1091   21.3696 O   0  0  0  0  0  0  0  0  0  0  0  0
   10.8963  -17.9893   23.2094 N   0  0  0  0  0  0  0  0  0  0  0  0
   12.0052  -18.1564   24.0937 C   0  0  1  0  0  0  0  0  0  0  0  0
   12.7864  -16.8624   24.1703 C   0  0  0  0  0  0  0  0  0  0  0  0
   14.1829  -17.0152   23.7542 C   0  0  0  0  0  0  0  0  0  0  0  0
   14.5625  -18.0351   23.1430 O   0  0  0  0  0  0  0  0  0  0  0  0
   11.6451  -18.6852   25.4097 C   0  0  0  0  0  0  0  0  0  0  0  0
   10.5210  -18.4777   25.9455 O   0  0  0  0  0  0  0  0  0  0  0  0
   15.1009  -16.0265   24.0351 O   0  0  0  0  0  0  0  0  0  0  0  0
   12.5373  -19.4546   26.1466 O   0  0  0  0  0  0  0  0  0  0  0  0
  2  1  1  1
  2 10  1  0
  3  2  1  0
  3  4  1  0
  4  5  2  0
  4  9  1  0
  5  6  1  0
  6  7  2  0
  8  7  1  0
  9  8  2  0
 10 11  2  0
 12 10  1  0
 12 13  1  0
 13 20  1  0
 13 14  1  1
 14 15  1  0
 15 16  2  0
 16 17  1  0
 18 17  1  0
 19 15  1  0
 19 18  2  0
 20 21  2  0
 22 23  1  0
 22 20  1  0
 23 27  1  0
 23 24  1  1
 25 24  1  0
 25 29  1  0
 26 25  2  0
 27 28  2  0
 27 30  1  0
M  END
$$$$
