FHD.pdb
     RDKit          3D

 30 31  0  0  1  0  0  0  0  0999 V2000
    9.7015  -14.8724   22.7224 N   0  0  0  0  0  0  0  0  0  0  0  0
    8.7645  -15.9781   22.5186 C   0  0  1  0  0  0  0  0  0  0  0  0
    7.4202  -15.3487   22.2442 C   0  0  0  0  0  0  0  0  0  0  0  0
    7.2183  -14.2705   23.2471 C   0  0  0  0  0  0  0  0  0  0  0  0
    7.2931  -12.9338   22.9219 C   0  0  0  0  0  0  0  0  0  0  0  0
    7.0989  -11.9517   23.8869 C   0  0  0  0  0  0  0  0  0  0  0  0
    6.8253  -12.2834   25.1998 C   0  0  0  0  0  0  0  0  0  0  0  0
    6.7482  -13.6149   25.5364 C   0  0  0  0  0  0  0  0  0  0  0  0
    6.9419  -14.5832   24.5744 C   0  0  0  0  0  0  0  0  0  0  0  0
    9.2666  -16.7654   21.3743 C   0  0  0  0  0  0  0  0  0  0  0  0
    8.6859  -17.8228   20.9618 O   0  0  0  0  0  0  0  0  0  0  0  0
   10.4243  -16.4336   20.6300 N   0  0  0  0  0  0  0  0  0  0  0  0
   10.9453  -17.1774   19.5313 C   0  0  1  0  0  0  0  0  0  0  0  0
   10.8142  -16.5588   18.1928 C   0  0  0  0  0  0  0  0  0  0  0  0
    9.3567  -16.4362   17.8852 C   0  0  0  0  0  0  0  0  0  0  0  0
    8.3536  -17.3579   18.1594 C   0  0  0  0  0  0  0  0  0  0  0  0
    7.1748  -16.9130   17.7456 N   0  0  0  0  0  0  0  0  0  0  0  0
    7.3892  -15.7042   17.1995 C   0  0  0  0  0  0  0  0  0  0  0  0
    8.7166  -15.4141   17.2843 N   0  0  0  0  0  0  0  0  0  0  0  0
   12.3041  -17.6398   19.8745 C   0  0  0  0  0  0  0  0  0  0  0  0
   12.8999  -18.4841   19.1558 O   0  0  0  0  0  0  0  0  0  0  0  0
   13.0328  -17.1715   21.0279 N   0  0  0  0  0  0  0  0  0  0  0  0
   14.3363  -17.6429   21.3716 C   0  0  1  0  0  0  0  0  0  0  0  0
   15.3325  -16.5120   21.2331 C   0  0  0  0  0  0  0  0  0  0  0  0
   15.3537  -15.9338   19.8870 C   0  0  0  0  0  0  0  0  0  0  0  0
   15.6061  -16.6400   18.8892 O   0  0  0  0  0  0  0  0  0  0  0  0
   14.4064  -18.3100   22.6721 C   0  0  0  0  0  0  0  0  0  0  0  0
   13.4067  -18.4297   23.4337 O   0  0  0  0  0  0  0  0  0  0  0  0
   15.0932  -14.5929   19.7055 O   0  0  0  0  0  0  0  0  0  0  0  0
   15.5963  -18.8538   23.1406 O   0  0  0  0  0  0  0  0  0  0  0  0
  2  1  1  6
  2 10  1  0
  3  2  1  0
  3  4  1  0
  4  5  2  0
  4  9  1  0
  5  6  1  0
  6  7  2  0
  8  7  1  0
  9  8  2  0
 10 11  2  0
 12 10  1  0
 12 13  1  0
 13 20  1  0
 13 14  1  6
 14 15  1  0
 15 16  2  0
 16 17  1  0
 18 17  1  0
 19 15  1  0
 19 18  2  0
 20 21  2  0
 22 23  1  0
 22 20  1  0
 23 27  1  0
 23 24  1  1
 25 24  1  0
 25 29  1  0
 26 25  2  0
 27 28  2  0
 27 30  1  0
M  END
$$$$
