FHD.pdb
     RDKit          3D

 30 31  0  0  1  0  0  0  0  0999 V2000
    6.6922  -14.3980   22.4780 N   0  0  0  0  0  0  0  0  0  0  0  0
    8.1344  -14.6348   22.5540 C   0  0  1  0  0  0  0  0  0  0  0  0
    8.7386  -13.3830   23.1424 C   0  0  0  0  0  0  0  0  0  0  0  0
    8.0017  -13.0778   24.3967 C   0  0  0  0  0  0  0  0  0  0  0  0
    8.6406  -12.8811   25.6014 C   0  0  0  0  0  0  0  0  0  0  0  0
    7.9184  -12.5976   26.7552 C   0  0  0  0  0  0  0  0  0  0  0  0
    6.5402  -12.5041   26.7314 C   0  0  0  0  0  0  0  0  0  0  0  0
    5.8913  -12.6986   25.5343 C   0  0  0  0  0  0  0  0  0  0  0  0
    6.6137  -12.9794   24.3942 C   0  0  0  0  0  0  0  0  0  0  0  0
    8.3337  -15.8192   23.4138 C   0  0  0  0  0  0  0  0  0  0  0  0
    7.4016  -16.3099   24.1321 O   0  0  0  0  0  0  0  0  0  0  0  0
    9.5587  -16.5198   23.5276 N   0  0  0  0  0  0  0  0  0  0  0  0
    9.7582  -17.7282   24.2567 C   0  0  1  0  0  0  0  0  0  0  0  0
    9.8110  -18.9774   23.4641 C   0  0  0  0  0  0  0  0  0  0  0  0
   10.6128  -18.7053   22.2325 C   0  0  0  0  0  0  0  0  0  0  0  0
   11.2441  -17.5189   21.8787 C   0  0  0  0  0  0  0  0  0  0  0  0
   11.8667  -17.6420   20.7142 N   0  0  0  0  0  0  0  0  0  0  0  0
   11.6527  -18.9002   20.2940 C   0  0  0  0  0  0  0  0  0  0  0  0
   10.8898  -19.5470   21.2175 N   0  0  0  0  0  0  0  0  0  0  0  0
   10.8822  -17.5359   25.1935 C   0  0  0  0  0  0  0  0  0  0  0  0
   11.6858  -16.5777   25.0502 O   0  0  0  0  0  0  0  0  0  0  0  0
   11.1379  -18.4074   26.3140 N   0  0  0  0  0  0  0  0  0  0  0  0
   12.2166  -18.2070   27.2282 C   0  0  1  0  0  0  0  0  0  0  0  0
   11.8214  -17.1635   28.2508 C   0  0  0  0  0  0  0  0  0  0  0  0
   10.8684  -17.6700   29.2417 C   0  0  0  0  0  0  0  0  0  0  0  0
    9.7419  -18.0818   28.8965 O   0  0  0  0  0  0  0  0  0  0  0  0
   12.7220  -19.4389   27.8349 C   0  0  0  0  0  0  0  0  0  0  0  0
   12.1577  -20.5578   27.6816 O   0  0  0  0  0  0  0  0  0  0  0  0
   11.2075  -17.6976   30.5771 O   0  0  0  0  0  0  0  0  0  0  0  0
   13.8669  -19.4380   28.6225 O   0  0  0  0  0  0  0  0  0  0  0  0
  2  1  1  1
  2 10  1  0
  3  2  1  0
  3  4  1  0
  4  5  2  0
  4  9  1  0
  5  6  1  0
  6  7  2  0
  8  7  1  0
  9  8  2  0
 10 11  2  0
 12 10  1  0
 12 13  1  0
 13 20  1  0
 13 14  1  6
 14 15  1  0
 15 16  2  0
 16 17  1  0
 18 17  1  0
 19 15  1  0
 19 18  2  0
 20 21  2  0
 22 23  1  0
 22 20  1  0
 23 27  1  0
 23 24  1  1
 25 24  1  0
 25 29  1  0
 26 25  2  0
 27 28  2  0
 27 30  1  0
M  END
$$$$
