FHD.pdb
     RDKit          3D

 30 31  0  0  1  0  0  0  0  0999 V2000
    5.5880  -17.0157   24.3350 N   0  0  0  0  0  0  0  0  0  0  0  0
    6.4665  -15.8500   24.4413 C   0  0  1  0  0  0  0  0  0  0  0  0
    6.6909  -15.6220   25.9164 C   0  0  0  0  0  0  0  0  0  0  0  0
    6.7610  -14.1536   26.1362 C   0  0  0  0  0  0  0  0  0  0  0  0
    7.8441  -13.3975   25.7446 C   0  0  0  0  0  0  0  0  0  0  0  0
    7.8755  -12.0253   25.9670 C   0  0  0  0  0  0  0  0  0  0  0  0
    6.8242  -11.3770   26.5861 C   0  0  0  0  0  0  0  0  0  0  0  0
    5.7373  -12.1215   26.9814 C   0  0  0  0  0  0  0  0  0  0  0  0
    5.7131  -13.4816   26.7578 C   0  0  0  0  0  0  0  0  0  0  0  0
    7.7135  -16.1810   23.7223 C   0  0  0  0  0  0  0  0  0  0  0  0
    8.2311  -17.3459   23.7472 O   0  0  0  0  0  0  0  0  0  0  0  0
    8.4505  -15.2555   22.9447 N   0  0  0  0  0  0  0  0  0  0  0  0
    9.6166  -15.5562   22.1821 C   0  0  1  0  0  0  0  0  0  0  0  0
   10.0208  -14.5547   21.1696 C   0  0  0  0  0  0  0  0  0  0  0  0
    8.9112  -14.4343   20.1755 C   0  0  0  0  0  0  0  0  0  0  0  0
    8.0271  -15.4268   19.7700 C   0  0  0  0  0  0  0  0  0  0  0  0
    7.1701  -14.9603   18.8718 N   0  0  0  0  0  0  0  0  0  0  0  0
    7.4796  -13.6670   18.6793 C   0  0  0  0  0  0  0  0  0  0  0  0
    8.5389  -13.3470   19.4723 N   0  0  0  0  0  0  0  0  0  0  0  0
   10.6888  -15.9793   23.1038 C   0  0  0  0  0  0  0  0  0  0  0  0
   11.0545  -15.2380   24.0530 O   0  0  0  0  0  0  0  0  0  0  0  0
   11.3799  -17.2402   22.9898 N   0  0  0  0  0  0  0  0  0  0  0  0
   12.4290  -17.6377   23.8735 C   0  0  1  0  0  0  0  0  0  0  0  0
   12.2625  -19.1002   24.2256 C   0  0  0  0  0  0  0  0  0  0  0  0
   13.3214  -19.5974   25.1077 C   0  0  0  0  0  0  0  0  0  0  0  0
   14.2024  -20.3711   24.6797 O   0  0  0  0  0  0  0  0  0  0  0  0
   13.7719  -17.3159   23.3892 C   0  0  0  0  0  0  0  0  0  0  0  0
   14.0476  -17.2051   22.1623 O   0  0  0  0  0  0  0  0  0  0  0  0
   13.3572  -19.2136   26.4308 O   0  0  0  0  0  0  0  0  0  0  0  0
   14.8270  -17.1129   24.2705 O   0  0  0  0  0  0  0  0  0  0  0  0
  2  1  1  1
  2 10  1  0
  3  2  1  0
  3  4  1  0
  4  5  2  0
  4  9  1  0
  5  6  1  0
  6  7  2  0
  8  7  1  0
  9  8  2  0
 10 11  2  0
 12 10  1  0
 12 13  1  0
 13 20  1  0
 13 14  1  1
 14 15  1  0
 15 16  2  0
 16 17  1  0
 18 17  1  0
 19 15  1  0
 19 18  2  0
 20 21  2  0
 22 23  1  0
 22 20  1  0
 23 27  1  0
 23 24  1  6
 25 24  1  0
 25 29  1  0
 26 25  2  0
 27 28  2  0
 27 30  1  0
M  END
$$$$
