FHD.pdb
     RDKit          3D

 30 31  0  0  1  0  0  0  0  0999 V2000
    8.4400  -14.8064   25.0910 N   0  0  0  0  0  0  0  0  0  0  0  0
    7.3529  -15.2336   24.2092 C   0  0  1  0  0  0  0  0  0  0  0  0
    6.4206  -14.0530   24.0839 C   0  0  0  0  0  0  0  0  0  0  0  0
    6.6302  -13.1895   25.2753 C   0  0  0  0  0  0  0  0  0  0  0  0
    7.4539  -12.0852   25.2535 C   0  0  0  0  0  0  0  0  0  0  0  0
    7.6265  -11.3001   26.3880 C   0  0  0  0  0  0  0  0  0  0  0  0
    6.9794  -11.6008   27.5710 C   0  0  0  0  0  0  0  0  0  0  0  0
    6.1545  -12.7009   27.6049 C   0  0  0  0  0  0  0  0  0  0  0  0
    5.9880  -13.4749   26.4763 C   0  0  0  0  0  0  0  0  0  0  0  0
    7.9652  -15.6124   22.9196 C   0  0  0  0  0  0  0  0  0  0  0  0
    7.3000  -16.1569   21.9781 O   0  0  0  0  0  0  0  0  0  0  0  0
    9.3302  -15.4137   22.6009 N   0  0  0  0  0  0  0  0  0  0  0  0
    9.9756  -15.8522   21.4080 C   0  0  1  0  0  0  0  0  0  0  0  0
   10.2382  -14.8194   20.3805 C   0  0  0  0  0  0  0  0  0  0  0  0
    8.9351  -14.1732   20.0365 C   0  0  0  0  0  0  0  0  0  0  0  0
    8.5456  -12.8644   20.2938 C   0  0  0  0  0  0  0  0  0  0  0  0
    7.3185  -12.6378   19.8447 N   0  0  0  0  0  0  0  0  0  0  0  0
    6.8923  -13.7860   19.2921 C   0  0  0  0  0  0  0  0  0  0  0  0
    7.8757  -14.7202   19.4088 N   0  0  0  0  0  0  0  0  0  0  0  0
   11.1431  -16.6762   21.7768 C   0  0  0  0  0  0  0  0  0  0  0  0
   11.8380  -17.2437   20.8940 O   0  0  0  0  0  0  0  0  0  0  0  0
   11.5649  -16.8877   23.1399 N   0  0  0  0  0  0  0  0  0  0  0  0
   12.8702  -17.3490   23.4901 C   0  0  1  0  0  0  0  0  0  0  0  0
   13.8735  -16.2389   23.2627 C   0  0  0  0  0  0  0  0  0  0  0  0
   15.2553  -16.7228   23.2082 C   0  0  0  0  0  0  0  0  0  0  0  0
   15.5468  -17.7627   22.5825 O   0  0  0  0  0  0  0  0  0  0  0  0
   12.9580  -17.9331   24.8289 C   0  0  0  0  0  0  0  0  0  0  0  0
   12.0151  -17.8690   25.6658 O   0  0  0  0  0  0  0  0  0  0  0  0
   16.2572  -16.0299   23.8524 O   0  0  0  0  0  0  0  0  0  0  0  0
   14.1025  -18.5982   25.2520 O   0  0  0  0  0  0  0  0  0  0  0  0
  2  1  1  1
  2 10  1  0
  3  2  1  0
  3  4  1  0
  4  5  2  0
  4  9  1  0
  5  6  1  0
  6  7  2  0
  8  7  1  0
  9  8  2  0
 10 11  2  0
 12 10  1  0
 12 13  1  0
 13 20  1  0
 13 14  1  1
 14 15  1  0
 15 16  2  0
 16 17  1  0
 18 17  1  0
 19 15  1  0
 19 18  2  0
 20 21  2  0
 22 23  1  0
 22 20  1  0
 23 27  1  0
 23 24  1  1
 25 24  1  0
 25 29  1  0
 26 25  2  0
 27 28  2  0
 27 30  1  0
M  END
$$$$
