LVF.pdb
     RDKit          3D

 27 27  0  0  1  0  0  0  0  0999 V2000
   28.4204  -15.0054  -15.9303 C   0  0  0  0  0  0  0  0  0  0  0  0
   27.8607  -16.4274  -16.1530 C   0  0  1  0  0  0  0  0  0  0  0  0
   29.0628  -17.3087  -16.4121 C   0  0  0  0  0  0  0  0  0  0  0  0
   27.0355  -16.8263  -14.9704 C   0  0  0  0  0  0  0  0  0  0  0  0
   26.7242  -18.2485  -14.7747 C   0  0  2  0  0  0  0  0  0  0  0  0
   25.9312  -18.7183  -15.9725 N   0  0  0  0  0  0  0  0  0  0  0  0
   26.0026  -18.6963  -13.5977 C   0  0  0  0  0  0  0  0  0  0  0  0
   25.0863  -17.9890  -13.1189 O   0  0  0  0  0  0  0  0  0  0  0  0
   23.7241  -21.3815  -13.3172 C   0  0  0  0  0  0  0  0  0  0  0  0
   24.6834  -21.6289  -12.2005 C   0  0  1  0  0  0  0  0  0  0  0  0
   25.6510  -22.7434  -12.4541 C   0  0  0  0  0  0  0  0  0  0  0  0
   25.4691  -20.3973  -11.8021 C   0  0  2  0  0  0  0  0  0  0  0  0
   26.2491  -19.9186  -12.9050 N   0  0  0  0  0  0  0  0  0  0  0  0
   26.2737  -20.6167  -10.5759 C   0  0  0  0  0  0  0  0  0  0  0  0
   27.5163  -20.8042  -10.6509 O   0  0  0  0  0  0  0  0  0  0  0  0
   25.7059  -20.6287   -9.2729 N   0  0  0  0  0  0  0  0  0  0  0  0
   26.4880  -20.9561   -8.0793 C   0  0  1  0  0  0  0  0  0  0  0  0
   27.6715  -20.0578   -7.9832 C   0  0  0  0  0  0  0  0  0  0  0  0
   28.1837  -19.9091   -6.6286 C   0  0  0  0  0  0  0  0  0  0  0  0
   27.7623  -18.8437   -5.8414 C   0  0  0  0  0  0  0  0  0  0  0  0
   28.2135  -18.6549   -4.5443 C   0  0  0  0  0  0  0  0  0  0  0  0
   29.1104  -19.5453   -4.0035 C   0  0  0  0  0  0  0  0  0  0  0  0
   29.5562  -20.6155   -4.7454 C   0  0  0  0  0  0  0  0  0  0  0  0
   29.0828  -20.7668   -6.0306 C   0  0  0  0  0  0  0  0  0  0  0  0
   25.6373  -20.8669   -6.8955 C   0  0  0  0  0  0  0  0  0  0  0  0
   25.9415  -21.3569   -5.7685 O   0  0  0  0  0  0  0  0  0  0  0  0
   24.4118  -20.2061   -6.9911 O   0  0  0  0  0  0  0  0  0  0  0  0
  2  3  1  1
  2  1  1  0
  4  2  1  0
  5  7  1  0
  5  4  1  0
  5  6  1  6
  7  8  2  0
  7 13  1  0
 10  9  1  6
 10 12  1  0
 11 10  1  0
 12 14  1  0
 12 13  1  6
 14 15  2  0
 14 16  1  0
 16 17  1  0
 17 25  1  0
 17 18  1  1
 19 18  1  0
 19 20  2  0
 21 20  1  0
 22 21  2  0
 23 24  2  0
 23 22  1  0
 24 19  1  0
 25 27  1  0
 26 25  2  0
M  END
$$$$
