LVF.pdb
     RDKit          3D

 27 27  0  0  1  0  0  0  0  0999 V2000
   28.5092  -18.3083  -19.5623 C   0  0  0  0  0  0  0  0  0  0  0  0
   27.7180  -19.5246  -19.0334 C   0  0  1  0  0  0  0  0  0  0  0  0
   28.7458  -20.4528  -18.4241 C   0  0  0  0  0  0  0  0  0  0  0  0
   26.6599  -19.0541  -18.0861 C   0  0  0  0  0  0  0  0  0  0  0  0
   25.9018  -20.0538  -17.3220 C   0  0  2  0  0  0  0  0  0  0  0  0
   24.8983  -20.6884  -18.2571 N   0  0  0  0  0  0  0  0  0  0  0  0
   25.1732  -19.6781  -16.1244 C   0  0  0  0  0  0  0  0  0  0  0  0
   24.8136  -18.4897  -15.9577 O   0  0  0  0  0  0  0  0  0  0  0  0
   22.3063  -21.3780  -15.3597 C   0  0  0  0  0  0  0  0  0  0  0  0
   22.5476  -20.4436  -14.2209 C   0  0  1  0  0  0  0  0  0  0  0  0
   21.8790  -20.8441  -12.9421 C   0  0  0  0  0  0  0  0  0  0  0  0
   24.0170  -20.2113  -13.9378 C   0  0  2  0  0  0  0  0  0  0  0  0
   24.8123  -20.5729  -15.0738 N   0  0  0  0  0  0  0  0  0  0  0  0
   24.4594  -20.8734  -12.6868 C   0  0  0  0  0  0  0  0  0  0  0  0
   24.5295  -22.1284  -12.6173 O   0  0  0  0  0  0  0  0  0  0  0  0
   24.8226  -20.1501  -11.5184 N   0  0  0  0  0  0  0  0  0  0  0  0
   25.2030  -20.8151  -10.2707 C   0  0  1  0  0  0  0  0  0  0  0  0
   26.4430  -20.1996   -9.7226 C   0  0  0  0  0  0  0  0  0  0  0  0
   27.6436  -20.5354  -10.4743 C   0  0  0  0  0  0  0  0  0  0  0  0
   28.3850  -19.5288  -11.0823 C   0  0  0  0  0  0  0  0  0  0  0  0
   29.5377  -19.7900  -11.8066 C   0  0  0  0  0  0  0  0  0  0  0  0
   29.9757  -21.0865  -11.9372 C   0  0  0  0  0  0  0  0  0  0  0  0
   29.2740  -22.1163  -11.3527 C   0  0  0  0  0  0  0  0  0  0  0  0
   28.1335  -21.8137  -10.6413 C   0  0  0  0  0  0  0  0  0  0  0  0
   24.0949  -20.7485   -9.3216 C   0  0  0  0  0  0  0  0  0  0  0  0
   23.0797  -20.0071   -9.4719 O   0  0  0  0  0  0  0  0  0  0  0  0
   24.1382  -21.5415   -8.1740 O   0  0  0  0  0  0  0  0  0  0  0  0
  2  3  1  1
  2  1  1  0
  4  2  1  0
  5  7  1  0
  5  4  1  0
  5  6  1  6
  7  8  2  0
  7 13  1  0
 10  9  1  6
 10 12  1  0
 11 10  1  0
 12 14  1  0
 12 13  1  6
 14 15  2  0
 14 16  1  0
 16 17  1  0
 17 25  1  0
 17 18  1  1
 19 18  1  0
 19 20  2  0
 21 20  1  0
 22 21  2  0
 23 24  2  0
 23 22  1  0
 24 19  1  0
 25 27  1  0
 26 25  2  0
M  END
$$$$
