LVF.pdb
     RDKit          3D

 27 27  0  0  1  0  0  0  0  0999 V2000
   24.6913  -27.1054  -18.9313 C   0  0  0  0  0  0  0  0  0  0  0  0
   25.6102  -25.9746  -18.4196 C   0  0  1  0  0  0  0  0  0  0  0  0
   25.7084  -24.9773  -19.5531 C   0  0  0  0  0  0  0  0  0  0  0  0
   25.0536  -25.4215  -17.1458 C   0  0  0  0  0  0  0  0  0  0  0  0
   25.7769  -24.3342  -16.4731 C   0  0  2  0  0  0  0  0  0  0  0  0
   26.9706  -24.9377  -15.7693 N   0  0  0  0  0  0  0  0  0  0  0  0
   25.1090  -23.4855  -15.5036 C   0  0  0  0  0  0  0  0  0  0  0  0
   25.1240  -23.7914  -14.2889 O   0  0  0  0  0  0  0  0  0  0  0  0
   23.2567  -19.6771  -16.5464 C   0  0  0  0  0  0  0  0  0  0  0  0
   23.8133  -20.0159  -15.2034 C   0  0  1  0  0  0  0  0  0  0  0  0
   23.2298  -19.2219  -14.0756 C   0  0  0  0  0  0  0  0  0  0  0  0
   23.6974  -21.4864  -14.8607 C   0  0  2  0  0  0  0  0  0  0  0  0
   24.4069  -22.2840  -15.8169 N   0  0  0  0  0  0  0  0  0  0  0  0
   22.2881  -21.9124  -14.6832 C   0  0  0  0  0  0  0  0  0  0  0  0
   21.5740  -22.1931  -15.6812 O   0  0  0  0  0  0  0  0  0  0  0  0
   21.6721  -22.0271  -13.4074 N   0  0  0  0  0  0  0  0  0  0  0  0
   20.2706  -22.4186  -13.2453 C   0  0  1  0  0  0  0  0  0  0  0  0
   20.0470  -22.9567  -11.8752 C   0  0  0  0  0  0  0  0  0  0  0  0
   18.6896  -23.4313  -11.6483 C   0  0  0  0  0  0  0  0  0  0  0  0
   17.8295  -22.7070  -10.8309 C   0  0  0  0  0  0  0  0  0  0  0  0
   16.5264  -23.1092  -10.5829 C   0  0  0  0  0  0  0  0  0  0  0  0
   16.0534  -24.2642  -11.1591 C   0  0  0  0  0  0  0  0  0  0  0  0
   16.8687  -25.0145  -11.9758 C   0  0  0  0  0  0  0  0  0  0  0  0
   18.1573  -24.5794  -12.1965 C   0  0  0  0  0  0  0  0  0  0  0  0
   19.4061  -21.2768  -13.5314 C   0  0  0  0  0  0  0  0  0  0  0  0
   19.6532  -20.0926  -13.1581 O   0  0  0  0  0  0  0  0  0  0  0  0
   18.2325  -21.4820  -14.2584 O   0  0  0  0  0  0  0  0  0  0  0  0
  2  3  1  6
  2  1  1  0
  4  2  1  0
  5  7  1  0
  5  4  1  0
  5  6  1  1
  7  8  2  0
  7 13  1  0
 10  9  1  6
 10 12  1  0
 11 10  1  0
 12 14  1  0
 12 13  1  6
 14 15  2  0
 14 16  1  0
 16 17  1  0
 17 25  1  0
 17 18  1  1
 19 18  1  0
 19 20  2  0
 21 20  1  0
 22 21  2  0
 23 24  2  0
 23 22  1  0
 24 19  1  0
 25 27  1  0
 26 25  2  0
M  END
$$$$
