LVF.pdb
     RDKit          3D

 27 27  0  0  1  0  0  0  0  0999 V2000
   19.1139  -13.5901  -21.0228 C   0  0  0  0  0  0  0  0  0  0  0  0
   20.3490  -12.7303  -20.6764 C   0  0  1  0  0  0  0  0  0  0  0  0
   20.5927  -11.8517  -21.8837 C   0  0  0  0  0  0  0  0  0  0  0  0
   20.0947  -11.9875  -19.4028 C   0  0  0  0  0  0  0  0  0  0  0  0
   21.0533  -12.1305  -18.2990 C   0  0  2  0  0  0  0  0  0  0  0  0
   21.0329  -13.5742  -17.8518 N   0  0  0  0  0  0  0  0  0  0  0  0
   20.9316  -11.3228  -17.0994 C   0  0  0  0  0  0  0  0  0  0  0  0
   19.9956  -11.5352  -16.2944 O   0  0  0  0  0  0  0  0  0  0  0  0
   22.9955  -10.8095  -14.0273 C   0  0  0  0  0  0  0  0  0  0  0  0
   22.8291   -9.4770  -14.6792 C   0  0  1  0  0  0  0  0  0  0  0  0
   24.0330   -9.0055  -15.4351 C   0  0  0  0  0  0  0  0  0  0  0  0
   21.6301   -9.4069  -15.6014 C   0  0  2  0  0  0  0  0  0  0  0  0
   21.8154  -10.2641  -16.7348 N   0  0  0  0  0  0  0  0  0  0  0  0
   21.2923   -8.0131  -15.9786 C   0  0  0  0  0  0  0  0  0  0  0  0
   21.9330   -7.4231  -16.8876 O   0  0  0  0  0  0  0  0  0  0  0  0
   20.2506   -7.2759  -15.3529 N   0  0  0  0  0  0  0  0  0  0  0  0
   19.9103   -5.9080  -15.7491 C   0  0  1  0  0  0  0  0  0  0  0  0
   19.4086   -5.8932  -17.1508 C   0  0  0  0  0  0  0  0  0  0  0  0
   18.1340   -6.5754  -17.3224 C   0  0  0  0  0  0  0  0  0  0  0  0
   18.1086   -7.9060  -17.7242 C   0  0  0  0  0  0  0  0  0  0  0  0
   16.9251   -8.6061  -17.8995 C   0  0  0  0  0  0  0  0  0  0  0  0
   15.7253   -7.9748  -17.6718 C   0  0  0  0  0  0  0  0  0  0  0  0
   15.7009   -6.6578  -17.2727 C   0  0  0  0  0  0  0  0  0  0  0  0
   16.8997   -5.9982  -17.1100 C   0  0  0  0  0  0  0  0  0  0  0  0
   18.9344   -5.3548  -14.8140 C   0  0  0  0  0  0  0  0  0  0  0  0
   18.4157   -6.0111  -13.8637 O   0  0  0  0  0  0  0  0  0  0  0  0
   18.5363   -4.0250  -14.9593 O   0  0  0  0  0  0  0  0  0  0  0  0
  2  3  1  6
  2  1  1  0
  4  2  1  0
  5  7  1  0
  5  4  1  0
  5  6  1  1
  7  8  2  0
  7 13  1  0
 10  9  1  6
 10 12  1  0
 11 10  1  0
 12 14  1  0
 12 13  1  6
 14 15  2  0
 14 16  1  0
 16 17  1  0
 17 25  1  0
 17 18  1  6
 19 18  1  0
 19 20  2  0
 21 20  1  0
 22 21  2  0
 23 24  2  0
 23 22  1  0
 24 19  1  0
 25 27  1  0
 26 25  2  0
M  END
$$$$
