LVF.pdb
     RDKit          3D

 27 27  0  0  1  0  0  0  0  0999 V2000
   19.3380  -22.0619  -15.0327 C   0  0  0  0  0  0  0  0  0  0  0  0
   20.3329  -20.9356  -14.6770 C   0  0  1  0  0  0  0  0  0  0  0  0
   19.4905  -19.7839  -14.1740 C   0  0  0  0  0  0  0  0  0  0  0  0
   21.3367  -21.4523  -13.6953 C   0  0  0  0  0  0  0  0  0  0  0  0
   22.3225  -20.5179  -13.1361 C   0  0  2  0  0  0  0  0  0  0  0  0
   22.9353  -19.7490  -14.2841 N   0  0  0  0  0  0  0  0  0  0  0  0
   23.4248  -20.9985  -12.3234 C   0  0  0  0  0  0  0  0  0  0  0  0
   23.2077  -21.8013  -11.3864 O   0  0  0  0  0  0  0  0  0  0  0  0
   27.6094  -19.6307  -12.7430 C   0  0  0  0  0  0  0  0  0  0  0  0
   27.1800  -21.0296  -12.4480 C   0  0  1  0  0  0  0  0  0  0  0  0
   28.1992  -21.8459  -11.7148 C   0  0  0  0  0  0  0  0  0  0  0  0
   25.8719  -21.1072  -11.6892 C   0  0  2  0  0  0  0  0  0  0  0  0
   24.7908  -20.6271  -12.4984 N   0  0  0  0  0  0  0  0  0  0  0  0
   25.9482  -20.4374  -10.3683 C   0  0  0  0  0  0  0  0  0  0  0  0
   25.6637  -19.2166  -10.2525 O   0  0  0  0  0  0  0  0  0  0  0  0
   26.3375  -21.1156   -9.1813 N   0  0  0  0  0  0  0  0  0  0  0  0
   26.6651  -20.4054   -7.9436 C   0  0  1  0  0  0  0  0  0  0  0  0
   27.1225  -21.3716   -6.9073 C   0  0  0  0  0  0  0  0  0  0  0  0
   27.7519  -20.7399   -5.7567 C   0  0  0  0  0  0  0  0  0  0  0  0
   27.0838  -20.6959   -4.5384 C   0  0  0  0  0  0  0  0  0  0  0  0
   27.6360  -20.1111   -3.4094 C   0  0  0  0  0  0  0  0  0  0  0  0
   28.8890  -19.5501   -3.4820 C   0  0  0  0  0  0  0  0  0  0  0  0
   29.5885  -19.5697   -4.6673 C   0  0  0  0  0  0  0  0  0  0  0  0
   29.0036  -20.1609   -5.7658 C   0  0  0  0  0  0  0  0  0  0  0  0
   27.6699  -19.3814   -8.2168 C   0  0  0  0  0  0  0  0  0  0  0  0
   28.7105  -19.5799   -8.9101 O   0  0  0  0  0  0  0  0  0  0  0  0
   27.4913  -18.1008   -7.6915 O   0  0  0  0  0  0  0  0  0  0  0  0
  2  3  1  1
  2  1  1  0
  4  2  1  0
  5  7  1  0
  5  4  1  0
  5  6  1  6
  7  8  2  0
  7 13  1  0
 10  9  1  1
 10 12  1  0
 11 10  1  0
 12 14  1  0
 12 13  1  6
 14 15  2  0
 14 16  1  0
 16 17  1  0
 17 25  1  0
 17 18  1  1
 19 18  1  0
 19 20  2  0
 21 20  1  0
 22 21  2  0
 23 24  2  0
 23 22  1  0
 24 19  1  0
 25 27  1  0
 26 25  2  0
M  END
$$$$
