LVF.pdb
     RDKit          3D

 27 27  0  0  1  0  0  0  0  0999 V2000
   20.4297  -16.1512  -17.6355 C   0  0  0  0  0  0  0  0  0  0  0  0
   21.6196  -16.5697  -18.5265 C   0  0  1  0  0  0  0  0  0  0  0  0
   22.3311  -15.2865  -18.8952 C   0  0  0  0  0  0  0  0  0  0  0  0
   22.4628  -17.5643  -17.7928 C   0  0  0  0  0  0  0  0  0  0  0  0
   23.7225  -18.0086  -18.4039 C   0  0  2  0  0  0  0  0  0  0  0  0
   23.3815  -18.7927  -19.6503 N   0  0  0  0  0  0  0  0  0  0  0  0
   24.6695  -18.8130  -17.6538 C   0  0  0  0  0  0  0  0  0  0  0  0
   24.5282  -20.0565  -17.5984 O   0  0  0  0  0  0  0  0  0  0  0  0
   28.5004  -18.7512  -18.0053 C   0  0  0  0  0  0  0  0  0  0  0  0
   28.1596  -18.6567  -16.5551 C   0  0  1  0  0  0  0  0  0  0  0  0
   28.3645  -17.2975  -15.9606 C   0  0  0  0  0  0  0  0  0  0  0  0
   26.7481  -19.1062  -16.2410 C   0  0  2  0  0  0  0  0  0  0  0  0
   25.7943  -18.2990  -16.9431 N   0  0  0  0  0  0  0  0  0  0  0  0
   26.4904  -19.1697  -14.7821 C   0  0  0  0  0  0  0  0  0  0  0  0
   26.0352  -18.1692  -14.1685 O   0  0  0  0  0  0  0  0  0  0  0  0
   26.7353  -20.3350  -14.0059 N   0  0  0  0  0  0  0  0  0  0  0  0
   26.4062  -20.4121  -12.5813 C   0  0  1  0  0  0  0  0  0  0  0  0
   24.9538  -20.1539  -12.3790 C   0  0  0  0  0  0  0  0  0  0  0  0
   24.5056  -20.3771  -11.0121 C   0  0  0  0  0  0  0  0  0  0  0  0
   25.3784  -20.1597   -9.9522 C   0  0  0  0  0  0  0  0  0  0  0  0
   25.0048  -20.3522   -8.6312 C   0  0  0  0  0  0  0  0  0  0  0  0
   23.7282  -20.7733   -8.3435 C   0  0  0  0  0  0  0  0  0  0  0  0
   22.8290  -21.0016   -9.3603 C   0  0  0  0  0  0  0  0  0  0  0  0
   23.2406  -20.7982  -10.6594 C   0  0  0  0  0  0  0  0  0  0  0  0
   26.8078  -21.7138  -12.0547 C   0  0  0  0  0  0  0  0  0  0  0  0
   27.5444  -21.8672  -11.0365 O   0  0  0  0  0  0  0  0  0  0  0  0
   26.3638  -22.8702  -12.6977 O   0  0  0  0  0  0  0  0  0  0  0  0
  2  3  1  1
  2  1  1  0
  4  2  1  0
  5  7  1  0
  5  4  1  0
  5  6  1  6
  7  8  2  0
  7 13  1  0
 10  9  1  6
 10 12  1  0
 11 10  1  0
 12 14  1  0
 12 13  1  6
 14 15  2  0
 14 16  1  0
 16 17  1  0
 17 25  1  0
 17 18  1  6
 19 18  1  0
 19 20  2  0
 21 20  1  0
 22 21  2  0
 23 24  2  0
 23 22  1  0
 24 19  1  0
 25 27  1  0
 26 25  2  0
M  END
$$$$
