LVF.pdb
     RDKit          3D

 27 27  0  0  1  0  0  0  0  0999 V2000
   24.3685  -13.0512  -14.5710 C   0  0  0  0  0  0  0  0  0  0  0  0
   24.5315  -14.1960  -15.5946 C   0  0  1  0  0  0  0  0  0  0  0  0
   25.9132  -14.0268  -16.1872 C   0  0  0  0  0  0  0  0  0  0  0  0
   24.2992  -15.5074  -14.9130 C   0  0  0  0  0  0  0  0  0  0  0  0
   24.7034  -16.7412  -15.6002 C   0  0  2  0  0  0  0  0  0  0  0  0
   23.7402  -16.9725  -16.7418 N   0  0  0  0  0  0  0  0  0  0  0  0
   24.8003  -17.9966  -14.8783 C   0  0  0  0  0  0  0  0  0  0  0  0
   23.7592  -18.6024  -14.5341 O   0  0  0  0  0  0  0  0  0  0  0  0
   26.9050  -20.8067  -15.9963 C   0  0  0  0  0  0  0  0  0  0  0  0
   27.0507  -20.8272  -14.5109 C   0  0  1  0  0  0  0  0  0  0  0  0
   28.4412  -20.5585  -14.0238 C   0  0  0  0  0  0  0  0  0  0  0  0
   26.1064  -19.8782  -13.8032 C   0  0  2  0  0  0  0  0  0  0  0  0
   26.0219  -18.6331  -14.5078 N   0  0  0  0  0  0  0  0  0  0  0  0
   26.4483  -19.7105  -12.3700 C   0  0  0  0  0  0  0  0  0  0  0  0
   27.2353  -18.7993  -12.0023 O   0  0  0  0  0  0  0  0  0  0  0  0
   25.9217  -20.5471  -11.3487 N   0  0  0  0  0  0  0  0  0  0  0  0
   26.5104  -20.6160  -10.0099 C   0  0  1  0  0  0  0  0  0  0  0  0
   25.9718  -19.5190   -9.1593 C   0  0  0  0  0  0  0  0  0  0  0  0
   26.5683  -19.4619   -7.8325 C   0  0  0  0  0  0  0  0  0  0  0  0
   27.4650  -18.4470   -7.5188 C   0  0  0  0  0  0  0  0  0  0  0  0
   28.0599  -18.3413   -6.2713 C   0  0  0  0  0  0  0  0  0  0  0  0
   27.7622  -19.2664   -5.2990 C   0  0  0  0  0  0  0  0  0  0  0  0
   26.8799  -20.2892   -5.5637 C   0  0  0  0  0  0  0  0  0  0  0  0
   26.3106  -20.3581   -6.8165 C   0  0  0  0  0  0  0  0  0  0  0  0
   26.2565  -21.9318   -9.4294 C   0  0  0  0  0  0  0  0  0  0  0  0
   25.1212  -22.4919   -9.4183 O   0  0  0  0  0  0  0  0  0  0  0  0
   27.3152  -22.6303   -8.8470 O   0  0  0  0  0  0  0  0  0  0  0  0
  2  3  1  1
  2  1  1  0
  4  2  1  0
  5  7  1  0
  5  4  1  0
  5  6  1  6
  7  8  2  0
  7 13  1  0
 10  9  1  6
 10 12  1  0
 11 10  1  0
 12 14  1  0
 12 13  1  6
 14 15  2  0
 14 16  1  0
 16 17  1  0
 17 25  1  0
 17 18  1  1
 19 18  1  0
 19 20  2  0
 21 20  1  0
 22 21  2  0
 23 24  2  0
 23 22  1  0
 24 19  1  0
 25 27  1  0
 26 25  2  0
M  END
$$$$
