LVF.pdb
     RDKit          3D

 27 27  0  0  1  0  0  0  0  0999 V2000
   27.5644  -17.6902  -18.0918 C   0  0  0  0  0  0  0  0  0  0  0  0
   28.2144  -18.7212  -17.1434 C   0  0  1  0  0  0  0  0  0  0  0  0
   29.1375  -17.9298  -16.2430 C   0  0  0  0  0  0  0  0  0  0  0  0
   27.1426  -19.4815  -16.4280 C   0  0  0  0  0  0  0  0  0  0  0  0
   27.5266  -20.3763  -15.3282 C   0  0  2  0  0  0  0  0  0  0  0  0
   28.3583  -21.4960  -15.9106 N   0  0  0  0  0  0  0  0  0  0  0  0
   26.5185  -21.0005  -14.4912 C   0  0  0  0  0  0  0  0  0  0  0  0
   26.0340  -22.1090  -14.8166 O   0  0  0  0  0  0  0  0  0  0  0  0
   26.7489  -21.4780  -10.7288 C   0  0  0  0  0  0  0  0  0  0  0  0
   25.3651  -20.9932  -11.0084 C   0  0  1  0  0  0  0  0  0  0  0  0
   25.0853  -19.6076  -10.5138 C   0  0  0  0  0  0  0  0  0  0  0  0
   24.9917  -21.0603  -12.4743 C   0  0  2  0  0  0  0  0  0  0  0  0
   26.0052  -20.4469  -13.2809 N   0  0  0  0  0  0  0  0  0  0  0  0
   23.6369  -20.5163  -12.7343 C   0  0  0  0  0  0  0  0  0  0  0  0
   23.3941  -19.2933  -12.5605 O   0  0  0  0  0  0  0  0  0  0  0  0
   22.5558  -21.3220  -13.1845 N   0  0  0  0  0  0  0  0  0  0  0  0
   21.2093  -20.7848  -13.3891 C   0  0  1  0  0  0  0  0  0  0  0  0
   20.8672  -20.8050  -14.8380 C   0  0  0  0  0  0  0  0  0  0  0  0
   21.6230  -19.8455  -15.6302 C   0  0  0  0  0  0  0  0  0  0  0  0
   22.8186  -20.2285  -16.2271 C   0  0  0  0  0  0  0  0  0  0  0  0
   23.5772  -19.3586  -16.9948 C   0  0  0  0  0  0  0  0  0  0  0  0
   23.1443  -18.0672  -17.1813 C   0  0  0  0  0  0  0  0  0  0  0  0
   21.9664  -17.6427  -16.6095 C   0  0  0  0  0  0  0  0  0  0  0  0
   21.2424  -18.5390  -15.8539 C   0  0  0  0  0  0  0  0  0  0  0  0
   20.2512  -21.5455  -12.5913 C   0  0  0  0  0  0  0  0  0  0  0  0
   19.0327  -21.2282  -12.4591 O   0  0  0  0  0  0  0  0  0  0  0  0
   20.6844  -22.6939  -11.9271 O   0  0  0  0  0  0  0  0  0  0  0  0
  2  3  1  1
  2  1  1  0
  4  2  1  0
  5  7  1  0
  5  4  1  0
  5  6  1  6
  7  8  2  0
  7 13  1  0
 10  9  1  6
 10 12  1  0
 11 10  1  0
 12 14  1  0
 12 13  1  6
 14 15  2  0
 14 16  1  0
 16 17  1  0
 17 25  1  0
 17 18  1  6
 19 18  1  0
 19 20  2  0
 21 20  1  0
 22 21  2  0
 23 24  2  0
 23 22  1  0
 24 19  1  0
 25 27  1  0
 26 25  2  0
M  END
$$$$
