LVF.pdb
     RDKit          3D

 27 27  0  0  1  0  0  0  0  0999 V2000
   28.6626  -16.5950  -18.4393 C   0  0  0  0  0  0  0  0  0  0  0  0
   28.5156  -16.9828  -16.9517 C   0  0  1  0  0  0  0  0  0  0  0  0
   29.0558  -15.8097  -16.1636 C   0  0  0  0  0  0  0  0  0  0  0  0
   27.0869  -17.3235  -16.6669 C   0  0  0  0  0  0  0  0  0  0  0  0
   26.6516  -18.7188  -16.8130 C   0  0  2  0  0  0  0  0  0  0  0  0
   26.1868  -18.9123  -18.2381 N   0  0  0  0  0  0  0  0  0  0  0  0
   25.6132  -19.2667  -15.9599 C   0  0  0  0  0  0  0  0  0  0  0  0
   24.5217  -18.6642  -15.8371 O   0  0  0  0  0  0  0  0  0  0  0  0
   23.4814  -21.8748  -16.3404 C   0  0  0  0  0  0  0  0  0  0  0  0
   23.9984  -22.1637  -14.9701 C   0  0  1  0  0  0  0  0  0  0  0  0
   24.8994  -23.3572  -14.8897 C   0  0  0  0  0  0  0  0  0  0  0  0
   24.7101  -20.9860  -14.3379 C   0  0  2  0  0  0  0  0  0  0  0  0
   25.7228  -20.4789  -15.2160 N   0  0  0  0  0  0  0  0  0  0  0  0
   25.2235  -21.3015  -12.9830 C   0  0  0  0  0  0  0  0  0  0  0  0
   26.1354  -22.1553  -12.8270 O   0  0  0  0  0  0  0  0  0  0  0  0
   24.7301  -20.6752  -11.8063 N   0  0  0  0  0  0  0  0  0  0  0  0
   25.0488  -21.1655  -10.4640 C   0  0  1  0  0  0  0  0  0  0  0  0
   26.0155  -20.2468   -9.8020 C   0  0  0  0  0  0  0  0  0  0  0  0
   27.3264  -20.2232  -10.4347 C   0  0  0  0  0  0  0  0  0  0  0  0
   28.3702  -20.9655   -9.8944 C   0  0  0  0  0  0  0  0  0  0  0  0
   29.6371  -20.9837  -10.4566 C   0  0  0  0  0  0  0  0  0  0  0  0
   29.8853  -20.2457  -11.5896 C   0  0  0  0  0  0  0  0  0  0  0  0
   28.8825  -19.4951  -12.1602 C   0  0  0  0  0  0  0  0  0  0  0  0
   27.6375  -19.5047  -11.5699 C   0  0  0  0  0  0  0  0  0  0  0  0
   23.8187  -21.3133   -9.6907 C   0  0  0  0  0  0  0  0  0  0  0  0
   22.6727  -20.9846  -10.1168 O   0  0  0  0  0  0  0  0  0  0  0  0
   23.8889  -21.8466   -8.4029 O   0  0  0  0  0  0  0  0  0  0  0  0
  2  3  1  1
  2  1  1  0
  4  2  1  0
  5  7  1  0
  5  4  1  0
  5  6  1  6
  7  8  2  0
  7 13  1  0
 10  9  1  6
 10 12  1  0
 11 10  1  0
 12 14  1  0
 12 13  1  6
 14 15  2  0
 14 16  1  0
 16 17  1  0
 17 25  1  0
 17 18  1  1
 19 18  1  0
 19 20  2  0
 21 20  1  0
 22 21  2  0
 23 24  2  0
 23 22  1  0
 24 19  1  0
 25 27  1  0
 26 25  2  0
M  END
$$$$
