EAK.pdb
     RDKit          3D

 24 23  0  0  1  0  0  0  0  0999 V2000
    9.8819  -14.1595   18.1650 N   0  0  0  0  0  0  0  0  0  0  0  0
    8.6733  -13.7424   18.8450 C   0  0  1  0  0  0  0  0  0  0  0  0
    7.4928  -13.7706   17.8999 C   0  0  0  0  0  0  0  0  0  0  0  0
    7.9022  -13.3386   16.5026 C   0  0  0  0  0  0  0  0  0  0  0  0
    8.0236  -14.5403   15.6527 C   0  0  0  0  0  0  0  0  0  0  0  0
    8.0224  -15.7022   16.1386 O   0  0  0  0  0  0  0  0  0  0  0  0
    8.4780  -14.5879   20.0244 C   0  0  0  0  0  0  0  0  0  0  0  0
    7.4661  -14.4390   20.7515 O   0  0  0  0  0  0  0  0  0  0  0  0
    8.1450  -14.4331   14.2712 O   0  0  0  0  0  0  0  0  0  0  0  0
   10.0110  -17.7120   21.5296 C   0  0  0  0  0  0  0  0  0  0  0  0
    9.1852  -16.4471   21.5540 C   0  0  2  0  0  0  0  0  0  0  0  0
    9.4098  -15.6129   20.4102 N   0  0  0  0  0  0  0  0  0  0  0  0
    9.4169  -15.7136   22.8367 C   0  0  0  0  0  0  0  0  0  0  0  0
   10.5514  -15.2008   22.9929 O   0  0  0  0  0  0  0  0  0  0  0  0
    8.4478  -15.5840   23.8326 N   0  0  0  0  0  0  0  0  0  0  0  0
    8.6463  -14.8734   25.1099 C   0  0  1  0  0  0  0  0  0  0  0  0
    7.3457  -14.3505   25.5147 C   0  0  0  0  0  0  0  0  0  0  0  0
    7.1206  -13.5886   26.7394 C   0  0  0  0  0  0  0  0  0  0  0  0
    6.4823  -12.2722   26.7446 C   0  0  0  0  0  0  0  0  0  0  0  0
    6.2844  -11.5453   28.0253 C   0  0  0  0  0  0  0  0  0  0  0  0
    5.5838  -10.2888   27.9222 N   0  0  0  0  0  0  0  0  0  0  0  0
    9.2412  -15.8440   26.0853 C   0  0  0  0  0  0  0  0  0  0  0  0
   10.0710  -15.5211   27.1285 O   0  0  0  0  0  0  0  0  0  0  0  0
    8.9744  -17.0894   25.9694 O   0  0  0  0  0  0  0  0  0  0  0  0
  2  1  1  6
  2  3  1  0
  3  4  1  0
  4  5  1  0
  5  6  2  0
  5  9  1  0
  7  2  1  0
  8  7  2  0
 11 10  1  6
 11 13  1  0
 11 12  1  0
 12  7  1  0
 13 15  1  0
 14 13  2  0
 15 16  1  0
 16 17  1  1
 16 22  1  0
 17 18  1  0
 18 19  1  0
 19 20  1  0
 21 20  1  0
 22 24  2  0
 22 23  1  0
M  END
$$$$
