EAK.pdb
     RDKit          3D

 24 23  0  0  1  0  0  0  0  0999 V2000
   11.2444  -15.6217   17.8675 N   0  0  0  0  0  0  0  0  0  0  0  0
   12.0780  -15.3583   19.0219 C   0  0  1  0  0  0  0  0  0  0  0  0
   13.2035  -14.4139   18.6628 C   0  0  0  0  0  0  0  0  0  0  0  0
   14.0376  -14.9685   17.5211 C   0  0  0  0  0  0  0  0  0  0  0  0
   15.4337  -14.5186   17.6934 C   0  0  0  0  0  0  0  0  0  0  0  0
   15.8811  -13.4974   17.1076 O   0  0  0  0  0  0  0  0  0  0  0  0
   11.2361  -14.8528   20.1081 C   0  0  0  0  0  0  0  0  0  0  0  0
   11.7497  -14.4982   21.1968 O   0  0  0  0  0  0  0  0  0  0  0  0
   16.3149  -15.2120   18.5164 O   0  0  0  0  0  0  0  0  0  0  0  0
    7.5304  -14.2044   20.7398 C   0  0  0  0  0  0  0  0  0  0  0  0
    8.9944  -14.3122   21.0974 C   0  0  2  0  0  0  0  0  0  0  0  0
    9.8074  -14.7354   19.9953 N   0  0  0  0  0  0  0  0  0  0  0  0
    9.1621  -15.1984   22.2904 C   0  0  0  0  0  0  0  0  0  0  0  0
    9.3995  -16.4091   22.0613 O   0  0  0  0  0  0  0  0  0  0  0  0
    9.0670  -14.7413   23.6055 N   0  0  0  0  0  0  0  0  0  0  0  0
    9.2825  -15.5762   24.8023 C   0  0  1  0  0  0  0  0  0  0  0  0
    9.3203  -14.6763   25.9502 C   0  0  0  0  0  0  0  0  0  0  0  0
    9.4974  -15.1229   27.3287 C   0  0  0  0  0  0  0  0  0  0  0  0
    9.4844  -14.2018   28.4652 C   0  0  0  0  0  0  0  0  0  0  0  0
    9.6329  -14.7235   29.8485 C   0  0  0  0  0  0  0  0  0  0  0  0
    9.7470  -13.7211   30.8794 N   0  0  0  0  0  0  0  0  0  0  0  0
    8.1773  -16.5875   24.8593 C   0  0  0  0  0  0  0  0  0  0  0  0
    6.8857  -16.3837   24.4455 O   0  0  0  0  0  0  0  0  0  0  0  0
    8.4203  -17.7533   25.3258 O   0  0  0  0  0  0  0  0  0  0  0  0
  2  1  1  6
  2  3  1  0
  3  4  1  0
  4  5  1  0
  5  6  2  0
  5  9  1  0
  7  2  1  0
  8  7  2  0
 11 10  1  6
 11 13  1  0
 11 12  1  0
 12  7  1  0
 13 15  1  0
 14 13  2  0
 15 16  1  0
 16 17  1  1
 16 22  1  0
 17 18  1  0
 18 19  1  0
 19 20  1  0
 21 20  1  0
 22 24  2  0
 22 23  1  0
M  END
$$$$
