EAK.pdb
     RDKit          3D

 24 23  0  0  1  0  0  0  0  0999 V2000
   10.1745  -16.5764   17.2440 N   0  0  0  0  0  0  0  0  0  0  0  0
    9.8481  -17.5113   18.3005 C   0  0  1  0  0  0  0  0  0  0  0  0
   10.9937  -18.4699   18.5373 C   0  0  0  0  0  0  0  0  0  0  0  0
   12.1735  -18.1427   17.6384 C   0  0  0  0  0  0  0  0  0  0  0  0
   13.2661  -19.0935   17.9272 C   0  0  0  0  0  0  0  0  0  0  0  0
   14.3454  -18.7248   18.4614 O   0  0  0  0  0  0  0  0  0  0  0  0
    9.4788  -16.7588   19.5011 C   0  0  0  0  0  0  0  0  0  0  0  0
   10.3167  -16.0157   20.0671 O   0  0  0  0  0  0  0  0  0  0  0  0
   13.1431  -20.4439   17.6173 O   0  0  0  0  0  0  0  0  0  0  0  0
    6.2981  -15.8653   21.3550 C   0  0  0  0  0  0  0  0  0  0  0  0
    7.7949  -15.9989   21.1991 C   0  0  2  0  0  0  0  0  0  0  0  0
    8.1678  -16.8244   20.0882 N   0  0  0  0  0  0  0  0  0  0  0  0
    8.3985  -16.4778   22.4809 C   0  0  0  0  0  0  0  0  0  0  0  0
    8.7797  -17.6730   22.5096 O   0  0  0  0  0  0  0  0  0  0  0  0
    8.5477  -15.6690   23.6084 N   0  0  0  0  0  0  0  0  0  0  0  0
    9.1380  -16.1104   24.8861 C   0  0  1  0  0  0  0  0  0  0  0  0
    9.1055  -14.9655   25.7900 C   0  0  0  0  0  0  0  0  0  0  0  0
    9.6769  -14.9730   27.1333 C   0  0  0  0  0  0  0  0  0  0  0  0
    9.6430  -13.8043   28.0126 C   0  0  0  0  0  0  0  0  0  0  0  0
   10.1590  -13.9026   29.4026 C   0  0  0  0  0  0  0  0  0  0  0  0
   10.1195  -12.6792   30.1656 N   0  0  0  0  0  0  0  0  0  0  0  0
    8.3494  -17.2896   25.3708 C   0  0  0  0  0  0  0  0  0  0  0  0
    8.8515  -18.3476   26.0847 O   0  0  0  0  0  0  0  0  0  0  0  0
    7.0970  -17.3503   25.1188 O   0  0  0  0  0  0  0  0  0  0  0  0
  2  1  1  6
  2  3  1  0
  3  4  1  0
  4  5  1  0
  5  6  2  0
  5  9  1  0
  7  2  1  0
  8  7  2  0
 11 10  1  1
 11 13  1  0
 11 12  1  0
 12  7  1  0
 13 15  1  0
 14 13  2  0
 15 16  1  0
 16 17  1  1
 16 22  1  0
 17 18  1  0
 18 19  1  0
 19 20  1  0
 21 20  1  0
 22 24  2  0
 22 23  1  0
M  END
$$$$
