EAK.pdb
     RDKit          3D

 24 23  0  0  1  0  0  0  0  0999 V2000
    8.1115  -13.2508   19.4273 N   0  0  0  0  0  0  0  0  0  0  0  0
    7.3283  -14.0337   20.3604 C   0  0  1  0  0  0  0  0  0  0  0  0
    7.4517  -15.5096   20.0534 C   0  0  0  0  0  0  0  0  0  0  0  0
    8.9062  -15.9109   19.8796 C   0  0  0  0  0  0  0  0  0  0  0  0
    8.9604  -17.3324   19.4828 C   0  0  0  0  0  0  0  0  0  0  0  0
   10.0522  -17.9228   19.2697 O   0  0  0  0  0  0  0  0  0  0  0  0
    7.7440  -13.6998   21.7241 C   0  0  0  0  0  0  0  0  0  0  0  0
    8.9246  -13.3452   21.9589 O   0  0  0  0  0  0  0  0  0  0  0  0
    7.7972  -18.0794   19.3283 O   0  0  0  0  0  0  0  0  0  0  0  0
    6.1463  -13.1576   25.1208 C   0  0  0  0  0  0  0  0  0  0  0  0
    7.2872  -13.4691   24.1807 C   0  0  2  0  0  0  0  0  0  0  0  0
    6.8475  -13.7566   22.8470 N   0  0  0  0  0  0  0  0  0  0  0  0
    8.1239  -14.5728   24.7452 C   0  0  0  0  0  0  0  0  0  0  0  0
    8.0902  -15.6699   24.1370 O   0  0  0  0  0  0  0  0  0  0  0  0
    8.9143  -14.4300   25.8864 N   0  0  0  0  0  0  0  0  0  0  0  0
    9.6858  -15.5188   26.5151 C   0  0  1  0  0  0  0  0  0  0  0  0
   10.2499  -14.9850   27.7503 C   0  0  0  0  0  0  0  0  0  0  0  0
   10.9629  -15.7931   28.7349 C   0  0  0  0  0  0  0  0  0  0  0  0
   11.2059  -15.3377   30.1038 C   0  0  0  0  0  0  0  0  0  0  0  0
   11.9083  -16.2219   31.0694 C   0  0  0  0  0  0  0  0  0  0  0  0
   11.9911  -15.7218   32.4198 N   0  0  0  0  0  0  0  0  0  0  0  0
    8.7566  -16.6768   26.7224 C   0  0  0  0  0  0  0  0  0  0  0  0
    9.1176  -17.9999   26.7274 O   0  0  0  0  0  0  0  0  0  0  0  0
    7.5124  -16.4529   26.9164 O   0  0  0  0  0  0  0  0  0  0  0  0
  2  1  1  6
  2  3  1  0
  3  4  1  0
  4  5  1  0
  5  6  2  0
  5  9  1  0
  7  2  1  0
  8  7  2  0
 11 10  1  1
 11 13  1  0
 11 12  1  0
 12  7  1  0
 13 15  1  0
 14 13  2  0
 15 16  1  0
 16 17  1  1
 16 22  1  0
 17 18  1  0
 18 19  1  0
 19 20  1  0
 21 20  1  0
 22 24  2  0
 22 23  1  0
M  END
$$$$
