EAK.pdb
     RDKit          3D

 24 23  0  0  1  0  0  0  0  0999 V2000
   15.9198  -13.1473   17.1461 N   0  0  0  0  0  0  0  0  0  0  0  0
   15.0043  -14.2688   17.1754 C   0  0  1  0  0  0  0  0  0  0  0  0
   15.7252  -15.5549   16.8377 C   0  0  0  0  0  0  0  0  0  0  0  0
   17.2016  -15.4590   17.1810 C   0  0  0  0  0  0  0  0  0  0  0  0
   17.8374  -16.7627   16.9032 C   0  0  0  0  0  0  0  0  0  0  0  0
   18.5385  -17.3581   17.7635 O   0  0  0  0  0  0  0  0  0  0  0  0
   14.3490  -14.3109   18.4842 C   0  0  0  0  0  0  0  0  0  0  0  0
   14.9812  -13.9946   19.5210 O   0  0  0  0  0  0  0  0  0  0  0  0
   17.6844  -17.3876   15.6700 O   0  0  0  0  0  0  0  0  0  0  0  0
   10.8572  -14.9130   19.8734 C   0  0  0  0  0  0  0  0  0  0  0  0
   12.3567  -14.7437   19.9470 C   0  0  2  0  0  0  0  0  0  0  0  0
   12.9773  -14.7071   18.6554 N   0  0  0  0  0  0  0  0  0  0  0  0
   12.9454  -15.8044   20.8218 C   0  0  0  0  0  0  0  0  0  0  0  0
   13.1011  -16.9366   20.3037 O   0  0  0  0  0  0  0  0  0  0  0  0
   13.3153  -15.5862   22.1496 N   0  0  0  0  0  0  0  0  0  0  0  0
   13.8585  -16.6201   23.0507 C   0  0  1  0  0  0  0  0  0  0  0  0
   15.0612  -16.0650   23.6625 C   0  0  0  0  0  0  0  0  0  0  0  0
   16.3687  -16.0443   23.0137 C   0  0  0  0  0  0  0  0  0  0  0  0
   17.2203  -14.8550   22.9905 C   0  0  0  0  0  0  0  0  0  0  0  0
   18.5660  -14.9145   22.3634 C   0  0  0  0  0  0  0  0  0  0  0  0
   19.3320  -13.6939   22.4244 N   0  0  0  0  0  0  0  0  0  0  0  0
   12.7860  -16.9779   24.0350 C   0  0  0  0  0  0  0  0  0  0  0  0
   12.8334  -18.0208   24.9245 O   0  0  0  0  0  0  0  0  0  0  0  0
   11.7199  -16.2728   24.0816 O   0  0  0  0  0  0  0  0  0  0  0  0
  2  1  1  1
  2  3  1  0
  3  4  1  0
  4  5  1  0
  5  6  2  0
  5  9  1  0
  7  2  1  0
  8  7  2  0
 11 10  1  6
 11 13  1  0
 11 12  1  0
 12  7  1  0
 13 15  1  0
 14 13  2  0
 15 16  1  0
 16 17  1  1
 16 22  1  0
 17 18  1  0
 18 19  1  0
 19 20  1  0
 21 20  1  0
 22 24  2  0
 22 23  1  0
M  END
$$$$
