EAK.pdb
     RDKit          3D

 24 23  0  0  1  0  0  0  0  0999 V2000
    8.0803  -12.4838   18.4958 N   0  0  0  0  0  0  0  0  0  0  0  0
    8.9020  -13.6067   18.8968 C   0  0  1  0  0  0  0  0  0  0  0  0
   10.3698  -13.2735   18.7485 C   0  0  0  0  0  0  0  0  0  0  0  0
   11.2409  -14.4296   19.2082 C   0  0  0  0  0  0  0  0  0  0  0  0
   12.6579  -14.0319   19.0862 C   0  0  0  0  0  0  0  0  0  0  0  0
   13.2744  -13.4675   20.0283 O   0  0  0  0  0  0  0  0  0  0  0  0
    8.5417  -13.9930   20.2625 C   0  0  0  0  0  0  0  0  0  0  0  0
    8.5636  -13.1463   21.1883 O   0  0  0  0  0  0  0  0  0  0  0  0
   13.3713  -14.2678   17.9157 O   0  0  0  0  0  0  0  0  0  0  0  0
    6.8253  -16.8744   21.9870 C   0  0  0  0  0  0  0  0  0  0  0  0
    7.7404  -15.6730   21.9454 C   0  0  2  0  0  0  0  0  0  0  0  0
    8.1511  -15.3313   20.6153 N   0  0  0  0  0  0  0  0  0  0  0  0
    8.9082  -15.8920   22.8537 C   0  0  0  0  0  0  0  0  0  0  0  0
    9.9394  -16.3826   22.3337 O   0  0  0  0  0  0  0  0  0  0  0  0
    8.8916  -15.5803   24.2139 N   0  0  0  0  0  0  0  0  0  0  0  0
    9.9509  -15.9477   25.1725 C   0  0  1  0  0  0  0  0  0  0  0  0
    9.7034  -15.1896   26.3943 C   0  0  0  0  0  0  0  0  0  0  0  0
   10.4820  -15.3441   27.6195 C   0  0  0  0  0  0  0  0  0  0  0  0
   10.1758  -14.6108   28.8477 C   0  0  0  0  0  0  0  0  0  0  0  0
   11.0192  -14.7974   30.0567 C   0  0  0  0  0  0  0  0  0  0  0  0
   10.6131  -14.0434   31.2173 N   0  0  0  0  0  0  0  0  0  0  0  0
    9.9025  -17.4343   25.3597 C   0  0  0  0  0  0  0  0  0  0  0  0
    8.7830  -18.2181   25.2443 O   0  0  0  0  0  0  0  0  0  0  0  0
   10.9776  -18.0629   25.6511 O   0  0  0  0  0  0  0  0  0  0  0  0
  2  1  1  1
  2  3  1  0
  3  4  1  0
  4  5  1  0
  5  6  2  0
  5  9  1  0
  7  2  1  0
  8  7  2  0
 11 10  1  6
 11 13  1  0
 11 12  1  0
 12  7  1  0
 13 15  1  0
 14 13  2  0
 15 16  1  0
 16 17  1  1
 16 22  1  0
 17 18  1  0
 18 19  1  0
 19 20  1  0
 21 20  1  0
 22 24  2  0
 22 23  1  0
M  END
$$$$
