EAK.pdb
     RDKit          3D

 24 23  0  0  1  0  0  0  0  0999 V2000
   11.2124  -17.1410   19.0618 N   0  0  0  0  0  0  0  0  0  0  0  0
   11.8785  -16.7155   20.2751 C   0  0  1  0  0  0  0  0  0  0  0  0
   12.6289  -15.4225   20.0464 C   0  0  0  0  0  0  0  0  0  0  0  0
   13.8558  -15.6496   19.1804 C   0  0  0  0  0  0  0  0  0  0  0  0
   14.5937  -14.3758   19.0622 C   0  0  0  0  0  0  0  0  0  0  0  0
   14.6488  -13.7366   17.9784 O   0  0  0  0  0  0  0  0  0  0  0  0
   10.8879  -16.6159   21.3489 C   0  0  0  0  0  0  0  0  0  0  0  0
   10.2890  -15.5339   21.5616 O   0  0  0  0  0  0  0  0  0  0  0  0
   15.2614  -13.8292   20.1531 O   0  0  0  0  0  0  0  0  0  0  0  0
    9.0985  -18.9428   23.7591 C   0  0  0  0  0  0  0  0  0  0  0  0
    9.5748  -17.6043   23.2450 C   0  0  2  0  0  0  0  0  0  0  0  0
   10.5508  -17.7234   22.2019 N   0  0  0  0  0  0  0  0  0  0  0  0
   10.0699  -16.7698   24.3832 C   0  0  0  0  0  0  0  0  0  0  0  0
   11.3047  -16.7980   24.6042 O   0  0  0  0  0  0  0  0  0  0  0  0
    9.2344  -15.9870   25.1812 N   0  0  0  0  0  0  0  0  0  0  0  0
    9.6759  -15.2256   26.3648 C   0  0  1  0  0  0  0  0  0  0  0  0
    8.5865  -14.3238   26.7238 C   0  0  0  0  0  0  0  0  0  0  0  0
    8.1542  -13.2007   25.8975 C   0  0  0  0  0  0  0  0  0  0  0  0
    7.0013  -12.3671   26.2382 C   0  0  0  0  0  0  0  0  0  0  0  0
    6.6861  -11.1637   25.4257 C   0  0  0  0  0  0  0  0  0  0  0  0
    5.5012  -10.4425   25.8213 N   0  0  0  0  0  0  0  0  0  0  0  0
   10.0269  -16.2117   27.4380 C   0  0  0  0  0  0  0  0  0  0  0  0
   10.9068  -15.9933   28.4671 O   0  0  0  0  0  0  0  0  0  0  0  0
    9.4781  -17.3670   27.4290 O   0  0  0  0  0  0  0  0  0  0  0  0
  2  1  1  6
  2  3  1  0
  3  4  1  0
  4  5  1  0
  5  6  2  0
  5  9  1  0
  7  2  1  0
  8  7  2  0
 11 10  1  1
 11 13  1  0
 11 12  1  0
 12  7  1  0
 13 15  1  0
 14 13  2  0
 15 16  1  0
 16 17  1  1
 16 22  1  0
 17 18  1  0
 18 19  1  0
 19 20  1  0
 21 20  1  0
 22 24  2  0
 22 23  1  0
M  END
$$$$
