EAK.pdb
     RDKit          3D

 24 23  0  0  1  0  0  0  0  0999 V2000
    9.3731  -17.4517   17.0291 N   0  0  0  0  0  0  0  0  0  0  0  0
    8.7930  -17.8188   18.3041 C   0  0  1  0  0  0  0  0  0  0  0  0
    9.0039  -19.2905   18.5822 C   0  0  0  0  0  0  0  0  0  0  0  0
   10.4712  -19.6636   18.4617 C   0  0  0  0  0  0  0  0  0  0  0  0
   10.6110  -21.1149   18.6969 C   0  0  0  0  0  0  0  0  0  0  0  0
   11.1221  -21.8821   17.8388 O   0  0  0  0  0  0  0  0  0  0  0  0
    9.3554  -16.9569   19.3457 C   0  0  0  0  0  0  0  0  0  0  0  0
   10.5690  -16.6391   19.3198 O   0  0  0  0  0  0  0  0  0  0  0  0
   10.1797  -21.6942   19.8857 O   0  0  0  0  0  0  0  0  0  0  0  0
    8.1216  -14.9843   22.3588 C   0  0  0  0  0  0  0  0  0  0  0  0
    9.1541  -15.6413   21.4730 C   0  0  2  0  0  0  0  0  0  0  0  0
    8.5708  -16.4364   20.4326 N   0  0  0  0  0  0  0  0  0  0  0  0
   10.1137  -16.4278   22.3081 C   0  0  0  0  0  0  0  0  0  0  0  0
    9.8211  -17.6299   22.5173 O   0  0  0  0  0  0  0  0  0  0  0  0
   11.2840  -15.8893   22.8449 N   0  0  0  0  0  0  0  0  0  0  0  0
   12.2459  -16.6349   23.6784 C   0  0  1  0  0  0  0  0  0  0  0  0
   13.5491  -16.0051   23.4942 C   0  0  0  0  0  0  0  0  0  0  0  0
   14.8186  -16.6572   23.8014 C   0  0  0  0  0  0  0  0  0  0  0  0
   16.1116  -16.0033   23.5996 C   0  0  0  0  0  0  0  0  0  0  0  0
   17.3707  -16.7370   23.8896 C   0  0  0  0  0  0  0  0  0  0  0  0
   18.5865  -16.0364   23.5558 N   0  0  0  0  0  0  0  0  0  0  0  0
   11.7489  -16.6000   25.0923 C   0  0  0  0  0  0  0  0  0  0  0  0
   12.1205  -17.4629   26.0914 O   0  0  0  0  0  0  0  0  0  0  0  0
   10.9060  -15.7017   25.4366 O   0  0  0  0  0  0  0  0  0  0  0  0
  2  1  1  6
  2  3  1  0
  3  4  1  0
  4  5  1  0
  5  6  2  0
  5  9  1  0
  7  2  1  0
  8  7  2  0
 11 10  1  1
 11 13  1  0
 11 12  1  0
 12  7  1  0
 13 15  1  0
 14 13  2  0
 15 16  1  0
 16 17  1  1
 16 22  1  0
 17 18  1  0
 18 19  1  0
 19 20  1  0
 21 20  1  0
 22 24  2  0
 22 23  1  0
M  END
$$$$
