EAK.pdb
     RDKit          3D

 24 23  0  0  1  0  0  0  0  0999 V2000
    6.1606  -17.8818   19.5898 N   0  0  0  0  0  0  0  0  0  0  0  0
    7.5108  -18.2439   19.9676 C   0  0  1  0  0  0  0  0  0  0  0  0
    8.3737  -18.4393   18.7410 C   0  0  0  0  0  0  0  0  0  0  0  0
    7.7365  -17.8019   17.5185 C   0  0  0  0  0  0  0  0  0  0  0  0
    8.5766  -18.0954   16.3399 C   0  0  0  0  0  0  0  0  0  0  0  0
    9.8115  -18.3209   16.4422 O   0  0  0  0  0  0  0  0  0  0  0  0
    8.0375  -17.2242   20.8769 C   0  0  0  0  0  0  0  0  0  0  0  0
    9.2407  -17.2512   21.2324 O   0  0  0  0  0  0  0  0  0  0  0  0
    8.0308  -18.1343   15.0611 O   0  0  0  0  0  0  0  0  0  0  0  0
    7.0282  -13.9733   22.5019 C   0  0  0  0  0  0  0  0  0  0  0  0
    7.6725  -15.3399   22.4933 C   0  0  2  0  0  0  0  0  0  0  0  0
    7.2285  -16.1583   21.4035 N   0  0  0  0  0  0  0  0  0  0  0  0
    7.4662  -16.0072   23.8158 C   0  0  0  0  0  0  0  0  0  0  0  0
    6.2800  -16.2580   24.1389 O   0  0  0  0  0  0  0  0  0  0  0  0
    8.5120  -16.3493   24.6742 N   0  0  0  0  0  0  0  0  0  0  0  0
    8.3629  -17.1593   25.8980 C   0  0  1  0  0  0  0  0  0  0  0  0
    8.3063  -18.5566   25.4815 C   0  0  0  0  0  0  0  0  0  0  0  0
    8.1980  -19.6783   26.4094 C   0  0  0  0  0  0  0  0  0  0  0  0
    8.2643  -21.0732   25.9734 C   0  0  0  0  0  0  0  0  0  0  0  0
    8.2547  -22.1687   26.9772 C   0  0  0  0  0  0  0  0  0  0  0  0
    8.4753  -23.4932   26.4503 N   0  0  0  0  0  0  0  0  0  0  0  0
    9.5168  -16.8408   26.8004 C   0  0  0  0  0  0  0  0  0  0  0  0
    9.5760  -17.1043   28.1450 O   0  0  0  0  0  0  0  0  0  0  0  0
   10.5552  -16.2760   26.3117 O   0  0  0  0  0  0  0  0  0  0  0  0
  2  1  1  6
  2  3  1  0
  3  4  1  0
  4  5  1  0
  5  6  2  0
  5  9  1  0
  7  2  1  0
  8  7  2  0
 11 10  1  1
 11 13  1  0
 11 12  1  0
 12  7  1  0
 13 15  1  0
 14 13  2  0
 15 16  1  0
 16 17  1  6
 16 22  1  0
 17 18  1  0
 18 19  1  0
 19 20  1  0
 21 20  1  0
 22 24  2  0
 22 23  1  0
M  END
$$$$
