TVN.pdb
     RDKit          3D

 23 22  0  0  1  0  0  0  0  0999 V2000
   18.9983  -12.1169  -19.7237 C   0  0  0  0  0  0  0  0  0  0  0  0
   18.9107  -11.4158  -18.3878 C   0  0  1  0  0  0  0  0  0  0  0  0
   18.8590  -12.4142  -17.4006 O   0  0  0  0  0  0  0  0  0  0  0  0
   20.0999  -10.5413  -18.1140 C   0  0  2  0  0  0  0  0  0  0  0  0
   21.3014  -11.3292  -18.2040 N   0  0  0  0  0  0  0  0  0  0  0  0
   20.0024   -9.7804  -16.8656 C   0  0  0  0  0  0  0  0  0  0  0  0
   19.0214   -9.0419  -16.6057 O   0  0  0  0  0  0  0  0  0  0  0  0
   23.3172  -10.0191  -14.0971 C   0  0  0  0  0  0  0  0  0  0  0  0
   21.9389   -9.6881  -13.6240 C   0  0  1  0  0  0  0  0  0  0  0  0
   22.0505   -8.7910  -12.4132 C   0  0  0  0  0  0  0  0  0  0  0  0
   21.0933   -9.0529  -14.7069 C   0  0  2  0  0  0  0  0  0  0  0  0
   21.0405   -9.8619  -15.8964 N   0  0  0  0  0  0  0  0  0  0  0  0
   21.6444   -7.6986  -14.9739 C   0  0  0  0  0  0  0  0  0  0  0  0
   22.7738   -7.6473  -15.5260 O   0  0  0  0  0  0  0  0  0  0  0  0
   20.9076   -2.3247  -17.3449 N   0  0  0  0  0  0  0  0  0  0  0  0
   21.4800   -3.2163  -16.4059 C   0  0  0  0  0  0  0  0  0  0  0  0
   22.5254   -2.8741  -15.8153 O   0  0  0  0  0  0  0  0  0  0  0  0
   20.8709   -4.5285  -16.1150 C   0  0  0  0  0  0  0  0  0  0  0  0
   21.6000   -5.2256  -14.9867 C   0  0  2  0  0  0  0  0  0  0  0  0
   20.9959   -6.4928  -14.6545 N   0  0  0  0  0  0  0  0  0  0  0  0
   21.5548   -4.3561  -13.7908 C   0  0  0  0  0  0  0  0  0  0  0  0
   20.7084   -4.5852  -12.8838 O   0  0  0  0  0  0  0  0  0  0  0  0
   22.4423   -3.3001  -13.6810 O   0  0  0  0  0  0  0  0  0  0  0  0
  2  3  1  0
  2  1  1  6
  4  2  1  0
  4  5  1  1
  6 12  1  0
  6  4  1  0
  7  6  2  0
  9  8  1  6
  9 11  1  0
 10  9  1  0
 11 12  1  6
 11 13  1  0
 13 20  1  0
 14 13  2  0
 16 15  1  0
 17 16  2  0
 18 16  1  0
 19 21  1  0
 19 18  1  6
 20 19  1  0
 21 23  1  0
 22 21  2  0
M  END
$$$$
