TVN.pdb
     RDKit          3D

 23 22  0  0  1  0  0  0  0  0999 V2000
   17.1895  -13.5923  -17.2397 C   0  0  0  0  0  0  0  0  0  0  0  0
   18.0132  -12.9232  -16.1637 C   0  0  1  0  0  0  0  0  0  0  0  0
   19.1037  -13.7672  -15.8945 O   0  0  0  0  0  0  0  0  0  0  0  0
   18.5445  -11.5852  -16.5894 C   0  0  2  0  0  0  0  0  0  0  0  0
   19.2517  -11.7279  -17.8351 N   0  0  0  0  0  0  0  0  0  0  0  0
   19.3284  -10.9020  -15.5570 C   0  0  0  0  0  0  0  0  0  0  0  0
   18.8892  -10.7143  -14.3964 O   0  0  0  0  0  0  0  0  0  0  0  0
   22.9995  -11.7883  -14.6685 C   0  0  0  0  0  0  0  0  0  0  0  0
   22.9163  -10.3258  -14.9638 C   0  0  1  0  0  0  0  0  0  0  0  0
   23.5219  -10.0769  -16.3257 C   0  0  0  0  0  0  0  0  0  0  0  0
   21.4992   -9.8000  -14.8842 C   0  0  2  0  0  0  0  0  0  0  0  0
   20.6354  -10.4241  -15.8520 N   0  0  0  0  0  0  0  0  0  0  0  0
   21.5552   -8.3242  -15.0519 C   0  0  0  0  0  0  0  0  0  0  0  0
   21.3724   -7.8806  -16.2151 O   0  0  0  0  0  0  0  0  0  0  0  0
   21.3336   -3.3046  -14.8193 N   0  0  0  0  0  0  0  0  0  0  0  0
   20.2139   -4.1546  -14.9873 C   0  0  0  0  0  0  0  0  0  0  0  0
   19.1294   -3.6521  -15.3478 O   0  0  0  0  0  0  0  0  0  0  0  0
   20.3036   -5.6078  -14.7472 C   0  0  0  0  0  0  0  0  0  0  0  0
   21.6793   -5.9895  -14.2445 C   0  0  2  0  0  0  0  0  0  0  0  0
   21.7951   -7.4086  -14.0124 N   0  0  0  0  0  0  0  0  0  0  0  0
   21.9251   -5.2833  -12.9681 C   0  0  0  0  0  0  0  0  0  0  0  0
   21.9224   -5.9311  -11.8856 O   0  0  0  0  0  0  0  0  0  0  0  0
   22.1551   -3.9189  -12.9765 O   0  0  0  0  0  0  0  0  0  0  0  0
  2  3  1  0
  2  1  1  6
  4  2  1  0
  4  5  1  6
  6 12  1  0
  6  4  1  0
  7  6  2  0
  9  8  1  6
  9 11  1  0
 10  9  1  0
 11 12  1  6
 11 13  1  0
 13 20  1  0
 14 13  2  0
 16 15  1  0
 17 16  2  0
 18 16  1  0
 19 21  1  0
 19 18  1  1
 20 19  1  0
 21 23  1  0
 22 21  2  0
M  END
$$$$
