TVN.pdb
     RDKit          3D

 23 22  0  0  1  0  0  0  0  0999 V2000
   26.0943  -18.6069  -16.7667 C   0  0  0  0  0  0  0  0  0  0  0  0
   27.0947  -18.2713  -15.6848 C   0  0  1  0  0  0  0  0  0  0  0  0
   26.4015  -17.5663  -14.6865 O   0  0  0  0  0  0  0  0  0  0  0  0
   27.7062  -19.4931  -15.0628 C   0  0  2  0  0  0  0  0  0  0  0  0
   28.5679  -20.1350  -16.0208 N   0  0  0  0  0  0  0  0  0  0  0  0
   26.7294  -20.4066  -14.4641 C   0  0  0  0  0  0  0  0  0  0  0  0
   26.2051  -21.3454  -15.1115 O   0  0  0  0  0  0  0  0  0  0  0  0
   27.0365  -21.8629  -10.8127 C   0  0  0  0  0  0  0  0  0  0  0  0
   25.6636  -21.3038  -11.0007 C   0  0  1  0  0  0  0  0  0  0  0  0
   25.5441  -20.0409  -10.1795 C   0  0  0  0  0  0  0  0  0  0  0  0
   25.3376  -21.0495  -12.4568 C   0  0  2  0  0  0  0  0  0  0  0  0
   26.3429  -20.2479  -13.1043 N   0  0  0  0  0  0  0  0  0  0  0  0
   23.9935  -20.4177  -12.5149 C   0  0  0  0  0  0  0  0  0  0  0  0
   23.9476  -19.1715  -12.3481 O   0  0  0  0  0  0  0  0  0  0  0  0
   19.7245  -19.4769  -15.1135 N   0  0  0  0  0  0  0  0  0  0  0  0
   20.9980  -19.6747  -15.6996 C   0  0  0  0  0  0  0  0  0  0  0  0
   21.1709  -19.3293  -16.8868 O   0  0  0  0  0  0  0  0  0  0  0  0
   22.1129  -20.2748  -14.9419 C   0  0  0  0  0  0  0  0  0  0  0  0
   21.7248  -20.5023  -13.4968 C   0  0  2  0  0  0  0  0  0  0  0  0
   22.7916  -21.1114  -12.7403 N   0  0  0  0  0  0  0  0  0  0  0  0
   20.5514  -21.4025  -13.4621 C   0  0  0  0  0  0  0  0  0  0  0  0
   20.7236  -22.6507  -13.3988 O   0  0  0  0  0  0  0  0  0  0  0  0
   19.2772  -20.8643  -13.4999 O   0  0  0  0  0  0  0  0  0  0  0  0
  2  3  1  0
  2  1  1  6
  4  2  1  0
  4  5  1  6
  6 12  1  0
  6  4  1  0
  7  6  2  0
  9  8  1  6
  9 11  1  0
 10  9  1  0
 11 12  1  1
 11 13  1  0
 13 20  1  0
 14 13  2  0
 16 15  1  0
 17 16  2  0
 18 16  1  0
 19 21  1  0
 19 18  1  6
 20 19  1  0
 21 23  1  0
 22 21  2  0
M  END
$$$$
