TVN.pdb
     RDKit          3D

 23 22  0  0  1  0  0  0  0  0999 V2000
   13.9763   -6.0205   -7.9274 C   0  0  0  0  0  0  0  0  0  0  0  0
   15.0233   -6.7564   -8.7313 C   0  0  1  0  0  0  0  0  0  0  0  0
   15.9609   -7.2670   -7.8180 O   0  0  0  0  0  0  0  0  0  0  0  0
   14.4520   -7.9033   -9.5135 C   0  0  2  0  0  0  0  0  0  0  0  0
   13.8092   -8.8223   -8.6110 N   0  0  0  0  0  0  0  0  0  0  0  0
   15.4164   -8.5522  -10.4057 C   0  0  0  0  0  0  0  0  0  0  0  0
   15.8864   -9.6917  -10.1697 O   0  0  0  0  0  0  0  0  0  0  0  0
   15.5113  -10.1872  -13.5470 C   0  0  0  0  0  0  0  0  0  0  0  0
   16.3110   -8.9417  -13.7526 C   0  0  1  0  0  0  0  0  0  0  0  0
   15.4371   -7.9197  -14.4420 C   0  0  0  0  0  0  0  0  0  0  0  0
   16.8799   -8.4001  -12.4587 C   0  0  2  0  0  0  0  0  0  0  0  0
   15.8532   -7.8913  -11.5873 N   0  0  0  0  0  0  0  0  0  0  0  0
   17.8850   -7.3620  -12.8070 C   0  0  0  0  0  0  0  0  0  0  0  0
   17.4684   -6.1775  -12.8884 O   0  0  0  0  0  0  0  0  0  0  0  0
   22.7907   -4.7970  -12.9047 N   0  0  0  0  0  0  0  0  0  0  0  0
   22.4883   -5.8800  -13.7650 C   0  0  0  0  0  0  0  0  0  0  0  0
   22.9955   -5.8983  -14.9057 O   0  0  0  0  0  0  0  0  0  0  0  0
   21.5947   -6.9760  -13.3435 C   0  0  0  0  0  0  0  0  0  0  0  0
   20.1474   -6.5337  -13.3667 C   0  0  2  0  0  0  0  0  0  0  0  0
   19.2470   -7.6146  -13.0470 N   0  0  0  0  0  0  0  0  0  0  0  0
   19.8284   -6.0430  -14.7252 C   0  0  0  0  0  0  0  0  0  0  0  0
   19.6100   -6.8700  -15.6526 O   0  0  0  0  0  0  0  0  0  0  0  0
   19.7733   -4.6811  -14.9633 O   0  0  0  0  0  0  0  0  0  0  0  0
  2  3  1  0
  2  1  1  1
  4  2  1  0
  4  5  1  1
  6 12  1  0
  6  4  1  0
  7  6  2  0
  9  8  1  1
  9 11  1  0
 10  9  1  0
 11 12  1  1
 11 13  1  0
 13 20  1  0
 14 13  2  0
 16 15  1  0
 17 16  2  0
 18 16  1  0
 19 21  1  0
 19 18  1  6
 20 19  1  0
 21 23  1  0
 22 21  2  0
M  END
$$$$
