TVN.pdb
     RDKit          3D

 23 22  0  0  1  0  0  0  0  0999 V2000
   17.0587  -11.6837  -18.4028 C   0  0  0  0  0  0  0  0  0  0  0  0
   17.7436  -10.8431  -17.3501 C   0  0  1  0  0  0  0  0  0  0  0  0
   16.7335  -10.2539  -16.5713 O   0  0  0  0  0  0  0  0  0  0  0  0
   18.6258  -11.6539  -16.4456 C   0  0  2  0  0  0  0  0  0  0  0  0
   17.8678  -12.7472  -15.8957 N   0  0  0  0  0  0  0  0  0  0  0  0
   19.3175  -10.8620  -15.4251 C   0  0  0  0  0  0  0  0  0  0  0  0
   18.8587  -10.7146  -14.2662 O   0  0  0  0  0  0  0  0  0  0  0  0
   22.8646  -11.0401  -13.9854 C   0  0  0  0  0  0  0  0  0  0  0  0
   22.6965   -9.7168  -14.6589 C   0  0  1  0  0  0  0  0  0  0  0  0
   23.4174   -9.7599  -15.9863 C   0  0  0  0  0  0  0  0  0  0  0  0
   21.2416   -9.3371  -14.8317 C   0  0  2  0  0  0  0  0  0  0  0  0
   20.5533  -10.2268  -15.7301 N   0  0  0  0  0  0  0  0  0  0  0  0
   21.1953   -7.9257  -15.2955 C   0  0  0  0  0  0  0  0  0  0  0  0
   21.2411   -7.7381  -16.5388 O   0  0  0  0  0  0  0  0  0  0  0  0
   19.0474   -2.8740  -16.0749 N   0  0  0  0  0  0  0  0  0  0  0  0
   19.9048   -3.3074  -15.0349 C   0  0  0  0  0  0  0  0  0  0  0  0
   20.7079   -2.4891  -14.5408 O   0  0  0  0  0  0  0  0  0  0  0  0
   19.8674   -4.6932  -14.5292 C   0  0  0  0  0  0  0  0  0  0  0  0
   21.0770   -5.4731  -14.9976 C   0  0  2  0  0  0  0  0  0  0  0  0
   21.1054   -6.8070  -14.4488 N   0  0  0  0  0  0  0  0  0  0  0  0
   22.2953   -4.7585  -14.5579 C   0  0  0  0  0  0  0  0  0  0  0  0
   22.7099   -4.9007  -13.3749 O   0  0  0  0  0  0  0  0  0  0  0  0
   22.9665   -3.9413  -15.4503 O   0  0  0  0  0  0  0  0  0  0  0  0
  2  3  1  0
  2  1  1  6
  4  2  1  0
  4  5  1  1
  6 12  1  0
  6  4  1  0
  7  6  2  0
  9  8  1  6
  9 11  1  0
 10  9  1  0
 11 12  1  6
 11 13  1  0
 13 20  1  0
 14 13  2  0
 16 15  1  0
 17 16  2  0
 18 16  1  0
 19 21  1  0
 19 18  1  1
 20 19  1  0
 21 23  1  0
 22 21  2  0
M  END
$$$$
