TVN.pdb
     RDKit          3D

 23 22  0  0  1  0  0  0  0  0999 V2000
   15.0503  -13.3511  -10.9635 C   0  0  0  0  0  0  0  0  0  0  0  0
   15.1762  -11.8841  -11.3040 C   0  0  1  0  0  0  0  0  0  0  0  0
   14.6714  -11.7179  -12.6047 O   0  0  0  0  0  0  0  0  0  0  0  0
   14.3897  -11.0048  -10.3756 C   0  0  2  0  0  0  0  0  0  0  0  0
   13.0184  -11.4423  -10.3526 N   0  0  0  0  0  0  0  0  0  0  0  0
   14.5327   -9.5727  -10.6509 C   0  0  0  0  0  0  0  0  0  0  0  0
   13.7184   -8.9438  -11.3696 O   0  0  0  0  0  0  0  0  0  0  0  0
   13.8847   -6.6902   -8.9270 C   0  0  0  0  0  0  0  0  0  0  0  0
   15.3636   -6.6108   -9.1256 C   0  0  1  0  0  0  0  0  0  0  0  0
   16.0425   -7.0406   -7.8458 C   0  0  0  0  0  0  0  0  0  0  0  0
   15.8334   -7.4355  -10.3047 C   0  0  2  0  0  0  0  0  0  0  0  0
   15.6223   -8.8444  -10.0979 N   0  0  0  0  0  0  0  0  0  0  0  0
   17.2647   -7.1116  -10.5405 C   0  0  0  0  0  0  0  0  0  0  0  0
   18.1104   -7.8007   -9.9135 O   0  0  0  0  0  0  0  0  0  0  0  0
   21.7393   -5.9622  -12.6553 N   0  0  0  0  0  0  0  0  0  0  0  0
   20.9986   -7.1435  -12.9008 C   0  0  0  0  0  0  0  0  0  0  0  0
   21.5634   -8.0953  -13.4783 O   0  0  0  0  0  0  0  0  0  0  0  0
   19.5865   -7.2697  -12.4912 C   0  0  0  0  0  0  0  0  0  0  0  0
   19.1207   -6.0268  -11.7639 C   0  0  2  0  0  0  0  0  0  0  0  0
   17.7258   -6.1024  -11.4039 N   0  0  0  0  0  0  0  0  0  0  0  0
   19.3133   -4.8618  -12.6549 C   0  0  0  0  0  0  0  0  0  0  0  0
   18.3601   -4.4666  -13.3808 O   0  0  0  0  0  0  0  0  0  0  0  0
   20.5381   -4.2186  -12.6819 O   0  0  0  0  0  0  0  0  0  0  0  0
  2  3  1  0
  2  1  1  1
  4  2  1  0
  4  5  1  6
  6 12  1  0
  6  4  1  0
  7  6  2  0
  9  8  1  1
  9 11  1  0
 10  9  1  0
 11 12  1  1
 11 13  1  0
 13 20  1  0
 14 13  2  0
 16 15  1  0
 17 16  2  0
 18 16  1  0
 19 21  1  0
 19 18  1  6
 20 19  1  0
 21 23  1  0
 22 21  2  0
M  END
$$$$
