TVN.pdb
     RDKit          3D

 23 22  0  0  1  0  0  0  0  0999 V2000
   25.2772  -18.7548  -15.1079 C   0  0  0  0  0  0  0  0  0  0  0  0
   25.9328  -20.0856  -15.3961 C   0  0  1  0  0  0  0  0  0  0  0  0
   27.2474  -19.8160  -15.8125 O   0  0  0  0  0  0  0  0  0  0  0  0
   25.9924  -20.9751  -14.1882 C   0  0  2  0  0  0  0  0  0  0  0  0
   26.8036  -22.1269  -14.4843 N   0  0  0  0  0  0  0  0  0  0  0  0
   24.6781  -21.3216  -13.6408 C   0  0  0  0  0  0  0  0  0  0  0  0
   23.9096  -22.1361  -14.2076 O   0  0  0  0  0  0  0  0  0  0  0  0
   23.9560  -21.4179   -9.5783 C   0  0  0  0  0  0  0  0  0  0  0  0
   22.9293  -20.6572  -10.3530 C   0  0  1  0  0  0  0  0  0  0  0  0
   23.1527  -19.1805  -10.1230 C   0  0  0  0  0  0  0  0  0  0  0  0
   22.9497  -20.9965  -11.8279 C   0  0  2  0  0  0  0  0  0  0  0  0
   24.2315  -20.7300  -12.4266 N   0  0  0  0  0  0  0  0  0  0  0  0
   21.8555  -20.2325  -12.4822 C   0  0  0  0  0  0  0  0  0  0  0  0
   22.0297  -18.9929  -12.6087 O   0  0  0  0  0  0  0  0  0  0  0  0
   19.3802  -19.8193  -17.6557 N   0  0  0  0  0  0  0  0  0  0  0  0
   19.3454  -19.6027  -16.2570 C   0  0  0  0  0  0  0  0  0  0  0  0
   18.6445  -18.6698  -15.8129 O   0  0  0  0  0  0  0  0  0  0  0  0
   20.1133  -20.4497  -15.3241 C   0  0  0  0  0  0  0  0  0  0  0  0
   19.8263  -20.0704  -13.8873 C   0  0  2  0  0  0  0  0  0  0  0  0
   20.6597  -20.7965  -12.9601 N   0  0  0  0  0  0  0  0  0  0  0  0
   18.4113  -20.3852  -13.5925 C   0  0  0  0  0  0  0  0  0  0  0  0
   17.5565  -19.4576  -13.5720 O   0  0  0  0  0  0  0  0  0  0  0  0
   18.0415  -21.6948  -13.3421 O   0  0  0  0  0  0  0  0  0  0  0  0
  2  3  1  0
  2  1  1  1
  4  2  1  0
  4  5  1  6
  6 12  1  0
  6  4  1  0
  7  6  2  0
  9  8  1  1
  9 11  1  0
 10  9  1  0
 11 12  1  6
 11 13  1  0
 13 20  1  0
 14 13  2  0
 16 15  1  0
 17 16  2  0
 18 16  1  0
 19 21  1  0
 19 18  1  6
 20 19  1  0
 21 23  1  0
 22 21  2  0
M  END
$$$$
