TVN.pdb
     RDKit          3D

 23 22  0  0  1  0  0  0  0  0999 V2000
   18.0052  -11.5395  -20.0242 C   0  0  0  0  0  0  0  0  0  0  0  0
   18.5110  -11.4913  -18.6010 C   0  0  1  0  0  0  0  0  0  0  0  0
   18.9924  -12.7743  -18.2906 O   0  0  0  0  0  0  0  0  0  0  0  0
   19.6313  -10.5089  -18.4178 C   0  0  2  0  0  0  0  0  0  0  0  0
   20.7177  -10.8559  -19.2962 N   0  0  0  0  0  0  0  0  0  0  0  0
   20.0496  -10.3387  -17.0238 C   0  0  0  0  0  0  0  0  0  0  0  0
   19.2369  -10.0574  -16.1097 O   0  0  0  0  0  0  0  0  0  0  0  0
   22.7562  -12.6822  -15.1478 C   0  0  0  0  0  0  0  0  0  0  0  0
   23.1047  -11.2323  -15.0505 C   0  0  1  0  0  0  0  0  0  0  0  0
   24.2438  -10.9485  -16.0021 C   0  0  0  0  0  0  0  0  0  0  0  0
   21.9182  -10.3333  -15.3245 C   0  0  2  0  0  0  0  0  0  0  0  0
   21.4176  -10.4915  -16.6649 N   0  0  0  0  0  0  0  0  0  0  0  0
   22.3369   -8.9350  -15.0437 C   0  0  0  0  0  0  0  0  0  0  0  0
   23.4861   -8.6009  -15.4320 O   0  0  0  0  0  0  0  0  0  0  0  0
   22.8246   -3.9708  -14.3233 N   0  0  0  0  0  0  0  0  0  0  0  0
   22.6352   -4.5991  -15.5778 C   0  0  0  0  0  0  0  0  0  0  0  0
   22.8334   -3.9349  -16.6162 O   0  0  0  0  0  0  0  0  0  0  0  0
   22.2127   -6.0093  -15.6802 C   0  0  0  0  0  0  0  0  0  0  0  0
   21.9684   -6.6020  -14.3092 C   0  0  2  0  0  0  0  0  0  0  0  0
   21.5450   -7.9791  -14.3836 N   0  0  0  0  0  0  0  0  0  0  0  0
   20.9051   -5.8193  -13.6422 C   0  0  0  0  0  0  0  0  0  0  0  0
   21.0836   -4.5915  -13.4137 O   0  0  0  0  0  0  0  0  0  0  0  0
   19.7259   -6.4438  -13.2761 O   0  0  0  0  0  0  0  0  0  0  0  0
  2  3  1  0
  2  1  1  6
  4  2  1  0
  4  5  1  6
  6 12  1  0
  6  4  1  0
  7  6  2  0
  9  8  1  6
  9 11  1  0
 10  9  1  0
 11 12  1  6
 11 13  1  0
 13 20  1  0
 14 13  2  0
 16 15  1  0
 17 16  2  0
 18 16  1  0
 19 21  1  0
 19 18  1  6
 20 19  1  0
 21 23  1  0
 22 21  2  0
M  END
$$$$
