TVN.pdb
     RDKit          3D

 23 22  0  0  1  0  0  0  0  0999 V2000
   19.1269  -14.0024  -18.2972 C   0  0  0  0  0  0  0  0  0  0  0  0
   19.1232  -15.3092  -17.5380 C   0  0  1  0  0  0  0  0  0  0  0  0
   18.8854  -16.3294  -18.4744 O   0  0  0  0  0  0  0  0  0  0  0  0
   20.4324  -15.5872  -16.8580 C   0  0  2  0  0  0  0  0  0  0  0  0
   20.4083  -16.9152  -16.3029 N   0  0  0  0  0  0  0  0  0  0  0  0
   20.8256  -14.5638  -15.8859 C   0  0  0  0  0  0  0  0  0  0  0  0
   20.1862  -14.3674  -14.8239 O   0  0  0  0  0  0  0  0  0  0  0  0
   24.4933  -12.4092  -16.5784 C   0  0  0  0  0  0  0  0  0  0  0  0
   23.8852  -12.5274  -15.2186 C   0  0  1  0  0  0  0  0  0  0  0  0
   24.2984  -11.3244  -14.4028 C   0  0  0  0  0  0  0  0  0  0  0  0
   22.3791  -12.6701  -15.2695 C   0  0  2  0  0  0  0  0  0  0  0  0
   21.9668  -13.7497  -16.1279 N   0  0  0  0  0  0  0  0  0  0  0  0
   21.8162  -11.3641  -15.7014 C   0  0  0  0  0  0  0  0  0  0  0  0
   21.8213  -11.1279  -16.9372 O   0  0  0  0  0  0  0  0  0  0  0  0
   19.5573   -6.8215  -16.2322 N   0  0  0  0  0  0  0  0  0  0  0  0
   18.7388   -7.7376  -15.5284 C   0  0  0  0  0  0  0  0  0  0  0  0
   17.5489   -7.4308  -15.3082 O   0  0  0  0  0  0  0  0  0  0  0  0
   19.2600   -9.0347  -15.0555 C   0  0  0  0  0  0  0  0  0  0  0  0
   20.7380   -9.1653  -15.3536 C   0  0  2  0  0  0  0  0  0  0  0  0
   21.2878  -10.3932  -14.8327 N   0  0  0  0  0  0  0  0  0  0  0  0
   21.4460   -8.0295  -14.7235 C   0  0  0  0  0  0  0  0  0  0  0  0
   22.1628   -8.2282  -13.7045 O   0  0  0  0  0  0  0  0  0  0  0  0
   21.3134   -6.7608  -15.2597 O   0  0  0  0  0  0  0  0  0  0  0  0
  2  3  1  0
  2  1  1  6
  4  2  1  0
  4  5  1  1
  6 12  1  0
  6  4  1  0
  7  6  2  0
  9  8  1  6
  9 11  1  0
 10  9  1  0
 11 12  1  6
 11 13  1  0
 13 20  1  0
 14 13  2  0
 16 15  1  0
 17 16  2  0
 18 16  1  0
 19 21  1  0
 19 18  1  1
 20 19  1  0
 21 23  1  0
 22 21  2  0
M  END
$$$$
