CSM.pdb
     RDKit          3D

 21 20  0  0  1  0  0  0  0  0999 V2000
   25.9918  -15.4455  -17.4484 N   0  0  0  0  0  0  0  0  0  0  0  0
   25.9544  -14.0628  -17.9303 C   0  0  1  0  0  0  0  0  0  0  0  0
   24.9557  -14.0296  -19.0792 C   0  0  0  0  0  0  0  0  0  0  0  0
   25.6863  -14.9021  -20.5146 S   0  0  0  0  0  0  0  0  0  0  0  0
   25.4377  -13.1876  -16.8578 C   0  0  0  0  0  0  0  0  0  0  0  0
   24.5738  -13.6110  -16.0271 O   0  0  0  0  0  0  0  0  0  0  0  0
   27.3368   -9.7748  -16.3036 O   0  0  0  0  0  0  0  0  0  0  0  0
   26.5731  -10.1317  -15.1917 C   0  0  0  0  0  0  0  0  0  0  0  0
   25.4453  -11.0140  -15.7246 C   0  0  2  0  0  0  0  0  0  0  0  0
   25.9306  -11.8569  -16.7763 N   0  0  0  0  0  0  0  0  0  0  0  0
   24.4116  -10.0612  -16.2438 C   0  0  0  0  0  0  0  0  0  0  0  0
   24.5816   -9.6134  -17.4032 O   0  0  0  0  0  0  0  0  0  0  0  0
   19.5187  -12.2740  -19.0120 C   0  0  0  0  0  0  0  0  0  0  0  0
   19.4955  -11.1895  -17.5704 S   0  0  0  0  0  0  0  0  0  0  0  0
   21.0582  -10.2382  -17.5141 C   0  0  0  0  0  0  0  0  0  0  0  0
   21.0303   -9.3949  -16.2826 C   0  0  0  0  0  0  0  0  0  0  0  0
   22.3517   -8.7063  -16.0556 C   0  0  2  0  0  0  0  0  0  0  0  0
   23.2946   -9.6782  -15.4735 N   0  0  0  0  0  0  0  0  0  0  0  0
   22.2838   -7.5893  -15.0965 C   0  0  0  0  0  0  0  0  0  0  0  0
   22.8275   -7.6408  -13.9737 O   0  0  0  0  0  0  0  0  0  0  0  0
   21.6094   -6.4265  -15.4076 O   0  0  0  0  0  0  0  0  0  0  0  0
  2  1  1  1
  3  2  1  0
  4  3  1  0
  5  2  1  0
  6  5  2  0
  7  8  1  0
  9  8  1  6
  9 11  1  0
  9 10  1  0
 10  5  1  0
 11 12  2  0
 14 13  1  0
 14 15  1  0
 15 16  1  0
 17 16  1  1
 18 17  1  0
 18 11  1  0
 19 21  1  0
 19 17  1  0
 20 19  2  0
M  END
$$$$
