CSM.pdb
     RDKit          3D

 21 20  0  0  1  0  0  0  0  0999 V2000
   19.1966  -16.7657  -17.1495 N   0  0  0  0  0  0  0  0  0  0  0  0
   19.5501  -15.7451  -18.1390 C   0  0  1  0  0  0  0  0  0  0  0  0
   18.2715  -15.4121  -18.8959 C   0  0  0  0  0  0  0  0  0  0  0  0
   17.8758  -16.8054  -20.0171 S   0  0  0  0  0  0  0  0  0  0  0  0
   19.9920  -14.5212  -17.4391 C   0  0  0  0  0  0  0  0  0  0  0  0
   19.3240  -14.0455  -16.4679 O   0  0  0  0  0  0  0  0  0  0  0  0
   23.8835  -13.2819  -16.8607 O   0  0  0  0  0  0  0  0  0  0  0  0
   23.0755  -12.3922  -17.5698 C   0  0  0  0  0  0  0  0  0  0  0  0
   21.6382  -12.7247  -17.1724 C   0  0  2  0  0  0  0  0  0  0  0  0
   21.1852  -13.8859  -17.8784 N   0  0  0  0  0  0  0  0  0  0  0  0
   20.8338  -11.5214  -17.5609 C   0  0  0  0  0  0  0  0  0  0  0  0
   20.3507  -11.5092  -18.7186 O   0  0  0  0  0  0  0  0  0  0  0  0
   14.5641   -7.8064  -17.4117 C   0  0  0  0  0  0  0  0  0  0  0  0
   15.7083   -9.0973  -16.8835 S   0  0  0  0  0  0  0  0  0  0  0  0
   17.4201   -8.5657  -17.2545 C   0  0  0  0  0  0  0  0  0  0  0  0
   18.3334   -9.6836  -16.8743 C   0  0  0  0  0  0  0  0  0  0  0  0
   19.7758   -9.3285  -17.1292 C   0  0  2  0  0  0  0  0  0  0  0  0
   20.6226  -10.4458  -16.6742 N   0  0  0  0  0  0  0  0  0  0  0  0
   20.2382   -8.1447  -16.3829 C   0  0  0  0  0  0  0  0  0  0  0  0
   21.0321   -8.2302  -15.4228 O   0  0  0  0  0  0  0  0  0  0  0  0
   19.8077   -6.8786  -16.7224 O   0  0  0  0  0  0  0  0  0  0  0  0
  2  1  1  1
  3  2  1  0
  4  3  1  0
  5  2  1  0
  6  5  2  0
  7  8  1  0
  9  8  1  6
  9 11  1  0
  9 10  1  0
 10  5  1  0
 11 12  2  0
 14 13  1  0
 14 15  1  0
 15 16  1  0
 17 16  1  1
 18 17  1  0
 18 11  1  0
 19 21  1  0
 19 17  1  0
 20 19  2  0
M  END
$$$$
