CSM.pdb
     RDKit          3D

 21 20  0  0  1  0  0  0  0  0999 V2000
   18.2080  -11.5462  -17.5408 N   0  0  0  0  0  0  0  0  0  0  0  0
   19.5418  -10.9870  -17.7726 C   0  0  1  0  0  0  0  0  0  0  0  0
   19.4385  -10.1182  -19.0188 C   0  0  0  0  0  0  0  0  0  0  0  0
   19.7003  -11.1751  -20.4918 S   0  0  0  0  0  0  0  0  0  0  0  0
   19.9053  -10.1103  -16.6402 C   0  0  0  0  0  0  0  0  0  0  0  0
   19.0331   -9.3823  -16.0700 O   0  0  0  0  0  0  0  0  0  0  0  0
   23.7102  -10.2080  -15.4455 O   0  0  0  0  0  0  0  0  0  0  0  0
   22.8803   -9.7225  -14.4343 C   0  0  0  0  0  0  0  0  0  0  0  0
   21.6203   -9.2158  -15.1343 C   0  0  2  0  0  0  0  0  0  0  0  0
   21.2574  -10.0995  -16.2017 N   0  0  0  0  0  0  0  0  0  0  0  0
   21.9827   -7.8628  -15.6670 C   0  0  0  0  0  0  0  0  0  0  0  0
   22.1634   -7.7681  -16.9047 O   0  0  0  0  0  0  0  0  0  0  0  0
   20.1109   -4.8331  -19.3027 C   0  0  0  0  0  0  0  0  0  0  0  0
   20.2820   -3.4024  -18.2171 S   0  0  0  0  0  0  0  0  0  0  0  0
   21.6208   -3.7248  -17.0114 C   0  0  0  0  0  0  0  0  0  0  0  0
   21.3922   -5.0822  -16.4337 C   0  0  0  0  0  0  0  0  0  0  0  0
   22.4674   -5.4484  -15.4430 C   0  0  2  0  0  0  0  0  0  0  0  0
   22.1173   -6.7399  -14.8251 N   0  0  0  0  0  0  0  0  0  0  0  0
   22.6002   -4.4932  -14.3285 C   0  0  0  0  0  0  0  0  0  0  0  0
   22.0196   -4.6592  -13.2356 O   0  0  0  0  0  0  0  0  0  0  0  0
   23.3838   -3.3641  -14.4506 O   0  0  0  0  0  0  0  0  0  0  0  0
  2  1  1  1
  3  2  1  0
  4  3  1  0
  5  2  1  0
  6  5  2  0
  7  8  1  0
  9  8  1  6
  9 11  1  0
  9 10  1  0
 10  5  1  0
 11 12  2  0
 14 13  1  0
 14 15  1  0
 15 16  1  0
 17 16  1  6
 18 17  1  0
 18 11  1  0
 19 21  1  0
 19 17  1  0
 20 19  2  0
M  END
$$$$
