CSM.pdb
     RDKit          3D

 21 20  0  0  1  0  0  0  0  0999 V2000
   13.9551   -9.7527  -16.0250 N   0  0  0  0  0  0  0  0  0  0  0  0
   14.2888   -8.5391  -15.2757 C   0  0  1  0  0  0  0  0  0  0  0  0
   14.2023   -8.9020  -13.7994 C   0  0  0  0  0  0  0  0  0  0  0  0
   12.4530   -8.7835  -13.2695 S   0  0  0  0  0  0  0  0  0  0  0  0
   15.6865   -8.1573  -15.5654 C   0  0  0  0  0  0  0  0  0  0  0  0
   16.6111   -9.0292  -15.5911 O   0  0  0  0  0  0  0  0  0  0  0  0
   16.7689   -4.1889  -15.8399 O   0  0  0  0  0  0  0  0  0  0  0  0
   17.3241   -5.0285  -16.8063 C   0  0  0  0  0  0  0  0  0  0  0  0
   17.3068   -6.4314  -16.2014 C   0  0  2  0  0  0  0  0  0  0  0  0
   15.9742   -6.7880  -15.8155 N   0  0  0  0  0  0  0  0  0  0  0  0
   18.2026   -6.3546  -15.0025 C   0  0  0  0  0  0  0  0  0  0  0  0
   17.6479   -6.2251  -13.8848 O   0  0  0  0  0  0  0  0  0  0  0  0
   23.2390  -10.0178  -13.6417 C   0  0  0  0  0  0  0  0  0  0  0  0
   22.3902   -9.4928  -12.1388 S   0  0  0  0  0  0  0  0  0  0  0  0
   21.7814   -7.7814  -12.3641 C   0  0  0  0  0  0  0  0  0  0  0  0
   20.9769   -7.7492  -13.6211 C   0  0  0  0  0  0  0  0  0  0  0  0
   20.4024   -6.3788  -13.8734 C   0  0  2  0  0  0  0  0  0  0  0  0
   19.6065   -6.4236  -15.1132 N   0  0  0  0  0  0  0  0  0  0  0  0
   21.4219   -5.3364  -14.0885 C   0  0  0  0  0  0  0  0  0  0  0  0
   22.0803   -4.8440  -13.1487 O   0  0  0  0  0  0  0  0  0  0  0  0
   21.6936   -4.8595  -15.3544 O   0  0  0  0  0  0  0  0  0  0  0  0
  2  1  1  6
  3  2  1  0
  4  3  1  0
  5  2  1  0
  6  5  2  0
  7  8  1  0
  9  8  1  1
  9 11  1  0
  9 10  1  0
 10  5  1  0
 11 12  2  0
 14 13  1  0
 14 15  1  0
 15 16  1  0
 17 16  1  6
 18 17  1  0
 18 11  1  0
 19 21  1  0
 19 17  1  0
 20 19  2  0
M  END
$$$$
