CSM.pdb
     RDKit          3D

 21 20  0  0  1  0  0  0  0  0999 V2000
   26.5707  -19.3968  -10.2166 N   0  0  0  0  0  0  0  0  0  0  0  0
   26.1599  -20.7391  -10.6352 C   0  0  1  0  0  0  0  0  0  0  0  0
   24.9609  -21.1148   -9.7750 C   0  0  0  0  0  0  0  0  0  0  0  0
   25.5114  -21.2550   -8.0336 S   0  0  0  0  0  0  0  0  0  0  0  0
   25.7098  -20.6937  -12.0417 C   0  0  0  0  0  0  0  0  0  0  0  0
   24.9822  -19.7413  -12.4655 O   0  0  0  0  0  0  0  0  0  0  0  0
   27.8565  -22.3234  -14.9840 O   0  0  0  0  0  0  0  0  0  0  0  0
   26.5150  -22.6844  -15.1151 C   0  0  0  0  0  0  0  0  0  0  0  0
   25.7259  -21.6683  -14.2908 C   0  0  2  0  0  0  0  0  0  0  0  0
   26.1103  -21.7430  -12.9129 N   0  0  0  0  0  0  0  0  0  0  0  0
   24.2880  -22.0546  -14.4612 C   0  0  0  0  0  0  0  0  0  0  0  0
   23.8168  -22.8729  -13.6354 O   0  0  0  0  0  0  0  0  0  0  0  0
   20.4426  -21.9103  -11.5955 C   0  0  0  0  0  0  0  0  0  0  0  0
   19.6791  -21.4801  -13.1725 S   0  0  0  0  0  0  0  0  0  0  0  0
   20.4932  -19.9833  -13.8410 C   0  0  0  0  0  0  0  0  0  0  0  0
   21.9231  -20.3240  -14.1012 C   0  0  0  0  0  0  0  0  0  0  0  0
   22.0577  -21.3135  -15.2302 C   0  0  2  0  0  0  0  0  0  0  0  0
   23.4910  -21.5286  -15.4985 N   0  0  0  0  0  0  0  0  0  0  0  0
   21.4768  -20.8480  -16.5021 C   0  0  0  0  0  0  0  0  0  0  0  0
   21.9390  -19.8715  -17.1282 O   0  0  0  0  0  0  0  0  0  0  0  0
   20.3862  -21.4835  -17.0593 O   0  0  0  0  0  0  0  0  0  0  0  0
  2  1  1  1
  3  2  1  0
  4  3  1  0
  5  2  1  0
  6  5  2  0
  7  8  1  0
  9  8  1  6
  9 11  1  0
  9 10  1  0
 10  5  1  0
 11 12  2  0
 14 13  1  0
 14 15  1  0
 15 16  1  0
 17 16  1  1
 18 17  1  0
 18 11  1  0
 19 21  1  0
 19 17  1  0
 20 19  2  0
M  END
$$$$
