CSM.pdb
     RDKit          3D

 21 20  0  0  1  0  0  0  0  0999 V2000
   17.9956  -12.5203  -17.9238 N   0  0  0  0  0  0  0  0  0  0  0  0
   17.7650  -11.7204  -16.7185 C   0  0  1  0  0  0  0  0  0  0  0  0
   18.2620  -12.5515  -15.5434 C   0  0  0  0  0  0  0  0  0  0  0  0
   16.9011  -13.6407  -14.9803 S   0  0  0  0  0  0  0  0  0  0  0  0
   18.5869  -10.4943  -16.7837 C   0  0  0  0  0  0  0  0  0  0  0  0
   19.7939  -10.5359  -17.1802 O   0  0  0  0  0  0  0  0  0  0  0  0
   17.2762   -7.0236  -15.0810 O   0  0  0  0  0  0  0  0  0  0  0  0
   17.8577   -6.8387  -16.3359 C   0  0  0  0  0  0  0  0  0  0  0  0
   18.7487   -8.0579  -16.5679 C   0  0  2  0  0  0  0  0  0  0  0  0
   17.9948   -9.2631  -16.3914 N   0  0  0  0  0  0  0  0  0  0  0  0
   19.8324   -7.9555  -15.5379 C   0  0  0  0  0  0  0  0  0  0  0  0
   19.9456   -8.9116  -14.7338 O   0  0  0  0  0  0  0  0  0  0  0  0
   26.4883   -9.9471  -14.4895 C   0  0  0  0  0  0  0  0  0  0  0  0
   24.9586   -9.6345  -15.3934 S   0  0  0  0  0  0  0  0  0  0  0  0
   24.0653   -8.2513  -14.5942 C   0  0  0  0  0  0  0  0  0  0  0  0
   22.7689   -8.0746  -15.3130 C   0  0  0  0  0  0  0  0  0  0  0  0
   21.9413   -6.9764  -14.6961 C   0  0  2  0  0  0  0  0  0  0  0  0
   20.6919   -6.8401  -15.4661 N   0  0  0  0  0  0  0  0  0  0  0  0
   22.5848   -5.6511  -14.7377 C   0  0  0  0  0  0  0  0  0  0  0  0
   22.3605   -4.8296  -15.6509 O   0  0  0  0  0  0  0  0  0  0  0  0
   23.4705   -5.2608  -13.7543 O   0  0  0  0  0  0  0  0  0  0  0  0
  2  1  1  6
  3  2  1  0
  4  3  1  0
  5  2  1  0
  6  5  2  0
  7  8  1  0
  9  8  1  1
  9 11  1  0
  9 10  1  0
 10  5  1  0
 11 12  2  0
 14 13  1  0
 14 15  1  0
 15 16  1  0
 17 16  1  6
 18 17  1  0
 18 11  1  0
 19 21  1  0
 19 17  1  0
 20 19  2  0
M  END
$$$$
