KLD.pdb
     RDKit          3D

 26 25  0  0  1  0  0  0  0  0999 V2000
   13.5441  -20.1542    1.4832 N   0  0  0  0  0  0  0  0  0  0  0  0
   14.4108  -20.9183    2.3256 C   0  0  1  0  0  0  0  0  0  0  0  0
   15.0960  -22.0485    1.6015 C   0  0  0  0  0  0  0  0  0  0  0  0
   14.7353  -22.0289    0.1362 C   0  0  0  0  0  0  0  0  0  0  0  0
   15.4892  -23.0713   -0.6454 C   0  0  0  0  0  0  0  0  0  0  0  0
   15.3333  -22.8861   -2.1395 C   0  0  0  0  0  0  0  0  0  0  0  0
   16.2327  -23.8658   -2.7672 N   0  0  0  0  0  0  0  0  0  0  0  0
   15.4802  -20.0670    2.9464 C   0  0  0  0  0  0  0  0  0  0  0  0
   16.3377  -20.6724    3.5997 O   0  0  0  0  0  0  0  0  0  0  0  0
   19.1177  -16.0876    3.0503 C   0  0  0  0  0  0  0  0  0  0  0  0
   17.6950  -15.5826    3.2511 C   0  0  1  0  0  0  0  0  0  0  0  0
   17.6774  -14.2154    2.5173 C   0  0  0  0  0  0  0  0  0  0  0  0
   16.7026  -16.5084    2.5904 C   0  0  0  0  0  0  0  0  0  0  0  0
   16.4799  -17.7869    3.3866 C   0  0  2  0  0  0  0  0  0  0  0  0
   15.5163  -18.6788    2.8033 N   0  0  0  0  0  0  0  0  0  0  0  0
   16.2452  -17.5717    4.8102 C   0  0  0  0  0  0  0  0  0  0  0  0
   15.0951  -17.2423    5.2586 O   0  0  0  0  0  0  0  0  0  0  0  0
   17.2492  -17.7043    5.8145 N   0  0  0  0  0  0  0  0  0  0  0  0
   17.0165  -17.5482    7.2062 C   0  0  1  0  0  0  0  0  0  0  0  0
   17.7275  -18.4913    8.1083 C   0  0  0  0  0  0  0  0  0  0  0  0
   16.9243  -19.6564    8.5266 C   0  0  0  0  0  0  0  0  0  0  0  0
   15.7470  -19.7641    8.1305 O   0  0  0  0  0  0  0  0  0  0  0  0
   17.4427  -16.1560    7.5818 C   0  0  0  0  0  0  0  0  0  0  0  0
   16.8490  -15.5004    8.6519 O   0  0  0  0  0  0  0  0  0  0  0  0
   17.4557  -20.6263    9.3477 O   0  0  0  0  0  0  0  0  0  0  0  0
   18.3365  -15.5366    6.9573 O   0  0  0  0  0  0  0  0  0  0  0  0
  2  1  1  6
  3  2  1  0
  4  3  1  0
  5  4  1  0
  5  6  1  0
  7  6  1  0
  8  9  2  0
  8  2  1  0
 11 10  1  6
 11 12  1  0
 13 11  1  0
 14 13  1  6
 14 15  1  0
 15  8  1  0
 16 18  1  0
 16 14  1  0
 17 16  2  0
 19 18  1  0
 19 20  1  1
 20 21  1  0
 21 22  2  0
 23 19  1  0
 24 23  1  0
 25 21  1  0
 26 23  2  0
M  END
$$$$
