KLD.pdb
     RDKit          3D

 26 25  0  0  1  0  0  0  0  0999 V2000
   26.2462  -20.9171  -16.1388 N   0  0  0  0  0  0  0  0  0  0  0  0
   26.0450  -22.2927  -15.8046 C   0  0  1  0  0  0  0  0  0  0  0  0
   27.3183  -23.0016  -15.4206 C   0  0  0  0  0  0  0  0  0  0  0  0
   28.1394  -23.3091  -16.6489 C   0  0  0  0  0  0  0  0  0  0  0  0
   27.6319  -24.5240  -17.3785 C   0  0  0  0  0  0  0  0  0  0  0  0
   28.5818  -25.6965  -17.2616 C   0  0  0  0  0  0  0  0  0  0  0  0
   27.9186  -26.8260  -17.9306 N   0  0  0  0  0  0  0  0  0  0  0  0
   25.0781  -22.4562  -14.6679 C   0  0  0  0  0  0  0  0  0  0  0  0
   24.8215  -23.6213  -14.3435 O   0  0  0  0  0  0  0  0  0  0  0  0
   25.8891  -20.1003  -10.0957 C   0  0  0  0  0  0  0  0  0  0  0  0
   25.4632  -20.9520  -11.2842 C   0  0  1  0  0  0  0  0  0  0  0  0
   25.5295  -22.4054  -10.7446 C   0  0  0  0  0  0  0  0  0  0  0  0
   24.0410  -20.6391  -11.6818 C   0  0  0  0  0  0  0  0  0  0  0  0
   23.5887  -21.4337  -12.8992 C   0  0  2  0  0  0  0  0  0  0  0  0
   24.4979  -21.3703  -14.0099 N   0  0  0  0  0  0  0  0  0  0  0  0
   22.2082  -21.1827  -13.2982 C   0  0  0  0  0  0  0  0  0  0  0  0
   21.2551  -21.1712  -12.4475 O   0  0  0  0  0  0  0  0  0  0  0  0
   21.7976  -20.9320  -14.6409 N   0  0  0  0  0  0  0  0  0  0  0  0
   20.4638  -20.6409  -15.0303 C   0  0  1  0  0  0  0  0  0  0  0  0
   20.2941  -19.8303  -16.2642 C   0  0  0  0  0  0  0  0  0  0  0  0
   20.0602  -18.3935  -16.0216 C   0  0  0  0  0  0  0  0  0  0  0  0
   20.0636  -17.9602  -14.8526 O   0  0  0  0  0  0  0  0  0  0  0  0
   19.7618  -21.9522  -15.2512 C   0  0  0  0  0  0  0  0  0  0  0  0
   18.3784  -22.0350  -15.1689 O   0  0  0  0  0  0  0  0  0  0  0  0
   19.8383  -17.5247  -17.0672 O   0  0  0  0  0  0  0  0  0  0  0  0
   20.3825  -23.0094  -15.5147 O   0  0  0  0  0  0  0  0  0  0  0  0
  2  1  1  1
  3  2  1  0
  4  3  1  0
  5  4  1  0
  5  6  1  0
  7  6  1  0
  8  9  2  0
  8  2  1  0
 11 10  1  1
 11 12  1  0
 13 11  1  0
 14 13  1  1
 14 15  1  0
 15  8  1  0
 16 18  1  0
 16 14  1  0
 17 16  2  0
 19 18  1  0
 19 20  1  6
 20 21  1  0
 21 22  2  0
 23 19  1  0
 24 23  1  0
 25 21  1  0
 26 23  2  0
M  END
$$$$
