KLD.pdb
     RDKit          3D

 26 25  0  0  1  0  0  0  0  0999 V2000
   22.5415  -16.2767  -17.6875 N   0  0  0  0  0  0  0  0  0  0  0  0
   22.6872  -14.9386  -18.1698 C   0  0  1  0  0  0  0  0  0  0  0  0
   21.3884  -14.3308  -18.6333 C   0  0  0  0  0  0  0  0  0  0  0  0
   20.5062  -15.3865  -19.2535 C   0  0  0  0  0  0  0  0  0  0  0  0
   19.2136  -14.8119  -19.7683 C   0  0  0  0  0  0  0  0  0  0  0  0
   18.3721  -15.8499  -20.4790 C   0  0  0  0  0  0  0  0  0  0  0  0
   17.1421  -15.1603  -20.8967 N   0  0  0  0  0  0  0  0  0  0  0  0
   23.2634  -14.0275  -17.1249 C   0  0  0  0  0  0  0  0  0  0  0  0
   22.5469  -13.8189  -16.1391 O   0  0  0  0  0  0  0  0  0  0  0  0
   28.7569  -13.7716  -16.6679 C   0  0  0  0  0  0  0  0  0  0  0  0
   27.2479  -13.8559  -16.4804 C   0  0  1  0  0  0  0  0  0  0  0  0
   27.0812  -14.5736  -15.1147 C   0  0  0  0  0  0  0  0  0  0  0  0
   26.6444  -12.4753  -16.3876 C   0  0  0  0  0  0  0  0  0  0  0  0
   25.1231  -12.5074  -16.3358 C   0  0  2  0  0  0  0  0  0  0  0  0
   24.5266  -13.4458  -17.2457 N   0  0  0  0  0  0  0  0  0  0  0  0
   24.4945  -11.1928  -16.4046 C   0  0  0  0  0  0  0  0  0  0  0  0
   24.8208  -10.2502  -15.6063 O   0  0  0  0  0  0  0  0  0  0  0  0
   23.4811  -10.8399  -17.3442 N   0  0  0  0  0  0  0  0  0  0  0  0
   22.8409   -9.5739  -17.3951 C   0  0  1  0  0  0  0  0  0  0  0  0
   22.1663   -9.2217  -18.6716 C   0  0  0  0  0  0  0  0  0  0  0  0
   21.6109   -7.8550  -18.7099 C   0  0  0  0  0  0  0  0  0  0  0  0
   21.8049   -7.0866  -17.7474 O   0  0  0  0  0  0  0  0  0  0  0  0
   21.7980   -9.5516  -16.3121 C   0  0  0  0  0  0  0  0  0  0  0  0
   21.6813   -8.4566  -15.4667 O   0  0  0  0  0  0  0  0  0  0  0  0
   20.8816   -7.4159  -19.7929 O   0  0  0  0  0  0  0  0  0  0  0  0
   21.0021  -10.5029  -16.1276 O   0  0  0  0  0  0  0  0  0  0  0  0
  2  1  1  1
  3  2  1  0
  4  3  1  0
  5  4  1  0
  5  6  1  0
  7  6  1  0
  8  9  2  0
  8  2  1  0
 11 10  1  1
 11 12  1  0
 13 11  1  0
 14 13  1  6
 14 15  1  0
 15  8  1  0
 16 18  1  0
 16 14  1  0
 17 16  2  0
 19 18  1  0
 19 20  1  6
 20 21  1  0
 21 22  2  0
 23 19  1  0
 24 23  1  0
 25 21  1  0
 26 23  2  0
M  END
$$$$
