KLD.pdb
     RDKit          3D

 26 25  0  0  1  0  0  0  0  0999 V2000
   23.0753  -14.7623  -17.4837 N   0  0  0  0  0  0  0  0  0  0  0  0
   22.4965  -13.5697  -18.0196 C   0  0  1  0  0  0  0  0  0  0  0  0
   21.0347  -13.7190  -18.3545 C   0  0  0  0  0  0  0  0  0  0  0  0
   20.8366  -14.8266  -19.3602 C   0  0  0  0  0  0  0  0  0  0  0  0
   19.3880  -15.0017  -19.7302 C   0  0  0  0  0  0  0  0  0  0  0  0
   19.1915  -16.0916  -20.7619 C   0  0  0  0  0  0  0  0  0  0  0  0
   17.7374  -16.2577  -20.9066 N   0  0  0  0  0  0  0  0  0  0  0  0
   22.6258  -12.4115  -17.0732 C   0  0  0  0  0  0  0  0  0  0  0  0
   21.9241  -12.4667  -16.0568 O   0  0  0  0  0  0  0  0  0  0  0  0
   27.4212  -10.2054  -15.7534 C   0  0  0  0  0  0  0  0  0  0  0  0
   26.0025  -10.7456  -15.8748 C   0  0  1  0  0  0  0  0  0  0  0  0
   25.6204  -11.1214  -14.4186 C   0  0  0  0  0  0  0  0  0  0  0  0
   25.0636   -9.6715  -16.3683 C   0  0  0  0  0  0  0  0  0  0  0  0
   23.6284  -10.1646  -16.4915 C   0  0  2  0  0  0  0  0  0  0  0  0
   23.4803  -11.3340  -17.3131 N   0  0  0  0  0  0  0  0  0  0  0  0
   22.6652   -9.1231  -16.8313 C   0  0  0  0  0  0  0  0  0  0  0  0
   22.5937   -8.6333  -18.0090 O   0  0  0  0  0  0  0  0  0  0  0  0
   21.7336   -8.5642  -15.9071 N   0  0  0  0  0  0  0  0  0  0  0  0
   20.7286   -7.6229  -16.2524 C   0  0  1  0  0  0  0  0  0  0  0  0
   19.4424   -7.7238  -15.5146 C   0  0  0  0  0  0  0  0  0  0  0  0
   18.4419   -6.7072  -15.8930 C   0  0  0  0  0  0  0  0  0  0  0  0
   18.2431   -5.7325  -15.1414 O   0  0  0  0  0  0  0  0  0  0  0  0
   21.2887   -6.2508  -15.9977 C   0  0  0  0  0  0  0  0  0  0  0  0
   20.6939   -5.1298  -16.5607 O   0  0  0  0  0  0  0  0  0  0  0  0
   17.7249   -6.8191  -17.0638 O   0  0  0  0  0  0  0  0  0  0  0  0
   22.2988   -6.0613  -15.2792 O   0  0  0  0  0  0  0  0  0  0  0  0
  2  1  1  1
  3  2  1  0
  4  3  1  0
  5  4  1  0
  5  6  1  0
  7  6  1  0
  8  9  2  0
  8  2  1  0
 11 10  1  1
 11 12  1  0
 13 11  1  0
 14 13  1  6
 14 15  1  0
 15  8  1  0
 16 18  1  0
 16 14  1  0
 17 16  2  0
 19 18  1  0
 19 20  1  1
 20 21  1  0
 21 22  2  0
 23 19  1  0
 24 23  1  0
 25 21  1  0
 26 23  2  0
M  END
$$$$
