KLD.pdb
     RDKit          3D

 26 25  0  0  1  0  0  0  0  0999 V2000
   18.5779  -12.6510  -17.6088 N   0  0  0  0  0  0  0  0  0  0  0  0
   17.7285  -11.8566  -16.7769 C   0  0  1  0  0  0  0  0  0  0  0  0
   17.7483  -12.2825  -15.3314 C   0  0  0  0  0  0  0  0  0  0  0  0
   17.1109  -13.6415  -15.1753 C   0  0  0  0  0  0  0  0  0  0  0  0
   17.1013  -14.0999  -13.7415 C   0  0  0  0  0  0  0  0  0  0  0  0
   16.5632  -15.5072  -13.5972 C   0  0  0  0  0  0  0  0  0  0  0  0
   16.6385  -15.8268  -12.1637 N   0  0  0  0  0  0  0  0  0  0  0  0
   18.1012  -10.4031  -16.8235 C   0  0  0  0  0  0  0  0  0  0  0  0
   19.2979  -10.1609  -17.0184 O   0  0  0  0  0  0  0  0  0  0  0  0
   16.8907   -5.1434  -18.4526 C   0  0  0  0  0  0  0  0  0  0  0  0
   16.5127   -5.6465  -17.0658 C   0  0  1  0  0  0  0  0  0  0  0  0
   15.2056   -4.8790  -16.7339 C   0  0  0  0  0  0  0  0  0  0  0  0
   16.2195   -7.1269  -17.0975 C   0  0  0  0  0  0  0  0  0  0  0  0
   17.4293   -7.9683  -16.7146 C   0  0  2  0  0  0  0  0  0  0  0  0
   17.1663   -9.3797  -16.6590 N   0  0  0  0  0  0  0  0  0  0  0  0
   18.1408   -7.4903  -15.5342 C   0  0  0  0  0  0  0  0  0  0  0  0
   17.7590   -7.7911  -14.3527 O   0  0  0  0  0  0  0  0  0  0  0  0
   19.3013   -6.6625  -15.5815 N   0  0  0  0  0  0  0  0  0  0  0  0
   19.9825   -6.1707  -14.4372 C   0  0  1  0  0  0  0  0  0  0  0  0
   21.4676   -6.1985  -14.4852 C   0  0  0  0  0  0  0  0  0  0  0  0
   22.1257   -5.7281  -13.2510 C   0  0  0  0  0  0  0  0  0  0  0  0
   22.6457   -4.5952  -13.2265 O   0  0  0  0  0  0  0  0  0  0  0  0
   19.5636   -4.7397  -14.2430 C   0  0  0  0  0  0  0  0  0  0  0  0
   19.7537   -4.1080  -13.0213 O   0  0  0  0  0  0  0  0  0  0  0  0
   22.1740   -6.5219  -12.1263 O   0  0  0  0  0  0  0  0  0  0  0  0
   19.0341   -4.0656  -15.1582 O   0  0  0  0  0  0  0  0  0  0  0  0
  2  1  1  6
  3  2  1  0
  4  3  1  0
  5  4  1  0
  5  6  1  0
  7  6  1  0
  8  9  2  0
  8  2  1  0
 11 10  1  6
 11 12  1  0
 13 11  1  0
 14 13  1  1
 14 15  1  0
 15  8  1  0
 16 18  1  0
 16 14  1  0
 17 16  2  0
 19 18  1  0
 19 20  1  6
 20 21  1  0
 21 22  2  0
 23 19  1  0
 24 23  1  0
 25 21  1  0
 26 23  2  0
M  END
$$$$
