KLD.pdb
     RDKit          3D

 26 25  0  0  1  0  0  0  0  0999 V2000
   27.2690  -23.3646  -15.7062 N   0  0  0  0  0  0  0  0  0  0  0  0
   26.8708  -22.0372  -15.3539 C   0  0  1  0  0  0  0  0  0  0  0  0
   26.5884  -21.1658  -16.5506 C   0  0  0  0  0  0  0  0  0  0  0  0
   27.8796  -20.7067  -17.1826 C   0  0  0  0  0  0  0  0  0  0  0  0
   28.4206  -21.7157  -18.1599 C   0  0  0  0  0  0  0  0  0  0  0  0
   29.7107  -21.2520  -18.8014 C   0  0  0  0  0  0  0  0  0  0  0  0
   30.1311  -22.3371  -19.7007 N   0  0  0  0  0  0  0  0  0  0  0  0
   25.6409  -22.0325  -14.4929 C   0  0  0  0  0  0  0  0  0  0  0  0
   24.7989  -22.8995  -14.7534 O   0  0  0  0  0  0  0  0  0  0  0  0
   26.1126  -19.9398   -9.3744 C   0  0  0  0  0  0  0  0  0  0  0  0
   25.7613  -20.8316  -10.5579 C   0  0  1  0  0  0  0  0  0  0  0  0
   25.3892  -22.1890   -9.9046 C   0  0  0  0  0  0  0  0  0  0  0  0
   24.5578  -20.2928  -11.2926 C   0  0  0  0  0  0  0  0  0  0  0  0
   24.2987  -21.0258  -12.6016 C   0  0  2  0  0  0  0  0  0  0  0  0
   25.4474  -21.1133  -13.4603 N   0  0  0  0  0  0  0  0  0  0  0  0
   23.1077  -20.5757  -13.3137 C   0  0  0  0  0  0  0  0  0  0  0  0
   23.0097  -19.3880  -13.7741 O   0  0  0  0  0  0  0  0  0  0  0  0
   21.9663  -21.3950  -13.5593 N   0  0  0  0  0  0  0  0  0  0  0  0
   20.8229  -20.9783  -14.2902 C   0  0  1  0  0  0  0  0  0  0  0  0
   20.6239  -21.6021  -15.6244 C   0  0  0  0  0  0  0  0  0  0  0  0
   19.3722  -21.2088  -16.2999 C   0  0  0  0  0  0  0  0  0  0  0  0
   18.9463  -20.0440  -16.1729 O   0  0  0  0  0  0  0  0  0  0  0  0
   19.6130  -21.2990  -13.4569 C   0  0  0  0  0  0  0  0  0  0  0  0
   18.4549  -20.5422  -13.5731 O   0  0  0  0  0  0  0  0  0  0  0  0
   18.6679  -22.1093  -17.0684 O   0  0  0  0  0  0  0  0  0  0  0  0
   19.5961  -22.2462  -12.6353 O   0  0  0  0  0  0  0  0  0  0  0  0
  2  1  1  6
  3  2  1  0
  4  3  1  0
  5  4  1  0
  5  6  1  0
  7  6  1  0
  8  9  2  0
  8  2  1  0
 11 10  1  1
 11 12  1  0
 13 11  1  0
 14 13  1  1
 14 15  1  0
 15  8  1  0
 16 18  1  0
 16 14  1  0
 17 16  2  0
 19 18  1  0
 19 20  1  6
 20 21  1  0
 21 22  2  0
 23 19  1  0
 24 23  1  0
 25 21  1  0
 26 23  2  0
M  END
$$$$
