KLD.pdb
     RDKit          3D

 26 25  0  0  1  0  0  0  0  0999 V2000
   22.5257  -14.6671  -15.4793 N   0  0  0  0  0  0  0  0  0  0  0  0
   21.9776  -13.6460  -16.3168 C   0  0  1  0  0  0  0  0  0  0  0  0
   20.4710  -13.6135  -16.3031 C   0  0  0  0  0  0  0  0  0  0  0  0
   19.9128  -14.9594  -16.6961 C   0  0  0  0  0  0  0  0  0  0  0  0
   18.4215  -14.9163  -16.8962 C   0  0  0  0  0  0  0  0  0  0  0  0
   17.8565  -16.2721  -17.2616 C   0  0  0  0  0  0  0  0  0  0  0  0
   17.0215  -16.6852  -16.1236 N   0  0  0  0  0  0  0  0  0  0  0  0
   22.4614  -12.2805  -15.9229 C   0  0  0  0  0  0  0  0  0  0  0  0
   22.0456  -11.8547  -14.8392 O   0  0  0  0  0  0  0  0  0  0  0  0
   27.6506  -11.0474  -16.4664 C   0  0  0  0  0  0  0  0  0  0  0  0
   26.1907  -11.1674  -16.0499 C   0  0  1  0  0  0  0  0  0  0  0  0
   26.2165  -10.9070  -14.5203 C   0  0  0  0  0  0  0  0  0  0  0  0
   25.3568  -10.1003  -16.7167 C   0  0  0  0  0  0  0  0  0  0  0  0
   23.8737  -10.2388  -16.4012 C   0  0  2  0  0  0  0  0  0  0  0  0
   23.3258  -11.5282  -16.7201 N   0  0  0  0  0  0  0  0  0  0  0  0
   23.0501   -9.1463  -16.9070 C   0  0  0  0  0  0  0  0  0  0  0  0
   22.6766   -9.0968  -18.1278 O   0  0  0  0  0  0  0  0  0  0  0  0
   22.5928   -8.0553  -16.1102 N   0  0  0  0  0  0  0  0  0  0  0  0
   21.8720   -6.9411  -16.6144 C   0  0  1  0  0  0  0  0  0  0  0  0
   21.0376   -6.1930  -15.6383 C   0  0  0  0  0  0  0  0  0  0  0  0
   19.9587   -6.9897  -15.0227 C   0  0  0  0  0  0  0  0  0  0  0  0
   19.2536   -7.7259  -15.7405 O   0  0  0  0  0  0  0  0  0  0  0  0
   22.8739   -5.9760  -17.1851 C   0  0  0  0  0  0  0  0  0  0  0  0
   24.2357   -6.2147  -17.0581 O   0  0  0  0  0  0  0  0  0  0  0  0
   19.7194   -6.9321  -13.6674 O   0  0  0  0  0  0  0  0  0  0  0  0
   22.5310   -4.9324  -17.7898 O   0  0  0  0  0  0  0  0  0  0  0  0
  2  1  1  1
  3  2  1  0
  4  3  1  0
  5  4  1  0
  5  6  1  0
  7  6  1  0
  8  9  2  0
  8  2  1  0
 11 10  1  6
 11 12  1  0
 13 11  1  0
 14 13  1  6
 14 15  1  0
 15  8  1  0
 16 18  1  0
 16 14  1  0
 17 16  2  0
 19 18  1  0
 19 20  1  1
 20 21  1  0
 21 22  2  0
 23 19  1  0
 24 23  1  0
 25 21  1  0
 26 23  2  0
M  END
$$$$
