KLD.pdb
     RDKit          3D

 26 25  0  0  1  0  0  0  0  0999 V2000
   19.8901  -14.0459  -16.9063 N   0  0  0  0  0  0  0  0  0  0  0  0
   19.9428  -12.7983  -17.6030 C   0  0  1  0  0  0  0  0  0  0  0  0
   18.6337  -12.4249  -18.2496 C   0  0  0  0  0  0  0  0  0  0  0  0
   18.2207  -13.4794  -19.2470 C   0  0  0  0  0  0  0  0  0  0  0  0
   16.8973  -13.1618  -19.8901 C   0  0  0  0  0  0  0  0  0  0  0  0
   16.4862  -14.2144  -20.8969 C   0  0  0  0  0  0  0  0  0  0  0  0
   16.4296  -15.4846  -20.1577 N   0  0  0  0  0  0  0  0  0  0  0  0
   20.3361  -11.6681  -16.6966 C   0  0  0  0  0  0  0  0  0  0  0  0
   19.5854  -11.4631  -15.7358 O   0  0  0  0  0  0  0  0  0  0  0  0
   25.5552  -10.6316  -15.2176 C   0  0  0  0  0  0  0  0  0  0  0  0
   24.0436  -10.8004  -15.2949 C   0  0  1  0  0  0  0  0  0  0  0  0
   23.5910  -10.7931  -13.8106 C   0  0  0  0  0  0  0  0  0  0  0  0
   23.4122   -9.6290  -16.0076 C   0  0  0  0  0  0  0  0  0  0  0  0
   21.9004   -9.7657  -16.1258 C   0  0  2  0  0  0  0  0  0  0  0  0
   21.4746  -10.8897  -16.9129 N   0  0  0  0  0  0  0  0  0  0  0  0
   21.2162   -8.5339  -16.5033 C   0  0  0  0  0  0  0  0  0  0  0  0
   21.1960   -8.1206  -17.7120 O   0  0  0  0  0  0  0  0  0  0  0  0
   20.5213   -7.6923  -15.5850 N   0  0  0  0  0  0  0  0  0  0  0  0
   19.8640   -6.4860  -15.9429 C   0  0  1  0  0  0  0  0  0  0  0  0
   18.4188   -6.3929  -15.6091 C   0  0  0  0  0  0  0  0  0  0  0  0
   17.7860   -5.1164  -15.9937 C   0  0  0  0  0  0  0  0  0  0  0  0
   18.4533   -4.2616  -16.6088 O   0  0  0  0  0  0  0  0  0  0  0  0
   20.5651   -5.3618  -15.2317 C   0  0  0  0  0  0  0  0  0  0  0  0
   21.5882   -5.6253  -14.3310 O   0  0  0  0  0  0  0  0  0  0  0  0
   16.4696   -4.8555  -15.6831 O   0  0  0  0  0  0  0  0  0  0  0  0
   20.2628   -4.1590  -15.4167 O   0  0  0  0  0  0  0  0  0  0  0  0
  2  1  1  1
  3  2  1  0
  4  3  1  0
  5  4  1  0
  5  6  1  0
  7  6  1  0
  8  9  2  0
  8  2  1  0
 11 10  1  1
 11 12  1  0
 13 11  1  0
 14 13  1  6
 14 15  1  0
 15  8  1  0
 16 18  1  0
 16 14  1  0
 17 16  2  0
 19 18  1  0
 19 20  1  1
 20 21  1  0
 21 22  2  0
 23 19  1  0
 24 23  1  0
 25 21  1  0
 26 23  2  0
M  END
$$$$
