PYN.pdb
     RDKit          3D

 28 29  0  0  1  0  0  0  0  0999 V2000
    7.5979  -15.4330   18.6599 N   0  0  0  0  0  0  0  0  0  0  0  0
    7.2454  -14.9811   17.3451 C   0  0  0  0  0  0  0  0  0  0  0  0
    7.5041  -13.4813   17.3693 C   0  0  0  0  0  0  0  0  0  0  0  0
    8.7021  -13.3917   18.2924 C   0  0  0  0  0  0  0  0  0  0  0  0
    8.8647  -14.7810   18.8884 C   0  0  1  0  0  0  0  0  0  0  0  0
    9.0986  -14.5744   20.3625 C   0  0  0  0  0  0  0  0  0  0  0  0
   10.2100  -14.1734   20.7934 O   0  0  0  0  0  0  0  0  0  0  0  0
    7.4955  -12.1503   28.6291 O   0  0  0  0  0  0  0  0  0  0  0  0
    7.3932  -12.5978   27.3081 C   0  0  0  0  0  0  0  0  0  0  0  0
    8.0297  -11.9253   26.3083 C   0  0  0  0  0  0  0  0  0  0  0  0
    7.8925  -12.4170   25.0099 C   0  0  0  0  0  0  0  0  0  0  0  0
    7.1476  -13.5376   24.7225 C   0  0  0  0  0  0  0  0  0  0  0  0
    7.0105  -14.0211   23.3584 C   0  0  0  0  0  0  0  0  0  0  0  0
    8.3033  -14.5419   22.7397 C   0  0  2  0  0  0  0  0  0  0  0  0
    8.0869  -14.8199   21.3172 N   0  0  0  0  0  0  0  0  0  0  0  0
    8.8077  -15.7220   23.4515 C   0  0  0  0  0  0  0  0  0  0  0  0
    8.1971  -16.8106   23.3292 O   0  0  0  0  0  0  0  0  0  0  0  0
    6.5189  -14.1914   25.7553 C   0  0  0  0  0  0  0  0  0  0  0  0
    6.6483  -13.7101   27.0571 C   0  0  0  0  0  0  0  0  0  0  0  0
   13.1126  -16.1100   22.8479 N   0  0  0  0  0  0  0  0  0  0  0  0
   12.2466  -17.1508   23.3502 C   0  0  0  0  0  0  0  0  0  0  0  0
   11.8480  -18.0256   22.5604 O   0  0  0  0  0  0  0  0  0  0  0  0
   11.8549  -17.1625   24.7612 C   0  0  0  0  0  0  0  0  0  0  0  0
   10.3869  -16.9583   24.9286 C   0  0  2  0  0  0  0  0  0  0  0  0
    9.9575  -15.7148   24.2799 N   0  0  0  0  0  0  0  0  0  0  0  0
   10.0320  -16.9016   26.3583 C   0  0  0  0  0  0  0  0  0  0  0  0
    8.9198  -17.4409   26.6973 O   0  0  0  0  0  0  0  0  0  0  0  0
   10.7511  -16.3388   27.3740 O   0  0  0  0  0  0  0  0  0  0  0  0
  1  5  1  0
  2  1  1  0
  3  2  1  0
  3  4  1  0
  4  5  1  0
  5  6  1  1
  6 15  1  0
  6  7  2  0
  9  8  1  0
 10  9  2  0
 11 10  1  0
 12 18  1  0
 12 11  2  0
 14 13  1  1
 13 12  1  0
 14 16  1  0
 15 14  1  0
 16 17  2  0
 18 19  2  0
 19  9  1  0
 20 21  1  0
 21 23  1  0
 22 21  2  0
 24 23  1  1
 24 26  1  0
 25 16  1  0
 25 24  1  0
 26 28  1  0
 27 26  2  0
M  END
$$$$
