PYN.pdb
     RDKit          3D

 28 29  0  0  1  0  0  0  0  0999 V2000
    7.4751  -15.1138   18.7082 N   0  0  0  0  0  0  0  0  0  0  0  0
    7.1504  -14.5875   17.4141 C   0  0  0  0  0  0  0  0  0  0  0  0
    7.4402  -13.0969   17.5190 C   0  0  0  0  0  0  0  0  0  0  0  0
    8.6270  -13.0808   18.4606 C   0  0  0  0  0  0  0  0  0  0  0  0
    8.7521  -14.5022   18.9860 C   0  0  1  0  0  0  0  0  0  0  0  0
    8.9700  -14.3766   20.4717 C   0  0  0  0  0  0  0  0  0  0  0  0
   10.1070  -14.1148   20.9411 O   0  0  0  0  0  0  0  0  0  0  0  0
    7.4349  -12.9813   29.0215 O   0  0  0  0  0  0  0  0  0  0  0  0
    7.2855  -13.2185   27.6513 C   0  0  0  0  0  0  0  0  0  0  0  0
    6.6814  -14.3607   27.2183 C   0  0  0  0  0  0  0  0  0  0  0  0
    6.5598  -14.5446   25.8406 C   0  0  0  0  0  0  0  0  0  0  0  0
    7.0241  -13.6221   24.9315 C   0  0  0  0  0  0  0  0  0  0  0  0
    6.8960  -13.8449   23.5006 C   0  0  0  0  0  0  0  0  0  0  0  0
    8.1413  -14.4232   22.8372 C   0  0  2  0  0  0  0  0  0  0  0  0
    7.9142  -14.5460   21.3947 N   0  0  0  0  0  0  0  0  0  0  0  0
    8.5279  -15.7060   23.4359 C   0  0  0  0  0  0  0  0  0  0  0  0
    7.8876  -16.7381   23.1236 O   0  0  0  0  0  0  0  0  0  0  0  0
    7.6283  -12.4811   25.4032 C   0  0  0  0  0  0  0  0  0  0  0  0
    7.7559  -12.2856   26.7775 C   0  0  0  0  0  0  0  0  0  0  0  0
   13.1096  -19.0808   25.0190 N   0  0  0  0  0  0  0  0  0  0  0  0
   11.7607  -18.9029   24.5349 C   0  0  0  0  0  0  0  0  0  0  0  0
   11.0097  -19.8938   24.4890 O   0  0  0  0  0  0  0  0  0  0  0  0
   11.3016  -17.5785   24.1109 C   0  0  0  0  0  0  0  0  0  0  0  0
   10.0103  -17.2080   24.7592 C   0  0  2  0  0  0  0  0  0  0  0  0
    9.5943  -15.8603   24.3565 N   0  0  0  0  0  0  0  0  0  0  0  0
   10.1364  -17.2532   26.2272 C   0  0  0  0  0  0  0  0  0  0  0  0
   10.4019  -16.1465   26.8166 O   0  0  0  0  0  0  0  0  0  0  0  0
   10.0035  -18.3412   27.0422 O   0  0  0  0  0  0  0  0  0  0  0  0
  1  5  1  0
  2  1  1  0
  3  2  1  0
  3  4  1  0
  4  5  1  0
  5  6  1  1
  6 15  1  0
  6  7  2  0
  9  8  1  0
 10  9  2  0
 11 10  1  0
 12 18  1  0
 12 11  2  0
 14 13  1  1
 13 12  1  0
 14 16  1  0
 15 14  1  0
 16 17  2  0
 18 19  2  0
 19  9  1  0
 20 21  1  0
 21 23  1  0
 22 21  2  0
 24 23  1  6
 24 26  1  0
 25 16  1  0
 25 24  1  0
 26 28  1  0
 27 26  2  0
M  END
$$$$
