PYN.pdb
     RDKit          3D

 28 29  0  0  1  0  0  0  0  0999 V2000
    7.6634  -15.4629   18.5733 N   0  0  0  0  0  0  0  0  0  0  0  0
    7.3316  -15.0522   17.2397 C   0  0  0  0  0  0  0  0  0  0  0  0
    7.4687  -13.5364   17.2564 C   0  0  0  0  0  0  0  0  0  0  0  0
    8.6158  -13.3430   18.2269 C   0  0  0  0  0  0  0  0  0  0  0  0
    8.8634  -14.7096   18.8458 C   0  0  1  0  0  0  0  0  0  0  0  0
    9.0180  -14.4720   20.3258 C   0  0  0  0  0  0  0  0  0  0  0  0
   10.0578  -13.9407   20.7928 O   0  0  0  0  0  0  0  0  0  0  0  0
    6.9499  -12.5525   28.6375 O   0  0  0  0  0  0  0  0  0  0  0  0
    6.9249  -12.9505   27.2970 C   0  0  0  0  0  0  0  0  0  0  0  0
    7.2739  -12.0703   26.3170 C   0  0  0  0  0  0  0  0  0  0  0  0
    7.2304  -12.5220   24.9977 C   0  0  0  0  0  0  0  0  0  0  0  0
    6.8527  -13.8041   24.6712 C   0  0  0  0  0  0  0  0  0  0  0  0
    6.8035  -14.2450   23.2868 C   0  0  0  0  0  0  0  0  0  0  0  0
    8.1631  -14.5751   22.6801 C   0  0  2  0  0  0  0  0  0  0  0  0
    8.0086  -14.8327   21.2458 N   0  0  0  0  0  0  0  0  0  0  0  0
    8.8035  -15.7027   23.3671 C   0  0  0  0  0  0  0  0  0  0  0  0
    8.4170  -16.8677   23.1101 O   0  0  0  0  0  0  0  0  0  0  0  0
    6.5069  -14.6656   25.6849 C   0  0  0  0  0  0  0  0  0  0  0  0
    6.5463  -14.2264   27.0073 C   0  0  0  0  0  0  0  0  0  0  0  0
   13.0426  -15.5422   22.8942 N   0  0  0  0  0  0  0  0  0  0  0  0
   12.3271  -16.6954   23.3879 C   0  0  0  0  0  0  0  0  0  0  0  0
   12.0748  -17.6223   22.5972 O   0  0  0  0  0  0  0  0  0  0  0  0
   11.9141  -16.7575   24.7915 C   0  0  0  0  0  0  0  0  0  0  0  0
   10.4290  -16.7596   24.9308 C   0  0  2  0  0  0  0  0  0  0  0  0
    9.8473  -15.5620   24.3153 N   0  0  0  0  0  0  0  0  0  0  0  0
   10.0426  -16.8050   26.3526 C   0  0  0  0  0  0  0  0  0  0  0  0
   10.4708  -17.8023   27.0341 O   0  0  0  0  0  0  0  0  0  0  0  0
    9.2766  -15.9049   27.0374 O   0  0  0  0  0  0  0  0  0  0  0  0
  1  5  1  0
  2  1  1  0
  3  2  1  0
  3  4  1  0
  4  5  1  0
  5  6  1  1
  6 15  1  0
  6  7  2  0
  9  8  1  0
 10  9  2  0
 11 10  1  0
 12 18  1  0
 12 11  2  0
 14 13  1  1
 13 12  1  0
 14 16  1  0
 15 14  1  0
 16 17  2  0
 18 19  2  0
 19  9  1  0
 20 21  1  0
 21 23  1  0
 22 21  2  0
 24 23  1  1
 24 26  1  0
 25 16  1  0
 25 24  1  0
 26 28  1  0
 27 26  2  0
M  END
$$$$
