PYN.pdb
     RDKit          3D

 28 29  0  0  1  0  0  0  0  0999 V2000
    7.4780  -15.4166   18.9250 N   0  0  0  0  0  0  0  0  0  0  0  0
    7.1681  -15.0026   17.5872 C   0  0  0  0  0  0  0  0  0  0  0  0
    7.5058  -13.5187   17.5535 C   0  0  0  0  0  0  0  0  0  0  0  0
    8.6941  -13.4534   18.4910 C   0  0  0  0  0  0  0  0  0  0  0  0
    8.7744  -14.8231   19.1465 C   0  0  1  0  0  0  0  0  0  0  0  0
    8.9988  -14.5671   20.6143 C   0  0  0  0  0  0  0  0  0  0  0  0
   10.1280  -14.2231   21.0480 O   0  0  0  0  0  0  0  0  0  0  0  0
    7.5220  -12.7937   29.1258 O   0  0  0  0  0  0  0  0  0  0  0  0
    7.4180  -13.0309   27.7514 C   0  0  0  0  0  0  0  0  0  0  0  0
    8.2380  -12.3765   26.8819 C   0  0  0  0  0  0  0  0  0  0  0  0
    8.0897  -12.6523   25.5223 C   0  0  0  0  0  0  0  0  0  0  0  0
    7.1576  -13.5479   25.0508 C   0  0  0  0  0  0  0  0  0  0  0  0
    7.0153  -13.8071   23.6274 C   0  0  0  0  0  0  0  0  0  0  0  0
    8.2064  -14.5164   22.9921 C   0  0  2  0  0  0  0  0  0  0  0  0
    7.9579  -14.7012   21.5597 N   0  0  0  0  0  0  0  0  0  0  0  0
    8.4977  -15.7902   23.6601 C   0  0  0  0  0  0  0  0  0  0  0  0
    7.6882  -16.7397   23.5342 O   0  0  0  0  0  0  0  0  0  0  0  0
    6.3468  -14.1902   25.9560 C   0  0  0  0  0  0  0  0  0  0  0  0
    6.4851  -13.9233   27.3172 C   0  0  0  0  0  0  0  0  0  0  0  0
   12.3134  -17.1659   22.6389 N   0  0  0  0  0  0  0  0  0  0  0  0
   11.3144  -17.9895   23.2785 C   0  0  0  0  0  0  0  0  0  0  0  0
   10.6186  -18.7388   22.5698 O   0  0  0  0  0  0  0  0  0  0  0  0
   11.1364  -17.9329   24.7310 C   0  0  0  0  0  0  0  0  0  0  0  0
    9.8261  -17.3252   25.1036 C   0  0  2  0  0  0  0  0  0  0  0  0
    9.6515  -16.0241   24.4491 N   0  0  0  0  0  0  0  0  0  0  0  0
    9.7360  -17.1443   26.5637 C   0  0  0  0  0  0  0  0  0  0  0  0
    9.7813  -18.2066   27.2794 O   0  0  0  0  0  0  0  0  0  0  0  0
    9.6089  -15.9715   27.2522 O   0  0  0  0  0  0  0  0  0  0  0  0
  1  5  1  0
  2  1  1  0
  3  2  1  0
  3  4  1  0
  4  5  1  0
  5  6  1  1
  6 15  1  0
  6  7  2  0
  9  8  1  0
 10  9  2  0
 11 10  1  0
 12 18  1  0
 12 11  2  0
 14 13  1  1
 13 12  1  0
 14 16  1  0
 15 14  1  0
 16 17  2  0
 18 19  2  0
 19  9  1  0
 20 21  1  0
 21 23  1  0
 22 21  2  0
 24 23  1  1
 24 26  1  0
 25 16  1  0
 25 24  1  0
 26 28  1  0
 27 26  2  0
M  END
$$$$
