PYN.pdb
     RDKit          3D

 28 29  0  0  1  0  0  0  0  0999 V2000
    7.4606  -15.4187   18.6534 N   0  0  0  0  0  0  0  0  0  0  0  0
    7.1697  -14.9247   17.3387 C   0  0  0  0  0  0  0  0  0  0  0  0
    7.5957  -13.4638   17.3713 C   0  0  0  0  0  0  0  0  0  0  0  0
    8.7903  -13.5136   18.3018 C   0  0  0  0  0  0  0  0  0  0  0  0
    8.7913  -14.9148   18.8922 C   0  0  1  0  0  0  0  0  0  0  0  0
    9.0378  -14.7417   20.3687 C   0  0  0  0  0  0  0  0  0  0  0  0
   10.1762  -14.4331   20.8049 O   0  0  0  0  0  0  0  0  0  0  0  0
    7.4833  -12.1461   28.6012 O   0  0  0  0  0  0  0  0  0  0  0  0
    7.3705  -12.5907   27.2800 C   0  0  0  0  0  0  0  0  0  0  0  0
    7.9289  -11.8699   26.2672 C   0  0  0  0  0  0  0  0  0  0  0  0
    7.7849  -12.3610   24.9693 C   0  0  0  0  0  0  0  0  0  0  0  0
    7.1089  -13.5276   24.6949 C   0  0  0  0  0  0  0  0  0  0  0  0
    6.9625  -14.0100   23.3314 C   0  0  0  0  0  0  0  0  0  0  0  0
    8.2275  -14.6205   22.7379 C   0  0  2  0  0  0  0  0  0  0  0  0
    8.0081  -14.9169   21.3196 N   0  0  0  0  0  0  0  0  0  0  0  0
    8.6540  -15.8121   23.4806 C   0  0  0  0  0  0  0  0  0  0  0  0
    8.0284  -16.8862   23.3143 O   0  0  0  0  0  0  0  0  0  0  0  0
    6.5580  -14.2294   25.7406 C   0  0  0  0  0  0  0  0  0  0  0  0
    6.6949  -13.7492   27.0421 C   0  0  0  0  0  0  0  0  0  0  0  0
   12.6208  -16.4663   22.7016 N   0  0  0  0  0  0  0  0  0  0  0  0
   11.7591  -17.4665   23.2868 C   0  0  0  0  0  0  0  0  0  0  0  0
   11.2393  -18.3146   22.5396 O   0  0  0  0  0  0  0  0  0  0  0  0
   11.5124  -17.4694   24.7303 C   0  0  0  0  0  0  0  0  0  0  0  0
   10.1065  -17.0882   25.0511 C   0  0  2  0  0  0  0  0  0  0  0  0
    9.7438  -15.8319   24.3865 N   0  0  0  0  0  0  0  0  0  0  0  0
    9.9325  -16.9294   26.5063 C   0  0  0  0  0  0  0  0  0  0  0  0
    9.6484  -15.7526   26.9271 O   0  0  0  0  0  0  0  0  0  0  0  0
   10.0385  -17.8929   27.4686 O   0  0  0  0  0  0  0  0  0  0  0  0
  1  5  1  0
  2  1  1  0
  3  2  1  0
  3  4  1  0
  4  5  1  0
  5  6  1  1
  6 15  1  0
  6  7  2  0
  9  8  1  0
 10  9  2  0
 11 10  1  0
 12 18  1  0
 12 11  2  0
 14 13  1  1
 13 12  1  0
 14 16  1  0
 15 14  1  0
 16 17  2  0
 18 19  2  0
 19  9  1  0
 20 21  1  0
 21 23  1  0
 22 21  2  0
 24 23  1  1
 24 26  1  0
 25 16  1  0
 25 24  1  0
 26 28  1  0
 27 26  2  0
M  END
$$$$
