PYN.pdb
     RDKit          3D

 28 29  0  0  1  0  0  0  0  0999 V2000
    7.6093  -15.2244   18.6670 N   0  0  0  0  0  0  0  0  0  0  0  0
    7.2520  -14.6967   17.3821 C   0  0  0  0  0  0  0  0  0  0  0  0
    7.4341  -13.1916   17.5178 C   0  0  0  0  0  0  0  0  0  0  0  0
    8.6136  -13.1097   18.4650 C   0  0  0  0  0  0  0  0  0  0  0  0
    8.8383  -14.5287   18.9628 C   0  0  1  0  0  0  0  0  0  0  0  0
    9.0419  -14.4177   20.4517 C   0  0  0  0  0  0  0  0  0  0  0  0
   10.1898  -14.2575   20.9398 O   0  0  0  0  0  0  0  0  0  0  0  0
    7.3046  -12.8804   28.9628 O   0  0  0  0  0  0  0  0  0  0  0  0
    7.1893  -13.1301   27.5915 C   0  0  0  0  0  0  0  0  0  0  0  0
    6.7321  -14.3368   27.1536 C   0  0  0  0  0  0  0  0  0  0  0  0
    6.6378  -14.5301   25.7751 C   0  0  0  0  0  0  0  0  0  0  0  0
    6.9871  -13.5546   24.8698 C   0  0  0  0  0  0  0  0  0  0  0  0
    6.8914  -13.7872   23.4380 C   0  0  0  0  0  0  0  0  0  0  0  0
    8.1663  -14.3272   22.7990 C   0  0  2  0  0  0  0  0  0  0  0  0
    7.9599  -14.4879   21.3570 N   0  0  0  0  0  0  0  0  0  0  0  0
    8.5983  -15.5810   23.4274 C   0  0  0  0  0  0  0  0  0  0  0  0
    8.0271  -16.6495   23.1037 O   0  0  0  0  0  0  0  0  0  0  0  0
    7.4445  -12.3493   25.3465 C   0  0  0  0  0  0  0  0  0  0  0  0
    7.5433  -12.1436   26.7217 C   0  0  0  0  0  0  0  0  0  0  0  0
   12.5089  -19.3511   23.6102 N   0  0  0  0  0  0  0  0  0  0  0  0
   12.2889  -18.2925   24.5674 C   0  0  0  0  0  0  0  0  0  0  0  0
   12.6779  -18.4582   25.7375 O   0  0  0  0  0  0  0  0  0  0  0  0
   11.6210  -17.0564   24.1544 C   0  0  0  0  0  0  0  0  0  0  0  0
   10.2319  -16.9731   24.6914 C   0  0  2  0  0  0  0  0  0  0  0  0
    9.6351  -15.6677   24.3896 N   0  0  0  0  0  0  0  0  0  0  0  0
   10.2283  -17.1770   26.1513 C   0  0  0  0  0  0  0  0  0  0  0  0
   10.2150  -16.1226   26.8798 O   0  0  0  0  0  0  0  0  0  0  0  0
   10.2378  -18.3638   26.8273 O   0  0  0  0  0  0  0  0  0  0  0  0
  1  5  1  0
  2  1  1  0
  3  2  1  0
  3  4  1  0
  4  5  1  0
  5  6  1  1
  6 15  1  0
  6  7  2  0
  9  8  1  0
 10  9  2  0
 11 10  1  0
 12 18  1  0
 12 11  2  0
 14 13  1  1
 13 12  1  0
 14 16  1  0
 15 14  1  0
 16 17  2  0
 18 19  2  0
 19  9  1  0
 20 21  1  0
 21 23  1  0
 22 21  2  0
 24 23  1  1
 24 26  1  0
 25 16  1  0
 25 24  1  0
 26 28  1  0
 27 26  2  0
M  END
$$$$
