PYN.pdb
     RDKit          3D

 28 29  0  0  1  0  0  0  0  0999 V2000
    7.7439  -15.3941   18.6410 N   0  0  0  0  0  0  0  0  0  0  0  0
    7.4348  -14.9780   17.3035 C   0  0  0  0  0  0  0  0  0  0  0  0
    7.5787  -13.4629   17.3268 C   0  0  0  0  0  0  0  0  0  0  0  0
    8.7115  -13.2776   18.3155 C   0  0  0  0  0  0  0  0  0  0  0  0
    8.9431  -14.6472   18.9343 C   0  0  1  0  0  0  0  0  0  0  0  0
    9.0757  -14.4144   20.4171 C   0  0  0  0  0  0  0  0  0  0  0  0
   10.1394  -13.9593   20.9101 O   0  0  0  0  0  0  0  0  0  0  0  0
    6.8564  -12.5278   28.7276 O   0  0  0  0  0  0  0  0  0  0  0  0
    6.8603  -12.8560   27.3681 C   0  0  0  0  0  0  0  0  0  0  0  0
    7.3896  -11.9904   26.4585 C   0  0  0  0  0  0  0  0  0  0  0  0
    7.3665  -12.3700   25.1161 C   0  0  0  0  0  0  0  0  0  0  0  0
    6.8348  -13.5688   24.6997 C   0  0  0  0  0  0  0  0  0  0  0  0
    6.8117  -13.9340   23.2928 C   0  0  0  0  0  0  0  0  0  0  0  0
    8.1474  -14.4261   22.7458 C   0  0  2  0  0  0  0  0  0  0  0  0
    8.0185  -14.6950   21.3109 N   0  0  0  0  0  0  0  0  0  0  0  0
    8.6314  -15.6033   23.4762 C   0  0  0  0  0  0  0  0  0  0  0  0
    7.9759  -16.6704   23.4086 O   0  0  0  0  0  0  0  0  0  0  0  0
    6.3092  -14.4180   25.6442 C   0  0  0  0  0  0  0  0  0  0  0  0
    6.3264  -14.0502   26.9887 C   0  0  0  0  0  0  0  0  0  0  0  0
   10.9443  -17.8886   22.4804 N   0  0  0  0  0  0  0  0  0  0  0  0
   11.9987  -17.5016   23.3882 C   0  0  0  0  0  0  0  0  0  0  0  0
   13.1731  -17.5197   22.9781 O   0  0  0  0  0  0  0  0  0  0  0  0
   11.6763  -17.0990   24.7588 C   0  0  0  0  0  0  0  0  0  0  0  0
   10.2149  -16.8568   24.9341 C   0  0  2  0  0  0  0  0  0  0  0  0
    9.8093  -15.6167   24.2640 N   0  0  0  0  0  0  0  0  0  0  0  0
    9.8738  -16.7633   26.3651 C   0  0  0  0  0  0  0  0  0  0  0  0
   10.0341  -17.8245   27.0657 O   0  0  0  0  0  0  0  0  0  0  0  0
    9.4034  -15.6732   27.0405 O   0  0  0  0  0  0  0  0  0  0  0  0
  1  5  1  0
  2  1  1  0
  3  2  1  0
  3  4  1  0
  4  5  1  0
  5  6  1  1
  6 15  1  0
  6  7  2  0
  9  8  1  0
 10  9  2  0
 11 10  1  0
 12 18  1  0
 12 11  2  0
 14 13  1  1
 13 12  1  0
 14 16  1  0
 15 14  1  0
 16 17  2  0
 18 19  2  0
 19  9  1  0
 20 21  1  0
 21 23  1  0
 22 21  2  0
 24 23  1  1
 24 26  1  0
 25 16  1  0
 25 24  1  0
 26 28  1  0
 27 26  2  0
M  END
$$$$
