PYN.pdb
     RDKit          3D

 28 29  0  0  1  0  0  0  0  0999 V2000
    7.3129  -15.1575   18.7034 N   0  0  0  0  0  0  0  0  0  0  0  0
    7.0611  -14.5984   17.4068 C   0  0  0  0  0  0  0  0  0  0  0  0
    7.5431  -13.1580   17.5064 C   0  0  0  0  0  0  0  0  0  0  0  0
    8.7208  -13.2934   18.4497 C   0  0  0  0  0  0  0  0  0  0  0  0
    8.6585  -14.7168   18.9809 C   0  0  1  0  0  0  0  0  0  0  0  0
    8.8894  -14.6148   20.4664 C   0  0  0  0  0  0  0  0  0  0  0  0
   10.0467  -14.4627   20.9345 O   0  0  0  0  0  0  0  0  0  0  0  0
    7.3163  -12.8749   28.9622 O   0  0  0  0  0  0  0  0  0  0  0  0
    7.1764  -13.1422   27.5966 C   0  0  0  0  0  0  0  0  0  0  0  0
    6.5483  -14.2791   27.1844 C   0  0  0  0  0  0  0  0  0  0  0  0
    6.4376  -14.4940   25.8103 C   0  0  0  0  0  0  0  0  0  0  0  0
    6.9356  -13.6064   24.8845 C   0  0  0  0  0  0  0  0  0  0  0  0
    6.8181  -13.8612   23.4581 C   0  0  0  0  0  0  0  0  0  0  0  0
    8.0515  -14.4975   22.8262 C   0  0  2  0  0  0  0  0  0  0  0  0
    7.8236  -14.6848   21.3907 N   0  0  0  0  0  0  0  0  0  0  0  0
    8.4096  -15.7580   23.4868 C   0  0  0  0  0  0  0  0  0  0  0  0
    7.8000  -16.8056   23.1648 O   0  0  0  0  0  0  0  0  0  0  0  0
    7.5634  -12.4697   25.3353 C   0  0  0  0  0  0  0  0  0  0  0  0
    7.6804  -12.2435   26.7059 C   0  0  0  0  0  0  0  0  0  0  0  0
   11.0145  -20.0505   23.8459 N   0  0  0  0  0  0  0  0  0  0  0  0
   11.6676  -18.8550   24.3252 C   0  0  0  0  0  0  0  0  0  0  0  0
   12.6913  -18.9750   25.0219 O   0  0  0  0  0  0  0  0  0  0  0  0
   11.1244  -17.5370   23.9897 C   0  0  0  0  0  0  0  0  0  0  0  0
    9.9363  -17.2000   24.8262 C   0  0  2  0  0  0  0  0  0  0  0  0
    9.4151  -15.8737   24.4788 N   0  0  0  0  0  0  0  0  0  0  0  0
   10.2891  -17.2176   26.2574 C   0  0  0  0  0  0  0  0  0  0  0  0
    9.8133  -18.1811   26.9559 O   0  0  0  0  0  0  0  0  0  0  0  0
   11.0685  -16.3237   26.9349 O   0  0  0  0  0  0  0  0  0  0  0  0
  1  5  1  0
  2  1  1  0
  3  2  1  0
  3  4  1  0
  4  5  1  0
  5  6  1  1
  6 15  1  0
  6  7  2  0
  9  8  1  0
 10  9  2  0
 11 10  1  0
 12 18  1  0
 12 11  2  0
 14 13  1  1
 13 12  1  0
 14 16  1  0
 15 14  1  0
 16 17  2  0
 18 19  2  0
 19  9  1  0
 20 21  1  0
 21 23  1  0
 22 21  2  0
 24 23  1  6
 24 26  1  0
 25 16  1  0
 25 24  1  0
 26 28  1  0
 27 26  2  0
M  END
$$$$
