PYN.pdb
     RDKit          3D

 28 29  0  0  1  0  0  0  0  0999 V2000
    7.4928  -15.4623   18.6901 N   0  0  0  0  0  0  0  0  0  0  0  0
    7.1829  -14.9760   17.3768 C   0  0  0  0  0  0  0  0  0  0  0  0
    7.5618  -13.5021   17.4107 C   0  0  0  0  0  0  0  0  0  0  0  0
    8.7596  -13.5148   18.3382 C   0  0  0  0  0  0  0  0  0  0  0  0
    8.8072  -14.9161   18.9265 C   0  0  1  0  0  0  0  0  0  0  0  0
    9.0516  -14.7373   20.4026 C   0  0  0  0  0  0  0  0  0  0  0  0
   10.1713  -14.3612   20.8342 O   0  0  0  0  0  0  0  0  0  0  0  0
    7.4160  -12.1706   28.5994 O   0  0  0  0  0  0  0  0  0  0  0  0
    7.2793  -12.6853   27.3062 C   0  0  0  0  0  0  0  0  0  0  0  0
    6.6442  -13.8746   27.1086 C   0  0  0  0  0  0  0  0  0  0  0  0
    6.5371  -14.3396   25.7975 C   0  0  0  0  0  0  0  0  0  0  0  0
    7.0454  -13.6421   24.7258 C   0  0  0  0  0  0  0  0  0  0  0  0
    6.9314  -14.1560   23.3707 C   0  0  0  0  0  0  0  0  0  0  0  0
    8.2412  -14.6592   22.7736 C   0  0  2  0  0  0  0  0  0  0  0  0
    8.0407  -14.9822   21.3583 N   0  0  0  0  0  0  0  0  0  0  0  0
    8.7724  -15.8052   23.5207 C   0  0  0  0  0  0  0  0  0  0  0  0
    8.2433  -16.9309   23.3608 O   0  0  0  0  0  0  0  0  0  0  0  0
    7.6801  -12.4459   24.9616 C   0  0  0  0  0  0  0  0  0  0  0  0
    7.7935  -11.9705   26.2671 C   0  0  0  0  0  0  0  0  0  0  0  0
   11.1774  -18.4348   22.8361 N   0  0  0  0  0  0  0  0  0  0  0  0
   12.2064  -17.7457   23.5790 C   0  0  0  0  0  0  0  0  0  0  0  0
   13.3709  -17.7666   23.1415 O   0  0  0  0  0  0  0  0  0  0  0  0
   11.8706  -17.0421   24.8186 C   0  0  0  0  0  0  0  0  0  0  0  0
   10.3954  -16.9535   25.0212 C   0  0  2  0  0  0  0  0  0  0  0  0
    9.8614  -15.7248   24.4240 N   0  0  0  0  0  0  0  0  0  0  0  0
   10.0685  -16.9704   26.4585 C   0  0  0  0  0  0  0  0  0  0  0  0
    9.6805  -15.8629   26.9738 O   0  0  0  0  0  0  0  0  0  0  0  0
   10.1297  -18.0327   27.3149 O   0  0  0  0  0  0  0  0  0  0  0  0
  1  5  1  0
  2  1  1  0
  3  2  1  0
  3  4  1  0
  4  5  1  0
  5  6  1  1
  6 15  1  0
  6  7  2  0
  9  8  1  0
 10  9  2  0
 11 10  1  0
 12 18  1  0
 12 11  2  0
 14 13  1  1
 13 12  1  0
 14 16  1  0
 15 14  1  0
 16 17  2  0
 18 19  2  0
 19  9  1  0
 20 21  1  0
 21 23  1  0
 22 21  2  0
 24 23  1  1
 24 26  1  0
 25 16  1  0
 25 24  1  0
 26 28  1  0
 27 26  2  0
M  END
$$$$
