PYN.pdb
     RDKit          3D

 28 29  0  0  1  0  0  0  0  0999 V2000
    7.5070  -15.5013   18.9544 N   0  0  0  0  0  0  0  0  0  0  0  0
    7.0588  -15.0613   17.6649 C   0  0  0  0  0  0  0  0  0  0  0  0
    7.1268  -13.5421   17.7295 C   0  0  0  0  0  0  0  0  0  0  0  0
    8.3325  -13.3268   18.6211 C   0  0  0  0  0  0  0  0  0  0  0  0
    8.6879  -14.7003   19.1680 C   0  0  1  0  0  0  0  0  0  0  0  0
    8.9405  -14.5069   20.6409 C   0  0  0  0  0  0  0  0  0  0  0  0
   10.0200  -14.0119   21.0548 O   0  0  0  0  0  0  0  0  0  0  0  0
    7.1900  -12.6730   29.0685 O   0  0  0  0  0  0  0  0  0  0  0  0
    7.1161  -13.0301   27.7183 C   0  0  0  0  0  0  0  0  0  0  0  0
    7.2994  -12.0870   26.7519 C   0  0  0  0  0  0  0  0  0  0  0  0
    7.2146  -12.5001   25.4220 C   0  0  0  0  0  0  0  0  0  0  0  0
    6.9565  -13.8056   25.0722 C   0  0  0  0  0  0  0  0  0  0  0  0
    6.8604  -14.2066   23.6782 C   0  0  0  0  0  0  0  0  0  0  0  0
    8.1925  -14.5726   23.0327 C   0  0  2  0  0  0  0  0  0  0  0  0
    7.9824  -14.8700   21.6132 N   0  0  0  0  0  0  0  0  0  0  0  0
    8.8437  -15.6881   23.7292 C   0  0  0  0  0  0  0  0  0  0  0  0
    8.4367  -16.8553   23.5176 O   0  0  0  0  0  0  0  0  0  0  0  0
    6.7767  -14.7307   26.0728 C   0  0  0  0  0  0  0  0  0  0  0  0
    6.8591  -14.3306   27.4056 C   0  0  0  0  0  0  0  0  0  0  0  0
   13.3654  -16.0176   23.0388 N   0  0  0  0  0  0  0  0  0  0  0  0
   12.6902  -16.9669   23.8923 C   0  0  0  0  0  0  0  0  0  0  0  0
   12.6381  -18.1571   23.5337 O   0  0  0  0  0  0  0  0  0  0  0  0
   12.0849  -16.5227   25.1497 C   0  0  0  0  0  0  0  0  0  0  0  0
   10.6068  -16.7230   25.1522 C   0  0  2  0  0  0  0  0  0  0  0  0
    9.9200  -15.5333   24.6382 N   0  0  0  0  0  0  0  0  0  0  0  0
   10.1250  -17.0039   26.5168 C   0  0  0  0  0  0  0  0  0  0  0  0
    9.4154  -16.0944   27.0754 O   0  0  0  0  0  0  0  0  0  0  0  0
   10.3453  -18.1256   27.2643 O   0  0  0  0  0  0  0  0  0  0  0  0
  1  5  1  0
  2  1  1  0
  3  2  1  0
  3  4  1  0
  4  5  1  0
  5  6  1  1
  6 15  1  0
  6  7  2  0
  9  8  1  0
 10  9  2  0
 11 10  1  0
 12 18  1  0
 12 11  2  0
 14 13  1  1
 13 12  1  0
 14 16  1  0
 15 14  1  0
 16 17  2  0
 18 19  2  0
 19  9  1  0
 20 21  1  0
 21 23  1  0
 22 21  2  0
 24 23  1  1
 24 26  1  0
 25 16  1  0
 25 24  1  0
 26 28  1  0
 27 26  2  0
M  END
$$$$
