PYN.pdb
     RDKit          3D

 28 29  0  0  1  0  0  0  0  0999 V2000
    7.8059  -15.4936   18.5993 N   0  0  0  0  0  0  0  0  0  0  0  0
    7.5007  -15.0795   17.2605 C   0  0  0  0  0  0  0  0  0  0  0  0
    7.6523  -13.5650   17.2800 C   0  0  0  0  0  0  0  0  0  0  0  0
    8.7848  -13.3831   18.2696 C   0  0  0  0  0  0  0  0  0  0  0  0
    9.0085  -14.7521   18.8922 C   0  0  1  0  0  0  0  0  0  0  0  0
    9.1405  -14.5162   20.3746 C   0  0  0  0  0  0  0  0  0  0  0  0
   10.1903  -14.0252   20.8628 O   0  0  0  0  0  0  0  0  0  0  0  0
    7.0273  -12.4097   28.6027 O   0  0  0  0  0  0  0  0  0  0  0  0
    6.9742  -12.8694   27.2830 C   0  0  0  0  0  0  0  0  0  0  0  0
    6.5220  -14.1269   27.0159 C   0  0  0  0  0  0  0  0  0  0  0  0
    6.4910  -14.5322   25.6813 C   0  0  0  0  0  0  0  0  0  0  0  0
    6.8962  -13.7118   24.6537 C   0  0  0  0  0  0  0  0  0  0  0  0
    6.8657  -14.1641   23.2724 C   0  0  0  0  0  0  0  0  0  0  0  0
    8.2251  -14.5626   22.7080 C   0  0  2  0  0  0  0  0  0  0  0  0
    8.0981  -14.8337   21.2734 N   0  0  0  0  0  0  0  0  0  0  0  0
    8.7959  -15.7075   23.4271 C   0  0  0  0  0  0  0  0  0  0  0  0
    8.3268  -16.8512   23.2156 O   0  0  0  0  0  0  0  0  0  0  0  0
    7.3467  -12.4496   24.9592 C   0  0  0  0  0  0  0  0  0  0  0  0
    7.3826  -12.0327   26.2889 C   0  0  0  0  0  0  0  0  0  0  0  0
   13.0852  -15.8181   22.8615 N   0  0  0  0  0  0  0  0  0  0  0  0
   12.3504  -16.9127   23.4511 C   0  0  0  0  0  0  0  0  0  0  0  0
   12.1090  -17.9124   22.7510 O   0  0  0  0  0  0  0  0  0  0  0  0
   11.9061  -16.8326   24.8442 C   0  0  0  0  0  0  0  0  0  0  0  0
   10.4182  -16.8270   24.9499 C   0  0  2  0  0  0  0  0  0  0  0  0
    9.8595  -15.6067   24.3582 N   0  0  0  0  0  0  0  0  0  0  0  0
    9.9994  -16.9120   26.3607 C   0  0  0  0  0  0  0  0  0  0  0  0
   10.3725  -17.9518   27.0104 O   0  0  0  0  0  0  0  0  0  0  0  0
    9.2552  -16.0089   27.0652 O   0  0  0  0  0  0  0  0  0  0  0  0
  1  5  1  0
  2  1  1  0
  3  2  1  0
  3  4  1  0
  4  5  1  0
  5  6  1  1
  6 15  1  0
  6  7  2  0
  9  8  1  0
 10  9  2  0
 11 10  1  0
 12 18  1  0
 12 11  2  0
 14 13  1  1
 13 12  1  0
 14 16  1  0
 15 14  1  0
 16 17  2  0
 18 19  2  0
 19  9  1  0
 20 21  1  0
 21 23  1  0
 22 21  2  0
 24 23  1  1
 24 26  1  0
 25 16  1  0
 25 24  1  0
 26 28  1  0
 27 26  2  0
M  END
$$$$
