RMV.pdb
     RDKit          3D

 27 26  0  0  1  0  0  0  0  0999 V2000
    9.4948  -13.4248   16.0713 N   0  0  0  0  0  0  0  0  0  0  0  0
    8.3924  -14.2141   15.6708 C   0  0  0  0  0  0  0  0  0  0  0  0
    8.1811  -14.5802   14.4636 N   0  0  0  0  0  0  0  0  0  0  0  0
    7.4670  -14.6226   16.6629 N   0  0  0  0  0  0  0  0  0  0  0  0
    7.7527  -14.3591   18.0474 C   0  0  0  0  0  0  0  0  0  0  0  0
    9.1464  -14.9458   18.3363 C   0  0  0  0  0  0  0  0  0  0  0  0
    9.5673  -14.5929   19.7381 C   0  0  0  0  0  0  0  0  0  0  0  0
    9.2701  -15.5819   20.7698 C   0  0  2  0  0  0  0  0  0  0  0  0
    7.9136  -16.1626   20.5785 N   0  0  0  0  0  0  0  0  0  0  0  0
    9.3619  -15.2431   22.1763 C   0  0  0  0  0  0  0  0  0  0  0  0
   10.4649  -14.6776   22.5281 O   0  0  0  0  0  0  0  0  0  0  0  0
    7.4146  -15.2031   14.1450 C   0  0  0  0  0  0  0  0  0  0  0  0
    5.7328  -11.6970   27.9268 S   0  0  0  0  0  0  0  0  0  0  0  0
    5.5899  -12.9392   26.6207 C   0  0  0  0  0  0  0  0  0  0  0  0
    7.2357  -13.5486   26.1868 C   0  0  0  0  0  0  0  0  0  0  0  0
    7.1381  -14.3961   24.9365 C   0  0  2  0  0  0  0  0  0  0  0  0
    8.5418  -14.7316   24.5038 N   0  0  0  0  0  0  0  0  0  0  0  0
    8.4488  -15.4342   23.2171 C   0  0  0  0  0  0  0  0  0  0  0  0
    9.2199  -15.6593   25.4461 O   0  0  0  0  0  0  0  0  0  0  0  0
    9.3087  -16.9002   25.2286 C   0  0  0  0  0  0  0  0  0  0  0  0
    9.9357  -15.3476   29.8003 C   0  0  1  0  0  0  0  0  0  0  0  0
   11.0179  -15.3948   28.7712 C   0  0  0  0  0  0  0  0  0  0  0  0
   11.6128  -14.0390   28.4931 C   0  0  1  0  0  0  0  0  0  0  0  0
   10.5505  -16.0834   27.5035 N   0  0  0  0  0  0  0  0  0  0  0  0
    9.8102  -15.1825   26.6571 C   0  0  0  0  0  0  0  0  0  0  0  0
    9.6496  -17.1948   27.8957 O   0  0  0  0  0  0  0  0  0  0  0  0
   10.1590  -18.3959   28.3423 O   0  0  0  0  0  0  0  0  0  0  0  0
  2  4  1  0
  2  1  1  0
  3  2  2  0
  5  4  1  0
  6  5  1  0
  7  6  1  0
  8  7  1  0
  8  9  1  6
 10 17  1  0
 10  8  1  0
 11 10  2  0
 13 12  1  0
 14 13  1  0
 16 15  1  6
 15 14  1  0
 16 17  1  0
 18 19  2  0
 18 16  1  0
 21 20  1  1
 21 23  1  0
 22 21  1  0
 23 25  1  0
 23 24  1  1
 24 18  1  0
 25 26  1  0
 27 25  2  0
M  END
$$$$
