RMV.pdb
     RDKit          3D

 27 26  0  0  1  0  0  0  0  0999 V2000
    7.8607  -13.2623   15.6082 N   0  0  0  0  0  0  0  0  0  0  0  0
    7.6255  -14.6547   15.5398 C   0  0  0  0  0  0  0  0  0  0  0  0
    6.6472  -15.1803   14.9055 N   0  0  0  0  0  0  0  0  0  0  0  0
    8.5240  -15.5184   16.2136 N   0  0  0  0  0  0  0  0  0  0  0  0
    9.1922  -15.0569   17.4005 C   0  0  0  0  0  0  0  0  0  0  0  0
    8.1411  -15.0326   18.5250 C   0  0  0  0  0  0  0  0  0  0  0  0
    8.7278  -14.3970   19.7573 C   0  0  0  0  0  0  0  0  0  0  0  0
    9.1369  -15.3086   20.8215 C   0  0  2  0  0  0  0  0  0  0  0  0
    8.3256  -16.5557   20.7983 N   0  0  0  0  0  0  0  0  0  0  0  0
    9.1612  -14.8769   22.2052 C   0  0  0  0  0  0  0  0  0  0  0  0
   10.0263  -13.9604   22.4733 O   0  0  0  0  0  0  0  0  0  0  0  0
    6.4036  -16.1892   14.8959 C   0  0  0  0  0  0  0  0  0  0  0  0
    6.0575  -11.1440   25.6385 S   0  0  0  0  0  0  0  0  0  0  0  0
    5.6184  -12.6805   26.4846 C   0  0  0  0  0  0  0  0  0  0  0  0
    7.0201  -13.8208   26.4276 C   0  0  0  0  0  0  0  0  0  0  0  0
    7.0059  -14.5599   25.1068 C   0  0  2  0  0  0  0  0  0  0  0  0
    8.4241  -14.6143   24.6008 N   0  0  0  0  0  0  0  0  0  0  0  0
    8.4006  -15.2966   23.3001 C   0  0  0  0  0  0  0  0  0  0  0  0
    9.3117  -15.4145   25.4841 O   0  0  0  0  0  0  0  0  0  0  0  0
    9.6551  -16.5978   25.2065 C   0  0  0  0  0  0  0  0  0  0  0  0
   10.0800  -14.8647   29.7824 C   0  0  1  0  0  0  0  0  0  0  0  0
   11.1600  -14.8834   28.7501 C   0  0  0  0  0  0  0  0  0  0  0  0
   11.6687  -13.5048   28.4183 C   0  0  1  0  0  0  0  0  0  0  0  0
   10.7324  -15.6469   27.5116 N   0  0  0  0  0  0  0  0  0  0  0  0
    9.8238  -14.8738   26.7038 C   0  0  0  0  0  0  0  0  0  0  0  0
   10.0269  -16.8743   27.9552 O   0  0  0  0  0  0  0  0  0  0  0  0
    8.6536  -16.9700   27.8758 O   0  0  0  0  0  0  0  0  0  0  0  0
  2  4  1  0
  2  1  1  0
  3  2  2  0
  5  4  1  0
  6  5  1  0
  7  6  1  0
  8  7  1  0
  8  9  1  1
 10 17  1  0
 10  8  1  0
 11 10  2  0
 13 12  1  0
 14 13  1  0
 16 15  1  6
 15 14  1  0
 16 17  1  0
 18 19  2  0
 18 16  1  0
 21 20  1  1
 21 23  1  0
 22 21  1  0
 23 25  1  0
 23 24  1  1
 24 18  1  0
 25 26  1  0
 27 25  2  0
M  END
$$$$
