RMV.pdb
     RDKit          3D

 27 26  0  0  1  0  0  0  0  0999 V2000
    7.2795  -13.0665   17.8525 N   0  0  0  0  0  0  0  0  0  0  0  0
    8.6636  -13.0405   18.1398 C   0  0  0  0  0  0  0  0  0  0  0  0
    9.3452  -11.9647   18.2578 N   0  0  0  0  0  0  0  0  0  0  0  0
    9.3354  -14.2769   18.3054 N   0  0  0  0  0  0  0  0  0  0  0  0
    8.5941  -15.5044   18.1960 C   0  0  0  0  0  0  0  0  0  0  0  0
    8.4357  -16.0600   19.6229 C   0  0  0  0  0  0  0  0  0  0  0  0
    9.7543  -16.6007   20.1086 C   0  0  0  0  0  0  0  0  0  0  0  0
    9.7628  -17.1706   21.4525 C   0  0  2  0  0  0  0  0  0  0  0  0
    8.8164  -18.3141   21.5541 N   0  0  0  0  0  0  0  0  0  0  0  0
    9.5108  -16.3425   22.6154 C   0  0  0  0  0  0  0  0  0  0  0  0
   10.3223  -15.3527   22.7637 O   0  0  0  0  0  0  0  0  0  0  0  0
   10.3716  -11.9109   18.4026 C   0  0  0  0  0  0  0  0  0  0  0  0
    7.2562  -11.6573   26.7577 S   0  0  0  0  0  0  0  0  0  0  0  0
    6.3096  -12.8733   25.8119 C   0  0  0  0  0  0  0  0  0  0  0  0
    6.8125  -14.5397   26.3003 C   0  0  0  0  0  0  0  0  0  0  0  0
    6.9359  -15.4040   25.0638 C   0  0  1  0  0  0  0  0  0  0  0  0
    8.3971  -15.4768   24.7038 N   0  0  0  0  0  0  0  0  0  0  0  0
    8.5317  -16.4452   23.6074 C   0  0  0  0  0  0  0  0  0  0  0  0
    9.2330  -15.9835   25.8230 O   0  0  0  0  0  0  0  0  0  0  0  0
    9.1326  -17.1631   26.2631 C   0  0  0  0  0  0  0  0  0  0  0  0
   10.3471  -13.2301   28.4997 C   0  0  1  0  0  0  0  0  0  0  0  0
   10.3053  -14.6803   28.8569 C   0  0  0  0  0  0  0  0  0  0  0  0
   11.0294  -14.9815   30.1431 C   0  0  2  0  0  0  0  0  0  0  0  0
   10.7900  -15.5493   27.7126 N   0  0  0  0  0  0  0  0  0  0  0  0
   10.2013  -15.1477   26.4604 C   0  0  0  0  0  0  0  0  0  0  0  0
   10.3727  -16.9450   27.9932 O   0  0  0  0  0  0  0  0  0  0  0  0
   11.2029  -17.8092   28.6754 O   0  0  0  0  0  0  0  0  0  0  0  0
  2  4  1  0
  2  1  1  0
  3  2  2  0
  5  4  1  0
  6  5  1  0
  7  6  1  0
  8  7  1  0
  8  9  1  6
 10 17  1  0
 10  8  1  0
 11 10  2  0
 13 12  1  0
 14 13  1  0
 16 15  1  6
 15 14  1  0
 16 17  1  0
 18 19  2  0
 18 16  1  0
 21 20  1  1
 21 23  1  0
 22 21  1  0
 23 25  1  0
 23 24  1  6
 24 18  1  0
 25 26  1  0
 27 25  2  0
M  END
$$$$
