RMV.pdb
     RDKit          3D

 27 26  0  0  1  0  0  0  0  0999 V2000
    9.9387  -15.0165   16.6253 N   0  0  0  0  0  0  0  0  0  0  0  0
    8.9284  -14.0922   16.2734 C   0  0  0  0  0  0  0  0  0  0  0  0
    8.3723  -14.0504   15.1224 N   0  0  0  0  0  0  0  0  0  0  0  0
    8.5080  -13.1569   17.2511 N   0  0  0  0  0  0  0  0  0  0  0  0
    7.5641  -13.5623   18.2575 C   0  0  0  0  0  0  0  0  0  0  0  0
    8.3630  -14.2927   19.3520 C   0  0  0  0  0  0  0  0  0  0  0  0
    7.4359  -15.1461   20.1760 C   0  0  0  0  0  0  0  0  0  0  0  0
    8.0565  -15.9382   21.2336 C   0  0  2  0  0  0  0  0  0  0  0  0
    7.2226  -17.1227   21.5734 N   0  0  0  0  0  0  0  0  0  0  0  0
    8.4234  -15.3349   22.4996 C   0  0  0  0  0  0  0  0  0  0  0  0
    9.4723  -14.5875   22.4616 O   0  0  0  0  0  0  0  0  0  0  0  0
    7.6883  -13.3370   14.8057 C   0  0  0  0  0  0  0  0  0  0  0  0
    5.9290  -11.2697   27.2199 S   0  0  0  0  0  0  0  0  0  0  0  0
    5.0797  -12.4143   26.1072 C   0  0  0  0  0  0  0  0  0  0  0  0
    6.2808  -13.1630   24.9824 C   0  0  0  0  0  0  0  0  0  0  0  0
    6.9931  -14.2920   25.6958 C   0  0  2  0  0  0  0  0  0  0  0  0
    8.2358  -14.6158   24.9077 N   0  0  0  0  0  0  0  0  0  0  0  0
    7.8266  -15.4354   23.7594 C   0  0  0  0  0  0  0  0  0  0  0  0
    9.2059  -15.4292   25.6859 O   0  0  0  0  0  0  0  0  0  0  0  0
    9.4797  -16.6254   25.3874 C   0  0  0  0  0  0  0  0  0  0  0  0
   10.2129  -15.0561   29.8616 C   0  0  1  0  0  0  0  0  0  0  0  0
   11.2837  -15.0046   28.8208 C   0  0  0  0  0  0  0  0  0  0  0  0
   11.7887  -13.6063   28.5774 C   0  0  1  0  0  0  0  0  0  0  0  0
   10.8455  -15.6841   27.5378 N   0  0  0  0  0  0  0  0  0  0  0  0
    9.8818  -14.8870   26.8224 C   0  0  0  0  0  0  0  0  0  0  0  0
   10.2028  -16.9707   27.9015 O   0  0  0  0  0  0  0  0  0  0  0  0
    8.8297  -17.0931   27.9320 O   0  0  0  0  0  0  0  0  0  0  0  0
  2  4  1  0
  2  1  1  0
  3  2  2  0
  5  4  1  0
  6  5  1  0
  7  6  1  0
  8  7  1  0
  8  9  1  1
 10 17  1  0
 10  8  1  0
 11 10  2  0
 13 12  1  0
 14 13  1  0
 16 15  1  6
 15 14  1  0
 16 17  1  0
 18 19  2  0
 18 16  1  0
 21 20  1  1
 21 23  1  0
 22 21  1  0
 23 25  1  0
 23 24  1  1
 24 18  1  0
 25 26  1  0
 27 25  2  0
M  END
$$$$
