TCV.pdb
     RDKit          3D

 21 20  0  0  1  0  0  0  0  0999 V2000
   24.4808  -11.0124  -20.7010 C   0  0  0  0  0  0  0  0  0  0  0  0
   24.1696  -12.5038  -20.6044 C   0  0  1  0  0  0  0  0  0  0  0  0
   24.5474  -13.1344  -21.7910 O   0  0  0  0  0  0  0  0  0  0  0  0
   24.9072  -13.0735  -19.4173 C   0  0  2  0  0  0  0  0  0  0  0  0
   24.6346  -14.4980  -19.3687 N   0  0  0  0  0  0  0  0  0  0  0  0
   24.3522  -12.4197  -18.1845 C   0  0  0  0  0  0  0  0  0  0  0  0
   23.1894  -12.6385  -17.7663 O   0  0  0  0  0  0  0  0  0  0  0  0
   25.1407  -11.5039  -17.4239 N   0  0  0  0  0  0  0  0  0  0  0  0
   24.6538  -10.8243  -16.2494 C   0  0  1  0  0  0  0  0  0  0  0  0
   25.7986  -10.6128  -15.3185 C   0  0  0  0  0  0  0  0  0  0  0  0
   26.9914   -9.5337  -16.1958 S   0  0  0  0  0  0  0  0  0  0  0  0
   23.9247   -9.5721  -16.5988 C   0  0  0  0  0  0  0  0  0  0  0  0
   24.4235   -8.8399  -17.4844 O   0  0  0  0  0  0  0  0  0  0  0  0
   20.0036   -6.8197  -17.2061 C   0  0  0  0  0  0  0  0  0  0  0  0
   20.7478   -8.1100  -17.0067 C   0  0  1  0  0  0  0  0  0  0  0  0
   20.9307   -8.8095  -18.3193 C   0  0  0  0  0  0  0  0  0  0  0  0
   22.0267   -7.9418  -16.2307 C   0  0  2  0  0  0  0  0  0  0  0  0
   22.7203   -9.1668  -16.0001 N   0  0  0  0  0  0  0  0  0  0  0  0
   21.7238   -7.1970  -14.9857 C   0  0  0  0  0  0  0  0  0  0  0  0
   21.7791   -7.7871  -13.7310 O   0  0  0  0  0  0  0  0  0  0  0  0
   21.4029   -5.9826  -15.0451 O   0  0  0  0  0  0  0  0  0  0  0  0
  2  1  1  6
  2  3  1  0
  4  5  1  1
  4  2  1  0
  6  4  1  0
  7  6  2  0
  8  6  1  0
  9  8  1  0
  9 12  1  0
  9 10  1  1
 11 10  1  0
 12 18  1  0
 12 13  2  0
 15 16  1  6
 15 14  1  0
 17 15  1  0
 17 18  1  1
 19 17  1  0
 19 20  1  0
 21 19  2  0
M  END
$$$$
