TCV.pdb
     RDKit          3D

 21 20  0  0  1  0  0  0  0  0999 V2000
   18.4739  -12.0335  -18.9096 C   0  0  0  0  0  0  0  0  0  0  0  0
   19.2425  -11.1752  -17.9080 C   0  0  1  0  0  0  0  0  0  0  0  0
   18.6513  -11.2900  -16.6488 O   0  0  0  0  0  0  0  0  0  0  0  0
   20.6808  -11.6323  -17.8865 C   0  0  2  0  0  0  0  0  0  0  0  0
   20.7274  -12.9150  -17.2092 N   0  0  0  0  0  0  0  0  0  0  0  0
   21.4633  -10.6244  -17.0946 C   0  0  0  0  0  0  0  0  0  0  0  0
   21.6498  -10.7307  -15.8582 O   0  0  0  0  0  0  0  0  0  0  0  0
   22.0372   -9.4813  -17.7293 N   0  0  0  0  0  0  0  0  0  0  0  0
   22.8506   -8.5143  -17.0353 C   0  0  1  0  0  0  0  0  0  0  0  0
   23.9376   -8.0676  -17.9522 C   0  0  0  0  0  0  0  0  0  0  0  0
   25.3412   -9.2170  -17.6957 S   0  0  0  0  0  0  0  0  0  0  0  0
   22.0314   -7.3968  -16.4858 C   0  0  0  0  0  0  0  0  0  0  0  0
   21.1542   -6.9017  -17.2307 O   0  0  0  0  0  0  0  0  0  0  0  0
   19.6699   -7.2118  -13.5582 C   0  0  0  0  0  0  0  0  0  0  0  0
   20.7198   -6.1558  -13.3557 C   0  0  1  0  0  0  0  0  0  0  0  0
   21.6347   -6.5448  -12.2344 C   0  0  0  0  0  0  0  0  0  0  0  0
   21.4434   -5.7896  -14.6238 C   0  0  2  0  0  0  0  0  0  0  0  0
   22.1817   -6.8697  -15.1925 N   0  0  0  0  0  0  0  0  0  0  0  0
   22.2714   -4.5892  -14.3598 C   0  0  0  0  0  0  0  0  0  0  0  0
   23.6583   -4.6160  -14.3986 O   0  0  0  0  0  0  0  0  0  0  0  0
   21.7170   -3.4935  -14.0890 O   0  0  0  0  0  0  0  0  0  0  0  0
  2  1  1  6
  2  3  1  0
  4  5  1  1
  4  2  1  0
  6  4  1  0
  7  6  2  0
  8  6  1  0
  9  8  1  0
  9 12  1  0
  9 10  1  6
 11 10  1  0
 12 18  1  0
 12 13  2  0
 15 16  1  1
 15 14  1  0
 17 15  1  0
 17 18  1  1
 19 17  1  0
 19 20  1  0
 21 19  2  0
M  END
$$$$
