TCV.pdb
     RDKit          3D

 21 20  0  0  1  0  0  0  0  0999 V2000
   19.0675   -9.0427  -19.6529 C   0  0  0  0  0  0  0  0  0  0  0  0
   18.3724  -10.3582  -19.3111 C   0  0  1  0  0  0  0  0  0  0  0  0
   17.6618  -10.8103  -20.4242 O   0  0  0  0  0  0  0  0  0  0  0  0
   19.4182  -11.3576  -18.8805 C   0  0  2  0  0  0  0  0  0  0  0  0
   18.7430  -12.6102  -18.5959 N   0  0  0  0  0  0  0  0  0  0  0  0
   20.0493  -10.8367  -17.6212 C   0  0  0  0  0  0  0  0  0  0  0  0
   19.4002  -10.6559  -16.5625 O   0  0  0  0  0  0  0  0  0  0  0  0
   21.4407  -10.5192  -17.5773 N   0  0  0  0  0  0  0  0  0  0  0  0
   22.0921   -9.9705  -16.4141 C   0  0  1  0  0  0  0  0  0  0  0  0
   23.4406  -10.5939  -16.2910 C   0  0  0  0  0  0  0  0  0  0  0  0
   24.2823   -9.7450  -14.9025 S   0  0  0  0  0  0  0  0  0  0  0  0
   22.1202   -8.4807  -16.4485 C   0  0  0  0  0  0  0  0  0  0  0  0
   22.6512   -7.9347  -17.4431 O   0  0  0  0  0  0  0  0  0  0  0  0
   20.0016   -5.8427  -17.1587 C   0  0  0  0  0  0  0  0  0  0  0  0
   20.4523   -5.5081  -15.7647 C   0  0  1  0  0  0  0  0  0  0  0  0
   19.3178   -5.6762  -14.8002 C   0  0  0  0  0  0  0  0  0  0  0  0
   21.7035   -6.2383  -15.3558 C   0  0  2  0  0  0  0  0  0  0  0  0
   21.5902   -7.6578  -15.4410 N   0  0  0  0  0  0  0  0  0  0  0  0
   22.1042   -5.7625  -14.0107 C   0  0  0  0  0  0  0  0  0  0  0  0
   22.0618   -6.5769  -12.8878 O   0  0  0  0  0  0  0  0  0  0  0  0
   22.5018   -4.5793  -13.8579 O   0  0  0  0  0  0  0  0  0  0  0  0
  2  1  1  6
  2  3  1  0
  4  5  1  1
  4  2  1  0
  6  4  1  0
  7  6  2  0
  8  6  1  0
  9  8  1  0
  9 12  1  0
  9 10  1  6
 11 10  1  0
 12 18  1  0
 12 13  2  0
 15 16  1  1
 15 14  1  0
 17 15  1  0
 17 18  1  1
 19 17  1  0
 19 20  1  0
 21 19  2  0
M  END
$$$$
