TCV.pdb
     RDKit          3D

 21 20  0  0  1  0  0  0  0  0999 V2000
   23.3878  -15.1779  -14.6521 C   0  0  0  0  0  0  0  0  0  0  0  0
   23.3417  -16.0857  -15.8786 C   0  0  1  0  0  0  0  0  0  0  0  0
   23.8669  -17.3366  -15.5499 O   0  0  0  0  0  0  0  0  0  0  0  0
   21.9101  -16.1931  -16.3443 C   0  0  2  0  0  0  0  0  0  0  0  0
   21.8736  -17.1321  -17.4501 N   0  0  0  0  0  0  0  0  0  0  0  0
   21.4907  -14.8360  -16.8317 C   0  0  0  0  0  0  0  0  0  0  0  0
   22.0303  -14.2722  -17.8145 O   0  0  0  0  0  0  0  0  0  0  0  0
   20.4408  -14.1179  -16.1830 N   0  0  0  0  0  0  0  0  0  0  0  0
   20.0506  -12.7798  -16.5513 C   0  0  1  0  0  0  0  0  0  0  0  0
   18.6171  -12.8022  -16.9597 C   0  0  0  0  0  0  0  0  0  0  0  0
   18.5064  -13.9132  -18.4124 S   0  0  0  0  0  0  0  0  0  0  0  0
   20.3514  -11.7996  -15.4694 C   0  0  0  0  0  0  0  0  0  0  0  0
   19.8828  -12.0322  -14.3311 O   0  0  0  0  0  0  0  0  0  0  0  0
   23.7029  -10.6191  -14.0830 C   0  0  0  0  0  0  0  0  0  0  0  0
   22.9242   -9.4108  -14.5211 C   0  0  1  0  0  0  0  0  0  0  0  0
   23.5376   -8.8193  -15.7538 C   0  0  0  0  0  0  0  0  0  0  0  0
   21.4474   -9.6730  -14.6497 C   0  0  2  0  0  0  0  0  0  0  0  0
   21.1237  -10.6399  -15.6474 N   0  0  0  0  0  0  0  0  0  0  0  0
   20.7575   -8.3761  -14.8454 C   0  0  0  0  0  0  0  0  0  0  0  0
   20.6676   -7.4200  -13.8436 O   0  0  0  0  0  0  0  0  0  0  0  0
   20.2267   -8.1103  -15.9540 O   0  0  0  0  0  0  0  0  0  0  0  0
  2  1  1  1
  2  3  1  0
  4  5  1  6
  4  2  1  0
  6  4  1  0
  7  6  2  0
  8  6  1  0
  9  8  1  0
  9 12  1  0
  9 10  1  1
 11 10  1  0
 12 18  1  0
 12 13  2  0
 15 16  1  6
 15 14  1  0
 17 15  1  0
 17 18  1  6
 19 17  1  0
 19 20  1  0
 21 19  2  0
M  END
$$$$
