TCV.pdb
     RDKit          3D

 21 20  0  0  1  0  0  0  0  0999 V2000
   14.0047   -9.8017  -14.9257 C   0  0  0  0  0  0  0  0  0  0  0  0
   14.3268  -11.2850  -14.7627 C   0  0  1  0  0  0  0  0  0  0  0  0
   13.7104  -12.0086  -15.7849 O   0  0  0  0  0  0  0  0  0  0  0  0
   15.8259  -11.4578  -14.7904 C   0  0  2  0  0  0  0  0  0  0  0  0
   16.1103  -12.8760  -14.6723 N   0  0  0  0  0  0  0  0  0  0  0  0
   16.3856  -10.7384  -13.5969 C   0  0  0  0  0  0  0  0  0  0  0  0
   16.2049  -11.1353  -12.4201 O   0  0  0  0  0  0  0  0  0  0  0  0
   17.1607   -9.5499  -13.7562 N   0  0  0  0  0  0  0  0  0  0  0  0
   17.6783   -8.7867  -12.6480 C   0  0  1  0  0  0  0  0  0  0  0  0
   18.9531   -8.1421  -13.0740 C   0  0  0  0  0  0  0  0  0  0  0  0
   19.5293   -7.1379  -11.6539 S   0  0  0  0  0  0  0  0  0  0  0  0
   16.6678   -7.8273  -12.1187 C   0  0  0  0  0  0  0  0  0  0  0  0
   16.0885   -7.0834  -12.9435 O   0  0  0  0  0  0  0  0  0  0  0  0
   14.9161   -8.2201   -8.2035 C   0  0  0  0  0  0  0  0  0  0  0  0
   14.3530   -7.4082   -9.3357 C   0  0  1  0  0  0  0  0  0  0  0  0
   13.3367   -6.4356   -8.8190 C   0  0  0  0  0  0  0  0  0  0  0  0
   15.4143   -6.7715  -10.1927 C   0  0  2  0  0  0  0  0  0  0  0  0
   16.3276   -7.7084  -10.7610 N   0  0  0  0  0  0  0  0  0  0  0  0
   16.0806   -5.7106   -9.4009 C   0  0  0  0  0  0  0  0  0  0  0  0
   17.3918   -5.8206   -8.9602 O   0  0  0  0  0  0  0  0  0  0  0  0
   15.4526   -4.6617   -9.1061 O   0  0  0  0  0  0  0  0  0  0  0  0
  2  1  1  6
  2  3  1  0
  4  5  1  1
  4  2  1  0
  6  4  1  0
  7  6  2  0
  8  6  1  0
  9  8  1  0
  9 12  1  0
  9 10  1  6
 11 10  1  0
 12 18  1  0
 12 13  2  0
 15 16  1  1
 15 14  1  0
 17 15  1  0
 17 18  1  1
 19 17  1  0
 19 20  1  0
 21 19  2  0
M  END
$$$$
