TCV.pdb
     RDKit          3D

 21 20  0  0  1  0  0  0  0  0999 V2000
   20.2667  -11.1043  -18.0641 C   0  0  0  0  0  0  0  0  0  0  0  0
   19.0651  -12.0197  -17.8432 C   0  0  1  0  0  0  0  0  0  0  0  0
   19.3616  -13.2977  -18.3199 O   0  0  0  0  0  0  0  0  0  0  0  0
   18.7415  -12.0416  -16.3692 C   0  0  2  0  0  0  0  0  0  0  0  0
   17.6153  -12.9364  -16.1765 N   0  0  0  0  0  0  0  0  0  0  0  0
   18.3420  -10.6490  -15.9737 C   0  0  0  0  0  0  0  0  0  0  0  0
   17.1812  -10.2031  -16.1429 O   0  0  0  0  0  0  0  0  0  0  0  0
   19.2859   -9.7584  -15.3782 N   0  0  0  0  0  0  0  0  0  0  0  0
   19.0038   -8.3711  -15.1055 C   0  0  1  0  0  0  0  0  0  0  0  0
   17.7733   -8.2961  -14.2675 C   0  0  0  0  0  0  0  0  0  0  0  0
   18.1990   -9.0411  -12.6486 S   0  0  0  0  0  0  0  0  0  0  0  0
   20.1797   -7.6756  -14.5093 C   0  0  0  0  0  0  0  0  0  0  0  0
   20.9108   -8.3353  -13.7350 O   0  0  0  0  0  0  0  0  0  0  0  0
   23.9218   -4.7529  -15.2475 C   0  0  0  0  0  0  0  0  0  0  0  0
   22.6628   -5.4938  -15.6002 C   0  0  1  0  0  0  0  0  0  0  0  0
   22.9957   -6.7662  -16.3183 C   0  0  0  0  0  0  0  0  0  0  0  0
   21.7417   -5.6885  -14.4256 C   0  0  2  0  0  0  0  0  0  0  0  0
   20.5157   -6.3353  -14.7621 N   0  0  0  0  0  0  0  0  0  0  0  0
   21.5493   -4.3785  -13.7600 C   0  0  0  0  0  0  0  0  0  0  0  0
   20.3440   -3.6918  -13.7986 O   0  0  0  0  0  0  0  0  0  0  0  0
   22.5009   -3.8506  -13.1297 O   0  0  0  0  0  0  0  0  0  0  0  0
  2  1  1  1
  2  3  1  0
  4  5  1  6
  4  2  1  0
  6  4  1  0
  7  6  2  0
  8  6  1  0
  9  8  1  0
  9 12  1  0
  9 10  1  1
 11 10  1  0
 12 18  1  0
 12 13  2  0
 15 16  1  1
 15 14  1  0
 17 15  1  0
 17 18  1  6
 19 17  1  0
 19 20  1  0
 21 19  2  0
M  END
$$$$
