TCV.pdb
     RDKit          3D

 21 20  0  0  1  0  0  0  0  0999 V2000
   27.4225  -20.0629  -12.1189 C   0  0  0  0  0  0  0  0  0  0  0  0
   26.5087  -20.9390  -11.2657 C   0  0  1  0  0  0  0  0  0  0  0  0
   26.9988  -20.9868   -9.9596 O   0  0  0  0  0  0  0  0  0  0  0  0
   25.1131  -20.3662  -11.3111 C   0  0  2  0  0  0  0  0  0  0  0  0
   24.2907  -21.1305  -10.3917 N   0  0  0  0  0  0  0  0  0  0  0  0
   24.5953  -20.5485  -12.7090 C   0  0  0  0  0  0  0  0  0  0  0  0
   23.9929  -21.5854  -13.0788 O   0  0  0  0  0  0  0  0  0  0  0  0
   24.7719  -19.5293  -13.6933 N   0  0  0  0  0  0  0  0  0  0  0  0
   24.2977  -19.6467  -15.0497 C   0  0  1  0  0  0  0  0  0  0  0  0
   22.8335  -19.9244  -15.0149 C   0  0  0  0  0  0  0  0  0  0  0  0
   22.1143  -18.7758  -13.7818 S   0  0  0  0  0  0  0  0  0  0  0  0
   24.6637  -18.4555  -15.8675 C   0  0  0  0  0  0  0  0  0  0  0  0
   24.2207  -17.3429  -15.4997 O   0  0  0  0  0  0  0  0  0  0  0  0
   28.2191  -17.4629  -16.4924 C   0  0  0  0  0  0  0  0  0  0  0  0
   27.5265  -17.4379  -17.8258 C   0  0  1  0  0  0  0  0  0  0  0  0
   28.0273  -18.5554  -18.6896 C   0  0  0  0  0  0  0  0  0  0  0  0
   26.0261  -17.3904  -17.7127 C   0  0  2  0  0  0  0  0  0  0  0  0
   25.4701  -18.5045  -17.0165 N   0  0  0  0  0  0  0  0  0  0  0  0
   25.4604  -17.2064  -19.0701 C   0  0  0  0  0  0  0  0  0  0  0  0
   25.6544  -16.0477  -19.8086 O   0  0  0  0  0  0  0  0  0  0  0  0
   24.7757  -18.1228  -19.5924 O   0  0  0  0  0  0  0  0  0  0  0  0
  2  1  1  6
  2  3  1  0
  4  5  1  1
  4  2  1  0
  6  4  1  0
  7  6  2  0
  8  6  1  0
  9  8  1  0
  9 12  1  0
  9 10  1  1
 11 10  1  0
 12 18  1  0
 12 13  2  0
 15 16  1  6
 15 14  1  0
 17 15  1  0
 17 18  1  6
 19 17  1  0
 19 20  1  0
 21 19  2  0
M  END
$$$$
