TCV.pdb
     RDKit          3D

 21 20  0  0  1  0  0  0  0  0999 V2000
   17.7907   -9.7453  -18.1081 C   0  0  0  0  0  0  0  0  0  0  0  0
   17.7251  -10.8951  -17.1060 C   0  0  1  0  0  0  0  0  0  0  0  0
   17.4482  -12.0845  -17.7821 O   0  0  0  0  0  0  0  0  0  0  0  0
   19.0423  -10.9704  -16.3730 C   0  0  2  0  0  0  0  0  0  0  0  0
   19.0129  -12.1512  -15.5300 N   0  0  0  0  0  0  0  0  0  0  0  0
   19.1490   -9.7465  -15.5092 C   0  0  0  0  0  0  0  0  0  0  0  0
   18.2296   -9.3787  -14.7383 O   0  0  0  0  0  0  0  0  0  0  0  0
   20.3240   -8.9355  -15.5315 N   0  0  0  0  0  0  0  0  0  0  0  0
   20.3976   -7.6299  -14.9245 C   0  0  1  0  0  0  0  0  0  0  0  0
   21.7963   -7.4034  -14.4615 C   0  0  0  0  0  0  0  0  0  0  0  0
   21.8753   -5.6712  -13.8698 S   0  0  0  0  0  0  0  0  0  0  0  0
   19.8876   -6.5675  -15.8372 C   0  0  0  0  0  0  0  0  0  0  0  0
   20.3136   -6.5631  -17.0152 O   0  0  0  0  0  0  0  0  0  0  0  0
   16.9786   -6.0891  -17.6080 C   0  0  0  0  0  0  0  0  0  0  0  0
   17.0631   -4.8178  -16.8110 C   0  0  1  0  0  0  0  0  0  0  0  0
   16.0054   -4.8018  -15.7496 C   0  0  0  0  0  0  0  0  0  0  0  0
   18.4464   -4.5387  -16.2869 C   0  0  2  0  0  0  0  0  0  0  0  0
   18.9643   -5.5786  -15.4592 N   0  0  0  0  0  0  0  0  0  0  0  0
   18.4367   -3.2130  -15.6244 C   0  0  0  0  0  0  0  0  0  0  0  0
   18.3199   -2.0256  -16.3330 O   0  0  0  0  0  0  0  0  0  0  0  0
   18.5362   -3.1377  -14.3731 O   0  0  0  0  0  0  0  0  0  0  0  0
  2  1  1  6
  2  3  1  0
  4  5  1  1
  4  2  1  0
  6  4  1  0
  7  6  2  0
  8  6  1  0
  9  8  1  0
  9 12  1  0
  9 10  1  6
 11 10  1  0
 12 18  1  0
 12 13  2  0
 15 16  1  1
 15 14  1  0
 17 15  1  0
 17 18  1  1
 19 17  1  0
 19 20  1  0
 21 19  2  0
M  END
$$$$
