TCV.pdb
     RDKit          3D

 21 20  0  0  1  0  0  0  0  0999 V2000
   19.5548  -12.4493  -19.3044 C   0  0  0  0  0  0  0  0  0  0  0  0
   19.2573  -13.5307  -18.2688 C   0  0  1  0  0  0  0  0  0  0  0  0
   18.6093  -14.6007  -18.8883 O   0  0  0  0  0  0  0  0  0  0  0  0
   20.5582  -13.9637  -17.6378 C   0  0  2  0  0  0  0  0  0  0  0  0
   20.3146  -15.2067  -16.9296 N   0  0  0  0  0  0  0  0  0  0  0  0
   20.9581  -12.9021  -16.6536 C   0  0  0  0  0  0  0  0  0  0  0  0
   20.2273  -12.5586  -15.6930 O   0  0  0  0  0  0  0  0  0  0  0  0
   22.2105  -12.2270  -16.7744 N   0  0  0  0  0  0  0  0  0  0  0  0
   22.6029  -11.1274  -15.9286 C   0  0  1  0  0  0  0  0  0  0  0  0
   24.0867  -11.1474  -15.7873 C   0  0  0  0  0  0  0  0  0  0  0  0
   24.4619  -12.2688  -14.3878 S   0  0  0  0  0  0  0  0  0  0  0  0
   22.0645   -9.8293  -16.4255 C   0  0  0  0  0  0  0  0  0  0  0  0
   22.2986   -9.5242  -17.6178 O   0  0  0  0  0  0  0  0  0  0  0  0
   18.9053   -8.6909  -17.4070 C   0  0  0  0  0  0  0  0  0  0  0  0
   19.2915   -7.7243  -16.3230 C   0  0  1  0  0  0  0  0  0  0  0  0
   18.4768   -7.9767  -15.0909 C   0  0  0  0  0  0  0  0  0  0  0  0
   20.7743   -7.6841  -16.0666 C   0  0  2  0  0  0  0  0  0  0  0  0
   21.3151   -8.9345  -15.6439 N   0  0  0  0  0  0  0  0  0  0  0  0
   21.0560   -6.5756  -15.1241 C   0  0  0  0  0  0  0  0  0  0  0  0
   20.9727   -5.2411  -15.4953 O   0  0  0  0  0  0  0  0  0  0  0  0
   21.3840   -6.8311  -13.9373 O   0  0  0  0  0  0  0  0  0  0  0  0
  2  1  1  6
  2  3  1  0
  4  5  1  1
  4  2  1  0
  6  4  1  0
  7  6  2  0
  8  6  1  0
  9  8  1  0
  9 12  1  0
  9 10  1  6
 11 10  1  0
 12 18  1  0
 12 13  2  0
 15 16  1  1
 15 14  1  0
 17 15  1  0
 17 18  1  1
 19 17  1  0
 19 20  1  0
 21 19  2  0
M  END
$$$$
