TCV.pdb
     RDKit          3D

 21 20  0  0  1  0  0  0  0  0999 V2000
   21.2885  -10.3189  -18.7120 C   0  0  0  0  0  0  0  0  0  0  0  0
   20.0200  -11.1331  -18.9536 C   0  0  1  0  0  0  0  0  0  0  0  0
   20.2994  -12.1755  -19.8389 O   0  0  0  0  0  0  0  0  0  0  0  0
   19.5223  -11.6537  -17.6272 C   0  0  2  0  0  0  0  0  0  0  0  0
   18.3504  -12.4703  -17.8837 N   0  0  0  0  0  0  0  0  0  0  0  0
   19.1279  -10.4671  -16.7955 C   0  0  0  0  0  0  0  0  0  0  0  0
   18.3094   -9.6028  -17.1930 O   0  0  0  0  0  0  0  0  0  0  0  0
   19.6800  -10.2702  -15.4935 N   0  0  0  0  0  0  0  0  0  0  0  0
   19.3866   -9.1213  -14.6736 C   0  0  1  0  0  0  0  0  0  0  0  0
   18.6290   -9.5791  -13.4742 C   0  0  0  0  0  0  0  0  0  0  0  0
   18.6167   -8.1743  -12.2980 S   0  0  0  0  0  0  0  0  0  0  0  0
   20.6178   -8.3474  -14.3469 C   0  0  0  0  0  0  0  0  0  0  0  0
   21.5848   -8.9772  -13.8594 O   0  0  0  0  0  0  0  0  0  0  0  0
   22.9914   -6.6935  -16.5280 C   0  0  0  0  0  0  0  0  0  0  0  0
   22.5508   -5.6285  -15.5636 C   0  0  1  0  0  0  0  0  0  0  0  0
   21.6903   -4.6210  -16.2637 C   0  0  0  0  0  0  0  0  0  0  0  0
   21.9287   -6.1850  -14.3109 C   0  0  2  0  0  0  0  0  0  0  0  0
   20.7588   -6.9649  -14.5518 N   0  0  0  0  0  0  0  0  0  0  0  0
   21.7026   -5.0670  -13.3646 C   0  0  0  0  0  0  0  0  0  0  0  0
   22.7445   -4.3908  -12.7459 O   0  0  0  0  0  0  0  0  0  0  0  0
   20.5297   -4.6999  -13.0981 O   0  0  0  0  0  0  0  0  0  0  0  0
  2  1  1  1
  2  3  1  0
  4  5  1  6
  4  2  1  0
  6  4  1  0
  7  6  2  0
  8  6  1  0
  9  8  1  0
  9 12  1  0
  9 10  1  1
 11 10  1  0
 12 18  1  0
 12 13  2  0
 15 16  1  6
 15 14  1  0
 17 15  1  0
 17 18  1  6
 19 17  1  0
 19 20  1  0
 21 19  2  0
M  END
$$$$
