TCV.pdb
     RDKit          3D

 21 20  0  0  1  0  0  0  0  0999 V2000
   20.9461   -6.0098  -11.7707 C   0  0  0  0  0  0  0  0  0  0  0  0
   21.2620   -5.5203  -13.1818 C   0  0  1  0  0  0  0  0  0  0  0  0
   22.6008   -5.1312  -13.2490 O   0  0  0  0  0  0  0  0  0  0  0  0
   20.9608   -6.6331  -14.1559 C   0  0  2  0  0  0  0  0  0  0  0  0
   21.3598   -6.1849  -15.4772 N   0  0  0  0  0  0  0  0  0  0  0  0
   19.4766   -6.8611  -14.1364 C   0  0  0  0  0  0  0  0  0  0  0  0
   18.6630   -6.0754  -14.6803 O   0  0  0  0  0  0  0  0  0  0  0  0
   18.9203   -8.0033  -13.4846 N   0  0  0  0  0  0  0  0  0  0  0  0
   17.5025   -8.2344  -13.3634 C   0  0  1  0  0  0  0  0  0  0  0  0
   17.1174   -9.3133  -14.3172 C   0  0  0  0  0  0  0  0  0  0  0  0
   15.3701   -9.7295  -13.9556 S   0  0  0  0  0  0  0  0  0  0  0  0
   17.1068   -8.5103  -11.9531 C   0  0  0  0  0  0  0  0  0  0  0  0
   17.6582   -9.4756  -11.3757 O   0  0  0  0  0  0  0  0  0  0  0  0
   14.8534   -5.6991   -9.5944 C   0  0  0  0  0  0  0  0  0  0  0  0
   15.6001   -6.8698   -9.0197 C   0  0  1  0  0  0  0  0  0  0  0  0
   15.0821   -7.1919   -7.6509 C   0  0  0  0  0  0  0  0  0  0  0  0
   15.6398   -8.0577   -9.9434 C   0  0  2  0  0  0  0  0  0  0  0  0
   16.1607   -7.7582  -11.2372 N   0  0  0  0  0  0  0  0  0  0  0  0
   14.2886   -8.6652   -9.9824 C   0  0  0  0  0  0  0  0  0  0  0  0
   13.3982   -8.4386  -11.0224 O   0  0  0  0  0  0  0  0  0  0  0  0
   13.9137   -9.4187   -9.0480 O   0  0  0  0  0  0  0  0  0  0  0  0
  2  1  1  1
  2  3  1  0
  4  5  1  6
  4  2  1  0
  6  4  1  0
  7  6  2  0
  8  6  1  0
  9  8  1  0
  9 12  1  0
  9 10  1  6
 11 10  1  0
 12 18  1  0
 12 13  2  0
 15 16  1  1
 15 14  1  0
 17 15  1  0
 17 18  1  6
 19 17  1  0
 19 20  1  0
 21 19  2  0
M  END
$$$$
