TCV.pdb
     RDKit          3D

 21 20  0  0  1  0  0  0  0  0999 V2000
   23.0413  -21.3615  -12.1159 C   0  0  0  0  0  0  0  0  0  0  0  0
   23.5979  -20.7727  -10.8221 C   0  0  1  0  0  0  0  0  0  0  0  0
   22.9831  -21.3878   -9.7303 O   0  0  0  0  0  0  0  0  0  0  0  0
   25.0927  -20.9800  -10.8030 C   0  0  2  0  0  0  0  0  0  0  0  0
   25.5892  -20.5052   -9.5247 N   0  0  0  0  0  0  0  0  0  0  0  0
   25.6788  -20.1441  -11.9044 C   0  0  0  0  0  0  0  0  0  0  0  0
   25.7563  -18.8933  -11.8379 O   0  0  0  0  0  0  0  0  0  0  0  0
   26.1805  -20.7509  -13.0955 N   0  0  0  0  0  0  0  0  0  0  0  0
   26.6176  -19.9983  -14.2449 C   0  0  1  0  0  0  0  0  0  0  0  0
   27.9899  -20.4511  -14.6109 C   0  0  0  0  0  0  0  0  0  0  0  0
   27.8913  -22.2635  -14.8610 S   0  0  0  0  0  0  0  0  0  0  0  0
   25.6384  -20.0834  -15.3654 C   0  0  0  0  0  0  0  0  0  0  0  0
   25.0144  -21.1602  -15.5080 O   0  0  0  0  0  0  0  0  0  0  0  0
   22.8774  -17.1795  -16.7233 C   0  0  0  0  0  0  0  0  0  0  0  0
   23.0397  -18.6605  -16.9198 C   0  0  1  0  0  0  0  0  0  0  0  0
   21.9723  -19.1808  -17.8339 C   0  0  0  0  0  0  0  0  0  0  0  0
   24.4323  -19.0533  -17.3351 C   0  0  2  0  0  0  0  0  0  0  0  0
   25.3741  -19.0365  -16.2639 N   0  0  0  0  0  0  0  0  0  0  0  0
   24.8348  -18.2056  -18.4822 C   0  0  0  0  0  0  0  0  0  0  0  0
   25.7502  -17.1699  -18.3596 O   0  0  0  0  0  0  0  0  0  0  0  0
   24.3410  -18.4156  -19.6195 O   0  0  0  0  0  0  0  0  0  0  0  0
  2  1  1  6
  2  3  1  0
  4  5  1  1
  4  2  1  0
  6  4  1  0
  7  6  2  0
  8  6  1  0
  9  8  1  0
  9 12  1  0
  9 10  1  6
 11 10  1  0
 12 18  1  0
 12 13  2  0
 15 16  1  6
 15 14  1  0
 17 15  1  0
 17 18  1  1
 19 17  1  0
 19 20  1  0
 21 19  2  0
M  END
$$$$
