YWQ.pdb
     RDKit          3D

 36 38  0  0  1  0  0  0  0  0999 V2000
    7.1307  -15.4269   14.8362 O   0  0  0  0  0  0  0  0  0  0  0  0
    7.6915  -15.4757   16.1238 C   0  0  0  0  0  0  0  0  0  0  0  0
    7.4840  -16.5801   16.9242 C   0  0  0  0  0  0  0  0  0  0  0  0
    8.0439  -16.5982   18.1742 C   0  0  0  0  0  0  0  0  0  0  0  0
    8.8043  -15.5483   18.6497 C   0  0  0  0  0  0  0  0  0  0  0  0
    9.4202  -15.5601   20.0099 C   0  0  0  0  0  0  0  0  0  0  0  0
    8.3554  -15.0520   20.9685 C   0  0  2  0  0  0  0  0  0  0  0  0
    8.1000  -13.6457   20.7465 N   0  0  0  0  0  0  0  0  0  0  0  0
    8.8216  -15.2312   22.3593 C   0  0  0  0  0  0  0  0  0  0  0  0
    9.7149  -14.4805   22.8084 O   0  0  0  0  0  0  0  0  0  0  0  0
    8.9975  -14.4562   17.8322 C   0  0  0  0  0  0  0  0  0  0  0  0
    8.4372  -14.4171   16.5575 C   0  0  0  0  0  0  0  0  0  0  0  0
    8.2501  -16.2454   23.1518 N   0  0  0  0  0  0  0  0  0  0  0  0
    8.7591  -16.4844   24.4879 C   0  0  1  0  0  0  0  0  0  0  0  0
    7.6005  -16.4554   25.4118 C   0  0  0  0  0  0  0  0  0  0  0  0
    6.8591  -15.1997   25.4383 C   0  0  0  0  0  0  0  0  0  0  0  0
    5.6188  -14.9389   24.8427 C   0  0  0  0  0  0  0  0  0  0  0  0
    5.3319  -13.6600   25.0869 N   0  0  0  0  0  0  0  0  0  0  0  0
    6.3250  -13.0966   25.8069 C   0  0  0  0  0  0  0  0  0  0  0  0
    6.5126  -11.8224   26.3271 C   0  0  0  0  0  0  0  0  0  0  0  0
    7.6375  -11.5075   27.0595 C   0  0  0  0  0  0  0  0  0  0  0  0
    8.6101  -12.4433   27.2994 C   0  0  0  0  0  0  0  0  0  0  0  0
    8.4350  -13.7077   26.7884 C   0  0  0  0  0  0  0  0  0  0  0  0
    7.2982  -14.0310   26.0458 C   0  0  0  0  0  0  0  0  0  0  0  0
    9.6731  -17.6154   24.5538 C   0  0  0  0  0  0  0  0  0  0  0  0
    9.5330  -18.5806   23.7718 O   0  0  0  0  0  0  0  0  0  0  0  0
   14.9973  -18.5271   23.1928 N   0  0  0  0  0  0  0  0  0  0  0  0
   14.4174  -17.3361   23.6873 C   0  0  0  0  0  0  0  0  0  0  0  0
   14.9310  -16.2351   23.3409 O   0  0  0  0  0  0  0  0  0  0  0  0
   13.2415  -17.4193   24.5752 C   0  0  0  0  0  0  0  0  0  0  0  0
   12.7780  -18.7954   24.8902 C   0  0  0  0  0  0  0  0  0  0  0  0
   11.5529  -18.8924   25.7176 C   0  0  2  0  0  0  0  0  0  0  0  0
   10.7355  -17.6659   25.4886 N   0  0  0  0  0  0  0  0  0  0  0  0
   11.6655  -19.1124   27.1440 C   0  0  0  0  0  0  0  0  0  0  0  0
   11.1694  -18.3693   28.0203 O   0  0  0  0  0  0  0  0  0  0  0  0
   12.3684  -20.2194   27.6268 O   0  0  0  0  0  0  0  0  0  0  0  0
  2  1  1  0
  3  2  2  0
  4  3  1  0
  5  4  2  0
  5 11  1  0
  6  5  1  0
  7  8  1  6
  7  6  1  0
  9 13  1  0
  9  7  1  0
 10  9  2  0
 11 12  2  0
 12  2  1  0
 14 15  1  1
 14 25  1  0
 14 13  1  0
 16 17  2  0
 16 15  1  0
 18 17  1  0
 19 24  2  0
 19 18  1  0
 20 19  1  0
 21 22  1  0
 21 20  2  0
 22 23  2  0
 23 24  1  0
 24 16  1  0
 25 33  1  0
 26 25  2  0
 27 28  1  0
 28 29  2  0
 30 31  1  0
 30 28  1  0
 32 33  1  0
 32 34  1  0
 32 31  1  1
 34 35  2  0
 34 36  1  0
M  END
$$$$
