YWQ.pdb
     RDKit          3D

 36 38  0  0  1  0  0  0  0  0999 V2000
    5.9747  -23.4324   17.1108 O   0  0  0  0  0  0  0  0  0  0  0  0
    6.6784  -22.6185   18.0148 C   0  0  0  0  0  0  0  0  0  0  0  0
    8.0009  -22.3071   17.7757 C   0  0  0  0  0  0  0  0  0  0  0  0
    8.6598  -21.5113   18.6751 C   0  0  0  0  0  0  0  0  0  0  0  0
    8.0394  -21.0169   19.8053 C   0  0  0  0  0  0  0  0  0  0  0  0
    8.7490  -20.1471   20.7900 C   0  0  0  0  0  0  0  0  0  0  0  0
    8.6040  -18.7202   20.2862 C   0  0  2  0  0  0  0  0  0  0  0  0
    9.2953  -18.5524   19.0268 N   0  0  0  0  0  0  0  0  0  0  0  0
    9.1916  -17.7897   21.2726 C   0  0  0  0  0  0  0  0  0  0  0  0
   10.4347  -17.6779   21.3456 O   0  0  0  0  0  0  0  0  0  0  0  0
    6.7182  -21.3415   20.0226 C   0  0  0  0  0  0  0  0  0  0  0  0
    6.0292  -22.1493   19.1208 C   0  0  0  0  0  0  0  0  0  0  0  0
    8.3386  -17.0470   22.1117 N   0  0  0  0  0  0  0  0  0  0  0  0
    8.9058  -16.1309   23.0815 C   0  0  1  0  0  0  0  0  0  0  0  0
    7.9902  -14.9694   23.1774 C   0  0  0  0  0  0  0  0  0  0  0  0
    8.4026  -13.9295   24.1131 C   0  0  0  0  0  0  0  0  0  0  0  0
    9.6039  -13.2101   24.1000 C   0  0  0  0  0  0  0  0  0  0  0  0
    9.5773  -12.3905   25.1512 N   0  0  0  0  0  0  0  0  0  0  0  0
    8.4215  -12.5520   25.8296 C   0  0  0  0  0  0  0  0  0  0  0  0
    7.8966  -11.9468   26.9642 C   0  0  0  0  0  0  0  0  0  0  0  0
    6.6533  -12.2932   27.4492 C   0  0  0  0  0  0  0  0  0  0  0  0
    5.8922  -13.2484   26.8264 C   0  0  0  0  0  0  0  0  0  0  0  0
    6.4026  -13.8545   25.7028 C   0  0  0  0  0  0  0  0  0  0  0  0
    7.6610  -13.5075   25.2085 C   0  0  0  0  0  0  0  0  0  0  0  0
    9.3232  -16.7909   24.3099 C   0  0  0  0  0  0  0  0  0  0  0  0
    8.5541  -17.5930   24.8828 O   0  0  0  0  0  0  0  0  0  0  0  0
   15.4888  -18.7706   25.1758 N   0  0  0  0  0  0  0  0  0  0  0  0
   14.3792  -18.4511   24.3597 C   0  0  0  0  0  0  0  0  0  0  0  0
   14.6011  -18.0571   23.1802 O   0  0  0  0  0  0  0  0  0  0  0  0
   13.0155  -18.5938   24.9058 C   0  0  0  0  0  0  0  0  0  0  0  0
   12.5875  -17.5187   25.8377 C   0  0  0  0  0  0  0  0  0  0  0  0
   11.1255  -17.3675   26.0239 C   0  0  2  0  0  0  0  0  0  0  0  0
   10.5916  -16.5544   24.8932 N   0  0  0  0  0  0  0  0  0  0  0  0
   10.6120  -16.8262   27.2645 C   0  0  0  0  0  0  0  0  0  0  0  0
   10.8988  -17.2594   28.4031 O   0  0  0  0  0  0  0  0  0  0  0  0
    9.7302  -15.7424   27.2419 O   0  0  0  0  0  0  0  0  0  0  0  0
  2  1  1  0
  3  2  2  0
  4  3  1  0
  5  4  2  0
  5 11  1  0
  6  5  1  0
  7  8  1  6
  7  6  1  0
  9 13  1  0
  9  7  1  0
 10  9  2  0
 11 12  2  0
 12  2  1  0
 14 15  1  1
 14 25  1  0
 14 13  1  0
 16 17  2  0
 16 15  1  0
 18 17  1  0
 19 24  2  0
 19 18  1  0
 20 19  1  0
 21 22  1  0
 21 20  2  0
 22 23  2  0
 23 24  1  0
 24 16  1  0
 25 33  1  0
 26 25  2  0
 27 28  1  0
 28 29  2  0
 30 31  1  0
 30 28  1  0
 32 33  1  0
 32 34  1  0
 32 31  1  1
 34 35  2  0
 34 36  1  0
M  END
$$$$
