YWQ.pdb
     RDKit          3D

 36 38  0  0  1  0  0  0  0  0999 V2000
    7.5250  -14.4704   13.0066 O   0  0  0  0  0  0  0  0  0  0  0  0
    7.7757  -14.2944   14.3781 C   0  0  0  0  0  0  0  0  0  0  0  0
    6.7233  -14.1364   15.2560 C   0  0  0  0  0  0  0  0  0  0  0  0
    6.9997  -13.9672   16.5869 C   0  0  0  0  0  0  0  0  0  0  0  0
    8.2938  -13.9509   17.0683 C   0  0  0  0  0  0  0  0  0  0  0  0
    8.6046  -13.7691   18.5174 C   0  0  0  0  0  0  0  0  0  0  0  0
    9.0079  -15.1363   19.0455 C   0  0  2  0  0  0  0  0  0  0  0  0
    7.9943  -16.1207   18.7359 N   0  0  0  0  0  0  0  0  0  0  0  0
    9.1645  -15.0685   20.5135 C   0  0  0  0  0  0  0  0  0  0  0  0
   10.1573  -14.4832   20.9981 O   0  0  0  0  0  0  0  0  0  0  0  0
    9.3282  -14.1106   16.1723 C   0  0  0  0  0  0  0  0  0  0  0  0
    9.0696  -14.2841   14.8146 C   0  0  0  0  0  0  0  0  0  0  0  0
    8.1914  -15.6656   21.3380 N   0  0  0  0  0  0  0  0  0  0  0  0
    8.3375  -15.6059   22.7790 C   0  0  1  0  0  0  0  0  0  0  0  0
    6.9745  -15.6303   23.3607 C   0  0  0  0  0  0  0  0  0  0  0  0
    6.8774  -15.1508   24.7347 C   0  0  0  0  0  0  0  0  0  0  0  0
    6.5709  -15.9067   25.8730 C   0  0  0  0  0  0  0  0  0  0  0  0
    6.5562  -15.0643   26.9062 N   0  0  0  0  0  0  0  0  0  0  0  0
    6.8381  -13.8140   26.4827 C   0  0  0  0  0  0  0  0  0  0  0  0
    6.9622  -12.5966   27.1399 C   0  0  0  0  0  0  0  0  0  0  0  0
    7.2837  -11.4439   26.4552 C   0  0  0  0  0  0  0  0  0  0  0  0
    7.4923  -11.4609   25.1003 C   0  0  0  0  0  0  0  0  0  0  0  0
    7.3713  -12.6605   24.4396 C   0  0  0  0  0  0  0  0  0  0  0  0
    7.0453  -13.8300   25.1284 C   0  0  0  0  0  0  0  0  0  0  0  0
    9.3283  -16.5426   23.2888 C   0  0  0  0  0  0  0  0  0  0  0  0
    9.3375  -17.7260   22.8857 O   0  0  0  0  0  0  0  0  0  0  0  0
   15.0132  -16.3216   22.7115 N   0  0  0  0  0  0  0  0  0  0  0  0
   15.0987  -17.0581   23.9155 C   0  0  0  0  0  0  0  0  0  0  0  0
   16.2107  -17.5744   24.2201 O   0  0  0  0  0  0  0  0  0  0  0  0
   13.9014  -17.1909   24.7681 C   0  0  0  0  0  0  0  0  0  0  0  0
   12.6867  -16.4934   24.2724 C   0  0  0  0  0  0  0  0  0  0  0  0
   11.3901  -17.0690   24.6997 C   0  0  2  0  0  0  0  0  0  0  0  0
   10.3009  -16.1578   24.2432 N   0  0  0  0  0  0  0  0  0  0  0  0
   11.1710  -17.3877   26.0947 C   0  0  0  0  0  0  0  0  0  0  0  0
   11.4947  -18.4680   26.6375 O   0  0  0  0  0  0  0  0  0  0  0  0
   10.5579  -16.4558   26.9363 O   0  0  0  0  0  0  0  0  0  0  0  0
  2  1  1  0
  3  2  2  0
  4  3  1  0
  5  4  2  0
  5 11  1  0
  6  5  1  0
  7  8  1  1
  7  6  1  0
  9 13  1  0
  9  7  1  0
 10  9  2  0
 11 12  2  0
 12  2  1  0
 14 15  1  1
 14 25  1  0
 14 13  1  0
 16 17  2  0
 16 15  1  0
 18 17  1  0
 19 24  2  0
 19 18  1  0
 20 19  1  0
 21 22  1  0
 21 20  2  0
 22 23  2  0
 23 24  1  0
 24 16  1  0
 25 33  1  0
 26 25  2  0
 27 28  1  0
 28 29  2  0
 30 31  1  0
 30 28  1  0
 32 33  1  0
 32 34  1  0
 32 31  1  1
 34 35  2  0
 34 36  1  0
M  END
$$$$
