YWQ.pdb
     RDKit          3D

 36 38  0  0  1  0  0  0  0  0999 V2000
   13.6128  -20.4974   16.8116 O   0  0  0  0  0  0  0  0  0  0  0  0
   13.1914  -20.0265   18.0668 C   0  0  0  0  0  0  0  0  0  0  0  0
   11.8981  -20.2548   18.4895 C   0  0  0  0  0  0  0  0  0  0  0  0
   11.5173  -19.7835   19.7180 C   0  0  0  0  0  0  0  0  0  0  0  0
   12.3874  -19.0918   20.5373 C   0  0  0  0  0  0  0  0  0  0  0  0
   11.9818  -18.5763   21.8787 C   0  0  0  0  0  0  0  0  0  0  0  0
   11.1782  -17.3105   21.6279 C   0  0  2  0  0  0  0  0  0  0  0  0
   12.0022  -16.3005   21.0008 N   0  0  0  0  0  0  0  0  0  0  0  0
   10.6833  -16.7804   22.9156 C   0  0  0  0  0  0  0  0  0  0  0  0
   11.4656  -16.1525   23.6618 O   0  0  0  0  0  0  0  0  0  0  0  0
   13.6737  -18.8761   20.0934 C   0  0  0  0  0  0  0  0  0  0  0  0
   14.0819  -19.3466   18.8475 C   0  0  0  0  0  0  0  0  0  0  0  0
    9.3390  -16.9938   23.2769 N   0  0  0  0  0  0  0  0  0  0  0  0
    8.8788  -16.5990   24.5937 C   0  0  1  0  0  0  0  0  0  0  0  0
    7.5109  -16.0507   24.4355 C   0  0  0  0  0  0  0  0  0  0  0  0
    7.4390  -14.6059   24.2497 C   0  0  0  0  0  0  0  0  0  0  0  0
    7.5732  -13.9016   23.0468 C   0  0  0  0  0  0  0  0  0  0  0  0
    7.4739  -12.6054   23.3425 N   0  0  0  0  0  0  0  0  0  0  0  0
    7.2830  -12.4510   24.6698 C   0  0  0  0  0  0  0  0  0  0  0  0
    7.1054  -11.3353   25.4779 C   0  0  0  0  0  0  0  0  0  0  0  0
    6.9071  -11.4607   26.8365 C   0  0  0  0  0  0  0  0  0  0  0  0
    6.8782  -12.6931   27.4363 C   0  0  0  0  0  0  0  0  0  0  0  0
    7.0536  -13.8043   26.6459 C   0  0  0  0  0  0  0  0  0  0  0  0
    7.2554  -13.6823   25.2701 C   0  0  0  0  0  0  0  0  0  0  0  0
    9.1058  -17.6211   25.6049 C   0  0  0  0  0  0  0  0  0  0  0  0
    8.6993  -18.7886   25.4181 O   0  0  0  0  0  0  0  0  0  0  0  0
   12.2453  -21.5700   25.8891 N   0  0  0  0  0  0  0  0  0  0  0  0
   12.8162  -20.2771   25.8476 C   0  0  0  0  0  0  0  0  0  0  0  0
   13.9329  -20.1372   25.2736 O   0  0  0  0  0  0  0  0  0  0  0  0
   12.0930  -19.1475   26.4634 C   0  0  0  0  0  0  0  0  0  0  0  0
   10.8073  -19.4976   27.1206 C   0  0  0  0  0  0  0  0  0  0  0  0
   10.1153  -18.3902   27.8203 C   0  0  2  0  0  0  0  0  0  0  0  0
    9.7819  -17.3385   26.8165 N   0  0  0  0  0  0  0  0  0  0  0  0
   10.7440  -17.7573   28.9604 C   0  0  0  0  0  0  0  0  0  0  0  0
   11.1004  -18.3559   30.0002 O   0  0  0  0  0  0  0  0  0  0  0  0
   10.9919  -16.3822   28.9474 O   0  0  0  0  0  0  0  0  0  0  0  0
  2  1  1  0
  3  2  2  0
  4  3  1  0
  5  4  2  0
  5 11  1  0
  6  5  1  0
  7  8  1  1
  7  6  1  0
  9 13  1  0
  9  7  1  0
 10  9  2  0
 11 12  2  0
 12  2  1  0
 14 15  1  6
 14 25  1  0
 14 13  1  0
 16 17  2  0
 16 15  1  0
 18 17  1  0
 19 24  2  0
 19 18  1  0
 20 19  1  0
 21 22  1  0
 21 20  2  0
 22 23  2  0
 23 24  1  0
 24 16  1  0
 25 33  1  0
 26 25  2  0
 27 28  1  0
 28 29  2  0
 30 31  1  0
 30 28  1  0
 32 33  1  0
 32 34  1  0
 32 31  1  6
 34 35  2  0
 34 36  1  0
M  END
$$$$
