YWQ.pdb
     RDKit          3D

 36 38  0  0  1  0  0  0  0  0999 V2000
    7.4174  -14.2656   15.9588 O   0  0  0  0  0  0  0  0  0  0  0  0
    7.7750  -14.2361   17.3175 C   0  0  0  0  0  0  0  0  0  0  0  0
    8.7541  -15.0850   17.7908 C   0  0  0  0  0  0  0  0  0  0  0  0
    9.0808  -15.0324   19.1200 C   0  0  0  0  0  0  0  0  0  0  0  0
    8.4606  -14.1588   19.9910 C   0  0  0  0  0  0  0  0  0  0  0  0
    8.8115  -14.0929   21.4409 C   0  0  0  0  0  0  0  0  0  0  0  0
    9.2607  -15.4897   21.8384 C   0  0  2  0  0  0  0  0  0  0  0  0
    8.1890  -16.4424   21.6483 N   0  0  0  0  0  0  0  0  0  0  0  0
    9.6456  -15.4938   23.2652 C   0  0  0  0  0  0  0  0  0  0  0  0
   10.4948  -14.6722   23.6739 O   0  0  0  0  0  0  0  0  0  0  0  0
    7.4858  -13.3207   19.4951 C   0  0  0  0  0  0  0  0  0  0  0  0
    7.1381  -13.3577   18.1468 C   0  0  0  0  0  0  0  0  0  0  0  0
    9.0476  -16.4242   24.1370 N   0  0  0  0  0  0  0  0  0  0  0  0
    9.5400  -16.5550   25.4941 C   0  0  1  0  0  0  0  0  0  0  0  0
    8.3583  -16.6557   26.3831 C   0  0  0  0  0  0  0  0  0  0  0  0
    7.3756  -15.5887   26.2325 C   0  0  0  0  0  0  0  0  0  0  0  0
    6.0948  -15.6929   25.6761 C   0  0  0  0  0  0  0  0  0  0  0  0
    5.5570  -14.4733   25.7080 N   0  0  0  0  0  0  0  0  0  0  0  0
    6.4296  -13.6016   26.2563 C   0  0  0  0  0  0  0  0  0  0  0  0
    6.3635  -12.2417   26.5316 C   0  0  0  0  0  0  0  0  0  0  0  0
    7.4163  -11.5807   27.1279 C   0  0  0  0  0  0  0  0  0  0  0  0
    8.5657  -12.2450   27.4699 C   0  0  0  0  0  0  0  0  0  0  0  0
    8.6423  -13.5912   27.2012 C   0  0  0  0  0  0  0  0  0  0  0  0
    7.5792  -14.2645   26.5970 C   0  0  0  0  0  0  0  0  0  0  0  0
   10.5940  -17.5507   25.6226 C   0  0  0  0  0  0  0  0  0  0  0  0
   10.3880  -18.6015   26.2679 O   0  0  0  0  0  0  0  0  0  0  0  0
   11.8570  -21.2963   21.9737 N   0  0  0  0  0  0  0  0  0  0  0  0
   12.4657  -20.0896   21.5581 C   0  0  0  0  0  0  0  0  0  0  0  0
   12.6904  -19.9297   20.3252 O   0  0  0  0  0  0  0  0  0  0  0  0
   12.8074  -19.0676   22.5665 C   0  0  0  0  0  0  0  0  0  0  0  0
   12.5100  -19.4383   23.9742 C   0  0  0  0  0  0  0  0  0  0  0  0
   12.9030  -18.4461   25.0018 C   0  0  2  0  0  0  0  0  0  0  0  0
   11.8692  -17.3714   25.0337 N   0  0  0  0  0  0  0  0  0  0  0  0
   14.2103  -17.8273   24.9395 C   0  0  0  0  0  0  0  0  0  0  0  0
   14.4153  -16.6213   24.6754 O   0  0  0  0  0  0  0  0  0  0  0  0
   15.3561  -18.5890   25.1838 O   0  0  0  0  0  0  0  0  0  0  0  0
  2  1  1  0
  3  2  2  0
  4  3  1  0
  5  4  2  0
  5 11  1  0
  6  5  1  0
  7  8  1  1
  7  6  1  0
  9 13  1  0
  9  7  1  0
 10  9  2  0
 11 12  2  0
 12  2  1  0
 14 15  1  1
 14 25  1  0
 14 13  1  0
 16 17  2  0
 16 15  1  0
 18 17  1  0
 19 24  2  0
 19 18  1  0
 20 19  1  0
 21 22  1  0
 21 20  2  0
 22 23  2  0
 23 24  1  0
 24 16  1  0
 25 33  1  0
 26 25  2  0
 27 28  1  0
 28 29  2  0
 30 31  1  0
 30 28  1  0
 32 33  1  0
 32 34  1  0
 32 31  1  6
 34 35  2  0
 34 36  1  0
M  END
$$$$
