YWQ.pdb
     RDKit          3D

 36 38  0  0  1  0  0  0  0  0999 V2000
   11.6234  -23.4920   18.6405 O   0  0  0  0  0  0  0  0  0  0  0  0
   11.5742  -22.2530   19.3018 C   0  0  0  0  0  0  0  0  0  0  0  0
   10.9754  -22.1570   20.5410 C   0  0  0  0  0  0  0  0  0  0  0  0
   10.9435  -20.9357   21.1606 C   0  0  0  0  0  0  0  0  0  0  0  0
   11.4907  -19.8079   20.5815 C   0  0  0  0  0  0  0  0  0  0  0  0
   11.4623  -18.4731   21.2503 C   0  0  0  0  0  0  0  0  0  0  0  0
   10.4219  -17.6451   20.5136 C   0  0  2  0  0  0  0  0  0  0  0  0
   10.9379  -17.1963   19.2390 N   0  0  0  0  0  0  0  0  0  0  0  0
   10.0752  -16.4590   21.3242 C   0  0  0  0  0  0  0  0  0  0  0  0
   10.9001  -15.5254   21.4294 O   0  0  0  0  0  0  0  0  0  0  0  0
   12.0831  -19.9286   19.3436 C   0  0  0  0  0  0  0  0  0  0  0  0
   12.1266  -21.1611   18.6958 C   0  0  0  0  0  0  0  0  0  0  0  0
    8.8212  -16.4042   21.9629 N   0  0  0  0  0  0  0  0  0  0  0  0
    8.6389  -15.5401   23.1125 C   0  0  1  0  0  0  0  0  0  0  0  0
    7.4252  -16.0056   23.8245 C   0  0  0  0  0  0  0  0  0  0  0  0
    7.0189  -15.1856   24.9601 C   0  0  0  0  0  0  0  0  0  0  0  0
    6.2883  -15.5985   26.0811 C   0  0  0  0  0  0  0  0  0  0  0  0
    6.1131  -14.5224   26.8485 N   0  0  0  0  0  0  0  0  0  0  0  0
    6.6952  -13.4491   26.2731 C   0  0  0  0  0  0  0  0  0  0  0  0
    6.8165  -12.1190   26.6545 C   0  0  0  0  0  0  0  0  0  0  0  0
    7.4947  -11.2094   25.8712 C   0  0  0  0  0  0  0  0  0  0  0  0
    8.0733  -11.5882   24.6875 C   0  0  0  0  0  0  0  0  0  0  0  0
    7.9587  -12.9023   24.2999 C   0  0  0  0  0  0  0  0  0  0  0  0
    7.2724  -13.8266   25.0892 C   0  0  0  0  0  0  0  0  0  0  0  0
    9.8623  -15.3459   23.8770 C   0  0  0  0  0  0  0  0  0  0  0  0
   10.2546  -14.1904   24.1487 O   0  0  0  0  0  0  0  0  0  0  0  0
   11.2387  -15.3614   29.3943 N   0  0  0  0  0  0  0  0  0  0  0  0
   10.6263  -16.5973   29.0830 C   0  0  0  0  0  0  0  0  0  0  0  0
   10.2756  -17.3456   30.0385 O   0  0  0  0  0  0  0  0  0  0  0  0
   10.4142  -16.9630   27.6690 C   0  0  0  0  0  0  0  0  0  0  0  0
   10.7520  -15.9061   26.6809 C   0  0  0  0  0  0  0  0  0  0  0  0
   11.5503  -16.3438   25.5121 C   0  0  2  0  0  0  0  0  0  0  0  0
   10.6412  -16.4369   24.3332 N   0  0  0  0  0  0  0  0  0  0  0  0
   12.3303  -17.5608   25.5906 C   0  0  0  0  0  0  0  0  0  0  0  0
   12.0058  -18.6496   25.0657 O   0  0  0  0  0  0  0  0  0  0  0  0
   13.5394  -17.5717   26.2911 O   0  0  0  0  0  0  0  0  0  0  0  0
  2  1  1  0
  3  2  2  0
  4  3  1  0
  5  4  2  0
  5 11  1  0
  6  5  1  0
  7  8  1  6
  7  6  1  0
  9 13  1  0
  9  7  1  0
 10  9  2  0
 11 12  2  0
 12  2  1  0
 14 15  1  1
 14 25  1  0
 14 13  1  0
 16 17  2  0
 16 15  1  0
 18 17  1  0
 19 24  2  0
 19 18  1  0
 20 19  1  0
 21 22  1  0
 21 20  2  0
 22 23  2  0
 23 24  1  0
 24 16  1  0
 25 33  1  0
 26 25  2  0
 27 28  1  0
 28 29  2  0
 30 31  1  0
 30 28  1  0
 32 33  1  0
 32 34  1  0
 32 31  1  1
 34 35  2  0
 34 36  1  0
M  END
$$$$
