YWQ.pdb
     RDKit          3D

 36 38  0  0  1  0  0  0  0  0999 V2000
   17.1511  -14.5075   17.5921 O   0  0  0  0  0  0  0  0  0  0  0  0
   15.8098  -14.4244   18.0031 C   0  0  0  0  0  0  0  0  0  0  0  0
   14.7969  -14.7053   17.1095 C   0  0  0  0  0  0  0  0  0  0  0  0
   13.4997  -14.6157   17.5401 C   0  0  0  0  0  0  0  0  0  0  0  0
   13.1825  -14.2547   18.8345 C   0  0  0  0  0  0  0  0  0  0  0  0
   11.7715  -14.1565   19.3132 C   0  0  0  0  0  0  0  0  0  0  0  0
   11.4249  -15.5107   19.9108 C   0  0  2  0  0  0  0  0  0  0  0  0
   10.3174  -16.1119   19.2007 N   0  0  0  0  0  0  0  0  0  0  0  0
   11.0372  -15.3375   21.3263 C   0  0  0  0  0  0  0  0  0  0  0  0
   11.9054  -15.0110   22.1646 O   0  0  0  0  0  0  0  0  0  0  0  0
   14.2111  -13.9790   19.7087 C   0  0  0  0  0  0  0  0  0  0  0  0
   15.5375  -14.0638   19.2917 C   0  0  0  0  0  0  0  0  0  0  0  0
    9.6961  -15.5443   21.7031 N   0  0  0  0  0  0  0  0  0  0  0  0
    9.3056  -15.3730   23.0886 C   0  0  1  0  0  0  0  0  0  0  0  0
    7.8263  -15.4468   23.1411 C   0  0  0  0  0  0  0  0  0  0  0  0
    7.2292  -15.0432   24.4090 C   0  0  0  0  0  0  0  0  0  0  0  0
    6.5106  -15.8511   25.2989 C   0  0  0  0  0  0  0  0  0  0  0  0
    6.1217  -15.0690   26.3061 N   0  0  0  0  0  0  0  0  0  0  0  0
    6.5568  -13.8077   26.1018 C   0  0  0  0  0  0  0  0  0  0  0  0
    6.4416  -12.6350   26.8372 C   0  0  0  0  0  0  0  0  0  0  0  0
    7.0097  -11.4575   26.3993 C   0  0  0  0  0  0  0  0  0  0  0  0
    7.7088  -11.4048   25.2212 C   0  0  0  0  0  0  0  0  0  0  0  0
    7.8283  -12.5597   24.4848 C   0  0  0  0  0  0  0  0  0  0  0  0
    7.2543  -13.7539   24.9237 C   0  0  0  0  0  0  0  0  0  0  0  0
   10.0764  -16.2031   24.0028 C   0  0  0  0  0  0  0  0  0  0  0  0
   11.3256  -16.1559   23.9902 O   0  0  0  0  0  0  0  0  0  0  0  0
   12.2359  -16.4075   29.2566 N   0  0  0  0  0  0  0  0  0  0  0  0
   10.9444  -15.8474   29.1239 C   0  0  0  0  0  0  0  0  0  0  0  0
   10.4768  -15.1916   30.0971 O   0  0  0  0  0  0  0  0  0  0  0  0
   10.1987  -16.0404   27.8650 C   0  0  0  0  0  0  0  0  0  0  0  0
   10.9480  -16.7253   26.7801 C   0  0  0  0  0  0  0  0  0  0  0  0
   10.1974  -17.7561   26.0258 C   0  0  2  0  0  0  0  0  0  0  0  0
    9.4535  -17.0801   24.9237 N   0  0  0  0  0  0  0  0  0  0  0  0
    9.2859  -18.6364   26.7257 C   0  0  0  0  0  0  0  0  0  0  0  0
    8.0390  -18.5944   26.6273 O   0  0  0  0  0  0  0  0  0  0  0  0
    9.7851  -19.6198   27.5839 O   0  0  0  0  0  0  0  0  0  0  0  0
  2  1  1  0
  3  2  2  0
  4  3  1  0
  5  4  2  0
  5 11  1  0
  6  5  1  0
  7  8  1  6
  7  6  1  0
  9 13  1  0
  9  7  1  0
 10  9  2  0
 11 12  2  0
 12  2  1  0
 14 15  1  6
 14 25  1  0
 14 13  1  0
 16 17  2  0
 16 15  1  0
 18 17  1  0
 19 24  2  0
 19 18  1  0
 20 19  1  0
 21 22  1  0
 21 20  2  0
 22 23  2  0
 23 24  1  0
 24 16  1  0
 25 33  1  0
 26 25  2  0
 27 28  1  0
 28 29  2  0
 30 31  1  0
 30 28  1  0
 32 33  1  0
 32 34  1  0
 32 31  1  1
 34 35  2  0
 34 36  1  0
M  END
$$$$
