YWQ.pdb
     RDKit          3D

 36 38  0  0  1  0  0  0  0  0999 V2000
    7.3776  -13.9599   15.8664 O   0  0  0  0  0  0  0  0  0  0  0  0
    7.6247  -13.9491   17.2497 C   0  0  0  0  0  0  0  0  0  0  0  0
    7.2664  -12.8515   18.0049 C   0  0  0  0  0  0  0  0  0  0  0  0
    7.5201  -12.8710   19.3509 C   0  0  0  0  0  0  0  0  0  0  0  0
    8.1201  -13.9519   19.9660 C   0  0  0  0  0  0  0  0  0  0  0  0
    8.3985  -13.9829   21.4326 C   0  0  0  0  0  0  0  0  0  0  0  0
    9.0455  -15.3284   21.7192 C   0  0  2  0  0  0  0  0  0  0  0  0
    8.0766  -16.3954   21.5961 N   0  0  0  0  0  0  0  0  0  0  0  0
    9.5774  -15.3332   23.0979 C   0  0  0  0  0  0  0  0  0  0  0  0
   10.4485  -14.4971   23.4223 O   0  0  0  0  0  0  0  0  0  0  0  0
    8.4689  -15.0364   19.1910 C   0  0  0  0  0  0  0  0  0  0  0  0
    8.2201  -15.0375   17.8205 C   0  0  0  0  0  0  0  0  0  0  0  0
    9.0922  -16.2809   24.0198 N   0  0  0  0  0  0  0  0  0  0  0  0
    9.5352  -16.2319   25.3992 C   0  0  1  0  0  0  0  0  0  0  0  0
    8.3246  -16.2917   26.2523 C   0  0  0  0  0  0  0  0  0  0  0  0
    7.3252  -15.2638   25.9848 C   0  0  0  0  0  0  0  0  0  0  0  0
    6.0237  -15.4563   25.5053 C   0  0  0  0  0  0  0  0  0  0  0  0
    5.4748  -14.2482   25.3760 N   0  0  0  0  0  0  0  0  0  0  0  0
    6.3600  -13.2999   25.7492 C   0  0  0  0  0  0  0  0  0  0  0  0
    6.2908  -11.9144   25.8191 C   0  0  0  0  0  0  0  0  0  0  0  0
    7.3604  -11.1665   26.2638 C   0  0  0  0  0  0  0  0  0  0  0  0
    8.5300  -11.7667   26.6528 C   0  0  0  0  0  0  0  0  0  0  0  0
    8.6096  -13.1377   26.5868 C   0  0  0  0  0  0  0  0  0  0  0  0
    7.5297  -13.8989   26.1367 C   0  0  0  0  0  0  0  0  0  0  0  0
   10.6286  -17.1515   25.6778 C   0  0  0  0  0  0  0  0  0  0  0  0
   11.1622  -17.1664   26.8083 O   0  0  0  0  0  0  0  0  0  0  0  0
   15.5142  -17.3638   22.5765 N   0  0  0  0  0  0  0  0  0  0  0  0
   14.2291  -17.6026   22.0371 C   0  0  0  0  0  0  0  0  0  0  0  0
   14.1056  -17.6257   20.7801 O   0  0  0  0  0  0  0  0  0  0  0  0
   13.0908  -17.8207   22.9509 C   0  0  0  0  0  0  0  0  0  0  0  0
   13.3773  -18.6764   24.1312 C   0  0  0  0  0  0  0  0  0  0  0  0
   12.2110  -19.0277   24.9746 C   0  0  2  0  0  0  0  0  0  0  0  0
   11.1216  -18.0471   24.6981 N   0  0  0  0  0  0  0  0  0  0  0  0
   12.3718  -19.1469   26.4084 C   0  0  0  0  0  0  0  0  0  0  0  0
   11.7319  -18.4825   27.2542 O   0  0  0  0  0  0  0  0  0  0  0  0
   13.2946  -20.0545   26.9348 O   0  0  0  0  0  0  0  0  0  0  0  0
  2  1  1  0
  3  2  2  0
  4  3  1  0
  5  4  2  0
  5 11  1  0
  6  5  1  0
  7  8  1  1
  7  6  1  0
  9 13  1  0
  9  7  1  0
 10  9  2  0
 11 12  2  0
 12  2  1  0
 14 15  1  1
 14 25  1  0
 14 13  1  0
 16 17  2  0
 16 15  1  0
 18 17  1  0
 19 24  2  0
 19 18  1  0
 20 19  1  0
 21 22  1  0
 21 20  2  0
 22 23  2  0
 23 24  1  0
 24 16  1  0
 25 33  1  0
 26 25  2  0
 27 28  1  0
 28 29  2  0
 30 31  1  0
 30 28  1  0
 32 33  1  0
 32 34  1  0
 32 31  1  6
 34 35  2  0
 34 36  1  0
M  END
$$$$
