LNC.pdb
     RDKit          3D

 23 22  0  0  1  0  0  0  0  0999 V2000
   23.2295  -14.9922  -14.2521 C   0  0  0  0  0  0  0  0  0  0  0  0
   23.6052  -15.0055  -15.7190 C   0  0  2  0  0  0  0  0  0  0  0  0
   25.1279  -15.0123  -15.7889 C   0  0  0  0  0  0  0  0  0  0  0  0
   23.0368  -13.7852  -16.4368 C   0  0  0  0  0  0  0  0  0  0  0  0
   21.5505  -13.7679  -16.1650 C   0  0  2  0  0  0  0  0  0  0  0  0
   20.9766  -14.8855  -16.9048 N   0  0  0  0  0  0  0  0  0  0  0  0
   20.9089  -12.5187  -16.6185 C   0  0  0  0  0  0  0  0  0  0  0  0
   21.3959  -11.9559  -17.6365 O   0  0  0  0  0  0  0  0  0  0  0  0
   16.3119  -12.8543  -17.0974 N   0  0  0  0  0  0  0  0  0  0  0  0
   17.1765  -11.8184  -17.5380 C   0  0  0  0  0  0  0  0  0  0  0  0
   17.5046  -11.7745  -18.7472 O   0  0  0  0  0  0  0  0  0  0  0  0
   17.6493  -10.8397  -16.5495 C   0  0  0  0  0  0  0  0  0  0  0  0
   19.1551  -10.7136  -16.4779 C   0  0  2  0  0  0  0  0  0  0  0  0
   19.7998  -11.9136  -16.0011 N   0  0  0  0  0  0  0  0  0  0  0  0
   19.4610   -9.5401  -15.6217 C   0  0  0  0  0  0  0  0  0  0  0  0
   19.0145   -9.5039  -14.4456 O   0  0  0  0  0  0  0  0  0  0  0  0
   20.2343   -8.4418  -16.0483 N   0  0  0  0  0  0  0  0  0  0  0  0
   20.5974   -7.3220  -15.2177 C   0  0  1  0  0  0  0  0  0  0  0  0
   22.1311   -7.2612  -15.2285 C   0  0  0  0  0  0  0  0  0  0  0  0
   22.8281   -8.7517  -14.4654 S   0  0  0  0  0  0  0  0  0  0  0  0
   20.1219   -6.0322  -15.7384 C   0  0  0  0  0  0  0  0  0  0  0  0
   19.5767   -5.9851  -16.8533 O   0  0  0  0  0  0  0  0  0  0  0  0
   20.2761   -4.8853  -15.0032 O   0  0  0  0  0  0  0  0  0  0  0  0
  2  1  1  1
  2  3  1  0
  4  5  1  0
  4  2  1  0
  5  6  1  6
  7  5  1  0
  7  8  2  0
 10 12  1  0
 10  9  1  0
 11 10  2  0
 13 12  1  1
 13 14  1  0
 14  7  1  0
 15 13  1  0
 15 17  1  0
 16 15  2  0
 18 17  1  0
 18 21  1  0
 19 20  1  0
 18 19  1  6
 21 22  2  0
 21 23  1  0
M  END
$$$$
