LNC.pdb
     RDKit          3D

 23 22  0  0  1  0  0  0  0  0999 V2000
   21.1370  -22.3111  -13.2439 C   0  0  0  0  0  0  0  0  0  0  0  0
   19.8926  -21.4871  -12.9875 C   0  0  2  0  0  0  0  0  0  0  0  0
   20.3555  -20.1315  -12.4662 C   0  0  0  0  0  0  0  0  0  0  0  0
   18.9847  -22.1749  -11.9726 C   0  0  0  0  0  0  0  0  0  0  0  0
   18.9136  -23.6329  -12.3633 C   0  0  2  0  0  0  0  0  0  0  0  0
   18.0715  -23.7074  -13.5511 N   0  0  0  0  0  0  0  0  0  0  0  0
   18.3179  -24.4718  -11.3053 C   0  0  0  0  0  0  0  0  0  0  0  0
   17.1016  -24.2803  -11.0328 O   0  0  0  0  0  0  0  0  0  0  0  0
   17.8559  -28.0575  -11.5353 N   0  0  0  0  0  0  0  0  0  0  0  0
   18.7158  -28.5324  -10.5107 C   0  0  0  0  0  0  0  0  0  0  0  0
   19.1654  -29.7001  -10.5880 O   0  0  0  0  0  0  0  0  0  0  0  0
   19.0407  -27.6269   -9.4003 C   0  0  0  0  0  0  0  0  0  0  0  0
   18.4213  -26.2522   -9.5240 C   0  0  2  0  0  0  0  0  0  0  0  0
   19.0045  -25.4638  -10.5830 N   0  0  0  0  0  0  0  0  0  0  0  0
   18.5482  -25.5888   -8.2021 C   0  0  0  0  0  0  0  0  0  0  0  0
   19.6475  -25.0686   -7.8781 O   0  0  0  0  0  0  0  0  0  0  0  0
   17.4970  -25.5015   -7.2673 N   0  0  0  0  0  0  0  0  0  0  0  0
   17.6210  -24.9495   -5.9424 C   0  0  1  0  0  0  0  0  0  0  0  0
   16.2238  -24.4441   -5.5572 C   0  0  0  0  0  0  0  0  0  0  0  0
   16.1939  -23.9337   -3.8170 S   0  0  0  0  0  0  0  0  0  0  0  0
   18.0018  -25.9449   -4.9300 C   0  0  0  0  0  0  0  0  0  0  0  0
   17.5832  -27.1101   -5.0286 O   0  0  0  0  0  0  0  0  0  0  0  0
   18.8132  -25.5959   -3.8813 O   0  0  0  0  0  0  0  0  0  0  0  0
  2  1  1  1
  2  3  1  0
  4  5  1  0
  4  2  1  0
  5  6  1  6
  7  5  1  0
  7  8  2  0
 10 12  1  0
 10  9  1  0
 11 10  2  0
 13 12  1  1
 13 14  1  0
 14  7  1  0
 15 13  1  0
 15 17  1  0
 16 15  2  0
 18 17  1  0
 18 21  1  0
 19 20  1  0
 18 19  1  1
 21 22  2  0
 21 23  1  0
M  END
$$$$
