LNC.pdb
     RDKit          3D

 23 22  0  0  1  0  0  0  0  0999 V2000
   20.9955  -13.4047  -15.5211 C   0  0  0  0  0  0  0  0  0  0  0  0
   19.9476  -13.6353  -16.5897 C   0  0  2  0  0  0  0  0  0  0  0  0
   20.6763  -14.1552  -17.8235 C   0  0  0  0  0  0  0  0  0  0  0  0
   19.2017  -12.3429  -16.9074 C   0  0  0  0  0  0  0  0  0  0  0  0
   18.4801  -11.9301  -15.6455 C   0  0  2  0  0  0  0  0  0  0  0  0
   17.4388  -12.9240  -15.4145 N   0  0  0  0  0  0  0  0  0  0  0  0
   17.8499  -10.6011  -15.7654 C   0  0  0  0  0  0  0  0  0  0  0  0
   16.8905  -10.4878  -16.5759 O   0  0  0  0  0  0  0  0  0  0  0  0
   15.0651   -6.1942  -14.5989 N   0  0  0  0  0  0  0  0  0  0  0  0
   16.4045   -6.2803  -14.1370 C   0  0  0  0  0  0  0  0  0  0  0  0
   17.0286   -5.2230  -13.8834 O   0  0  0  0  0  0  0  0  0  0  0  0
   17.0004   -7.6136  -13.9769 C   0  0  0  0  0  0  0  0  0  0  0  0
   17.6670   -8.1455  -15.2264 C   0  0  2  0  0  0  0  0  0  0  0  0
   18.2397   -9.4579  -15.0453 N   0  0  0  0  0  0  0  0  0  0  0  0
   18.6836   -7.1479  -15.6449 C   0  0  0  0  0  0  0  0  0  0  0  0
   19.7744   -7.0826  -15.0207 O   0  0  0  0  0  0  0  0  0  0  0  0
   18.5034   -6.2512  -16.7172 N   0  0  0  0  0  0  0  0  0  0  0  0
   19.4732   -5.2738  -17.1412 C   0  0  1  0  0  0  0  0  0  0  0  0
   20.0754   -5.8079  -18.4481 C   0  0  0  0  0  0  0  0  0  0  0  0
   21.5691   -6.7781  -18.1055 S   0  0  0  0  0  0  0  0  0  0  0  0
   18.8823   -3.9649  -17.4547 C   0  0  0  0  0  0  0  0  0  0  0  0
   17.7573   -3.9102  -17.9782 O   0  0  0  0  0  0  0  0  0  0  0  0
   19.5631   -2.8084  -17.1737 O   0  0  0  0  0  0  0  0  0  0  0  0
  2  1  1  1
  2  3  1  0
  4  5  1  0
  4  2  1  0
  5  6  1  6
  7  5  1  0
  7  8  2  0
 10 12  1  0
 10  9  1  0
 11 10  2  0
 13 12  1  1
 13 14  1  0
 14  7  1  0
 15 13  1  0
 15 17  1  0
 16 15  2  0
 18 17  1  0
 18 21  1  0
 19 20  1  0
 18 19  1  6
 21 22  2  0
 21 23  1  0
M  END
$$$$
