LNC.pdb
     RDKit          3D

 23 22  0  0  1  0  0  0  0  0999 V2000
   28.7956  -19.5012  -14.8017 C   0  0  0  0  0  0  0  0  0  0  0  0
   27.8381  -19.8466  -15.9230 C   0  0  2  0  0  0  0  0  0  0  0  0
   28.4203  -19.2582  -17.2030 C   0  0  0  0  0  0  0  0  0  0  0  0
   26.4504  -19.2754  -15.6481 C   0  0  0  0  0  0  0  0  0  0  0  0
   25.8695  -20.0654  -14.4984 C   0  0  2  0  0  0  0  0  0  0  0  0
   26.1398  -21.4706  -14.7772 N   0  0  0  0  0  0  0  0  0  0  0  0
   24.4115  -19.8793  -14.3662 C   0  0  0  0  0  0  0  0  0  0  0  0
   23.9985  -18.7148  -14.1137 O   0  0  0  0  0  0  0  0  0  0  0  0
   20.9194  -19.3955  -17.3258 N   0  0  0  0  0  0  0  0  0  0  0  0
   21.6875  -20.5062  -16.8886 C   0  0  0  0  0  0  0  0  0  0  0  0
   22.6725  -20.8705  -17.5732 O   0  0  0  0  0  0  0  0  0  0  0  0
   21.2893  -21.1811  -15.6459 C   0  0  0  0  0  0  0  0  0  0  0  0
   22.0280  -20.6977  -14.4174 C   0  0  2  0  0  0  0  0  0  0  0  0
   23.4545  -20.9007  -14.5005 N   0  0  0  0  0  0  0  0  0  0  0  0
   21.4354  -21.3878  -13.2442 C   0  0  0  0  0  0  0  0  0  0  0  0
   21.3473  -22.6432  -13.2491 O   0  0  0  0  0  0  0  0  0  0  0  0
   20.9554  -20.7155  -12.1023 N   0  0  0  0  0  0  0  0  0  0  0  0
   20.3620  -21.3609  -10.9591 C   0  0  1  0  0  0  0  0  0  0  0  0
   20.4285  -20.3438   -9.8114 C   0  0  0  0  0  0  0  0  0  0  0  0
   22.1534  -19.9285   -9.4344 S   0  0  0  0  0  0  0  0  0  0  0  0
   18.9417  -21.6894  -11.1478 C   0  0  0  0  0  0  0  0  0  0  0  0
   18.3366  -21.2459  -12.1377 O   0  0  0  0  0  0  0  0  0  0  0  0
   18.2834  -22.4794  -10.2410 O   0  0  0  0  0  0  0  0  0  0  0  0
  2  1  1  1
  2  3  1  0
  4  5  1  0
  4  2  1  0
  5  6  1  6
  7  5  1  0
  7  8  2  0
 10 12  1  0
 10  9  1  0
 11 10  2  0
 13 12  1  6
 13 14  1  0
 14  7  1  0
 15 13  1  0
 15 17  1  0
 16 15  2  0
 18 17  1  0
 18 21  1  0
 19 20  1  0
 18 19  1  1
 21 22  2  0
 21 23  1  0
M  END
$$$$
