LNC.pdb
     RDKit          3D

 23 22  0  0  1  0  0  0  0  0999 V2000
   26.0906  -22.5016  -11.4871 C   0  0  0  0  0  0  0  0  0  0  0  0
   26.2574  -21.0330  -11.1573 C   0  0  2  0  0  0  0  0  0  0  0  0
   25.9455  -20.8713   -9.6739 C   0  0  0  0  0  0  0  0  0  0  0  0
   25.3202  -20.1762  -12.0029 C   0  0  0  0  0  0  0  0  0  0  0  0
   25.4954  -20.6174  -13.4375 C   0  0  2  0  0  0  0  0  0  0  0  0
   26.7383  -20.0200  -13.9104 N   0  0  0  0  0  0  0  0  0  0  0  0
   24.3908  -20.1653  -14.3053 C   0  0  0  0  0  0  0  0  0  0  0  0
   24.1010  -18.9382  -14.2793 O   0  0  0  0  0  0  0  0  0  0  0  0
   23.7578  -19.8196  -18.8159 N   0  0  0  0  0  0  0  0  0  0  0  0
   23.6149  -21.0941  -18.2075 C   0  0  0  0  0  0  0  0  0  0  0  0
   24.4596  -21.9855  -18.4596 O   0  0  0  0  0  0  0  0  0  0  0  0
   22.4761  -21.3099  -17.3048 C   0  0  0  0  0  0  0  0  0  0  0  0
   22.5667  -20.5440  -16.0033 C   0  0  2  0  0  0  0  0  0  0  0  0
   23.6419  -20.9990  -15.1546 N   0  0  0  0  0  0  0  0  0  0  0  0
   21.2462  -20.6509  -15.3337 C   0  0  0  0  0  0  0  0  0  0  0  0
   20.9239  -21.7336  -14.7789 O   0  0  0  0  0  0  0  0  0  0  0  0
   20.3110  -19.5981  -15.2774 N   0  0  0  0  0  0  0  0  0  0  0  0
   19.0161  -19.6834  -14.6517 C   0  0  1  0  0  0  0  0  0  0  0  0
   18.8907  -18.4425  -13.7571 C   0  0  0  0  0  0  0  0  0  0  0  0
   17.3702  -18.5250  -12.7716 S   0  0  0  0  0  0  0  0  0  0  0  0
   17.9018  -19.6260  -15.6088 C   0  0  0  0  0  0  0  0  0  0  0  0
   18.0155  -18.9450  -16.6412 O   0  0  0  0  0  0  0  0  0  0  0  0
   16.7421  -20.3171  -15.3693 O   0  0  0  0  0  0  0  0  0  0  0  0
  2  1  1  6
  2  3  1  0
  4  5  1  0
  4  2  1  0
  5  6  1  6
  7  5  1  0
  7  8  2  0
 10 12  1  0
 10  9  1  0
 11 10  2  0
 13 12  1  6
 13 14  1  0
 14  7  1  0
 15 13  1  0
 15 17  1  0
 16 15  2  0
 18 17  1  0
 18 21  1  0
 19 20  1  0
 18 19  1  1
 21 22  2  0
 21 23  1  0
M  END
$$$$
