LNC.pdb
     RDKit          3D

 23 22  0  0  1  0  0  0  0  0999 V2000
   25.6894  -14.3458  -21.1995 C   0  0  0  0  0  0  0  0  0  0  0  0
   24.2935  -14.2651  -20.6179 C   0  0  2  0  0  0  0  0  0  0  0  0
   23.3672  -15.0015  -21.5787 C   0  0  0  0  0  0  0  0  0  0  0  0
   23.8566  -12.8127  -20.4527 C   0  0  0  0  0  0  0  0  0  0  0  0
   24.7896  -12.1849  -19.4434 C   0  0  2  0  0  0  0  0  0  0  0  0
   24.7278  -13.0125  -18.2448 N   0  0  0  0  0  0  0  0  0  0  0  0
   24.3943  -10.8076  -19.0906 C   0  0  0  0  0  0  0  0  0  0  0  0
   24.4148   -9.9469  -20.0121 O   0  0  0  0  0  0  0  0  0  0  0  0
   20.3858   -8.7894  -15.5982 N   0  0  0  0  0  0  0  0  0  0  0  0
   21.4085   -9.4712  -16.3082 C   0  0  0  0  0  0  0  0  0  0  0  0
   21.1039  -10.4703  -17.0015 O   0  0  0  0  0  0  0  0  0  0  0  0
   22.7851   -8.9705  -16.1964 C   0  0  0  0  0  0  0  0  0  0  0  0
   23.5756   -9.0462  -17.4840 C   0  0  2  0  0  0  0  0  0  0  0  0
   23.9986  -10.3875  -17.8083 N   0  0  0  0  0  0  0  0  0  0  0  0
   24.7255   -8.1167  -17.3531 C   0  0  0  0  0  0  0  0  0  0  0  0
   25.6881   -8.4307  -16.6055 O   0  0  0  0  0  0  0  0  0  0  0  0
   24.8116   -6.8806  -18.0246 N   0  0  0  0  0  0  0  0  0  0  0  0
   25.9466   -5.9948  -17.9706 C   0  0  1  0  0  0  0  0  0  0  0  0
   27.1020   -6.7379  -18.6555 C   0  0  0  0  0  0  0  0  0  0  0  0
   28.5940   -5.7066  -18.6736 S   0  0  0  0  0  0  0  0  0  0  0  0
   25.7471   -4.7461  -18.7200 C   0  0  0  0  0  0  0  0  0  0  0  0
   24.8141   -4.6635  -19.5357 O   0  0  0  0  0  0  0  0  0  0  0  0
   26.5817   -3.6760  -18.5246 O   0  0  0  0  0  0  0  0  0  0  0  0
  2  1  1  6
  2  3  1  0
  4  5  1  0
  4  2  1  0
  5  6  1  1
  7  5  1  0
  7  8  2  0
 10 12  1  0
 10  9  1  0
 11 10  2  0
 13 12  1  1
 13 14  1  0
 14  7  1  0
 15 13  1  0
 15 17  1  0
 16 15  2  0
 18 17  1  0
 18 21  1  0
 19 20  1  0
 18 19  1  6
 21 22  2  0
 21 23  1  0
M  END
$$$$
