LNC.pdb
     RDKit          3D

 23 22  0  0  1  0  0  0  0  0999 V2000
   29.7865  -16.8876  -18.5359 C   0  0  0  0  0  0  0  0  0  0  0  0
   28.7613  -17.9211  -18.9532 C   0  0  2  0  0  0  0  0  0  0  0  0
   28.3714  -17.6059  -20.3927 C   0  0  0  0  0  0  0  0  0  0  0  0
   27.5400  -17.8747  -18.0402 C   0  0  0  0  0  0  0  0  0  0  0  0
   27.7957  -18.8492  -16.9139 C   0  0  2  0  0  0  0  0  0  0  0  0
   28.1962  -20.1074  -17.5318 N   0  0  0  0  0  0  0  0  0  0  0  0
   26.5946  -19.0859  -16.0897 C   0  0  0  0  0  0  0  0  0  0  0  0
   26.0619  -18.0819  -15.5434 O   0  0  0  0  0  0  0  0  0  0  0  0
   22.4307  -21.0381  -13.7695 N   0  0  0  0  0  0  0  0  0  0  0  0
   22.5792  -21.6952  -15.0188 C   0  0  0  0  0  0  0  0  0  0  0  0
   21.6364  -22.3998  -15.4502 O   0  0  0  0  0  0  0  0  0  0  0  0
   23.8396  -21.5174  -15.7526 C   0  0  0  0  0  0  0  0  0  0  0  0
   24.8062  -20.5574  -15.0947 C   0  0  2  0  0  0  0  0  0  0  0  0
   26.0043  -20.3432  -15.8704 N   0  0  0  0  0  0  0  0  0  0  0  0
   25.1071  -21.0895  -13.7420 C   0  0  0  0  0  0  0  0  0  0  0  0
   25.9049  -22.0557  -13.6246 O   0  0  0  0  0  0  0  0  0  0  0  0
   24.5464  -20.5729  -12.5565 N   0  0  0  0  0  0  0  0  0  0  0  0
   24.8181  -21.0751  -11.2338 C   0  0  1  0  0  0  0  0  0  0  0  0
   26.0071  -20.2619  -10.7035 C   0  0  0  0  0  0  0  0  0  0  0  0
   26.3995  -20.7525   -9.0020 S   0  0  0  0  0  0  0  0  0  0  0  0
   23.7101  -20.8630  -10.2913 C   0  0  0  0  0  0  0  0  0  0  0  0
   22.9645  -19.8800  -10.4336 O   0  0  0  0  0  0  0  0  0  0  0  0
   23.4958  -21.7408   -9.2601 O   0  0  0  0  0  0  0  0  0  0  0  0
  2  1  1  1
  2  3  1  0
  4  5  1  0
  4  2  1  0
  5  6  1  6
  7  5  1  0
  7  8  2  0
 10 12  1  0
 10  9  1  0
 11 10  2  0
 13 12  1  6
 13 14  1  0
 14  7  1  0
 15 13  1  0
 15 17  1  0
 16 15  2  0
 18 17  1  0
 18 21  1  0
 19 20  1  0
 18 19  1  1
 21 22  2  0
 21 23  1  0
M  END
$$$$
