LNC.pdb
     RDKit          3D

 23 22  0  0  1  0  0  0  0  0999 V2000
   17.7817  -15.8210  -18.4147 C   0  0  0  0  0  0  0  0  0  0  0  0
   18.6849  -16.2227  -17.2674 C   0  0  2  0  0  0  0  0  0  0  0  0
   17.8261  -16.9976  -16.2746 C   0  0  0  0  0  0  0  0  0  0  0  0
   19.3012  -14.9943  -16.6051 C   0  0  0  0  0  0  0  0  0  0  0  0
   20.0813  -14.2637  -17.6732 C   0  0  2  0  0  0  0  0  0  0  0  0
   21.3797  -14.9201  -17.7662 N   0  0  0  0  0  0  0  0  0  0  0  0
   20.2911  -12.8404  -17.3440 C   0  0  0  0  0  0  0  0  0  0  0  0
   21.0284  -12.5791  -16.3549 O   0  0  0  0  0  0  0  0  0  0  0  0
   21.2275   -9.7113  -21.1984 N   0  0  0  0  0  0  0  0  0  0  0  0
   21.3204   -9.7306  -19.7822 C   0  0  0  0  0  0  0  0  0  0  0  0
   22.4377   -9.9294  -19.2495 O   0  0  0  0  0  0  0  0  0  0  0  0
   20.0943   -9.5154  -19.0019 C   0  0  0  0  0  0  0  0  0  0  0  0
   19.9960  -10.3717  -17.7587 C   0  0  2  0  0  0  0  0  0  0  0  0
   19.7316  -11.7604  -18.0496 N   0  0  0  0  0  0  0  0  0  0  0  0
   18.9483   -9.7757  -16.8921 C   0  0  0  0  0  0  0  0  0  0  0  0
   17.7379  -10.0236  -17.1316 O   0  0  0  0  0  0  0  0  0  0  0  0
   19.2260   -8.9335  -15.7968 N   0  0  0  0  0  0  0  0  0  0  0  0
   18.2267   -8.2993  -14.9754 C   0  0  1  0  0  0  0  0  0  0  0  0
   18.5865   -8.6418  -13.5230 C   0  0  0  0  0  0  0  0  0  0  0  0
   17.4365   -7.8304  -12.3789 S   0  0  0  0  0  0  0  0  0  0  0  0
   18.2350   -6.8328  -15.0759 C   0  0  0  0  0  0  0  0  0  0  0  0
   19.2899   -6.2446  -15.3654 O   0  0  0  0  0  0  0  0  0  0  0  0
   17.0895   -6.1132  -14.8527 O   0  0  0  0  0  0  0  0  0  0  0  0
  2  1  1  6
  2  3  1  0
  4  5  1  0
  4  2  1  0
  5  6  1  1
  7  5  1  0
  7  8  2  0
 10 12  1  0
 10  9  1  0
 11 10  2  0
 13 12  1  6
 13 14  1  0
 14  7  1  0
 15 13  1  0
 15 17  1  0
 16 15  2  0
 18 17  1  0
 18 21  1  0
 19 20  1  0
 18 19  1  1
 21 22  2  0
 21 23  1  0
M  END
$$$$
