LNC.pdb
     RDKit          3D

 23 22  0  0  1  0  0  0  0  0999 V2000
   17.1536  -14.2167  -18.4323 C   0  0  0  0  0  0  0  0  0  0  0  0
   18.4216  -14.9442  -18.0370 C   0  0  2  0  0  0  0  0  0  0  0  0
   17.9993  -16.2744  -17.4237 C   0  0  0  0  0  0  0  0  0  0  0  0
   19.2314  -14.1221  -17.0392 C   0  0  0  0  0  0  0  0  0  0  0  0
   19.6085  -12.8343  -17.7340 C   0  0  2  0  0  0  0  0  0  0  0  0
   20.4512  -13.2005  -18.8658 N   0  0  0  0  0  0  0  0  0  0  0  0
   20.3638  -11.9200  -16.8556 C   0  0  0  0  0  0  0  0  0  0  0  0
   19.9462  -11.7777  -15.6743 O   0  0  0  0  0  0  0  0  0  0  0  0
   25.5933   -9.7975  -15.1507 N   0  0  0  0  0  0  0  0  0  0  0  0
   24.4405   -9.2911  -15.8058 C   0  0  0  0  0  0  0  0  0  0  0  0
   24.1026   -8.1004  -15.6065 O   0  0  0  0  0  0  0  0  0  0  0  0
   23.6923  -10.1923  -16.6927 C   0  0  0  0  0  0  0  0  0  0  0  0
   22.2136  -10.2738  -16.3842 C   0  0  2  0  0  0  0  0  0  0  0  0
   21.5093  -11.1998  -17.2384 N   0  0  0  0  0  0  0  0  0  0  0  0
   21.6642   -8.8983  -16.4827 C   0  0  0  0  0  0  0  0  0  0  0  0
   21.6465   -8.3217  -17.6012 O   0  0  0  0  0  0  0  0  0  0  0  0
   21.1507   -8.1813  -15.3833 N   0  0  0  0  0  0  0  0  0  0  0  0
   20.5329   -6.8825  -15.4670 C   0  0  1  0  0  0  0  0  0  0  0  0
   19.2744   -6.9503  -14.5908 C   0  0  0  0  0  0  0  0  0  0  0  0
   18.1040   -8.1642  -15.2589 S   0  0  0  0  0  0  0  0  0  0  0  0
   21.3683   -5.8037  -14.9201 C   0  0  0  0  0  0  0  0  0  0  0  0
   22.5023   -6.0666  -14.4872 O   0  0  0  0  0  0  0  0  0  0  0  0
   20.9046   -4.5139  -14.8851 O   0  0  0  0  0  0  0  0  0  0  0  0
  2  1  1  1
  2  3  1  0
  4  5  1  0
  4  2  1  0
  5  6  1  6
  7  5  1  0
  7  8  2  0
 10 12  1  0
 10  9  1  0
 11 10  2  0
 13 12  1  6
 13 14  1  0
 14  7  1  0
 15 13  1  0
 15 17  1  0
 16 15  2  0
 18 17  1  0
 18 21  1  0
 19 20  1  0
 18 19  1  1
 21 22  2  0
 21 23  1  0
M  END
$$$$
