LNC.pdb
     RDKit          3D

 23 22  0  0  1  0  0  0  0  0999 V2000
   26.7561  -16.5798  -14.5062 C   0  0  0  0  0  0  0  0  0  0  0  0
   25.8653  -15.7719  -15.4266 C   0  0  2  0  0  0  0  0  0  0  0  0
   26.2377  -16.1532  -16.8547 C   0  0  0  0  0  0  0  0  0  0  0  0
   26.0616  -14.2763  -15.1981 C   0  0  0  0  0  0  0  0  0  0  0  0
   24.8043  -13.5894  -15.6785 C   0  0  2  0  0  0  0  0  0  0  0  0
   24.7153  -13.8345  -17.1129 N   0  0  0  0  0  0  0  0  0  0  0  0
   24.8341  -12.1323  -15.4466 C   0  0  0  0  0  0  0  0  0  0  0  0
   24.9583  -11.7396  -14.2546 O   0  0  0  0  0  0  0  0  0  0  0  0
   27.3158   -9.9808  -15.4146 N   0  0  0  0  0  0  0  0  0  0  0  0
   27.0931   -9.1733  -16.5605 C   0  0  0  0  0  0  0  0  0  0  0  0
   28.0791   -8.6759  -17.1538 O   0  0  0  0  0  0  0  0  0  0  0  0
   25.7081   -8.9571  -17.0003 C   0  0  0  0  0  0  0  0  0  0  0  0
   24.6806   -9.7340  -16.2071 C   0  0  2  0  0  0  0  0  0  0  0  0
   24.7347  -11.1552  -16.4529 N   0  0  0  0  0  0  0  0  0  0  0  0
   23.3484   -9.1640  -16.5299 C   0  0  0  0  0  0  0  0  0  0  0  0
   22.7641   -9.5253  -17.5844 O   0  0  0  0  0  0  0  0  0  0  0  0
   22.6818   -8.2258  -15.7163 N   0  0  0  0  0  0  0  0  0  0  0  0
   21.3899   -7.6586  -16.0076 C   0  0  1  0  0  0  0  0  0  0  0  0
   20.3799   -8.8074  -15.8805 C   0  0  0  0  0  0  0  0  0  0  0  0
   18.6839   -8.1669  -15.9375 S   0  0  0  0  0  0  0  0  0  0  0  0
   20.9764   -6.6270  -15.0456 C   0  0  0  0  0  0  0  0  0  0  0  0
   21.5730   -6.5264  -13.9609 O   0  0  0  0  0  0  0  0  0  0  0  0
   19.9398   -5.7783  -15.3376 O   0  0  0  0  0  0  0  0  0  0  0  0
  2  1  1  1
  2  3  1  0
  4  5  1  0
  4  2  1  0
  5  6  1  6
  7  5  1  0
  7  8  2  0
 10 12  1  0
 10  9  1  0
 11 10  2  0
 13 12  1  6
 13 14  1  0
 14  7  1  0
 15 13  1  0
 15 17  1  0
 16 15  2  0
 18 17  1  0
 18 21  1  0
 19 20  1  0
 18 19  1  1
 21 22  2  0
 21 23  1  0
M  END
$$$$
