DNQ.pdb
     RDKit          3D

 26 25  0  0  1  0  0  0  0  0999 V2000
   13.4139  -12.3644  -12.9102 N   0  0  0  0  0  0  0  0  0  0  0  0
   13.2446  -12.0828  -11.5206 C   0  0  1  0  0  0  0  0  0  0  0  0
   13.0260  -13.2759  -10.6445 C   0  0  0  0  0  0  0  0  0  0  0  0
   11.8450  -14.0429  -11.0531 C   0  0  0  0  0  0  0  0  0  0  0  0
   11.1991  -13.7056  -12.0687 O   0  0  0  0  0  0  0  0  0  0  0  0
   14.3566  -11.2266  -11.0485 C   0  0  0  0  0  0  0  0  0  0  0  0
   14.4452  -10.8270   -9.8519 O   0  0  0  0  0  0  0  0  0  0  0  0
   11.4505  -15.1466  -10.3021 O   0  0  0  0  0  0  0  0  0  0  0  0
   18.8774   -8.5554  -11.2110 N   0  0  0  0  0  0  0  0  0  0  0  0
   18.7702   -9.3798  -12.3794 C   0  0  0  0  0  0  0  0  0  0  0  0
   19.6934   -9.4670  -13.2050 O   0  0  0  0  0  0  0  0  0  0  0  0
   17.5266  -10.1245  -12.5734 C   0  0  0  0  0  0  0  0  0  0  0  0
   16.5120  -10.0124  -11.4880 C   0  0  2  0  0  0  0  0  0  0  0  0
   15.3655  -10.8288  -11.9469 N   0  0  0  0  0  0  0  0  0  0  0  0
   15.9889   -8.6159  -11.3029 C   0  0  0  0  0  0  0  0  0  0  0  0
   15.3360   -7.9946  -12.1725 O   0  0  0  0  0  0  0  0  0  0  0  0
   14.3718   -5.9097   -5.8226 N   0  0  0  0  0  0  0  0  0  0  0  0
   14.1442   -4.8803   -6.7754 C   0  0  0  0  0  0  0  0  0  0  0  0
   13.6276   -3.7934   -6.4176 O   0  0  0  0  0  0  0  0  0  0  0  0
   14.5185   -5.0816   -8.2169 C   0  0  0  0  0  0  0  0  0  0  0  0
   15.1776   -6.4325   -8.4037 C   0  0  0  0  0  0  0  0  0  0  0  0
   15.6020   -6.5990   -9.8368 C   0  0  2  0  0  0  0  0  0  0  0  0
   16.2099   -7.8850  -10.0853 N   0  0  0  0  0  0  0  0  0  0  0  0
   16.5524   -5.5187  -10.2150 C   0  0  0  0  0  0  0  0  0  0  0  0
   17.7964   -5.6920  -10.1447 O   0  0  0  0  0  0  0  0  0  0  0  0
   16.1194   -4.2768  -10.6602 O   0  0  0  0  0  0  0  0  0  0  0  0
  2  3  1  0
  2  1  1  6
  3  4  1  0
  4  8  1  0
  5  4  2  0
  6  2  1  0
  7  6  2  0
  9 10  1  0
 10 12  1  0
 11 10  2  0
 13 12  1  6
 13 14  1  0
 14  6  1  0
 15 13  1  0
 15 16  2  0
 18 17  1  0
 19 18  2  0
 20 18  1  0
 22 21  1  1
 21 20  1  0
 22 23  1  0
 23 15  1  0
 24 22  1  0
 25 24  2  0
 26 24  1  0
M  END
$$$$
