DNQ.pdb
     RDKit          3D

 26 25  0  0  1  0  0  0  0  0999 V2000
   16.0137  -10.7637  -10.1052 N   0  0  0  0  0  0  0  0  0  0  0  0
   14.9875  -10.3211  -10.9942 C   0  0  1  0  0  0  0  0  0  0  0  0
   13.7424  -11.1507  -11.0031 C   0  0  0  0  0  0  0  0  0  0  0  0
   14.0008  -12.5162  -11.4709 C   0  0  0  0  0  0  0  0  0  0  0  0
   15.1568  -12.8567  -11.8031 O   0  0  0  0  0  0  0  0  0  0  0  0
   14.7125   -8.8852  -10.7592 C   0  0  0  0  0  0  0  0  0  0  0  0
   13.9836   -8.1981  -11.5313 O   0  0  0  0  0  0  0  0  0  0  0  0
   12.9507  -13.4273  -11.5415 O   0  0  0  0  0  0  0  0  0  0  0  0
   14.2737   -4.3688   -8.1995 N   0  0  0  0  0  0  0  0  0  0  0  0
   14.3231   -5.4918   -7.3091 C   0  0  0  0  0  0  0  0  0  0  0  0
   14.0745   -5.3774   -6.0981 O   0  0  0  0  0  0  0  0  0  0  0  0
   14.6792   -6.7923   -7.8754 C   0  0  0  0  0  0  0  0  0  0  0  0
   14.9482   -6.8249   -9.3405 C   0  0  2  0  0  0  0  0  0  0  0  0
   15.2725   -8.2377   -9.6410 N   0  0  0  0  0  0  0  0  0  0  0  0
   16.1516   -6.0203   -9.7436 C   0  0  0  0  0  0  0  0  0  0  0  0
   16.2821   -4.7965   -9.5118 O   0  0  0  0  0  0  0  0  0  0  0  0
   21.4092   -8.0958  -12.8615 N   0  0  0  0  0  0  0  0  0  0  0  0
   21.5373   -6.6805  -12.8542 C   0  0  0  0  0  0  0  0  0  0  0  0
   22.5068   -6.1325  -13.4338 O   0  0  0  0  0  0  0  0  0  0  0  0
   20.5164   -5.8279  -12.1547 C   0  0  0  0  0  0  0  0  0  0  0  0
   19.4650   -6.6998  -11.5000 C   0  0  0  0  0  0  0  0  0  0  0  0
   18.3660   -5.8397  -10.9398 C   0  0  2  0  0  0  0  0  0  0  0  0
   17.2581   -6.6186  -10.4388 N   0  0  0  0  0  0  0  0  0  0  0  0
   17.8786   -4.8947  -11.9804 C   0  0  0  0  0  0  0  0  0  0  0  0
   18.4772   -3.8120  -12.2083 O   0  0  0  0  0  0  0  0  0  0  0  0
   16.7498   -5.1568  -12.7453 O   0  0  0  0  0  0  0  0  0  0  0  0
  2  3  1  0
  2  1  1  1
  3  4  1  0
  4  8  1  0
  5  4  2  0
  6  2  1  0
  7  6  2  0
  9 10  1  0
 10 12  1  0
 11 10  2  0
 13 12  1  1
 13 14  1  0
 14  6  1  0
 15 13  1  0
 15 16  2  0
 18 17  1  0
 19 18  2  0
 20 18  1  0
 22 21  1  6
 21 20  1  0
 22 23  1  0
 23 15  1  0
 24 22  1  0
 25 24  2  0
 26 24  1  0
M  END
$$$$
