DNQ.pdb
     RDKit          3D

 26 25  0  0  1  0  0  0  0  0999 V2000
   14.0081  -10.3724  -10.6670 N   0  0  0  0  0  0  0  0  0  0  0  0
   15.4023  -10.0656  -10.7007 C   0  0  1  0  0  0  0  0  0  0  0  0
   16.1990  -10.8048  -11.7291 C   0  0  0  0  0  0  0  0  0  0  0  0
   16.0616  -12.2574  -11.5842 C   0  0  0  0  0  0  0  0  0  0  0  0
   15.6979  -12.7468  -10.4929 O   0  0  0  0  0  0  0  0  0  0  0  0
   15.5858   -8.5987  -10.7854 C   0  0  0  0  0  0  0  0  0  0  0  0
   15.0960   -7.9061  -11.7235 O   0  0  0  0  0  0  0  0  0  0  0  0
   16.3390  -13.0842  -12.6692 O   0  0  0  0  0  0  0  0  0  0  0  0
   13.9303   -5.6203   -9.3520 N   0  0  0  0  0  0  0  0  0  0  0  0
   14.8493   -5.5569   -8.2529 C   0  0  0  0  0  0  0  0  0  0  0  0
   14.4950   -5.1753   -7.1257 O   0  0  0  0  0  0  0  0  0  0  0  0
   16.2332   -5.9595   -8.5006 C   0  0  0  0  0  0  0  0  0  0  0  0
   16.5410   -6.4632   -9.8686 C   0  0  2  0  0  0  0  0  0  0  0  0
   16.3300   -7.9267   -9.7966 N   0  0  0  0  0  0  0  0  0  0  0  0
   17.9755   -6.2625  -10.2689 C   0  0  0  0  0  0  0  0  0  0  0  0
   18.9437   -6.3985   -9.4864 O   0  0  0  0  0  0  0  0  0  0  0  0
   21.8844   -9.9086  -13.1890 N   0  0  0  0  0  0  0  0  0  0  0  0
   20.8910   -8.9457  -13.5139 C   0  0  0  0  0  0  0  0  0  0  0  0
   20.4305   -8.8843  -14.6802 O   0  0  0  0  0  0  0  0  0  0  0  0
   20.3832   -7.9940  -12.4676 C   0  0  0  0  0  0  0  0  0  0  0  0
   20.1658   -6.6209  -13.0689 C   0  0  0  0  0  0  0  0  0  0  0  0
   19.7080   -5.6640  -12.0030 C   0  0  2  0  0  0  0  0  0  0  0  0
   18.3375   -5.8922  -11.6096 N   0  0  0  0  0  0  0  0  0  0  0  0
   19.8620   -4.2623  -12.4772 C   0  0  0  0  0  0  0  0  0  0  0  0
   18.8607   -3.5645  -12.7823 O   0  0  0  0  0  0  0  0  0  0  0  0
   21.1059   -3.6588  -12.6061 O   0  0  0  0  0  0  0  0  0  0  0  0
  2  3  1  0
  2  1  1  6
  3  4  1  0
  4  8  1  0
  5  4  2  0
  6  2  1  0
  7  6  2  0
  9 10  1  0
 10 12  1  0
 11 10  2  0
 13 12  1  1
 13 14  1  0
 14  6  1  0
 15 13  1  0
 15 16  2  0
 18 17  1  0
 19 18  2  0
 20 18  1  0
 22 21  1  6
 21 20  1  0
 22 23  1  0
 23 15  1  0
 24 22  1  0
 25 24  2  0
 26 24  1  0
M  END
$$$$
