DNQ.pdb
     RDKit          3D

 26 25  0  0  1  0  0  0  0  0999 V2000
   20.6902  -18.6598  -17.2853 N   0  0  0  0  0  0  0  0  0  0  0  0
   19.8751  -17.4945  -17.1543 C   0  0  1  0  0  0  0  0  0  0  0  0
   19.1130  -17.3836  -15.8715 C   0  0  0  0  0  0  0  0  0  0  0  0
   18.0876  -18.4253  -15.7551 C   0  0  0  0  0  0  0  0  0  0  0  0
   17.9760  -19.2971  -16.6439 O   0  0  0  0  0  0  0  0  0  0  0  0
   20.6842  -16.2880  -17.4414 C   0  0  0  0  0  0  0  0  0  0  0  0
   21.9331  -16.2457  -17.2463 O   0  0  0  0  0  0  0  0  0  0  0  0
   17.2420  -18.4347  -14.6494 O   0  0  0  0  0  0  0  0  0  0  0  0
   20.9810  -11.9973  -21.4474 N   0  0  0  0  0  0  0  0  0  0  0  0
   21.5282  -12.6159  -20.2751 C   0  0  0  0  0  0  0  0  0  0  0  0
   22.5693  -12.1997  -19.7416 O   0  0  0  0  0  0  0  0  0  0  0  0
   20.8161  -13.7657  -19.7187 C   0  0  0  0  0  0  0  0  0  0  0  0
   20.8487  -13.9101  -18.2361 C   0  0  2  0  0  0  0  0  0  0  0  0
   20.0626  -15.1317  -17.9509 N   0  0  0  0  0  0  0  0  0  0  0  0
   20.1610  -12.7868  -17.5126 C   0  0  0  0  0  0  0  0  0  0  0  0
   18.9246  -12.5901  -17.5442 O   0  0  0  0  0  0  0  0  0  0  0  0
   22.9037   -7.9026  -14.2888 N   0  0  0  0  0  0  0  0  0  0  0  0
   21.5073   -7.7119  -14.1065 C   0  0  0  0  0  0  0  0  0  0  0  0
   21.0861   -6.7282  -13.4499 O   0  0  0  0  0  0  0  0  0  0  0  0
   20.5236   -8.6829  -14.6962 C   0  0  0  0  0  0  0  0  0  0  0  0
   21.2543   -9.8028  -15.4076 C   0  0  0  0  0  0  0  0  0  0  0  0
   20.2633  -10.7110  -16.0817 C   0  0  2  0  0  0  0  0  0  0  0  0
   20.8967  -11.8422  -16.7176 N   0  0  0  0  0  0  0  0  0  0  0  0
   19.4789   -9.9490  -17.0904 C   0  0  0  0  0  0  0  0  0  0  0  0
   19.9223   -9.7596  -18.2524 O   0  0  0  0  0  0  0  0  0  0  0  0
   18.2303   -9.4134  -16.8039 O   0  0  0  0  0  0  0  0  0  0  0  0
  2  3  1  0
  2  1  1  1
  3  4  1  0
  4  8  1  0
  5  4  2  0
  6  2  1  0
  7  6  2  0
  9 10  1  0
 10 12  1  0
 11 10  2  0
 13 12  1  6
 13 14  1  0
 14  6  1  0
 15 13  1  0
 15 16  2  0
 18 17  1  0
 19 18  2  0
 20 18  1  0
 22 21  1  6
 21 20  1  0
 22 23  1  0
 23 15  1  0
 24 22  1  0
 25 24  2  0
 26 24  1  0
M  END
$$$$
