DNQ.pdb
     RDKit          3D

 26 25  0  0  1  0  0  0  0  0999 V2000
   28.1127  -21.0722  -15.6123 N   0  0  0  0  0  0  0  0  0  0  0  0
   27.2339  -20.1225  -15.0083 C   0  0  1  0  0  0  0  0  0  0  0  0
   26.5617  -19.1766  -15.9529 C   0  0  0  0  0  0  0  0  0  0  0  0
   27.5323  -18.3631  -16.6921 C   0  0  0  0  0  0  0  0  0  0  0  0
   28.1839  -17.4745  -16.1020 O   0  0  0  0  0  0  0  0  0  0  0  0
   26.2732  -20.8252  -14.1275 C   0  0  0  0  0  0  0  0  0  0  0  0
   25.7772  -21.9501  -14.4244 O   0  0  0  0  0  0  0  0  0  0  0  0
   27.7211  -18.5885  -18.0527 O   0  0  0  0  0  0  0  0  0  0  0  0
   26.9077  -21.9229  -10.4775 N   0  0  0  0  0  0  0  0  0  0  0  0
   26.1596  -20.8382   -9.9119 C   0  0  0  0  0  0  0  0  0  0  0  0
   26.4287  -20.3716   -8.7932 O   0  0  0  0  0  0  0  0  0  0  0  0
   25.0565  -20.2900  -10.7003 C   0  0  0  0  0  0  0  0  0  0  0  0
   24.8547  -20.8781  -12.0543 C   0  0  2  0  0  0  0  0  0  0  0  0
   25.8813  -20.2392  -12.9084 N   0  0  0  0  0  0  0  0  0  0  0  0
   23.5247  -20.5323  -12.6622 C   0  0  0  0  0  0  0  0  0  0  0  0
   23.1780  -19.3677  -12.9654 O   0  0  0  0  0  0  0  0  0  0  0  0
   18.3168  -22.4589  -17.4326 N   0  0  0  0  0  0  0  0  0  0  0  0
   19.4268  -22.6965  -16.5777 C   0  0  0  0  0  0  0  0  0  0  0  0
   20.1502  -23.7080  -16.7504 O   0  0  0  0  0  0  0  0  0  0  0  0
   19.7452  -21.7420  -15.4614 C   0  0  0  0  0  0  0  0  0  0  0  0
   21.0049  -22.1779  -14.7420 C   0  0  0  0  0  0  0  0  0  0  0  0
   21.2926  -21.2390  -13.6031 C   0  0  2  0  0  0  0  0  0  0  0  0
   22.5402  -21.5413  -12.9418 N   0  0  0  0  0  0  0  0  0  0  0  0
   20.1823  -21.2837  -12.6138 C   0  0  0  0  0  0  0  0  0  0  0  0
   20.1787  -22.1231  -11.6768 O   0  0  0  0  0  0  0  0  0  0  0  0
   19.1045  -20.4104  -12.6736 O   0  0  0  0  0  0  0  0  0  0  0  0
  2  3  1  0
  2  1  1  6
  3  4  1  0
  4  8  1  0
  5  4  2  0
  6  2  1  0
  7  6  2  0
  9 10  1  0
 10 12  1  0
 11 10  2  0
 13 12  1  1
 13 14  1  0
 14  6  1  0
 15 13  1  0
 15 16  2  0
 18 17  1  0
 19 18  2  0
 20 18  1  0
 22 21  1  6
 21 20  1  0
 22 23  1  0
 23 15  1  0
 24 22  1  0
 25 24  2  0
 26 24  1  0
M  END
$$$$
