DNQ.pdb
     RDKit          3D

 26 25  0  0  1  0  0  0  0  0999 V2000
   15.7496  -11.1474  -13.4845 N   0  0  0  0  0  0  0  0  0  0  0  0
   15.4956  -10.9361  -14.8738 C   0  0  1  0  0  0  0  0  0  0  0  0
   14.0669  -11.0768  -15.2951 C   0  0  0  0  0  0  0  0  0  0  0  0
   13.5280  -12.3990  -14.9611 C   0  0  0  0  0  0  0  0  0  0  0  0
   12.3919  -12.5019  -14.4499 O   0  0  0  0  0  0  0  0  0  0  0  0
   16.0889   -9.6469  -15.2963 C   0  0  0  0  0  0  0  0  0  0  0  0
   16.0691   -9.2515  -16.4975 O   0  0  0  0  0  0  0  0  0  0  0  0
   14.2903  -13.5351  -15.2176 O   0  0  0  0  0  0  0  0  0  0  0  0
   16.4518   -4.4996  -15.9622 N   0  0  0  0  0  0  0  0  0  0  0  0
   16.6904   -5.1060  -14.6848 C   0  0  0  0  0  0  0  0  0  0  0  0
   17.2246   -4.4814  -13.7541 O   0  0  0  0  0  0  0  0  0  0  0  0
   16.2813   -6.4987  -14.5071 C   0  0  0  0  0  0  0  0  0  0  0  0
   17.3282   -7.5316  -14.7461 C   0  0  2  0  0  0  0  0  0  0  0  0
   16.7044   -8.8124  -14.3435 N   0  0  0  0  0  0  0  0  0  0  0  0
   18.5425   -7.3617  -13.8773 C   0  0  0  0  0  0  0  0  0  0  0  0
   18.8668   -8.1594  -12.9680 O   0  0  0  0  0  0  0  0  0  0  0  0
   22.6312   -9.2928  -16.4763 N   0  0  0  0  0  0  0  0  0  0  0  0
   23.4522   -8.6826  -15.4899 C   0  0  0  0  0  0  0  0  0  0  0  0
   24.6448   -9.0484  -15.3483 O   0  0  0  0  0  0  0  0  0  0  0  0
   22.9027   -7.5963  -14.6088 C   0  0  0  0  0  0  0  0  0  0  0  0
   21.4212   -7.4124  -14.8650 C   0  0  0  0  0  0  0  0  0  0  0  0
   20.8657   -6.3780  -13.9254 C   0  0  2  0  0  0  0  0  0  0  0  0
   19.4323   -6.2446  -14.0383 N   0  0  0  0  0  0  0  0  0  0  0  0
   21.5089   -5.0610  -14.1803 C   0  0  0  0  0  0  0  0  0  0  0  0
   21.1624   -4.3450  -15.1549 O   0  0  0  0  0  0  0  0  0  0  0  0
   22.5143   -4.5599  -13.3641 O   0  0  0  0  0  0  0  0  0  0  0  0
  2  3  1  0
  2  1  1  1
  3  4  1  0
  4  8  1  0
  5  4  2  0
  6  2  1  0
  7  6  2  0
  9 10  1  0
 10 12  1  0
 11 10  2  0
 13 12  1  1
 13 14  1  0
 14  6  1  0
 15 13  1  0
 15 16  2  0
 18 17  1  0
 19 18  2  0
 20 18  1  0
 22 21  1  6
 21 20  1  0
 22 23  1  0
 23 15  1  0
 24 22  1  0
 25 24  2  0
 26 24  1  0
M  END
$$$$
