DNQ.pdb
     RDKit          3D

 26 25  0  0  1  0  0  0  0  0999 V2000
   15.6749  -11.6104  -15.6117 N   0  0  0  0  0  0  0  0  0  0  0  0
   15.4167  -11.8899  -14.2353 C   0  0  1  0  0  0  0  0  0  0  0  0
   15.4793  -13.3342  -13.8496 C   0  0  0  0  0  0  0  0  0  0  0  0
   14.5174  -14.1423  -14.6057 C   0  0  0  0  0  0  0  0  0  0  0  0
   13.2906  -13.9997  -14.4130 O   0  0  0  0  0  0  0  0  0  0  0  0
   16.2779  -11.0363  -13.3854 C   0  0  0  0  0  0  0  0  0  0  0  0
   16.3687  -11.1958  -12.1341 O   0  0  0  0  0  0  0  0  0  0  0  0
   14.9811  -15.0670  -15.5373 O   0  0  0  0  0  0  0  0  0  0  0  0
   19.7338   -7.3134  -12.0914 N   0  0  0  0  0  0  0  0  0  0  0  0
   19.9947   -7.8106  -13.4109 C   0  0  0  0  0  0  0  0  0  0  0  0
   21.0074   -7.4768  -14.0469 O   0  0  0  0  0  0  0  0  0  0  0  0
   19.0216   -8.7338  -13.9936 C   0  0  0  0  0  0  0  0  0  0  0  0
   17.8618   -9.1021  -13.1339 C   0  0  2  0  0  0  0  0  0  0  0  0
   17.0336  -10.0012  -13.9690 N   0  0  0  0  0  0  0  0  0  0  0  0
   16.9881   -7.9323  -12.7783 C   0  0  0  0  0  0  0  0  0  0  0  0
   16.3632   -7.2471  -13.6200 O   0  0  0  0  0  0  0  0  0  0  0  0
   14.9337   -6.4441   -6.9781 N   0  0  0  0  0  0  0  0  0  0  0  0
   14.0874   -7.0704   -7.9326 C   0  0  0  0  0  0  0  0  0  0  0  0
   13.0529   -7.6746   -7.5571 O   0  0  0  0  0  0  0  0  0  0  0  0
   14.4210   -7.0159   -9.3968 C   0  0  0  0  0  0  0  0  0  0  0  0
   15.7187   -6.2646   -9.6113 C   0  0  0  0  0  0  0  0  0  0  0  0
   16.0979   -6.3068  -11.0659 C   0  0  2  0  0  0  0  0  0  0  0  0
   16.8090   -7.5141  -11.4150 N   0  0  0  0  0  0  0  0  0  0  0  0
   16.9307   -5.1227  -11.4092 C   0  0  0  0  0  0  0  0  0  0  0  0
   16.4050   -4.0464  -11.7936 O   0  0  0  0  0  0  0  0  0  0  0  0
   18.3164   -5.1448  -11.3240 O   0  0  0  0  0  0  0  0  0  0  0  0
  2  3  1  0
  2  1  1  6
  3  4  1  0
  4  8  1  0
  5  4  2  0
  6  2  1  0
  7  6  2  0
  9 10  1  0
 10 12  1  0
 11 10  2  0
 13 12  1  6
 13 14  1  0
 14  6  1  0
 15 13  1  0
 15 16  2  0
 18 17  1  0
 19 18  2  0
 20 18  1  0
 22 21  1  1
 21 20  1  0
 22 23  1  0
 23 15  1  0
 24 22  1  0
 25 24  2  0
 26 24  1  0
M  END
$$$$
