DNQ.pdb
     RDKit          3D

 26 25  0  0  1  0  0  0  0  0999 V2000
   31.6194   -9.8955  -17.2590 N   0  0  0  0  0  0  0  0  0  0  0  0
   31.3971   -9.4083  -18.5827 C   0  0  1  0  0  0  0  0  0  0  0  0
   32.2907   -9.9809  -19.6374 C   0  0  0  0  0  0  0  0  0  0  0  0
   33.7010   -9.6684  -19.3851 C   0  0  0  0  0  0  0  0  0  0  0  0
   34.0199   -8.9529  -18.4111 O   0  0  0  0  0  0  0  0  0  0  0  0
   29.9617   -9.5345  -18.9236 C   0  0  0  0  0  0  0  0  0  0  0  0
   29.4756   -9.0744  -19.9967 O   0  0  0  0  0  0  0  0  0  0  0  0
   34.6786  -10.1741  -20.2374 O   0  0  0  0  0  0  0  0  0  0  0  0
   27.6683  -11.7317  -20.8322 N   0  0  0  0  0  0  0  0  0  0  0  0
   27.5109  -12.5427  -19.6601 C   0  0  0  0  0  0  0  0  0  0  0  0
   27.4194  -13.7791  -19.7280 O   0  0  0  0  0  0  0  0  0  0  0  0
   27.4606  -11.8635  -18.3660 C   0  0  0  0  0  0  0  0  0  0  0  0
   27.6603  -10.3871  -18.3854 C   0  0  2  0  0  0  0  0  0  0  0  0
   29.0847  -10.1866  -18.0355 N   0  0  0  0  0  0  0  0  0  0  0  0
   26.8622   -9.6638  -17.3375 C   0  0  0  0  0  0  0  0  0  0  0  0
   27.0721   -9.7654  -16.1071 O   0  0  0  0  0  0  0  0  0  0  0  0
   23.8179   -4.1448  -17.8158 N   0  0  0  0  0  0  0  0  0  0  0  0
   23.4111   -4.6263  -16.5422 C   0  0  0  0  0  0  0  0  0  0  0  0
   22.7210   -3.9005  -15.7851 O   0  0  0  0  0  0  0  0  0  0  0  0
   23.8016   -6.0052  -16.0899 C   0  0  0  0  0  0  0  0  0  0  0  0
   24.6740   -6.6717  -17.1333 C   0  0  0  0  0  0  0  0  0  0  0  0
   25.0143   -8.0697  -16.6960 C   0  0  2  0  0  0  0  0  0  0  0  0
   25.7792   -8.7867  -17.6890 N   0  0  0  0  0  0  0  0  0  0  0  0
   23.7695   -8.8238  -16.3879 C   0  0  0  0  0  0  0  0  0  0  0  0
   23.1997   -9.5253  -17.2630 O   0  0  0  0  0  0  0  0  0  0  0  0
   23.1788   -8.7923  -15.1316 O   0  0  0  0  0  0  0  0  0  0  0  0
  2  3  1  0
  2  1  1  1
  3  4  1  0
  4  8  1  0
  5  4  2  0
  6  2  1  0
  7  6  2  0
  9 10  1  0
 10 12  1  0
 11 10  2  0
 13 12  1  1
 13 14  1  0
 14  6  1  0
 15 13  1  0
 15 16  2  0
 18 17  1  0
 19 18  2  0
 20 18  1  0
 22 21  1  6
 21 20  1  0
 22 23  1  0
 23 15  1  0
 24 22  1  0
 25 24  2  0
 26 24  1  0
M  END
$$$$
