DNQ.pdb
     RDKit          3D

 26 25  0  0  1  0  0  0  0  0999 V2000
   16.2572  -10.6377  -14.5886 N   0  0  0  0  0  0  0  0  0  0  0  0
   17.6616  -10.8824  -14.6718 C   0  0  1  0  0  0  0  0  0  0  0  0
   18.2132  -10.9991  -16.0577 C   0  0  0  0  0  0  0  0  0  0  0  0
   17.4831  -11.9914  -16.8529 C   0  0  0  0  0  0  0  0  0  0  0  0
   16.5680  -12.6635  -16.3299 O   0  0  0  0  0  0  0  0  0  0  0  0
   18.3885   -9.8859  -13.8524 C   0  0  0  0  0  0  0  0  0  0  0  0
   19.6372   -9.9452  -13.6607 O   0  0  0  0  0  0  0  0  0  0  0  0
   17.8169  -12.1779  -18.1914 O   0  0  0  0  0  0  0  0  0  0  0  0
   21.1729   -7.7304  -12.1976 N   0  0  0  0  0  0  0  0  0  0  0  0
   20.6824   -7.0813  -13.3785 C   0  0  0  0  0  0  0  0  0  0  0  0
   21.4470   -6.5329  -14.1885 O   0  0  0  0  0  0  0  0  0  0  0  0
   19.2375   -7.0838  -13.6044 C   0  0  0  0  0  0  0  0  0  0  0  0
   18.4047   -7.7346  -12.5543 C   0  0  2  0  0  0  0  0  0  0  0  0
   17.6849   -8.8232  -13.2535 N   0  0  0  0  0  0  0  0  0  0  0  0
   17.3498   -6.8291  -11.9839 C   0  0  0  0  0  0  0  0  0  0  0  0
   16.3688   -6.4036  -12.6359 O   0  0  0  0  0  0  0  0  0  0  0  0
   13.7973   -9.1952   -8.4947 N   0  0  0  0  0  0  0  0  0  0  0  0
   13.3433   -7.8690   -8.2614 C   0  0  0  0  0  0  0  0  0  0  0  0
   12.2591   -7.6706   -7.6603 O   0  0  0  0  0  0  0  0  0  0  0  0
   14.1541   -6.6938   -8.7306 C   0  0  0  0  0  0  0  0  0  0  0  0
   15.4356   -7.1682   -9.3838 C   0  0  0  0  0  0  0  0  0  0  0  0
   16.2160   -5.9877   -9.8926 C   0  0  2  0  0  0  0  0  0  0  0  0
   17.4001   -6.3819  -10.6190 N   0  0  0  0  0  0  0  0  0  0  0  0
   16.5997   -5.1043   -8.7587 C   0  0  0  0  0  0  0  0  0  0  0  0
   17.7101   -5.2315   -8.1812 O   0  0  0  0  0  0  0  0  0  0  0  0
   15.7607   -4.1046   -8.2848 O   0  0  0  0  0  0  0  0  0  0  0  0
  2  3  1  0
  2  1  1  6
  3  4  1  0
  4  8  1  0
  5  4  2  0
  6  2  1  0
  7  6  2  0
  9 10  1  0
 10 12  1  0
 11 10  2  0
 13 12  1  6
 13 14  1  0
 14  6  1  0
 15 13  1  0
 15 16  2  0
 18 17  1  0
 19 18  2  0
 20 18  1  0
 22 21  1  1
 21 20  1  0
 22 23  1  0
 23 15  1  0
 24 22  1  0
 25 24  2  0
 26 24  1  0
M  END
$$$$
