DNQ.pdb
     RDKit          3D

 26 25  0  0  1  0  0  0  0  0999 V2000
   18.0765  -11.7217  -15.1618 N   0  0  0  0  0  0  0  0  0  0  0  0
   17.6292  -10.3705  -15.0457 C   0  0  1  0  0  0  0  0  0  0  0  0
   16.1682  -10.1538  -15.2853 C   0  0  0  0  0  0  0  0  0  0  0  0
   15.7587  -10.6209  -16.6135 C   0  0  0  0  0  0  0  0  0  0  0  0
   16.4636  -10.3635  -17.6133 O   0  0  0  0  0  0  0  0  0  0  0  0
   18.0836   -9.8064  -13.7542 C   0  0  0  0  0  0  0  0  0  0  0  0
   17.8397  -10.3648  -12.6459 O   0  0  0  0  0  0  0  0  0  0  0  0
   14.5816  -11.3513  -16.7510 O   0  0  0  0  0  0  0  0  0  0  0  0
   20.5955   -6.6498  -10.4069 N   0  0  0  0  0  0  0  0  0  0  0  0
   21.1223   -6.4731  -11.7289 C   0  0  0  0  0  0  0  0  0  0  0  0
   22.0879   -5.7256  -11.9533 O   0  0  0  0  0  0  0  0  0  0  0  0
   20.4816   -7.2076  -12.8191 C   0  0  0  0  0  0  0  0  0  0  0  0
   19.2913   -8.0267  -12.4554 C   0  0  2  0  0  0  0  0  0  0  0  0
   18.8160   -8.6039  -13.7331 N   0  0  0  0  0  0  0  0  0  0  0  0
   18.1518   -7.2129  -11.9099 C   0  0  0  0  0  0  0  0  0  0  0  0
   17.4667   -6.4225  -12.5985 O   0  0  0  0  0  0  0  0  0  0  0  0
   13.7003   -9.0559   -8.1173 N   0  0  0  0  0  0  0  0  0  0  0  0
   13.4761   -7.6528   -8.1356 C   0  0  0  0  0  0  0  0  0  0  0  0
   12.4554   -7.1705   -7.5863 O   0  0  0  0  0  0  0  0  0  0  0  0
   14.4558   -6.7346   -8.8106 C   0  0  0  0  0  0  0  0  0  0  0  0
   15.6462   -7.5207   -9.3196 C   0  0  0  0  0  0  0  0  0  0  0  0
   16.6109   -6.5960  -10.0094 C   0  0  2  0  0  0  0  0  0  0  0  0
   17.7654   -7.2913  -10.5278 N   0  0  0  0  0  0  0  0  0  0  0  0
   17.0531   -5.5296   -9.0709 C   0  0  0  0  0  0  0  0  0  0  0  0
   18.1722   -5.5884   -8.4994 O   0  0  0  0  0  0  0  0  0  0  0  0
   16.2613   -4.4265   -8.7807 O   0  0  0  0  0  0  0  0  0  0  0  0
  2  3  1  0
  2  1  1  1
  3  4  1  0
  4  8  1  0
  5  4  2  0
  6  2  1  0
  7  6  2  0
  9 10  1  0
 10 12  1  0
 11 10  2  0
 13 12  1  6
 13 14  1  0
 14  6  1  0
 15 13  1  0
 15 16  2  0
 18 17  1  0
 19 18  2  0
 20 18  1  0
 22 21  1  1
 21 20  1  0
 22 23  1  0
 23 15  1  0
 24 22  1  0
 25 24  2  0
 26 24  1  0
M  END
$$$$
