DNQ.pdb
     RDKit          3D

 26 25  0  0  1  0  0  0  0  0999 V2000
   16.6676  -12.8245  -16.9794 N   0  0  0  0  0  0  0  0  0  0  0  0
   17.6084  -12.8914  -15.9072 C   0  0  1  0  0  0  0  0  0  0  0  0
   17.6894  -14.2095  -15.2038 C   0  0  0  0  0  0  0  0  0  0  0  0
   16.4458  -14.5258  -14.4942 C   0  0  0  0  0  0  0  0  0  0  0  0
   15.5345  -13.6737  -14.4163 O   0  0  0  0  0  0  0  0  0  0  0  0
   18.9297  -12.4145  -16.3757 C   0  0  0  0  0  0  0  0  0  0  0  0
   20.0173  -12.8798  -15.9283 O   0  0  0  0  0  0  0  0  0  0  0  0
   16.2895  -15.7795  -13.9098 O   0  0  0  0  0  0  0  0  0  0  0  0
   22.1925  -11.6347  -20.9084 N   0  0  0  0  0  0  0  0  0  0  0  0
   21.5965  -10.7512  -19.9490 C   0  0  0  0  0  0  0  0  0  0  0  0
   22.0661   -9.6255  -19.7167 O   0  0  0  0  0  0  0  0  0  0  0  0
   20.4046  -11.2197  -19.2429 C   0  0  0  0  0  0  0  0  0  0  0  0
   20.3122  -10.8714  -17.7972 C   0  0  2  0  0  0  0  0  0  0  0  0
   19.0041  -11.4056  -17.3553 N   0  0  0  0  0  0  0  0  0  0  0  0
   20.2718   -9.3910  -17.5421 C   0  0  0  0  0  0  0  0  0  0  0  0
   19.2782   -8.6683  -17.7843 O   0  0  0  0  0  0  0  0  0  0  0  0
   22.1107   -6.1416  -12.6962 N   0  0  0  0  0  0  0  0  0  0  0  0
   21.8256   -5.1128  -13.6341 C   0  0  0  0  0  0  0  0  0  0  0  0
   21.8021   -3.9129  -13.2655 O   0  0  0  0  0  0  0  0  0  0  0  0
   21.5503   -5.4496  -15.0726 C   0  0  0  0  0  0  0  0  0  0  0  0
   21.6322   -6.9470  -15.2854 C   0  0  0  0  0  0  0  0  0  0  0  0
   21.3749   -7.2715  -16.7311 C   0  0  2  0  0  0  0  0  0  0  0  0
   21.3995   -8.6919  -16.9897 N   0  0  0  0  0  0  0  0  0  0  0  0
   22.3803   -6.5922  -17.5919 C   0  0  0  0  0  0  0  0  0  0  0  0
   23.4502   -7.1666  -17.9207 O   0  0  0  0  0  0  0  0  0  0  0  0
   22.1913   -5.3029  -18.0715 O   0  0  0  0  0  0  0  0  0  0  0  0
  2  3  1  0
  2  1  1  6
  3  4  1  0
  4  8  1  0
  5  4  2  0
  6  2  1  0
  7  6  2  0
  9 10  1  0
 10 12  1  0
 11 10  2  0
 13 12  1  6
 13 14  1  0
 14  6  1  0
 15 13  1  0
 15 16  2  0
 18 17  1  0
 19 18  2  0
 20 18  1  0
 22 21  1  1
 21 20  1  0
 22 23  1  0
 23 15  1  0
 24 22  1  0
 25 24  2  0
 26 24  1  0
M  END
$$$$
