DNQ.pdb
     RDKit          3D

 26 25  0  0  1  0  0  0  0  0999 V2000
   17.8005  -11.4687  -15.3516 N   0  0  0  0  0  0  0  0  0  0  0  0
   17.4431  -10.0971  -15.1782 C   0  0  1  0  0  0  0  0  0  0  0  0
   15.9927   -9.7815  -15.3670 C   0  0  0  0  0  0  0  0  0  0  0  0
   15.5210  -10.1646  -16.7015 C   0  0  0  0  0  0  0  0  0  0  0  0
   16.0962   -9.7240  -17.7201 O   0  0  0  0  0  0  0  0  0  0  0  0
   17.9678   -9.6074  -13.8830 C   0  0  0  0  0  0  0  0  0  0  0  0
   17.6959  -10.1704  -12.7836 O   0  0  0  0  0  0  0  0  0  0  0  0
   14.4302  -11.0208  -16.8237 O   0  0  0  0  0  0  0  0  0  0  0  0
   20.5341   -6.4955  -10.5128 N   0  0  0  0  0  0  0  0  0  0  0  0
   21.1322   -6.3988  -11.8125 C   0  0  0  0  0  0  0  0  0  0  0  0
   22.1695   -5.7450  -12.0079 O   0  0  0  0  0  0  0  0  0  0  0  0
   20.4772   -7.1010  -12.9155 C   0  0  0  0  0  0  0  0  0  0  0  0
   19.2913   -7.9302  -12.5607 C   0  0  2  0  0  0  0  0  0  0  0  0
   18.8025   -8.4737  -13.8481 N   0  0  0  0  0  0  0  0  0  0  0  0
   18.1575   -7.1319  -11.9816 C   0  0  0  0  0  0  0  0  0  0  0  0
   17.4164   -6.3815  -12.6569 O   0  0  0  0  0  0  0  0  0  0  0  0
   13.6848   -9.0646   -8.4218 N   0  0  0  0  0  0  0  0  0  0  0  0
   13.5331   -7.6625   -8.2475 C   0  0  0  0  0  0  0  0  0  0  0  0
   12.5641   -7.2105   -7.5896 O   0  0  0  0  0  0  0  0  0  0  0  0
   14.5283   -6.7093   -8.8470 C   0  0  0  0  0  0  0  0  0  0  0  0
   15.6894   -7.4734   -9.4489 C   0  0  0  0  0  0  0  0  0  0  0  0
   16.6897   -6.5100  -10.0256 C   0  0  2  0  0  0  0  0  0  0  0  0
   17.8428   -7.1795  -10.5801 N   0  0  0  0  0  0  0  0  0  0  0  0
   17.1294   -5.5466   -8.9806 C   0  0  0  0  0  0  0  0  0  0  0  0
   18.2342   -5.6813   -8.3943 O   0  0  0  0  0  0  0  0  0  0  0  0
   16.3508   -4.4607   -8.6030 O   0  0  0  0  0  0  0  0  0  0  0  0
  2  3  1  0
  2  1  1  1
  3  4  1  0
  4  8  1  0
  5  4  2  0
  6  2  1  0
  7  6  2  0
  9 10  1  0
 10 12  1  0
 11 10  2  0
 13 12  1  6
 13 14  1  0
 14  6  1  0
 15 13  1  0
 15 16  2  0
 18 17  1  0
 19 18  2  0
 20 18  1  0
 22 21  1  1
 21 20  1  0
 22 23  1  0
 23 15  1  0
 24 22  1  0
 25 24  2  0
 26 24  1  0
M  END
$$$$
