DNQ.pdb
     RDKit          3D

 26 25  0  0  1  0  0  0  0  0999 V2000
   19.0945  -20.1213  -13.7282 N   0  0  0  0  0  0  0  0  0  0  0  0
   19.8363  -20.6734  -12.6401 C   0  0  1  0  0  0  0  0  0  0  0  0
   19.4186  -22.0431  -12.2062 C   0  0  0  0  0  0  0  0  0  0  0  0
   17.9602  -22.1637  -12.1120 C   0  0  0  0  0  0  0  0  0  0  0  0
   17.2299  -21.1992  -12.4267 O   0  0  0  0  0  0  0  0  0  0  0  0
   21.2853  -20.5867  -12.9325 C   0  0  0  0  0  0  0  0  0  0  0  0
   22.1680  -20.9654  -12.1097 O   0  0  0  0  0  0  0  0  0  0  0  0
   17.3979  -23.3580  -11.6703 O   0  0  0  0  0  0  0  0  0  0  0  0
   25.7887  -20.6599  -15.2385 N   0  0  0  0  0  0  0  0  0  0  0  0
   24.9420  -21.7759  -14.9316 C   0  0  0  0  0  0  0  0  0  0  0  0
   25.3611  -22.9441  -14.9687 O   0  0  0  0  0  0  0  0  0  0  0  0
   23.5533  -21.4954  -14.5692 C   0  0  0  0  0  0  0  0  0  0  0  0
   23.1590  -20.0593  -14.5213 C   0  0  2  0  0  0  0  0  0  0  0  0
   21.7219  -20.0663  -14.1660 N   0  0  0  0  0  0  0  0  0  0  0  0
   23.2619  -19.3682  -15.8517 C   0  0  0  0  0  0  0  0  0  0  0  0
   22.4126  -19.4828  -16.7648 O   0  0  0  0  0  0  0  0  0  0  0  0
   27.9610  -16.4115  -16.0413 N   0  0  0  0  0  0  0  0  0  0  0  0
   26.9226  -15.4426  -16.0885 C   0  0  0  0  0  0  0  0  0  0  0  0
   27.0593  -14.3432  -15.4979 O   0  0  0  0  0  0  0  0  0  0  0  0
   25.6541  -15.7232  -16.8438 C   0  0  0  0  0  0  0  0  0  0  0  0
   25.7567  -17.0505  -17.5663 C   0  0  0  0  0  0  0  0  0  0  0  0
   24.4648  -17.8076  -17.4280 C   0  0  2  0  0  0  0  0  0  0  0  0
   24.3697  -18.5096  -16.1696 N   0  0  0  0  0  0  0  0  0  0  0  0
   24.3193  -18.7751  -18.5488 C   0  0  0  0  0  0  0  0  0  0  0  0
   24.9109  -19.8852  -18.5315 O   0  0  0  0  0  0  0  0  0  0  0  0
   23.5314  -18.5050  -19.6598 O   0  0  0  0  0  0  0  0  0  0  0  0
  2  3  1  0
  2  1  1  6
  3  4  1  0
  4  8  1  0
  5  4  2  0
  6  2  1  0
  7  6  2  0
  9 10  1  0
 10 12  1  0
 11 10  2  0
 13 12  1  6
 13 14  1  0
 14  6  1  0
 15 13  1  0
 15 16  2  0
 18 17  1  0
 19 18  2  0
 20 18  1  0
 22 21  1  6
 21 20  1  0
 22 23  1  0
 23 15  1  0
 24 22  1  0
 25 24  2  0
 26 24  1  0
M  END
$$$$
