FYG.pdb
     RDKit          3D

 28 29  0  0  1  0  0  0  0  0999 V2000
    6.7107  -17.5438   23.9417 N   0  0  0  0  0  0  0  0  0  0  0  0
    7.2331  -16.3656   24.5781 C   0  0  1  0  0  0  0  0  0  0  0  0
    6.2237  -15.7383   25.5224 C   0  0  0  0  0  0  0  0  0  0  0  0
    6.4741  -14.2770   25.5618 C   0  0  0  0  0  0  0  0  0  0  0  0
    7.3090  -13.6298   24.6850 C   0  0  0  0  0  0  0  0  0  0  0  0
    7.5120  -12.2576   24.7616 C   0  0  0  0  0  0  0  0  0  0  0  0
    6.8609  -11.5323   25.7388 C   0  0  0  0  0  0  0  0  0  0  0  0
    6.0121  -12.1684   26.6354 C   0  0  0  0  0  0  0  0  0  0  0  0
    5.8310  -13.5387   26.5322 C   0  0  0  0  0  0  0  0  0  0  0  0
    8.4732  -16.7035   25.3658 C   0  0  0  0  0  0  0  0  0  0  0  0
    8.4305  -16.7852   26.6085 O   0  0  0  0  0  0  0  0  0  0  0  0
    9.9036  -15.5725   31.0005 O   0  0  0  0  0  0  0  0  0  0  0  0
   10.3638  -15.6601   29.6939 C   0  0  0  0  0  0  0  0  0  0  0  0
   10.5092  -14.5524   28.8735 C   0  0  0  0  0  0  0  0  0  0  0  0
   10.9681  -14.6597   27.5775 C   0  0  0  0  0  0  0  0  0  0  0  0
   11.3029  -15.8737   27.0399 C   0  0  0  0  0  0  0  0  0  0  0  0
   11.7949  -16.1110   25.6965 C   0  0  0  0  0  0  0  0  0  0  0  0
   10.7798  -15.9769   24.6035 C   0  0  2  0  0  0  0  0  0  0  0  0
    9.7147  -16.9365   24.7228 N   0  0  0  0  0  0  0  0  0  0  0  0
   11.4441  -16.0142   23.2789 C   0  0  0  0  0  0  0  0  0  0  0  0
   12.3454  -15.1635   23.0614 O   0  0  0  0  0  0  0  0  0  0  0  0
   11.1538  -16.9807   27.8711 C   0  0  0  0  0  0  0  0  0  0  0  0
   10.6992  -16.8867   29.1592 C   0  0  0  0  0  0  0  0  0  0  0  0
   11.1345  -16.9330   22.2552 N   0  0  0  0  0  0  0  0  0  0  0  0
   11.7678  -16.8308   20.9785 C   0  0  0  0  0  0  0  0  0  0  0  0
   13.0973  -17.4508   20.9187 C   0  0  0  0  0  0  0  0  0  0  0  0
   13.7941  -17.5195   19.7334 O   0  0  0  0  0  0  0  0  0  0  0  0
   13.6095  -17.9243   21.9519 O   0  0  0  0  0  0  0  0  0  0  0  0
  2  1  1  1
  2  3  1  0
  2 10  1  0
  4  9  1  0
  4  3  1  0
  5  4  2  0
  6  7  2  0
  6  5  1  0
  7  8  1  0
  8  9  2  0
 10 11  2  0
 13 12  1  0
 13 14  2  0
 15 14  1  0
 16 15  2  0
 17 16  1  0
 18 17  1  1
 19 10  1  0
 19 18  1  0
 20 18  1  0
 20 21  2  0
 22 23  2  0
 22 16  1  0
 23 13  1  0
 24 20  1  0
 25 24  1  0
 25 26  1  0
 26 27  1  0
 28 26  2  0
M  END
$$$$
