FYG.pdb
     RDKit          3D

 28 29  0  0  1  0  0  0  0  0999 V2000
    5.5696  -17.8013   24.3772 N   0  0  0  0  0  0  0  0  0  0  0  0
    6.1589  -16.5020   24.5523 C   0  0  1  0  0  0  0  0  0  0  0  0
    6.2110  -16.0971   26.0143 C   0  0  0  0  0  0  0  0  0  0  0  0
    6.5394  -14.6524   26.0821 C   0  0  0  0  0  0  0  0  0  0  0  0
    7.7417  -14.1717   26.5384 C   0  0  0  0  0  0  0  0  0  0  0  0
    8.0032  -12.8080   26.5831 C   0  0  0  0  0  0  0  0  0  0  0  0
    7.0344  -11.9205   26.1602 C   0  0  0  0  0  0  0  0  0  0  0  0
    5.8116  -12.3868   25.6951 C   0  0  0  0  0  0  0  0  0  0  0  0
    5.5820  -13.7533   25.6632 C   0  0  0  0  0  0  0  0  0  0  0  0
    7.5638  -16.4875   24.0059 C   0  0  0  0  0  0  0  0  0  0  0  0
    8.2317  -17.5380   23.9501 O   0  0  0  0  0  0  0  0  0  0  0  0
    7.0391  -13.9594   16.9682 O   0  0  0  0  0  0  0  0  0  0  0  0
    7.6296  -13.9055   18.2232 C   0  0  0  0  0  0  0  0  0  0  0  0
    7.4965  -12.8155   19.0691 C   0  0  0  0  0  0  0  0  0  0  0  0
    8.0911  -12.7805   20.3128 C   0  0  0  0  0  0  0  0  0  0  0  0
    8.8445  -13.8281   20.7707 C   0  0  0  0  0  0  0  0  0  0  0  0
    9.5151  -13.9067   22.0541 C   0  0  0  0  0  0  0  0  0  0  0  0
    9.3775  -15.2116   22.7762 C   0  0  2  0  0  0  0  0  0  0  0  0
    8.1628  -15.2892   23.5431 N   0  0  0  0  0  0  0  0  0  0  0  0
   10.5894  -15.4799   23.5865 C   0  0  0  0  0  0  0  0  0  0  0  0
   11.7016  -15.4061   23.0028 O   0  0  0  0  0  0  0  0  0  0  0  0
    8.9727  -14.9186   19.9144 C   0  0  0  0  0  0  0  0  0  0  0  0
    8.3873  -14.9649   18.6776 C   0  0  0  0  0  0  0  0  0  0  0  0
   10.5773  -15.8097   24.9573 N   0  0  0  0  0  0  0  0  0  0  0  0
   11.7993  -16.0906   25.6424 C   0  0  0  0  0  0  0  0  0  0  0  0
   12.1952  -17.5039   25.6045 C   0  0  0  0  0  0  0  0  0  0  0  0
   13.2283  -17.9711   26.3852 O   0  0  0  0  0  0  0  0  0  0  0  0
   11.5921  -18.2986   24.8570 O   0  0  0  0  0  0  0  0  0  0  0  0
  2  1  1  1
  2  3  1  0
  2 10  1  0
  4  9  1  0
  4  3  1  0
  5  4  2  0
  6  7  2  0
  6  5  1  0
  7  8  1  0
  8  9  2  0
 10 11  2  0
 13 12  1  0
 13 14  2  0
 15 14  1  0
 16 15  2  0
 17 16  1  0
 18 17  1  1
 19 10  1  0
 19 18  1  0
 20 18  1  0
 20 21  2  0
 22 23  2  0
 22 16  1  0
 23 13  1  0
 24 20  1  0
 25 24  1  0
 25 26  1  0
 26 27  1  0
 28 26  2  0
M  END
$$$$
