FYG.pdb
     RDKit          3D

 28 29  0  0  1  0  0  0  0  0999 V2000
    9.0023  -13.7763   22.2168 N   0  0  0  0  0  0  0  0  0  0  0  0
    9.4608  -15.0847   21.8375 C   0  0  1  0  0  0  0  0  0  0  0  0
    9.7333  -15.1784   20.3472 C   0  0  0  0  0  0  0  0  0  0  0  0
    8.6045  -14.5375   19.6300 C   0  0  0  0  0  0  0  0  0  0  0  0
    8.5185  -14.4725   18.2613 C   0  0  0  0  0  0  0  0  0  0  0  0
    7.4401  -13.8610   17.6345 C   0  0  0  0  0  0  0  0  0  0  0  0
    6.4363  -13.3084   18.4040 C   0  0  0  0  0  0  0  0  0  0  0  0
    6.5047  -13.3638   19.7902 C   0  0  0  0  0  0  0  0  0  0  0  0
    7.5940  -13.9810   20.3847 C   0  0  0  0  0  0  0  0  0  0  0  0
   10.7306  -15.4274   22.5743 C   0  0  0  0  0  0  0  0  0  0  0  0
   11.7513  -14.7262   22.4356 O   0  0  0  0  0  0  0  0  0  0  0  0
   10.5487  -14.7949   31.1089 O   0  0  0  0  0  0  0  0  0  0  0  0
   10.4043  -15.0389   29.7502 C   0  0  0  0  0  0  0  0  0  0  0  0
   10.1718  -16.3048   29.2356 C   0  0  0  0  0  0  0  0  0  0  0  0
   10.0311  -16.5274   27.8820 C   0  0  0  0  0  0  0  0  0  0  0  0
   10.1154  -15.5009   26.9799 C   0  0  0  0  0  0  0  0  0  0  0  0
    9.9842  -15.6108   25.5398 C   0  0  0  0  0  0  0  0  0  0  0  0
   10.9953  -16.4846   24.8638 C   0  0  2  0  0  0  0  0  0  0  0  0
   10.8017  -16.5477   23.4396 N   0  0  0  0  0  0  0  0  0  0  0  0
   11.0258  -17.8224   25.5015 C   0  0  0  0  0  0  0  0  0  0  0  0
   11.3319  -17.8732   26.7209 O   0  0  0  0  0  0  0  0  0  0  0  0
   10.3490  -14.2329   27.5057 C   0  0  0  0  0  0  0  0  0  0  0  0
   10.4904  -13.9995   28.8474 C   0  0  0  0  0  0  0  0  0  0  0  0
   10.7365  -19.0315   24.8366 N   0  0  0  0  0  0  0  0  0  0  0  0
   11.7819  -19.7802   24.2136 C   0  0  0  0  0  0  0  0  0  0  0  0
   12.7590  -20.3410   25.1550 C   0  0  0  0  0  0  0  0  0  0  0  0
   12.7948  -19.9287   26.4680 O   0  0  0  0  0  0  0  0  0  0  0  0
   13.5714  -21.2036   24.7675 O   0  0  0  0  0  0  0  0  0  0  0  0
  2  1  1  6
  2  3  1  0
  2 10  1  0
  4  9  1  0
  4  3  1  0
  5  4  2  0
  6  7  2  0
  6  5  1  0
  7  8  1  0
  8  9  2  0
 10 11  2  0
 13 12  1  0
 13 14  2  0
 15 14  1  0
 16 15  2  0
 17 16  1  0
 18 17  1  1
 19 10  1  0
 19 18  1  0
 20 18  1  0
 20 21  2  0
 22 23  2  0
 22 16  1  0
 23 13  1  0
 24 20  1  0
 25 24  1  0
 25 26  1  0
 26 27  1  0
 28 26  2  0
M  END
$$$$
