FYG.pdb
     RDKit          3D

 28 29  0  0  1  0  0  0  0  0999 V2000
    7.7315  -15.8309   24.6676 N   0  0  0  0  0  0  0  0  0  0  0  0
    8.5650  -14.8279   24.0631 C   0  0  1  0  0  0  0  0  0  0  0  0
    8.8947  -13.7073   25.0324 C   0  0  0  0  0  0  0  0  0  0  0  0
    7.6266  -13.0414   25.4171 C   0  0  0  0  0  0  0  0  0  0  0  0
    6.7603  -13.5495   26.3532 C   0  0  0  0  0  0  0  0  0  0  0  0
    5.5831  -12.8886   26.6805 C   0  0  0  0  0  0  0  0  0  0  0  0
    5.2798  -11.6980   26.0516 C   0  0  0  0  0  0  0  0  0  0  0  0
    6.1431  -11.1673   25.1017 C   0  0  0  0  0  0  0  0  0  0  0  0
    7.3096  -11.8513   24.7977 C   0  0  0  0  0  0  0  0  0  0  0  0
    9.8582  -15.4399   23.5881 C   0  0  0  0  0  0  0  0  0  0  0  0
   10.5922  -14.8271   22.7891 O   0  0  0  0  0  0  0  0  0  0  0  0
   10.5135  -14.7318   29.9209 O   0  0  0  0  0  0  0  0  0  0  0  0
   10.8388  -15.5158   28.8227 C   0  0  0  0  0  0  0  0  0  0  0  0
   10.1523  -16.6755   28.4987 C   0  0  0  0  0  0  0  0  0  0  0  0
   10.4906  -17.4415   27.4030 C   0  0  0  0  0  0  0  0  0  0  0  0
   11.5268  -17.0880   26.5808 C   0  0  0  0  0  0  0  0  0  0  0  0
   11.9737  -17.8094   25.4048 C   0  0  0  0  0  0  0  0  0  0  0  0
   11.6391  -17.1735   24.0907 C   0  0  2  0  0  0  0  0  0  0  0  0
   10.2752  -16.7198   24.0320 N   0  0  0  0  0  0  0  0  0  0  0  0
   11.9928  -18.0836   22.9754 C   0  0  0  0  0  0  0  0  0  0  0  0
   11.4010  -19.1930   22.9264 O   0  0  0  0  0  0  0  0  0  0  0  0
   12.2107  -15.9218   26.9138 C   0  0  0  0  0  0  0  0  0  0  0  0
   11.8841  -15.1532   27.9988 C   0  0  0  0  0  0  0  0  0  0  0  0
   12.9410  -17.7898   21.9742 N   0  0  0  0  0  0  0  0  0  0  0  0
   13.2036  -18.7303   20.9311 C   0  0  0  0  0  0  0  0  0  0  0  0
   14.5079  -19.3954   21.0395 C   0  0  0  0  0  0  0  0  0  0  0  0
   15.3263  -19.5328   19.9410 O   0  0  0  0  0  0  0  0  0  0  0  0
   14.8871  -19.8449   22.1386 O   0  0  0  0  0  0  0  0  0  0  0  0
  2  1  1  1
  2  3  1  0
  2 10  1  0
  4  9  1  0
  4  3  1  0
  5  4  2  0
  6  7  2  0
  6  5  1  0
  7  8  1  0
  8  9  2  0
 10 11  2  0
 13 12  1  0
 13 14  2  0
 15 14  1  0
 16 15  2  0
 17 16  1  0
 18 17  1  1
 19 10  1  0
 19 18  1  0
 20 18  1  0
 20 21  2  0
 22 23  2  0
 22 16  1  0
 23 13  1  0
 24 20  1  0
 25 24  1  0
 25 26  1  0
 26 27  1  0
 28 26  2  0
M  END
$$$$
