FYG.pdb
     RDKit          3D

 28 29  0  0  1  0  0  0  0  0999 V2000
    9.4754  -15.4286   15.4794 N   0  0  0  0  0  0  0  0  0  0  0  0
    9.4618  -14.8126   16.7781 C   0  0  1  0  0  0  0  0  0  0  0  0
    8.1347  -15.0154   17.4863 C   0  0  0  0  0  0  0  0  0  0  0  0
    8.2393  -14.4233   18.8420 C   0  0  0  0  0  0  0  0  0  0  0  0
    8.2180  -13.0712   19.0794 C   0  0  0  0  0  0  0  0  0  0  0  0
    8.3193  -12.5635   20.3686 C   0  0  0  0  0  0  0  0  0  0  0  0
    8.4437  -13.4366   21.4303 C   0  0  0  0  0  0  0  0  0  0  0  0
    8.4673  -14.8079   21.2110 C   0  0  0  0  0  0  0  0  0  0  0  0
    8.3642  -15.2824   19.9128 C   0  0  0  0  0  0  0  0  0  0  0  0
   10.5536  -15.3907   17.6420 C   0  0  0  0  0  0  0  0  0  0  0  0
   10.7556  -16.6201   17.6679 O   0  0  0  0  0  0  0  0  0  0  0  0
   16.5713  -16.4693   14.5484 O   0  0  0  0  0  0  0  0  0  0  0  0
   15.8565  -15.9253   15.6066 C   0  0  0  0  0  0  0  0  0  0  0  0
   14.8913  -14.9454   15.4352 C   0  0  0  0  0  0  0  0  0  0  0  0
   14.1914  -14.4169   16.4994 C   0  0  0  0  0  0  0  0  0  0  0  0
   14.4203  -14.8397   17.7815 C   0  0  0  0  0  0  0  0  0  0  0  0
   13.7503  -14.3615   18.9754 C   0  0  0  0  0  0  0  0  0  0  0  0
   12.4438  -15.0220   19.2915 C   0  0  2  0  0  0  0  0  0  0  0  0
   11.3765  -14.5611   18.4442 N   0  0  0  0  0  0  0  0  0  0  0  0
   12.1351  -14.8842   20.7347 C   0  0  0  0  0  0  0  0  0  0  0  0
   11.5625  -13.8262   21.1036 O   0  0  0  0  0  0  0  0  0  0  0  0
   15.3915  -15.8241   17.9441 C   0  0  0  0  0  0  0  0  0  0  0  0
   16.0928  -16.3563   16.8955 C   0  0  0  0  0  0  0  0  0  0  0  0
   12.4385  -15.8531   21.7130 N   0  0  0  0  0  0  0  0  0  0  0  0
   12.0680  -15.6419   23.0767 C   0  0  0  0  0  0  0  0  0  0  0  0
   12.4724  -16.7253   23.9812 C   0  0  0  0  0  0  0  0  0  0  0  0
   13.6426  -16.6464   24.7020 O   0  0  0  0  0  0  0  0  0  0  0  0
   11.7511  -17.7346   24.1039 O   0  0  0  0  0  0  0  0  0  0  0  0
  2  1  1  6
  2  3  1  0
  2 10  1  0
  4  9  1  0
  4  3  1  0
  5  4  2  0
  6  7  2  0
  6  5  1  0
  7  8  1  0
  8  9  2  0
 10 11  2  0
 13 12  1  0
 13 14  2  0
 15 14  1  0
 16 15  2  0
 17 16  1  0
 18 17  1  6
 19 10  1  0
 19 18  1  0
 20 18  1  0
 20 21  2  0
 22 23  2  0
 22 16  1  0
 23 13  1  0
 24 20  1  0
 25 24  1  0
 25 26  1  0
 26 27  1  0
 28 26  2  0
M  END
$$$$
