FYG.pdb
     RDKit          3D

 28 29  0  0  1  0  0  0  0  0999 V2000
    5.5416  -17.7361   24.3540 N   0  0  0  0  0  0  0  0  0  0  0  0
    6.1858  -16.4928   24.6786 C   0  0  1  0  0  0  0  0  0  0  0  0
    6.3481  -16.3144   26.1772 C   0  0  0  0  0  0  0  0  0  0  0  0
    6.7786  -14.9183   26.4323 C   0  0  0  0  0  0  0  0  0  0  0  0
    8.0500  -14.5795   26.8242 C   0  0  0  0  0  0  0  0  0  0  0  0
    8.4063  -13.2561   27.0514 C   0  0  0  0  0  0  0  0  0  0  0  0
    7.4626  -12.2637   26.8792 C   0  0  0  0  0  0  0  0  0  0  0  0
    6.1709  -12.5858   26.4831 C   0  0  0  0  0  0  0  0  0  0  0  0
    5.8474  -13.9157   26.2646 C   0  0  0  0  0  0  0  0  0  0  0  0
    7.5513  -16.4303   24.0429 C   0  0  0  0  0  0  0  0  0  0  0  0
    8.2500  -17.4572   23.9427 O   0  0  0  0  0  0  0  0  0  0  0  0
    7.0657  -13.7492   17.0154 O   0  0  0  0  0  0  0  0  0  0  0  0
    7.6213  -13.7218   18.2871 C   0  0  0  0  0  0  0  0  0  0  0  0
    7.1286  -12.9193   19.3042 C   0  0  0  0  0  0  0  0  0  0  0  0
    7.6944  -12.9058   20.5617 C   0  0  0  0  0  0  0  0  0  0  0  0
    8.7754  -13.6901   20.8636 C   0  0  0  0  0  0  0  0  0  0  0  0
    9.4529  -13.7619   22.1438 C   0  0  0  0  0  0  0  0  0  0  0  0
    9.3370  -15.0700   22.8637 C   0  0  2  0  0  0  0  0  0  0  0  0
    8.0776  -15.2123   23.5443 N   0  0  0  0  0  0  0  0  0  0  0  0
   10.5019  -15.2681   23.7587 C   0  0  0  0  0  0  0  0  0  0  0  0
   10.6171  -14.4856   24.7374 O   0  0  0  0  0  0  0  0  0  0  0  0
    9.2635  -14.4929   19.8360 C   0  0  0  0  0  0  0  0  0  0  0  0
    8.7103  -14.5148   18.5837 C   0  0  0  0  0  0  0  0  0  0  0  0
   11.4811  -16.2678   23.5866 N   0  0  0  0  0  0  0  0  0  0  0  0
   12.5683  -16.3788   24.5071 C   0  0  0  0  0  0  0  0  0  0  0  0
   13.6053  -17.3333   24.0959 C   0  0  0  0  0  0  0  0  0  0  0  0
   14.7668  -17.4733   24.8216 O   0  0  0  0  0  0  0  0  0  0  0  0
   13.4392  -18.0307   23.0761 O   0  0  0  0  0  0  0  0  0  0  0  0
  2  1  1  1
  2  3  1  0
  2 10  1  0
  4  9  1  0
  4  3  1  0
  5  4  2  0
  6  7  2  0
  6  5  1  0
  7  8  1  0
  8  9  2  0
 10 11  2  0
 13 12  1  0
 13 14  2  0
 15 14  1  0
 16 15  2  0
 17 16  1  0
 18 17  1  1
 19 10  1  0
 19 18  1  0
 20 18  1  0
 20 21  2  0
 22 23  2  0
 22 16  1  0
 23 13  1  0
 24 20  1  0
 25 24  1  0
 25 26  1  0
 26 27  1  0
 28 26  2  0
M  END
$$$$
