FYG.pdb
     RDKit          3D

 28 29  0  0  1  0  0  0  0  0999 V2000
    5.6334  -17.8038   24.7175 N   0  0  0  0  0  0  0  0  0  0  0  0
    6.3697  -16.5753   24.8396 C   0  0  1  0  0  0  0  0  0  0  0  0
    6.8295  -16.3310   26.2654 C   0  0  0  0  0  0  0  0  0  0  0  0
    6.9910  -14.8690   26.4545 C   0  0  0  0  0  0  0  0  0  0  0  0
    5.9702  -13.9675   26.2809 C   0  0  0  0  0  0  0  0  0  0  0  0
    6.1702  -12.6058   26.4699 C   0  0  0  0  0  0  0  0  0  0  0  0
    7.4203  -12.1519   26.8395 C   0  0  0  0  0  0  0  0  0  0  0  0
    8.4661  -13.0479   27.0202 C   0  0  0  0  0  0  0  0  0  0  0  0
    8.2336  -14.4001   26.8237 C   0  0  0  0  0  0  0  0  0  0  0  0
    7.5847  -16.6035   23.9477 C   0  0  0  0  0  0  0  0  0  0  0  0
    8.0931  -17.6884   23.6054 O   0  0  0  0  0  0  0  0  0  0  0  0
    6.7764  -13.7959   16.7945 O   0  0  0  0  0  0  0  0  0  0  0  0
    7.3795  -13.8029   18.0447 C   0  0  0  0  0  0  0  0  0  0  0  0
    7.1939  -12.7905   18.9731 C   0  0  0  0  0  0  0  0  0  0  0  0
    7.8019  -12.8152   20.2106 C   0  0  0  0  0  0  0  0  0  0  0  0
    8.6216  -13.8480   20.5798 C   0  0  0  0  0  0  0  0  0  0  0  0
    9.3127  -13.9843   21.8474 C   0  0  0  0  0  0  0  0  0  0  0  0
    9.2255  -15.3347   22.4890 C   0  0  2  0  0  0  0  0  0  0  0  0
    8.1808  -15.4074   23.4754 N   0  0  0  0  0  0  0  0  0  0  0  0
   10.5495  -15.7368   23.0204 C   0  0  0  0  0  0  0  0  0  0  0  0
   11.5281  -15.6839   22.2312 O   0  0  0  0  0  0  0  0  0  0  0  0
    8.8022  -14.8604   19.6410 C   0  0  0  0  0  0  0  0  0  0  0  0
    8.2040  -14.8469   18.4095 C   0  0  0  0  0  0  0  0  0  0  0  0
   10.7821  -16.1710   24.3415 N   0  0  0  0  0  0  0  0  0  0  0  0
   12.0890  -16.5839   24.7456 C   0  0  0  0  0  0  0  0  0  0  0  0
   12.1849  -16.9672   26.1596 C   0  0  0  0  0  0  0  0  0  0  0  0
   13.4076  -17.1896   26.7517 O   0  0  0  0  0  0  0  0  0  0  0  0
   11.1486  -17.0950   26.8407 O   0  0  0  0  0  0  0  0  0  0  0  0
  2  1  1  1
  2  3  1  0
  2 10  1  0
  4  9  1  0
  4  3  1  0
  5  4  2  0
  6  7  2  0
  6  5  1  0
  7  8  1  0
  8  9  2  0
 10 11  2  0
 13 12  1  0
 13 14  2  0
 15 14  1  0
 16 15  2  0
 17 16  1  0
 18 17  1  1
 19 10  1  0
 19 18  1  0
 20 18  1  0
 20 21  2  0
 22 23  2  0
 22 16  1  0
 23 13  1  0
 24 20  1  0
 25 24  1  0
 25 26  1  0
 26 27  1  0
 28 26  2  0
M  END
$$$$
