LWR.pdb
     RDKit          3D

 34 35  0  0  1  0  0  0  0  0999 V2000
    7.3355  -16.1289   15.9385 C   0  0  0  0  0  0  0  0  0  0  0  0
    7.5106  -14.9112   16.7934 C   0  0  2  0  0  0  0  0  0  0  0  0
    7.4732  -13.6931   15.8917 C   0  0  0  0  0  0  0  0  0  0  0  0
    8.6334  -14.9237   17.7418 C   0  0  0  0  0  0  0  0  0  0  0  0
    8.5871  -15.8287   18.9069 C   0  0  2  0  0  0  0  0  0  0  0  0
    7.2751  -16.3984   19.1531 N   0  0  0  0  0  0  0  0  0  0  0  0
    9.2846  -15.3814   20.1281 C   0  0  0  0  0  0  0  0  0  0  0  0
   10.4605  -14.9880   20.0490 O   0  0  0  0  0  0  0  0  0  0  0  0
    8.6903  -15.3723   21.4122 N   0  0  0  0  0  0  0  0  0  0  0  0
    9.3087  -14.8817   22.6027 C   0  0  1  0  0  0  0  0  0  0  0  0
    8.7100  -13.6793   23.2083 C   0  0  0  0  0  0  0  0  0  0  0  0
    7.8694  -13.9115   24.4032 C   0  0  0  0  0  0  0  0  0  0  0  0
    7.2308  -15.0875   24.6996 C   0  0  0  0  0  0  0  0  0  0  0  0
    6.5634  -14.9228   25.8721 N   0  0  0  0  0  0  0  0  0  0  0  0
    6.7614  -13.6612   26.3356 C   0  0  0  0  0  0  0  0  0  0  0  0
    6.3009  -13.0146   27.4746 C   0  0  0  0  0  0  0  0  0  0  0  0
    6.6527  -11.7072   27.7198 C   0  0  0  0  0  0  0  0  0  0  0  0
    7.4784  -11.0549   26.7993 C   0  0  0  0  0  0  0  0  0  0  0  0
    7.9307  -11.7041   25.6718 C   0  0  0  0  0  0  0  0  0  0  0  0
    7.5777  -13.0359   25.4132 C   0  0  0  0  0  0  0  0  0  0  0  0
    9.1948  -15.9876   23.6338 C   0  0  0  0  0  0  0  0  0  0  0  0
    8.1352  -16.6582   23.7130 O   0  0  0  0  0  0  0  0  0  0  0  0
   16.2786  -16.5592   25.2493 N   0  0  0  0  0  0  0  0  0  0  0  0
   15.8932  -16.3403   23.8995 C   0  0  0  0  0  0  0  0  0  0  0  0
   16.4300  -15.3821   23.2030 N   0  0  0  0  0  0  0  0  0  0  0  0
   14.9231  -17.1299   23.2368 N   0  0  0  0  0  0  0  0  0  0  0  0
   14.1702  -18.1416   23.9528 C   0  0  0  0  0  0  0  0  0  0  0  0
   12.9995  -17.5380   24.6846 C   0  0  0  0  0  0  0  0  0  0  0  0
   11.7081  -18.2824   24.4252 C   0  0  0  0  0  0  0  0  0  0  0  0
   10.5766  -17.5671   25.0706 C   0  0  2  0  0  0  0  0  0  0  0  0
   10.2537  -16.2835   24.5088 N   0  0  0  0  0  0  0  0  0  0  0  0
   10.7561  -17.5508   26.5584 C   0  0  0  0  0  0  0  0  0  0  0  0
   10.7041  -16.3564   27.2580 O   0  0  0  0  0  0  0  0  0  0  0  0
   10.9510  -18.6060   27.1653 O   0  0  0  0  0  0  0  0  0  0  0  0
  2  1  1  6
  2  3  1  0
  4  2  1  0
  5  4  1  0
  5  6  1  1
  7  5  1  0
  8  7  2  0
  9  7  1  0
 10 21  1  0
 10  9  1  0
 11 12  1  0
 10 11  1  1
 12 13  2  0
 13 14  1  0
 15 14  1  0
 16 15  2  0
 17 16  1  0
 18 19  1  0
 18 17  2  0
 19 20  2  0
 20 15  1  0
 20 12  1  0
 21 31  1  0
 22 21  2  0
 23 24  1  0
 24 26  1  0
 24 25  2  0
 26 27  1  0
 28 29  1  0
 28 27  1  0
 30 32  1  0
 30 29  1  6
 31 30  1  0
 32 34  2  0
 32 33  1  0
M  END
$$$$
