LWR.pdb
     RDKit          3D

 34 35  0  0  1  0  0  0  0  0999 V2000
    8.1779  -14.1700   17.9504 C   0  0  0  0  0  0  0  0  0  0  0  0
    7.4913  -13.5691   19.1385 C   0  0  2  0  0  0  0  0  0  0  0  0
    6.9971  -12.1897   18.7495 C   0  0  0  0  0  0  0  0  0  0  0  0
    8.2191  -13.6098   20.4148 C   0  0  0  0  0  0  0  0  0  0  0  0
    8.7162  -14.9030   20.9240 C   0  0  2  0  0  0  0  0  0  0  0  0
    7.7593  -15.9872   20.7998 N   0  0  0  0  0  0  0  0  0  0  0  0
    9.4333  -14.8818   22.2137 C   0  0  0  0  0  0  0  0  0  0  0  0
   10.2130  -13.9469   22.4623 O   0  0  0  0  0  0  0  0  0  0  0  0
    9.2899  -15.8788   23.2074 N   0  0  0  0  0  0  0  0  0  0  0  0
    9.9630  -15.8890   24.4673 C   0  0  1  0  0  0  0  0  0  0  0  0
    9.1388  -16.1871   25.6518 C   0  0  0  0  0  0  0  0  0  0  0  0
    7.8819  -15.4163   25.7713 C   0  0  0  0  0  0  0  0  0  0  0  0
    6.6347  -15.8916   25.4597 C   0  0  0  0  0  0  0  0  0  0  0  0
    5.7328  -14.9041   25.7017 N   0  0  0  0  0  0  0  0  0  0  0  0
    6.3778  -13.8013   26.1638 C   0  0  0  0  0  0  0  0  0  0  0  0
    5.9089  -12.5523   26.5481 C   0  0  0  0  0  0  0  0  0  0  0  0
    6.7859  -11.5879   26.9885 C   0  0  0  0  0  0  0  0  0  0  0  0
    8.1484  -11.8979   27.0379 C   0  0  0  0  0  0  0  0  0  0  0  0
    8.6047  -13.1397   26.6548 C   0  0  0  0  0  0  0  0  0  0  0  0
    7.7192  -14.1288   26.2046 C   0  0  0  0  0  0  0  0  0  0  0  0
   11.0128  -16.9799   24.3854 C   0  0  0  0  0  0  0  0  0  0  0  0
   10.6694  -18.1542   24.0989 O   0  0  0  0  0  0  0  0  0  0  0  0
   15.7396  -13.5512   18.1691 N   0  0  0  0  0  0  0  0  0  0  0  0
   15.9065  -14.9090   18.5521 C   0  0  0  0  0  0  0  0  0  0  0  0
   17.0596  -15.4971   18.4268 N   0  0  0  0  0  0  0  0  0  0  0  0
   14.8557  -15.6953   19.0827 N   0  0  0  0  0  0  0  0  0  0  0  0
   14.0401  -15.2076   20.1781 C   0  0  0  0  0  0  0  0  0  0  0  0
   14.2584  -16.0203   21.4280 C   0  0  0  0  0  0  0  0  0  0  0  0
   13.1209  -15.8804   22.4158 C   0  0  0  0  0  0  0  0  0  0  0  0
   13.4249  -16.6563   23.6463 C   0  0  2  0  0  0  0  0  0  0  0  0
   12.3707  -16.7074   24.6229 N   0  0  0  0  0  0  0  0  0  0  0  0
   14.7513  -16.2400   24.2060 C   0  0  0  0  0  0  0  0  0  0  0  0
   15.9244  -16.7816   23.7068 O   0  0  0  0  0  0  0  0  0  0  0  0
   14.8008  -15.4102   25.1163 O   0  0  0  0  0  0  0  0  0  0  0  0
  2  1  1  6
  2  3  1  0
  4  2  1  0
  5  4  1  0
  5  6  1  1
  7  5  1  0
  8  7  2  0
  9  7  1  0
 10 21  1  0
 10  9  1  0
 11 12  1  0
 10 11  1  1
 12 13  2  0
 13 14  1  0
 15 14  1  0
 16 15  2  0
 17 16  1  0
 18 19  1  0
 18 17  2  0
 19 20  2  0
 20 15  1  0
 20 12  1  0
 21 31  1  0
 22 21  2  0
 23 24  1  0
 24 26  1  0
 24 25  2  0
 26 27  1  0
 28 29  1  0
 28 27  1  0
 30 32  1  0
 30 29  1  6
 31 30  1  0
 32 34  2  0
 32 33  1  0
M  END
$$$$
