LWR.pdb
     RDKit          3D

 34 35  0  0  1  0  0  0  0  0999 V2000
    8.0699  -12.7604   19.8601 C   0  0  0  0  0  0  0  0  0  0  0  0
    8.0757  -13.3409   18.4791 C   0  0  2  0  0  0  0  0  0  0  0  0
    7.2789  -12.4191   17.5771 C   0  0  0  0  0  0  0  0  0  0  0  0
    7.7171  -14.7610   18.3560 C   0  0  0  0  0  0  0  0  0  0  0  0
    8.4050  -15.7573   19.2003 C   0  0  2  0  0  0  0  0  0  0  0  0
    7.8666  -17.0995   19.0774 N   0  0  0  0  0  0  0  0  0  0  0  0
    8.7108  -15.3595   20.5881 C   0  0  0  0  0  0  0  0  0  0  0  0
    9.5479  -14.4649   20.7953 O   0  0  0  0  0  0  0  0  0  0  0  0
    8.1017  -15.9434   21.7240 N   0  0  0  0  0  0  0  0  0  0  0  0
    8.3219  -15.5391   23.0762 C   0  0  1  0  0  0  0  0  0  0  0  0
    7.1288  -15.4320   23.9340 C   0  0  0  0  0  0  0  0  0  0  0  0
    7.3746  -14.9975   25.3265 C   0  0  0  0  0  0  0  0  0  0  0  0
    7.5307  -15.8386   26.3973 C   0  0  0  0  0  0  0  0  0  0  0  0
    7.7431  -15.0793   27.5044 N   0  0  0  0  0  0  0  0  0  0  0  0
    7.7265  -13.7640   27.1647 C   0  0  0  0  0  0  0  0  0  0  0  0
    7.8920  -12.6135   27.9241 C   0  0  0  0  0  0  0  0  0  0  0  0
    7.8294  -11.3747   27.3285 C   0  0  0  0  0  0  0  0  0  0  0  0
    7.5970  -11.3077   25.9515 C   0  0  0  0  0  0  0  0  0  0  0  0
    7.4340  -12.4543   25.2059 C   0  0  0  0  0  0  0  0  0  0  0  0
    7.4959  -13.7208   25.8034 C   0  0  0  0  0  0  0  0  0  0  0  0
    9.2109  -16.5961   23.7019 C   0  0  0  0  0  0  0  0  0  0  0  0
    8.7610  -17.7532   23.8952 O   0  0  0  0  0  0  0  0  0  0  0  0
   13.3861  -15.5314   20.0606 N   0  0  0  0  0  0  0  0  0  0  0  0
   13.9256  -14.3125   20.5523 C   0  0  0  0  0  0  0  0  0  0  0  0
   14.0468  -13.2783   19.7732 N   0  0  0  0  0  0  0  0  0  0  0  0
   14.3577  -14.1445   21.8898 N   0  0  0  0  0  0  0  0  0  0  0  0
   14.3798  -15.2635   22.8118 C   0  0  0  0  0  0  0  0  0  0  0  0
   12.9903  -15.7825   23.0771 C   0  0  0  0  0  0  0  0  0  0  0  0
   12.9569  -16.8042   24.1925 C   0  0  0  0  0  0  0  0  0  0  0  0
   11.5601  -17.2606   24.4150 C   0  0  2  0  0  0  0  0  0  0  0  0
   10.5360  -16.3110   24.0729 N   0  0  0  0  0  0  0  0  0  0  0  0
   11.4174  -17.8381   25.7906 C   0  0  0  0  0  0  0  0  0  0  0  0
   12.2465  -18.8657   26.2093 O   0  0  0  0  0  0  0  0  0  0  0  0
   10.5576  -17.3970   26.5559 O   0  0  0  0  0  0  0  0  0  0  0  0
  2  1  1  1
  2  3  1  0
  4  2  1  0
  5  4  1  0
  5  6  1  1
  7  5  1  0
  8  7  2  0
  9  7  1  0
 10 21  1  0
 10  9  1  0
 11 12  1  0
 10 11  1  1
 12 13  2  0
 13 14  1  0
 15 14  1  0
 16 15  2  0
 17 16  1  0
 18 19  1  0
 18 17  2  0
 19 20  2  0
 20 15  1  0
 20 12  1  0
 21 31  1  0
 22 21  2  0
 23 24  1  0
 24 26  1  0
 24 25  2  0
 26 27  1  0
 28 29  1  0
 28 27  1  0
 30 32  1  0
 30 29  1  1
 31 30  1  0
 32 34  2  0
 32 33  1  0
M  END
$$$$
