LWR.pdb
     RDKit          3D

 34 35  0  0  1  0  0  0  0  0999 V2000
    7.3977  -14.8912   16.0698 C   0  0  0  0  0  0  0  0  0  0  0  0
    7.2651  -13.8874   17.1738 C   0  0  2  0  0  0  0  0  0  0  0  0
    7.1409  -12.5122   16.5480 C   0  0  0  0  0  0  0  0  0  0  0  0
    8.2493  -13.9664   18.2626 C   0  0  0  0  0  0  0  0  0  0  0  0
    8.2946  -15.1728   19.1116 C   0  0  2  0  0  0  0  0  0  0  0  0
    7.1790  -16.0774   18.9023 N   0  0  0  0  0  0  0  0  0  0  0  0
    8.6494  -14.9779   20.5308 C   0  0  0  0  0  0  0  0  0  0  0  0
    9.5733  -14.2018   20.8270 O   0  0  0  0  0  0  0  0  0  0  0  0
    7.9936  -15.6321   21.6004 N   0  0  0  0  0  0  0  0  0  0  0  0
    8.2630  -15.4174   22.9867 C   0  0  1  0  0  0  0  0  0  0  0  0
    7.0927  -15.2950   23.8736 C   0  0  0  0  0  0  0  0  0  0  0  0
    7.3674  -14.7830   25.2339 C   0  0  0  0  0  0  0  0  0  0  0  0
    7.5282  -15.5618   26.3503 C   0  0  0  0  0  0  0  0  0  0  0  0
    7.7697  -14.7420   27.4071 N   0  0  0  0  0  0  0  0  0  0  0  0
    7.7671  -13.4489   26.9904 C   0  0  0  0  0  0  0  0  0  0  0  0
    7.9620  -12.2584   27.6776 C   0  0  0  0  0  0  0  0  0  0  0  0
    7.9083  -11.0561   27.0108 C   0  0  0  0  0  0  0  0  0  0  0  0
    7.6547  -11.0667   25.6359 C   0  0  0  0  0  0  0  0  0  0  0  0
    7.4627  -12.2526   24.9621 C   0  0  0  0  0  0  0  0  0  0  0  0
    7.5154  -13.4825   25.6326 C   0  0  0  0  0  0  0  0  0  0  0  0
    9.0438  -16.6257   23.4655 C   0  0  0  0  0  0  0  0  0  0  0  0
    8.5720  -17.7782   23.2981 O   0  0  0  0  0  0  0  0  0  0  0  0
   15.8816  -13.4312   22.6248 N   0  0  0  0  0  0  0  0  0  0  0  0
   14.9261  -13.6402   21.5945 C   0  0  0  0  0  0  0  0  0  0  0  0
   14.7414  -12.7452   20.6691 N   0  0  0  0  0  0  0  0  0  0  0  0
   14.1295  -14.8070   21.5067 N   0  0  0  0  0  0  0  0  0  0  0  0
   14.1147  -15.7816   22.5803 C   0  0  0  0  0  0  0  0  0  0  0  0
   12.7125  -16.2433   22.8820 C   0  0  0  0  0  0  0  0  0  0  0  0
   12.6581  -17.2065   24.0475 C   0  0  0  0  0  0  0  0  0  0  0  0
   11.2433  -17.5307   24.3667 C   0  0  2  0  0  0  0  0  0  0  0  0
   10.2921  -16.4870   24.0957 N   0  0  0  0  0  0  0  0  0  0  0  0
   11.1422  -18.1002   25.7492 C   0  0  0  0  0  0  0  0  0  0  0  0
   11.4419  -17.3191   26.8531 O   0  0  0  0  0  0  0  0  0  0  0  0
   10.7900  -19.2710   25.9072 O   0  0  0  0  0  0  0  0  0  0  0  0
  2  1  1  6
  2  3  1  0
  4  2  1  0
  5  4  1  0
  5  6  1  1
  7  5  1  0
  8  7  2  0
  9  7  1  0
 10 21  1  0
 10  9  1  0
 11 12  1  0
 10 11  1  1
 12 13  2  0
 13 14  1  0
 15 14  1  0
 16 15  2  0
 17 16  1  0
 18 19  1  0
 18 17  2  0
 19 20  2  0
 20 15  1  0
 20 12  1  0
 21 31  1  0
 22 21  2  0
 23 24  1  0
 24 26  1  0
 24 25  2  0
 26 27  1  0
 28 29  1  0
 28 27  1  0
 30 32  1  0
 30 29  1  1
 31 30  1  0
 32 34  2  0
 32 33  1  0
M  END
$$$$
