LHC.pdb
     RDKit          3D

 25 25  0  0  1  0  0  0  0  0999 V2000
    9.5900  -12.8644   18.9838 C   0  0  0  0  0  0  0  0  0  0  0  0
    8.1759  -13.3349   19.2027 C   0  0  2  0  0  0  0  0  0  0  0  0
    7.3293  -12.1377   19.6408 C   0  0  0  0  0  0  0  0  0  0  0  0
    8.0717  -14.3640   20.2932 C   0  0  0  0  0  0  0  0  0  0  0  0
    8.8839  -15.5968   20.0144 C   0  0  2  0  0  0  0  0  0  0  0  0
    8.1840  -16.4597   19.1145 N   0  0  0  0  0  0  0  0  0  0  0  0
    9.2247  -16.2438   21.2975 C   0  0  0  0  0  0  0  0  0  0  0  0
    8.3001  -16.8912   21.8725 O   0  0  0  0  0  0  0  0  0  0  0  0
   10.4857  -16.1920   21.9166 N   0  0  0  0  0  0  0  0  0  0  0  0
   10.7330  -16.8510   23.1635 C   0  0  1  0  0  0  0  0  0  0  0  0
   12.0418  -17.5894   23.2072 C   0  0  0  0  0  0  0  0  0  0  0  0
   11.9953  -18.8936   22.5121 C   0  0  0  0  0  0  0  0  0  0  0  0
   10.9922  -19.8408   22.5140 C   0  0  0  0  0  0  0  0  0  0  0  0
   11.3678  -20.8971   21.7350 N   0  0  0  0  0  0  0  0  0  0  0  0
   12.5730  -20.6235   21.2560 C   0  0  0  0  0  0  0  0  0  0  0  0
   12.9599  -19.4046   21.7261 N   0  0  0  0  0  0  0  0  0  0  0  0
   10.7948  -15.7974   24.2264 C   0  0  0  0  0  0  0  0  0  0  0  0
   11.1002  -14.6065   23.9695 O   0  0  0  0  0  0  0  0  0  0  0  0
   10.5030  -16.1210   25.5882 N   0  0  0  0  0  0  0  0  0  0  0  0
   10.3215  -15.1349   26.6192 C   0  0  1  0  0  0  0  0  0  0  0  0
    9.0973  -14.3037   26.2116 C   0  0  0  0  0  0  0  0  0  0  0  0
    8.8509  -13.0604   27.4880 S   0  0  0  0  0  0  0  0  0  0  0  0
   10.1110  -15.7421   27.9472 C   0  0  0  0  0  0  0  0  0  0  0  0
   10.1546  -15.0081   28.9604 O   0  0  0  0  0  0  0  0  0  0  0  0
    9.8640  -17.0918   28.1554 O   0  0  0  0  0  0  0  0  0  0  0  0
  2  1  1  1
  3  2  1  0
  4  2  1  0
  4  5  1  0
  5  6  1  6
  7  5  1  0
  7  8  2  0
  9  7  1  0
 10  9  1  0
 10 11  1  6
 12 16  1  0
 12 11  1  0
 13 12  2  0
 14 13  1  0
 14 15  1  0
 15 16  2  0
 17 10  1  0
 18 17  2  0
 19 17  1  0
 20 21  1  6
 20 19  1  0
 21 22  1  0
 23 20  1  0
 24 23  2  0
 25 23  1  0
M  END
$$$$
