LHC.pdb
     RDKit          3D

 25 25  0  0  1  0  0  0  0  0999 V2000
    9.6685  -13.0830   18.9453 C   0  0  0  0  0  0  0  0  0  0  0  0
    8.2958  -13.4419   19.4514 C   0  0  2  0  0  0  0  0  0  0  0  0
    7.5848  -12.1554   19.8772 C   0  0  0  0  0  0  0  0  0  0  0  0
    8.3408  -14.3346   20.6599 C   0  0  0  0  0  0  0  0  0  0  0  0
    9.1366  -15.5885   20.4321 C   0  0  2  0  0  0  0  0  0  0  0  0
    8.4769  -16.4299   19.4829 N   0  0  0  0  0  0  0  0  0  0  0  0
    9.3710  -16.2474   21.7328 C   0  0  0  0  0  0  0  0  0  0  0  0
    8.3584  -16.7405   22.3126 O   0  0  0  0  0  0  0  0  0  0  0  0
   10.6219  -16.3641   22.3636 N   0  0  0  0  0  0  0  0  0  0  0  0
   10.7659  -17.0410   23.6171 C   0  0  1  0  0  0  0  0  0  0  0  0
   12.0255  -17.8549   23.7228 C   0  0  0  0  0  0  0  0  0  0  0  0
   11.9228  -19.1713   23.0574 C   0  0  0  0  0  0  0  0  0  0  0  0
   10.8233  -19.7607   22.4683 C   0  0  0  0  0  0  0  0  0  0  0  0
   11.1772  -20.9832   21.9745 N   0  0  0  0  0  0  0  0  0  0  0  0
   12.4628  -21.1592   22.2446 C   0  0  0  0  0  0  0  0  0  0  0  0
   12.9220  -20.0588   22.9040 N   0  0  0  0  0  0  0  0  0  0  0  0
   10.8341  -15.9967   24.6887 C   0  0  0  0  0  0  0  0  0  0  0  0
   10.9837  -14.7779   24.4252 O   0  0  0  0  0  0  0  0  0  0  0  0
   10.7292  -16.3622   26.0671 N   0  0  0  0  0  0  0  0  0  0  0  0
   10.6995  -15.4085   27.1432 C   0  0  1  0  0  0  0  0  0  0  0  0
    9.4958  -14.4940   26.8773 C   0  0  0  0  0  0  0  0  0  0  0  0
    9.4226  -13.3070   28.2270 S   0  0  0  0  0  0  0  0  0  0  0  0
   10.5722  -16.0543   28.4636 C   0  0  0  0  0  0  0  0  0  0  0  0
    9.8990  -17.1054   28.5592 O   0  0  0  0  0  0  0  0  0  0  0  0
   11.1559  -15.5703   29.6260 O   0  0  0  0  0  0  0  0  0  0  0  0
  2  1  1  1
  3  2  1  0
  4  2  1  0
  4  5  1  0
  5  6  1  6
  7  5  1  0
  7  8  2  0
  9  7  1  0
 10  9  1  0
 10 11  1  6
 12 16  1  0
 12 11  1  0
 13 12  2  0
 14 13  1  0
 14 15  1  0
 15 16  2  0
 17 10  1  0
 18 17  2  0
 19 17  1  0
 20 21  1  6
 20 19  1  0
 21 22  1  0
 23 20  1  0
 24 23  2  0
 25 23  1  0
M  END
$$$$
