LHC.pdb
     RDKit          3D

 25 25  0  0  1  0  0  0  0  0999 V2000
    9.1962  -12.5089   19.0791 C   0  0  0  0  0  0  0  0  0  0  0  0
    8.0851  -13.5164   19.2187 C   0  0  2  0  0  0  0  0  0  0  0  0
    6.7485  -12.7726   19.1745 C   0  0  0  0  0  0  0  0  0  0  0  0
    8.1318  -14.2501   20.5297 C   0  0  0  0  0  0  0  0  0  0  0  0
    9.5102  -14.7333   20.8813 C   0  0  2  0  0  0  0  0  0  0  0  0
    9.9772  -15.6607   19.8985 N   0  0  0  0  0  0  0  0  0  0  0  0
    9.4850  -15.2938   22.2475 C   0  0  0  0  0  0  0  0  0  0  0  0
    8.6186  -14.8211   23.0415 O   0  0  0  0  0  0  0  0  0  0  0  0
   10.3434  -16.3010   22.7217 N   0  0  0  0  0  0  0  0  0  0  0  0
   10.1892  -16.8581   24.0317 C   0  0  1  0  0  0  0  0  0  0  0  0
   10.9786  -18.1190   24.2486 C   0  0  0  0  0  0  0  0  0  0  0  0
   10.4501  -19.2720   23.4886 C   0  0  0  0  0  0  0  0  0  0  0  0
    9.3043  -19.3541   22.7247 C   0  0  0  0  0  0  0  0  0  0  0  0
    9.2012  -20.6099   22.1996 N   0  0  0  0  0  0  0  0  0  0  0  0
   10.2518  -21.2996   22.6205 C   0  0  0  0  0  0  0  0  0  0  0  0
   11.0158  -20.4896   23.4059 N   0  0  0  0  0  0  0  0  0  0  0  0
   10.7036  -15.8509   25.0138 C   0  0  0  0  0  0  0  0  0  0  0  0
   11.5201  -14.9547   24.6859 O   0  0  0  0  0  0  0  0  0  0  0  0
   10.2734  -15.8800   26.3770 N   0  0  0  0  0  0  0  0  0  0  0  0
   10.7078  -14.9335   27.3689 C   0  0  1  0  0  0  0  0  0  0  0  0
    9.8700  -13.6657   27.1528 C   0  0  0  0  0  0  0  0  0  0  0  0
    8.1401  -14.1509   27.2428 S   0  0  0  0  0  0  0  0  0  0  0  0
   10.5302  -15.4384   28.7438 C   0  0  0  0  0  0  0  0  0  0  0  0
   10.0367  -16.5768   28.9099 O   0  0  0  0  0  0  0  0  0  0  0  0
   10.8776  -14.7281   29.8844 O   0  0  0  0  0  0  0  0  0  0  0  0
  2  1  1  1
  3  2  1  0
  4  2  1  0
  4  5  1  0
  5  6  1  6
  7  5  1  0
  7  8  2  0
  9  7  1  0
 10  9  1  0
 10 11  1  6
 12 16  1  0
 12 11  1  0
 13 12  2  0
 14 13  1  0
 14 15  1  0
 15 16  2  0
 17 10  1  0
 18 17  2  0
 19 17  1  0
 20 21  1  1
 20 19  1  0
 21 22  1  0
 23 20  1  0
 24 23  2  0
 25 23  1  0
M  END
$$$$
