LHC.pdb
     RDKit          3D

 25 25  0  0  1  0  0  0  0  0999 V2000
    9.5112  -12.7492   19.2373 C   0  0  0  0  0  0  0  0  0  0  0  0
    8.0888  -13.2448   19.2385 C   0  0  2  0  0  0  0  0  0  0  0  0
    7.1555  -12.0387   19.3648 C   0  0  0  0  0  0  0  0  0  0  0  0
    7.7926  -14.1481   20.4028 C   0  0  0  0  0  0  0  0  0  0  0  0
    8.6898  -15.3522   20.4526 C   0  0  2  0  0  0  0  0  0  0  0  0
    8.3212  -16.2887   19.4371 N   0  0  0  0  0  0  0  0  0  0  0  0
    8.6486  -15.9216   21.8147 C   0  0  0  0  0  0  0  0  0  0  0  0
    7.5252  -16.3404   22.2235 O   0  0  0  0  0  0  0  0  0  0  0  0
    9.7536  -16.0298   22.6770 N   0  0  0  0  0  0  0  0  0  0  0  0
    9.6115  -16.5196   24.0150 C   0  0  1  0  0  0  0  0  0  0  0  0
   10.6309  -17.5595   24.3888 C   0  0  0  0  0  0  0  0  0  0  0  0
   10.4253  -18.8488   23.6949 C   0  0  0  0  0  0  0  0  0  0  0  0
    9.2481  -19.4176   23.2548 C   0  0  0  0  0  0  0  0  0  0  0  0
    9.5200  -20.6186   22.6656 N   0  0  0  0  0  0  0  0  0  0  0  0
   10.8310  -20.8016   22.7323 C   0  0  0  0  0  0  0  0  0  0  0  0
   11.3874  -19.7267   23.3582 N   0  0  0  0  0  0  0  0  0  0  0  0
    9.8138  -15.3617   24.9433 C   0  0  0  0  0  0  0  0  0  0  0  0
   10.9130  -14.7608   25.0321 O   0  0  0  0  0  0  0  0  0  0  0  0
    8.7435  -14.8978   25.7702 N   0  0  0  0  0  0  0  0  0  0  0  0
    8.9196  -13.9661   26.8515 C   0  0  1  0  0  0  0  0  0  0  0  0
    7.5448  -13.3323   27.1043 C   0  0  0  0  0  0  0  0  0  0  0  0
    6.9371  -12.7334   25.5207 S   0  0  0  0  0  0  0  0  0  0  0  0
    9.4189  -14.6162   28.0782 C   0  0  0  0  0  0  0  0  0  0  0  0
    9.4543  -15.8666   28.1274 O   0  0  0  0  0  0  0  0  0  0  0  0
    9.8594  -13.9274   29.1997 O   0  0  0  0  0  0  0  0  0  0  0  0
  2  1  1  1
  3  2  1  0
  4  2  1  0
  4  5  1  0
  5  6  1  6
  7  5  1  0
  7  8  2  0
  9  7  1  0
 10  9  1  0
 10 11  1  1
 12 16  1  0
 12 11  1  0
 13 12  2  0
 14 13  1  0
 14 15  1  0
 15 16  2  0
 17 10  1  0
 18 17  2  0
 19 17  1  0
 20 21  1  1
 20 19  1  0
 21 22  1  0
 23 20  1  0
 24 23  2  0
 25 23  1  0
M  END
$$$$
