LHC.pdb
     RDKit          3D

 25 25  0  0  1  0  0  0  0  0999 V2000
    8.0024  -12.1138   20.3891 C   0  0  0  0  0  0  0  0  0  0  0  0
    8.2314  -13.1898   19.3601 C   0  0  2  0  0  0  0  0  0  0  0  0
    7.3569  -12.8884   18.1411 C   0  0  0  0  0  0  0  0  0  0  0  0
    7.8361  -14.5538   19.8527 C   0  0  0  0  0  0  0  0  0  0  0  0
    8.6827  -15.6527   19.2756 C   0  0  2  0  0  0  0  0  0  0  0  0
    7.9844  -16.3143   18.2178 N   0  0  0  0  0  0  0  0  0  0  0  0
    9.0903  -16.5628   20.3650 C   0  0  0  0  0  0  0  0  0  0  0  0
    8.1928  -17.3190   20.8416 O   0  0  0  0  0  0  0  0  0  0  0  0
   10.3865  -16.6472   20.9024 N   0  0  0  0  0  0  0  0  0  0  0  0
   10.7006  -17.5671   21.9537 C   0  0  1  0  0  0  0  0  0  0  0  0
   12.0573  -18.2002   21.8171 C   0  0  0  0  0  0  0  0  0  0  0  0
   12.1263  -19.1934   20.7239 C   0  0  0  0  0  0  0  0  0  0  0  0
   11.7495  -20.5205   20.7343 C   0  0  0  0  0  0  0  0  0  0  0  0
   11.9875  -21.0666   19.5060 N   0  0  0  0  0  0  0  0  0  0  0  0
   12.4996  -20.1112   18.7434 C   0  0  0  0  0  0  0  0  0  0  0  0
   12.5864  -18.9682   19.4800 N   0  0  0  0  0  0  0  0  0  0  0  0
   10.7093  -16.7978   23.2389 C   0  0  0  0  0  0  0  0  0  0  0  0
   11.0431  -15.5882   23.2911 O   0  0  0  0  0  0  0  0  0  0  0  0
   10.3315  -17.4280   24.4655 N   0  0  0  0  0  0  0  0  0  0  0  0
   10.2897  -16.7457   25.7308 C   0  0  1  0  0  0  0  0  0  0  0  0
    9.1653  -15.7063   25.6245 C   0  0  0  0  0  0  0  0  0  0  0  0
    7.6422  -16.6041   25.2927 S   0  0  0  0  0  0  0  0  0  0  0  0
   10.0353  -17.6642   26.8569 C   0  0  0  0  0  0  0  0  0  0  0  0
    9.7652  -18.8615   26.6103 O   0  0  0  0  0  0  0  0  0  0  0  0
   10.0749  -17.2880   28.1922 O   0  0  0  0  0  0  0  0  0  0  0  0
  2  1  1  1
  3  2  1  0
  4  2  1  0
  4  5  1  0
  5  6  1  6
  7  5  1  0
  7  8  2  0
  9  7  1  0
 10  9  1  0
 10 11  1  6
 12 16  1  0
 12 11  1  0
 13 12  2  0
 14 13  1  0
 14 15  1  0
 15 16  2  0
 17 10  1  0
 18 17  2  0
 19 17  1  0
 20 21  1  6
 20 19  1  0
 21 22  1  0
 23 20  1  0
 24 23  2  0
 25 23  1  0
M  END
$$$$
