LHC.pdb
     RDKit          3D

 25 25  0  0  1  0  0  0  0  0999 V2000
    9.1773  -14.0284   19.2866 C   0  0  0  0  0  0  0  0  0  0  0  0
    7.7809  -13.5735   19.6215 C   0  0  2  0  0  0  0  0  0  0  0  0
    7.7814  -12.0471   19.7295 C   0  0  0  0  0  0  0  0  0  0  0  0
    7.3024  -14.1032   20.9443 C   0  0  0  0  0  0  0  0  0  0  0  0
    7.1020  -15.5922   20.9408 C   0  0  2  0  0  0  0  0  0  0  0  0
    5.9546  -15.9371   20.1607 N   0  0  0  0  0  0  0  0  0  0  0  0
    7.0225  -16.0660   22.3374 C   0  0  0  0  0  0  0  0  0  0  0  0
    5.9911  -15.7343   22.9938 O   0  0  0  0  0  0  0  0  0  0  0  0
    7.9977  -16.8484   22.9801 N   0  0  0  0  0  0  0  0  0  0  0  0
    7.8555  -17.2427   24.3492 C   0  0  1  0  0  0  0  0  0  0  0  0
    8.0540  -18.7153   24.5773 C   0  0  0  0  0  0  0  0  0  0  0  0
    7.9440  -19.1017   26.0003 C   0  0  0  0  0  0  0  0  0  0  0  0
    7.3349  -18.4253   27.0369 C   0  0  0  0  0  0  0  0  0  0  0  0
    7.4716  -19.1463   28.1880 N   0  0  0  0  0  0  0  0  0  0  0  0
    8.1475  -20.2456   27.8856 C   0  0  0  0  0  0  0  0  0  0  0  0
    8.4377  -20.2236   26.5545 N   0  0  0  0  0  0  0  0  0  0  0  0
    8.9171  -16.5360   25.1349 C   0  0  0  0  0  0  0  0  0  0  0  0
   10.0975  -16.4309   24.7190 O   0  0  0  0  0  0  0  0  0  0  0  0
    8.6134  -15.9500   26.4033 N   0  0  0  0  0  0  0  0  0  0  0  0
    9.5868  -15.2823   27.2249 C   0  0  1  0  0  0  0  0  0  0  0  0
    8.8461  -14.1365   27.9279 C   0  0  0  0  0  0  0  0  0  0  0  0
   10.0587  -13.2474   28.9154 S   0  0  0  0  0  0  0  0  0  0  0  0
   10.1979  -16.1852   28.2189 C   0  0  0  0  0  0  0  0  0  0  0  0
    9.4805  -17.0502   28.7705 O   0  0  0  0  0  0  0  0  0  0  0  0
   11.5341  -16.1420   28.5915 O   0  0  0  0  0  0  0  0  0  0  0  0
  2  1  1  1
  3  2  1  0
  4  2  1  0
  4  5  1  0
  5  6  1  6
  7  5  1  0
  7  8  2  0
  9  7  1  0
 10  9  1  0
 10 11  1  6
 12 16  1  0
 12 11  1  0
 13 12  2  0
 14 13  1  0
 14 15  1  0
 15 16  2  0
 17 10  1  0
 18 17  2  0
 19 17  1  0
 20 21  1  1
 20 19  1  0
 21 22  1  0
 23 20  1  0
 24 23  2  0
 25 23  1  0
M  END
$$$$
