LHC.pdb
     RDKit          3D

 25 25  0  0  1  0  0  0  0  0999 V2000
    9.9793  -13.1108   19.0622 C   0  0  0  0  0  0  0  0  0  0  0  0
    8.5147  -13.4228   19.2256 C   0  0  2  0  0  0  0  0  0  0  0  0
    7.7467  -12.1031   19.3271 C   0  0  0  0  0  0  0  0  0  0  0  0
    8.2249  -14.1930   20.4834 C   0  0  0  0  0  0  0  0  0  0  0  0
    9.0196  -15.4637   20.5879 C   0  0  2  0  0  0  0  0  0  0  0  0
    8.5410  -16.4277   19.6467 N   0  0  0  0  0  0  0  0  0  0  0  0
    8.9756  -15.9401   21.9852 C   0  0  0  0  0  0  0  0  0  0  0  0
    7.8664  -16.3910   22.3989 O   0  0  0  0  0  0  0  0  0  0  0  0
   10.0634  -15.9284   22.8756 N   0  0  0  0  0  0  0  0  0  0  0  0
    9.9721  -16.5252   24.1739 C   0  0  1  0  0  0  0  0  0  0  0  0
   10.9655  -17.6303   24.4018 C   0  0  0  0  0  0  0  0  0  0  0  0
   10.6343  -18.8688   23.6650 C   0  0  0  0  0  0  0  0  0  0  0  0
    9.5793  -19.1122   22.8101 C   0  0  0  0  0  0  0  0  0  0  0  0
    9.6583  -20.3950   22.3498 N   0  0  0  0  0  0  0  0  0  0  0  0
   10.7323  -20.9442   22.8988 C   0  0  0  0  0  0  0  0  0  0  0  0
   11.3305  -20.0192   23.7007 N   0  0  0  0  0  0  0  0  0  0  0  0
   10.2715  -15.4592   25.1826 C   0  0  0  0  0  0  0  0  0  0  0  0
   11.3090  -14.7542   25.1215 O   0  0  0  0  0  0  0  0  0  0  0  0
    9.3700  -15.2080   26.2637 N   0  0  0  0  0  0  0  0  0  0  0  0
    9.6679  -14.3259   27.3597 C   0  0  1  0  0  0  0  0  0  0  0  0
    8.3263  -13.7382   27.8187 C   0  0  0  0  0  0  0  0  0  0  0  0
    7.5993  -12.9039   26.4004 S   0  0  0  0  0  0  0  0  0  0  0  0
   10.3328  -15.0224   28.4775 C   0  0  0  0  0  0  0  0  0  0  0  0
   10.4031  -16.2721   28.4539 O   0  0  0  0  0  0  0  0  0  0  0  0
   10.8951  -14.3789   29.5710 O   0  0  0  0  0  0  0  0  0  0  0  0
  2  1  1  1
  3  2  1  0
  4  2  1  0
  4  5  1  0
  5  6  1  6
  7  5  1  0
  7  8  2  0
  9  7  1  0
 10  9  1  0
 10 11  1  6
 12 16  1  0
 12 11  1  0
 13 12  2  0
 14 13  1  0
 14 15  1  0
 15 16  2  0
 17 10  1  0
 18 17  2  0
 19 17  1  0
 20 21  1  1
 20 19  1  0
 21 22  1  0
 23 20  1  0
 24 23  2  0
 25 23  1  0
M  END
$$$$
