LHC.pdb
     RDKit          3D

 25 25  0  0  1  0  0  0  0  0999 V2000
    7.6303  -11.8263   25.2720 C   0  0  0  0  0  0  0  0  0  0  0  0
    6.5590  -12.8020   25.6838 C   0  0  2  0  0  0  0  0  0  0  0  0
    6.2314  -12.5672   27.1600 C   0  0  0  0  0  0  0  0  0  0  0  0
    7.0018  -14.2329   25.5585 C   0  0  0  0  0  0  0  0  0  0  0  0
    7.6977  -14.5187   24.2580 C   0  0  2  0  0  0  0  0  0  0  0  0
    6.7519  -14.5561   23.1864 N   0  0  0  0  0  0  0  0  0  0  0  0
    8.4730  -15.7680   24.3964 C   0  0  0  0  0  0  0  0  0  0  0  0
    7.8535  -16.7761   24.8487 O   0  0  0  0  0  0  0  0  0  0  0  0
    9.8315  -15.9146   24.0659 N   0  0  0  0  0  0  0  0  0  0  0  0
   10.5012  -17.1730   24.2003 C   0  0  1  0  0  0  0  0  0  0  0  0
   11.6216  -17.3689   23.2172 C   0  0  0  0  0  0  0  0  0  0  0  0
   11.1552  -17.4591   21.8170 C   0  0  0  0  0  0  0  0  0  0  0  0
   11.2026  -16.5017   20.8248 C   0  0  0  0  0  0  0  0  0  0  0  0
   10.6602  -17.0109   19.6803 N   0  0  0  0  0  0  0  0  0  0  0  0
   10.2819  -18.2536   19.9434 C   0  0  0  0  0  0  0  0  0  0  0  0
   10.5810  -18.5318   21.2433 N   0  0  0  0  0  0  0  0  0  0  0  0
   11.1123  -17.2153   25.5672 C   0  0  0  0  0  0  0  0  0  0  0  0
   11.6660  -16.2128   26.0827 O   0  0  0  0  0  0  0  0  0  0  0  0
   11.0833  -18.4185   26.3391 N   0  0  0  0  0  0  0  0  0  0  0  0
   11.7082  -18.5526   27.6275 C   0  0  1  0  0  0  0  0  0  0  0  0
   10.6584  -18.1277   28.6635 C   0  0  0  0  0  0  0  0  0  0  0  0
    9.2794  -19.2742   28.5227 S   0  0  0  0  0  0  0  0  0  0  0  0
   12.1618  -19.9314   27.8916 C   0  0  0  0  0  0  0  0  0  0  0  0
   11.8618  -20.8324   27.0759 O   0  0  0  0  0  0  0  0  0  0  0  0
   12.9098  -20.3058   28.9991 O   0  0  0  0  0  0  0  0  0  0  0  0
  2  1  1  1
  3  2  1  0
  4  2  1  0
  4  5  1  0
  5  6  1  6
  7  5  1  0
  7  8  2  0
  9  7  1  0
 10  9  1  0
 10 11  1  6
 12 16  1  0
 12 11  1  0
 13 12  2  0
 14 13  1  0
 14 15  1  0
 15 16  2  0
 17 10  1  0
 18 17  2  0
 19 17  1  0
 20 21  1  1
 20 19  1  0
 21 22  1  0
 23 20  1  0
 24 23  2  0
 25 23  1  0
M  END
$$$$
