WFG.pdb
     RDKit          3D

 30 32  0  0  1  0  0  0  0  0999 V2000
   26.2569  -19.5870  -17.6821 N   0  0  0  0  0  0  0  0  0  0  0  0
   25.4559  -19.3689  -16.4937 C   0  0  1  0  0  0  0  0  0  0  0  0
   24.0251  -19.8186  -16.7175 C   0  0  0  0  0  0  0  0  0  0  0  0
   23.1919  -18.7819  -17.3685 C   0  0  0  0  0  0  0  0  0  0  0  0
   23.1688  -18.3216  -18.6614 C   0  0  0  0  0  0  0  0  0  0  0  0
   22.2401  -17.3591  -18.8149 N   0  0  0  0  0  0  0  0  0  0  0  0
   21.6271  -17.1658  -17.6094 C   0  0  0  0  0  0  0  0  0  0  0  0
   20.6224  -16.3081  -17.2396 C   0  0  0  0  0  0  0  0  0  0  0  0
   20.1620  -16.2961  -15.9481 C   0  0  0  0  0  0  0  0  0  0  0  0
   20.7115  -17.1463  -15.0315 C   0  0  0  0  0  0  0  0  0  0  0  0
   21.7209  -18.0067  -15.4063 C   0  0  0  0  0  0  0  0  0  0  0  0
   22.2195  -18.0499  -16.7150 C   0  0  0  0  0  0  0  0  0  0  0  0
   26.0804  -20.0758  -15.3575 C   0  0  0  0  0  0  0  0  0  0  0  0
   26.5898  -21.2144  -15.4802 O   0  0  0  0  0  0  0  0  0  0  0  0
   26.1432  -19.4959  -14.0350 N   0  0  0  0  0  0  0  0  0  0  0  0
   26.7220  -20.2373  -12.9311 C   0  0  1  0  0  0  0  0  0  0  0  0
   26.9673  -19.2025  -11.8194 C   0  0  0  0  0  0  0  0  0  0  0  0
   27.5815  -19.7879  -10.6178 C   0  0  0  0  0  0  0  0  0  0  0  0
   27.0248  -19.5252   -9.3729 C   0  0  0  0  0  0  0  0  0  0  0  0
   27.6075  -20.0997   -8.2363 C   0  0  0  0  0  0  0  0  0  0  0  0
   28.7018  -20.9037   -8.3434 C   0  0  0  0  0  0  0  0  0  0  0  0
   29.2718  -21.1786   -9.5760 C   0  0  0  0  0  0  0  0  0  0  0  0
   28.6734  -20.5934  -10.7102 C   0  0  0  0  0  0  0  0  0  0  0  0
   25.7542  -21.2133  -12.4261 C   0  0  0  0  0  0  0  0  0  0  0  0
   26.1101  -22.3180  -11.8939 O   0  0  0  0  0  0  0  0  0  0  0  0
   24.3521  -20.9397  -12.5226 N   0  0  0  0  0  0  0  0  0  0  0  0
   23.3737  -21.9559  -12.1428 C   0  0  0  0  0  0  0  0  0  0  0  0
   22.6174  -22.3935  -13.3528 C   0  0  0  0  0  0  0  0  0  0  0  0
   21.3953  -21.8563  -13.6840 O   0  0  0  0  0  0  0  0  0  0  0  0
   23.1122  -23.2825  -14.0954 O   0  0  0  0  0  0  0  0  0  0  0  0
  2  3  1  0
  2  1  1  6
  2 13  1  0
  3  4  1  0
  4 12  1  0
  4  5  2  0
  5  6  1  0
  7  6  1  0
  7  8  2  0
  9  8  1  0
 10  9  2  0
 11 12  2  0
 11 10  1  0
 12  7  1  0
 13 14  2  0
 15 13  1  0
 15 16  1  0
 16 24  1  0
 16 17  1  1
 18 17  1  0
 19 18  2  0
 20 19  1  0
 21 22  1  0
 21 20  2  0
 22 23  2  0
 23 18  1  0
 24 25  2  0
 26 24  1  0
 26 27  1  0
 28 29  1  0
 28 27  1  0
 30 28  2  0
M  END
$$$$
