WFG.pdb
     RDKit          3D

 30 32  0  0  1  0  0  0  0  0999 V2000
   26.6839  -22.0694  -16.1443 N   0  0  0  0  0  0  0  0  0  0  0  0
   25.6120  -21.3112  -15.5299 C   0  0  1  0  0  0  0  0  0  0  0  0
   24.2887  -21.5970  -16.2132 C   0  0  0  0  0  0  0  0  0  0  0  0
   24.2115  -21.0274  -17.5779 C   0  0  0  0  0  0  0  0  0  0  0  0
   24.2227  -21.6306  -18.8107 C   0  0  0  0  0  0  0  0  0  0  0  0
   24.1310  -20.7176  -19.7959 N   0  0  0  0  0  0  0  0  0  0  0  0
   24.0572  -19.4803  -19.2213 C   0  0  0  0  0  0  0  0  0  0  0  0
   23.9510  -18.2335  -19.7835 C   0  0  0  0  0  0  0  0  0  0  0  0
   23.8899  -17.1180  -18.9885 C   0  0  0  0  0  0  0  0  0  0  0  0
   23.9348  -17.2578  -17.6308 C   0  0  0  0  0  0  0  0  0  0  0  0
   24.0415  -18.5120  -17.0692 C   0  0  0  0  0  0  0  0  0  0  0  0
   24.1069  -19.6762  -17.8459 C   0  0  0  0  0  0  0  0  0  0  0  0
   25.5638  -21.6292  -14.0887 C   0  0  0  0  0  0  0  0  0  0  0  0
   25.7293  -22.7945  -13.6580 O   0  0  0  0  0  0  0  0  0  0  0  0
   25.3242  -20.6147  -13.0874 N   0  0  0  0  0  0  0  0  0  0  0  0
   25.1112  -20.9824  -11.7008 C   0  0  1  0  0  0  0  0  0  0  0  0
   26.0806  -20.1088  -10.8861 C   0  0  0  0  0  0  0  0  0  0  0  0
   27.4929  -20.4386  -11.1319 C   0  0  0  0  0  0  0  0  0  0  0  0
   28.1493  -21.3052  -10.2676 C   0  0  0  0  0  0  0  0  0  0  0  0
   29.4894  -21.6253  -10.5189 C   0  0  0  0  0  0  0  0  0  0  0  0
   30.1435  -21.0988  -11.5914 C   0  0  0  0  0  0  0  0  0  0  0  0
   29.5067  -20.2329  -12.4658 C   0  0  0  0  0  0  0  0  0  0  0  0
   28.1580  -19.9213  -12.1994 C   0  0  0  0  0  0  0  0  0  0  0  0
   23.7480  -20.6314  -11.2972 C   0  0  0  0  0  0  0  0  0  0  0  0
   23.0149  -19.8389  -11.9788 O   0  0  0  0  0  0  0  0  0  0  0  0
   23.1967  -21.1855  -10.0976 N   0  0  0  0  0  0  0  0  0  0  0  0
   22.0895  -22.1361  -10.1644 C   0  0  0  0  0  0  0  0  0  0  0  0
   20.8453  -21.4208  -10.5744 C   0  0  0  0  0  0  0  0  0  0  0  0
   19.6272  -22.0558  -10.6439 O   0  0  0  0  0  0  0  0  0  0  0  0
   20.9107  -20.1972  -10.8661 O   0  0  0  0  0  0  0  0  0  0  0  0
  2  3  1  0
  2  1  1  6
  2 13  1  0
  3  4  1  0
  4 12  1  0
  4  5  2  0
  5  6  1  0
  7  6  1  0
  7  8  2  0
  9  8  1  0
 10  9  2  0
 11 12  2  0
 11 10  1  0
 12  7  1  0
 13 14  2  0
 15 13  1  0
 15 16  1  0
 16 24  1  0
 16 17  1  1
 18 17  1  0
 19 18  2  0
 20 19  1  0
 21 22  1  0
 21 20  2  0
 22 23  2  0
 23 18  1  0
 24 25  2  0
 26 24  1  0
 26 27  1  0
 28 29  1  0
 28 27  1  0
 30 28  2  0
M  END
$$$$
