WFG.pdb
     RDKit          3D

 30 32  0  0  1  0  0  0  0  0999 V2000
   26.8635  -22.2087  -17.1317 N   0  0  0  0  0  0  0  0  0  0  0  0
   25.7210  -21.6934  -16.4034 C   0  0  1  0  0  0  0  0  0  0  0  0
   24.4343  -22.3202  -16.9046 C   0  0  0  0  0  0  0  0  0  0  0  0
   24.1640  -22.0172  -18.3287 C   0  0  0  0  0  0  0  0  0  0  0  0
   24.0563  -22.8390  -19.4227 C   0  0  0  0  0  0  0  0  0  0  0  0
   23.8003  -22.1285  -20.5372 N   0  0  0  0  0  0  0  0  0  0  0  0
   23.7342  -20.8083  -20.1920 C   0  0  0  0  0  0  0  0  0  0  0  0
   23.4981  -19.6915  -20.9528 C   0  0  0  0  0  0  0  0  0  0  0  0
   23.4775  -18.4494  -20.3723 C   0  0  0  0  0  0  0  0  0  0  0  0
   23.6933  -18.3325  -19.0289 C   0  0  0  0  0  0  0  0  0  0  0  0
   23.9302  -19.4566  -18.2675 C   0  0  0  0  0  0  0  0  0  0  0  0
   23.9598  -20.7430  -18.8219 C   0  0  0  0  0  0  0  0  0  0  0  0
   25.9221  -21.9360  -14.9606 C   0  0  0  0  0  0  0  0  0  0  0  0
   25.9928  -23.0927  -14.4833 O   0  0  0  0  0  0  0  0  0  0  0  0
   26.0512  -20.8531  -14.0119 N   0  0  0  0  0  0  0  0  0  0  0  0
   26.1534  -21.1253  -12.5912 C   0  0  1  0  0  0  0  0  0  0  0  0
   27.2544  -20.1873  -12.0670 C   0  0  0  0  0  0  0  0  0  0  0  0
   27.4737  -20.3155  -10.6181 C   0  0  0  0  0  0  0  0  0  0  0  0
   26.6920  -19.5720   -9.7436 C   0  0  0  0  0  0  0  0  0  0  0  0
   26.8979  -19.7126   -8.3654 C   0  0  0  0  0  0  0  0  0  0  0  0
   27.8472  -20.5628   -7.8846 C   0  0  0  0  0  0  0  0  0  0  0  0
   28.6371  -21.3138   -8.7401 C   0  0  0  0  0  0  0  0  0  0  0  0
   28.4171  -21.1614  -10.1241 C   0  0  0  0  0  0  0  0  0  0  0  0
   24.9019  -20.7606  -11.9239 C   0  0  0  0  0  0  0  0  0  0  0  0
   24.2687  -19.6859  -12.1965 O   0  0  0  0  0  0  0  0  0  0  0  0
   24.3500  -21.6261  -10.9258 N   0  0  0  0  0  0  0  0  0  0  0  0
   23.1639  -21.2238  -10.1738 C   0  0  0  0  0  0  0  0  0  0  0  0
   21.9914  -21.1566  -11.0948 C   0  0  0  0  0  0  0  0  0  0  0  0
   21.0636  -20.1437  -11.0230 O   0  0  0  0  0  0  0  0  0  0  0  0
   21.8453  -22.0544  -11.9661 O   0  0  0  0  0  0  0  0  0  0  0  0
  2  3  1  0
  2  1  1  6
  2 13  1  0
  3  4  1  0
  4 12  1  0
  4  5  2  0
  5  6  1  0
  7  6  1  0
  7  8  2  0
  9  8  1  0
 10  9  2  0
 11 12  2  0
 11 10  1  0
 12  7  1  0
 13 14  2  0
 15 13  1  0
 15 16  1  0
 16 24  1  0
 16 17  1  1
 18 17  1  0
 19 18  2  0
 20 19  1  0
 21 22  1  0
 21 20  2  0
 22 23  2  0
 23 18  1  0
 24 25  2  0
 26 24  1  0
 26 27  1  0
 28 29  1  0
 28 27  1  0
 30 28  2  0
M  END
$$$$
