WFG.pdb
     RDKit          3D

 30 32  0  0  1  0  0  0  0  0999 V2000
   24.8658  -22.7861  -11.7134 N   0  0  0  0  0  0  0  0  0  0  0  0
   25.0820  -21.3545  -11.6414 C   0  0  1  0  0  0  0  0  0  0  0  0
   26.3969  -21.0414  -10.9538 C   0  0  0  0  0  0  0  0  0  0  0  0
   26.2378  -20.7645   -9.5078 C   0  0  0  0  0  0  0  0  0  0  0  0
   25.2716  -21.1542   -8.6142 C   0  0  0  0  0  0  0  0  0  0  0  0
   25.5257  -20.6669   -7.3852 N   0  0  0  0  0  0  0  0  0  0  0  0
   26.6791  -19.9375   -7.4488 C   0  0  0  0  0  0  0  0  0  0  0  0
   27.3589  -19.2450   -6.4792 C   0  0  0  0  0  0  0  0  0  0  0  0
   28.5172  -18.5788   -6.7868 C   0  0  0  0  0  0  0  0  0  0  0  0
   28.9902  -18.6107   -8.0675 C   0  0  0  0  0  0  0  0  0  0  0  0
   28.3047  -19.3074   -9.0393 C   0  0  0  0  0  0  0  0  0  0  0  0
   27.1181  -20.0006   -8.7663 C   0  0  0  0  0  0  0  0  0  0  0  0
   25.0302  -20.7918  -13.0057 C   0  0  0  0  0  0  0  0  0  0  0  0
   25.8295  -21.1470  -13.9033 O   0  0  0  0  0  0  0  0  0  0  0  0
   24.0529  -19.7981  -13.3885 N   0  0  0  0  0  0  0  0  0  0  0  0
   23.9603  -19.3456  -14.7632 C   0  0  1  0  0  0  0  0  0  0  0  0
   22.4653  -19.4074  -15.1208 C   0  0  0  0  0  0  0  0  0  0  0  0
   22.2001  -19.0832  -16.5309 C   0  0  0  0  0  0  0  0  0  0  0  0
   21.6000  -17.8718  -16.8489 C   0  0  0  0  0  0  0  0  0  0  0  0
   21.3658  -17.5655  -18.1953 C   0  0  0  0  0  0  0  0  0  0  0  0
   21.7186  -18.4368  -19.1810 C   0  0  0  0  0  0  0  0  0  0  0  0
   22.3187  -19.6501  -18.8849 C   0  0  0  0  0  0  0  0  0  0  0  0
   22.5482  -19.9431  -17.5254 C   0  0  0  0  0  0  0  0  0  0  0  0
   24.3834  -17.9467  -14.8556 C   0  0  0  0  0  0  0  0  0  0  0  0
   23.8327  -17.0184  -14.1736 O   0  0  0  0  0  0  0  0  0  0  0  0
   25.4519  -17.5838  -15.7369 N   0  0  0  0  0  0  0  0  0  0  0  0
   25.8699  -16.1890  -15.8552 C   0  0  0  0  0  0  0  0  0  0  0  0
   25.4168  -15.6448  -17.1690 C   0  0  0  0  0  0  0  0  0  0  0  0
   26.2030  -14.8032  -17.9211 O   0  0  0  0  0  0  0  0  0  0  0  0
   24.2793  -15.9654  -17.6048 O   0  0  0  0  0  0  0  0  0  0  0  0
  2  3  1  0
  2  1  1  6
  2 13  1  0
  3  4  1  0
  4 12  1  0
  4  5  2  0
  5  6  1  0
  7  6  1  0
  7  8  2  0
  9  8  1  0
 10  9  2  0
 11 12  2  0
 11 10  1  0
 12  7  1  0
 13 14  2  0
 15 13  1  0
 15 16  1  0
 16 24  1  0
 16 17  1  1
 18 17  1  0
 19 18  2  0
 20 19  1  0
 21 22  1  0
 21 20  2  0
 22 23  2  0
 23 18  1  0
 24 25  2  0
 26 24  1  0
 26 27  1  0
 28 29  1  0
 28 27  1  0
 30 28  2  0
M  END
$$$$
