WFG.pdb
     RDKit          3D

 30 32  0  0  1  0  0  0  0  0999 V2000
   26.3013  -20.5285  -12.8902 N   0  0  0  0  0  0  0  0  0  0  0  0
   25.5130  -20.3637  -11.6849 C   0  0  1  0  0  0  0  0  0  0  0  0
   24.2231  -21.1565  -11.7714 C   0  0  0  0  0  0  0  0  0  0  0  0
   23.2276  -20.5377  -12.6763 C   0  0  0  0  0  0  0  0  0  0  0  0
   23.1348  -20.5273  -14.0457 C   0  0  0  0  0  0  0  0  0  0  0  0
   22.0544  -19.8340  -14.4512 N   0  0  0  0  0  0  0  0  0  0  0  0
   21.4081  -19.3690  -13.3410 C   0  0  0  0  0  0  0  0  0  0  0  0
   20.2671  -18.6182  -13.2140 C   0  0  0  0  0  0  0  0  0  0  0  0
   19.8019  -18.2693  -11.9723 C   0  0  0  0  0  0  0  0  0  0  0  0
   20.4837  -18.6762  -10.8612 C   0  0  0  0  0  0  0  0  0  0  0  0
   21.6298  -19.4305  -10.9923 C   0  0  0  0  0  0  0  0  0  0  0  0
   22.1381  -19.8076  -12.2422 C   0  0  0  0  0  0  0  0  0  0  0  0
   26.3263  -20.7671  -10.5203 C   0  0  0  0  0  0  0  0  0  0  0  0
   26.9994  -21.8244  -10.5121 O   0  0  0  0  0  0  0  0  0  0  0  0
   26.3964  -19.9655   -9.3196 N   0  0  0  0  0  0  0  0  0  0  0  0
   27.1853  -20.4043   -8.1845 C   0  0  1  0  0  0  0  0  0  0  0  0
   27.8995  -19.1451   -7.6638 C   0  0  0  0  0  0  0  0  0  0  0  0
   28.4278  -19.3090   -6.3008 C   0  0  0  0  0  0  0  0  0  0  0  0
   27.8670  -18.5781   -5.2616 C   0  0  0  0  0  0  0  0  0  0  0  0
   28.3666  -18.7527   -3.9649 C   0  0  0  0  0  0  0  0  0  0  0  0
   29.3852  -19.6234   -3.7206 C   0  0  0  0  0  0  0  0  0  0  0  0
   29.9580  -20.3623   -4.7432 C   0  0  0  0  0  0  0  0  0  0  0  0
   29.4436  -20.1757   -6.0422 C   0  0  0  0  0  0  0  0  0  0  0  0
   26.3013  -20.8873   -7.1217 C   0  0  0  0  0  0  0  0  0  0  0  0
   26.7460  -21.4351   -6.0576 O   0  0  0  0  0  0  0  0  0  0  0  0
   24.8828  -20.7506   -7.2598 N   0  0  0  0  0  0  0  0  0  0  0  0
   23.9896  -21.2183   -6.2027 C   0  0  0  0  0  0  0  0  0  0  0  0
   23.4617  -22.5679   -6.5598 C   0  0  0  0  0  0  0  0  0  0  0  0
   22.5180  -23.2095   -5.7920 O   0  0  0  0  0  0  0  0  0  0  0  0
   23.8925  -23.1388   -7.5967 O   0  0  0  0  0  0  0  0  0  0  0  0
  2  3  1  0
  2  1  1  6
  2 13  1  0
  3  4  1  0
  4 12  1  0
  4  5  2  0
  5  6  1  0
  7  6  1  0
  7  8  2  0
  9  8  1  0
 10  9  2  0
 11 12  2  0
 11 10  1  0
 12  7  1  0
 13 14  2  0
 15 13  1  0
 15 16  1  0
 16 24  1  0
 16 17  1  1
 18 17  1  0
 19 18  2  0
 20 19  1  0
 21 22  1  0
 21 20  2  0
 22 23  2  0
 23 18  1  0
 24 25  2  0
 26 24  1  0
 26 27  1  0
 28 29  1  0
 28 27  1  0
 30 28  2  0
M  END
$$$$
