WFG.pdb
     RDKit          3D

 30 32  0  0  1  0  0  0  0  0999 V2000
   29.0167  -20.7464  -13.7736 N   0  0  0  0  0  0  0  0  0  0  0  0
   27.7920  -20.0581  -13.4165 C   0  0  1  0  0  0  0  0  0  0  0  0
   26.9258  -19.8285  -14.6399 C   0  0  0  0  0  0  0  0  0  0  0  0
   27.5105  -18.8471  -15.5822 C   0  0  0  0  0  0  0  0  0  0  0  0
   28.1734  -19.0204  -16.7715 C   0  0  0  0  0  0  0  0  0  0  0  0
   28.5353  -17.8362  -17.2998 N   0  0  0  0  0  0  0  0  0  0  0  0
   28.1116  -16.8487  -16.4560 C   0  0  0  0  0  0  0  0  0  0  0  0
   28.2295  -15.4845  -16.5387 C   0  0  0  0  0  0  0  0  0  0  0  0
   27.7134  -14.6836  -15.5527 C   0  0  0  0  0  0  0  0  0  0  0  0
   27.0794  -15.2550  -14.4867 C   0  0  0  0  0  0  0  0  0  0  0  0
   26.9627  -16.6260  -14.4067 C   0  0  0  0  0  0  0  0  0  0  0  0
   27.4762  -17.4791  -15.3924 C   0  0  0  0  0  0  0  0  0  0  0  0
   27.0843  -20.8416  -12.3841 C   0  0  0  0  0  0  0  0  0  0  0  0
   27.1429  -22.0928  -12.3410 O   0  0  0  0  0  0  0  0  0  0  0  0
   26.2822  -20.2121  -11.3596 N   0  0  0  0  0  0  0  0  0  0  0  0
   25.3923  -21.0016  -10.5302 C   0  0  1  0  0  0  0  0  0  0  0  0
   25.4106  -20.3306   -9.1460 C   0  0  0  0  0  0  0  0  0  0  0  0
   26.7362  -20.3673   -8.5095 C   0  0  0  0  0  0  0  0  0  0  0  0
   27.0999  -19.3502   -7.6367 C   0  0  0  0  0  0  0  0  0  0  0  0
   28.3580  -19.4022   -7.0236 C   0  0  0  0  0  0  0  0  0  0  0  0
   29.2150  -20.4306   -7.2749 C   0  0  0  0  0  0  0  0  0  0  0  0
   28.8712  -21.4553   -8.1419 C   0  0  0  0  0  0  0  0  0  0  0  0
   27.6014  -21.3887   -8.7503 C   0  0  0  0  0  0  0  0  0  0  0  0
   24.0252  -20.9181  -11.0483 C   0  0  0  0  0  0  0  0  0  0  0  0
   23.5962  -19.8991  -11.6870 O   0  0  0  0  0  0  0  0  0  0  0  0
   23.1190  -22.0073  -10.8424 N   0  0  0  0  0  0  0  0  0  0  0  0
   22.1761  -22.3913  -11.8900 C   0  0  0  0  0  0  0  0  0  0  0  0
   21.0776  -21.3835  -11.9628 C   0  0  0  0  0  0  0  0  0  0  0  0
   20.7125  -20.7854  -13.1464 O   0  0  0  0  0  0  0  0  0  0  0  0
   20.4641  -21.0696  -10.9084 O   0  0  0  0  0  0  0  0  0  0  0  0
  2  3  1  0
  2  1  1  6
  2 13  1  0
  3  4  1  0
  4 12  1  0
  4  5  2  0
  5  6  1  0
  7  6  1  0
  7  8  2  0
  9  8  1  0
 10  9  2  0
 11 12  2  0
 11 10  1  0
 12  7  1  0
 13 14  2  0
 15 13  1  0
 15 16  1  0
 16 24  1  0
 16 17  1  1
 18 17  1  0
 19 18  2  0
 20 19  1  0
 21 22  1  0
 21 20  2  0
 22 23  2  0
 23 18  1  0
 24 25  2  0
 26 24  1  0
 26 27  1  0
 28 29  1  0
 28 27  1  0
 30 28  2  0
M  END
$$$$
