LFN.pdb
     RDKit          3D

 28 28  0  0  1  0  0  0  0  0999 V2000
    7.7146  -14.2357   17.4509 C   0  0  0  0  0  0  0  0  0  0  0  0
    8.0984  -13.7418   18.8085 C   0  0  2  0  0  0  0  0  0  0  0  0
    7.9575  -12.2362   18.8458 C   0  0  0  0  0  0  0  0  0  0  0  0
    9.5080  -14.1786   19.1965 C   0  0  0  0  0  0  0  0  0  0  0  0
    9.3568  -15.3635   20.1143 C   0  0  2  0  0  0  0  0  0  0  0  0
    8.1411  -16.0663   19.7669 N   0  0  0  0  0  0  0  0  0  0  0  0
    9.3534  -15.0231   21.5308 C   0  0  0  0  0  0  0  0  0  0  0  0
   10.3388  -14.4165   22.0112 O   0  0  0  0  0  0  0  0  0  0  0  0
    8.2983  -15.3301   22.4355 N   0  0  0  0  0  0  0  0  0  0  0  0
    8.2297  -14.9343   23.7988 C   0  0  1  0  0  0  0  0  0  0  0  0
    6.8836  -14.4461   24.2459 C   0  0  0  0  0  0  0  0  0  0  0  0
    7.0000  -13.6231   25.4628 C   0  0  0  0  0  0  0  0  0  0  0  0
    7.8179  -12.5251   25.5214 C   0  0  0  0  0  0  0  0  0  0  0  0
    7.9165  -11.7593   26.6780 C   0  0  0  0  0  0  0  0  0  0  0  0
    7.1817  -12.1131   27.7742 C   0  0  0  0  0  0  0  0  0  0  0  0
    6.3494  -13.2118   27.7485 C   0  0  0  0  0  0  0  0  0  0  0  0
    6.2706  -13.9634   26.5704 C   0  0  0  0  0  0  0  0  0  0  0  0
    8.6147  -16.0728   24.6707 C   0  0  0  0  0  0  0  0  0  0  0  0
    7.9300  -16.3637   25.6882 O   0  0  0  0  0  0  0  0  0  0  0  0
   11.7052  -18.6743   22.1377 N   0  0  0  0  0  0  0  0  0  0  0  0
   10.8548  -19.1063   23.2118 C   0  0  0  0  0  0  0  0  0  0  0  0
    9.8442  -19.7907   22.9735 O   0  0  0  0  0  0  0  0  0  0  0  0
   11.2334  -18.7080   24.5573 C   0  0  0  0  0  0  0  0  0  0  0  0
   10.1580  -17.9929   25.2952 C   0  0  2  0  0  0  0  0  0  0  0  0
    9.7479  -16.8718   24.4065 N   0  0  0  0  0  0  0  0  0  0  0  0
   10.5678  -17.4243   26.6028 C   0  0  0  0  0  0  0  0  0  0  0  0
   10.6798  -18.3077   27.6819 O   0  0  0  0  0  0  0  0  0  0  0  0
   10.8117  -16.2203   26.7806 O   0  0  0  0  0  0  0  0  0  0  0  0
  2  1  1  6
  3  2  1  0
  4  2  1  0
  5  4  1  0
  5  6  1  6
  7  8  2  0
  7  5  1  0
  9  7  1  0
 10  9  1  0
 10 11  1  1
 11 12  1  0
 12 17  2  0
 12 13  1  0
 13 14  2  0
 14 15  1  0
 16 15  2  0
 17 16  1  0
 18 10  1  0
 19 18  2  0
 21 22  2  0
 21 20  1  0
 23 21  1  0
 24 23  1  6
 24 25  1  0
 25 18  1  0
 26 24  1  0
 27 26  1  0
 28 26  2  0
M  END
$$$$
