LFN.pdb
     RDKit          3D

 28 28  0  0  1  0  0  0  0  0999 V2000
    7.6574  -20.1927   18.8566 C   0  0  0  0  0  0  0  0  0  0  0  0
    7.9980  -18.7655   18.5709 C   0  0  2  0  0  0  0  0  0  0  0  0
    8.7398  -18.6872   17.2550 C   0  0  0  0  0  0  0  0  0  0  0  0
    8.8039  -18.1344   19.7025 C   0  0  0  0  0  0  0  0  0  0  0  0
    8.6735  -16.6418   19.5466 C   0  0  2  0  0  0  0  0  0  0  0  0
    9.6224  -16.1954   18.5502 N   0  0  0  0  0  0  0  0  0  0  0  0
    8.8559  -15.8955   20.7844 C   0  0  0  0  0  0  0  0  0  0  0  0
   10.0175  -15.5985   21.1481 O   0  0  0  0  0  0  0  0  0  0  0  0
    7.7985  -15.4656   21.6348 N   0  0  0  0  0  0  0  0  0  0  0  0
    7.9518  -14.8433   22.9034 C   0  0  1  0  0  0  0  0  0  0  0  0
    6.6857  -14.2971   23.4940 C   0  0  0  0  0  0  0  0  0  0  0  0
    6.9405  -13.6847   24.8100 C   0  0  0  0  0  0  0  0  0  0  0  0
    6.7728  -14.3797   25.9790 C   0  0  0  0  0  0  0  0  0  0  0  0
    7.0171  -13.7866   27.2129 C   0  0  0  0  0  0  0  0  0  0  0  0
    7.4322  -12.4855   27.2545 C   0  0  0  0  0  0  0  0  0  0  0  0
    7.6106  -11.7582   26.0971 C   0  0  0  0  0  0  0  0  0  0  0  0
    7.3570  -12.3817   24.8699 C   0  0  0  0  0  0  0  0  0  0  0  0
    8.5252  -15.8130   23.8707 C   0  0  0  0  0  0  0  0  0  0  0  0
    7.9994  -16.9470   24.0324 O   0  0  0  0  0  0  0  0  0  0  0  0
   13.0975  -18.6083   24.6523 N   0  0  0  0  0  0  0  0  0  0  0  0
   12.7923  -17.3822   25.3356 C   0  0  0  0  0  0  0  0  0  0  0  0
   13.3501  -17.1106   26.4133 O   0  0  0  0  0  0  0  0  0  0  0  0
   11.8198  -16.5007   24.7115 C   0  0  0  0  0  0  0  0  0  0  0  0
   10.4665  -16.5722   25.3245 C   0  0  2  0  0  0  0  0  0  0  0  0
    9.6686  -15.5165   24.6434 N   0  0  0  0  0  0  0  0  0  0  0  0
   10.4267  -16.3159   26.7853 C   0  0  0  0  0  0  0  0  0  0  0  0
   10.7529  -17.3792   27.6341 O   0  0  0  0  0  0  0  0  0  0  0  0
   10.1221  -15.2195   27.2809 O   0  0  0  0  0  0  0  0  0  0  0  0
  2  1  1  1
  3  2  1  0
  4  2  1  0
  5  4  1  0
  5  6  1  6
  7  8  2  0
  7  5  1  0
  9  7  1  0
 10  9  1  0
 10 11  1  1
 11 12  1  0
 12 17  2  0
 12 13  1  0
 13 14  2  0
 14 15  1  0
 16 15  2  0
 17 16  1  0
 18 10  1  0
 19 18  2  0
 21 22  2  0
 21 20  1  0
 23 21  1  0
 24 23  1  6
 24 25  1  0
 25 18  1  0
 26 24  1  0
 27 26  1  0
 28 26  2  0
M  END
$$$$
