LFN.pdb
     RDKit          3D

 28 28  0  0  1  0  0  0  0  0999 V2000
    7.8116  -12.4823   18.2148 C   0  0  0  0  0  0  0  0  0  0  0  0
    7.7281  -13.6698   19.1188 C   0  0  2  0  0  0  0  0  0  0  0  0
    6.3126  -13.8000   19.6359 C   0  0  0  0  0  0  0  0  0  0  0  0
    8.7334  -13.5864   20.2637 C   0  0  0  0  0  0  0  0  0  0  0  0
    8.7602  -14.9440   20.9160 C   0  0  2  0  0  0  0  0  0  0  0  0
    7.4049  -15.4418   21.0053 N   0  0  0  0  0  0  0  0  0  0  0  0
    9.3897  -14.9613   22.2297 C   0  0  0  0  0  0  0  0  0  0  0  0
   10.6098  -14.6916   22.3212 O   0  0  0  0  0  0  0  0  0  0  0  0
    8.7173  -15.2664   23.4466 N   0  0  0  0  0  0  0  0  0  0  0  0
    9.3137  -15.3217   24.7354 C   0  0  1  0  0  0  0  0  0  0  0  0
    8.3778  -15.0462   25.8748 C   0  0  0  0  0  0  0  0  0  0  0  0
    9.1221  -14.8501   27.1315 C   0  0  0  0  0  0  0  0  0  0  0  0
    9.3836  -15.8859   27.9898 C   0  0  0  0  0  0  0  0  0  0  0  0
   10.0871  -15.6836   29.1721 C   0  0  0  0  0  0  0  0  0  0  0  0
   10.5236  -14.4258   29.4790 C   0  0  0  0  0  0  0  0  0  0  0  0
   10.2773  -13.3620   28.6375 C   0  0  0  0  0  0  0  0  0  0  0  0
    9.5668  -13.5961   27.4545 C   0  0  0  0  0  0  0  0  0  0  0  0
    9.9140  -16.6624   24.9521 C   0  0  0  0  0  0  0  0  0  0  0  0
    9.2430  -17.7087   24.7433 O   0  0  0  0  0  0  0  0  0  0  0  0
   13.0189  -17.7463   22.4644 N   0  0  0  0  0  0  0  0  0  0  0  0
   12.6620  -18.6844   23.4920 C   0  0  0  0  0  0  0  0  0  0  0  0
   12.0927  -19.7498   23.1966 O   0  0  0  0  0  0  0  0  0  0  0  0
   12.9956  -18.3263   24.8604 C   0  0  0  0  0  0  0  0  0  0  0  0
   11.8094  -18.1596   25.7422 C   0  0  2  0  0  0  0  0  0  0  0  0
   11.2439  -16.8274   25.3953 N   0  0  0  0  0  0  0  0  0  0  0  0
   12.1032  -18.1762   27.1963 C   0  0  0  0  0  0  0  0  0  0  0  0
   12.0512  -19.4126   27.8492 O   0  0  0  0  0  0  0  0  0  0  0  0
   12.3884  -17.1602   27.8498 O   0  0  0  0  0  0  0  0  0  0  0  0
  2  1  1  1
  3  2  1  0
  4  2  1  0
  5  4  1  0
  5  6  1  1
  7  8  2  0
  7  5  1  0
  9  7  1  0
 10  9  1  0
 10 11  1  1
 11 12  1  0
 12 17  2  0
 12 13  1  0
 13 14  2  0
 14 15  1  0
 16 15  2  0
 17 16  1  0
 18 10  1  0
 19 18  2  0
 21 22  2  0
 21 20  1  0
 23 21  1  0
 24 23  1  6
 24 25  1  0
 25 18  1  0
 26 24  1  0
 27 26  1  0
 28 26  2  0
M  END
$$$$
