LFN.pdb
     RDKit          3D

 28 28  0  0  1  0  0  0  0  0999 V2000
    8.4557  -14.3141   18.3042 C   0  0  0  0  0  0  0  0  0  0  0  0
    7.7509  -13.5187   19.3553 C   0  0  2  0  0  0  0  0  0  0  0  0
    7.5050  -12.1195   18.8359 C   0  0  0  0  0  0  0  0  0  0  0  0
    8.5267  -13.4963   20.6691 C   0  0  0  0  0  0  0  0  0  0  0  0
    8.5835  -14.9184   21.1626 C   0  0  2  0  0  0  0  0  0  0  0  0
    7.2763  -15.5168   21.0027 N   0  0  0  0  0  0  0  0  0  0  0  0
    9.0325  -15.0527   22.5420 C   0  0  0  0  0  0  0  0  0  0  0  0
   10.1544  -14.5957   22.8619 O   0  0  0  0  0  0  0  0  0  0  0  0
    8.2844  -15.6750   23.5808 N   0  0  0  0  0  0  0  0  0  0  0  0
    8.6979  -15.8178   24.9331 C   0  0  1  0  0  0  0  0  0  0  0  0
    7.5988  -15.6847   25.9452 C   0  0  0  0  0  0  0  0  0  0  0  0
    7.2640  -14.2681   26.1750 C   0  0  0  0  0  0  0  0  0  0  0  0
    8.1682  -13.3848   26.7043 C   0  0  0  0  0  0  0  0  0  0  0  0
    7.8358  -12.0511   26.9153 C   0  0  0  0  0  0  0  0  0  0  0  0
    6.5822  -11.6185   26.5868 C   0  0  0  0  0  0  0  0  0  0  0  0
    5.6489  -12.4810   26.0525 C   0  0  0  0  0  0  0  0  0  0  0  0
    6.0121  -13.8177   25.8514 C   0  0  0  0  0  0  0  0  0  0  0  0
    9.3357  -17.1451   25.1240 C   0  0  0  0  0  0  0  0  0  0  0  0
    9.4018  -17.9694   24.1728 O   0  0  0  0  0  0  0  0  0  0  0  0
   11.7555  -19.6653   24.0591 N   0  0  0  0  0  0  0  0  0  0  0  0
   12.6365  -18.6524   24.5700 C   0  0  0  0  0  0  0  0  0  0  0  0
   13.7799  -18.5216   24.0987 O   0  0  0  0  0  0  0  0  0  0  0  0
   12.1284  -17.8116   25.6410 C   0  0  0  0  0  0  0  0  0  0  0  0
   11.0610  -18.4552   26.4527 C   0  0  2  0  0  0  0  0  0  0  0  0
    9.8899  -17.5415   26.3601 N   0  0  0  0  0  0  0  0  0  0  0  0
   11.3924  -18.6432   27.8865 C   0  0  0  0  0  0  0  0  0  0  0  0
   11.5644  -19.9554   28.3405 O   0  0  0  0  0  0  0  0  0  0  0  0
   11.5220  -17.7051   28.6889 O   0  0  0  0  0  0  0  0  0  0  0  0
  2  1  1  6
  3  2  1  0
  4  2  1  0
  5  4  1  0
  5  6  1  1
  7  8  2  0
  7  5  1  0
  9  7  1  0
 10  9  1  0
 10 11  1  1
 11 12  1  0
 12 17  2  0
 12 13  1  0
 13 14  2  0
 14 15  1  0
 16 15  2  0
 17 16  1  0
 18 10  1  0
 19 18  2  0
 21 22  2  0
 21 20  1  0
 23 21  1  0
 24 23  1  6
 24 25  1  0
 25 18  1  0
 26 24  1  0
 27 26  1  0
 28 26  2  0
M  END
$$$$
