LFN.pdb
     RDKit          3D

 28 28  0  0  1  0  0  0  0  0999 V2000
    6.8907  -13.9653   19.2512 C   0  0  0  0  0  0  0  0  0  0  0  0
    8.0019  -13.4972   20.1346 C   0  0  2  0  0  0  0  0  0  0  0  0
    8.2365  -12.0220   19.8958 C   0  0  0  0  0  0  0  0  0  0  0  0
    9.2786  -14.3054   19.9213 C   0  0  0  0  0  0  0  0  0  0  0  0
    9.1592  -15.5377   20.7793 C   0  0  2  0  0  0  0  0  0  0  0  0
    7.7619  -15.8980   20.8807 N   0  0  0  0  0  0  0  0  0  0  0  0
    9.7396  -15.3969   22.1080 C   0  0  0  0  0  0  0  0  0  0  0  0
   10.9047  -14.9490   22.2166 O   0  0  0  0  0  0  0  0  0  0  0  0
    9.0770  -15.7341   23.3218 N   0  0  0  0  0  0  0  0  0  0  0  0
    9.6042  -15.5689   24.6313 C   0  0  1  0  0  0  0  0  0  0  0  0
    8.5737  -15.4512   25.7149 C   0  0  0  0  0  0  0  0  0  0  0  0
    9.1920  -15.0343   26.9859 C   0  0  0  0  0  0  0  0  0  0  0  0
    9.6504  -15.9435   27.9031 C   0  0  0  0  0  0  0  0  0  0  0  0
   10.2310  -15.5333   29.0982 C   0  0  0  0  0  0  0  0  0  0  0  0
   10.3441  -14.1967   29.3579 C   0  0  0  0  0  0  0  0  0  0  0  0
    9.8932  -13.2560   28.4567 C   0  0  0  0  0  0  0  0  0  0  0  0
    9.3132  -13.6987   27.2622 C   0  0  0  0  0  0  0  0  0  0  0  0
   10.4870  -16.7155   24.9639 C   0  0  0  0  0  0  0  0  0  0  0  0
   10.9209  -16.8738   26.1366 O   0  0  0  0  0  0  0  0  0  0  0  0
    9.3975  -20.1005   24.2619 N   0  0  0  0  0  0  0  0  0  0  0  0
   10.3103  -20.4439   23.2073 C   0  0  0  0  0  0  0  0  0  0  0  0
    9.9849  -21.2787   22.3449 O   0  0  0  0  0  0  0  0  0  0  0  0
   11.6018  -19.7775   23.2063 C   0  0  0  0  0  0  0  0  0  0  0  0
   11.7769  -18.8087   24.3213 C   0  0  2  0  0  0  0  0  0  0  0  0
   10.8768  -17.6684   23.9983 N   0  0  0  0  0  0  0  0  0  0  0  0
   13.1547  -18.2828   24.4829 C   0  0  0  0  0  0  0  0  0  0  0  0
   14.1451  -19.1857   24.8845 O   0  0  0  0  0  0  0  0  0  0  0  0
   13.4642  -17.0977   24.2815 O   0  0  0  0  0  0  0  0  0  0  0  0
  2  1  1  6
  3  2  1  0
  4  2  1  0
  5  4  1  0
  5  6  1  1
  7  8  2  0
  7  5  1  0
  9  7  1  0
 10  9  1  0
 10 11  1  1
 11 12  1  0
 12 17  2  0
 12 13  1  0
 13 14  2  0
 14 15  1  0
 16 15  2  0
 17 16  1  0
 18 10  1  0
 19 18  2  0
 21 22  2  0
 21 20  1  0
 23 21  1  0
 24 23  1  6
 24 25  1  0
 25 18  1  0
 26 24  1  0
 27 26  1  0
 28 26  2  0
M  END
$$$$
