LFN.pdb
     RDKit          3D

 28 28  0  0  1  0  0  0  0  0999 V2000
    8.6740  -20.1502   19.9813 C   0  0  0  0  0  0  0  0  0  0  0  0
   10.0780  -19.6389   19.9400 C   0  0  2  0  0  0  0  0  0  0  0  0
   11.0336  -20.8077   20.0334 C   0  0  0  0  0  0  0  0  0  0  0  0
   10.3438  -18.6136   21.0384 C   0  0  0  0  0  0  0  0  0  0  0  0
    9.3683  -17.4860   20.8232 C   0  0  2  0  0  0  0  0  0  0  0  0
    9.6344  -16.8827   19.5356 N   0  0  0  0  0  0  0  0  0  0  0  0
    9.3910  -16.4712   21.8681 C   0  0  0  0  0  0  0  0  0  0  0  0
   10.4082  -15.7501   21.9914 O   0  0  0  0  0  0  0  0  0  0  0  0
    8.3280  -16.2254   22.7823 N   0  0  0  0  0  0  0  0  0  0  0  0
    8.3767  -15.3462   23.8979 C   0  0  1  0  0  0  0  0  0  0  0  0
    7.0377  -14.9404   24.4388 C   0  0  0  0  0  0  0  0  0  0  0  0
    7.1816  -13.9035   25.4760 C   0  0  0  0  0  0  0  0  0  0  0  0
    7.1307  -14.2013   26.8126 C   0  0  0  0  0  0  0  0  0  0  0  0
    7.2678  -13.2105   27.7787 C   0  0  0  0  0  0  0  0  0  0  0  0
    7.4566  -11.9168   27.3820 C   0  0  0  0  0  0  0  0  0  0  0  0
    7.5126  -11.5833   26.0455 C   0  0  0  0  0  0  0  0  0  0  0  0
    7.3715  -12.6018   25.0959 C   0  0  0  0  0  0  0  0  0  0  0  0
    9.1416  -15.9799   25.0017 C   0  0  0  0  0  0  0  0  0  0  0  0
    8.8816  -17.1565   25.3713 O   0  0  0  0  0  0  0  0  0  0  0  0
   13.3094  -15.0838   24.0916 N   0  0  0  0  0  0  0  0  0  0  0  0
   12.9492  -16.0463   25.0952 C   0  0  0  0  0  0  0  0  0  0  0  0
   13.0792  -17.2626   24.8713 O   0  0  0  0  0  0  0  0  0  0  0  0
   12.4376  -15.5305   26.3540 C   0  0  0  0  0  0  0  0  0  0  0  0
   11.0575  -15.9856   26.6712 C   0  0  2  0  0  0  0  0  0  0  0  0
   10.1802  -15.3061   25.6795 N   0  0  0  0  0  0  0  0  0  0  0  0
   10.5803  -15.6356   28.0317 C   0  0  0  0  0  0  0  0  0  0  0  0
    9.5902  -14.6523   28.1330 O   0  0  0  0  0  0  0  0  0  0  0  0
   11.0120  -16.1663   29.0673 O   0  0  0  0  0  0  0  0  0  0  0  0
  2  1  1  1
  3  2  1  0
  4  2  1  0
  5  4  1  0
  5  6  1  6
  7  8  2  0
  7  5  1  0
  9  7  1  0
 10  9  1  0
 10 11  1  1
 11 12  1  0
 12 17  2  0
 12 13  1  0
 13 14  2  0
 14 15  1  0
 16 15  2  0
 17 16  1  0
 18 10  1  0
 19 18  2  0
 21 22  2  0
 21 20  1  0
 23 21  1  0
 24 23  1  1
 24 25  1  0
 25 18  1  0
 26 24  1  0
 27 26  1  0
 28 26  2  0
M  END
$$$$
