LFN.pdb
     RDKit          3D

 28 28  0  0  1  0  0  0  0  0999 V2000
    8.9691  -14.9975   17.5802 C   0  0  0  0  0  0  0  0  0  0  0  0
    7.9537  -14.1576   18.2858 C   0  0  2  0  0  0  0  0  0  0  0  0
    7.6285  -12.9521   17.4319 C   0  0  0  0  0  0  0  0  0  0  0  0
    8.4238  -13.7436   19.6772 C   0  0  0  0  0  0  0  0  0  0  0  0
    8.6233  -15.0136   20.4624 C   0  0  2  0  0  0  0  0  0  0  0  0
    7.4801  -15.8741   20.2496 N   0  0  0  0  0  0  0  0  0  0  0  0
    8.8370  -14.8050   21.8882 C   0  0  0  0  0  0  0  0  0  0  0  0
    9.9189  -14.3032   22.2724 O   0  0  0  0  0  0  0  0  0  0  0  0
    7.8961  -15.1317   22.9051 N   0  0  0  0  0  0  0  0  0  0  0  0
    7.9156  -14.6507   24.2423 C   0  0  1  0  0  0  0  0  0  0  0  0
    6.5680  -14.3212   24.8128 C   0  0  0  0  0  0  0  0  0  0  0  0
    6.6914  -13.3971   25.9540 C   0  0  0  0  0  0  0  0  0  0  0  0
    6.2089  -12.1153   25.9060 C   0  0  0  0  0  0  0  0  0  0  0  0
    6.3342  -11.2557   26.9919 C   0  0  0  0  0  0  0  0  0  0  0  0
    6.9511  -11.7029   28.1260 C   0  0  0  0  0  0  0  0  0  0  0  0
    7.4476  -12.9864   28.2072 C   0  0  0  0  0  0  0  0  0  0  0  0
    7.3069  -13.8289   27.0983 C   0  0  0  0  0  0  0  0  0  0  0  0
    8.5517  -15.6588   25.1277 C   0  0  0  0  0  0  0  0  0  0  0  0
    8.7715  -15.4009   26.3417 O   0  0  0  0  0  0  0  0  0  0  0  0
    6.5547  -19.3571   24.4216 N   0  0  0  0  0  0  0  0  0  0  0  0
    7.4560  -19.2127   25.5307 C   0  0  0  0  0  0  0  0  0  0  0  0
    7.0122  -19.0803   26.6848 O   0  0  0  0  0  0  0  0  0  0  0  0
    8.8787  -19.2297   25.2343 C   0  0  0  0  0  0  0  0  0  0  0  0
    9.5703  -17.9496   25.5434 C   0  0  2  0  0  0  0  0  0  0  0  0
    8.9347  -16.9344   24.6602 N   0  0  0  0  0  0  0  0  0  0  0  0
   11.0303  -17.9475   25.2796 C   0  0  0  0  0  0  0  0  0  0  0  0
   11.4450  -17.7488   23.9582 O   0  0  0  0  0  0  0  0  0  0  0  0
   11.8868  -18.1113   26.1628 O   0  0  0  0  0  0  0  0  0  0  0  0
  2  1  1  6
  3  2  1  0
  4  2  1  0
  5  4  1  0
  5  6  1  1
  7  8  2  0
  7  5  1  0
  9  7  1  0
 10  9  1  0
 10 11  1  1
 11 12  1  0
 12 17  2  0
 12 13  1  0
 13 14  2  0
 14 15  1  0
 16 15  2  0
 17 16  1  0
 18 10  1  0
 19 18  2  0
 21 22  2  0
 21 20  1  0
 23 21  1  0
 24 23  1  6
 24 25  1  0
 25 18  1  0
 26 24  1  0
 27 26  1  0
 28 26  2  0
M  END
$$$$
