LFN.pdb
     RDKit          3D

 28 28  0  0  1  0  0  0  0  0999 V2000
    8.4326  -14.2721   18.2949 C   0  0  0  0  0  0  0  0  0  0  0  0
    7.7090  -13.5173   19.3631 C   0  0  2  0  0  0  0  0  0  0  0  0
    7.4075  -12.1211   18.8653 C   0  0  0  0  0  0  0  0  0  0  0  0
    8.4957  -13.4843   20.6702 C   0  0  0  0  0  0  0  0  0  0  0  0
    8.5093  -14.8932   21.2030 C   0  0  2  0  0  0  0  0  0  0  0  0
    7.2005  -15.4763   21.0042 N   0  0  0  0  0  0  0  0  0  0  0  0
    8.8985  -14.9969   22.6030 C   0  0  0  0  0  0  0  0  0  0  0  0
   10.0018  -14.5245   22.9625 O   0  0  0  0  0  0  0  0  0  0  0  0
    8.1102  -15.6049   23.6203 N   0  0  0  0  0  0  0  0  0  0  0  0
    8.4751  -15.7382   24.9875 C   0  0  1  0  0  0  0  0  0  0  0  0
    7.3406  -15.5976   25.9587 C   0  0  0  0  0  0  0  0  0  0  0  0
    7.1193  -14.1831   26.3079 C   0  0  0  0  0  0  0  0  0  0  0  0
    5.8638  -13.6367   26.3639 C   0  0  0  0  0  0  0  0  0  0  0  0
    5.6725  -12.2996   26.6947 C   0  0  0  0  0  0  0  0  0  0  0  0
    6.7609  -11.5202   26.9681 C   0  0  0  0  0  0  0  0  0  0  0  0
    8.0374  -12.0386   26.9207 C   0  0  0  0  0  0  0  0  0  0  0  0
    8.1989  -13.3877   26.5849 C   0  0  0  0  0  0  0  0  0  0  0  0
    9.1048  -17.0643   25.2106 C   0  0  0  0  0  0  0  0  0  0  0  0
    8.4019  -18.0688   25.5030 O   0  0  0  0  0  0  0  0  0  0  0  0
   13.5237  -20.5202   23.7800 N   0  0  0  0  0  0  0  0  0  0  0  0
   13.3277  -19.6401   24.8982 C   0  0  0  0  0  0  0  0  0  0  0  0
   13.8667  -19.8873   25.9913 O   0  0  0  0  0  0  0  0  0  0  0  0
   12.4857  -18.4750   24.6842 C   0  0  0  0  0  0  0  0  0  0  0  0
   11.1311  -18.5962   25.2865 C   0  0  2  0  0  0  0  0  0  0  0  0
   10.4987  -17.2610   25.1075 N   0  0  0  0  0  0  0  0  0  0  0  0
   11.1164  -18.9281   26.7325 C   0  0  0  0  0  0  0  0  0  0  0  0
   11.3634  -17.8871   27.6340 O   0  0  0  0  0  0  0  0  0  0  0  0
   10.8987  -20.0683   27.1720 O   0  0  0  0  0  0  0  0  0  0  0  0
  2  1  1  6
  3  2  1  0
  4  2  1  0
  5  4  1  0
  5  6  1  1
  7  8  2  0
  7  5  1  0
  9  7  1  0
 10  9  1  0
 10 11  1  1
 11 12  1  0
 12 17  2  0
 12 13  1  0
 13 14  2  0
 14 15  1  0
 16 15  2  0
 17 16  1  0
 18 10  1  0
 19 18  2  0
 21 22  2  0
 21 20  1  0
 23 21  1  0
 24 23  1  1
 24 25  1  0
 25 18  1  0
 26 24  1  0
 27 26  1  0
 28 26  2  0
M  END
$$$$
