LFL.pdb
     RDKit          3D

 28 28  0  0  1  0  0  0  0  0999 V2000
   26.2355  -15.3209  -19.2494 C   0  0  0  0  0  0  0  0  0  0  0  0
   25.3209  -16.3079  -18.5645 C   0  0  1  0  0  0  0  0  0  0  0  0
   25.0052  -17.4810  -19.4462 C   0  0  0  0  0  0  0  0  0  0  0  0
   25.7999  -16.6766  -17.1909 C   0  0  0  0  0  0  0  0  0  0  0  0
   25.3127  -18.0442  -16.7633 C   0  0  2  0  0  0  0  0  0  0  0  0
   23.8905  -18.1772  -16.7339 N   0  0  0  0  0  0  0  0  0  0  0  0
   25.8609  -18.3528  -15.4222 C   0  0  0  0  0  0  0  0  0  0  0  0
   27.0816  -18.2023  -15.1984 O   0  0  0  0  0  0  0  0  0  0  0  0
   25.0494  -18.8200  -14.3610 N   0  0  0  0  0  0  0  0  0  0  0  0
   25.5453  -19.1390  -13.0381 C   0  0  1  0  0  0  0  0  0  0  0  0
   24.4348  -18.8840  -12.0576 C   0  0  0  0  0  0  0  0  0  0  0  0
   24.8409  -19.1677  -10.6647 C   0  0  0  0  0  0  0  0  0  0  0  0
   25.6368  -18.3164   -9.9215 C   0  0  0  0  0  0  0  0  0  0  0  0
   25.9803  -18.6374   -8.6275 C   0  0  0  0  0  0  0  0  0  0  0  0
   25.5395  -19.8048   -8.0562 C   0  0  0  0  0  0  0  0  0  0  0  0
   24.7501  -20.6496   -8.7941 C   0  0  0  0  0  0  0  0  0  0  0  0
   24.3992  -20.3394  -10.0893 C   0  0  0  0  0  0  0  0  0  0  0  0
   26.0185  -20.5615  -12.9594 C   0  0  0  0  0  0  0  0  0  0  0  0
   25.4154  -21.4899  -13.5537 O   0  0  0  0  0  0  0  0  0  0  0  0
   31.3444  -21.1841  -11.1955 C   0  0  0  0  0  0  0  0  0  0  0  0
   30.0715  -21.3359  -11.9706 C   0  0  1  0  0  0  0  0  0  0  0  0
   30.4441  -21.7907  -13.3689 C   0  0  0  0  0  0  0  0  0  0  0  0
   28.9693  -22.0753  -11.3633 C   0  0  0  0  0  0  0  0  0  0  0  0
   27.6509  -22.2055  -11.9807 C   0  0  2  0  0  0  0  0  0  0  0  0
   27.1678  -20.8166  -12.1921 N   0  0  0  0  0  0  0  0  0  0  0  0
   26.6227  -23.0302  -11.3895 C   0  0  0  0  0  0  0  0  0  0  0  0
   26.5766  -24.3108  -11.5609 O   0  0  0  0  0  0  0  0  0  0  0  0
   25.5870  -22.5847  -10.5841 O   0  0  0  0  0  0  0  0  0  0  0  0
  2  3  1  6
  2  1  1  0
  4  2  1  0
  5  4  1  0
  5  6  1  1
  7  8  2  0
  7  5  1  0
  9  7  1  0
 10  9  1  0
 11 12  1  0
 10 11  1  1
 12 17  2  0
 12 13  1  0
 13 14  2  0
 14 15  1  0
 16 15  2  0
 17 16  1  0
 18 10  1  0
 18 19  2  0
 21 23  1  0
 21 20  1  1
 22 21  1  0
 24 25  1  0
 24 23  1  1
 25 18  1  0
 26 24  1  0
 27 26  2  0
 28 26  1  0
M  END
$$$$
