LFL.pdb
     RDKit          3D

 28 28  0  0  1  0  0  0  0  0999 V2000
   22.0782  -20.2265  -22.0155 C   0  0  0  0  0  0  0  0  0  0  0  0
   21.4191  -20.7292  -20.7535 C   0  0  1  0  0  0  0  0  0  0  0  0
   20.1912  -21.5402  -21.0501 C   0  0  0  0  0  0  0  0  0  0  0  0
   22.3914  -21.3946  -19.8239 C   0  0  0  0  0  0  0  0  0  0  0  0
   21.8935  -21.4156  -18.3949 C   0  0  2  0  0  0  0  0  0  0  0  0
   21.0525  -20.3130  -18.0508 N   0  0  0  0  0  0  0  0  0  0  0  0
   23.0580  -21.4471  -17.4799 C   0  0  0  0  0  0  0  0  0  0  0  0
   23.8724  -22.3935  -17.5404 O   0  0  0  0  0  0  0  0  0  0  0  0
   23.2956  -20.4341  -16.5206 N   0  0  0  0  0  0  0  0  0  0  0  0
   24.4408  -20.4063  -15.6343 C   0  0  1  0  0  0  0  0  0  0  0  0
   25.1082  -19.0682  -15.7884 C   0  0  0  0  0  0  0  0  0  0  0  0
   26.3436  -18.9621  -14.9832 C   0  0  0  0  0  0  0  0  0  0  0  0
   27.5007  -19.6575  -15.2798 C   0  0  0  0  0  0  0  0  0  0  0  0
   28.6197  -19.5153  -14.4905 C   0  0  0  0  0  0  0  0  0  0  0  0
   28.6043  -18.6835  -13.3990 C   0  0  0  0  0  0  0  0  0  0  0  0
   27.4557  -17.9939  -13.1047 C   0  0  0  0  0  0  0  0  0  0  0  0
   26.3300  -18.1273  -13.8869 C   0  0  0  0  0  0  0  0  0  0  0  0
   24.0354  -20.6461  -14.2089 C   0  0  0  0  0  0  0  0  0  0  0  0
   22.8996  -20.3184  -13.7832 O   0  0  0  0  0  0  0  0  0  0  0  0
   27.7627  -21.5226   -9.3848 C   0  0  0  0  0  0  0  0  0  0  0  0
   26.3466  -21.4656   -9.8700 C   0  0  1  0  0  0  0  0  0  0  0  0
   25.6216  -20.4307   -9.0308 C   0  0  0  0  0  0  0  0  0  0  0  0
   26.1050  -21.3631  -11.3057 C   0  0  0  0  0  0  0  0  0  0  0  0
   24.7686  -21.3034  -11.8946 C   0  0  2  0  0  0  0  0  0  0  0  0
   24.9795  -21.2547  -13.3644 N   0  0  0  0  0  0  0  0  0  0  0  0
   23.8057  -20.3123  -11.4735 C   0  0  0  0  0  0  0  0  0  0  0  0
   22.8246  -20.5917  -10.6794 O   0  0  0  0  0  0  0  0  0  0  0  0
   23.8011  -18.9764  -11.8413 O   0  0  0  0  0  0  0  0  0  0  0  0
  2  3  1  6
  2  1  1  0
  4  2  1  0
  5  4  1  0
  5  6  1  1
  7  8  2  0
  7  5  1  0
  9  7  1  0
 10  9  1  0
 11 12  1  0
 10 11  1  1
 12 17  2  0
 12 13  1  0
 13 14  2  0
 14 15  1  0
 16 15  2  0
 17 16  1  0
 18 10  1  0
 18 19  2  0
 21 23  1  0
 21 20  1  6
 22 21  1  0
 24 25  1  0
 24 23  1  1
 25 18  1  0
 26 24  1  0
 27 26  2  0
 28 26  1  0
M  END
$$$$
