LFL.pdb
     RDKit          3D

 28 28  0  0  1  0  0  0  0  0999 V2000
   25.7338  -24.3921  -17.5287 C   0  0  0  0  0  0  0  0  0  0  0  0
   24.9530  -23.4849  -16.6083 C   0  0  1  0  0  0  0  0  0  0  0  0
   23.4813  -23.7774  -16.6528 C   0  0  0  0  0  0  0  0  0  0  0  0
   25.5327  -23.4338  -15.2250 C   0  0  0  0  0  0  0  0  0  0  0  0
   24.8033  -22.4507  -14.3351 C   0  0  2  0  0  0  0  0  0  0  0  0
   24.7183  -21.1282  -14.8687 N   0  0  0  0  0  0  0  0  0  0  0  0
   25.4764  -22.4041  -13.0164 C   0  0  0  0  0  0  0  0  0  0  0  0
   25.7155  -23.4657  -12.4010 O   0  0  0  0  0  0  0  0  0  0  0  0
   25.8692  -21.1878  -12.4087 N   0  0  0  0  0  0  0  0  0  0  0  0
   26.5186  -21.0968  -11.1173 C   0  0  1  0  0  0  0  0  0  0  0  0
   27.4374  -19.9075  -11.1482 C   0  0  0  0  0  0  0  0  0  0  0  0
   28.1581  -19.7227   -9.8706 C   0  0  0  0  0  0  0  0  0  0  0  0
   27.7212  -18.8716   -8.8731 C   0  0  0  0  0  0  0  0  0  0  0  0
   28.4376  -18.7435   -7.7044 C   0  0  0  0  0  0  0  0  0  0  0  0
   29.5941  -19.4568   -7.5116 C   0  0  0  0  0  0  0  0  0  0  0  0
   30.0276  -20.3010   -8.5019 C   0  0  0  0  0  0  0  0  0  0  0  0
   29.3196  -20.4381   -9.6752 C   0  0  0  0  0  0  0  0  0  0  0  0
   25.5150  -20.9746  -10.0075 C   0  0  0  0  0  0  0  0  0  0  0  0
   24.3391  -20.5882  -10.2228 O   0  0  0  0  0  0  0  0  0  0  0  0
   24.5245  -22.3948   -4.6239 C   0  0  0  0  0  0  0  0  0  0  0  0
   25.3545  -21.2080   -5.0069 C   0  0  1  0  0  0  0  0  0  0  0  0
   26.4038  -21.0217   -3.9273 C   0  0  0  0  0  0  0  0  0  0  0  0
   25.8641  -21.1247   -6.3720 C   0  0  0  0  0  0  0  0  0  0  0  0
   25.0135  -21.2284   -7.5561 C   0  0  2  0  0  0  0  0  0  0  0  0
   25.9431  -21.3111   -8.7120 N   0  0  0  0  0  0  0  0  0  0  0  0
   23.9548  -20.2778   -7.8061 C   0  0  0  0  0  0  0  0  0  0  0  0
   24.1795  -19.1011   -8.2921 O   0  0  0  0  0  0  0  0  0  0  0  0
   22.6046  -20.4864   -7.5753 O   0  0  0  0  0  0  0  0  0  0  0  0
  2  3  1  1
  2  1  1  0
  4  2  1  0
  5  4  1  0
  5  6  1  6
  7  8  2  0
  7  5  1  0
  9  7  1  0
 10  9  1  0
 11 12  1  0
 10 11  1  6
 12 17  2  0
 12 13  1  0
 13 14  2  0
 14 15  1  0
 16 15  2  0
 17 16  1  0
 18 10  1  0
 18 19  2  0
 21 23  1  0
 21 20  1  1
 22 21  1  0
 24 25  1  0
 24 23  1  1
 25 18  1  0
 26 24  1  0
 27 26  2  0
 28 26  1  0
M  END
$$$$
