LFL.pdb
     RDKit          3D

 28 28  0  0  1  0  0  0  0  0999 V2000
   28.6832  -15.9028  -18.6337 C   0  0  0  0  0  0  0  0  0  0  0  0
   28.0400  -17.2588  -18.4674 C   0  0  1  0  0  0  0  0  0  0  0  0
   29.0560  -18.3278  -18.1874 C   0  0  0  0  0  0  0  0  0  0  0  0
   26.8870  -17.2333  -17.5072 C   0  0  0  0  0  0  0  0  0  0  0  0
   26.5718  -18.6069  -16.9554 C   0  0  2  0  0  0  0  0  0  0  0  0
   26.2697  -19.5842  -17.9528 N   0  0  0  0  0  0  0  0  0  0  0  0
   25.4320  -18.4981  -16.0156 C   0  0  0  0  0  0  0  0  0  0  0  0
   25.4211  -17.5951  -15.1513 O   0  0  0  0  0  0  0  0  0  0  0  0
   24.3322  -19.3881  -16.0522 N   0  0  0  0  0  0  0  0  0  0  0  0
   23.1568  -19.2627  -15.2152 C   0  0  1  0  0  0  0  0  0  0  0  0
   21.9538  -19.2254  -16.1157 C   0  0  0  0  0  0  0  0  0  0  0  0
   21.8346  -17.9414  -16.8387 C   0  0  0  0  0  0  0  0  0  0  0  0
   22.3259  -17.7449  -18.1155 C   0  0  0  0  0  0  0  0  0  0  0  0
   22.1829  -16.5243  -18.7361 C   0  0  0  0  0  0  0  0  0  0  0  0
   21.5520  -15.4856  -18.0984 C   0  0  0  0  0  0  0  0  0  0  0  0
   21.0649  -15.6807  -16.8312 C   0  0  0  0  0  0  0  0  0  0  0  0
   21.2014  -16.8972  -16.2001 C   0  0  0  0  0  0  0  0  0  0  0  0
   23.0610  -20.3944  -14.2334 C   0  0  0  0  0  0  0  0  0  0  0  0
   23.1134  -21.5938  -14.6039 O   0  0  0  0  0  0  0  0  0  0  0  0
   25.7064  -20.0489   -9.5499 C   0  0  0  0  0  0  0  0  0  0  0  0
   24.9771  -20.4699  -10.7888 C   0  0  1  0  0  0  0  0  0  0  0  0
   25.7653  -21.6048  -11.4148 C   0  0  0  0  0  0  0  0  0  0  0  0
   23.5383  -20.7007  -10.7065 C   0  0  0  0  0  0  0  0  0  0  0  0
   22.7230  -21.1136  -11.8472 C   0  0  2  0  0  0  0  0  0  0  0  0
   22.9103  -20.0593  -12.8769 N   0  0  0  0  0  0  0  0  0  0  0  0
   21.3261  -21.4466  -11.6908 C   0  0  0  0  0  0  0  0  0  0  0  0
   20.3775  -20.6383  -12.0344 O   0  0  0  0  0  0  0  0  0  0  0  0
   20.8262  -22.6324  -11.1769 O   0  0  0  0  0  0  0  0  0  0  0  0
  2  3  1  1
  2  1  1  0
  4  2  1  0
  5  4  1  0
  5  6  1  6
  7  8  2  0
  7  5  1  0
  9  7  1  0
 10  9  1  0
 11 12  1  0
 10 11  1  6
 12 17  2  0
 12 13  1  0
 13 14  2  0
 14 15  1  0
 16 15  2  0
 17 16  1  0
 18 10  1  0
 18 19  2  0
 21 23  1  0
 21 20  1  1
 22 21  1  0
 24 25  1  0
 24 23  1  1
 25 18  1  0
 26 24  1  0
 27 26  2  0
 28 26  1  0
M  END
$$$$
