LFL.pdb
     RDKit          3D

 28 28  0  0  1  0  0  0  0  0999 V2000
   21.9662  -21.0471  -15.8528 C   0  0  0  0  0  0  0  0  0  0  0  0
   22.3038  -20.3636  -14.5495 C   0  0  1  0  0  0  0  0  0  0  0  0
   21.1245  -20.3172  -13.6218 C   0  0  0  0  0  0  0  0  0  0  0  0
   23.5598  -20.9008  -13.9281 C   0  0  0  0  0  0  0  0  0  0  0  0
   23.8232  -20.3032  -12.5628 C   0  0  2  0  0  0  0  0  0  0  0  0
   24.0398  -18.8911  -12.5727 N   0  0  0  0  0  0  0  0  0  0  0  0
   24.9994  -20.9745  -11.9625 C   0  0  0  0  0  0  0  0  0  0  0  0
   25.0533  -22.2229  -11.9268 O   0  0  0  0  0  0  0  0  0  0  0  0
   26.0870  -20.2523  -11.4162 N   0  0  0  0  0  0  0  0  0  0  0  0
   27.2219  -20.8663  -10.7581 C   0  0  1  0  0  0  0  0  0  0  0  0
   28.3314  -19.8530  -10.7158 C   0  0  0  0  0  0  0  0  0  0  0  0
   29.5874  -20.4194  -10.1795 C   0  0  0  0  0  0  0  0  0  0  0  0
   30.2509  -21.4787  -10.7694 C   0  0  0  0  0  0  0  0  0  0  0  0
   31.4181  -21.9610  -10.2211 C   0  0  0  0  0  0  0  0  0  0  0  0
   31.9401  -21.3993   -9.0829 C   0  0  0  0  0  0  0  0  0  0  0  0
   31.2812  -20.3484   -8.4975 C   0  0  0  0  0  0  0  0  0  0  0  0
   30.1131  -19.8567   -9.0367 C   0  0  0  0  0  0  0  0  0  0  0  0
   26.8659  -21.3346   -9.3769 C   0  0  0  0  0  0  0  0  0  0  0  0
   26.5840  -22.5362   -9.1413 O   0  0  0  0  0  0  0  0  0  0  0  0
   29.0859  -18.8842   -4.4452 C   0  0  0  0  0  0  0  0  0  0  0  0
   28.4515  -20.0301   -5.1722 C   0  0  1  0  0  0  0  0  0  0  0  0
   28.0663  -21.0673   -4.1346 C   0  0  0  0  0  0  0  0  0  0  0  0
   27.4154  -19.7419   -6.1589 C   0  0  0  0  0  0  0  0  0  0  0  0
   26.7270  -20.7765   -6.9286 C   0  0  2  0  0  0  0  0  0  0  0  0
   26.8603  -20.3731   -8.3521 N   0  0  0  0  0  0  0  0  0  0  0  0
   25.3693  -21.1629   -6.6216 C   0  0  0  0  0  0  0  0  0  0  0  0
   25.0724  -21.9076   -5.6075 O   0  0  0  0  0  0  0  0  0  0  0  0
   24.2399  -20.8003   -7.3376 O   0  0  0  0  0  0  0  0  0  0  0  0
  2  3  1  1
  2  1  1  0
  4  2  1  0
  5  4  1  0
  5  6  1  6
  7  8  2  0
  7  5  1  0
  9  7  1  0
 10  9  1  0
 11 12  1  0
 10 11  1  1
 12 17  2  0
 12 13  1  0
 13 14  2  0
 14 15  1  0
 16 15  2  0
 17 16  1  0
 18 10  1  0
 18 19  2  0
 21 23  1  0
 21 20  1  1
 22 21  1  0
 24 25  1  0
 24 23  1  1
 25 18  1  0
 26 24  1  0
 27 26  2  0
 28 26  1  0
M  END
$$$$
