LFL.pdb
     RDKit          3D

 28 28  0  0  1  0  0  0  0  0999 V2000
   25.1313  -18.7863  -16.3420 C   0  0  0  0  0  0  0  0  0  0  0  0
   26.1166  -19.8558  -15.9357 C   0  0  1  0  0  0  0  0  0  0  0  0
   27.1471  -20.0986  -16.9999 C   0  0  0  0  0  0  0  0  0  0  0  0
   26.6837  -19.6233  -14.5658 C   0  0  0  0  0  0  0  0  0  0  0  0
   25.8514  -20.2770  -13.4839 C   0  0  2  0  0  0  0  0  0  0  0  0
   24.5548  -19.7018  -13.3136 N   0  0  0  0  0  0  0  0  0  0  0  0
   26.5896  -20.2083  -12.2014 C   0  0  0  0  0  0  0  0  0  0  0  0
   27.8103  -20.4757  -12.1701 O   0  0  0  0  0  0  0  0  0  0  0  0
   25.9631  -19.8465  -10.9850 N   0  0  0  0  0  0  0  0  0  0  0  0
   26.6478  -19.7632   -9.7114 C   0  0  1  0  0  0  0  0  0  0  0  0
   25.9080  -18.7727   -8.8563 C   0  0  0  0  0  0  0  0  0  0  0  0
   26.5617  -18.5644   -7.5467 C   0  0  0  0  0  0  0  0  0  0  0  0
   27.6748  -17.7628   -7.3770 C   0  0  0  0  0  0  0  0  0  0  0  0
   28.2378  -17.6087   -6.1301 C   0  0  0  0  0  0  0  0  0  0  0  0
   27.7045  -18.2471   -5.0385 C   0  0  0  0  0  0  0  0  0  0  0  0
   26.6002  -19.0429   -5.2073 C   0  0  0  0  0  0  0  0  0  0  0  0
   26.0276  -19.2046   -6.4495 C   0  0  0  0  0  0  0  0  0  0  0  0
   26.7223  -21.1047   -9.0415 C   0  0  0  0  0  0  0  0  0  0  0  0
   25.8617  -21.9952   -9.2535 O   0  0  0  0  0  0  0  0  0  0  0  0
   31.6861  -22.1122   -6.6219 C   0  0  0  0  0  0  0  0  0  0  0  0
   30.4047  -22.1494   -7.3970 C   0  0  1  0  0  0  0  0  0  0  0  0
   30.6740  -22.9112   -8.6808 C   0  0  0  0  0  0  0  0  0  0  0  0
   29.1812  -22.5388   -6.7032 C   0  0  0  0  0  0  0  0  0  0  0  0
   27.8668  -22.5632   -7.3420 C   0  0  2  0  0  0  0  0  0  0  0  0
   27.7971  -21.3277   -8.1640 N   0  0  0  0  0  0  0  0  0  0  0  0
   26.6594  -22.7437   -6.5697 C   0  0  0  0  0  0  0  0  0  0  0  0
   26.4254  -23.8175   -5.8889 O   0  0  0  0  0  0  0  0  0  0  0  0
   25.6270  -21.8273   -6.4498 O   0  0  0  0  0  0  0  0  0  0  0  0
  2  3  1  6
  2  1  1  0
  4  2  1  0
  5  4  1  0
  5  6  1  1
  7  8  2  0
  7  5  1  0
  9  7  1  0
 10  9  1  0
 11 12  1  0
 10 11  1  1
 12 17  2  0
 12 13  1  0
 13 14  2  0
 14 15  1  0
 16 15  2  0
 17 16  1  0
 18 10  1  0
 18 19  2  0
 21 23  1  0
 21 20  1  1
 22 21  1  0
 24 25  1  0
 24 23  1  1
 25 18  1  0
 26 24  1  0
 27 26  2  0
 28 26  1  0
M  END
$$$$
