LFL.pdb
     RDKit          3D

 28 28  0  0  1  0  0  0  0  0999 V2000
   27.5162  -17.6913  -17.3188 C   0  0  0  0  0  0  0  0  0  0  0  0
   28.1653  -18.1682  -16.0417 C   0  0  1  0  0  0  0  0  0  0  0  0
   28.6748  -17.0244  -15.2137 C   0  0  0  0  0  0  0  0  0  0  0  0
   27.3060  -19.1423  -15.2901 C   0  0  0  0  0  0  0  0  0  0  0  0
   27.9816  -19.6509  -14.0349 C   0  0  2  0  0  0  0  0  0  0  0  0
   29.1566  -20.4274  -14.2751 N   0  0  0  0  0  0  0  0  0  0  0  0
   27.0114  -20.4582  -13.2595 C   0  0  0  0  0  0  0  0  0  0  0  0
   26.9211  -21.6883  -13.4630 O   0  0  0  0  0  0  0  0  0  0  0  0
   26.1647  -19.8889  -12.2787 N   0  0  0  0  0  0  0  0  0  0  0  0
   25.1751  -20.6335  -11.5278 C   0  0  1  0  0  0  0  0  0  0  0  0
   24.8870  -19.8705  -10.2651 C   0  0  0  0  0  0  0  0  0  0  0  0
   25.9736  -20.0012   -9.2711 C   0  0  0  0  0  0  0  0  0  0  0  0
   26.2909  -19.0081   -8.3637 C   0  0  0  0  0  0  0  0  0  0  0  0
   27.3149  -19.1908   -7.4618 C   0  0  0  0  0  0  0  0  0  0  0  0
   28.0355  -20.3587   -7.4495 C   0  0  0  0  0  0  0  0  0  0  0  0
   27.7208  -21.3439   -8.3504 C   0  0  0  0  0  0  0  0  0  0  0  0
   26.6983  -21.1733   -9.2572 C   0  0  0  0  0  0  0  0  0  0  0  0
   23.9231  -20.8424  -12.3295 C   0  0  0  0  0  0  0  0  0  0  0  0
   23.3750  -19.8989  -12.9525 O   0  0  0  0  0  0  0  0  0  0  0  0
   23.2698  -25.7347  -14.8288 C   0  0  0  0  0  0  0  0  0  0  0  0
   23.2312  -24.2779  -14.4818 C   0  0  1  0  0  0  0  0  0  0  0  0
   23.2747  -23.5008  -15.7838 C   0  0  0  0  0  0  0  0  0  0  0  0
   22.2273  -23.8144  -13.5293 C   0  0  0  0  0  0  0  0  0  0  0  0
   22.1210  -22.4264  -13.0836 C   0  0  2  0  0  0  0  0  0  0  0  0
   23.3850  -22.1403  -12.3573 N   0  0  0  0  0  0  0  0  0  0  0  0
   20.9747  -21.9629  -12.3366 C   0  0  0  0  0  0  0  0  0  0  0  0
   19.8176  -21.7810  -12.8837 O   0  0  0  0  0  0  0  0  0  0  0  0
   20.9529  -21.6656  -10.9835 O   0  0  0  0  0  0  0  0  0  0  0  0
  2  3  1  1
  2  1  1  0
  4  2  1  0
  5  4  1  0
  5  6  1  6
  7  8  2  0
  7  5  1  0
  9  7  1  0
 10  9  1  0
 11 12  1  0
 10 11  1  1
 12 17  2  0
 12 13  1  0
 13 14  2  0
 14 15  1  0
 16 15  2  0
 17 16  1  0
 18 10  1  0
 18 19  2  0
 21 23  1  0
 21 20  1  6
 22 21  1  0
 24 25  1  0
 24 23  1  1
 25 18  1  0
 26 24  1  0
 27 26  2  0
 28 26  1  0
M  END
$$$$
