LFL.pdb
     RDKit          3D

 28 28  0  0  1  0  0  0  0  0999 V2000
   28.3412  -17.1038  -15.6698 C   0  0  0  0  0  0  0  0  0  0  0  0
   28.6304  -18.5623  -15.9326 C   0  0  1  0  0  0  0  0  0  0  0  0
   30.0317  -18.7729  -16.4279 C   0  0  0  0  0  0  0  0  0  0  0  0
   28.2422  -19.4412  -14.7798 C   0  0  0  0  0  0  0  0  0  0  0  0
   26.7451  -19.4680  -14.5599 C   0  0  2  0  0  0  0  0  0  0  0  0
   26.1746  -18.1945  -14.2536 N   0  0  0  0  0  0  0  0  0  0  0  0
   26.4362  -20.4184  -13.4665 C   0  0  0  0  0  0  0  0  0  0  0  0
   26.7679  -21.6190  -13.5723 O   0  0  0  0  0  0  0  0  0  0  0  0
   25.7690  -20.0212  -12.2832 N   0  0  0  0  0  0  0  0  0  0  0  0
   25.3997  -20.9271  -11.2151 C   0  0  1  0  0  0  0  0  0  0  0  0
   25.5023  -20.1739   -9.9183 C   0  0  0  0  0  0  0  0  0  0  0  0
   26.8326  -20.3191   -9.2897 C   0  0  0  0  0  0  0  0  0  0  0  0
   27.1563  -19.7585   -8.0685 C   0  0  0  0  0  0  0  0  0  0  0  0
   28.4139  -19.9304   -7.5353 C   0  0  0  0  0  0  0  0  0  0  0  0
   29.3640  -20.6590   -8.2061 C   0  0  0  0  0  0  0  0  0  0  0  0
   29.0426  -21.2148   -9.4181 C   0  0  0  0  0  0  0  0  0  0  0  0
   27.7879  -21.0504   -9.9617 C   0  0  0  0  0  0  0  0  0  0  0  0
   24.0152  -21.4723  -11.4143 C   0  0  0  0  0  0  0  0  0  0  0  0
   23.5136  -22.3031  -10.6162 O   0  0  0  0  0  0  0  0  0  0  0  0
   19.2765  -18.9326  -11.1137 C   0  0  0  0  0  0  0  0  0  0  0  0
   20.1949  -20.1107  -11.2272 C   0  0  1  0  0  0  0  0  0  0  0  0
   19.3580  -21.3589  -11.0204 C   0  0  0  0  0  0  0  0  0  0  0  0
   21.1119  -20.1734  -12.3608 C   0  0  0  0  0  0  0  0  0  0  0  0
   21.8676  -21.3720  -12.7193 C   0  0  2  0  0  0  0  0  0  0  0  0
   23.2977  -21.0155  -12.5329 N   0  0  0  0  0  0  0  0  0  0  0  0
   21.6583  -22.0426  -13.9815 C   0  0  0  0  0  0  0  0  0  0  0  0
   22.4864  -21.9376  -14.9686 O   0  0  0  0  0  0  0  0  0  0  0  0
   20.5876  -22.8634  -14.2976 O   0  0  0  0  0  0  0  0  0  0  0  0
  2  3  1  1
  2  1  1  0
  4  2  1  0
  5  4  1  0
  5  6  1  1
  7  8  2  0
  7  5  1  0
  9  7  1  0
 10  9  1  0
 11 12  1  0
 10 11  1  1
 12 17  2  0
 12 13  1  0
 13 14  2  0
 14 15  1  0
 16 15  2  0
 17 16  1  0
 18 10  1  0
 18 19  2  0
 21 23  1  0
 21 20  1  6
 22 21  1  0
 24 25  1  0
 24 23  1  6
 25 18  1  0
 26 24  1  0
 27 26  2  0
 28 26  1  0
M  END
$$$$
