LFL.pdb
     RDKit          3D

 28 28  0  0  1  0  0  0  0  0999 V2000
   45.2162   -7.5709   -9.7242 C   0  0  0  0  0  0  0  0  0  0  0  0
   44.3671   -8.3437   -8.7436 C   0  0  1  0  0  0  0  0  0  0  0  0
   42.9040   -8.2250   -9.0576 C   0  0  0  0  0  0  0  0  0  0  0  0
   44.8477   -9.7527   -8.5541 C   0  0  0  0  0  0  0  0  0  0  0  0
   43.9873  -10.5238   -7.5765 C   0  0  2  0  0  0  0  0  0  0  0  0
   44.1591  -10.1363   -6.2121 N   0  0  0  0  0  0  0  0  0  0  0  0
   44.2788  -11.9695   -7.7151 C   0  0  0  0  0  0  0  0  0  0  0  0
   45.2774  -12.4611   -7.1460 O   0  0  0  0  0  0  0  0  0  0  0  0
   43.4618  -12.8374   -8.4781 N   0  0  0  0  0  0  0  0  0  0  0  0
   43.7702  -14.2296   -8.7326 C   0  0  1  0  0  0  0  0  0  0  0  0
   42.5017  -14.9088   -9.1674 C   0  0  0  0  0  0  0  0  0  0  0  0
   42.7350  -16.2984   -9.6147 C   0  0  0  0  0  0  0  0  0  0  0  0
   42.8989  -17.3562   -8.7403 C   0  0  0  0  0  0  0  0  0  0  0  0
   43.1129  -18.6289   -9.2198 C   0  0  0  0  0  0  0  0  0  0  0  0
   43.1672  -18.8671  -10.5703 C   0  0  0  0  0  0  0  0  0  0  0  0
   43.0050  -17.8172  -11.4378 C   0  0  0  0  0  0  0  0  0  0  0  0
   42.7898  -16.5397  -10.9704 C   0  0  0  0  0  0  0  0  0  0  0  0
   44.8423  -14.3710   -9.7739 C   0  0  0  0  0  0  0  0  0  0  0  0
   44.8553  -13.6557  -10.8069 O   0  0  0  0  0  0  0  0  0  0  0  0
   50.3889  -13.7894   -9.9207 C   0  0  0  0  0  0  0  0  0  0  0  0
   49.1522  -14.2271  -10.6440 C   0  0  1  0  0  0  0  0  0  0  0  0
   49.5940  -14.9053  -11.9270 C   0  0  0  0  0  0  0  0  0  0  0  0
   48.1255  -14.9470   -9.8971 C   0  0  0  0  0  0  0  0  0  0  0  0
   46.9421  -15.5369  -10.5199 C   0  0  2  0  0  0  0  0  0  0  0  0
   45.8361  -15.3384   -9.5481 N   0  0  0  0  0  0  0  0  0  0  0  0
   46.9549  -16.8901  -11.0253 C   0  0  0  0  0  0  0  0  0  0  0  0
   47.2447  -17.1691  -12.2539 O   0  0  0  0  0  0  0  0  0  0  0  0
   46.6754  -18.0332  -10.2938 O   0  0  0  0  0  0  0  0  0  0  0  0
  2  3  1  6
  2  1  1  0
  4  2  1  0
  5  4  1  0
  5  6  1  1
  7  8  2  0
  7  5  1  0
  9  7  1  0
 10  9  1  0
 11 12  1  0
 10 11  1  6
 12 17  2  0
 12 13  1  0
 13 14  2  0
 14 15  1  0
 16 15  2  0
 17 16  1  0
 18 10  1  0
 18 19  2  0
 21 23  1  0
 21 20  1  1
 22 21  1  0
 24 25  1  0
 24 23  1  1
 25 18  1  0
 26 24  1  0
 27 26  2  0
 28 26  1  0
M  END
$$$$
