LFL.pdb
     RDKit          3D

 28 28  0  0  1  0  0  0  0  0999 V2000
   27.8180  -16.7865  -18.9794 C   0  0  0  0  0  0  0  0  0  0  0  0
   27.9708  -18.0775  -18.2114 C   0  0  1  0  0  0  0  0  0  0  0  0
   29.3971  -18.5447  -18.1833 C   0  0  0  0  0  0  0  0  0  0  0  0
   27.3091  -18.0264  -16.8654 C   0  0  0  0  0  0  0  0  0  0  0  0
   27.6501  -19.2307  -16.0145 C   0  0  2  0  0  0  0  0  0  0  0  0
   27.3935  -20.4863  -16.6459 N   0  0  0  0  0  0  0  0  0  0  0  0
   26.8877  -19.1556  -14.7467 C   0  0  0  0  0  0  0  0  0  0  0  0
   26.8042  -18.0696  -14.1332 O   0  0  0  0  0  0  0  0  0  0  0  0
   26.2361  -20.2802  -14.1866 N   0  0  0  0  0  0  0  0  0  0  0  0
   25.3370  -20.2176  -13.0527 C   0  0  1  0  0  0  0  0  0  0  0  0
   24.0864  -20.9681  -13.4165 C   0  0  0  0  0  0  0  0  0  0  0  0
   23.1684  -20.1587  -14.2458 C   0  0  0  0  0  0  0  0  0  0  0  0
   22.2081  -19.3205  -13.7115 C   0  0  0  0  0  0  0  0  0  0  0  0
   21.3827  -18.5917  -14.5380 C   0  0  0  0  0  0  0  0  0  0  0  0
   21.4995  -18.6858  -15.9021 C   0  0  0  0  0  0  0  0  0  0  0  0
   22.4523  -19.5181  -16.4321 C   0  0  0  0  0  0  0  0  0  0  0  0
   23.2842  -20.2518  -15.6158 C   0  0  0  0  0  0  0  0  0  0  0  0
   25.9713  -20.7918  -11.8191 C   0  0  0  0  0  0  0  0  0  0  0  0
   26.4729  -21.9438  -11.8119 O   0  0  0  0  0  0  0  0  0  0  0  0
   28.6926  -18.7188   -6.8318 C   0  0  0  0  0  0  0  0  0  0  0  0
   27.7403  -19.7507   -7.3537 C   0  0  1  0  0  0  0  0  0  0  0  0
   26.6797  -19.9669   -6.2909 C   0  0  0  0  0  0  0  0  0  0  0  0
   27.2216  -19.5986   -8.7094 C   0  0  0  0  0  0  0  0  0  0  0  0
   26.3207  -20.5620   -9.3391 C   0  0  2  0  0  0  0  0  0  0  0  0
   25.9832  -19.9874  -10.6669 N   0  0  0  0  0  0  0  0  0  0  0  0
   25.1370  -21.0377   -8.6614 C   0  0  0  0  0  0  0  0  0  0  0  0
   24.0007  -20.4259   -8.7377 O   0  0  0  0  0  0  0  0  0  0  0  0
   25.0542  -22.1729   -7.8712 O   0  0  0  0  0  0  0  0  0  0  0  0
  2  3  1  1
  2  1  1  0
  4  2  1  0
  5  4  1  0
  5  6  1  6
  7  8  2  0
  7  5  1  0
  9  7  1  0
 10  9  1  0
 11 12  1  0
 10 11  1  6
 12 17  2  0
 12 13  1  0
 13 14  2  0
 14 15  1  0
 16 15  2  0
 17 16  1  0
 18 10  1  0
 18 19  2  0
 21 23  1  0
 21 20  1  1
 22 21  1  0
 24 25  1  0
 24 23  1  1
 25 18  1  0
 26 24  1  0
 27 26  2  0
 28 26  1  0
M  END
$$$$
