TGA.pdb
     RDKit          3D

 17 16  0  0  1  0  0  0  0  0999 V2000
   24.3118  -13.4539  -18.8768 C   0  0  0  0  0  0  0  0  0  0  0  0
   24.3552  -11.9654  -19.0998 C   0  0  1  0  0  0  0  0  0  0  0  0
   23.0123  -11.5227  -19.0674 O   0  0  0  0  0  0  0  0  0  0  0  0
   25.0609  -11.2291  -17.9808 C   0  0  2  0  0  0  0  0  0  0  0  0
   24.3720  -11.5733  -16.7507 N   0  0  0  0  0  0  0  0  0  0  0  0
   25.1195   -9.7730  -18.2028 C   0  0  0  0  0  0  0  0  0  0  0  0
   25.9469   -9.3480  -19.0485 O   0  0  0  0  0  0  0  0  0  0  0  0
   24.3110   -8.8229  -17.5316 N   0  0  0  0  0  0  0  0  0  0  0  0
   24.3427   -7.4185  -17.7460 C   0  0  0  0  0  0  0  0  0  0  0  0
   23.4113   -6.6526  -16.9073 C   0  0  0  0  0  0  0  0  0  0  0  0
   23.2845   -5.4173  -17.0960 O   0  0  0  0  0  0  0  0  0  0  0  0
   20.7484   -7.5649  -14.3919 C   0  0  0  0  0  0  0  0  0  0  0  0
   21.6308   -6.5395  -15.1167 C   0  0  2  0  0  0  0  0  0  0  0  0
   22.6401   -7.2571  -15.8812 N   0  0  0  0  0  0  0  0  0  0  0  0
   22.3166   -5.7603  -14.0625 C   0  0  0  0  0  0  0  0  0  0  0  0
   21.5986   -4.8034  -13.3541 O   0  0  0  0  0  0  0  0  0  0  0  0
   23.5177   -5.9329  -13.7876 O   0  0  0  0  0  0  0  0  0  0  0  0
  2  1  1  1
  2  3  1  0
  4  6  1  0
  4  2  1  0
  4  5  1  1
  6  7  2  0
  8  6  1  0
  8  9  1  0
 10 14  1  0
 10  9  1  0
 11 10  2  0
 13 14  1  0
 13 12  1  1
 15 13  1  0
 16 15  1  0
 17 15  2  0
M  END
$$$$
