TGA.pdb
     RDKit          3D

 17 16  0  0  1  0  0  0  0  0999 V2000
   23.6190  -12.1467  -14.8662 C   0  0  0  0  0  0  0  0  0  0  0  0
   23.5515  -12.7727  -16.2340 C   0  0  1  0  0  0  0  0  0  0  0  0
   23.3547  -14.1576  -16.0244 O   0  0  0  0  0  0  0  0  0  0  0  0
   22.3547  -12.3006  -17.0323 C   0  0  2  0  0  0  0  0  0  0  0  0
   22.3078  -13.1082  -18.2373 N   0  0  0  0  0  0  0  0  0  0  0  0
   22.3971  -10.8567  -17.3256 C   0  0  0  0  0  0  0  0  0  0  0  0
   23.1744  -10.4723  -18.2358 O   0  0  0  0  0  0  0  0  0  0  0  0
   21.6257   -9.8757  -16.6552 N   0  0  0  0  0  0  0  0  0  0  0  0
   21.6868   -8.4764  -16.8950 C   0  0  0  0  0  0  0  0  0  0  0  0
   22.1922   -7.6857  -15.7650 C   0  0  0  0  0  0  0  0  0  0  0  0
   22.4856   -8.2644  -14.6896 O   0  0  0  0  0  0  0  0  0  0  0  0
   22.9639   -4.0195  -15.1866 C   0  0  0  0  0  0  0  0  0  0  0  0
   22.8294   -5.4749  -14.7184 C   0  0  2  0  0  0  0  0  0  0  0  0
   22.3646   -6.2793  -15.8386 N   0  0  0  0  0  0  0  0  0  0  0  0
   21.7790   -5.4824  -13.6765 C   0  0  0  0  0  0  0  0  0  0  0  0
   20.4777   -5.8204  -14.0309 O   0  0  0  0  0  0  0  0  0  0  0  0
   22.0214   -5.1956  -12.4903 O   0  0  0  0  0  0  0  0  0  0  0  0
  2  1  1  1
  2  3  1  0
  4  6  1  0
  4  2  1  0
  4  5  1  6
  6  7  2  0
  8  6  1  0
  8  9  1  0
 10 14  1  0
 10  9  1  0
 11 10  2  0
 13 14  1  0
 13 12  1  6
 15 13  1  0
 16 15  1  0
 17 15  2  0
M  END
$$$$
