TGA.pdb
     RDKit          3D

 17 16  0  0  1  0  0  0  0  0999 V2000
   17.6675   -9.7190  -20.9618 C   0  0  0  0  0  0  0  0  0  0  0  0
   17.7684   -8.8350  -19.7470 C   0  0  1  0  0  0  0  0  0  0  0  0
   16.9598   -9.4357  -18.7542 O   0  0  0  0  0  0  0  0  0  0  0  0
   19.1683   -8.7935  -19.1715 C   0  0  2  0  0  0  0  0  0  0  0  0
   19.5901  -10.1704  -18.9916 N   0  0  0  0  0  0  0  0  0  0  0  0
   19.2499   -8.0137  -17.9233 C   0  0  0  0  0  0  0  0  0  0  0  0
   18.9975   -6.7840  -17.9901 O   0  0  0  0  0  0  0  0  0  0  0  0
   19.5918   -8.5520  -16.6583 N   0  0  0  0  0  0  0  0  0  0  0  0
   19.6156   -7.8280  -15.4358 C   0  0  0  0  0  0  0  0  0  0  0  0
   20.7592   -6.9179  -15.2885 C   0  0  0  0  0  0  0  0  0  0  0  0
   21.5305   -6.7339  -16.2624 O   0  0  0  0  0  0  0  0  0  0  0  0
   23.3724   -6.0091  -14.6807 C   0  0  0  0  0  0  0  0  0  0  0  0
   22.2116   -5.4012  -13.8817 C   0  0  2  0  0  0  0  0  0  0  0  0
   21.0317   -6.2303  -14.0777 N   0  0  0  0  0  0  0  0  0  0  0  0
   21.9470   -4.0725  -14.4761 C   0  0  0  0  0  0  0  0  0  0  0  0
   20.7619   -3.8679  -15.1738 O   0  0  0  0  0  0  0  0  0  0  0  0
   22.7515   -3.1290  -14.3724 O   0  0  0  0  0  0  0  0  0  0  0  0
  2  1  1  6
  2  3  1  0
  4  6  1  0
  4  2  1  0
  4  5  1  1
  6  7  2  0
  8  6  1  0
  8  9  1  0
 10 14  1  0
 10  9  1  0
 11 10  2  0
 13 14  1  0
 13 12  1  6
 15 13  1  0
 16 15  1  0
 17 15  2  0
M  END
$$$$
