TGA.pdb
     RDKit          3D

 17 16  0  0  1  0  0  0  0  0999 V2000
   26.5652  -21.3974  -15.7340 C   0  0  0  0  0  0  0  0  0  0  0  0
   25.8132  -22.5814  -15.1862 C   0  0  1  0  0  0  0  0  0  0  0  0
   26.6373  -23.7091  -15.4090 O   0  0  0  0  0  0  0  0  0  0  0  0
   25.6154  -22.5030  -13.6871 C   0  0  2  0  0  0  0  0  0  0  0  0
   25.1466  -23.8071  -13.2560 N   0  0  0  0  0  0  0  0  0  0  0  0
   24.7015  -21.4176  -13.2875 C   0  0  0  0  0  0  0  0  0  0  0  0
   25.0790  -20.2363  -13.4932 O   0  0  0  0  0  0  0  0  0  0  0  0
   23.4320  -21.6128  -12.6899 N   0  0  0  0  0  0  0  0  0  0  0  0
   22.4780  -20.5913  -12.4337 C   0  0  0  0  0  0  0  0  0  0  0  0
   21.1300  -20.8741  -12.9441 C   0  0  0  0  0  0  0  0  0  0  0  0
   20.9700  -21.7892  -13.7894 O   0  0  0  0  0  0  0  0  0  0  0  0
   17.6512  -19.6324  -12.1120 C   0  0  0  0  0  0  0  0  0  0  0  0
   18.6334  -20.4794  -12.9327 C   0  0  2  0  0  0  0  0  0  0  0  0
   19.9882  -20.1482  -12.5170 N   0  0  0  0  0  0  0  0  0  0  0  0
   18.4672  -20.0620  -14.3423 C   0  0  0  0  0  0  0  0  0  0  0  0
   17.5205  -20.7061  -15.1309 O   0  0  0  0  0  0  0  0  0  0  0  0
   19.1480  -19.1512  -14.8474 O   0  0  0  0  0  0  0  0  0  0  0  0
  2  1  1  1
  2  3  1  0
  4  6  1  0
  4  2  1  0
  4  5  1  6
  6  7  2  0
  8  6  1  0
  8  9  1  0
 10 14  1  0
 10  9  1  0
 11 10  2  0
 13 14  1  0
 13 12  1  1
 15 13  1  0
 16 15  1  0
 17 15  2  0
M  END
$$$$
