TGA.pdb
     RDKit          3D

 17 16  0  0  1  0  0  0  0  0999 V2000
   26.8289  -17.9960  -15.4261 C   0  0  0  0  0  0  0  0  0  0  0  0
   27.2360  -19.2135  -16.2129 C   0  0  1  0  0  0  0  0  0  0  0  0
   28.5105  -18.9251  -16.7541 O   0  0  0  0  0  0  0  0  0  0  0  0
   27.4242  -20.4356  -15.3391 C   0  0  2  0  0  0  0  0  0  0  0  0
   28.0865  -21.4374  -16.1540 N   0  0  0  0  0  0  0  0  0  0  0  0
   26.1592  -20.9269  -14.7637 C   0  0  0  0  0  0  0  0  0  0  0  0
   25.4644  -21.7028  -15.4677 O   0  0  0  0  0  0  0  0  0  0  0  0
   25.6737  -20.5864  -13.4772 N   0  0  0  0  0  0  0  0  0  0  0  0
   24.4686  -21.0686  -12.8989 C   0  0  0  0  0  0  0  0  0  0  0  0
   23.2488  -20.6817  -13.6202 C   0  0  0  0  0  0  0  0  0  0  0  0
   23.2180  -19.5885  -14.2378 O   0  0  0  0  0  0  0  0  0  0  0  0
   20.0720  -22.4453  -14.6099 C   0  0  0  0  0  0  0  0  0  0  0  0
   20.8982  -21.1670  -14.4129 C   0  0  2  0  0  0  0  0  0  0  0  0
   22.0908  -21.5011  -13.6486 N   0  0  0  0  0  0  0  0  0  0  0  0
   20.0668  -20.2547  -13.5972 C   0  0  0  0  0  0  0  0  0  0  0  0
   19.0532  -19.5303  -14.2144 O   0  0  0  0  0  0  0  0  0  0  0  0
   20.2445  -20.1133  -12.3738 O   0  0  0  0  0  0  0  0  0  0  0  0
  2  1  1  1
  2  3  1  0
  4  6  1  0
  4  2  1  0
  4  5  1  6
  6  7  2  0
  8  6  1  0
  8  9  1  0
 10 14  1  0
 10  9  1  0
 11 10  2  0
 13 14  1  0
 13 12  1  1
 15 13  1  0
 16 15  1  0
 17 15  2  0
M  END
$$$$
