TGA.pdb
     RDKit          3D

 17 16  0  0  1  0  0  0  0  0999 V2000
   16.7044   -9.2657  -16.8371 C   0  0  0  0  0  0  0  0  0  0  0  0
   16.9400  -10.6133  -16.2078 C   0  0  1  0  0  0  0  0  0  0  0  0
   16.0515  -11.5081  -16.8482 O   0  0  0  0  0  0  0  0  0  0  0  0
   18.3310  -11.1470  -16.4777 C   0  0  2  0  0  0  0  0  0  0  0  0
   18.3473  -12.5262  -16.0261 N   0  0  0  0  0  0  0  0  0  0  0  0
   19.3868  -10.3365  -15.8444 C   0  0  0  0  0  0  0  0  0  0  0  0
   19.5053  -10.4121  -14.5951 O   0  0  0  0  0  0  0  0  0  0  0  0
   20.2739   -9.4813  -16.5433 N   0  0  0  0  0  0  0  0  0  0  0  0
   21.3532   -8.7631  -15.9613 C   0  0  0  0  0  0  0  0  0  0  0  0
   20.9729   -7.4855  -15.3442 C   0  0  0  0  0  0  0  0  0  0  0  0
   19.8227   -7.0222  -15.5439 O   0  0  0  0  0  0  0  0  0  0  0  0
   22.4300   -5.3065  -12.6517 C   0  0  0  0  0  0  0  0  0  0  0  0
   21.4754   -5.5217  -13.8341 C   0  0  2  0  0  0  0  0  0  0  0  0
   21.8612   -6.7445  -14.5226 N   0  0  0  0  0  0  0  0  0  0  0  0
   21.6904   -4.3846  -14.7559 C   0  0  0  0  0  0  0  0  0  0  0  0
   21.1175   -3.1538  -14.4561 O   0  0  0  0  0  0  0  0  0  0  0  0
   22.3685   -4.4929  -15.7934 O   0  0  0  0  0  0  0  0  0  0  0  0
  2  1  1  6
  2  3  1  0
  4  6  1  0
  4  2  1  0
  4  5  1  1
  6  7  2  0
  8  6  1  0
  8  9  1  0
 10 14  1  0
 10  9  1  0
 11 10  2  0
 13 14  1  0
 13 12  1  1
 15 13  1  0
 16 15  1  0
 17 15  2  0
M  END
$$$$
