TGA.pdb
     RDKit          3D

 17 16  0  0  1  0  0  0  0  0999 V2000
   17.9491  -12.0280  -19.2707 C   0  0  0  0  0  0  0  0  0  0  0  0
   18.5123  -13.4213  -19.1767 C   0  0  1  0  0  0  0  0  0  0  0  0
   17.9700  -14.1401  -20.2675 O   0  0  0  0  0  0  0  0  0  0  0  0
   20.0144  -13.4563  -19.3638 C   0  0  2  0  0  0  0  0  0  0  0  0
   20.3935  -14.8537  -19.4633 N   0  0  0  0  0  0  0  0  0  0  0  0
   20.7402  -12.7528  -18.2908 C   0  0  0  0  0  0  0  0  0  0  0  0
   20.9299  -13.3744  -17.2147 O   0  0  0  0  0  0  0  0  0  0  0  0
   21.2370  -11.4297  -18.3879 N   0  0  0  0  0  0  0  0  0  0  0  0
   21.9273  -10.7331  -17.3596 C   0  0  0  0  0  0  0  0  0  0  0  0
   21.0988   -9.7847  -16.6034 C   0  0  0  0  0  0  0  0  0  0  0  0
   19.9445   -9.5095  -17.0151 O   0  0  0  0  0  0  0  0  0  0  0  0
   21.3917   -8.0032  -13.2857 C   0  0  0  0  0  0  0  0  0  0  0  0
   20.7630   -8.1871  -14.6736 C   0  0  2  0  0  0  0  0  0  0  0  0
   21.5535   -9.1593  -15.4138 N   0  0  0  0  0  0  0  0  0  0  0  0
   20.8763   -6.8809  -15.3591 C   0  0  0  0  0  0  0  0  0  0  0  0
   19.9855   -5.8653  -15.0303 O   0  0  0  0  0  0  0  0  0  0  0  0
   21.7445   -6.6598  -16.2226 O   0  0  0  0  0  0  0  0  0  0  0  0
  2  1  1  6
  2  3  1  0
  4  6  1  0
  4  2  1  0
  4  5  1  1
  6  7  2  0
  8  6  1  0
  8  9  1  0
 10 14  1  0
 10  9  1  0
 11 10  2  0
 13 14  1  0
 13 12  1  1
 15 13  1  0
 16 15  1  0
 17 15  2  0
M  END
$$$$
