TGA.pdb
     RDKit          3D

 17 16  0  0  1  0  0  0  0  0999 V2000
   23.6834  -11.3486  -15.3527 C   0  0  0  0  0  0  0  0  0  0  0  0
   23.3032   -9.9571  -14.9211 C   0  0  1  0  0  0  0  0  0  0  0  0
   23.8224   -9.0835  -15.9048 O   0  0  0  0  0  0  0  0  0  0  0  0
   21.8052   -9.7363  -14.9205 C   0  0  2  0  0  0  0  0  0  0  0  0
   21.3355  -10.0350  -16.2608 N   0  0  0  0  0  0  0  0  0  0  0  0
   21.4278   -8.3804  -14.4826 C   0  0  0  0  0  0  0  0  0  0  0  0
   21.7132   -8.0511  -13.3034 O   0  0  0  0  0  0  0  0  0  0  0  0
   20.7682   -7.4259  -15.2955 N   0  0  0  0  0  0  0  0  0  0  0  0
   20.2844   -6.1645  -14.8550 C   0  0  0  0  0  0  0  0  0  0  0  0
   19.6584   -5.3509  -15.9055 C   0  0  0  0  0  0  0  0  0  0  0  0
   19.8022   -5.6805  -17.1089 O   0  0  0  0  0  0  0  0  0  0  0  0
   17.2070   -2.4721  -15.9209 C   0  0  0  0  0  0  0  0  0  0  0  0
   18.1545   -3.4516  -16.6269 C   0  0  2  0  0  0  0  0  0  0  0  0
   18.8891   -4.1949  -15.6140 N   0  0  0  0  0  0  0  0  0  0  0  0
   19.1196   -2.6253  -17.3849 C   0  0  0  0  0  0  0  0  0  0  0  0
   20.4105   -2.4707  -16.8921 O   0  0  0  0  0  0  0  0  0  0  0  0
   18.8143   -2.0622  -18.4516 O   0  0  0  0  0  0  0  0  0  0  0  0
  2  1  1  6
  2  3  1  0
  4  6  1  0
  4  2  1  0
  4  5  1  6
  6  7  2  0
  8  6  1  0
  8  9  1  0
 10 14  1  0
 10  9  1  0
 11 10  2  0
 13 14  1  0
 13 12  1  1
 15 13  1  0
 16 15  1  0
 17 15  2  0
M  END
$$$$
