TGA.pdb
     RDKit          3D

 17 16  0  0  1  0  0  0  0  0999 V2000
   21.0982  -13.5733  -18.7358 C   0  0  0  0  0  0  0  0  0  0  0  0
   20.3649  -14.7789  -18.2104 C   0  0  1  0  0  0  0  0  0  0  0  0
   21.2861  -15.8512  -18.2557 O   0  0  0  0  0  0  0  0  0  0  0  0
   19.9709  -14.6329  -16.7557 C   0  0  2  0  0  0  0  0  0  0  0  0
   19.4938  -15.9313  -16.3168 N   0  0  0  0  0  0  0  0  0  0  0  0
   18.9770  -13.5664  -16.5374 C   0  0  0  0  0  0  0  0  0  0  0  0
   17.8601  -13.6903  -17.1009 O   0  0  0  0  0  0  0  0  0  0  0  0
   19.1924  -12.4159  -15.7395 N   0  0  0  0  0  0  0  0  0  0  0  0
   18.2433  -11.3829  -15.5130 C   0  0  0  0  0  0  0  0  0  0  0  0
   18.6565  -10.0586  -15.9960 C   0  0  0  0  0  0  0  0  0  0  0  0
   19.8025   -9.9117  -16.4884 O   0  0  0  0  0  0  0  0  0  0  0  0
   16.9300   -6.7057  -16.3729 C   0  0  0  0  0  0  0  0  0  0  0  0
   18.1247   -7.6517  -16.5554 C   0  0  2  0  0  0  0  0  0  0  0  0
   17.8051   -8.9257  -15.9286 N   0  0  0  0  0  0  0  0  0  0  0  0
   19.2542   -7.0441  -15.8179 C   0  0  0  0  0  0  0  0  0  0  0  0
   19.6707   -7.6216  -14.6237 O   0  0  0  0  0  0  0  0  0  0  0  0
   19.8459   -6.0306  -16.2314 O   0  0  0  0  0  0  0  0  0  0  0  0
  2  1  1  1
  2  3  1  0
  4  6  1  0
  4  2  1  0
  4  5  1  6
  6  7  2  0
  8  6  1  0
  8  9  1  0
 10 14  1  0
 10  9  1  0
 11 10  2  0
 13 14  1  0
 13 12  1  1
 15 13  1  0
 16 15  1  0
 17 15  2  0
M  END
$$$$
