DMY.pdb
     RDKit          3D

 29 29  0  0  1  0  0  0  0  0999 V2000
    8.4179  -16.5502   19.0252 N   0  0  0  0  0  0  0  0  0  0  0  0
    9.6028  -17.0996   19.6539 C   0  0  1  0  0  0  0  0  0  0  0  0
   10.7736  -17.1471   18.6823 C   0  0  0  0  0  0  0  0  0  0  0  0
   10.4988  -18.2530   17.7463 C   0  0  0  0  0  0  0  0  0  0  0  0
    9.7595  -19.1848   18.1080 O   0  0  0  0  0  0  0  0  0  0  0  0
    9.9077  -16.3172   20.8729 C   0  0  0  0  0  0  0  0  0  0  0  0
   10.9785  -15.6704   20.9821 O   0  0  0  0  0  0  0  0  0  0  0  0
   11.0479  -18.2623   16.4783 O   0  0  0  0  0  0  0  0  0  0  0  0
    7.0342  -12.6977   27.2099 C   0  0  0  0  0  0  0  0  0  0  0  0
    6.6705  -13.6471   25.6890 S   0  0  0  0  0  0  0  0  0  0  0  0
    8.2102  -14.5210   25.2046 C   0  0  0  0  0  0  0  0  0  0  0  0
    7.9687  -15.2512   23.8951 C   0  0  0  0  0  0  0  0  0  0  0  0
    9.2799  -15.5240   23.1949 C   0  0  2  0  0  0  0  0  0  0  0  0
    9.0110  -16.2537   21.9788 N   0  0  0  0  0  0  0  0  0  0  0  0
   10.2073  -16.2834   24.0765 C   0  0  0  0  0  0  0  0  0  0  0  0
   10.0526  -17.5307   24.1212 O   0  0  0  0  0  0  0  0  0  0  0  0
    9.2764  -14.5855   30.7120 O   0  0  0  0  0  0  0  0  0  0  0  0
   10.1796  -14.9000   29.7201 C   0  0  0  0  0  0  0  0  0  0  0  0
   10.3434  -13.9962   28.6844 C   0  0  0  0  0  0  0  0  0  0  0  0
   11.2385  -14.2765   27.6766 C   0  0  0  0  0  0  0  0  0  0  0  0
   11.9938  -15.4286   27.6415 C   0  0  0  0  0  0  0  0  0  0  0  0
   12.9357  -15.7211   26.5421 C   0  0  0  0  0  0  0  0  0  0  0  0
   12.2564  -16.5253   25.4714 C   0  0  2  0  0  0  0  0  0  0  0  0
   11.2170  -15.6899   24.8392 N   0  0  0  0  0  0  0  0  0  0  0  0
   11.6325  -17.7431   26.0471 C   0  0  0  0  0  0  0  0  0  0  0  0
   12.3937  -18.6543   26.4726 O   0  0  0  0  0  0  0  0  0  0  0  0
   11.8019  -16.3127   28.6995 C   0  0  0  0  0  0  0  0  0  0  0  0
   10.9200  -16.0590   29.7123 C   0  0  0  0  0  0  0  0  0  0  0  0
   10.2726  -17.9520   26.1554 O   0  0  0  0  0  0  0  0  0  0  0  0
  2  1  1  6
  3  4  1  0
  3  2  1  0
  4  5  2  0
  6  2  1  0
  6  7  2  0
  8  4  1  0
 10  9  1  0
 11 10  1  0
 12 11  1  0
 13 14  1  0
 13 12  1  1
 14  6  1  0
 15 24  1  0
 15 13  1  0
 16 15  2  0
 18 19  2  0
 18 17  1  0
 20 19  1  0
 21 20  2  0
 22 21  1  0
 23 24  1  0
 23 22  1  1
 25 23  1  0
 26 25  2  0
 27 21  1  0
 27 28  2  0
 28 18  1  0
 29 25  1  0
M  END
$$$$
