DMY.pdb
     RDKit          3D

 29 29  0  0  1  0  0  0  0  0999 V2000
    8.1803  -15.9113   18.5151 N   0  0  0  0  0  0  0  0  0  0  0  0
    8.3625  -16.7714   19.6674 C   0  0  1  0  0  0  0  0  0  0  0  0
    9.2671  -17.9512   19.3401 C   0  0  0  0  0  0  0  0  0  0  0  0
    8.5477  -18.7698   18.3466 C   0  0  0  0  0  0  0  0  0  0  0  0
    9.0100  -18.8746   17.1973 O   0  0  0  0  0  0  0  0  0  0  0  0
    8.8719  -15.9615   20.7969 C   0  0  0  0  0  0  0  0  0  0  0  0
    9.9706  -15.3580   20.7236 O   0  0  0  0  0  0  0  0  0  0  0  0
    7.3748  -19.4204   18.6788 O   0  0  0  0  0  0  0  0  0  0  0  0
    6.4006  -11.4550   26.1848 C   0  0  0  0  0  0  0  0  0  0  0  0
    6.3068  -13.2786   26.0748 S   0  0  0  0  0  0  0  0  0  0  0  0
    7.8060  -13.8541   25.1860 C   0  0  0  0  0  0  0  0  0  0  0  0
    7.3788  -14.5821   23.9235 C   0  0  0  0  0  0  0  0  0  0  0  0
    8.5899  -15.0098   23.1271 C   0  0  2  0  0  0  0  0  0  0  0  0
    8.1499  -15.8218   22.0177 N   0  0  0  0  0  0  0  0  0  0  0  0
    9.5542  -15.7543   23.9813 C   0  0  0  0  0  0  0  0  0  0  0  0
    9.1805  -16.8747   24.4136 O   0  0  0  0  0  0  0  0  0  0  0  0
   10.3667  -16.8762   31.5121 O   0  0  0  0  0  0  0  0  0  0  0  0
   10.7832  -16.4438   30.2719 C   0  0  0  0  0  0  0  0  0  0  0  0
   10.2878  -15.2373   29.8077 C   0  0  0  0  0  0  0  0  0  0  0  0
   10.6834  -14.7731   28.5734 C   0  0  0  0  0  0  0  0  0  0  0  0
   11.5610  -15.4563   27.7597 C   0  0  0  0  0  0  0  0  0  0  0  0
   11.9595  -14.9517   26.4301 C   0  0  0  0  0  0  0  0  0  0  0  0
   11.6150  -15.9532   25.3656 C   0  0  2  0  0  0  0  0  0  0  0  0
   10.8242  -15.2781   24.3184 N   0  0  0  0  0  0  0  0  0  0  0  0
   10.8279  -17.0749   25.9366 C   0  0  0  0  0  0  0  0  0  0  0  0
    9.6141  -16.8684   26.2101 O   0  0  0  0  0  0  0  0  0  0  0  0
   12.0376  -16.6647   28.2602 C   0  0  0  0  0  0  0  0  0  0  0  0
   11.6611  -17.1483   29.4818 C   0  0  0  0  0  0  0  0  0  0  0  0
   11.3281  -18.3363   26.1885 O   0  0  0  0  0  0  0  0  0  0  0  0
  2  1  1  6
  3  4  1  0
  3  2  1  0
  4  5  2  0
  6  2  1  0
  6  7  2  0
  8  4  1  0
 10  9  1  0
 11 10  1  0
 12 11  1  0
 13 14  1  0
 13 12  1  1
 14  6  1  0
 15 24  1  0
 15 13  1  0
 16 15  2  0
 18 19  2  0
 18 17  1  0
 20 19  1  0
 21 20  2  0
 22 21  1  0
 23 24  1  0
 23 22  1  1
 25 23  1  0
 26 25  2  0
 27 21  1  0
 27 28  2  0
 28 18  1  0
 29 25  1  0
M  END
$$$$
