DMY.pdb
     RDKit          3D

 29 29  0  0  1  0  0  0  0  0999 V2000
    8.8553  -17.6366   19.1883 N   0  0  0  0  0  0  0  0  0  0  0  0
    8.8996  -17.8061   20.6271 C   0  0  1  0  0  0  0  0  0  0  0  0
    9.9953  -18.7804   21.0363 C   0  0  0  0  0  0  0  0  0  0  0  0
    9.6931  -20.0588   20.3663 C   0  0  0  0  0  0  0  0  0  0  0  0
    8.7239  -20.7335   20.7548 O   0  0  0  0  0  0  0  0  0  0  0  0
    9.0531  -16.4787   21.2638 C   0  0  0  0  0  0  0  0  0  0  0  0
   10.1304  -15.8383   21.1855 O   0  0  0  0  0  0  0  0  0  0  0  0
   10.4688  -20.5097   19.3154 O   0  0  0  0  0  0  0  0  0  0  0  0
    6.7506  -11.5905   26.3922 C   0  0  0  0  0  0  0  0  0  0  0  0
    5.9356  -12.7993   25.2872 S   0  0  0  0  0  0  0  0  0  0  0  0
    6.7935  -12.7283   23.6661 C   0  0  0  0  0  0  0  0  0  0  0  0
    6.7240  -14.0981   23.0138 C   0  0  0  0  0  0  0  0  0  0  0  0
    8.1091  -14.5748   22.6418 C   0  0  2  0  0  0  0  0  0  0  0  0
    7.9966  -15.8590   21.9924 N   0  0  0  0  0  0  0  0  0  0  0  0
    8.9838  -14.6609   23.8424 C   0  0  0  0  0  0  0  0  0  0  0  0
    9.1317  -13.6070   24.5124 O   0  0  0  0  0  0  0  0  0  0  0  0
   11.8323  -16.3761   31.7005 O   0  0  0  0  0  0  0  0  0  0  0  0
   11.2285  -16.2737   30.4662 C   0  0  0  0  0  0  0  0  0  0  0  0
   10.9657  -15.0052   29.9781 C   0  0  0  0  0  0  0  0  0  0  0  0
   10.3647  -14.8645   28.7475 C   0  0  0  0  0  0  0  0  0  0  0  0
   10.0034  -15.9367   27.9608 C   0  0  0  0  0  0  0  0  0  0  0  0
    9.3424  -15.7668   26.6510 C   0  0  0  0  0  0  0  0  0  0  0  0
   10.3478  -15.8686   25.5405 C   0  0  2  0  0  0  0  0  0  0  0  0
    9.6334  -15.8294   24.2498 N   0  0  0  0  0  0  0  0  0  0  0  0
   11.1168  -17.1342   25.6443 C   0  0  0  0  0  0  0  0  0  0  0  0
   10.6154  -18.1754   25.1390 O   0  0  0  0  0  0  0  0  0  0  0  0
   10.2837  -17.1957   28.4846 C   0  0  0  0  0  0  0  0  0  0  0  0
   10.8792  -17.3634   29.7032 C   0  0  0  0  0  0  0  0  0  0  0  0
   12.3493  -17.2561   26.2532 O   0  0  0  0  0  0  0  0  0  0  0  0
  2  1  1  6
  3  4  1  0
  3  2  1  0
  4  5  2  0
  6  2  1  0
  6  7  2  0
  8  4  1  0
 10  9  1  0
 11 10  1  0
 12 11  1  0
 13 14  1  0
 13 12  1  1
 14  6  1  0
 15 24  1  0
 15 13  1  0
 16 15  2  0
 18 19  2  0
 18 17  1  0
 20 19  1  0
 21 20  2  0
 22 21  1  0
 23 24  1  0
 23 22  1  1
 25 23  1  0
 26 25  2  0
 27 21  1  0
 27 28  2  0
 28 18  1  0
 29 25  1  0
M  END
$$$$
