DMY.pdb
     RDKit          3D

 29 29  0  0  1  0  0  0  0  0999 V2000
    8.4802  -15.8952   19.8749 N   0  0  0  0  0  0  0  0  0  0  0  0
    8.8488  -16.7964   20.9486 C   0  0  1  0  0  0  0  0  0  0  0  0
    9.9320  -17.7704   20.5066 C   0  0  0  0  0  0  0  0  0  0  0  0
    9.3863  -18.5118   19.3545 C   0  0  0  0  0  0  0  0  0  0  0  0
    8.3057  -19.1143   19.4771 O   0  0  0  0  0  0  0  0  0  0  0  0
    9.2495  -15.9995   22.1299 C   0  0  0  0  0  0  0  0  0  0  0  0
   10.4588  -15.8004   22.4029 O   0  0  0  0  0  0  0  0  0  0  0  0
   10.0572  -18.5402   18.1469 O   0  0  0  0  0  0  0  0  0  0  0  0
    6.7965  -11.3430   28.0575 C   0  0  0  0  0  0  0  0  0  0  0  0
    6.3451  -12.2103   26.5113 S   0  0  0  0  0  0  0  0  0  0  0  0
    7.7693  -13.2667   26.0371 C   0  0  0  0  0  0  0  0  0  0  0  0
    7.4783  -13.9074   24.6913 C   0  0  0  0  0  0  0  0  0  0  0  0
    8.6337  -14.7831   24.2644 C   0  0  2  0  0  0  0  0  0  0  0  0
    8.2941  -15.4182   23.0134 N   0  0  0  0  0  0  0  0  0  0  0  0
    8.9483  -15.7967   25.3071 C   0  0  0  0  0  0  0  0  0  0  0  0
    8.1113  -16.7212   25.4695 O   0  0  0  0  0  0  0  0  0  0  0  0
   15.5941  -15.3596   23.9126 O   0  0  0  0  0  0  0  0  0  0  0  0
   14.5212  -15.9655   24.5293 C   0  0  0  0  0  0  0  0  0  0  0  0
   14.5104  -16.0086   25.9130 C   0  0  0  0  0  0  0  0  0  0  0  0
   13.4536  -16.6048   26.5634 C   0  0  0  0  0  0  0  0  0  0  0  0
   12.3867  -17.1718   25.9005 C   0  0  0  0  0  0  0  0  0  0  0  0
   11.2705  -17.8238   26.6149 C   0  0  0  0  0  0  0  0  0  0  0  0
   10.3113  -16.7937   27.1377 C   0  0  2  0  0  0  0  0  0  0  0  0
   10.1018  -15.7697   26.0959 N   0  0  0  0  0  0  0  0  0  0  0  0
   10.8485  -16.1520   28.3639 C   0  0  0  0  0  0  0  0  0  0  0  0
   10.9584  -14.8956   28.3758 O   0  0  0  0  0  0  0  0  0  0  0  0
   12.4328  -17.1090   24.5106 C   0  0  0  0  0  0  0  0  0  0  0  0
   13.4698  -16.5232   23.8402 C   0  0  0  0  0  0  0  0  0  0  0  0
   11.2356  -16.8324   29.5005 O   0  0  0  0  0  0  0  0  0  0  0  0
  2  1  1  6
  3  4  1  0
  3  2  1  0
  4  5  2  0
  6  2  1  0
  6  7  2  0
  8  4  1  0
 10  9  1  0
 11 10  1  0
 12 11  1  0
 13 14  1  0
 13 12  1  1
 14  6  1  0
 15 24  1  0
 15 13  1  0
 16 15  2  0
 18 19  2  0
 18 17  1  0
 20 19  1  0
 21 20  2  0
 22 21  1  0
 23 24  1  0
 23 22  1  6
 25 23  1  0
 26 25  2  0
 27 21  1  0
 27 28  2  0
 28 18  1  0
 29 25  1  0
M  END
$$$$
