VPT.pdb
     RDKit          3D

 22 22  0  0  1  0  0  0  0  0999 V2000
    6.8480  -15.7252   20.6405 C   0  0  0  0  0  0  0  0  0  0  0  0
    7.4138  -15.7908   22.0442 C   0  0  2  0  0  0  0  0  0  0  0  0
    6.2553  -16.0064   22.9944 C   0  0  0  0  0  0  0  0  0  0  0  0
    8.0597  -14.4390   22.4112 C   0  0  2  0  0  0  0  0  0  0  0  0
    9.1317  -14.1609   21.4799 N   0  0  0  0  0  0  0  0  0  0  0  0
    8.6388  -14.5494   23.7961 C   0  0  0  0  0  0  0  0  0  0  0  0
    9.4453  -15.5275   23.9080 O   0  0  0  0  0  0  0  0  0  0  0  0
    8.3030  -13.6574   24.8181 N   0  0  0  0  0  0  0  0  0  0  0  0
    7.8445  -12.2802   24.5494 C   0  0  0  0  0  0  0  0  0  0  0  0
    6.5864  -12.2922   25.3855 C   0  0  0  0  0  0  0  0  0  0  0  0
    6.9098  -13.1727   26.5684 C   0  0  0  0  0  0  0  0  0  0  0  0
    8.3305  -13.7179   26.2208 C   0  0  1  0  0  0  0  0  0  0  0  0
    8.5526  -14.9704   26.9086 C   0  0  0  0  0  0  0  0  0  0  0  0
    7.6845  -15.8341   27.0626 O   0  0  0  0  0  0  0  0  0  0  0  0
   10.8514  -17.6516   26.1401 C   0  0  0  0  0  0  0  0  0  0  0  0
   11.2433  -17.2068   27.5318 C   0  0  1  0  0  0  0  0  0  0  0  0
   12.3619  -16.3664   27.5131 O   0  0  0  0  0  0  0  0  0  0  0  0
   10.0668  -16.4976   28.2193 C   0  0  2  0  0  0  0  0  0  0  0  0
    9.8438  -15.2742   27.4633 N   0  0  0  0  0  0  0  0  0  0  0  0
   10.5114  -16.2070   29.5950 C   0  0  0  0  0  0  0  0  0  0  0  0
   10.7727  -15.0362   29.9246 O   0  0  0  0  0  0  0  0  0  0  0  0
   10.6383  -17.2218   30.5130 O   0  0  0  0  0  0  0  0  0  0  0  0
  2  1  1  6
  2  4  1  0
  2  3  1  0
  4  6  1  0
  4  5  1  6
  6  8  1  0
  6  7  2  0
  8 12  1  0
  9 10  1  0
  9  8  1  0
 10 11  1  0
 11 12  1  0
 12 13  1  6
 13 19  1  0
 13 14  2  0
 16 18  1  0
 16 15  1  6
 17 16  1  0
 18 20  1  0
 18 19  1  6
 20 22  1  0
 21 20  2  0
M  END
$$$$
