VPT.pdb
     RDKit          3D

 22 22  0  0  1  0  0  0  0  0999 V2000
    9.1774  -16.1724   17.7038 C   0  0  0  0  0  0  0  0  0  0  0  0
    7.9965  -15.2978   18.0717 C   0  0  2  0  0  0  0  0  0  0  0  0
    7.2762  -14.9392   16.7896 C   0  0  0  0  0  0  0  0  0  0  0  0
    8.4970  -13.9800   18.6980 C   0  0  2  0  0  0  0  0  0  0  0  0
    9.3717  -13.3137   17.7573 N   0  0  0  0  0  0  0  0  0  0  0  0
    9.2834  -14.3117   19.9379 C   0  0  0  0  0  0  0  0  0  0  0  0
   10.3914  -14.8784   19.6723 O   0  0  0  0  0  0  0  0  0  0  0  0
    8.8143  -14.0141   21.2202 N   0  0  0  0  0  0  0  0  0  0  0  0
    7.9899  -12.8234   21.5063 C   0  0  0  0  0  0  0  0  0  0  0  0
    6.8551  -13.5026   22.2362 C   0  0  0  0  0  0  0  0  0  0  0  0
    7.4976  -14.6469   22.9825 C   0  0  0  0  0  0  0  0  0  0  0  0
    8.9765  -14.6027   22.4848 C   0  0  1  0  0  0  0  0  0  0  0  0
    9.5768  -15.9106   22.6267 C   0  0  0  0  0  0  0  0  0  0  0  0
    9.0516  -16.9552   22.2313 O   0  0  0  0  0  0  0  0  0  0  0  0
   13.4910  -16.0269   24.0354 C   0  0  0  0  0  0  0  0  0  0  0  0
   12.9642  -17.1815   23.2122 C   0  0  1  0  0  0  0  0  0  0  0  0
   13.6426  -18.3725   23.4936 O   0  0  0  0  0  0  0  0  0  0  0  0
   11.4582  -17.3676   23.4515 C   0  0  2  0  0  0  0  0  0  0  0  0
   10.8602  -16.0549   23.2585 N   0  0  0  0  0  0  0  0  0  0  0  0
   11.3187  -17.8230   24.8472 C   0  0  0  0  0  0  0  0  0  0  0  0
   10.9260  -17.0274   25.7193 O   0  0  0  0  0  0  0  0  0  0  0  0
   11.6198  -19.1197   25.1882 O   0  0  0  0  0  0  0  0  0  0  0  0
  2  1  1  6
  2  4  1  0
  2  3  1  0
  4  6  1  0
  4  5  1  6
  6  8  1  0
  6  7  2  0
  8 12  1  0
  9 10  1  0
  9  8  1  0
 10 11  1  0
 11 12  1  0
 12 13  1  6
 13 19  1  0
 13 14  2  0
 16 18  1  0
 16 15  1  1
 17 16  1  0
 18 20  1  0
 18 19  1  1
 20 22  1  0
 21 20  2  0
M  END
$$$$
