VPT.pdb
     RDKit          3D

 22 22  0  0  1  0  0  0  0  0999 V2000
    6.5913  -16.2053   20.8128 C   0  0  0  0  0  0  0  0  0  0  0  0
    7.1868  -16.1283   22.2035 C   0  0  2  0  0  0  0  0  0  0  0  0
    6.0622  -16.3382   23.1947 C   0  0  0  0  0  0  0  0  0  0  0  0
    7.7558  -14.7161   22.4511 C   0  0  2  0  0  0  0  0  0  0  0  0
    8.7486  -14.4242   21.4396 N   0  0  0  0  0  0  0  0  0  0  0  0
    8.4222  -14.7021   23.8007 C   0  0  0  0  0  0  0  0  0  0  0  0
    9.2456  -15.6616   23.9450 O   0  0  0  0  0  0  0  0  0  0  0  0
    8.1407  -13.7268   24.7611 N   0  0  0  0  0  0  0  0  0  0  0  0
    7.6796  -12.3710   24.4028 C   0  0  0  0  0  0  0  0  0  0  0  0
    6.4620  -12.3019   25.2940 C   0  0  0  0  0  0  0  0  0  0  0  0
    6.8342  -13.0872   26.5285 C   0  0  0  0  0  0  0  0  0  0  0  0
    8.2333  -13.6739   26.1614 C   0  0  1  0  0  0  0  0  0  0  0  0
    8.4786  -14.8690   26.9377 C   0  0  0  0  0  0  0  0  0  0  0  0
    7.6093  -15.7004   27.2141 O   0  0  0  0  0  0  0  0  0  0  0  0
   10.8716  -17.5590   26.2036 C   0  0  0  0  0  0  0  0  0  0  0  0
   11.2567  -17.0338   27.5689 C   0  0  1  0  0  0  0  0  0  0  0  0
   12.3403  -16.1511   27.4995 O   0  0  0  0  0  0  0  0  0  0  0  0
   10.0583  -16.3406   28.2345 C   0  0  2  0  0  0  0  0  0  0  0  0
    9.7963  -15.1501   27.4396 N   0  0  0  0  0  0  0  0  0  0  0  0
   10.4937  -15.9916   29.5996 C   0  0  0  0  0  0  0  0  0  0  0  0
   10.7454  -14.8066   29.8827 O   0  0  0  0  0  0  0  0  0  0  0  0
   10.6224  -16.9674   30.5586 O   0  0  0  0  0  0  0  0  0  0  0  0
  2  1  1  6
  2  4  1  0
  2  3  1  0
  4  6  1  0
  4  5  1  6
  6  8  1  0
  6  7  2  0
  8 12  1  0
  9 10  1  0
  9  8  1  0
 10 11  1  0
 11 12  1  0
 12 13  1  1
 13 19  1  0
 13 14  2  0
 16 18  1  0
 16 15  1  6
 17 16  1  0
 18 20  1  0
 18 19  1  6
 20 22  1  0
 21 20  2  0
M  END
$$$$
