VPT.pdb
     RDKit          3D

 22 22  0  0  1  0  0  0  0  0999 V2000
    6.2107  -11.9425   27.0451 C   0  0  0  0  0  0  0  0  0  0  0  0
    7.1632  -12.9353   26.4113 C   0  0  2  0  0  0  0  0  0  0  0  0
    8.0891  -12.1613   25.4977 C   0  0  0  0  0  0  0  0  0  0  0  0
    6.3754  -13.9260   25.5298 C   0  0  2  0  0  0  0  0  0  0  0  0
    5.4669  -14.6808   26.3657 N   0  0  0  0  0  0  0  0  0  0  0  0
    7.3528  -14.8786   24.8952 C   0  0  0  0  0  0  0  0  0  0  0  0
    8.0463  -15.5076   25.7572 O   0  0  0  0  0  0  0  0  0  0  0  0
    7.4569  -15.0270   23.5095 N   0  0  0  0  0  0  0  0  0  0  0  0
    6.3437  -14.7119   22.5926 C   0  0  0  0  0  0  0  0  0  0  0  0
    7.0850  -13.8063   21.6376 C   0  0  0  0  0  0  0  0  0  0  0  0
    8.4863  -14.3646   21.5753 C   0  0  0  0  0  0  0  0  0  0  0  0
    8.4586  -15.4997   22.6463 C   0  0  1  0  0  0  0  0  0  0  0  0
    9.7998  -15.7483   23.1265 C   0  0  0  0  0  0  0  0  0  0  0  0
   10.6522  -14.8678   23.2734 O   0  0  0  0  0  0  0  0  0  0  0  0
   10.8941  -18.1998   26.1729 C   0  0  0  0  0  0  0  0  0  0  0  0
   11.4695  -18.5871   24.8287 C   0  0  1  0  0  0  0  0  0  0  0  0
   10.7101  -19.5839   24.2060 O   0  0  0  0  0  0  0  0  0  0  0  0
   11.5702  -17.3572   23.9139 C   0  0  2  0  0  0  0  0  0  0  0  0
   10.2129  -17.0828   23.4663 N   0  0  0  0  0  0  0  0  0  0  0  0
   12.4383  -17.7533   22.7895 C   0  0  0  0  0  0  0  0  0  0  0  0
   11.9318  -18.0350   21.6887 O   0  0  0  0  0  0  0  0  0  0  0  0
   13.8016  -17.8127   22.9517 O   0  0  0  0  0  0  0  0  0  0  0  0
  2  1  1  6
  2  4  1  0
  2  3  1  0
  4  6  1  0
  4  5  1  1
  6  8  1  0
  6  7  2  0
  8 12  1  0
  9 10  1  0
  9  8  1  0
 10 11  1  0
 11 12  1  0
 12 13  1  1
 13 19  1  0
 13 14  2  0
 16 18  1  0
 16 15  1  1
 17 16  1  0
 18 20  1  0
 18 19  1  6
 20 22  1  0
 21 20  2  0
M  END
$$$$
