VPT.pdb
     RDKit          3D

 22 22  0  0  1  0  0  0  0  0999 V2000
    5.8697  -19.4820   21.7644 C   0  0  0  0  0  0  0  0  0  0  0  0
    5.1471  -18.1993   21.4074 C   0  0  2  0  0  0  0  0  0  0  0  0
    3.8166  -18.5797   20.7939 C   0  0  0  0  0  0  0  0  0  0  0  0
    5.9434  -17.4329   20.3314 C   0  0  2  0  0  0  0  0  0  0  0  0
    6.0263  -18.2467   19.1378 N   0  0  0  0  0  0  0  0  0  0  0  0
    7.3356  -17.1934   20.8510 C   0  0  0  0  0  0  0  0  0  0  0  0
    8.0387  -18.2541   20.8608 O   0  0  0  0  0  0  0  0  0  0  0  0
    7.7696  -15.9318   21.2668 N   0  0  0  0  0  0  0  0  0  0  0  0
    7.2055  -14.6805   20.7234 C   0  0  0  0  0  0  0  0  0  0  0  0
    6.8769  -13.9938   22.0282 C   0  0  0  0  0  0  0  0  0  0  0  0
    7.9589  -14.4319   22.9855 C   0  0  0  0  0  0  0  0  0  0  0  0
    8.7619  -15.4783   22.1509 C   0  0  1  0  0  0  0  0  0  0  0  0
    9.4412  -16.3930   23.0414 C   0  0  0  0  0  0  0  0  0  0  0  0
    8.8895  -16.9800   23.9765 O   0  0  0  0  0  0  0  0  0  0  0  0
   13.7604  -18.7424   23.9443 C   0  0  0  0  0  0  0  0  0  0  0  0
   12.9809  -17.6674   23.2198 C   0  0  1  0  0  0  0  0  0  0  0  0
   13.0079  -17.8513   21.8329 O   0  0  0  0  0  0  0  0  0  0  0  0
   11.5273  -17.6327   23.7153 C   0  0  2  0  0  0  0  0  0  0  0  0
   10.8418  -16.6681   22.8683 N   0  0  0  0  0  0  0  0  0  0  0  0
   11.5832  -17.1753   25.1162 C   0  0  0  0  0  0  0  0  0  0  0  0
   11.6743  -15.9598   25.3651 O   0  0  0  0  0  0  0  0  0  0  0  0
   11.5354  -18.0839   26.1461 O   0  0  0  0  0  0  0  0  0  0  0  0
  2  1  1  6
  2  4  1  0
  2  3  1  0
  4  6  1  0
  4  5  1  6
  6  8  1  0
  6  7  2  0
  8 12  1  0
  9 10  1  0
  9  8  1  0
 10 11  1  0
 11 12  1  0
 12 13  1  1
 13 19  1  0
 13 14  2  0
 16 18  1  0
 16 15  1  1
 17 16  1  0
 18 20  1  0
 18 19  1  6
 20 22  1  0
 21 20  2  0
M  END
$$$$
