VPT.pdb
     RDKit          3D

 22 22  0  0  1  0  0  0  0  0999 V2000
    7.4591  -16.6303   22.3842 C   0  0  0  0  0  0  0  0  0  0  0  0
    6.7376  -15.3074   22.2292 C   0  0  2  0  0  0  0  0  0  0  0  0
    6.1941  -15.2456   20.8178 C   0  0  0  0  0  0  0  0  0  0  0  0
    7.7391  -14.1445   22.3840 C   0  0  2  0  0  0  0  0  0  0  0  0
    8.7748  -14.2783   21.3824 N   0  0  0  0  0  0  0  0  0  0  0  0
    8.3700  -14.2389   23.7474 C   0  0  0  0  0  0  0  0  0  0  0  0
    9.2592  -15.1472   23.8084 O   0  0  0  0  0  0  0  0  0  0  0  0
    7.9933  -13.4039   24.8027 N   0  0  0  0  0  0  0  0  0  0  0  0
    7.4304  -12.0566   24.5856 C   0  0  0  0  0  0  0  0  0  0  0  0
    6.1954  -12.1848   25.4460 C   0  0  0  0  0  0  0  0  0  0  0  0
    6.6080  -13.0733   26.5947 C   0  0  0  0  0  0  0  0  0  0  0  0
    8.0564  -13.5030   26.2021 C   0  0  1  0  0  0  0  0  0  0  0  0
    8.3839  -14.7553   26.8466 C   0  0  0  0  0  0  0  0  0  0  0  0
    7.5914  -15.6935   26.9699 O   0  0  0  0  0  0  0  0  0  0  0  0
   10.9167  -17.1872   25.9705 C   0  0  0  0  0  0  0  0  0  0  0  0
   11.2644  -16.7691   27.3821 C   0  0  1  0  0  0  0  0  0  0  0  0
   12.3016  -15.8302   27.4054 O   0  0  0  0  0  0  0  0  0  0  0  0
   10.0271  -16.2005   28.0932 C   0  0  2  0  0  0  0  0  0  0  0  0
    9.6970  -14.9688   27.3919 N   0  0  0  0  0  0  0  0  0  0  0  0
   10.4404  -15.9344   29.4836 C   0  0  0  0  0  0  0  0  0  0  0  0
   10.5493  -14.7605   29.8808 O   0  0  0  0  0  0  0  0  0  0  0  0
   10.7052  -16.9752   30.3410 O   0  0  0  0  0  0  0  0  0  0  0  0
  2  1  1  6
  2  4  1  0
  2  3  1  0
  4  6  1  0
  4  5  1  6
  6  8  1  0
  6  7  2  0
  8 12  1  0
  9 10  1  0
  9  8  1  0
 10 11  1  0
 11 12  1  0
 12 13  1  6
 13 19  1  0
 13 14  2  0
 16 18  1  0
 16 15  1  6
 17 16  1  0
 18 20  1  0
 18 19  1  6
 20 22  1  0
 21 20  2  0
M  END
$$$$
