VPT.pdb
     RDKit          3D

 22 22  0  0  1  0  0  0  0  0999 V2000
   10.1787  -14.3053   30.0265 C   0  0  0  0  0  0  0  0  0  0  0  0
    9.9962  -14.6237   28.5568 C   0  0  2  0  0  0  0  0  0  0  0  0
    9.8733  -13.3093   27.8162 C   0  0  0  0  0  0  0  0  0  0  0  0
    8.6742  -15.3905   28.3482 C   0  0  2  0  0  0  0  0  0  0  0  0
    8.7092  -16.6099   29.1265 N   0  0  0  0  0  0  0  0  0  0  0  0
    8.5582  -15.7501   26.8912 C   0  0  0  0  0  0  0  0  0  0  0  0
    9.2350  -16.7853   26.5918 O   0  0  0  0  0  0  0  0  0  0  0  0
    7.7833  -15.0046   25.9986 N   0  0  0  0  0  0  0  0  0  0  0  0
    6.5575  -14.2949   26.4143 C   0  0  0  0  0  0  0  0  0  0  0  0
    6.8827  -12.9309   25.8526 C   0  0  0  0  0  0  0  0  0  0  0  0
    7.6672  -13.2027   24.5917 C   0  0  0  0  0  0  0  0  0  0  0  0
    7.8465  -14.7531   24.6185 C   0  0  1  0  0  0  0  0  0  0  0  0
    9.0125  -15.1213   23.8465 C   0  0  0  0  0  0  0  0  0  0  0  0
   10.0456  -14.4480   23.7970 O   0  0  0  0  0  0  0  0  0  0  0  0
   10.4399  -18.9719   23.2548 C   0  0  0  0  0  0  0  0  0  0  0  0
   10.0458  -18.2074   22.0104 C   0  0  1  0  0  0  0  0  0  0  0  0
    8.7485  -18.5258   21.5939 O   0  0  0  0  0  0  0  0  0  0  0  0
   10.1623  -16.6947   22.2511 C   0  0  2  0  0  0  0  0  0  0  0  0
    9.0176  -16.3342   23.0743 N   0  0  0  0  0  0  0  0  0  0  0  0
   10.0896  -16.0619   20.9210 C   0  0  0  0  0  0  0  0  0  0  0  0
    9.0250  -15.5411   20.5430 O   0  0  0  0  0  0  0  0  0  0  0  0
   11.1906  -16.0449   20.0987 O   0  0  0  0  0  0  0  0  0  0  0  0
  2  1  1  1
  2  4  1  0
  2  3  1  0
  4  6  1  0
  4  5  1  1
  6  8  1  0
  6  7  2  0
  8 12  1  0
  9 10  1  0
  9  8  1  0
 10 11  1  0
 11 12  1  0
 12 13  1  1
 13 19  1  0
 13 14  2  0
 16 18  1  0
 16 15  1  1
 17 16  1  0
 18 20  1  0
 18 19  1  1
 20 22  1  0
 21 20  2  0
M  END
$$$$
