VPT.pdb
     RDKit          3D

 22 22  0  0  1  0  0  0  0  0999 V2000
    6.8418  -18.4341   16.1682 C   0  0  0  0  0  0  0  0  0  0  0  0
    7.4701  -17.9614   17.4630 C   0  0  2  0  0  0  0  0  0  0  0  0
    6.3511  -17.7258   18.4548 C   0  0  0  0  0  0  0  0  0  0  0  0
    8.1739  -16.6073   17.2387 C   0  0  2  0  0  0  0  0  0  0  0  0
    9.1156  -16.7407   16.1482 N   0  0  0  0  0  0  0  0  0  0  0  0
    8.9307  -16.2519   18.4903 C   0  0  0  0  0  0  0  0  0  0  0  0
    9.6944  -17.1928   18.8789 O   0  0  0  0  0  0  0  0  0  0  0  0
    8.7833  -15.0157   19.1252 N   0  0  0  0  0  0  0  0  0  0  0  0
    8.4071  -13.7893   18.3949 C   0  0  0  0  0  0  0  0  0  0  0  0
    7.2542  -13.3501   19.2666 C   0  0  0  0  0  0  0  0  0  0  0  0
    7.6386  -13.7679   20.6654 C   0  0  0  0  0  0  0  0  0  0  0  0
    8.9638  -14.5618   20.4418 C   0  0  1  0  0  0  0  0  0  0  0  0
    9.1629  -15.4927   21.5304 C   0  0  0  0  0  0  0  0  0  0  0  0
    8.2597  -16.1679   22.0320 O   0  0  0  0  0  0  0  0  0  0  0  0
   12.2407  -17.9357   21.7858 C   0  0  0  0  0  0  0  0  0  0  0  0
   12.1179  -17.1180   23.0525 C   0  0  1  0  0  0  0  0  0  0  0  0
   13.0256  -16.0532   23.0737 O   0  0  0  0  0  0  0  0  0  0  0  0
   10.6849  -16.5878   23.2117 C   0  0  2  0  0  0  0  0  0  0  0  0
   10.4716  -15.6782   22.0959 N   0  0  0  0  0  0  0  0  0  0  0  0
   10.6535  -15.8742   24.5018 C   0  0  0  0  0  0  0  0  0  0  0  0
   10.6500  -14.6302   24.5187 O   0  0  0  0  0  0  0  0  0  0  0  0
   10.6281  -16.5756   25.6833 O   0  0  0  0  0  0  0  0  0  0  0  0
  2  1  1  6
  2  4  1  0
  2  3  1  0
  4  6  1  0
  4  5  1  6
  6  8  1  0
  6  7  2  0
  8 12  1  0
  9 10  1  0
  9  8  1  0
 10 11  1  0
 11 12  1  0
 12 13  1  1
 13 19  1  0
 13 14  2  0
 16 18  1  0
 16 15  1  6
 17 16  1  0
 18 20  1  0
 18 19  1  6
 20 22  1  0
 21 20  2  0
M  END
$$$$
