DGA.pdb
     RDKit          3D

 18 17  0  0  1  0  0  0  0  0999 V2000
   19.7167  -12.5719  -16.4160 N   0  0  0  0  0  0  0  0  0  0  0  0
   19.5971  -11.1987  -16.7690 C   0  0  1  0  0  0  0  0  0  0  0  0
   18.1389  -10.8094  -16.8377 C   0  0  0  0  0  0  0  0  0  0  0  0
   17.3830  -11.5660  -17.8244 C   0  0  0  0  0  0  0  0  0  0  0  0
   17.9081  -11.9652  -18.8862 O   0  0  0  0  0  0  0  0  0  0  0  0
   20.3374  -10.2902  -15.8545 C   0  0  0  0  0  0  0  0  0  0  0  0
   19.9448  -10.0911  -14.6772 O   0  0  0  0  0  0  0  0  0  0  0  0
   16.0528  -11.8548  -17.5913 O   0  0  0  0  0  0  0  0  0  0  0  0
   21.5191   -9.6037  -16.2590 N   0  0  0  0  0  0  0  0  0  0  0  0
   22.2956   -8.7425  -15.4221 C   0  0  0  0  0  0  0  0  0  0  0  0
   21.8803   -7.3499  -15.3469 C   0  0  0  0  0  0  0  0  0  0  0  0
   21.1570   -6.9006  -16.2731 O   0  0  0  0  0  0  0  0  0  0  0  0
   21.7373   -4.5659  -12.8433 C   0  0  0  0  0  0  0  0  0  0  0  0
   21.6791   -5.1350  -14.2434 C   0  0  2  0  0  0  0  0  0  0  0  0
   22.2314   -6.4705  -14.3053 N   0  0  0  0  0  0  0  0  0  0  0  0
   22.4636   -4.2492  -15.1392 C   0  0  0  0  0  0  0  0  0  0  0  0
   23.6535   -4.6845  -15.6537 O   0  0  0  0  0  0  0  0  0  0  0  0
   22.0343   -3.0921  -15.4282 O   0  0  0  0  0  0  0  0  0  0  0  0
  2  1  1  1
  2  3  1  0
  3  4  1  0
  4  5  2  0
  4  8  1  0
  6  7  2  0
  6  2  1  0
  9  6  1  0
 10 11  1  0
 10  9  1  0
 11 12  2  0
 14 13  1  1
 15 14  1  0
 15 11  1  0
 16 17  1  0
 16 14  1  0
 18 16  2  0
M  END
$$$$
