DGA.pdb
     RDKit          3D

 18 17  0  0  1  0  0  0  0  0999 V2000
   13.6163  -11.2970  -11.5693 N   0  0  0  0  0  0  0  0  0  0  0  0
   12.9021  -10.7599  -10.4621 C   0  0  1  0  0  0  0  0  0  0  0  0
   12.4153  -11.8787   -9.5711 C   0  0  0  0  0  0  0  0  0  0  0  0
   11.3727  -12.6916  -10.1790 C   0  0  0  0  0  0  0  0  0  0  0  0
   10.8661  -12.3898  -11.2812 O   0  0  0  0  0  0  0  0  0  0  0  0
   13.6898   -9.7730   -9.6776 C   0  0  0  0  0  0  0  0  0  0  0  0
   13.1936   -9.1893   -8.6811 O   0  0  0  0  0  0  0  0  0  0  0  0
   10.9254  -13.8257   -9.5304 O   0  0  0  0  0  0  0  0  0  0  0  0
   15.0352   -9.4394  -10.0095 N   0  0  0  0  0  0  0  0  0  0  0  0
   15.8467   -8.4990   -9.3008 C   0  0  0  0  0  0  0  0  0  0  0  0
   15.8597   -7.1330   -9.8022 C   0  0  0  0  0  0  0  0  0  0  0  0
   15.5718   -6.9477  -11.0128 O   0  0  0  0  0  0  0  0  0  0  0  0
   16.1254   -3.6109   -8.4880 C   0  0  0  0  0  0  0  0  0  0  0  0
   16.0430   -4.6683   -9.5663 C   0  0  2  0  0  0  0  0  0  0  0  0
   16.1707   -6.0028   -9.0229 N   0  0  0  0  0  0  0  0  0  0  0  0
   17.1457   -4.4358  -10.5319 C   0  0  0  0  0  0  0  0  0  0  0  0
   18.1633   -5.3437  -10.6332 O   0  0  0  0  0  0  0  0  0  0  0  0
   17.1468   -3.3995  -11.2619 O   0  0  0  0  0  0  0  0  0  0  0  0
  2  1  1  6
  2  3  1  0
  3  4  1  0
  4  5  2  0
  4  8  1  0
  6  7  2  0
  6  2  1  0
  9  6  1  0
 10 11  1  0
 10  9  1  0
 11 12  2  0
 14 13  1  1
 15 14  1  0
 15 11  1  0
 16 17  1  0
 16 14  1  0
 18 16  2  0
M  END
$$$$
