DGA.pdb
     RDKit          3D

 18 17  0  0  1  0  0  0  0  0999 V2000
   22.6129   -6.1617  -14.9307 N   0  0  0  0  0  0  0  0  0  0  0  0
   21.3530   -5.8880  -14.3288 C   0  0  1  0  0  0  0  0  0  0  0  0
   21.0243   -4.4198  -14.4664 C   0  0  0  0  0  0  0  0  0  0  0  0
   22.0107   -3.5449  -13.8511 C   0  0  0  0  0  0  0  0  0  0  0  0
   22.2795   -3.6162  -12.6323 O   0  0  0  0  0  0  0  0  0  0  0  0
   20.2490   -6.7232  -14.8707 C   0  0  0  0  0  0  0  0  0  0  0  0
   19.0808   -6.6318  -14.4159 O   0  0  0  0  0  0  0  0  0  0  0  0
   22.6713   -2.6102  -14.6237 O   0  0  0  0  0  0  0  0  0  0  0  0
   20.4536   -7.6621  -15.9233 N   0  0  0  0  0  0  0  0  0  0  0  0
   19.4339   -8.4787  -16.5050 C   0  0  0  0  0  0  0  0  0  0  0  0
   19.2596   -9.8105  -15.9454 C   0  0  0  0  0  0  0  0  0  0  0  0
   20.1829  -10.2723  -15.2264 O   0  0  0  0  0  0  0  0  0  0  0  0
   16.5831  -12.4123  -15.5112 C   0  0  0  0  0  0  0  0  0  0  0  0
   18.0112  -11.9141  -15.5204 C   0  0  2  0  0  0  0  0  0  0  0  0
   18.1252  -10.6179  -16.1524 N   0  0  0  0  0  0  0  0  0  0  0  0
   18.8397  -12.8891  -16.2722 C   0  0  0  0  0  0  0  0  0  0  0  0
   19.3528  -12.5467  -17.4928 O   0  0  0  0  0  0  0  0  0  0  0  0
   19.0728  -14.0367  -15.7869 O   0  0  0  0  0  0  0  0  0  0  0  0
  2  1  1  6
  2  3  1  0
  3  4  1  0
  4  5  2  0
  4  8  1  0
  6  7  2  0
  6  2  1  0
  9  6  1  0
 10 11  1  0
 10  9  1  0
 11 12  2  0
 14 13  1  6
 15 14  1  0
 15 11  1  0
 16 17  1  0
 16 14  1  0
 18 16  2  0
M  END
$$$$
