DGA.pdb
     RDKit          3D

 18 17  0  0  1  0  0  0  0  0999 V2000
   20.4015   -8.0628  -16.1745 N   0  0  0  0  0  0  0  0  0  0  0  0
   20.3751   -8.3627  -14.7839 C   0  0  1  0  0  0  0  0  0  0  0  0
   21.1139   -9.6541  -14.5212 C   0  0  0  0  0  0  0  0  0  0  0  0
   20.5382  -10.8010  -15.2072 C   0  0  0  0  0  0  0  0  0  0  0  0
   21.1890  -11.8539  -15.3819 O   0  0  0  0  0  0  0  0  0  0  0  0
   20.9182   -7.2688  -13.9364 C   0  0  0  0  0  0  0  0  0  0  0  0
   21.3934   -7.5038  -12.7967 O   0  0  0  0  0  0  0  0  0  0  0  0
   19.2425  -10.7344  -15.6803 O   0  0  0  0  0  0  0  0  0  0  0  0
   20.9292   -5.9098  -14.3658 N   0  0  0  0  0  0  0  0  0  0  0  0
   21.5582   -4.8328  -13.6664 C   0  0  0  0  0  0  0  0  0  0  0  0
   21.5219   -3.5252  -14.3037 C   0  0  0  0  0  0  0  0  0  0  0  0
   21.3966   -3.4835  -15.5548 O   0  0  0  0  0  0  0  0  0  0  0  0
   21.2958    0.1167  -13.3706 C   0  0  0  0  0  0  0  0  0  0  0  0
   21.5095   -1.0425  -14.3184 C   0  0  2  0  0  0  0  0  0  0  0  0
   21.6152   -2.3015  -13.6141 N   0  0  0  0  0  0  0  0  0  0  0  0
   22.7677   -0.8050  -15.0685 C   0  0  0  0  0  0  0  0  0  0  0  0
   22.7631    0.0181  -16.1606 O   0  0  0  0  0  0  0  0  0  0  0  0
   23.8452   -1.3620  -14.7002 O   0  0  0  0  0  0  0  0  0  0  0  0
  2  1  1  6
  2  3  1  0
  3  4  1  0
  4  5  2  0
  4  8  1  0
  6  7  2  0
  6  2  1  0
  9  6  1  0
 10 11  1  0
 10  9  1  0
 11 12  2  0
 14 13  1  1
 15 14  1  0
 15 11  1  0
 16 17  1  0
 16 14  1  0
 18 16  2  0
M  END
$$$$
