DGA.pdb
     RDKit          3D

 18 17  0  0  1  0  0  0  0  0999 V2000
   18.3771   -9.6309  -15.2824 N   0  0  0  0  0  0  0  0  0  0  0  0
   19.7310   -9.9973  -15.5216 C   0  0  1  0  0  0  0  0  0  0  0  0
   19.8015  -11.0029  -16.6470 C   0  0  0  0  0  0  0  0  0  0  0  0
   18.9515  -12.1655  -16.4394 C   0  0  0  0  0  0  0  0  0  0  0  0
   18.8271  -12.6930  -15.3130 O   0  0  0  0  0  0  0  0  0  0  0  0
   20.6133   -8.8348  -15.8043 C   0  0  0  0  0  0  0  0  0  0  0  0
   20.4739   -8.1516  -16.8501 O   0  0  0  0  0  0  0  0  0  0  0  0
   18.2615  -12.7065  -17.5063 O   0  0  0  0  0  0  0  0  0  0  0  0
   21.6531   -8.4368  -14.9144 N   0  0  0  0  0  0  0  0  0  0  0  0
   22.5421   -7.3376  -15.1298 C   0  0  0  0  0  0  0  0  0  0  0  0
   22.1747   -6.0668  -14.5235 C   0  0  0  0  0  0  0  0  0  0  0  0
   21.5949   -6.0930  -13.4073 O   0  0  0  0  0  0  0  0  0  0  0  0
   23.1832   -2.5258  -14.6228 C   0  0  0  0  0  0  0  0  0  0  0  0
   22.1349   -3.5886  -14.3794 C   0  0  2  0  0  0  0  0  0  0  0  0
   22.4267   -4.8079  -15.1008 N   0  0  0  0  0  0  0  0  0  0  0  0
   20.8242   -3.0629  -14.8356 C   0  0  0  0  0  0  0  0  0  0  0  0
   20.2575   -3.5507  -15.9807 O   0  0  0  0  0  0  0  0  0  0  0  0
   20.2295   -2.1645  -14.1679 O   0  0  0  0  0  0  0  0  0  0  0  0
  2  1  1  6
  2  3  1  0
  3  4  1  0
  4  5  2  0
  4  8  1  0
  6  7  2  0
  6  2  1  0
  9  6  1  0
 10 11  1  0
 10  9  1  0
 11 12  2  0
 14 13  1  6
 15 14  1  0
 15 11  1  0
 16 17  1  0
 16 14  1  0
 18 16  2  0
M  END
$$$$
