DGA.pdb
     RDKit          3D

 18 17  0  0  1  0  0  0  0  0999 V2000
   17.7204  -10.1499  -16.7386 N   0  0  0  0  0  0  0  0  0  0  0  0
   16.4732   -9.9232  -16.0923 C   0  0  1  0  0  0  0  0  0  0  0  0
   16.0290  -11.1766  -15.3753 C   0  0  0  0  0  0  0  0  0  0  0  0
   15.6727  -12.2634  -16.2748 C   0  0  0  0  0  0  0  0  0  0  0  0
   15.3532  -12.0507  -17.4645 O   0  0  0  0  0  0  0  0  0  0  0  0
   16.4974   -8.7677  -15.1574 C   0  0  0  0  0  0  0  0  0  0  0  0
   15.4345   -8.2895  -14.6868 O   0  0  0  0  0  0  0  0  0  0  0  0
   15.6849  -13.5646  -15.8126 O   0  0  0  0  0  0  0  0  0  0  0  0
   17.7136   -8.1469  -14.7489 N   0  0  0  0  0  0  0  0  0  0  0  0
   17.8166   -7.1038  -13.7760 C   0  0  0  0  0  0  0  0  0  0  0  0
   19.1577   -6.6545  -13.4338 C   0  0  0  0  0  0  0  0  0  0  0  0
   19.2709   -5.7324  -12.5856 O   0  0  0  0  0  0  0  0  0  0  0  0
   22.7582   -7.5717  -14.0639 C   0  0  0  0  0  0  0  0  0  0  0  0
   21.6349   -6.6725  -13.5978 C   0  0  2  0  0  0  0  0  0  0  0  0
   20.3390   -7.1841  -13.9867 N   0  0  0  0  0  0  0  0  0  0  0  0
   21.8257   -5.3339  -14.2093 C   0  0  0  0  0  0  0  0  0  0  0  0
   22.6649   -4.4300  -13.6186 O   0  0  0  0  0  0  0  0  0  0  0  0
   21.2137   -5.0264  -15.2760 O   0  0  0  0  0  0  0  0  0  0  0  0
  2  1  1  1
  2  3  1  0
  3  4  1  0
  4  5  2  0
  4  8  1  0
  6  7  2  0
  6  2  1  0
  9  6  1  0
 10 11  1  0
 10  9  1  0
 11 12  2  0
 14 13  1  6
 15 14  1  0
 15 11  1  0
 16 17  1  0
 16 14  1  0
 18 16  2  0
M  END
$$$$
