DGA.pdb
     RDKit          3D

 18 17  0  0  1  0  0  0  0  0999 V2000
   18.2933  -11.7694  -14.4195 N   0  0  0  0  0  0  0  0  0  0  0  0
   18.2445  -11.8781  -15.8373 C   0  0  1  0  0  0  0  0  0  0  0  0
   16.8074  -11.9188  -16.3018 C   0  0  0  0  0  0  0  0  0  0  0  0
   16.0068  -12.9256  -15.6216 C   0  0  0  0  0  0  0  0  0  0  0  0
   14.8229  -12.7044  -15.2870 O   0  0  0  0  0  0  0  0  0  0  0  0
   18.9884  -10.7969  -16.5355 C   0  0  0  0  0  0  0  0  0  0  0  0
   19.0047  -10.7242  -17.7903 O   0  0  0  0  0  0  0  0  0  0  0  0
   16.5593  -14.1582  -15.3344 O   0  0  0  0  0  0  0  0  0  0  0  0
   19.7150   -9.7958  -15.8276 N   0  0  0  0  0  0  0  0  0  0  0  0
   20.3221   -8.6462  -16.4233 C   0  0  0  0  0  0  0  0  0  0  0  0
   21.0108   -7.7287  -15.5283 C   0  0  0  0  0  0  0  0  0  0  0  0
   20.9338   -7.9442  -14.2912 O   0  0  0  0  0  0  0  0  0  0  0  0
   23.3450   -4.7657  -15.6773 C   0  0  0  0  0  0  0  0  0  0  0  0
   22.4420   -5.7706  -14.9974 C   0  0  2  0  0  0  0  0  0  0  0  0
   21.7606   -6.6157  -15.9534 N   0  0  0  0  0  0  0  0  0  0  0  0
   21.4297   -5.0272  -14.2069 C   0  0  0  0  0  0  0  0  0  0  0  0
   21.7528   -4.5484  -12.9673 O   0  0  0  0  0  0  0  0  0  0  0  0
   20.2683   -4.8349  -14.6768 O   0  0  0  0  0  0  0  0  0  0  0  0
  2  1  1  1
  2  3  1  0
  3  4  1  0
  4  5  2  0
  4  8  1  0
  6  7  2  0
  6  2  1  0
  9  6  1  0
 10 11  1  0
 10  9  1  0
 11 12  2  0
 14 13  1  6
 15 14  1  0
 15 11  1  0
 16 17  1  0
 16 14  1  0
 18 16  2  0
M  END
$$$$
