IGT.pdb
     RDKit          3D

 20 19  0  0  1  0  0  0  0  0999 V2000
   31.1240  -21.8958  -10.4962 C   0  0  0  0  0  0  0  0  0  0  0  0
   29.6417  -21.8775  -10.0826 C   0  0  0  0  0  0  0  0  0  0  0  0
   28.9003  -21.2940  -11.2516 C   0  0  2  0  0  0  0  0  0  0  0  0
   29.4618  -19.9605  -11.6650 C   0  0  0  0  0  0  0  0  0  0  0  0
   27.4468  -21.1687  -10.9566 C   0  0  2  0  0  0  0  0  0  0  0  0
   26.9460  -22.4850  -10.5798 N   0  0  0  0  0  0  0  0  0  0  0  0
   26.6271  -20.5422  -11.9942 C   0  0  0  0  0  0  0  0  0  0  0  0
   26.3609  -19.3172  -11.9409 O   0  0  0  0  0  0  0  0  0  0  0  0
   26.0797  -21.2375  -13.1128 N   0  0  0  0  0  0  0  0  0  0  0  0
   25.3160  -20.5571  -14.1329 C   0  0  0  0  0  0  0  0  0  0  0  0
   23.8814  -20.4546  -13.7894 C   0  0  0  0  0  0  0  0  0  0  0  0
   23.4324  -20.7743  -12.6514 O   0  0  0  0  0  0  0  0  0  0  0  0
   21.3673  -17.3553  -14.7381 C   0  0  0  0  0  0  0  0  0  0  0  0
   20.9614  -18.6944  -15.3252 C   0  0  1  0  0  0  0  0  0  0  0  0
   21.3481  -18.7070  -16.6528 O   0  0  0  0  0  0  0  0  0  0  0  0
   21.5549  -19.8484  -14.5507 C   0  0  2  0  0  0  0  0  0  0  0  0
   22.9659  -19.9863  -14.7509 N   0  0  0  0  0  0  0  0  0  0  0  0
   20.8956  -21.0872  -15.0542 C   0  0  0  0  0  0  0  0  0  0  0  0
   21.5174  -21.9451  -15.7347 O   0  0  0  0  0  0  0  0  0  0  0  0
   19.5592  -21.3555  -14.7961 O   0  0  0  0  0  0  0  0  0  0  0  0
  2  3  1  0
  2  1  1  0
  3  4  1  1
  5  3  1  0
  5  6  1  6
  7  8  2  0
  7  5  1  0
  9  7  1  0
 10  9  1  0
 10 11  1  0
 11 17  1  0
 12 11  2  0
 14 15  1  0
 14 13  1  1
 16 14  1  0
 16 18  1  0
 16 17  1  6
 18 19  2  0
 18 20  1  0
M  END
$$$$
