IGT.pdb
     RDKit          3D

 20 19  0  0  1  0  0  0  0  0999 V2000
   18.5636  -13.0294  -19.9545 C   0  0  0  0  0  0  0  0  0  0  0  0
   18.6780  -12.7097  -18.4535 C   0  0  0  0  0  0  0  0  0  0  0  0
   19.8469  -11.7748  -18.3246 C   0  0  2  0  0  0  0  0  0  0  0  0
   21.1264  -12.4043  -18.8054 C   0  0  0  0  0  0  0  0  0  0  0  0
   20.0038  -11.3023  -16.9218 C   0  0  2  0  0  0  0  0  0  0  0  0
   18.7975  -10.5718  -16.5523 N   0  0  0  0  0  0  0  0  0  0  0  0
   21.2205  -10.5451  -16.6260 C   0  0  0  0  0  0  0  0  0  0  0  0
   22.3383  -11.1149  -16.6200 O   0  0  0  0  0  0  0  0  0  0  0  0
   21.2450   -9.1501  -16.3301 N   0  0  0  0  0  0  0  0  0  0  0  0
   22.4791   -8.4522  -16.0527 C   0  0  0  0  0  0  0  0  0  0  0  0
   22.2679   -7.0101  -15.8034 C   0  0  0  0  0  0  0  0  0  0  0  0
   22.7309   -6.1152  -16.5674 O   0  0  0  0  0  0  0  0  0  0  0  0
   18.6079   -5.7310  -14.8346 C   0  0  0  0  0  0  0  0  0  0  0  0
   19.6557   -5.2462  -13.8499 C   0  0  1  0  0  0  0  0  0  0  0  0
   19.5669   -6.0351  -12.7176 O   0  0  0  0  0  0  0  0  0  0  0  0
   21.0423   -5.2702  -14.4504 C   0  0  2  0  0  0  0  0  0  0  0  0
   21.5269   -6.5979  -14.6796 N   0  0  0  0  0  0  0  0  0  0  0  0
   21.9481   -4.6135  -13.4649 C   0  0  0  0  0  0  0  0  0  0  0  0
   22.8135   -5.2611  -12.8189 O   0  0  0  0  0  0  0  0  0  0  0  0
   21.8806   -3.2514  -13.2111 O   0  0  0  0  0  0  0  0  0  0  0  0
  2  3  1  0
  2  1  1  0
  3  4  1  1
  5  3  1  0
  5  6  1  6
  7  8  2  0
  7  5  1  0
  9  7  1  0
 10  9  1  0
 10 11  1  0
 11 17  1  0
 12 11  2  0
 14 15  1  0
 14 13  1  6
 16 14  1  0
 16 18  1  0
 16 17  1  1
 18 19  2  0
 18 20  1  0
M  END
$$$$
