IGT.pdb
     RDKit          3D

 20 19  0  0  1  0  0  0  0  0999 V2000
   27.8840  -19.6752   -7.0178 C   0  0  0  0  0  0  0  0  0  0  0  0
   27.2340  -20.8045   -7.8368 C   0  0  0  0  0  0  0  0  0  0  0  0
   26.6820  -20.1472   -9.0696 C   0  0  2  0  0  0  0  0  0  0  0  0
   25.6312  -19.1224   -8.7383 C   0  0  0  0  0  0  0  0  0  0  0  0
   26.1329  -21.1567  -10.0157 C   0  0  2  0  0  0  0  0  0  0  0  0
   27.1794  -22.1329  -10.2940 N   0  0  0  0  0  0  0  0  0  0  0  0
   25.5258  -20.6337  -11.2400 C   0  0  0  0  0  0  0  0  0  0  0  0
   24.4365  -20.0127  -11.1944 O   0  0  0  0  0  0  0  0  0  0  0  0
   26.0929  -20.7764  -12.5409 N   0  0  0  0  0  0  0  0  0  0  0  0
   25.4451  -20.2424  -13.7166 C   0  0  0  0  0  0  0  0  0  0  0  0
   24.3132  -21.0806  -14.1668 C   0  0  0  0  0  0  0  0  0  0  0  0
   24.4474  -22.3055  -14.4502 O   0  0  0  0  0  0  0  0  0  0  0  0
   21.3263  -21.6230  -12.0326 C   0  0  0  0  0  0  0  0  0  0  0  0
   20.8304  -21.0275  -13.3372 C   0  0  1  0  0  0  0  0  0  0  0  0
   20.5823  -19.6845  -13.1199 O   0  0  0  0  0  0  0  0  0  0  0  0
   21.8143  -21.2475  -14.4630 C   0  0  2  0  0  0  0  0  0  0  0  0
   23.0310  -20.5125  -14.2907 N   0  0  0  0  0  0  0  0  0  0  0  0
   21.1559  -20.7615  -15.7093 C   0  0  0  0  0  0  0  0  0  0  0  0
   21.5789  -19.7570  -16.3398 O   0  0  0  0  0  0  0  0  0  0  0  0
   20.0404  -21.3957  -16.2365 O   0  0  0  0  0  0  0  0  0  0  0  0
  2  3  1  0
  2  1  1  0
  3  4  1  1
  5  3  1  0
  5  6  1  6
  7  8  2  0
  7  5  1  0
  9  7  1  0
 10  9  1  0
 10 11  1  0
 11 17  1  0
 12 11  2  0
 14 15  1  0
 14 13  1  1
 16 14  1  0
 16 18  1  0
 16 17  1  1
 18 19  2  0
 18 20  1  0
M  END
$$$$
