IGT.pdb
     RDKit          3D

 20 19  0  0  1  0  0  0  0  0999 V2000
   21.5176  -18.3089  -16.3152 C   0  0  0  0  0  0  0  0  0  0  0  0
   20.3492  -17.4024  -16.7413 C   0  0  0  0  0  0  0  0  0  0  0  0
   20.5939  -16.0808  -16.0704 C   0  0  2  0  0  0  0  0  0  0  0  0
   20.6331  -16.2095  -14.5716 C   0  0  0  0  0  0  0  0  0  0  0  0
   19.5701  -15.0776  -16.4719 C   0  0  2  0  0  0  0  0  0  0  0  0
   19.6111  -14.9445  -17.9231 N   0  0  0  0  0  0  0  0  0  0  0  0
   19.6342  -13.7812  -15.7964 C   0  0  0  0  0  0  0  0  0  0  0  0
   19.4432  -13.6989  -14.5590 O   0  0  0  0  0  0  0  0  0  0  0  0
   19.9079  -12.5461  -16.4551 N   0  0  0  0  0  0  0  0  0  0  0  0
   20.0395  -11.3066  -15.7249 C   0  0  0  0  0  0  0  0  0  0  0  0
   19.2640  -10.2063  -16.3368 C   0  0  0  0  0  0  0  0  0  0  0  0
   18.9469  -10.1996  -17.5609 O   0  0  0  0  0  0  0  0  0  0  0  0
   15.8200   -9.0311  -15.2855 C   0  0  0  0  0  0  0  0  0  0  0  0
   16.7839   -7.8698  -15.1269 C   0  0  1  0  0  0  0  0  0  0  0  0
   17.0974   -7.7628  -13.7843 O   0  0  0  0  0  0  0  0  0  0  0  0
   18.0158   -8.0434  -15.9849 C   0  0  2  0  0  0  0  0  0  0  0  0
   18.8544   -9.1172  -15.5444 N   0  0  0  0  0  0  0  0  0  0  0  0
   18.7954   -6.7771  -15.8773 C   0  0  0  0  0  0  0  0  0  0  0  0
   18.3767   -5.6923  -16.3604 O   0  0  0  0  0  0  0  0  0  0  0  0
   20.0252   -6.7330  -15.2369 O   0  0  0  0  0  0  0  0  0  0  0  0
  2  3  1  0
  2  1  1  0
  3  4  1  1
  5  3  1  0
  5  6  1  6
  7  8  2  0
  7  5  1  0
  9  7  1  0
 10  9  1  0
 10 11  1  0
 11 17  1  0
 12 11  2  0
 14 15  1  0
 14 13  1  1
 16 14  1  0
 16 18  1  0
 16 17  1  1
 18 19  2  0
 18 20  1  0
M  END
$$$$
