IGT.pdb
     RDKit          3D

 20 19  0  0  1  0  0  0  0  0999 V2000
   28.8756  -20.0303   -4.3772 C   0  0  0  0  0  0  0  0  0  0  0  0
   27.4459  -19.9092   -4.9340 C   0  0  0  0  0  0  0  0  0  0  0  0
   27.5695  -20.1035   -6.4185 C   0  0  2  0  0  0  0  0  0  0  0  0
   28.5222  -19.1169   -7.0376 C   0  0  0  0  0  0  0  0  0  0  0  0
   26.2404  -20.0187   -7.0831 C   0  0  2  0  0  0  0  0  0  0  0  0
   25.3684  -21.0202   -6.4815 N   0  0  0  0  0  0  0  0  0  0  0  0
   26.2413  -20.0934   -8.5445 C   0  0  0  0  0  0  0  0  0  0  0  0
   26.6781  -19.1373   -9.2297 O   0  0  0  0  0  0  0  0  0  0  0  0
   25.7661  -21.2121   -9.2908 N   0  0  0  0  0  0  0  0  0  0  0  0
   25.7115  -21.1966  -10.7343 C   0  0  0  0  0  0  0  0  0  0  0  0
   24.4432  -20.6333  -11.2448 C   0  0  0  0  0  0  0  0  0  0  0  0
   23.6637  -19.9515  -10.5192 O   0  0  0  0  0  0  0  0  0  0  0  0
   24.1465  -18.8530  -14.9068 C   0  0  0  0  0  0  0  0  0  0  0  0
   23.1716  -19.9974  -14.7002 C   0  0  1  0  0  0  0  0  0  0  0  0
   23.6737  -21.1032  -15.3618 O   0  0  0  0  0  0  0  0  0  0  0  0
   22.9347  -20.2733  -13.2334 C   0  0  2  0  0  0  0  0  0  0  0  0
   24.0722  -20.8528  -12.5850 N   0  0  0  0  0  0  0  0  0  0  0  0
   21.8131  -21.2527  -13.1568 C   0  0  0  0  0  0  0  0  0  0  0  0
   21.9921  -22.4460  -12.7970 O   0  0  0  0  0  0  0  0  0  0  0  0
   20.5124  -20.8945  -13.4799 O   0  0  0  0  0  0  0  0  0  0  0  0
  2  3  1  0
  2  1  1  0
  3  4  1  6
  5  3  1  0
  5  6  1  1
  7  8  2  0
  7  5  1  0
  9  7  1  0
 10  9  1  0
 10 11  1  0
 11 17  1  0
 12 11  2  0
 14 15  1  0
 14 13  1  1
 16 14  1  0
 16 18  1  0
 16 17  1  6
 18 19  2  0
 18 20  1  0
M  END
$$$$
