IGT.pdb
     RDKit          3D

 20 19  0  0  1  0  0  0  0  0999 V2000
   14.0099  -13.7403  -17.4920 C   0  0  0  0  0  0  0  0  0  0  0  0
   15.3471  -13.6943  -18.2524 C   0  0  0  0  0  0  0  0  0  0  0  0
   16.2735  -12.8773  -17.3974 C   0  0  2  0  0  0  0  0  0  0  0  0
   15.7281  -11.4998  -17.1343 C   0  0  0  0  0  0  0  0  0  0  0  0
   17.6269  -12.7842  -18.0101 C   0  0  2  0  0  0  0  0  0  0  0  0
   18.0657  -14.1332  -18.3463 N   0  0  0  0  0  0  0  0  0  0  0  0
   18.6350  -12.0502  -17.2447 C   0  0  0  0  0  0  0  0  0  0  0  0
   19.2218  -12.5957  -16.2790 O   0  0  0  0  0  0  0  0  0  0  0  0
   19.0256  -10.7054  -17.5152 N   0  0  0  0  0  0  0  0  0  0  0  0
   20.0477  -10.0391  -16.7418 C   0  0  0  0  0  0  0  0  0  0  0  0
   19.4840   -9.0681  -15.7796 C   0  0  0  0  0  0  0  0  0  0  0  0
   18.2790   -9.1125  -15.3991 O   0  0  0  0  0  0  0  0  0  0  0  0
   20.4031   -8.8108  -12.3354 C   0  0  0  0  0  0  0  0  0  0  0  0
   20.7323   -7.4486  -12.9174 C   0  0  1  0  0  0  0  0  0  0  0  0
   22.0973   -7.4017  -13.1340 O   0  0  0  0  0  0  0  0  0  0  0  0
   19.9480   -7.1746  -14.1798 C   0  0  2  0  0  0  0  0  0  0  0  0
   20.3027   -8.0492  -15.2566 N   0  0  0  0  0  0  0  0  0  0  0  0
   20.2744   -5.7799  -14.5934 C   0  0  0  0  0  0  0  0  0  0  0  0
   20.9533   -5.5308  -15.6243 O   0  0  0  0  0  0  0  0  0  0  0  0
   19.8439   -4.6846  -13.8590 O   0  0  0  0  0  0  0  0  0  0  0  0
  2  3  1  0
  2  1  1  0
  3  4  1  6
  5  3  1  0
  5  6  1  1
  7  8  2  0
  7  5  1  0
  9  7  1  0
 10  9  1  0
 10 11  1  0
 11 17  1  0
 12 11  2  0
 14 15  1  0
 14 13  1  6
 16 14  1  0
 16 18  1  0
 16 17  1  6
 18 19  2  0
 18 20  1  0
M  END
$$$$
