IGT.pdb
     RDKit          3D

 20 19  0  0  1  0  0  0  0  0999 V2000
   21.5558  -20.9271  -16.9272 C   0  0  0  0  0  0  0  0  0  0  0  0
   23.0879  -20.8586  -17.0556 C   0  0  0  0  0  0  0  0  0  0  0  0
   23.5913  -20.4408  -15.7032 C   0  0  2  0  0  0  0  0  0  0  0  0
   23.0168  -19.1182  -15.2730 C   0  0  0  0  0  0  0  0  0  0  0  0
   25.0786  -20.3861  -15.6778 C   0  0  2  0  0  0  0  0  0  0  0  0
   25.5870  -21.6751  -16.1310 N   0  0  0  0  0  0  0  0  0  0  0  0
   25.6894  -19.9638  -14.4170 C   0  0  0  0  0  0  0  0  0  0  0  0
   25.2956  -18.9233  -13.8368 O   0  0  0  0  0  0  0  0  0  0  0  0
   26.7431  -20.6665  -13.7611 N   0  0  0  0  0  0  0  0  0  0  0  0
   27.3168  -20.1951  -12.5220 C   0  0  0  0  0  0  0  0  0  0  0  0
   26.7951  -20.9235  -11.3456 C   0  0  0  0  0  0  0  0  0  0  0  0
   26.4990  -22.1522  -11.3857 O   0  0  0  0  0  0  0  0  0  0  0  0
   28.2814  -20.3866   -7.5439 C   0  0  0  0  0  0  0  0  0  0  0  0
   26.7898  -20.1445   -7.6824 C   0  0  1  0  0  0  0  0  0  0  0  0
   26.5879  -18.7774   -7.7335 O   0  0  0  0  0  0  0  0  0  0  0  0
   26.2182  -20.8477   -8.8918 C   0  0  2  0  0  0  0  0  0  0  0  0
   26.6144  -20.2419  -10.1272 N   0  0  0  0  0  0  0  0  0  0  0  0
   24.7345  -20.7471   -8.7851 C   0  0  0  0  0  0  0  0  0  0  0  0
   24.0504  -20.0761   -9.6021 O   0  0  0  0  0  0  0  0  0  0  0  0
   24.0332  -21.3909   -7.7761 O   0  0  0  0  0  0  0  0  0  0  0  0
  2  3  1  0
  2  1  1  0
  3  4  1  6
  5  3  1  0
  5  6  1  1
  7  8  2  0
  7  5  1  0
  9  7  1  0
 10  9  1  0
 10 11  1  0
 11 17  1  0
 12 11  2  0
 14 15  1  0
 14 13  1  6
 16 14  1  0
 16 18  1  0
 16 17  1  6
 18 19  2  0
 18 20  1  0
M  END
$$$$
