IGG.pdb
     RDKit          3D

 17 16  0  0  1  0  0  0  0  0999 V2000
    7.2042  -11.1159   26.9381 C   0  0  0  0  0  0  0  0  0  0  0  0
    6.8059  -12.5631   27.0655 C   0  0  0  0  0  0  0  0  0  0  0  0
    7.2847  -13.4528   25.9847 C   0  0  2  0  0  0  0  0  0  0  0  0
    6.6432  -13.0738   24.6371 C   0  0  0  0  0  0  0  0  0  0  0  0
    7.0578  -14.9125   26.1483 C   0  0  2  0  0  0  0  0  0  0  0  0
    7.4769  -15.3794   27.4767 N   0  0  0  0  0  0  0  0  0  0  0  0
    7.6121  -15.7803   25.0953 C   0  0  0  0  0  0  0  0  0  0  0  0
    8.8172  -16.1182   25.1577 O   0  0  0  0  0  0  0  0  0  0  0  0
    6.8469  -16.2585   24.0056 N   0  0  0  0  0  0  0  0  0  0  0  0
    7.4316  -17.0068   22.9107 C   0  0  0  0  0  0  0  0  0  0  0  0
    8.5353  -16.2574   22.2910 C   0  0  0  0  0  0  0  0  0  0  0  0
    8.2753  -15.4604   21.3589 O   0  0  0  0  0  0  0  0  0  0  0  0
    9.8795  -16.4052   22.7108 N   0  0  0  0  0  0  0  0  0  0  0  0
   10.9738  -15.7719   21.9921 C   0  0  0  0  0  0  0  0  0  0  0  0
   12.2487  -16.0290   22.6596 C   0  0  0  0  0  0  0  0  0  0  0  0
   13.4082  -15.4983   22.1143 O   0  0  0  0  0  0  0  0  0  0  0  0
   12.3636  -16.7088   23.7096 O   0  0  0  0  0  0  0  0  0  0  0  0
  2  1  1  0
  3  4  1  6
  3  2  1  0
  5  3  1  0
  5  6  1  1
  7  8  2  0
  7  5  1  0
  9  7  1  0
 10  9  1  0
 10 11  1  0
 11 12  2  0
 13 11  1  0
 13 14  1  0
 14 15  1  0
 15 17  2  0
 15 16  1  0
M  END
$$$$
