IGG.pdb
     RDKit          3D

 17 16  0  0  1  0  0  0  0  0999 V2000
    7.0112  -12.6259   18.5453 C   0  0  0  0  0  0  0  0  0  0  0  0
    7.9401  -13.6268   19.1811 C   0  0  0  0  0  0  0  0  0  0  0  0
    7.7774  -13.8090   20.6404 C   0  0  2  0  0  0  0  0  0  0  0  0
    8.1363  -12.5174   21.3983 C   0  0  0  0  0  0  0  0  0  0  0  0
    8.5622  -14.8929   21.2869 C   0  0  2  0  0  0  0  0  0  0  0  0
    8.2412  -16.2077   20.7156 N   0  0  0  0  0  0  0  0  0  0  0  0
    8.5165  -14.9421   22.7583 C   0  0  0  0  0  0  0  0  0  0  0  0
    8.9053  -13.9463   23.4123 O   0  0  0  0  0  0  0  0  0  0  0  0
    8.0509  -16.0664   23.4799 N   0  0  0  0  0  0  0  0  0  0  0  0
    8.0561  -16.1204   24.9282 C   0  0  0  0  0  0  0  0  0  0  0  0
    9.4059  -16.4037   25.4396 C   0  0  0  0  0  0  0  0  0  0  0  0
    9.5661  -16.5446   26.6750 O   0  0  0  0  0  0  0  0  0  0  0  0
   10.5289  -16.5224   24.5854 N   0  0  0  0  0  0  0  0  0  0  0  0
   11.8338  -16.9121   25.0958 C   0  0  0  0  0  0  0  0  0  0  0  0
   12.3110  -18.1213   24.4272 C   0  0  0  0  0  0  0  0  0  0  0  0
   11.8963  -19.3564   24.9025 O   0  0  0  0  0  0  0  0  0  0  0  0
   13.0830  -18.1140   23.4363 O   0  0  0  0  0  0  0  0  0  0  0  0
  2  1  1  0
  3  4  1  1
  3  2  1  0
  5  3  1  0
  5  6  1  6
  7  8  2  0
  7  5  1  0
  9  7  1  0
 10  9  1  0
 10 11  1  0
 11 12  2  0
 13 11  1  0
 13 14  1  0
 14 15  1  0
 15 17  2  0
 15 16  1  0
M  END
$$$$
