IGG.pdb
     RDKit          3D

 17 16  0  0  1  0  0  0  0  0999 V2000
    6.9060  -11.4970   27.1898 C   0  0  0  0  0  0  0  0  0  0  0  0
    6.3967  -12.8422   26.7423 C   0  0  0  0  0  0  0  0  0  0  0  0
    7.2717  -13.5727   25.7990 C   0  0  2  0  0  0  0  0  0  0  0  0
    7.4604  -12.7751   24.4954 C   0  0  0  0  0  0  0  0  0  0  0  0
    6.8464  -14.9354   25.3857 C   0  0  2  0  0  0  0  0  0  0  0  0
    6.5075  -15.7713   26.5453 N   0  0  0  0  0  0  0  0  0  0  0  0
    7.7554  -15.6543   24.4766 C   0  0  0  0  0  0  0  0  0  0  0  0
    8.5954  -16.4488   24.9598 O   0  0  0  0  0  0  0  0  0  0  0  0
    7.7290  -15.4939   23.0712 N   0  0  0  0  0  0  0  0  0  0  0  0
    8.4450  -16.3766   22.1719 C   0  0  0  0  0  0  0  0  0  0  0  0
    9.8876  -16.0898   22.1904 C   0  0  0  0  0  0  0  0  0  0  0  0
   10.5736  -16.3796   21.1819 O   0  0  0  0  0  0  0  0  0  0  0  0
   10.5269  -15.4983   23.3068 N   0  0  0  0  0  0  0  0  0  0  0  0
   11.9352  -15.1365   23.2721 C   0  0  0  0  0  0  0  0  0  0  0  0
   12.7702  -16.2685   23.6700 C   0  0  0  0  0  0  0  0  0  0  0  0
   14.1456  -16.0988   23.7234 O   0  0  0  0  0  0  0  0  0  0  0  0
   12.3164  -17.4005   23.9708 O   0  0  0  0  0  0  0  0  0  0  0  0
  2  1  1  0
  3  4  1  6
  3  2  1  0
  5  3  1  0
  5  6  1  1
  7  8  2  0
  7  5  1  0
  9  7  1  0
 10  9  1  0
 10 11  1  0
 11 12  2  0
 13 11  1  0
 13 14  1  0
 14 15  1  0
 15 17  2  0
 15 16  1  0
M  END
$$$$
