IGG.pdb
     RDKit          3D

 17 16  0  0  1  0  0  0  0  0999 V2000
    7.3411  -11.1315   26.7898 C   0  0  0  0  0  0  0  0  0  0  0  0
    6.4588  -12.1251   26.0801 C   0  0  0  0  0  0  0  0  0  0  0  0
    7.1179  -13.3863   25.6750 C   0  0  2  0  0  0  0  0  0  0  0  0
    7.9520  -13.1838   24.3965 C   0  0  0  0  0  0  0  0  0  0  0  0
    6.2460  -14.5607   25.4116 C   0  0  2  0  0  0  0  0  0  0  0  0
    5.1765  -14.6756   26.4122 N   0  0  0  0  0  0  0  0  0  0  0  0
    6.9296  -15.8531   25.2331 C   0  0  0  0  0  0  0  0  0  0  0  0
    7.2239  -16.5302   26.2457 O   0  0  0  0  0  0  0  0  0  0  0  0
    7.2745  -16.3763   23.9647 N   0  0  0  0  0  0  0  0  0  0  0  0
    7.8554  -17.6933   23.7960 C   0  0  0  0  0  0  0  0  0  0  0  0
    9.2799  -17.6915   24.1629 C   0  0  0  0  0  0  0  0  0  0  0  0
    9.6952  -18.5515   24.9750 O   0  0  0  0  0  0  0  0  0  0  0  0
   10.1967  -16.7527   23.6309 N   0  0  0  0  0  0  0  0  0  0  0  0
   11.6165  -16.8188   23.9392 C   0  0  0  0  0  0  0  0  0  0  0  0
   12.3616  -15.8306   23.1610 C   0  0  0  0  0  0  0  0  0  0  0  0
   13.2246  -14.9704   23.8232 O   0  0  0  0  0  0  0  0  0  0  0  0
   12.2694  -15.7086   21.9143 O   0  0  0  0  0  0  0  0  0  0  0  0
  2  1  1  0
  3  4  1  6
  3  2  1  0
  5  3  1  0
  5  6  1  1
  7  8  2  0
  7  5  1  0
  9  7  1  0
 10  9  1  0
 10 11  1  0
 11 12  2  0
 13 11  1  0
 13 14  1  0
 14 15  1  0
 15 17  2  0
 15 16  1  0
M  END
$$$$
