IGG.pdb
     RDKit          3D

 17 16  0  0  1  0  0  0  0  0999 V2000
    6.8338  -12.8784   18.4159 C   0  0  0  0  0  0  0  0  0  0  0  0
    8.3226  -12.9324   18.6383 C   0  0  0  0  0  0  0  0  0  0  0  0
    8.7707  -13.8181   19.7356 C   0  0  2  0  0  0  0  0  0  0  0  0
    8.2035  -13.3471   21.0876 C   0  0  0  0  0  0  0  0  0  0  0  0
   10.2352  -13.9702   19.9382 C   0  0  2  0  0  0  0  0  0  0  0  0
   10.9215  -14.3156   18.6861 N   0  0  0  0  0  0  0  0  0  0  0  0
   10.6526  -14.8735   21.0242 C   0  0  0  0  0  0  0  0  0  0  0  0
   10.3984  -14.5569   22.2098 O   0  0  0  0  0  0  0  0  0  0  0  0
   11.3320  -16.0933   20.7966 N   0  0  0  0  0  0  0  0  0  0  0  0
   11.6301  -17.0305   21.8612 C   0  0  0  0  0  0  0  0  0  0  0  0
   13.0668  -17.0291   22.1769 C   0  0  0  0  0  0  0  0  0  0  0  0
   13.5032  -17.8601   23.0079 O   0  0  0  0  0  0  0  0  0  0  0  0
   13.9726  -16.1223   21.5749 N   0  0  0  0  0  0  0  0  0  0  0  0
   15.4117  -16.2845   21.7090 C   0  0  0  0  0  0  0  0  0  0  0  0
   15.8807  -15.7183   22.9726 C   0  0  0  0  0  0  0  0  0  0  0  0
   16.7349  -14.6263   22.9400 O   0  0  0  0  0  0  0  0  0  0  0  0
   15.5556  -16.1631   24.1014 O   0  0  0  0  0  0  0  0  0  0  0  0
  2  1  1  0
  3  4  1  1
  3  2  1  0
  5  3  1  0
  5  6  1  6
  7  8  2  0
  7  5  1  0
  9  7  1  0
 10  9  1  0
 10 11  1  0
 11 12  2  0
 13 11  1  0
 13 14  1  0
 14 15  1  0
 15 17  2  0
 15 16  1  0
M  END
$$$$
