IGG.pdb
     RDKit          3D

 17 16  0  0  1  0  0  0  0  0999 V2000
    7.2485  -11.0832   27.1383 C   0  0  0  0  0  0  0  0  0  0  0  0
    7.5558  -12.5250   26.8290 C   0  0  0  0  0  0  0  0  0  0  0  0
    6.6466  -13.1762   25.8603 C   0  0  2  0  0  0  0  0  0  0  0  0
    5.2436  -13.3658   26.4661 C   0  0  0  0  0  0  0  0  0  0  0  0
    7.0467  -14.5071   25.3335 C   0  0  2  0  0  0  0  0  0  0  0  0
    7.5811  -15.3707   26.3950 N   0  0  0  0  0  0  0  0  0  0  0  0
    7.9461  -14.5029   24.1671 C   0  0  0  0  0  0  0  0  0  0  0  0
    9.1836  -14.4392   24.3538 O   0  0  0  0  0  0  0  0  0  0  0  0
    7.4812  -14.5685   22.8325 N   0  0  0  0  0  0  0  0  0  0  0  0
    8.3430  -14.3227   21.6934 C   0  0  0  0  0  0  0  0  0  0  0  0
    9.1577  -15.5077   21.3842 C   0  0  0  0  0  0  0  0  0  0  0  0
    9.9331  -15.4671   20.3999 O   0  0  0  0  0  0  0  0  0  0  0  0
    9.0961  -16.6912   22.1592 N   0  0  0  0  0  0  0  0  0  0  0  0
    9.9426  -17.8367   21.8652 C   0  0  0  0  0  0  0  0  0  0  0  0
    9.4496  -18.5570   20.6924 C   0  0  0  0  0  0  0  0  0  0  0  0
   10.1197  -18.4105   19.4871 O   0  0  0  0  0  0  0  0  0  0  0  0
    8.4446  -19.3104   20.7060 O   0  0  0  0  0  0  0  0  0  0  0  0
  2  1  1  0
  3  4  1  1
  3  2  1  0
  5  3  1  0
  5  6  1  1
  7  8  2  0
  7  5  1  0
  9  7  1  0
 10  9  1  0
 10 11  1  0
 11 12  2  0
 13 11  1  0
 13 14  1  0
 14 15  1  0
 15 17  2  0
 15 16  1  0
M  END
$$$$
