IGG.pdb
     RDKit          3D

 17 16  0  0  1  0  0  0  0  0999 V2000
    7.0064  -12.6316   18.7168 C   0  0  0  0  0  0  0  0  0  0  0  0
    8.3827  -13.1693   19.0098 C   0  0  0  0  0  0  0  0  0  0  0  0
    8.4970  -13.9942   20.2327 C   0  0  2  0  0  0  0  0  0  0  0  0
    8.1041  -13.1827   21.4810 C   0  0  0  0  0  0  0  0  0  0  0  0
    9.8243  -14.5906   20.5348 C   0  0  2  0  0  0  0  0  0  0  0  0
   10.3803  -15.2916   19.3695 N   0  0  0  0  0  0  0  0  0  0  0  0
    9.8989  -15.4409   21.7352 C   0  0  0  0  0  0  0  0  0  0  0  0
    9.5939  -16.6528   21.6417 O   0  0  0  0  0  0  0  0  0  0  0  0
   10.3019  -14.9563   23.0017 N   0  0  0  0  0  0  0  0  0  0  0  0
   10.2507  -15.7694   24.2004 C   0  0  0  0  0  0  0  0  0  0  0  0
   11.5990  -16.1957   24.6054 C   0  0  0  0  0  0  0  0  0  0  0  0
   11.7417  -16.7846   25.7029 O   0  0  0  0  0  0  0  0  0  0  0  0
   12.7396  -15.9640   23.7991 N   0  0  0  0  0  0  0  0  0  0  0  0
   14.0660  -16.3875   24.2195 C   0  0  0  0  0  0  0  0  0  0  0  0
   15.0526  -16.1094   23.1773 C   0  0  0  0  0  0  0  0  0  0  0  0
   15.0916  -16.9271   22.0578 O   0  0  0  0  0  0  0  0  0  0  0  0
   15.8788  -15.1647   23.2307 O   0  0  0  0  0  0  0  0  0  0  0  0
  2  1  1  0
  3  4  1  1
  3  2  1  0
  5  3  1  0
  5  6  1  6
  7  8  2  0
  7  5  1  0
  9  7  1  0
 10  9  1  0
 10 11  1  0
 11 12  2  0
 13 11  1  0
 13 14  1  0
 14 15  1  0
 15 17  2  0
 15 16  1  0
M  END
$$$$
