DIW.pdb
     RDKit          3D

 31 32  0  0  1  0  0  0  0  0999 V2000
   22.7295  -19.4756  -15.7987 N   0  0  0  0  0  0  0  0  0  0  0  0
   23.0066  -19.0263  -14.4518 C   0  0  1  0  0  0  0  0  0  0  0  0
   21.7149  -18.7592  -13.7449 C   0  0  0  0  0  0  0  0  0  0  0  0
   21.0101  -17.5387  -14.1770 C   0  0  0  0  0  0  0  0  0  0  0  0
   20.8087  -17.2338  -15.3760 O   0  0  0  0  0  0  0  0  0  0  0  0
   23.8112  -19.9982  -13.6779 C   0  0  0  0  0  0  0  0  0  0  0  0
   23.3445  -21.1124  -13.3743 O   0  0  0  0  0  0  0  0  0  0  0  0
   20.5136  -16.6280  -13.2420 O   0  0  0  0  0  0  0  0  0  0  0  0
   29.6585  -21.4848  -13.3739 C   0  0  0  0  0  0  0  0  0  0  0  0
   28.3292  -21.4646  -12.7518 C   0  0  0  0  0  0  0  0  0  0  0  0
   27.3071  -20.5216  -13.2210 C   0  0  2  0  0  0  0  0  0  0  0  0
   27.8454  -19.1147  -13.3251 C   0  0  0  0  0  0  0  0  0  0  0  0
   25.9922  -20.5086  -12.4954 C   0  0  2  0  0  0  0  0  0  0  0  0
   25.1054  -19.6740  -13.2757 N   0  0  0  0  0  0  0  0  0  0  0  0
   26.0981  -20.1037  -11.0935 C   0  0  0  0  0  0  0  0  0  0  0  0
   26.9409  -19.2565  -10.7402 O   0  0  0  0  0  0  0  0  0  0  0  0
   25.2386  -20.6732  -10.1335 N   0  0  0  0  0  0  0  0  0  0  0  0
   25.6324  -20.9923   -8.7635 C   0  0  1  0  0  0  0  0  0  0  0  0
   25.4588  -19.8106   -7.8740 C   0  0  0  0  0  0  0  0  0  0  0  0
   26.6523  -19.2718   -7.2210 C   0  0  0  0  0  0  0  0  0  0  0  0
   27.4421  -18.1994   -7.6784 C   0  0  0  0  0  0  0  0  0  0  0  0
   28.4607  -18.0232   -6.8434 N   0  0  0  0  0  0  0  0  0  0  0  0
   28.4064  -18.9161   -5.8430 C   0  0  0  0  0  0  0  0  0  0  0  0
   29.1751  -19.1562   -4.7379 C   0  0  0  0  0  0  0  0  0  0  0  0
   28.8780  -20.1588   -3.8192 C   0  0  0  0  0  0  0  0  0  0  0  0
   27.7663  -20.9355   -4.0369 C   0  0  0  0  0  0  0  0  0  0  0  0
   27.0051  -20.6811   -5.1535 C   0  0  0  0  0  0  0  0  0  0  0  0
   27.2910  -19.6928   -6.0677 C   0  0  0  0  0  0  0  0  0  0  0  0
   24.8539  -22.1398   -8.3197 C   0  0  0  0  0  0  0  0  0  0  0  0
   25.2247  -22.8509   -7.1593 O   0  0  0  0  0  0  0  0  0  0  0  0
   23.8213  -22.6053   -8.8843 O   0  0  0  0  0  0  0  0  0  0  0  0
  2  1  1  6
  3  2  1  0
  3  4  1  0
  4  5  2  0
  6  2  1  0
  6 14  1  0
  7  6  2  0
  8  4  1  0
  9 10  1  0
 11 10  1  0
 11 12  1  1
 13 11  1  0
 13 15  1  0
 13 14  1  6
 15 16  2  0
 17 15  1  0
 17 18  1  0
 18 19  1  1
 19 20  1  0
 20 28  1  0
 21 20  2  0
 21 22  1  0
 22 23  1  0
 23 24  1  0
 24 25  2  0
 26 25  1  0
 27 26  2  0
 28 23  2  0
 28 27  1  0
 29 30  1  0
 29 18  1  0
 31 29  2  0
M  END
$$$$
