DIW.pdb
     RDKit          3D

 31 32  0  0  1  0  0  0  0  0999 V2000
   21.6702  -19.4331  -16.4881 N   0  0  0  0  0  0  0  0  0  0  0  0
   21.8698  -18.2779  -17.3357 C   0  0  1  0  0  0  0  0  0  0  0  0
   20.7199  -18.1582  -18.2860 C   0  0  0  0  0  0  0  0  0  0  0  0
   20.5051  -19.3308  -19.1532 C   0  0  0  0  0  0  0  0  0  0  0  0
   19.3849  -19.6800  -19.5939 O   0  0  0  0  0  0  0  0  0  0  0  0
   22.0185  -17.0220  -16.5665 C   0  0  0  0  0  0  0  0  0  0  0  0
   21.2578  -16.7646  -15.6144 O   0  0  0  0  0  0  0  0  0  0  0  0
   21.5742  -20.1410  -19.5418 O   0  0  0  0  0  0  0  0  0  0  0  0
   26.8089  -15.7772  -15.1092 C   0  0  0  0  0  0  0  0  0  0  0  0
   25.3626  -15.8117  -15.3572 C   0  0  0  0  0  0  0  0  0  0  0  0
   24.7040  -14.6981  -16.0501 C   0  0  2  0  0  0  0  0  0  0  0  0
   25.0111  -13.3705  -15.3996 C   0  0  0  0  0  0  0  0  0  0  0  0
   23.2268  -14.8124  -16.2957 C   0  0  2  0  0  0  0  0  0  0  0  0
   23.0145  -16.1075  -16.9034 N   0  0  0  0  0  0  0  0  0  0  0  0
   22.6717  -13.7019  -17.0699 C   0  0  0  0  0  0  0  0  0  0  0  0
   23.2465  -13.2965  -18.0985 O   0  0  0  0  0  0  0  0  0  0  0  0
   21.4754  -13.0862  -16.6522 N   0  0  0  0  0  0  0  0  0  0  0  0
   20.8731  -11.9291  -17.3095 C   0  0  1  0  0  0  0  0  0  0  0  0
   19.4434  -12.1900  -17.6348 C   0  0  0  0  0  0  0  0  0  0  0  0
   18.6938  -11.1244  -18.3008 C   0  0  0  0  0  0  0  0  0  0  0  0
   19.0208  -10.5143  -19.5272 C   0  0  0  0  0  0  0  0  0  0  0  0
   18.1293   -9.5649  -19.7913 N   0  0  0  0  0  0  0  0  0  0  0  0
   17.2135   -9.4967  -18.8126 C   0  0  0  0  0  0  0  0  0  0  0  0
   16.1004   -8.7311  -18.6016 C   0  0  0  0  0  0  0  0  0  0  0  0
   15.2862   -8.8811  -17.4826 C   0  0  0  0  0  0  0  0  0  0  0  0
   15.6197   -9.8387  -16.5560 C   0  0  0  0  0  0  0  0  0  0  0  0
   16.7427  -10.5990  -16.7835 C   0  0  0  0  0  0  0  0  0  0  0  0
   17.5541  -10.4577  -17.8862 C   0  0  0  0  0  0  0  0  0  0  0  0
   21.0424  -10.7717  -16.4426 C   0  0  0  0  0  0  0  0  0  0  0  0
   21.2004   -9.4824  -16.9926 O   0  0  0  0  0  0  0  0  0  0  0  0
   21.0670  -10.7833  -15.1773 O   0  0  0  0  0  0  0  0  0  0  0  0
  2  1  1  1
  3  2  1  0
  3  4  1  0
  4  5  2  0
  6  2  1  0
  6 14  1  0
  7  6  2  0
  8  4  1  0
  9 10  1  0
 11 10  1  0
 11 12  1  1
 13 11  1  0
 13 15  1  0
 13 14  1  6
 15 16  2  0
 17 15  1  0
 17 18  1  0
 18 19  1  1
 19 20  1  0
 20 28  1  0
 21 20  2  0
 21 22  1  0
 22 23  1  0
 23 24  1  0
 24 25  2  0
 26 25  1  0
 27 26  2  0
 28 23  2  0
 28 27  1  0
 29 30  1  0
 29 18  1  0
 31 29  2  0
M  END
$$$$
