DIW.pdb
     RDKit          3D

 31 32  0  0  1  0  0  0  0  0999 V2000
   14.7059  -21.9942    4.8244 N   0  0  0  0  0  0  0  0  0  0  0  0
   16.0995  -21.6414    4.6625 C   0  0  1  0  0  0  0  0  0  0  0  0
   16.2580  -20.8088    3.4291 C   0  0  0  0  0  0  0  0  0  0  0  0
   16.0082  -21.5201    2.1623 C   0  0  0  0  0  0  0  0  0  0  0  0
   15.7703  -22.7483    2.0840 O   0  0  0  0  0  0  0  0  0  0  0  0
   16.6463  -20.9164    5.8315 C   0  0  0  0  0  0  0  0  0  0  0  0
   15.9650  -20.0589    6.4247 O   0  0  0  0  0  0  0  0  0  0  0  0
   16.0241  -20.8402    0.9426 O   0  0  0  0  0  0  0  0  0  0  0  0
   19.7468  -21.0320   10.3640 C   0  0  0  0  0  0  0  0  0  0  0  0
   20.4202  -21.0952    9.0612 C   0  0  0  0  0  0  0  0  0  0  0  0
   19.6696  -21.4734    7.8580 C   0  0  2  0  0  0  0  0  0  0  0  0
   20.5861  -21.8513    6.7191 C   0  0  0  0  0  0  0  0  0  0  0  0
   18.6200  -20.5174    7.3680 C   0  0  2  0  0  0  0  0  0  0  0  0
   17.9376  -21.1848    6.2814 N   0  0  0  0  0  0  0  0  0  0  0  0
   19.1456  -19.1996    7.0107 C   0  0  0  0  0  0  0  0  0  0  0  0
   20.0014  -19.0805    6.1128 O   0  0  0  0  0  0  0  0  0  0  0  0
   18.6792  -18.0537    7.6846 N   0  0  0  0  0  0  0  0  0  0  0  0
   19.2580  -16.7206    7.5373 C   0  0  1  0  0  0  0  0  0  0  0  0
   18.1917  -15.6815    7.5039 C   0  0  0  0  0  0  0  0  0  0  0  0
   18.4566  -14.4619    6.7399 C   0  0  0  0  0  0  0  0  0  0  0  0
   17.6764  -13.9520    5.6842 C   0  0  0  0  0  0  0  0  0  0  0  0
   18.2509  -12.8505    5.2124 N   0  0  0  0  0  0  0  0  0  0  0  0
   19.3781  -12.5829    5.8898 C   0  0  0  0  0  0  0  0  0  0  0  0
   20.3141  -11.5882    5.8262 C   0  0  0  0  0  0  0  0  0  0  0  0
   21.4082  -11.5296    6.6847 C   0  0  0  0  0  0  0  0  0  0  0  0
   21.5480  -12.5141    7.6323 C   0  0  0  0  0  0  0  0  0  0  0  0
   20.5982  -13.5073    7.6817 C   0  0  0  0  0  0  0  0  0  0  0  0
   19.5137  -13.5740    6.8370 C   0  0  0  0  0  0  0  0  0  0  0  0
   20.2037  -16.5103    8.6241 C   0  0  0  0  0  0  0  0  0  0  0  0
   21.3953  -15.7875    8.4064 O   0  0  0  0  0  0  0  0  0  0  0  0
   20.0783  -16.9235    9.8137 O   0  0  0  0  0  0  0  0  0  0  0  0
  2  1  1  1
  3  2  1  0
  3  4  1  0
  4  5  2  0
  6  2  1  0
  6 14  1  0
  7  6  2  0
  8  4  1  0
  9 10  1  0
 11 10  1  0
 11 12  1  6
 13 11  1  0
 13 15  1  0
 13 14  1  6
 15 16  2  0
 17 15  1  0
 17 18  1  0
 18 19  1  1
 19 20  1  0
 20 28  1  0
 21 20  2  0
 21 22  1  0
 22 23  1  0
 23 24  1  0
 24 25  2  0
 26 25  1  0
 27 26  2  0
 28 23  2  0
 28 27  1  0
 29 30  1  0
 29 18  1  0
 31 29  2  0
M  END
$$$$
