DIW.pdb
     RDKit          3D

 31 32  0  0  1  0  0  0  0  0999 V2000
   28.4583  -22.1742  -18.0776 N   0  0  0  0  0  0  0  0  0  0  0  0
   27.7402  -22.5385  -16.8758 C   0  0  1  0  0  0  0  0  0  0  0  0
   28.0331  -23.9670  -16.5394 C   0  0  0  0  0  0  0  0  0  0  0  0
   27.4134  -24.9573  -17.4385 C   0  0  0  0  0  0  0  0  0  0  0  0
   26.7596  -24.6584  -18.4652 O   0  0  0  0  0  0  0  0  0  0  0  0
   28.0754  -21.6722  -15.7234 C   0  0  0  0  0  0  0  0  0  0  0  0
   29.2598  -21.5053  -15.3756 O   0  0  0  0  0  0  0  0  0  0  0  0
   27.5261  -26.3259  -17.1847 O   0  0  0  0  0  0  0  0  0  0  0  0
   27.9361  -18.1168  -16.5709 C   0  0  0  0  0  0  0  0  0  0  0  0
   27.8211  -17.9837  -15.1137 C   0  0  0  0  0  0  0  0  0  0  0  0
   26.8280  -18.7724  -14.3748 C   0  0  2  0  0  0  0  0  0  0  0  0
   26.2243  -17.9894  -13.2335 C   0  0  0  0  0  0  0  0  0  0  0  0
   27.2442  -20.1323  -13.8922 C   0  0  2  0  0  0  0  0  0  0  0  0
   27.0638  -21.0330  -15.0093 N   0  0  0  0  0  0  0  0  0  0  0  0
   26.5549  -20.5606  -12.6748 C   0  0  0  0  0  0  0  0  0  0  0  0
   25.3552  -20.8956  -12.7099 O   0  0  0  0  0  0  0  0  0  0  0  0
   27.2528  -20.5982  -11.4515 N   0  0  0  0  0  0  0  0  0  0  0  0
   26.6705  -21.0372  -10.1858 C   0  0  1  0  0  0  0  0  0  0  0  0
   27.6468  -20.8817   -9.0721 C   0  0  0  0  0  0  0  0  0  0  0  0
   27.1190  -20.8410   -7.7079 C   0  0  0  0  0  0  0  0  0  0  0  0
   25.8564  -21.3012   -7.2871 C   0  0  0  0  0  0  0  0  0  0  0  0
   25.7184  -21.0628   -5.9870 N   0  0  0  0  0  0  0  0  0  0  0  0
   26.8181  -20.4669   -5.5006 C   0  0  0  0  0  0  0  0  0  0  0  0
   27.1975  -20.0348   -4.2601 C   0  0  0  0  0  0  0  0  0  0  0  0
   28.4384  -19.4542   -4.0134 C   0  0  0  0  0  0  0  0  0  0  0  0
   29.3130  -19.3121   -5.0629 C   0  0  0  0  0  0  0  0  0  0  0  0
   28.9150  -19.7511   -6.3037 C   0  0  0  0  0  0  0  0  0  0  0  0
   27.6904  -20.3256   -6.5576 C   0  0  0  0  0  0  0  0  0  0  0  0
   25.4463  -20.2823   -9.9598 C   0  0  0  0  0  0  0  0  0  0  0  0
   24.2808  -20.9298   -9.4992 O   0  0  0  0  0  0  0  0  0  0  0  0
   25.2918  -19.0389  -10.1380 O   0  0  0  0  0  0  0  0  0  0  0  0
  2  1  1  6
  3  2  1  0
  3  4  1  0
  4  5  2  0
  6  2  1  0
  6 14  1  0
  7  6  2  0
  8  4  1  0
  9 10  1  0
 11 10  1  0
 11 12  1  1
 13 11  1  0
 13 15  1  0
 13 14  1  6
 15 16  2  0
 17 15  1  0
 17 18  1  0
 18 19  1  1
 19 20  1  0
 20 28  1  0
 21 20  2  0
 21 22  1  0
 22 23  1  0
 23 24  1  0
 24 25  2  0
 26 25  1  0
 27 26  2  0
 28 23  2  0
 28 27  1  0
 29 30  1  0
 29 18  1  0
 31 29  2  0
M  END
$$$$
