DIW.pdb
     RDKit          3D

 31 32  0  0  1  0  0  0  0  0999 V2000
   20.0119  -23.1173  -14.4409 N   0  0  0  0  0  0  0  0  0  0  0  0
   19.7751  -21.8022  -14.9951 C   0  0  1  0  0  0  0  0  0  0  0  0
   18.3008  -21.5750  -15.1148 C   0  0  0  0  0  0  0  0  0  0  0  0
   17.5828  -22.5686  -15.9337 C   0  0  0  0  0  0  0  0  0  0  0  0
   16.3882  -22.8986  -15.7465 O   0  0  0  0  0  0  0  0  0  0  0  0
   20.3858  -20.7221  -14.1881 C   0  0  0  0  0  0  0  0  0  0  0  0
   20.1001  -19.5286  -14.4013 O   0  0  0  0  0  0  0  0  0  0  0  0
   18.2173  -23.2157  -16.9962 O   0  0  0  0  0  0  0  0  0  0  0  0
   20.2754  -21.4429   -9.0697 C   0  0  0  0  0  0  0  0  0  0  0  0
   20.4784  -20.9452  -10.4356 C   0  0  0  0  0  0  0  0  0  0  0  0
   21.8291  -20.6286  -10.9145 C   0  0  2  0  0  0  0  0  0  0  0  0
   22.5740  -19.7385   -9.9487 C   0  0  0  0  0  0  0  0  0  0  0  0
   21.9594  -20.0848  -12.3084 C   0  0  2  0  0  0  0  0  0  0  0  0
   21.2945  -21.0304  -13.1776 N   0  0  0  0  0  0  0  0  0  0  0  0
   23.3391  -19.7959  -12.7003 C   0  0  0  0  0  0  0  0  0  0  0  0
   23.8976  -18.7463  -12.3272 O   0  0  0  0  0  0  0  0  0  0  0  0
   24.0452  -20.7126  -13.5040 N   0  0  0  0  0  0  0  0  0  0  0  0
   25.4758  -20.6267  -13.7865 C   0  0  1  0  0  0  0  0  0  0  0  0
   26.2268  -21.6722  -13.0377 C   0  0  0  0  0  0  0  0  0  0  0  0
   26.6349  -21.3635  -11.6668 C   0  0  0  0  0  0  0  0  0  0  0  0
   25.7845  -21.0060  -10.6029 C   0  0  0  0  0  0  0  0  0  0  0  0
   26.5190  -20.7644   -9.5222 N   0  0  0  0  0  0  0  0  0  0  0  0
   27.8219  -20.9390   -9.7924 C   0  0  0  0  0  0  0  0  0  0  0  0
   28.9690  -20.8425   -9.0544 C   0  0  0  0  0  0  0  0  0  0  0  0
   30.2284  -21.1065   -9.5850 C   0  0  0  0  0  0  0  0  0  0  0  0
   30.3163  -21.4784  -10.9043 C   0  0  0  0  0  0  0  0  0  0  0  0
   29.1532  -21.5695  -11.6321 C   0  0  0  0  0  0  0  0  0  0  0  0
   27.9037  -21.3100  -11.1166 C   0  0  0  0  0  0  0  0  0  0  0  0
   25.6643  -20.7323  -15.2263 C   0  0  0  0  0  0  0  0  0  0  0  0
   26.8631  -20.2923  -15.8255 O   0  0  0  0  0  0  0  0  0  0  0  0
   24.8311  -21.1995  -16.0565 O   0  0  0  0  0  0  0  0  0  0  0  0
  2  1  1  1
  3  2  1  0
  3  4  1  0
  4  5  2  0
  6  2  1  0
  6 14  1  0
  7  6  2  0
  8  4  1  0
  9 10  1  0
 11 10  1  0
 11 12  1  1
 13 11  1  0
 13 15  1  0
 13 14  1  6
 15 16  2  0
 17 15  1  0
 17 18  1  0
 18 19  1  1
 19 20  1  0
 20 28  1  0
 21 20  2  0
 21 22  1  0
 22 23  1  0
 23 24  1  0
 24 25  2  0
 26 25  1  0
 27 26  2  0
 28 23  2  0
 28 27  1  0
 29 30  1  0
 29 18  1  0
 31 29  2  0
M  END
$$$$
