DIW.pdb
     RDKit          3D

 31 32  0  0  1  0  0  0  0  0999 V2000
   27.4684  -22.2665  -16.0282 N   0  0  0  0  0  0  0  0  0  0  0  0
   27.0732  -21.1419  -15.2084 C   0  0  1  0  0  0  0  0  0  0  0  0
   26.6219  -20.0214  -16.0918 C   0  0  0  0  0  0  0  0  0  0  0  0
   27.6845  -19.4055  -16.9070 C   0  0  0  0  0  0  0  0  0  0  0  0
   28.8684  -19.8158  -16.9401 O   0  0  0  0  0  0  0  0  0  0  0  0
   26.0032  -21.4838  -14.2445 C   0  0  0  0  0  0  0  0  0  0  0  0
   25.0840  -22.2616  -14.5630 O   0  0  0  0  0  0  0  0  0  0  0  0
   27.4189  -18.2956  -17.7118 O   0  0  0  0  0  0  0  0  0  0  0  0
   27.6179  -20.8359   -9.0711 C   0  0  0  0  0  0  0  0  0  0  0  0
   26.9514  -21.2260  -10.3194 C   0  0  0  0  0  0  0  0  0  0  0  0
   25.6255  -20.6898  -10.6490 C   0  0  2  0  0  0  0  0  0  0  0  0
   24.6425  -20.8875   -9.5200 C   0  0  0  0  0  0  0  0  0  0  0  0
   25.0043  -21.1276  -11.9443 C   0  0  2  0  0  0  0  0  0  0  0  0
   26.0112  -20.9335  -12.9643 N   0  0  0  0  0  0  0  0  0  0  0  0
   23.7332  -20.4662  -12.2400 C   0  0  0  0  0  0  0  0  0  0  0  0
   23.4736  -19.3469  -11.7577 O   0  0  0  0  0  0  0  0  0  0  0  0
   22.7943  -21.0974  -13.0795 N   0  0  0  0  0  0  0  0  0  0  0  0
   21.6953  -20.4067  -13.7497 C   0  0  1  0  0  0  0  0  0  0  0  0
   22.0576  -20.0754  -15.1556 C   0  0  0  0  0  0  0  0  0  0  0  0
   21.0468  -19.4090  -15.9776 C   0  0  0  0  0  0  0  0  0  0  0  0
   20.2839  -18.2829  -15.6129 C   0  0  0  0  0  0  0  0  0  0  0  0
   19.4455  -17.9880  -16.6009 N   0  0  0  0  0  0  0  0  0  0  0  0
   19.5971  -18.8508  -17.6175 C   0  0  0  0  0  0  0  0  0  0  0  0
   19.0155  -18.9848  -18.8477 C   0  0  0  0  0  0  0  0  0  0  0  0
   19.3817  -19.9818  -19.7475 C   0  0  0  0  0  0  0  0  0  0  0  0
   20.3679  -20.8639  -19.3790 C   0  0  0  0  0  0  0  0  0  0  0  0
   20.9413  -20.7153  -18.1380 C   0  0  0  0  0  0  0  0  0  0  0  0
   20.5857  -19.7335  -17.2414 C   0  0  0  0  0  0  0  0  0  0  0  0
   20.5089  -21.2465  -13.6657 C   0  0  0  0  0  0  0  0  0  0  0  0
   19.2390  -20.6718  -13.4496 O   0  0  0  0  0  0  0  0  0  0  0  0
   20.4775  -22.5074  -13.7690 O   0  0  0  0  0  0  0  0  0  0  0  0
  2  1  1  6
  3  2  1  0
  3  4  1  0
  4  5  2  0
  6  2  1  0
  6 14  1  0
  7  6  2  0
  8  4  1  0
  9 10  1  0
 11 10  1  0
 11 12  1  1
 13 11  1  0
 13 15  1  0
 13 14  1  6
 15 16  2  0
 17 15  1  0
 17 18  1  0
 18 19  1  6
 19 20  1  0
 20 28  1  0
 21 20  2  0
 21 22  1  0
 22 23  1  0
 23 24  1  0
 24 25  2  0
 26 25  1  0
 27 26  2  0
 28 23  2  0
 28 27  1  0
 29 30  1  0
 29 18  1  0
 31 29  2  0
M  END
$$$$
