DIW.pdb
     RDKit          3D

 31 32  0  0  1  0  0  0  0  0999 V2000
   30.0591  -22.6295  -18.2635 N   0  0  0  0  0  0  0  0  0  0  0  0
   28.6811  -22.4882  -17.8464 C   0  0  1  0  0  0  0  0  0  0  0  0
   27.9934  -23.8127  -17.9572 C   0  0  0  0  0  0  0  0  0  0  0  0
   27.6436  -24.2190  -19.3304 C   0  0  0  0  0  0  0  0  0  0  0  0
   27.8640  -23.5178  -20.3457 O   0  0  0  0  0  0  0  0  0  0  0  0
   28.5507  -21.9684  -16.4666 C   0  0  0  0  0  0  0  0  0  0  0  0
   29.3063  -22.3693  -15.5612 O   0  0  0  0  0  0  0  0  0  0  0  0
   27.0276  -25.4472  -19.5802 O   0  0  0  0  0  0  0  0  0  0  0  0
   28.0235  -17.2055  -17.0739 C   0  0  0  0  0  0  0  0  0  0  0  0
   28.3406  -18.2149  -16.0566 C   0  0  0  0  0  0  0  0  0  0  0  0
   27.2659  -18.8528  -15.2871 C   0  0  2  0  0  0  0  0  0  0  0  0
   26.9039  -18.0541  -14.0579 C   0  0  0  0  0  0  0  0  0  0  0  0
   27.4423  -20.2980  -14.9185 C   0  0  2  0  0  0  0  0  0  0  0  0
   27.5738  -21.0221  -16.1635 N   0  0  0  0  0  0  0  0  0  0  0  0
   26.3878  -20.8154  -14.0462 C   0  0  0  0  0  0  0  0  0  0  0  0
   25.2650  -21.0973  -14.5074 O   0  0  0  0  0  0  0  0  0  0  0  0
   26.6430  -21.0002  -12.6731 N   0  0  0  0  0  0  0  0  0  0  0  0
   25.7290  -21.6674  -11.7493 C   0  0  1  0  0  0  0  0  0  0  0  0
   26.4438  -22.0969  -10.5155 C   0  0  0  0  0  0  0  0  0  0  0  0
   26.5755  -21.1209   -9.4332 C   0  0  0  0  0  0  0  0  0  0  0  0
   25.5920  -20.2065   -9.0092 C   0  0  0  0  0  0  0  0  0  0  0  0
   26.0880  -19.4589   -8.0288 N   0  0  0  0  0  0  0  0  0  0  0  0
   27.3540  -19.8154   -7.7623 C   0  0  0  0  0  0  0  0  0  0  0  0
   28.2924  -19.3944   -6.8611 C   0  0  0  0  0  0  0  0  0  0  0  0
   29.5596  -19.9638   -6.7743 C   0  0  0  0  0  0  0  0  0  0  0  0
   29.8745  -20.9898   -7.6315 C   0  0  0  0  0  0  0  0  0  0  0  0
   28.9196  -21.3999   -8.5319 C   0  0  0  0  0  0  0  0  0  0  0  0
   27.6645  -20.8429   -8.6257 C   0  0  0  0  0  0  0  0  0  0  0  0
   24.6255  -20.7614  -11.4643 C   0  0  0  0  0  0  0  0  0  0  0  0
   23.3681  -21.2661  -11.0717 O   0  0  0  0  0  0  0  0  0  0  0  0
   24.6600  -19.4981  -11.5307 O   0  0  0  0  0  0  0  0  0  0  0  0
  2  1  1  1
  3  2  1  0
  3  4  1  0
  4  5  2  0
  6  2  1  0
  6 14  1  0
  7  6  2  0
  8  4  1  0
  9 10  1  0
 11 10  1  0
 11 12  1  1
 13 11  1  0
 13 15  1  0
 13 14  1  6
 15 16  2  0
 17 15  1  0
 17 18  1  0
 18 19  1  1
 19 20  1  0
 20 28  1  0
 21 20  2  0
 21 22  1  0
 22 23  1  0
 23 24  1  0
 24 25  2  0
 26 25  1  0
 27 26  2  0
 28 23  2  0
 28 27  1  0
 29 30  1  0
 29 18  1  0
 31 29  2  0
M  END
$$$$
