DIW.pdb
     RDKit          3D

 31 32  0  0  1  0  0  0  0  0999 V2000
   23.2268  -18.9640  -15.9628 N   0  0  0  0  0  0  0  0  0  0  0  0
   23.3589  -18.6216  -14.5635 C   0  0  1  0  0  0  0  0  0  0  0  0
   21.9983  -18.4184  -13.9743 C   0  0  0  0  0  0  0  0  0  0  0  0
   21.3387  -17.1557  -14.3534 C   0  0  0  0  0  0  0  0  0  0  0  0
   21.8060  -16.3441  -15.1864 O   0  0  0  0  0  0  0  0  0  0  0  0
   24.0932  -19.6476  -13.7895 C   0  0  0  0  0  0  0  0  0  0  0  0
   23.5665  -20.7455  -13.5275 O   0  0  0  0  0  0  0  0  0  0  0  0
   20.1180  -16.7854  -13.7851 O   0  0  0  0  0  0  0  0  0  0  0  0
   28.6574  -20.7946  -15.6412 C   0  0  0  0  0  0  0  0  0  0  0  0
   27.4374  -20.6413  -14.8396 C   0  0  0  0  0  0  0  0  0  0  0  0
   27.5272  -20.3876  -13.3968 C   0  0  2  0  0  0  0  0  0  0  0  0
   28.4778  -21.3430  -12.7160 C   0  0  0  0  0  0  0  0  0  0  0  0
   26.2407  -20.3168  -12.6251 C   0  0  2  0  0  0  0  0  0  0  0  0
   25.3877  -19.3936  -13.3405 N   0  0  0  0  0  0  0  0  0  0  0  0
   26.4198  -19.9778  -11.2132 C   0  0  0  0  0  0  0  0  0  0  0  0
   27.3089  -19.1790  -10.8608 O   0  0  0  0  0  0  0  0  0  0  0  0
   25.5788  -20.5563  -10.2421 N   0  0  0  0  0  0  0  0  0  0  0  0
   25.9370  -20.7181   -8.8352 C   0  0  1  0  0  0  0  0  0  0  0  0
   25.8741  -19.4136   -8.1198 C   0  0  0  0  0  0  0  0  0  0  0  0
   27.0584  -18.9933   -7.3700 C   0  0  0  0  0  0  0  0  0  0  0  0
   27.9737  -17.9920   -7.7476 C   0  0  0  0  0  0  0  0  0  0  0  0
   28.9380  -17.9190   -6.8360 N   0  0  0  0  0  0  0  0  0  0  0  0
   28.7279  -18.8147   -5.8590 C   0  0  0  0  0  0  0  0  0  0  0  0
   29.3860  -19.1366   -4.7044 C   0  0  0  0  0  0  0  0  0  0  0  0
   28.9312  -20.1185   -3.8289 C   0  0  0  0  0  0  0  0  0  0  0  0
   27.7738  -20.7881   -4.1429 C   0  0  0  0  0  0  0  0  0  0  0  0
   27.1254  -20.4526   -5.3082 C   0  0  0  0  0  0  0  0  0  0  0  0
   27.5674  -19.4839   -6.1803 C   0  0  0  0  0  0  0  0  0  0  0  0
   25.0518  -21.7150   -8.2501 C   0  0  0  0  0  0  0  0  0  0  0  0
   25.3801  -22.3332   -7.0254 O   0  0  0  0  0  0  0  0  0  0  0  0
   23.9561  -22.1192   -8.7377 O   0  0  0  0  0  0  0  0  0  0  0  0
  2  1  1  6
  3  2  1  0
  3  4  1  0
  4  5  2  0
  6  2  1  0
  6 14  1  0
  7  6  2  0
  8  4  1  0
  9 10  1  0
 11 10  1  0
 11 12  1  1
 13 11  1  0
 13 15  1  0
 13 14  1  6
 15 16  2  0
 17 15  1  0
 17 18  1  0
 18 19  1  1
 19 20  1  0
 20 28  1  0
 21 20  2  0
 21 22  1  0
 22 23  1  0
 23 24  1  0
 24 25  2  0
 26 25  1  0
 27 26  2  0
 28 23  2  0
 28 27  1  0
 29 30  1  0
 29 18  1  0
 31 29  2  0
M  END
$$$$
