DIW.pdb
     RDKit          3D

 31 32  0  0  1  0  0  0  0  0999 V2000
   23.3308  -13.1441  -19.8720 N   0  0  0  0  0  0  0  0  0  0  0  0
   23.0432  -13.4440  -18.4863 C   0  0  1  0  0  0  0  0  0  0  0  0
   21.9592  -12.5347  -17.9990 C   0  0  0  0  0  0  0  0  0  0  0  0
   22.3078  -11.1024  -17.9861 C   0  0  0  0  0  0  0  0  0  0  0  0
   23.4156  -10.6480  -18.3566 O   0  0  0  0  0  0  0  0  0  0  0  0
   22.6480  -14.8548  -18.2757 C   0  0  0  0  0  0  0  0  0  0  0  0
   21.8924  -15.4313  -19.0808 O   0  0  0  0  0  0  0  0  0  0  0  0
   21.3914  -10.1450  -17.5456 O   0  0  0  0  0  0  0  0  0  0  0  0
   26.4227  -18.3559  -17.2620 C   0  0  0  0  0  0  0  0  0  0  0  0
   25.1806  -17.6105  -17.4995 C   0  0  0  0  0  0  0  0  0  0  0  0
   24.1353  -17.5676  -16.4702 C   0  0  2  0  0  0  0  0  0  0  0  0
   23.8900  -18.9271  -15.8607 C   0  0  0  0  0  0  0  0  0  0  0  0
   22.8248  -16.9344  -16.8407 C   0  0  2  0  0  0  0  0  0  0  0  0
   23.1168  -15.5559  -17.1665 N   0  0  0  0  0  0  0  0  0  0  0  0
   21.7874  -17.0901  -15.8208 C   0  0  0  0  0  0  0  0  0  0  0  0
   22.0415  -16.8754  -14.6199 O   0  0  0  0  0  0  0  0  0  0  0  0
   20.4882  -17.4833  -16.1981 N   0  0  0  0  0  0  0  0  0  0  0  0
   19.3635  -17.6009  -15.2733 C   0  0  1  0  0  0  0  0  0  0  0  0
   18.3326  -16.5651  -15.5595 C   0  0  0  0  0  0  0  0  0  0  0  0
   17.6762  -16.6042  -16.8668 C   0  0  0  0  0  0  0  0  0  0  0  0
   16.9328  -17.6766  -17.3961 C   0  0  0  0  0  0  0  0  0  0  0  0
   16.5244  -17.3595  -18.6203 N   0  0  0  0  0  0  0  0  0  0  0  0
   16.9483  -16.1302  -18.9520 C   0  0  0  0  0  0  0  0  0  0  0  0
   16.7968  -15.3357  -20.0545 C   0  0  0  0  0  0  0  0  0  0  0  0
   17.3344  -14.0544  -20.1372 C   0  0  0  0  0  0  0  0  0  0  0  0
   18.0452  -13.5741  -19.0645 C   0  0  0  0  0  0  0  0  0  0  0  0
   18.1887  -14.3865  -17.9644 C   0  0  0  0  0  0  0  0  0  0  0  0
   17.6616  -15.6547  -17.8736 C   0  0  0  0  0  0  0  0  0  0  0  0
   18.8327  -18.9532  -15.3690 C   0  0  0  0  0  0  0  0  0  0  0  0
   17.9291  -19.4378  -14.4003 O   0  0  0  0  0  0  0  0  0  0  0  0
   19.1010  -19.7988  -16.2716 O   0  0  0  0  0  0  0  0  0  0  0  0
  2  1  1  6
  3  2  1  0
  3  4  1  0
  4  5  2  0
  6  2  1  0
  6 14  1  0
  7  6  2  0
  8  4  1  0
  9 10  1  0
 11 10  1  0
 11 12  1  6
 13 11  1  0
 13 15  1  0
 13 14  1  1
 15 16  2  0
 17 15  1  0
 17 18  1  0
 18 19  1  6
 19 20  1  0
 20 28  1  0
 21 20  2  0
 21 22  1  0
 22 23  1  0
 23 24  1  0
 24 25  2  0
 26 25  1  0
 27 26  2  0
 28 23  2  0
 28 27  1  0
 29 30  1  0
 29 18  1  0
 31 29  2  0
M  END
$$$$
