KMG.pdb
     RDKit          3D

 22 21  0  0  1  0  0  0  0  0999 V2000
    7.2967  -15.5241   20.9333 N   0  0  0  0  0  0  0  0  0  0  0  0
    8.3335  -14.5002   21.0278 C   0  0  1  0  0  0  0  0  0  0  0  0
    7.8989  -13.3032   20.2549 C   0  0  0  0  0  0  0  0  0  0  0  0
    7.3087  -13.5838   18.9055 C   0  0  0  0  0  0  0  0  0  0  0  0
    8.3838  -13.6999   17.8433 C   0  0  0  0  0  0  0  0  0  0  0  0
    7.7656  -13.8646   16.4833 C   0  0  0  0  0  0  0  0  0  0  0  0
    8.8134  -13.9994   15.4637 N   0  0  0  0  0  0  0  0  0  0  0  0
    8.6173  -14.2502   22.4610 C   0  0  0  0  0  0  0  0  0  0  0  0
    9.4530  -13.3352   22.7268 O   0  0  0  0  0  0  0  0  0  0  0  0
    7.0089  -10.5822   26.1852 C   0  0  0  0  0  0  0  0  0  0  0  0
    6.5857  -12.1573   26.8335 S   0  0  0  0  0  0  0  0  0  0  0  0
    6.1148  -13.4711   25.7867 C   0  0  0  0  0  0  0  0  0  0  0  0
    6.9224  -14.6136   25.4574 C   0  0  0  0  0  0  0  0  0  0  0  0
    8.2775  -14.6804   24.8963 C   0  0  2  0  0  0  0  0  0  0  0  0
    7.9686  -15.0139   23.4396 N   0  0  0  0  0  0  0  0  0  0  0  0
    9.1388  -15.8235   25.2998 C   0  0  0  0  0  0  0  0  0  0  0  0
    9.3473  -16.0866   26.5362 O   0  0  0  0  0  0  0  0  0  0  0  0
    9.7821  -16.7113   24.4090 N   0  0  0  0  0  0  0  0  0  0  0  0
   10.6842  -17.7554   24.8747 C   0  0  0  0  0  0  0  0  0  0  0  0
   11.3207  -18.4630   23.7476 C   0  0  0  0  0  0  0  0  0  0  0  0
   11.1227  -18.0157   22.5960 O   0  0  0  0  0  0  0  0  0  0  0  0
   12.1081  -19.5757   23.9234 O   0  0  0  0  0  0  0  0  0  0  0  0
  2  8  1  0
  2  1  1  1
  3  2  1  0
  4  3  1  0
  5  4  1  0
  6  5  1  0
  7  6  1  0
  8  9  2  0
 10 11  1  0
 12 11  1  0
 13 12  1  0
 14 13  1  1
 15 14  1  0
 15  8  1  0
 16 17  2  0
 16 14  1  0
 18 16  1  0
 19 18  1  0
 20 19  1  0
 21 20  2  0
 22 20  1  0
M  END
$$$$
