KMG.pdb
     RDKit          3D

 22 21  0  0  1  0  0  0  0  0999 V2000
    7.1503  -15.6387   20.1786 N   0  0  0  0  0  0  0  0  0  0  0  0
    7.9893  -14.4447   20.2300 C   0  0  1  0  0  0  0  0  0  0  0  0
    7.2721  -13.3241   19.5599 C   0  0  0  0  0  0  0  0  0  0  0  0
    7.7287  -13.0042   18.1682 C   0  0  0  0  0  0  0  0  0  0  0  0
    7.6298  -14.2140   17.2602 C   0  0  0  0  0  0  0  0  0  0  0  0
    8.1591  -13.8904   15.8913 C   0  0  0  0  0  0  0  0  0  0  0  0
    8.0652  -15.0688   15.0205 N   0  0  0  0  0  0  0  0  0  0  0  0
    8.3621  -14.1931   21.6424 C   0  0  0  0  0  0  0  0  0  0  0  0
    9.2459  -13.3090   21.8512 O   0  0  0  0  0  0  0  0  0  0  0  0
    6.0682  -11.0801   26.9744 C   0  0  0  0  0  0  0  0  0  0  0  0
    7.1885  -12.4291   26.9016 S   0  0  0  0  0  0  0  0  0  0  0  0
    6.7520  -13.9282   26.1231 C   0  0  0  0  0  0  0  0  0  0  0  0
    6.9977  -14.2628   24.7471 C   0  0  0  0  0  0  0  0  0  0  0  0
    8.2389  -14.6853   24.0865 C   0  0  2  0  0  0  0  0  0  0  0  0
    7.7403  -14.9223   22.6639 N   0  0  0  0  0  0  0  0  0  0  0  0
    8.7960  -16.0166   24.4452 C   0  0  0  0  0  0  0  0  0  0  0  0
    8.0448  -17.0532   24.4947 O   0  0  0  0  0  0  0  0  0  0  0  0
   10.1517  -16.2771   24.7448 N   0  0  0  0  0  0  0  0  0  0  0  0
   10.6210  -17.6059   25.1125 C   0  0  0  0  0  0  0  0  0  0  0  0
   12.0747  -17.6162   25.3631 C   0  0  0  0  0  0  0  0  0  0  0  0
   12.7055  -16.5546   25.1616 O   0  0  0  0  0  0  0  0  0  0  0  0
   12.7411  -18.7351   25.8023 O   0  0  0  0  0  0  0  0  0  0  0  0
  2  8  1  0
  2  1  1  1
  3  2  1  0
  4  3  1  0
  5  4  1  0
  6  5  1  0
  7  6  1  0
  8  9  2  0
 10 11  1  0
 12 11  1  0
 13 12  1  0
 14 13  1  1
 15 14  1  0
 15  8  1  0
 16 17  2  0
 16 14  1  0
 18 16  1  0
 19 18  1  0
 20 19  1  0
 21 20  2  0
 22 20  1  0
M  END
$$$$
