KMG.pdb
     RDKit          3D

 22 21  0  0  1  0  0  0  0  0999 V2000
    7.0477  -17.7811   21.5267 N   0  0  0  0  0  0  0  0  0  0  0  0
    8.2687  -17.1595   21.0218 C   0  0  1  0  0  0  0  0  0  0  0  0
    7.9631  -16.4763   19.7337 C   0  0  0  0  0  0  0  0  0  0  0  0
    7.5411  -17.3741   18.6096 C   0  0  0  0  0  0  0  0  0  0  0  0
    7.4319  -16.6131   17.3032 C   0  0  0  0  0  0  0  0  0  0  0  0
    6.9298  -17.5130   16.2092 C   0  0  0  0  0  0  0  0  0  0  0  0
    6.9412  -16.8030   14.9242 N   0  0  0  0  0  0  0  0  0  0  0  0
    8.8208  -16.2809   22.0802 C   0  0  0  0  0  0  0  0  0  0  0  0
    9.8918  -15.6608   21.8069 O   0  0  0  0  0  0  0  0  0  0  0  0
    6.1031  -10.8862   26.2164 C   0  0  0  0  0  0  0  0  0  0  0  0
    6.9128  -12.4322   26.4023 S   0  0  0  0  0  0  0  0  0  0  0  0
    6.8763  -13.6320   25.1362 C   0  0  0  0  0  0  0  0  0  0  0  0
    7.6034  -14.8718   25.1326 C   0  0  0  0  0  0  0  0  0  0  0  0
    8.7883  -15.2678   24.3615 C   0  0  2  0  0  0  0  0  0  0  0  0
    8.1557  -16.1728   23.3082 N   0  0  0  0  0  0  0  0  0  0  0  0
    9.7634  -16.1835   25.0111 C   0  0  0  0  0  0  0  0  0  0  0  0
    9.3675  -17.1322   25.7757 O   0  0  0  0  0  0  0  0  0  0  0  0
   11.1662  -16.1207   24.8559 N   0  0  0  0  0  0  0  0  0  0  0  0
   12.0560  -17.1007   25.4630 C   0  0  0  0  0  0  0  0  0  0  0  0
   13.4731  -16.7532   25.2450 C   0  0  0  0  0  0  0  0  0  0  0  0
   13.7225  -15.7565   24.5311 O   0  0  0  0  0  0  0  0  0  0  0  0
   14.5045  -17.4781   25.7925 O   0  0  0  0  0  0  0  0  0  0  0  0
  2  8  1  0
  2  1  1  1
  3  2  1  0
  4  3  1  0
  5  4  1  0
  6  5  1  0
  7  6  1  0
  8  9  2  0
 10 11  1  0
 12 11  1  0
 13 12  1  0
 14 13  1  1
 15 14  1  0
 15  8  1  0
 16 17  2  0
 16 14  1  0
 18 16  1  0
 19 18  1  0
 20 19  1  0
 21 20  2  0
 22 20  1  0
M  END
$$$$
