KMG.pdb
     RDKit          3D

 22 21  0  0  1  0  0  0  0  0999 V2000
    7.6625  -16.3350   20.6655 N   0  0  0  0  0  0  0  0  0  0  0  0
    8.7189  -15.3338   20.5469 C   0  0  1  0  0  0  0  0  0  0  0  0
    8.3131  -14.3252   19.5286 C   0  0  0  0  0  0  0  0  0  0  0  0
    8.2574  -14.8200   18.1145 C   0  0  0  0  0  0  0  0  0  0  0  0
    7.9355  -13.6985   17.1468 C   0  0  0  0  0  0  0  0  0  0  0  0
    7.7733  -14.2356   15.7525 C   0  0  0  0  0  0  0  0  0  0  0  0
    7.4495  -13.1451   14.8242 N   0  0  0  0  0  0  0  0  0  0  0  0
    8.9986  -14.7843   21.8948 C   0  0  0  0  0  0  0  0  0  0  0  0
    9.8840  -13.8807   21.9710 O   0  0  0  0  0  0  0  0  0  0  0  0
    6.5289  -11.6292   28.0969 C   0  0  0  0  0  0  0  0  0  0  0  0
    7.1450  -12.3124   26.6022 S   0  0  0  0  0  0  0  0  0  0  0  0
    6.7541  -13.9437   26.1229 C   0  0  0  0  0  0  0  0  0  0  0  0
    7.2393  -14.6129   24.9471 C   0  0  0  0  0  0  0  0  0  0  0  0
    8.5807  -14.6168   24.3502 C   0  0  2  0  0  0  0  0  0  0  0  0
    8.2928  -15.2716   23.0022 N   0  0  0  0  0  0  0  0  0  0  0  0
    9.5948  -15.5364   24.9310 C   0  0  0  0  0  0  0  0  0  0  0  0
   10.4253  -15.1264   25.8161 O   0  0  0  0  0  0  0  0  0  0  0  0
    9.7408  -16.9013   24.5973 N   0  0  0  0  0  0  0  0  0  0  0  0
   10.6553  -17.7791   25.3143 C   0  0  0  0  0  0  0  0  0  0  0  0
   10.1368  -18.1246   26.6515 C   0  0  0  0  0  0  0  0  0  0  0  0
   10.8678  -18.8148   27.3964 O   0  0  0  0  0  0  0  0  0  0  0  0
    8.9001  -17.7183   27.0925 O   0  0  0  0  0  0  0  0  0  0  0  0
  2  8  1  0
  2  1  1  1
  3  2  1  0
  4  3  1  0
  5  4  1  0
  6  5  1  0
  7  6  1  0
  8  9  2  0
 10 11  1  0
 12 11  1  0
 13 12  1  0
 14 13  1  1
 15 14  1  0
 15  8  1  0
 16 17  2  0
 16 14  1  0
 18 16  1  0
 19 18  1  0
 20 19  1  0
 21 20  2  0
 22 20  1  0
M  END
$$$$
