KMG.pdb
     RDKit          3D

 22 21  0  0  1  0  0  0  0  0999 V2000
    7.5016  -16.3776   21.1335 N   0  0  0  0  0  0  0  0  0  0  0  0
    8.4120  -15.2368   21.0886 C   0  0  1  0  0  0  0  0  0  0  0  0
    7.8298  -14.1919   20.2009 C   0  0  0  0  0  0  0  0  0  0  0  0
    7.7118  -14.5650   18.7536 C   0  0  0  0  0  0  0  0  0  0  0  0
    8.1078  -13.4140   17.8501 C   0  0  0  0  0  0  0  0  0  0  0  0
    7.9120  -13.7852   16.4069 C   0  0  0  0  0  0  0  0  0  0  0  0
    8.3192  -12.6736   15.5384 N   0  0  0  0  0  0  0  0  0  0  0  0
    8.6831  -14.7973   22.4780 C   0  0  0  0  0  0  0  0  0  0  0  0
    9.4769  -13.8201   22.6234 O   0  0  0  0  0  0  0  0  0  0  0  0
    6.1539  -10.9627   27.3537 C   0  0  0  0  0  0  0  0  0  0  0  0
    7.0232  -12.1736   26.4272 S   0  0  0  0  0  0  0  0  0  0  0  0
    6.3354  -13.7479   26.1235 C   0  0  0  0  0  0  0  0  0  0  0  0
    7.0134  -14.8564   25.5092 C   0  0  0  0  0  0  0  0  0  0  0  0
    8.3684  -14.9406   24.9502 C   0  0  2  0  0  0  0  0  0  0  0  0
    8.0681  -15.4607   23.5473 N   0  0  0  0  0  0  0  0  0  0  0  0
    9.2736  -15.9929   25.4834 C   0  0  0  0  0  0  0  0  0  0  0  0
    9.2447  -16.3210   26.7215 O   0  0  0  0  0  0  0  0  0  0  0  0
   10.2122  -16.7218   24.7197 N   0  0  0  0  0  0  0  0  0  0  0  0
   11.0319  -17.7754   25.3021 C   0  0  0  0  0  0  0  0  0  0  0  0
   11.8122  -18.4861   24.2714 C   0  0  0  0  0  0  0  0  0  0  0  0
   11.1878  -18.9644   23.2984 O   0  0  0  0  0  0  0  0  0  0  0  0
   13.1765  -18.6341   24.3484 O   0  0  0  0  0  0  0  0  0  0  0  0
  2  8  1  0
  2  1  1  1
  3  2  1  0
  4  3  1  0
  5  4  1  0
  6  5  1  0
  7  6  1  0
  8  9  2  0
 10 11  1  0
 12 11  1  0
 13 12  1  0
 14 13  1  1
 15 14  1  0
 15  8  1  0
 16 17  2  0
 16 14  1  0
 18 16  1  0
 19 18  1  0
 20 19  1  0
 21 20  2  0
 22 20  1  0
M  END
$$$$
