KMG.pdb
     RDKit          3D

 22 21  0  0  1  0  0  0  0  0999 V2000
    7.1686  -15.7089   20.8067 N   0  0  0  0  0  0  0  0  0  0  0  0
    8.2567  -14.7524   20.6232 C   0  0  1  0  0  0  0  0  0  0  0  0
    7.7767  -13.6383   19.7588 C   0  0  0  0  0  0  0  0  0  0  0  0
    7.3149  -14.0352   18.3888 C   0  0  0  0  0  0  0  0  0  0  0  0
    8.4261  -13.8966   17.3672 C   0  0  0  0  0  0  0  0  0  0  0  0
    7.9516  -14.3334   16.0097 C   0  0  0  0  0  0  0  0  0  0  0  0
    9.0194  -14.1536   15.0180 N   0  0  0  0  0  0  0  0  0  0  0  0
    8.7497  -14.3402   21.9589 C   0  0  0  0  0  0  0  0  0  0  0  0
    9.7260  -13.5324   21.9832 O   0  0  0  0  0  0  0  0  0  0  0  0
    6.1336  -11.2822   28.1686 C   0  0  0  0  0  0  0  0  0  0  0  0
    6.2661  -12.1192   26.6318 S   0  0  0  0  0  0  0  0  0  0  0  0
    7.2121  -13.5765   26.4725 C   0  0  0  0  0  0  0  0  0  0  0  0
    7.4645  -14.2844   25.2474 C   0  0  0  0  0  0  0  0  0  0  0  0
    8.6957  -14.3871   24.4542 C   0  0  2  0  0  0  0  0  0  0  0  0
    8.1343  -14.8454   23.1113 N   0  0  0  0  0  0  0  0  0  0  0  0
    9.6432  -15.4846   24.7845 C   0  0  0  0  0  0  0  0  0  0  0  0
   10.9095  -15.3084   24.7028 O   0  0  0  0  0  0  0  0  0  0  0  0
    9.2717  -16.7774   25.2162 N   0  0  0  0  0  0  0  0  0  0  0  0
   10.2570  -17.7705   25.6209 C   0  0  0  0  0  0  0  0  0  0  0  0
    9.6229  -19.0641   25.9379 C   0  0  0  0  0  0  0  0  0  0  0  0
    8.3981  -19.1808   25.7105 O   0  0  0  0  0  0  0  0  0  0  0  0
   10.3247  -20.1220   26.4646 O   0  0  0  0  0  0  0  0  0  0  0  0
  2  8  1  0
  2  1  1  1
  3  2  1  0
  4  3  1  0
  5  4  1  0
  6  5  1  0
  7  6  1  0
  8  9  2  0
 10 11  1  0
 12 11  1  0
 13 12  1  0
 14 13  1  1
 15 14  1  0
 15  8  1  0
 16 17  2  0
 16 14  1  0
 18 16  1  0
 19 18  1  0
 20 19  1  0
 21 20  2  0
 22 20  1  0
M  END
$$$$
