KMG.pdb
     RDKit          3D

 22 21  0  0  1  0  0  0  0  0999 V2000
    7.1886  -15.6056   20.9278 N   0  0  0  0  0  0  0  0  0  0  0  0
    8.3125  -14.6734   20.9384 C   0  0  1  0  0  0  0  0  0  0  0  0
    7.9329  -13.4540   20.1717 C   0  0  0  0  0  0  0  0  0  0  0  0
    7.3809  -13.6986   18.7994 C   0  0  0  0  0  0  0  0  0  0  0  0
    8.4865  -13.8076   17.7681 C   0  0  0  0  0  0  0  0  0  0  0  0
    7.9162  -14.1328   16.4161 C   0  0  0  0  0  0  0  0  0  0  0  0
    8.9920  -14.2229   15.4211 N   0  0  0  0  0  0  0  0  0  0  0  0
    8.7070  -14.4296   22.3463 C   0  0  0  0  0  0  0  0  0  0  0  0
    9.6957  -13.6601   22.5374 O   0  0  0  0  0  0  0  0  0  0  0  0
    7.1672  -11.0957   27.3528 C   0  0  0  0  0  0  0  0  0  0  0  0
    5.9733  -12.2115   26.7125 S   0  0  0  0  0  0  0  0  0  0  0  0
    6.3503  -13.2774   25.3838 C   0  0  0  0  0  0  0  0  0  0  0  0
    7.1710  -14.4550   25.4585 C   0  0  0  0  0  0  0  0  0  0  0  0
    8.4530  -14.7537   24.8084 C   0  0  2  0  0  0  0  0  0  0  0  0
    7.9913  -15.0422   23.3828 N   0  0  0  0  0  0  0  0  0  0  0  0
    9.1368  -16.0223   25.1751 C   0  0  0  0  0  0  0  0  0  0  0  0
    9.5094  -16.2449   26.3805 O   0  0  0  0  0  0  0  0  0  0  0  0
    9.4268  -17.0776   24.2819 N   0  0  0  0  0  0  0  0  0  0  0  0
   10.1037  -18.2925   24.7140 C   0  0  0  0  0  0  0  0  0  0  0  0
   11.5700  -18.1542   24.6295 C   0  0  0  0  0  0  0  0  0  0  0  0
   12.0287  -17.0431   24.2824 O   0  0  0  0  0  0  0  0  0  0  0  0
   12.4278  -19.1894   24.9153 O   0  0  0  0  0  0  0  0  0  0  0  0
  2  8  1  0
  2  1  1  1
  3  2  1  0
  4  3  1  0
  5  4  1  0
  6  5  1  0
  7  6  1  0
  8  9  2  0
 10 11  1  0
 12 11  1  0
 13 12  1  0
 14 13  1  1
 15 14  1  0
 15  8  1  0
 16 17  2  0
 16 14  1  0
 18 16  1  0
 19 18  1  0
 20 19  1  0
 21 20  2  0
 22 20  1  0
M  END
$$$$
