KMG.pdb
     RDKit          3D

 22 21  0  0  1  0  0  0  0  0999 V2000
    9.2574  -18.0031   16.9259 N   0  0  0  0  0  0  0  0  0  0  0  0
    8.6077  -18.2300   18.2138 C   0  0  1  0  0  0  0  0  0  0  0  0
    8.8239  -19.6474   18.6180 C   0  0  0  0  0  0  0  0  0  0  0  0
    9.1420  -20.5970   17.5023 C   0  0  0  0  0  0  0  0  0  0  0  0
    9.2902  -22.0180   18.0088 C   0  0  0  0  0  0  0  0  0  0  0  0
    9.6995  -22.9359   16.8913 C   0  0  0  0  0  0  0  0  0  0  0  0
    9.9135  -24.2947   17.4048 N   0  0  0  0  0  0  0  0  0  0  0  0
    9.1093  -17.2213   19.1770 C   0  0  0  0  0  0  0  0  0  0  0  0
   10.0873  -16.5085   18.8004 O   0  0  0  0  0  0  0  0  0  0  0  0
    7.6307  -11.2747   20.5917 C   0  0  0  0  0  0  0  0  0  0  0  0
    7.3941  -12.9672   20.1920 S   0  0  0  0  0  0  0  0  0  0  0  0
    6.9102  -14.1252   21.4039 C   0  0  0  0  0  0  0  0  0  0  0  0
    7.5419  -15.3915   21.6554 C   0  0  0  0  0  0  0  0  0  0  0  0
    8.8722  -15.8755   21.2660 C   0  0  2  0  0  0  0  0  0  0  0  0
    8.4998  -17.0980   20.4320 N   0  0  0  0  0  0  0  0  0  0  0  0
    9.7294  -16.4723   22.3245 C   0  0  0  0  0  0  0  0  0  0  0  0
    9.2458  -17.2993   23.1751 O   0  0  0  0  0  0  0  0  0  0  0  0
   11.1082  -16.2163   22.4949 N   0  0  0  0  0  0  0  0  0  0  0  0
   11.8813  -16.8265   23.5677 C   0  0  0  0  0  0  0  0  0  0  0  0
   13.2932  -16.4010   23.5268 C   0  0  0  0  0  0  0  0  0  0  0  0
   13.6711  -15.7398   22.5341 O   0  0  0  0  0  0  0  0  0  0  0  0
   14.1858  -16.7040   24.5271 O   0  0  0  0  0  0  0  0  0  0  0  0
  2  8  1  0
  2  1  1  6
  3  2  1  0
  4  3  1  0
  5  4  1  0
  6  5  1  0
  7  6  1  0
  8  9  2  0
 10 11  1  0
 12 11  1  0
 13 12  1  0
 14 13  1  1
 15 14  1  0
 15  8  1  0
 16 17  2  0
 16 14  1  0
 18 16  1  0
 19 18  1  0
 20 19  1  0
 21 20  2  0
 22 20  1  0
M  END
$$$$
