KMG.pdb
     RDKit          3D

 22 21  0  0  1  0  0  0  0  0999 V2000
    5.3648  -19.4505   22.9086 N   0  0  0  0  0  0  0  0  0  0  0  0
    5.9037  -18.9562   24.1725 C   0  0  1  0  0  0  0  0  0  0  0  0
    6.7196  -20.0326   24.8009 C   0  0  0  0  0  0  0  0  0  0  0  0
    6.6567  -21.3697   24.1257 C   0  0  0  0  0  0  0  0  0  0  0  0
    7.0237  -22.4900   25.0787 C   0  0  0  0  0  0  0  0  0  0  0  0
    8.5099  -22.5292   25.2987 C   0  0  0  0  0  0  0  0  0  0  0  0
    8.8726  -23.7065   26.0975 N   0  0  0  0  0  0  0  0  0  0  0  0
    6.6315  -17.6919   23.9102 C   0  0  0  0  0  0  0  0  0  0  0  0
    7.1760  -17.5716   22.7721 O   0  0  0  0  0  0  0  0  0  0  0  0
    7.3286  -11.1460   27.3727 C   0  0  0  0  0  0  0  0  0  0  0  0
    6.0625  -11.8730   26.3987 S   0  0  0  0  0  0  0  0  0  0  0  0
    6.4326  -13.0417   25.1574 C   0  0  0  0  0  0  0  0  0  0  0  0
    6.6627  -14.4449   25.3666 C   0  0  0  0  0  0  0  0  0  0  0  0
    7.4123  -15.4093   24.5519 C   0  0  2  0  0  0  0  0  0  0  0  0
    6.6879  -16.7057   24.9032 N   0  0  0  0  0  0  0  0  0  0  0  0
    8.8104  -15.7171   24.9542 C   0  0  0  0  0  0  0  0  0  0  0  0
    9.1090  -15.9406   26.1798 O   0  0  0  0  0  0  0  0  0  0  0  0
    9.9100  -15.8052   24.0717 N   0  0  0  0  0  0  0  0  0  0  0  0
   11.2719  -15.9982   24.5500 C   0  0  0  0  0  0  0  0  0  0  0  0
   12.2313  -16.0809   23.4324 C   0  0  0  0  0  0  0  0  0  0  0  0
   12.2617  -17.1429   22.7715 O   0  0  0  0  0  0  0  0  0  0  0  0
   13.0745  -15.0464   23.1040 O   0  0  0  0  0  0  0  0  0  0  0  0
  2  8  1  0
  2  1  1  6
  3  2  1  0
  4  3  1  0
  5  4  1  0
  6  5  1  0
  7  6  1  0
  8  9  2  0
 10 11  1  0
 12 11  1  0
 13 12  1  0
 14 13  1  1
 15 14  1  0
 15  8  1  0
 16 17  2  0
 16 14  1  0
 18 16  1  0
 19 18  1  0
 20 19  1  0
 21 20  2  0
 22 20  1  0
M  END
$$$$
