PDA.pdb
     RDKit          3D

 21 21  0  0  1  0  0  0  0  0999 V2000
   27.8882  -19.2326  -13.7825 N   0  0  0  0  0  0  0  0  0  0  0  0
   28.8245  -19.9711  -12.9865 C   0  0  0  0  0  0  0  0  0  0  0  0
   28.9810  -21.3186  -13.6716 C   0  0  0  0  0  0  0  0  0  0  0  0
   28.8922  -20.8608  -15.1344 C   0  0  0  0  0  0  0  0  0  0  0  0
   27.7149  -19.9074  -15.0342 C   0  0  1  0  0  0  0  0  0  0  0  0
   26.4180  -20.6500  -15.0870 C   0  0  0  0  0  0  0  0  0  0  0  0
   26.0950  -21.3493  -16.0848 O   0  0  0  0  0  0  0  0  0  0  0  0
   25.4906  -20.6008  -14.0117 N   0  0  0  0  0  0  0  0  0  0  0  0
   24.2052  -21.3454  -14.0991 C   0  0  1  0  0  0  0  0  0  0  0  0
   24.1456  -22.3629  -13.0132 C   0  0  0  0  0  0  0  0  0  0  0  0
   23.8079  -23.6901  -13.5250 C   0  0  0  0  0  0  0  0  0  0  0  0
   24.5611  -24.5685  -13.9787 O   0  0  0  0  0  0  0  0  0  0  0  0
   23.0990  -20.3448  -14.0496 C   0  0  0  0  0  0  0  0  0  0  0  0
   22.9683  -19.5172  -13.1310 O   0  0  0  0  0  0  0  0  0  0  0  0
   22.4366  -24.0389  -13.5080 O   0  0  0  0  0  0  0  0  0  0  0  0
   20.8153  -18.6350  -16.3090 C   0  0  0  0  0  0  0  0  0  0  0  0
   21.0275  -19.3508  -14.9899 C   0  0  2  0  0  0  0  0  0  0  0  0
   22.1153  -20.2941  -15.0857 N   0  0  0  0  0  0  0  0  0  0  0  0
   19.7513  -20.0166  -14.6147 C   0  0  0  0  0  0  0  0  0  0  0  0
   19.5477  -21.2554  -14.7689 O   0  0  0  0  0  0  0  0  0  0  0  0
   18.7186  -19.2803  -14.0699 O   0  0  0  0  0  0  0  0  0  0  0  0
  1  2  1  0
  3  2  1  0
  4  5  1  0
  4  3  1  0
  5  1  1  0
  6  8  1  0
  5  6  1  1
  7  6  2  0
  9 13  1  0
  9  8  1  0
  9 10  1  1
 11 12  2  0
 11 10  1  0
 13 18  1  0
 14 13  2  0
 15 11  1  0
 17 16  1  6
 18 17  1  0
 19 17  1  0
 19 21  1  0
 20 19  2  0
M  END
$$$$
