PDA.pdb
     RDKit          3D

 21 21  0  0  1  0  0  0  0  0999 V2000
   15.7653   -6.1728   -7.9844 N   0  0  0  0  0  0  0  0  0  0  0  0
   14.3717   -5.8396   -8.0349 C   0  0  0  0  0  0  0  0  0  0  0  0
   13.7176   -6.9147   -8.8868 C   0  0  0  0  0  0  0  0  0  0  0  0
   14.5501   -8.1236   -8.4363 C   0  0  0  0  0  0  0  0  0  0  0  0
   15.9375   -7.5083   -8.4734 C   0  0  1  0  0  0  0  0  0  0  0  0
   16.4925   -7.5214   -9.8619 C   0  0  0  0  0  0  0  0  0  0  0  0
   16.6256   -8.5929  -10.5122 O   0  0  0  0  0  0  0  0  0  0  0  0
   16.8946   -6.3235  -10.5114 N   0  0  0  0  0  0  0  0  0  0  0  0
   17.3503   -6.3582  -11.9276 C   0  0  1  0  0  0  0  0  0  0  0  0
   16.3205   -5.7237  -12.7965 C   0  0  0  0  0  0  0  0  0  0  0  0
   16.6617   -5.8276  -14.2144 C   0  0  0  0  0  0  0  0  0  0  0  0
   17.6147   -6.4203  -14.7483 O   0  0  0  0  0  0  0  0  0  0  0  0
   18.6849   -5.6930  -11.9895 C   0  0  0  0  0  0  0  0  0  0  0  0
   18.9201   -4.5865  -11.4737 O   0  0  0  0  0  0  0  0  0  0  0  0
   15.7960   -5.1670  -15.1180 O   0  0  0  0  0  0  0  0  0  0  0  0
   22.1397   -6.6240  -13.1895 C   0  0  0  0  0  0  0  0  0  0  0  0
   21.0770   -5.6855  -12.6532 C   0  0  2  0  0  0  0  0  0  0  0  0
   19.7799   -6.3179  -12.6632 N   0  0  0  0  0  0  0  0  0  0  0  0
   21.0940   -4.4480  -13.4785 C   0  0  0  0  0  0  0  0  0  0  0  0
   20.2223   -4.1937  -14.3589 O   0  0  0  0  0  0  0  0  0  0  0  0
   22.0920   -3.5107  -13.3031 O   0  0  0  0  0  0  0  0  0  0  0  0
  1  2  1  0
  3  2  1  0
  4  5  1  0
  4  3  1  0
  5  1  1  0
  6  8  1  0
  5  6  1  6
  7  6  2  0
  9 13  1  0
  9  8  1  0
  9 10  1  6
 11 12  2  0
 11 10  1  0
 13 18  1  0
 14 13  2  0
 15 11  1  0
 17 16  1  6
 18 17  1  0
 19 17  1  0
 19 21  1  0
 20 19  2  0
M  END
$$$$
