PDA.pdb
     RDKit          3D

 21 21  0  0  1  0  0  0  0  0999 V2000
   23.2570   -9.3305  -14.8830 N   0  0  0  0  0  0  0  0  0  0  0  0
   23.1400  -10.1557  -13.7163 C   0  0  0  0  0  0  0  0  0  0  0  0
   22.0729  -11.1876  -14.0422 C   0  0  0  0  0  0  0  0  0  0  0  0
   22.3939  -11.4106  -15.5269 C   0  0  0  0  0  0  0  0  0  0  0  0
   22.5767   -9.9699  -15.9695 C   0  0  1  0  0  0  0  0  0  0  0  0
   21.2576   -9.3247  -16.2522 C   0  0  0  0  0  0  0  0  0  0  0  0
   20.5063   -9.7312  -17.1791 O   0  0  0  0  0  0  0  0  0  0  0  0
   20.7914   -8.2228  -15.4860 N   0  0  0  0  0  0  0  0  0  0  0  0
   19.5193   -7.5431  -15.8522 C   0  0  1  0  0  0  0  0  0  0  0  0
   18.5043   -7.7821  -14.7888 C   0  0  0  0  0  0  0  0  0  0  0  0
   17.9071   -9.1125  -14.8916 C   0  0  0  0  0  0  0  0  0  0  0  0
   18.1887  -10.1471  -14.2631 O   0  0  0  0  0  0  0  0  0  0  0  0
   19.8267   -6.1005  -16.0796 C   0  0  0  0  0  0  0  0  0  0  0  0
   20.4971   -5.4132  -15.2897 O   0  0  0  0  0  0  0  0  0  0  0  0
   16.8609   -9.2596  -15.8330 O   0  0  0  0  0  0  0  0  0  0  0  0
   19.1808   -3.5682  -18.8125 C   0  0  0  0  0  0  0  0  0  0  0  0
   19.7336   -4.0592  -17.4893 C   0  0  2  0  0  0  0  0  0  0  0  0
   19.3501   -5.4293  -17.2483 N   0  0  0  0  0  0  0  0  0  0  0  0
   19.2421   -3.1520  -16.4178 C   0  0  0  0  0  0  0  0  0  0  0  0
   18.1485   -3.3326  -15.8084 O   0  0  0  0  0  0  0  0  0  0  0  0
   19.9872   -2.0518  -16.0441 O   0  0  0  0  0  0  0  0  0  0  0  0
  1  2  1  0
  3  2  1  0
  4  5  1  0
  4  3  1  0
  5  1  1  0
  6  8  1  0
  5  6  1  1
  7  6  2  0
  9 13  1  0
  9  8  1  0
  9 10  1  1
 11 12  2  0
 11 10  1  0
 13 18  1  0
 14 13  2  0
 15 11  1  0
 17 16  1  6
 18 17  1  0
 19 17  1  0
 19 21  1  0
 20 19  2  0
M  END
$$$$
