PDA.pdb
     RDKit          3D

 21 21  0  0  1  0  0  0  0  0999 V2000
   43.7690  -10.7336   -6.5118 N   0  0  0  0  0  0  0  0  0  0  0  0
   44.6100  -10.2418   -5.4599 C   0  0  0  0  0  0  0  0  0  0  0  0
   43.7952   -9.1817   -4.7374 C   0  0  0  0  0  0  0  0  0  0  0  0
   42.4082   -9.8335   -4.8313 C   0  0  0  0  0  0  0  0  0  0  0  0
   42.4305  -10.2772   -6.2830 C   0  0  1  0  0  0  0  0  0  0  0  0
   42.0681   -9.1481   -7.1941 C   0  0  0  0  0  0  0  0  0  0  0  0
   42.9341   -8.5570   -7.8936 O   0  0  0  0  0  0  0  0  0  0  0  0
   40.7280   -8.6913   -7.3125 N   0  0  0  0  0  0  0  0  0  0  0  0
   40.3833   -7.6353   -8.3026 C   0  0  1  0  0  0  0  0  0  0  0  0
   39.0177   -7.8861   -8.8414 C   0  0  0  0  0  0  0  0  0  0  0  0
   38.6396   -6.9012   -9.8535 C   0  0  0  0  0  0  0  0  0  0  0  0
   37.6919   -6.0972   -9.8470 O   0  0  0  0  0  0  0  0  0  0  0  0
   40.5310   -6.3141   -7.6243 C   0  0  0  0  0  0  0  0  0  0  0  0
   40.1875   -6.1096   -6.4471 O   0  0  0  0  0  0  0  0  0  0  0  0
   39.4564   -6.8421  -11.0075 O   0  0  0  0  0  0  0  0  0  0  0  0
   42.3733   -3.1264   -8.2448 C   0  0  0  0  0  0  0  0  0  0  0  0
   41.2489   -3.9377   -7.6323 C   0  0  2  0  0  0  0  0  0  0  0  0
   41.0897   -5.1967   -8.3192 N   0  0  0  0  0  0  0  0  0  0  0  0
   40.0074   -3.1200   -7.6843 C   0  0  0  0  0  0  0  0  0  0  0  0
   39.8188   -2.1044   -6.9543 O   0  0  0  0  0  0  0  0  0  0  0  0
   38.9922   -3.4546   -8.5576 O   0  0  0  0  0  0  0  0  0  0  0  0
  1  2  1  0
  3  2  1  0
  4  5  1  0
  4  3  1  0
  5  1  1  0
  6  8  1  0
  5  6  1  6
  7  6  2  0
  9 13  1  0
  9  8  1  0
  9 10  1  1
 11 12  2  0
 11 10  1  0
 13 18  1  0
 14 13  2  0
 15 11  1  0
 17 16  1  6
 18 17  1  0
 19 17  1  0
 19 21  1  0
 20 19  2  0
M  END
$$$$
