PDA.pdb
     RDKit          3D

 21 21  0  0  1  0  0  0  0  0999 V2000
   18.6151  -10.8330  -18.1869 N   0  0  0  0  0  0  0  0  0  0  0  0
   18.2073  -12.1256  -17.7193 C   0  0  0  0  0  0  0  0  0  0  0  0
   17.5400  -11.8898  -16.3744 C   0  0  0  0  0  0  0  0  0  0  0  0
   16.8468  -10.5535  -16.6765 C   0  0  0  0  0  0  0  0  0  0  0  0
   17.9789   -9.8311  -17.3846 C   0  0  1  0  0  0  0  0  0  0  0  0
   18.9279   -9.2266  -16.3997 C   0  0  0  0  0  0  0  0  0  0  0  0
   18.6688   -9.1898  -15.1667 O   0  0  0  0  0  0  0  0  0  0  0  0
   20.1670   -8.6664  -16.8111 N   0  0  0  0  0  0  0  0  0  0  0  0
   21.1161   -8.1278  -15.7995 C   0  0  1  0  0  0  0  0  0  0  0  0
   22.4749   -8.6847  -16.0469 C   0  0  0  0  0  0  0  0  0  0  0  0
   22.5534  -10.1055  -15.7112 C   0  0  0  0  0  0  0  0  0  0  0  0
   22.4460  -10.6541  -14.6012 O   0  0  0  0  0  0  0  0  0  0  0  0
   21.0528   -6.6382  -15.8682 C   0  0  0  0  0  0  0  0  0  0  0  0
   21.1524   -5.9996  -16.9303 O   0  0  0  0  0  0  0  0  0  0  0  0
   22.7827  -10.9931  -16.7891 O   0  0  0  0  0  0  0  0  0  0  0  0
   19.6219   -3.8801  -14.0061 C   0  0  0  0  0  0  0  0  0  0  0  0
   20.8099   -4.4224  -14.7755 C   0  0  2  0  0  0  0  0  0  0  0  0
   20.8696   -5.8612  -14.6824 N   0  0  0  0  0  0  0  0  0  0  0  0
   22.0403   -3.7830  -14.2372 C   0  0  0  0  0  0  0  0  0  0  0  0
   22.8170   -4.3587  -13.4217 O   0  0  0  0  0  0  0  0  0  0  0  0
   22.3827   -2.5027  -14.6232 O   0  0  0  0  0  0  0  0  0  0  0  0
  1  2  1  0
  3  2  1  0
  4  5  1  0
  4  3  1  0
  5  1  1  0
  6  8  1  0
  5  6  1  1
  7  6  2  0
  9 13  1  0
  9  8  1  0
  9 10  1  6
 11 12  2  0
 11 10  1  0
 13 18  1  0
 14 13  2  0
 15 11  1  0
 17 16  1  1
 18 17  1  0
 19 17  1  0
 19 21  1  0
 20 19  2  0
M  END
$$$$
