PDA.pdb
     RDKit          3D

 21 21  0  0  1  0  0  0  0  0999 V2000
   27.7908  -20.0099  -16.6440 N   0  0  0  0  0  0  0  0  0  0  0  0
   27.7796  -19.4191  -17.9504 C   0  0  0  0  0  0  0  0  0  0  0  0
   27.4642  -17.9476  -17.7386 C   0  0  0  0  0  0  0  0  0  0  0  0
   28.2311  -17.7195  -16.4282 C   0  0  0  0  0  0  0  0  0  0  0  0
   27.8125  -18.9638  -15.6656 C   0  0  1  0  0  0  0  0  0  0  0  0
   26.4733  -18.7759  -15.0273 C   0  0  0  0  0  0  0  0  0  0  0  0
   26.2617  -17.8588  -14.1888 O   0  0  0  0  0  0  0  0  0  0  0  0
   25.3772  -19.6244  -15.3392 N   0  0  0  0  0  0  0  0  0  0  0  0
   24.0657  -19.4295  -14.6637 C   0  0  1  0  0  0  0  0  0  0  0  0
   22.9694  -19.5411  -15.6655 C   0  0  0  0  0  0  0  0  0  0  0  0
   21.6518  -19.3680  -15.0563 C   0  0  0  0  0  0  0  0  0  0  0  0
   21.2057  -18.3984  -14.4195 O   0  0  0  0  0  0  0  0  0  0  0  0
   23.9749  -20.4260  -13.5564 C   0  0  0  0  0  0  0  0  0  0  0  0
   23.8481  -21.6480  -13.7472 O   0  0  0  0  0  0  0  0  0  0  0  0
   20.7460  -20.4452  -15.2034 O   0  0  0  0  0  0  0  0  0  0  0  0
   24.5702  -20.5833   -9.8857 C   0  0  0  0  0  0  0  0  0  0  0  0
   23.8105  -20.9685  -11.1395 C   0  0  2  0  0  0  0  0  0  0  0  0
   24.0319  -20.0057  -12.1913 N   0  0  0  0  0  0  0  0  0  0  0  0
   22.3691  -21.0823  -10.7900 C   0  0  0  0  0  0  0  0  0  0  0  0
   21.4755  -20.3451  -11.2979 O   0  0  0  0  0  0  0  0  0  0  0  0
   21.9498  -22.0249   -9.8729 O   0  0  0  0  0  0  0  0  0  0  0  0
  1  2  1  0
  3  2  1  0
  4  5  1  0
  4  3  1  0
  5  1  1  0
  6  8  1  0
  5  6  1  6
  7  6  2  0
  9 13  1  0
  9  8  1  0
  9 10  1  6
 11 12  2  0
 11 10  1  0
 13 18  1  0
 14 13  2  0
 15 11  1  0
 17 16  1  1
 18 17  1  0
 19 17  1  0
 19 21  1  0
 20 19  2  0
M  END
$$$$
