PDA.pdb
     RDKit          3D

 21 21  0  0  1  0  0  0  0  0999 V2000
   23.8023  -12.3433  -15.1586 N   0  0  0  0  0  0  0  0  0  0  0  0
   23.5480  -13.4435  -16.0421 C   0  0  0  0  0  0  0  0  0  0  0  0
   23.9249  -12.9567  -17.4316 C   0  0  0  0  0  0  0  0  0  0  0  0
   25.1380  -12.0895  -17.0659 C   0  0  0  0  0  0  0  0  0  0  0  0
   24.5785  -11.3621  -15.8564 C   0  0  1  0  0  0  0  0  0  0  0  0
   23.7457  -10.1920  -16.2726 C   0  0  0  0  0  0  0  0  0  0  0  0
   24.1961   -9.2964  -17.0367 O   0  0  0  0  0  0  0  0  0  0  0  0
   22.4062  -10.0381  -15.8248 N   0  0  0  0  0  0  0  0  0  0  0  0
   21.6000   -8.8684  -16.2678 C   0  0  1  0  0  0  0  0  0  0  0  0
   20.1529   -9.2179  -16.2263 C   0  0  0  0  0  0  0  0  0  0  0  0
   19.8106  -10.2481  -17.2055 C   0  0  0  0  0  0  0  0  0  0  0  0
   20.1711  -10.3518  -18.3903 O   0  0  0  0  0  0  0  0  0  0  0  0
   21.9665   -7.7116  -15.3988 C   0  0  0  0  0  0  0  0  0  0  0  0
   21.9712   -7.7661  -14.1567 O   0  0  0  0  0  0  0  0  0  0  0  0
   18.9501  -11.2783  -16.7575 O   0  0  0  0  0  0  0  0  0  0  0  0
   23.2631   -4.2033  -15.9042 C   0  0  0  0  0  0  0  0  0  0  0  0
   22.6547   -5.3437  -15.1124 C   0  0  2  0  0  0  0  0  0  0  0  0
   22.3383   -6.4569  -15.9743 N   0  0  0  0  0  0  0  0  0  0  0  0
   21.4481   -4.8280  -14.4117 C   0  0  0  0  0  0  0  0  0  0  0  0
   21.4996   -4.2281  -13.2993 O   0  0  0  0  0  0  0  0  0  0  0  0
   20.1972   -4.9931  -14.9713 O   0  0  0  0  0  0  0  0  0  0  0  0
  1  2  1  0
  3  2  1  0
  4  5  1  0
  4  3  1  0
  5  1  1  0
  6  8  1  0
  5  6  1  6
  7  6  2  0
  9 13  1  0
  9  8  1  0
  9 10  1  1
 11 12  2  0
 11 10  1  0
 13 18  1  0
 14 13  2  0
 15 11  1  0
 17 16  1  6
 18 17  1  0
 19 17  1  0
 19 21  1  0
 20 19  2  0
M  END
$$$$
