PDA.pdb
     RDKit          3D

 21 21  0  0  1  0  0  0  0  0999 V2000
   21.5697  -12.1188  -16.5529 N   0  0  0  0  0  0  0  0  0  0  0  0
   20.5438  -12.9677  -17.0848 C   0  0  0  0  0  0  0  0  0  0  0  0
   20.0869  -12.3089  -18.3759 C   0  0  0  0  0  0  0  0  0  0  0  0
   21.4376  -11.7667  -18.8648 C   0  0  0  0  0  0  0  0  0  0  0  0
   21.9672  -11.1868  -17.5656 C   0  0  1  0  0  0  0  0  0  0  0  0
   21.4015   -9.8251  -17.3165 C   0  0  0  0  0  0  0  0  0  0  0  0
   21.5102   -8.8974  -18.1629 O   0  0  0  0  0  0  0  0  0  0  0  0
   20.7139   -9.5164  -16.1121 N   0  0  0  0  0  0  0  0  0  0  0  0
   20.1345   -8.1609  -15.9090 C   0  0  1  0  0  0  0  0  0  0  0  0
   18.8118   -8.2818  -15.2355 C   0  0  0  0  0  0  0  0  0  0  0  0
   17.8061   -8.8843  -16.1090 C   0  0  0  0  0  0  0  0  0  0  0  0
   17.6304   -8.7212  -17.3285 O   0  0  0  0  0  0  0  0  0  0  0  0
   21.1298   -7.3539  -15.1436 C   0  0  0  0  0  0  0  0  0  0  0  0
   21.7451   -7.7891  -14.1548 O   0  0  0  0  0  0  0  0  0  0  0  0
   16.8988   -9.7808  -15.4962 O   0  0  0  0  0  0  0  0  0  0  0  0
   22.7847   -3.9857  -15.5162 C   0  0  0  0  0  0  0  0  0  0  0  0
   22.4043   -5.2549  -14.7800 C   0  0  2  0  0  0  0  0  0  0  0  0
   21.4260   -6.0088  -15.5262 N   0  0  0  0  0  0  0  0  0  0  0  0
   21.8984   -4.8745  -13.4338 C   0  0  0  0  0  0  0  0  0  0  0  0
   20.6708   -4.8854  -13.1295 O   0  0  0  0  0  0  0  0  0  0  0  0
   22.7802   -4.4864  -12.4453 O   0  0  0  0  0  0  0  0  0  0  0  0
  1  2  1  0
  3  2  1  0
  4  5  1  0
  4  3  1  0
  5  1  1  0
  6  8  1  0
  5  6  1  1
  7  6  2  0
  9 13  1  0
  9  8  1  0
  9 10  1  1
 11 12  2  0
 11 10  1  0
 13 18  1  0
 14 13  2  0
 15 11  1  0
 17 16  1  6
 18 17  1  0
 19 17  1  0
 19 21  1  0
 20 19  2  0
M  END
$$$$
