NEM.pdb
     RDKit          3D

 26 25  0  0  1  0  0  0  0  0999 V2000
    9.0076  -13.5943   17.1732 N   0  0  0  0  0  0  0  0  0  0  0  0
    7.9759  -13.1771   18.0630 C   0  0  0  0  0  0  0  0  0  0  0  0
    7.2839  -12.1863   17.7571 O   0  0  0  0  0  0  0  0  0  0  0  0
    7.7635  -13.9360   19.3135 C   0  0  0  0  0  0  0  0  0  0  0  0
    8.7138  -15.0996   19.4253 C   0  0  2  0  0  0  0  0  0  0  0  0
    8.5866  -16.0823   18.3872 N   0  0  0  0  0  0  0  0  0  0  0  0
    8.7009  -15.7537   20.7431 C   0  0  0  0  0  0  0  0  0  0  0  0
    7.5896  -16.0429   21.2589 O   0  0  0  0  0  0  0  0  0  0  0  0
    9.8857  -16.0741   21.4562 N   0  0  0  0  0  0  0  0  0  0  0  0
    9.8908  -17.0257   22.6025 C   0  0  1  0  0  0  0  0  0  0  0  0
   10.9909  -18.0223   22.3668 C   0  0  0  0  0  0  0  0  0  0  0  0
   10.6748  -19.2048   21.5425 C   0  0  0  0  0  0  0  0  0  0  0  0
   11.2173  -20.4886   22.0559 C   0  0  0  0  0  0  0  0  0  0  0  0
   10.6230  -21.2107   22.8829 O   0  0  0  0  0  0  0  0  0  0  0  0
   10.0394  -16.1921   23.7991 C   0  0  0  0  0  0  0  0  0  0  0  0
   11.0625  -15.4256   23.8852 O   0  0  0  0  0  0  0  0  0  0  0  0
   12.4583  -20.9462   21.6098 O   0  0  0  0  0  0  0  0  0  0  0  0
    5.7539  -11.0805   25.5588 C   0  0  0  0  0  0  0  0  0  0  0  0
    6.2587  -12.5794   26.3619 S   0  0  0  0  0  0  0  0  0  0  0  0
    7.6434  -13.4497   25.6579 C   0  0  0  0  0  0  0  0  0  0  0  0
    8.0635  -14.6470   26.4409 C   0  0  0  0  0  0  0  0  0  0  0  0
    9.3312  -15.3056   26.0487 C   0  0  2  0  0  0  0  0  0  0  0  0
    9.1526  -16.1591   24.8661 N   0  0  0  0  0  0  0  0  0  0  0  0
    9.7401  -16.2693   27.1256 C   0  0  0  0  0  0  0  0  0  0  0  0
   10.3710  -15.8879   28.2853 O   0  0  0  0  0  0  0  0  0  0  0  0
    9.4918  -17.4837   26.9564 O   0  0  0  0  0  0  0  0  0  0  0  0
  2  1  1  0
  3  2  2  0
  4  2  1  0
  4  5  1  0
  5  7  1  0
  5  6  1  6
  7  8  2  0
  9  7  1  0
  9 10  1  0
 10 11  1  6
 11 12  1  0
 13 17  1  0
 13 12  1  0
 14 13  2  0
 15 10  1  0
 15 16  2  0
 18 19  1  0
 19 20  1  0
 20 21  1  0
 22 21  1  1
 22 23  1  0
 22 24  1  0
 23 15  1  0
 24 25  1  0
 26 24  2  0
M  END
$$$$
