NEM.pdb
     RDKit          3D

 26 25  0  0  1  0  0  0  0  0999 V2000
    9.1245  -13.2216   16.6380 N   0  0  0  0  0  0  0  0  0  0  0  0
    7.7687  -13.6214   16.8173 C   0  0  0  0  0  0  0  0  0  0  0  0
    7.0310  -13.7077   15.8159 O   0  0  0  0  0  0  0  0  0  0  0  0
    7.2887  -13.9207   18.1828 C   0  0  0  0  0  0  0  0  0  0  0  0
    8.3599  -13.6774   19.2138 C   0  0  2  0  0  0  0  0  0  0  0  0
    9.6913  -13.5803   18.6870 N   0  0  0  0  0  0  0  0  0  0  0  0
    8.3303  -14.6265   20.3376 C   0  0  0  0  0  0  0  0  0  0  0  0
    7.2990  -14.6721   21.0580 O   0  0  0  0  0  0  0  0  0  0  0  0
    9.4121  -15.4933   20.6431 N   0  0  0  0  0  0  0  0  0  0  0  0
    9.3628  -16.4566   21.7785 C   0  0  1  0  0  0  0  0  0  0  0  0
   10.3508  -17.5529   21.4937 C   0  0  0  0  0  0  0  0  0  0  0  0
   10.5418  -18.5852   22.5307 C   0  0  0  0  0  0  0  0  0  0  0  0
   11.5993  -19.5845   22.2316 C   0  0  0  0  0  0  0  0  0  0  0  0
   11.8397  -20.5756   22.9517 O   0  0  0  0  0  0  0  0  0  0  0  0
    9.6336  -15.6582   22.9777 C   0  0  0  0  0  0  0  0  0  0  0  0
   10.3719  -14.6173   22.8634 O   0  0  0  0  0  0  0  0  0  0  0  0
   12.3876  -19.4406   21.0887 O   0  0  0  0  0  0  0  0  0  0  0  0
    5.3052  -12.7544   26.5910 C   0  0  0  0  0  0  0  0  0  0  0  0
    6.9250  -12.2316   27.0900 S   0  0  0  0  0  0  0  0  0  0  0  0
    8.2390  -13.4260   26.9581 C   0  0  0  0  0  0  0  0  0  0  0  0
    8.2745  -14.1404   25.6499 C   0  0  0  0  0  0  0  0  0  0  0  0
    9.3960  -15.0803   25.4186 C   0  0  2  0  0  0  0  0  0  0  0  0
    9.1510  -15.9354   24.2490 N   0  0  0  0  0  0  0  0  0  0  0  0
    9.4690  -16.0519   26.5615 C   0  0  0  0  0  0  0  0  0  0  0  0
    9.9222  -15.7161   27.8147 O   0  0  0  0  0  0  0  0  0  0  0  0
    9.0966  -17.2291   26.3604 O   0  0  0  0  0  0  0  0  0  0  0  0
  2  1  1  0
  3  2  2  0
  4  2  1  0
  4  5  1  0
  5  7  1  0
  5  6  1  6
  7  8  2  0
  9  7  1  0
  9 10  1  0
 10 11  1  6
 11 12  1  0
 13 17  1  0
 13 12  1  0
 14 13  2  0
 15 10  1  0
 15 16  2  0
 18 19  1  0
 19 20  1  0
 20 21  1  0
 22 21  1  1
 22 23  1  0
 22 24  1  0
 23 15  1  0
 24 25  1  0
 26 24  2  0
M  END
$$$$
