NEM.pdb
     RDKit          3D

 26 25  0  0  1  0  0  0  0  0999 V2000
    7.6547  -17.3836   18.6441 N   0  0  0  0  0  0  0  0  0  0  0  0
    7.2181  -16.4912   19.6653 C   0  0  0  0  0  0  0  0  0  0  0  0
    6.4258  -15.5767   19.3648 O   0  0  0  0  0  0  0  0  0  0  0  0
    7.7189  -16.6845   21.0425 C   0  0  0  0  0  0  0  0  0  0  0  0
    8.8223  -17.7090   21.0936 C   0  0  2  0  0  0  0  0  0  0  0  0
    8.4376  -19.0287   20.6814 N   0  0  0  0  0  0  0  0  0  0  0  0
    9.5196  -17.7681   22.3877 C   0  0  0  0  0  0  0  0  0  0  0  0
    8.9031  -18.2348   23.3811 O   0  0  0  0  0  0  0  0  0  0  0  0
   10.8562  -17.3240   22.5640 N   0  0  0  0  0  0  0  0  0  0  0  0
   11.5777  -17.4686   23.8594 C   0  0  1  0  0  0  0  0  0  0  0  0
   13.0520  -17.4596   23.5673 C   0  0  0  0  0  0  0  0  0  0  0  0
   13.6298  -18.6626   22.9376 C   0  0  0  0  0  0  0  0  0  0  0  0
   15.0767  -18.5667   22.6158 C   0  0  0  0  0  0  0  0  0  0  0  0
   15.5553  -17.7350   21.8171 O   0  0  0  0  0  0  0  0  0  0  0  0
   11.0933  -16.3690   24.6990 C   0  0  0  0  0  0  0  0  0  0  0  0
   11.5713  -15.1963   24.5036 O   0  0  0  0  0  0  0  0  0  0  0  0
   15.9825  -19.4382   23.2226 O   0  0  0  0  0  0  0  0  0  0  0  0
    7.3494  -11.2349   25.9307 C   0  0  0  0  0  0  0  0  0  0  0  0
    6.7138  -12.7535   26.5911 S   0  0  0  0  0  0  0  0  0  0  0  0
    7.8884  -13.8741   27.3225 C   0  0  0  0  0  0  0  0  0  0  0  0
    8.4300  -14.8852   26.3700 C   0  0  0  0  0  0  0  0  0  0  0  0
    9.7945  -15.4010   26.6288 C   0  0  2  0  0  0  0  0  0  0  0  0
   10.1446  -16.4884   25.7049 N   0  0  0  0  0  0  0  0  0  0  0  0
    9.8259  -16.0567   27.9796 C   0  0  0  0  0  0  0  0  0  0  0  0
   10.1037  -17.3891   28.1697 O   0  0  0  0  0  0  0  0  0  0  0  0
    9.5866  -15.3508   28.9842 O   0  0  0  0  0  0  0  0  0  0  0  0
  2  1  1  0
  3  2  2  0
  4  2  1  0
  4  5  1  0
  5  7  1  0
  5  6  1  1
  7  8  2  0
  9  7  1  0
  9 10  1  0
 10 11  1  6
 11 12  1  0
 13 17  1  0
 13 12  1  0
 14 13  2  0
 15 10  1  0
 15 16  2  0
 18 19  1  0
 19 20  1  0
 20 21  1  0
 22 21  1  6
 22 23  1  0
 22 24  1  0
 23 15  1  0
 24 25  1  0
 26 24  2  0
M  END
$$$$
