NEM.pdb
     RDKit          3D

 26 25  0  0  1  0  0  0  0  0999 V2000
    9.5509  -14.8105   17.2237 N   0  0  0  0  0  0  0  0  0  0  0  0
    8.2579  -14.3507   16.8407 C   0  0  0  0  0  0  0  0  0  0  0  0
    7.8221  -14.6554   15.7131 O   0  0  0  0  0  0  0  0  0  0  0  0
    7.4812  -13.5320   17.7953 C   0  0  0  0  0  0  0  0  0  0  0  0
    8.2389  -13.3054   19.0775 C   0  0  2  0  0  0  0  0  0  0  0  0
    9.4829  -12.6060   18.9258 N   0  0  0  0  0  0  0  0  0  0  0  0
    8.4408  -14.5265   19.8728 C   0  0  0  0  0  0  0  0  0  0  0  0
    7.4529  -15.2790   20.0789 O   0  0  0  0  0  0  0  0  0  0  0  0
    9.7001  -14.8935   20.4155 N   0  0  0  0  0  0  0  0  0  0  0  0
    9.8768  -16.1032   21.2669 C   0  0  1  0  0  0  0  0  0  0  0  0
   11.0265  -16.8938   20.7082 C   0  0  0  0  0  0  0  0  0  0  0  0
   11.5944  -16.4537   19.4192 C   0  0  0  0  0  0  0  0  0  0  0  0
   12.7286  -17.2740   18.9225 C   0  0  0  0  0  0  0  0  0  0  0  0
   12.6608  -18.0158   17.9206 O   0  0  0  0  0  0  0  0  0  0  0  0
   10.0621  -15.5959   22.6296 C   0  0  0  0  0  0  0  0  0  0  0  0
   10.6521  -14.4693   22.7859 O   0  0  0  0  0  0  0  0  0  0  0  0
   13.9555  -17.2377   19.5870 O   0  0  0  0  0  0  0  0  0  0  0  0
    6.6823  -11.4861   27.5867 C   0  0  0  0  0  0  0  0  0  0  0  0
    6.9570  -12.5183   26.1706 S   0  0  0  0  0  0  0  0  0  0  0  0
    8.1738  -13.8083   26.3313 C   0  0  0  0  0  0  0  0  0  0  0  0
    8.4655  -14.5235   25.0560 C   0  0  0  0  0  0  0  0  0  0  0  0
    9.5116  -15.5719   25.0882 C   0  0  2  0  0  0  0  0  0  0  0  0
    9.6464  -16.2400   23.7865 N   0  0  0  0  0  0  0  0  0  0  0  0
    9.0771  -16.6741   26.0113 C   0  0  0  0  0  0  0  0  0  0  0  0
    9.3241  -16.6728   27.3631 O   0  0  0  0  0  0  0  0  0  0  0  0
    8.4569  -17.6440   25.5218 O   0  0  0  0  0  0  0  0  0  0  0  0
  2  1  1  0
  3  2  2  0
  4  2  1  0
  4  5  1  0
  5  7  1  0
  5  6  1  6
  7  8  2  0
  9  7  1  0
  9 10  1  0
 10 11  1  6
 11 12  1  0
 13 17  1  0
 13 12  1  0
 14 13  2  0
 15 10  1  0
 15 16  2  0
 18 19  1  0
 19 20  1  0
 20 21  1  0
 22 21  1  6
 22 23  1  0
 22 24  1  0
 23 15  1  0
 24 25  1  0
 26 24  2  0
M  END
$$$$
