NEM.pdb
     RDKit          3D

 26 25  0  0  1  0  0  0  0  0999 V2000
    6.4565  -13.6355   17.4939 N   0  0  0  0  0  0  0  0  0  0  0  0
    7.7777  -13.7821   18.0067 C   0  0  0  0  0  0  0  0  0  0  0  0
    8.4652  -14.7500   17.6263 O   0  0  0  0  0  0  0  0  0  0  0  0
    8.2839  -12.7802   18.9684 C   0  0  0  0  0  0  0  0  0  0  0  0
    9.4550  -13.3081   19.7554 C   0  0  2  0  0  0  0  0  0  0  0  0
   10.6083  -13.6404   18.9685 N   0  0  0  0  0  0  0  0  0  0  0  0
    9.1155  -14.4262   20.6494 C   0  0  0  0  0  0  0  0  0  0  0  0
    7.9791  -14.4382   21.1909 O   0  0  0  0  0  0  0  0  0  0  0  0
   10.0118  -15.4916   20.9258 N   0  0  0  0  0  0  0  0  0  0  0  0
    9.6934  -16.5631   21.9108 C   0  0  1  0  0  0  0  0  0  0  0  0
   10.4166  -17.8093   21.4831 C   0  0  0  0  0  0  0  0  0  0  0  0
   10.2665  -19.0092   22.3290 C   0  0  0  0  0  0  0  0  0  0  0  0
   11.0248  -20.1997   21.8665 C   0  0  0  0  0  0  0  0  0  0  0  0
   11.6772  -20.9443   22.6272 O   0  0  0  0  0  0  0  0  0  0  0  0
   10.0857  -16.0212   23.2150 C   0  0  0  0  0  0  0  0  0  0  0  0
   10.9211  -15.0502   23.2458 O   0  0  0  0  0  0  0  0  0  0  0  0
   11.0299  -20.5368   20.5120 O   0  0  0  0  0  0  0  0  0  0  0  0
    6.7332  -11.0412   27.2685 C   0  0  0  0  0  0  0  0  0  0  0  0
    7.0657  -12.2679   26.0312 S   0  0  0  0  0  0  0  0  0  0  0  0
    8.1906  -13.5769   26.4690 C   0  0  0  0  0  0  0  0  0  0  0  0
    8.5008  -14.5058   25.3447 C   0  0  0  0  0  0  0  0  0  0  0  0
    9.4477  -15.6119   25.6179 C   0  0  2  0  0  0  0  0  0  0  0  0
    9.6226  -16.4753   24.4420 N   0  0  0  0  0  0  0  0  0  0  0  0
    8.8517  -16.5283   26.6478 C   0  0  0  0  0  0  0  0  0  0  0  0
    8.4130  -17.8002   26.3682 O   0  0  0  0  0  0  0  0  0  0  0  0
    8.7505  -16.1100   27.8223 O   0  0  0  0  0  0  0  0  0  0  0  0
  2  1  1  0
  3  2  2  0
  4  2  1  0
  4  5  1  0
  5  7  1  0
  5  6  1  6
  7  8  2  0
  9  7  1  0
  9 10  1  0
 10 11  1  6
 11 12  1  0
 13 17  1  0
 13 12  1  0
 14 13  2  0
 15 10  1  0
 15 16  2  0
 18 19  1  0
 19 20  1  0
 20 21  1  0
 22 21  1  6
 22 23  1  0
 22 24  1  0
 23 15  1  0
 24 25  1  0
 26 24  2  0
M  END
$$$$
