NEM.pdb
     RDKit          3D

 26 25  0  0  1  0  0  0  0  0999 V2000
    7.5185  -12.1550   17.4650 N   0  0  0  0  0  0  0  0  0  0  0  0
    7.6562  -13.5729   17.4866 C   0  0  0  0  0  0  0  0  0  0  0  0
    7.9425  -14.1644   16.4271 O   0  0  0  0  0  0  0  0  0  0  0  0
    7.4567  -14.2888   18.7643 C   0  0  0  0  0  0  0  0  0  0  0  0
    8.6262  -14.1003   19.6951 C   0  0  2  0  0  0  0  0  0  0  0  0
    9.8857  -13.8831   19.0425 N   0  0  0  0  0  0  0  0  0  0  0  0
    8.7585  -15.1607   20.7063 C   0  0  0  0  0  0  0  0  0  0  0  0
    7.7283  -15.5274   21.3300 O   0  0  0  0  0  0  0  0  0  0  0  0
    9.9954  -15.7886   21.0075 N   0  0  0  0  0  0  0  0  0  0  0  0
   10.1263  -16.8129   22.0813 C   0  0  1  0  0  0  0  0  0  0  0  0
   11.3713  -17.6090   21.8070 C   0  0  0  0  0  0  0  0  0  0  0  0
   11.2032  -18.9842   21.2987 C   0  0  0  0  0  0  0  0  0  0  0  0
   11.9050  -20.0316   22.0840 C   0  0  0  0  0  0  0  0  0  0  0  0
   11.6188  -21.2457   22.0310 O   0  0  0  0  0  0  0  0  0  0  0  0
   10.1222  -16.0602   23.3391 C   0  0  0  0  0  0  0  0  0  0  0  0
   10.5447  -14.8506   23.3273 O   0  0  0  0  0  0  0  0  0  0  0  0
   12.9495  -19.6759   22.9388 O   0  0  0  0  0  0  0  0  0  0  0  0
    7.0177  -11.0868   26.5883 C   0  0  0  0  0  0  0  0  0  0  0  0
    6.5771  -12.7497   26.1559 S   0  0  0  0  0  0  0  0  0  0  0  0
    7.7069  -14.0391   26.6370 C   0  0  0  0  0  0  0  0  0  0  0  0
    8.1867  -14.8749   25.4993 C   0  0  0  0  0  0  0  0  0  0  0  0
    9.3957  -15.7008   25.7247 C   0  0  2  0  0  0  0  0  0  0  0  0
    9.6924  -16.5513   24.5639 N   0  0  0  0  0  0  0  0  0  0  0  0
    9.1228  -16.6841   26.8267 C   0  0  0  0  0  0  0  0  0  0  0  0
    9.3835  -16.4300   28.1518 O   0  0  0  0  0  0  0  0  0  0  0  0
    8.6316  -17.7930   26.5202 O   0  0  0  0  0  0  0  0  0  0  0  0
  2  1  1  0
  3  2  2  0
  4  2  1  0
  4  5  1  0
  5  7  1  0
  5  6  1  6
  7  8  2  0
  9  7  1  0
  9 10  1  0
 10 11  1  6
 11 12  1  0
 13 17  1  0
 13 12  1  0
 14 13  2  0
 15 10  1  0
 15 16  2  0
 18 19  1  0
 19 20  1  0
 20 21  1  0
 22 21  1  6
 22 23  1  0
 22 24  1  0
 23 15  1  0
 24 25  1  0
 26 24  2  0
M  END
$$$$
