NEM.pdb
     RDKit          3D

 26 25  0  0  1  0  0  0  0  0999 V2000
    8.4787  -14.4709   17.8179 N   0  0  0  0  0  0  0  0  0  0  0  0
    7.6699  -14.1090   18.9336 C   0  0  0  0  0  0  0  0  0  0  0  0
    6.9448  -13.0986   18.8467 O   0  0  0  0  0  0  0  0  0  0  0  0
    7.7192  -14.9462   20.1508 C   0  0  0  0  0  0  0  0  0  0  0  0
    8.7117  -16.0709   20.0114 C   0  0  2  0  0  0  0  0  0  0  0  0
    8.2605  -17.1765   19.2153 N   0  0  0  0  0  0  0  0  0  0  0  0
    9.2436  -16.5571   21.2941 C   0  0  0  0  0  0  0  0  0  0  0  0
    8.4742  -17.1937   22.0606 O   0  0  0  0  0  0  0  0  0  0  0  0
   10.5856  -16.3415   21.7034 N   0  0  0  0  0  0  0  0  0  0  0  0
   11.1523  -16.9661   22.9315 C   0  0  1  0  0  0  0  0  0  0  0  0
   12.6480  -16.9921   22.7850 C   0  0  0  0  0  0  0  0  0  0  0  0
   13.4400  -17.4286   23.9510 C   0  0  0  0  0  0  0  0  0  0  0  0
   14.9108  -17.4291   23.7437 C   0  0  0  0  0  0  0  0  0  0  0  0
   15.6234  -18.4499   23.8376 O   0  0  0  0  0  0  0  0  0  0  0  0
   10.6407  -16.1644   24.0469 C   0  0  0  0  0  0  0  0  0  0  0  0
   10.7409  -14.8889   23.9775 O   0  0  0  0  0  0  0  0  0  0  0  0
   15.5674  -16.2400   23.4231 O   0  0  0  0  0  0  0  0  0  0  0  0
    6.1538  -11.5808   25.7136 C   0  0  0  0  0  0  0  0  0  0  0  0
    6.4414  -13.3231   25.8803 S   0  0  0  0  0  0  0  0  0  0  0  0
    8.1342  -13.8548   26.0299 C   0  0  0  0  0  0  0  0  0  0  0  0
    8.2893  -15.3260   26.2157 C   0  0  0  0  0  0  0  0  0  0  0  0
    9.6673  -15.8530   26.3499 C   0  0  2  0  0  0  0  0  0  0  0  0
   10.0459  -16.6748   25.1922 N   0  0  0  0  0  0  0  0  0  0  0  0
    9.7174  -16.8153   27.5019 C   0  0  0  0  0  0  0  0  0  0  0  0
    9.6618  -16.4258   28.8185 O   0  0  0  0  0  0  0  0  0  0  0  0
    9.8144  -18.0363   27.2474 O   0  0  0  0  0  0  0  0  0  0  0  0
  2  1  1  0
  3  2  2  0
  4  2  1  0
  4  5  1  0
  5  7  1  0
  5  6  1  1
  7  8  2  0
  9  7  1  0
  9 10  1  0
 10 11  1  6
 11 12  1  0
 13 17  1  0
 13 12  1  0
 14 13  2  0
 15 10  1  0
 15 16  2  0
 18 19  1  0
 19 20  1  0
 20 21  1  0
 22 21  1  6
 22 23  1  0
 22 24  1  0
 23 15  1  0
 24 25  1  0
 26 24  2  0
M  END
$$$$
