NEM.pdb
     RDKit          3D

 26 25  0  0  1  0  0  0  0  0999 V2000
    8.5876  -11.9134   18.0869 N   0  0  0  0  0  0  0  0  0  0  0  0
    8.3128  -13.3101   18.0246 C   0  0  0  0  0  0  0  0  0  0  0  0
    8.4042  -13.8913   16.9255 O   0  0  0  0  0  0  0  0  0  0  0  0
    7.9320  -14.0174   19.2654 C   0  0  0  0  0  0  0  0  0  0  0  0
    8.4698  -15.4244   19.2900 C   0  0  2  0  0  0  0  0  0  0  0  0
    7.8129  -16.3356   18.3968 N   0  0  0  0  0  0  0  0  0  0  0  0
    8.5474  -16.0080   20.6383 C   0  0  0  0  0  0  0  0  0  0  0  0
    7.5345  -15.9371   21.3824 O   0  0  0  0  0  0  0  0  0  0  0  0
    9.7128  -16.6484   21.1351 N   0  0  0  0  0  0  0  0  0  0  0  0
    9.7558  -17.2895   22.4792 C   0  0  1  0  0  0  0  0  0  0  0  0
   10.9311  -18.2260   22.5037 C   0  0  0  0  0  0  0  0  0  0  0  0
   11.2028  -18.9468   23.7624 C   0  0  0  0  0  0  0  0  0  0  0  0
   12.4500  -19.7533   23.7650 C   0  0  0  0  0  0  0  0  0  0  0  0
   12.5470  -20.8777   24.2988 O   0  0  0  0  0  0  0  0  0  0  0  0
    9.8112  -16.1812   23.4370 C   0  0  0  0  0  0  0  0  0  0  0  0
   10.4799  -15.1349   23.1209 O   0  0  0  0  0  0  0  0  0  0  0  0
   13.5981  -19.2590   23.1439 O   0  0  0  0  0  0  0  0  0  0  0  0
    6.1144  -11.0425   27.8605 C   0  0  0  0  0  0  0  0  0  0  0  0
    6.3078  -12.3990   26.7340 S   0  0  0  0  0  0  0  0  0  0  0  0
    7.8848  -13.2256   26.7234 C   0  0  0  0  0  0  0  0  0  0  0  0
    8.0034  -14.2837   25.6797 C   0  0  0  0  0  0  0  0  0  0  0  0
    9.2766  -15.0385   25.6180 C   0  0  2  0  0  0  0  0  0  0  0  0
    9.1911  -16.1650   24.6785 N   0  0  0  0  0  0  0  0  0  0  0  0
    9.5235  -15.6984   26.9443 C   0  0  0  0  0  0  0  0  0  0  0  0
   10.1163  -15.0631   28.0089 O   0  0  0  0  0  0  0  0  0  0  0  0
    9.1695  -16.8899   27.0859 O   0  0  0  0  0  0  0  0  0  0  0  0
  2  1  1  0
  3  2  2  0
  4  2  1  0
  4  5  1  0
  5  7  1  0
  5  6  1  6
  7  8  2  0
  9  7  1  0
  9 10  1  0
 10 11  1  6
 11 12  1  0
 13 17  1  0
 13 12  1  0
 14 13  2  0
 15 10  1  0
 15 16  2  0
 18 19  1  0
 19 20  1  0
 20 21  1  0
 22 21  1  1
 22 23  1  0
 22 24  1  0
 23 15  1  0
 24 25  1  0
 26 24  2  0
M  END
$$$$
