NEM.pdb
     RDKit          3D

 26 25  0  0  1  0  0  0  0  0999 V2000
    7.6892  -14.9996   15.0409 N   0  0  0  0  0  0  0  0  0  0  0  0
    7.8617  -14.0513   16.0902 C   0  0  0  0  0  0  0  0  0  0  0  0
    8.3932  -12.9548   15.8268 O   0  0  0  0  0  0  0  0  0  0  0  0
    7.4022  -14.4024   17.4505 C   0  0  0  0  0  0  0  0  0  0  0  0
    8.5067  -14.2569   18.4646 C   0  0  2  0  0  0  0  0  0  0  0  0
    9.8215  -14.5477   17.9684 N   0  0  0  0  0  0  0  0  0  0  0  0
    8.2659  -14.9923   19.7159 C   0  0  0  0  0  0  0  0  0  0  0  0
    7.1076  -14.9761   20.2085 O   0  0  0  0  0  0  0  0  0  0  0  0
    9.2814  -15.7201   20.3899 N   0  0  0  0  0  0  0  0  0  0  0  0
    8.9910  -16.5859   21.5669 C   0  0  1  0  0  0  0  0  0  0  0  0
    9.9498  -17.7429   21.5334 C   0  0  0  0  0  0  0  0  0  0  0  0
    9.7872  -18.7323   20.4506 C   0  0  0  0  0  0  0  0  0  0  0  0
   10.7758  -19.8407   20.4622 C   0  0  0  0  0  0  0  0  0  0  0  0
   11.8563  -19.8121   19.8375 O   0  0  0  0  0  0  0  0  0  0  0  0
    9.1033  -15.7061   22.7339 C   0  0  0  0  0  0  0  0  0  0  0  0
    9.7670  -14.6165   22.6146 O   0  0  0  0  0  0  0  0  0  0  0  0
   10.5168  -20.9947   21.2034 O   0  0  0  0  0  0  0  0  0  0  0  0
    6.7363  -10.7074   26.8882 C   0  0  0  0  0  0  0  0  0  0  0  0
    7.2579  -11.9825   25.7710 S   0  0  0  0  0  0  0  0  0  0  0  0
    6.2218  -13.4253   25.6467 C   0  0  0  0  0  0  0  0  0  0  0  0
    6.7552  -14.4728   24.7295 C   0  0  0  0  0  0  0  0  0  0  0  0
    8.1609  -14.8971   24.9261 C   0  0  2  0  0  0  0  0  0  0  0  0
    8.5432  -15.9536   23.9793 N   0  0  0  0  0  0  0  0  0  0  0  0
    8.2939  -15.5564   26.2690 C   0  0  0  0  0  0  0  0  0  0  0  0
    8.7192  -14.8987   27.3981 O   0  0  0  0  0  0  0  0  0  0  0  0
    8.0009  -16.7690   26.3628 O   0  0  0  0  0  0  0  0  0  0  0  0
  2  1  1  0
  3  2  2  0
  4  2  1  0
  4  5  1  0
  5  7  1  0
  5  6  1  6
  7  8  2  0
  9  7  1  0
  9 10  1  0
 10 11  1  1
 11 12  1  0
 13 17  1  0
 13 12  1  0
 14 13  2  0
 15 10  1  0
 15 16  2  0
 18 19  1  0
 19 20  1  0
 20 21  1  0
 22 21  1  6
 22 23  1  0
 22 24  1  0
 23 15  1  0
 24 25  1  0
 26 24  2  0
M  END
$$$$
