NEM.pdb
     RDKit          3D

 26 25  0  0  1  0  0  0  0  0999 V2000
    7.2210  -14.1249   16.3961 N   0  0  0  0  0  0  0  0  0  0  0  0
    8.2622  -14.0811   17.3677 C   0  0  0  0  0  0  0  0  0  0  0  0
    9.1523  -14.9534   17.3335 O   0  0  0  0  0  0  0  0  0  0  0  0
    8.2491  -13.0021   18.3779 C   0  0  0  0  0  0  0  0  0  0  0  0
    9.3548  -13.1725   19.3869 C   0  0  2  0  0  0  0  0  0  0  0  0
   10.6727  -13.2631   18.8260 N   0  0  0  0  0  0  0  0  0  0  0  0
    9.1321  -14.2775   20.3323 C   0  0  0  0  0  0  0  0  0  0  0  0
    8.0067  -14.3749   20.8878 O   0  0  0  0  0  0  0  0  0  0  0  0
   10.1295  -15.2386   20.6434 N   0  0  0  0  0  0  0  0  0  0  0  0
    9.8995  -16.3328   21.6279 C   0  0  1  0  0  0  0  0  0  0  0  0
   10.9461  -17.3863   21.3961 C   0  0  0  0  0  0  0  0  0  0  0  0
   10.8516  -18.1802   20.1557 C   0  0  0  0  0  0  0  0  0  0  0  0
   12.0200  -19.0558   19.8826 C   0  0  0  0  0  0  0  0  0  0  0  0
   12.6288  -19.6944   20.7660 O   0  0  0  0  0  0  0  0  0  0  0  0
    9.9345  -15.6862   22.9429 C   0  0  0  0  0  0  0  0  0  0  0  0
   10.9445  -14.9542   23.2359 O   0  0  0  0  0  0  0  0  0  0  0  0
   12.4910  -19.1982   18.5765 O   0  0  0  0  0  0  0  0  0  0  0  0
    6.0303  -11.1404   27.8635 C   0  0  0  0  0  0  0  0  0  0  0  0
    6.2603  -12.1666   26.4351 S   0  0  0  0  0  0  0  0  0  0  0  0
    7.5472  -13.3945   26.5177 C   0  0  0  0  0  0  0  0  0  0  0  0
    7.7918  -14.0985   25.2264 C   0  0  0  0  0  0  0  0  0  0  0  0
    8.9472  -15.0235   25.1643 C   0  0  2  0  0  0  0  0  0  0  0  0
    8.9515  -15.7988   23.9161 N   0  0  0  0  0  0  0  0  0  0  0  0
    8.8002  -16.0688   26.2327 C   0  0  0  0  0  0  0  0  0  0  0  0
    8.6725  -17.4112   25.9681 O   0  0  0  0  0  0  0  0  0  0  0  0
    8.7943  -15.6956   27.4267 O   0  0  0  0  0  0  0  0  0  0  0  0
  2  1  1  0
  3  2  2  0
  4  2  1  0
  4  5  1  0
  5  7  1  0
  5  6  1  6
  7  8  2  0
  9  7  1  0
  9 10  1  0
 10 11  1  1
 11 12  1  0
 13 17  1  0
 13 12  1  0
 14 13  2  0
 15 10  1  0
 15 16  2  0
 18 19  1  0
 19 20  1  0
 20 21  1  0
 22 21  1  6
 22 23  1  0
 22 24  1  0
 23 15  1  0
 24 25  1  0
 26 24  2  0
M  END
$$$$
