NEM.pdb
     RDKit          3D

 26 25  0  0  1  0  0  0  0  0999 V2000
    7.2505  -15.8157   15.8916 N   0  0  0  0  0  0  0  0  0  0  0  0
    7.4065  -14.6509   16.6972 C   0  0  0  0  0  0  0  0  0  0  0  0
    7.7121  -13.5757   16.1451 O   0  0  0  0  0  0  0  0  0  0  0  0
    7.1979  -14.7607   18.1564 C   0  0  0  0  0  0  0  0  0  0  0  0
    8.5004  -14.6932   18.9103 C   0  0  2  0  0  0  0  0  0  0  0  0
    9.6472  -15.1385   18.1713 N   0  0  0  0  0  0  0  0  0  0  0  0
    8.4613  -15.3516   20.2254 C   0  0  0  0  0  0  0  0  0  0  0  0
    7.4652  -15.1502   20.9683 O   0  0  0  0  0  0  0  0  0  0  0  0
    9.4959  -16.2045   20.6915 N   0  0  0  0  0  0  0  0  0  0  0  0
    9.3979  -16.9407   21.9830 C   0  0  1  0  0  0  0  0  0  0  0  0
   10.4415  -18.0223   21.9751 C   0  0  0  0  0  0  0  0  0  0  0  0
   10.5850  -18.8405   23.1948 C   0  0  0  0  0  0  0  0  0  0  0  0
   11.6970  -19.8246   23.1609 C   0  0  0  0  0  0  0  0  0  0  0  0
   12.4586  -19.9762   22.1833 O   0  0  0  0  0  0  0  0  0  0  0  0
    9.5529  -15.9210   23.0244 C   0  0  0  0  0  0  0  0  0  0  0  0
   10.4127  -14.9887   22.8420 O   0  0  0  0  0  0  0  0  0  0  0  0
   11.9348  -20.6423   24.2668 O   0  0  0  0  0  0  0  0  0  0  0  0
    6.0815  -10.7654   27.6917 C   0  0  0  0  0  0  0  0  0  0  0  0
    6.2359  -11.9894   26.4173 S   0  0  0  0  0  0  0  0  0  0  0  0
    7.7123  -12.9847   26.4237 C   0  0  0  0  0  0  0  0  0  0  0  0
    7.7875  -13.9581   25.2968 C   0  0  0  0  0  0  0  0  0  0  0  0
    8.9927  -14.8160   25.2184 C   0  0  2  0  0  0  0  0  0  0  0  0
    8.8366  -15.8753   24.2122 N   0  0  0  0  0  0  0  0  0  0  0  0
    9.1465  -15.5694   26.5085 C   0  0  0  0  0  0  0  0  0  0  0  0
    9.0778  -16.9389   26.5999 O   0  0  0  0  0  0  0  0  0  0  0  0
    9.3481  -14.9138   27.5546 O   0  0  0  0  0  0  0  0  0  0  0  0
  2  1  1  0
  3  2  2  0
  4  2  1  0
  4  5  1  0
  5  7  1  0
  5  6  1  6
  7  8  2  0
  9  7  1  0
  9 10  1  0
 10 11  1  6
 11 12  1  0
 13 17  1  0
 13 12  1  0
 14 13  2  0
 15 10  1  0
 15 16  2  0
 18 19  1  0
 19 20  1  0
 20 21  1  0
 22 21  1  1
 22 23  1  0
 22 24  1  0
 23 15  1  0
 24 25  1  0
 26 24  2  0
M  END
$$$$
