PYW.pdb
     RDKit          3D

 34 37  0  0  1  0  0  0  0  0999 V2000
   12.4299  -19.7479    5.3219 N   0  0  0  0  0  0  0  0  0  0  0  0
   11.5342  -20.7900    4.8823 C   0  0  0  0  0  0  0  0  0  0  0  0
   11.6212  -21.9101    5.8827 C   0  0  0  0  0  0  0  0  0  0  0  0
   11.8568  -21.1155    7.1721 C   0  0  0  0  0  0  0  0  0  0  0  0
   12.6766  -19.9181    6.7242 C   0  0  1  0  0  0  0  0  0  0  0  0
   14.1163  -20.2006    6.9580 C   0  0  0  0  0  0  0  0  0  0  0  0
   14.5341  -20.3452    8.1350 O   0  0  0  0  0  0  0  0  0  0  0  0
   15.1125  -21.5340   -0.1438 O   0  0  0  0  0  0  0  0  0  0  0  0
   15.5704  -21.5833    1.1883 C   0  0  0  0  0  0  0  0  0  0  0  0
   16.7375  -20.9725    1.5647 C   0  0  0  0  0  0  0  0  0  0  0  0
   17.1871  -21.0240    2.8868 C   0  0  0  0  0  0  0  0  0  0  0  0
   16.4721  -21.6905    3.8550 C   0  0  0  0  0  0  0  0  0  0  0  0
   16.9511  -21.7362    5.2257 C   0  0  0  0  0  0  0  0  0  0  0  0
   16.4537  -20.6065    6.0931 C   0  0  2  0  0  0  0  0  0  0  0  0
   15.0668  -20.3197    5.9170 N   0  0  0  0  0  0  0  0  0  0  0  0
   17.2875  -19.4128    5.9405 C   0  0  0  0  0  0  0  0  0  0  0  0
   18.5559  -19.5467    6.0392 O   0  0  0  0  0  0  0  0  0  0  0  0
   15.3064  -22.2952    3.4560 C   0  0  0  0  0  0  0  0  0  0  0  0
   14.8465  -22.2552    2.1571 C   0  0  0  0  0  0  0  0  0  0  0  0
   16.7564  -18.1267    5.6899 N   0  0  0  0  0  0  0  0  0  0  0  0
   17.6310  -16.9406    5.6666 C   0  0  1  0  0  0  0  0  0  0  0  0
   16.8959  -15.9024    4.9156 C   0  0  0  0  0  0  0  0  0  0  0  0
   17.6972  -14.7191    4.5614 C   0  0  0  0  0  0  0  0  0  0  0  0
   17.9180  -14.2295    3.2621 C   0  0  0  0  0  0  0  0  0  0  0  0
   18.7267  -13.1628    3.3054 N   0  0  0  0  0  0  0  0  0  0  0  0
   19.0600  -12.9134    4.5912 C   0  0  0  0  0  0  0  0  0  0  0  0
   19.8387  -11.9406    5.2024 C   0  0  0  0  0  0  0  0  0  0  0  0
   19.9871  -11.9164    6.5743 C   0  0  0  0  0  0  0  0  0  0  0  0
   19.3669  -12.8541    7.3541 C   0  0  0  0  0  0  0  0  0  0  0  0
   18.5954  -13.8197    6.7509 C   0  0  0  0  0  0  0  0  0  0  0  0
   18.4386  -13.8552    5.3687 C   0  0  0  0  0  0  0  0  0  0  0  0
   18.0094  -16.5254    7.0114 C   0  0  0  0  0  0  0  0  0  0  0  0
   19.3691  -16.2882    7.2601 O   0  0  0  0  0  0  0  0  0  0  0  0
   17.2005  -16.3680    7.9544 O   0  0  0  0  0  0  0  0  0  0  0  0
  1  2  1  0
  3  2  1  0
  4  5  1  0
  4  3  1  0
  5  6  1  6
  5  1  1  0
  6  7  2  0
  8  9  1  0
  9 19  2  0
  9 10  1  0
 10 11  2  0
 11 12  1  0
 12 13  1  0
 14 13  1  6
 15 14  1  0
 15  6  1  0
 16 14  1  0
 16 17  2  0
 18 12  2  0
 19 18  1  0
 20 16  1  0
 21 20  1  0
 21 32  1  0
 21 22  1  1
 23 22  1  0
 24 23  2  0
 25 26  1  0
 25 24  1  0
 26 31  2  0
 27 26  1  0
 27 28  2  0
 28 29  1  0
 29 30  2  0
 31 23  1  0
 31 30  1  0
 32 33  1  0
 34 32  2  0
M  END
$$$$
