PYW.pdb
     RDKit          3D

 34 37  0  0  1  0  0  0  0  0999 V2000
   26.6351  -22.3680  -16.7571 N   0  0  0  0  0  0  0  0  0  0  0  0
   26.5420  -21.7197  -18.0427 C   0  0  0  0  0  0  0  0  0  0  0  0
   27.6565  -20.7123  -18.1206 C   0  0  0  0  0  0  0  0  0  0  0  0
   28.7419  -21.4333  -17.3135 C   0  0  0  0  0  0  0  0  0  0  0  0
   27.9681  -22.2008  -16.2559 C   0  0  1  0  0  0  0  0  0  0  0  0
   27.9448  -21.4073  -15.0000 C   0  0  0  0  0  0  0  0  0  0  0  0
   29.0283  -21.1214  -14.4299 O   0  0  0  0  0  0  0  0  0  0  0  0
   27.8233  -15.9017  -17.9370 O   0  0  0  0  0  0  0  0  0  0  0  0
   27.3680  -16.6260  -16.8167 C   0  0  0  0  0  0  0  0  0  0  0  0
   28.1246  -16.7311  -15.6795 C   0  0  0  0  0  0  0  0  0  0  0  0
   27.6686  -17.4500  -14.5713 C   0  0  0  0  0  0  0  0  0  0  0  0
   26.4439  -18.0766  -14.5858 C   0  0  0  0  0  0  0  0  0  0  0  0
   25.9821  -18.8208  -13.4267 C   0  0  0  0  0  0  0  0  0  0  0  0
   26.6863  -20.1382  -13.2162 C   0  0  2  0  0  0  0  0  0  0  0  0
   26.7543  -20.9434  -14.3926 N   0  0  0  0  0  0  0  0  0  0  0  0
   26.1199  -20.8679  -12.0804 C   0  0  0  0  0  0  0  0  0  0  0  0
   25.0602  -21.5575  -12.2749 O   0  0  0  0  0  0  0  0  0  0  0  0
   25.7029  -17.9585  -15.7350 C   0  0  0  0  0  0  0  0  0  0  0  0
   26.1353  -17.2537  -16.8379 C   0  0  0  0  0  0  0  0  0  0  0  0
   26.6889  -20.8448  -10.7864 N   0  0  0  0  0  0  0  0  0  0  0  0
   26.0264  -21.5242   -9.6585 C   0  0  1  0  0  0  0  0  0  0  0  0
   27.0676  -21.7235   -8.6297 C   0  0  0  0  0  0  0  0  0  0  0  0
   27.3276  -20.5462   -7.7847 C   0  0  0  0  0  0  0  0  0  0  0  0
   26.9064  -19.2309   -8.0480 C   0  0  0  0  0  0  0  0  0  0  0  0
   27.3528  -18.4064   -7.0916 N   0  0  0  0  0  0  0  0  0  0  0  0
   28.0614  -19.1202   -6.1889 C   0  0  0  0  0  0  0  0  0  0  0  0
   28.7186  -18.7853   -5.0132 C   0  0  0  0  0  0  0  0  0  0  0  0
   29.3560  -19.7522   -4.2626 C   0  0  0  0  0  0  0  0  0  0  0  0
   29.3495  -21.0590   -4.6680 C   0  0  0  0  0  0  0  0  0  0  0  0
   28.6998  -21.3934   -5.8332 C   0  0  0  0  0  0  0  0  0  0  0  0
   28.0541  -20.4276   -6.5991 C   0  0  0  0  0  0  0  0  0  0  0  0
   24.8741  -20.7713   -9.1796 C   0  0  0  0  0  0  0  0  0  0  0  0
   24.6612  -19.4949   -9.7201 O   0  0  0  0  0  0  0  0  0  0  0  0
   24.0659  -21.1907   -8.3197 O   0  0  0  0  0  0  0  0  0  0  0  0
  1  2  1  0
  3  2  1  0
  4  5  1  0
  4  3  1  0
  5  6  1  1
  5  1  1  0
  6  7  2  0
  8  9  1  0
  9 19  2  0
  9 10  1  0
 10 11  2  0
 11 12  1  0
 12 13  1  0
 14 13  1  6
 15 14  1  0
 15  6  1  0
 16 14  1  0
 16 17  2  0
 18 12  2  0
 19 18  1  0
 20 16  1  0
 21 20  1  0
 21 32  1  0
 21 22  1  1
 23 22  1  0
 24 23  2  0
 25 26  1  0
 25 24  1  0
 26 31  2  0
 27 26  1  0
 27 28  2  0
 28 29  1  0
 29 30  2  0
 31 23  1  0
 31 30  1  0
 32 33  1  0
 34 32  2  0
M  END
$$$$
