PYW.pdb
     RDKit          3D

 34 37  0  0  1  0  0  0  0  0999 V2000
   28.4764  -21.1093  -17.6273 N   0  0  0  0  0  0  0  0  0  0  0  0
   29.9057  -21.2320  -17.4740 C   0  0  0  0  0  0  0  0  0  0  0  0
   30.1719  -22.5257  -16.7539 C   0  0  0  0  0  0  0  0  0  0  0  0
   29.0330  -23.3913  -17.3044 C   0  0  0  0  0  0  0  0  0  0  0  0
   27.8900  -22.4125  -17.5092 C   0  0  1  0  0  0  0  0  0  0  0  0
   26.9909  -22.4619  -16.3275 C   0  0  0  0  0  0  0  0  0  0  0  0
   26.4218  -23.5427  -16.0293 O   0  0  0  0  0  0  0  0  0  0  0  0
   23.3746  -21.1438   -8.4208 O   0  0  0  0  0  0  0  0  0  0  0  0
   24.1459  -21.0273   -9.5948 C   0  0  0  0  0  0  0  0  0  0  0  0
   23.6895  -20.3297  -10.6819 C   0  0  0  0  0  0  0  0  0  0  0  0
   24.4582  -20.2167  -11.8434 C   0  0  0  0  0  0  0  0  0  0  0  0
   25.6995  -20.8029  -11.9338 C   0  0  0  0  0  0  0  0  0  0  0  0
   26.4881  -20.6777  -13.1474 C   0  0  0  0  0  0  0  0  0  0  0  0
   25.8781  -21.3473  -14.3538 C   0  0  2  0  0  0  0  0  0  0  0  0
   26.7294  -21.3453  -15.4992 N   0  0  0  0  0  0  0  0  0  0  0  0
   24.5525  -20.8015  -14.6509 C   0  0  0  0  0  0  0  0  0  0  0  0
   24.4840  -19.6377  -15.1776 O   0  0  0  0  0  0  0  0  0  0  0  0
   26.1368  -21.4969  -10.8334 C   0  0  0  0  0  0  0  0  0  0  0  0
   25.3935  -21.6192   -9.6789 C   0  0  0  0  0  0  0  0  0  0  0  0
   23.3523  -21.4993  -14.3838 N   0  0  0  0  0  0  0  0  0  0  0  0
   22.0436  -20.8955  -14.6924 C   0  0  1  0  0  0  0  0  0  0  0  0
   21.9879  -20.7642  -16.1627 C   0  0  0  0  0  0  0  0  0  0  0  0
   22.0194  -22.0418  -16.8938 C   0  0  0  0  0  0  0  0  0  0  0  0
   21.4175  -23.2441  -16.4827 C   0  0  0  0  0  0  0  0  0  0  0  0
   21.6808  -24.2145  -17.3675 N   0  0  0  0  0  0  0  0  0  0  0  0
   22.4403  -23.7088  -18.3644 C   0  0  0  0  0  0  0  0  0  0  0  0
   22.9744  -24.2515  -19.5248 C   0  0  0  0  0  0  0  0  0  0  0  0
   23.7104  -23.4714  -20.3934 C   0  0  0  0  0  0  0  0  0  0  0  0
   23.9250  -22.1476  -20.1222 C   0  0  0  0  0  0  0  0  0  0  0  0
   23.3976  -21.6075  -18.9726 C   0  0  0  0  0  0  0  0  0  0  0  0
   22.6544  -22.3837  -18.0885 C   0  0  0  0  0  0  0  0  0  0  0  0
   20.9465  -21.6784  -14.1378 C   0  0  0  0  0  0  0  0  0  0  0  0
   21.2699  -22.8672  -13.4679 O   0  0  0  0  0  0  0  0  0  0  0  0
   19.7389  -21.3575  -14.2215 O   0  0  0  0  0  0  0  0  0  0  0  0
  1  2  1  0
  3  2  1  0
  4  5  1  0
  4  3  1  0
  5  6  1  1
  5  1  1  0
  6  7  2  0
  8  9  1  0
  9 19  2  0
  9 10  1  0
 10 11  2  0
 11 12  1  0
 12 13  1  0
 14 13  1  1
 15 14  1  0
 15  6  1  0
 16 14  1  0
 16 17  2  0
 18 12  2  0
 19 18  1  0
 20 16  1  0
 21 20  1  0
 21 32  1  0
 21 22  1  6
 23 22  1  0
 24 23  2  0
 25 26  1  0
 25 24  1  0
 26 31  2  0
 27 26  1  0
 27 28  2  0
 28 29  1  0
 29 30  2  0
 31 23  1  0
 31 30  1  0
 32 33  1  0
 34 32  2  0
M  END
$$$$
