PYW.pdb
     RDKit          3D

 34 37  0  0  1  0  0  0  0  0999 V2000
   16.2077  -20.7253    1.9249 N   0  0  0  0  0  0  0  0  0  0  0  0
   16.5426  -20.0280    0.7070 C   0  0  0  0  0  0  0  0  0  0  0  0
   17.5933  -19.0066    1.0474 C   0  0  0  0  0  0  0  0  0  0  0  0
   18.3558  -19.7473    2.1515 C   0  0  0  0  0  0  0  0  0  0  0  0
   17.2864  -20.5639    2.8558 C   0  0  1  0  0  0  0  0  0  0  0  0
   16.8187  -19.8208    4.0542 C   0  0  0  0  0  0  0  0  0  0  0  0
   15.9255  -18.9449    3.9281 O   0  0  0  0  0  0  0  0  0  0  0  0
   11.8260  -23.2501    5.5377 O   0  0  0  0  0  0  0  0  0  0  0  0
   12.9222  -22.5178    6.0366 C   0  0  0  0  0  0  0  0  0  0  0  0
   12.7705  -21.2426    6.5137 C   0  0  0  0  0  0  0  0  0  0  0  0
   13.8603  -20.5208    7.0076 C   0  0  0  0  0  0  0  0  0  0  0  0
   15.1228  -21.0672    7.0309 C   0  0  0  0  0  0  0  0  0  0  0  0
   16.2470  -20.3056    7.5471 C   0  0  0  0  0  0  0  0  0  0  0  0
   16.8819  -19.3794    6.5397 C   0  0  2  0  0  0  0  0  0  0  0  0
   17.3262  -20.0416    5.3562 N   0  0  0  0  0  0  0  0  0  0  0  0
   17.9404  -18.5741    7.1515 C   0  0  0  0  0  0  0  0  0  0  0  0
   19.1437  -19.0016    7.0751 O   0  0  0  0  0  0  0  0  0  0  0  0
   15.2518  -22.3455    6.5481 C   0  0  0  0  0  0  0  0  0  0  0  0
   14.1891  -23.0733    6.0573 C   0  0  0  0  0  0  0  0  0  0  0  0
   17.6935  -17.3522    7.8185 N   0  0  0  0  0  0  0  0  0  0  0  0
   18.7967  -16.5903    8.4308 C   0  0  1  0  0  0  0  0  0  0  0  0
   19.6448  -16.1256    7.3142 C   0  0  0  0  0  0  0  0  0  0  0  0
   19.0166  -15.1155    6.4465 C   0  0  0  0  0  0  0  0  0  0  0  0
   17.8324  -15.2828    5.7073 C   0  0  0  0  0  0  0  0  0  0  0  0
   17.5747  -14.1764    4.9979 N   0  0  0  0  0  0  0  0  0  0  0  0
   18.5447  -13.2653    5.2331 C   0  0  0  0  0  0  0  0  0  0  0  0
   18.7632  -11.9692    4.7872 C   0  0  0  0  0  0  0  0  0  0  0  0
   19.8559  -11.2486    5.2248 C   0  0  0  0  0  0  0  0  0  0  0  0
   20.7424  -11.8032    6.1072 C   0  0  0  0  0  0  0  0  0  0  0  0
   20.5287  -13.0877    6.5499 C   0  0  0  0  0  0  0  0  0  0  0  0
   19.4312  -13.8248    6.1156 C   0  0  0  0  0  0  0  0  0  0  0  0
   18.3005  -15.5084    9.2719 C   0  0  0  0  0  0  0  0  0  0  0  0
   19.2477  -14.6922    9.9071 O   0  0  0  0  0  0  0  0  0  0  0  0
   17.0873  -15.2630    9.4621 O   0  0  0  0  0  0  0  0  0  0  0  0
  1  2  1  0
  3  2  1  0
  4  5  1  0
  4  3  1  0
  5  6  1  1
  5  1  1  0
  6  7  2  0
  8  9  1  0
  9 19  2  0
  9 10  1  0
 10 11  2  0
 11 12  1  0
 12 13  1  0
 14 13  1  1
 15 14  1  0
 15  6  1  0
 16 14  1  0
 16 17  2  0
 18 12  2  0
 19 18  1  0
 20 16  1  0
 21 20  1  0
 21 32  1  0
 21 22  1  6
 23 22  1  0
 24 23  2  0
 25 26  1  0
 25 24  1  0
 26 31  2  0
 27 26  1  0
 27 28  2  0
 28 29  1  0
 29 30  2  0
 31 23  1  0
 31 30  1  0
 32 33  1  0
 34 32  2  0
M  END
$$$$
