PYW.pdb
     RDKit          3D

 34 37  0  0  1  0  0  0  0  0999 V2000
   28.0385  -21.8374  -17.0825 N   0  0  0  0  0  0  0  0  0  0  0  0
   27.2032  -21.7736  -18.2572 C   0  0  0  0  0  0  0  0  0  0  0  0
   26.1193  -20.7667  -17.9847 C   0  0  0  0  0  0  0  0  0  0  0  0
   26.8796  -19.7689  -17.1041 C   0  0  0  0  0  0  0  0  0  0  0  0
   27.8581  -20.6321  -16.3269 C   0  0  1  0  0  0  0  0  0  0  0  0
   27.2772  -20.9467  -14.9962 C   0  0  0  0  0  0  0  0  0  0  0  0
   26.6086  -22.0011  -14.8479 O   0  0  0  0  0  0  0  0  0  0  0  0
   25.5816  -20.2774   -6.2510 O   0  0  0  0  0  0  0  0  0  0  0  0
   26.1279  -20.1451   -7.5436 C   0  0  0  0  0  0  0  0  0  0  0  0
   25.8995  -19.0285   -8.3037 C   0  0  0  0  0  0  0  0  0  0  0  0
   26.4437  -18.9018   -9.5846 C   0  0  0  0  0  0  0  0  0  0  0  0
   27.2271  -19.8952  -10.1252 C   0  0  0  0  0  0  0  0  0  0  0  0
   27.7865  -19.7506  -11.4581 C   0  0  0  0  0  0  0  0  0  0  0  0
   26.9853  -20.4278  -12.5423 C   0  0  2  0  0  0  0  0  0  0  0  0
   27.4325  -20.1165  -13.8613 N   0  0  0  0  0  0  0  0  0  0  0  0
   25.5515  -20.1842  -12.3742 C   0  0  0  0  0  0  0  0  0  0  0  0
   25.0879  -19.0455  -12.7276 O   0  0  0  0  0  0  0  0  0  0  0  0
   27.4427  -21.0047   -9.3466 C   0  0  0  0  0  0  0  0  0  0  0  0
   26.9150  -21.1478   -8.0812 C   0  0  0  0  0  0  0  0  0  0  0  0
   24.6619  -21.1458  -11.8425 N   0  0  0  0  0  0  0  0  0  0  0  0
   23.2433  -20.8170  -11.6148 C   0  0  1  0  0  0  0  0  0  0  0  0
   22.4890  -21.4766  -12.7003 C   0  0  0  0  0  0  0  0  0  0  0  0
   22.3600  -20.6777  -13.9302 C   0  0  0  0  0  0  0  0  0  0  0  0
   21.7285  -19.4264  -14.0402 C   0  0  0  0  0  0  0  0  0  0  0  0
   21.7604  -19.0069  -15.3117 N   0  0  0  0  0  0  0  0  0  0  0  0
   22.3935  -19.9324  -16.0661 C   0  0  0  0  0  0  0  0  0  0  0  0
   22.7183  -20.0036  -17.4136 C   0  0  0  0  0  0  0  0  0  0  0  0
   23.4077  -21.0887  -17.9156 C   0  0  0  0  0  0  0  0  0  0  0  0
   23.7819  -22.1133  -17.0897 C   0  0  0  0  0  0  0  0  0  0  0  0
   23.4605  -22.0457  -15.7542 C   0  0  0  0  0  0  0  0  0  0  0  0
   22.7651  -20.9574  -15.2360 C   0  0  0  0  0  0  0  0  0  0  0  0
   22.8072  -21.2129  -10.2816 C   0  0  0  0  0  0  0  0  0  0  0  0
   21.4953  -20.8913   -9.9047 O   0  0  0  0  0  0  0  0  0  0  0  0
   23.5271  -21.8192   -9.4556 O   0  0  0  0  0  0  0  0  0  0  0  0
  1  2  1  0
  3  2  1  0
  4  5  1  0
  4  3  1  0
  5  6  1  1
  5  1  1  0
  6  7  2  0
  8  9  1  0
  9 19  2  0
  9 10  1  0
 10 11  2  0
 11 12  1  0
 12 13  1  0
 14 13  1  1
 15 14  1  0
 15  6  1  0
 16 14  1  0
 16 17  2  0
 18 12  2  0
 19 18  1  0
 20 16  1  0
 21 20  1  0
 21 32  1  0
 21 22  1  6
 23 22  1  0
 24 23  2  0
 25 26  1  0
 25 24  1  0
 26 31  2  0
 27 26  1  0
 27 28  2  0
 28 29  1  0
 29 30  2  0
 31 23  1  0
 31 30  1  0
 32 33  1  0
 34 32  2  0
M  END
$$$$
