PYW.pdb
     RDKit          3D

 34 37  0  0  1  0  0  0  0  0999 V2000
   29.5910  -22.8301  -15.6041 N   0  0  0  0  0  0  0  0  0  0  0  0
   29.4843  -23.5850  -16.8290 C   0  0  0  0  0  0  0  0  0  0  0  0
   28.8629  -22.6835  -17.8606 C   0  0  0  0  0  0  0  0  0  0  0  0
   29.4418  -21.3299  -17.4341 C   0  0  0  0  0  0  0  0  0  0  0  0
   29.5482  -21.4326  -15.9227 C   0  0  1  0  0  0  0  0  0  0  0  0
   28.3495  -20.8061  -15.3080 C   0  0  0  0  0  0  0  0  0  0  0  0
   28.1268  -19.5831  -15.4961 O   0  0  0  0  0  0  0  0  0  0  0  0
   20.1799  -18.8713  -13.0734 O   0  0  0  0  0  0  0  0  0  0  0  0
   21.3748  -19.4792  -13.5087 C   0  0  0  0  0  0  0  0  0  0  0  0
   21.6138  -20.8122  -13.3016 C   0  0  0  0  0  0  0  0  0  0  0  0
   22.7998  -21.4103  -13.7354 C   0  0  0  0  0  0  0  0  0  0  0  0
   23.7678  -20.6796  -14.3851 C   0  0  0  0  0  0  0  0  0  0  0  0
   24.9963  -21.3140  -14.8307 C   0  0  0  0  0  0  0  0  0  0  0  0
   26.2038  -20.9844  -13.9886 C   0  0  2  0  0  0  0  0  0  0  0  0
   27.4232  -21.5146  -14.5071 N   0  0  0  0  0  0  0  0  0  0  0  0
   25.9923  -21.3557  -12.5883 C   0  0  0  0  0  0  0  0  0  0  0  0
   26.0346  -22.5966  -12.2806 O   0  0  0  0  0  0  0  0  0  0  0  0
   23.5078  -19.3464  -14.5817 C   0  0  0  0  0  0  0  0  0  0  0  0
   22.3441  -18.7386  -14.1615 C   0  0  0  0  0  0  0  0  0  0  0  0
   25.7455  -20.4094  -11.5673 N   0  0  0  0  0  0  0  0  0  0  0  0
   25.3941  -20.8449  -10.2037 C   0  0  1  0  0  0  0  0  0  0  0  0
   26.0253  -19.8740   -9.2866 C   0  0  0  0  0  0  0  0  0  0  0  0
   27.3382  -20.2882   -8.7645 C   0  0  0  0  0  0  0  0  0  0  0  0
   28.2474  -21.1491   -9.4039 C   0  0  0  0  0  0  0  0  0  0  0  0
   29.3214  -21.3406   -8.6270 N   0  0  0  0  0  0  0  0  0  0  0  0
   29.1697  -20.6371   -7.4831 C   0  0  0  0  0  0  0  0  0  0  0  0
   29.9661  -20.4605   -6.3602 C   0  0  0  0  0  0  0  0  0  0  0  0
   29.5550  -19.6438   -5.3264 C   0  0  0  0  0  0  0  0  0  0  0  0
   28.3526  -18.9944   -5.3937 C   0  0  0  0  0  0  0  0  0  0  0  0
   27.5611  -19.1684   -6.5049 C   0  0  0  0  0  0  0  0  0  0  0  0
   27.9640  -19.9898   -7.5534 C   0  0  0  0  0  0  0  0  0  0  0  0
   23.9512  -20.9541  -10.0297 C   0  0  0  0  0  0  0  0  0  0  0  0
   23.4827  -21.6056   -8.8796 O   0  0  0  0  0  0  0  0  0  0  0  0
   23.1075  -20.5048  -10.8388 O   0  0  0  0  0  0  0  0  0  0  0  0
  1  2  1  0
  3  2  1  0
  4  5  1  0
  4  3  1  0
  5  6  1  1
  5  1  1  0
  6  7  2  0
  8  9  1  0
  9 19  2  0
  9 10  1  0
 10 11  2  0
 11 12  1  0
 12 13  1  0
 14 13  1  6
 15 14  1  0
 15  6  1  0
 16 14  1  0
 16 17  2  0
 18 12  2  0
 19 18  1  0
 20 16  1  0
 21 20  1  0
 21 32  1  0
 21 22  1  1
 23 22  1  0
 24 23  2  0
 25 26  1  0
 25 24  1  0
 26 31  2  0
 27 26  1  0
 27 28  2  0
 28 29  1  0
 29 30  2  0
 31 23  1  0
 31 30  1  0
 32 33  1  0
 34 32  2  0
M  END
$$$$
