PYW.pdb
     RDKit          3D

 34 37  0  0  1  0  0  0  0  0999 V2000
   17.5443  -11.2313  -17.8612 N   0  0  0  0  0  0  0  0  0  0  0  0
   16.7532  -11.1769  -19.0665 C   0  0  0  0  0  0  0  0  0  0  0  0
   17.6170  -10.5834  -20.1456 C   0  0  0  0  0  0  0  0  0  0  0  0
   18.9891  -11.1320  -19.7386 C   0  0  0  0  0  0  0  0  0  0  0  0
   18.9314  -11.1849  -18.2219 C   0  0  1  0  0  0  0  0  0  0  0  0
   19.5612   -9.9581  -17.6690 C   0  0  0  0  0  0  0  0  0  0  0  0
   20.7876   -9.7547  -17.8577 O   0  0  0  0  0  0  0  0  0  0  0  0
   19.9139   -6.1672  -22.6468 O   0  0  0  0  0  0  0  0  0  0  0  0
   19.6493   -6.2571  -21.2653 C   0  0  0  0  0  0  0  0  0  0  0  0
   20.5333   -5.7744  -20.3366 C   0  0  0  0  0  0  0  0  0  0  0  0
   20.2661   -5.8655  -18.9680 C   0  0  0  0  0  0  0  0  0  0  0  0
   19.1058   -6.4437  -18.5075 C   0  0  0  0  0  0  0  0  0  0  0  0
   18.8407   -6.5320  -17.0819 C   0  0  0  0  0  0  0  0  0  0  0  0
   19.4027   -7.7674  -16.4233 C   0  0  2  0  0  0  0  0  0  0  0  0
   18.8524   -8.9837  -16.9277 N   0  0  0  0  0  0  0  0  0  0  0  0
   19.3073   -7.6820  -14.9648 C   0  0  0  0  0  0  0  0  0  0  0  0
   18.1909   -7.9791  -14.4153 O   0  0  0  0  0  0  0  0  0  0  0  0
   18.2347   -6.9207  -19.4549 C   0  0  0  0  0  0  0  0  0  0  0  0
   18.4804   -6.8396  -20.8089 C   0  0  0  0  0  0  0  0  0  0  0  0
   20.3875   -7.2888  -14.1419 N   0  0  0  0  0  0  0  0  0  0  0  0
   20.2237   -7.1828  -12.6810 C   0  0  1  0  0  0  0  0  0  0  0  0
   21.1603   -8.1603  -12.0901 C   0  0  0  0  0  0  0  0  0  0  0  0
   21.2383   -8.1233  -10.6203 C   0  0  0  0  0  0  0  0  0  0  0  0
   20.3678   -8.7762   -9.7300 C   0  0  0  0  0  0  0  0  0  0  0  0
   20.7070   -8.4921   -8.4659 N   0  0  0  0  0  0  0  0  0  0  0  0
   21.7791   -7.6692   -8.4709 C   0  0  0  0  0  0  0  0  0  0  0  0
   22.5402   -7.0895   -7.4654 C   0  0  0  0  0  0  0  0  0  0  0  0
   23.6220   -6.2897   -7.7732 C   0  0  0  0  0  0  0  0  0  0  0  0
   23.9608   -6.0559   -9.0780 C   0  0  0  0  0  0  0  0  0  0  0  0
   23.2077   -6.6284  -10.0763 C   0  0  0  0  0  0  0  0  0  0  0  0
   22.1142   -7.4360   -9.7789 C   0  0  0  0  0  0  0  0  0  0  0  0
   20.4374   -5.8188  -12.2139 C   0  0  0  0  0  0  0  0  0  0  0  0
   19.5979   -5.3407  -11.1974 O   0  0  0  0  0  0  0  0  0  0  0  0
   21.3196   -5.0506  -12.6612 O   0  0  0  0  0  0  0  0  0  0  0  0
  1  2  1  0
  3  2  1  0
  4  5  1  0
  4  3  1  0
  5  6  1  1
  5  1  1  0
  6  7  2  0
  8  9  1  0
  9 19  2  0
  9 10  1  0
 10 11  2  0
 11 12  1  0
 12 13  1  0
 14 13  1  6
 15 14  1  0
 15  6  1  0
 16 14  1  0
 16 17  2  0
 18 12  2  0
 19 18  1  0
 20 16  1  0
 21 20  1  0
 21 32  1  0
 21 22  1  1
 23 22  1  0
 24 23  2  0
 25 26  1  0
 25 24  1  0
 26 31  2  0
 27 26  1  0
 27 28  2  0
 28 29  1  0
 29 30  2  0
 31 23  1  0
 31 30  1  0
 32 33  1  0
 34 32  2  0
M  END
$$$$
