PYW.pdb
     RDKit          3D

 34 37  0  0  1  0  0  0  0  0999 V2000
   28.3684  -20.5412  -15.5890 N   0  0  0  0  0  0  0  0  0  0  0  0
   28.0209  -20.1011  -16.9183 C   0  0  0  0  0  0  0  0  0  0  0  0
   27.5074  -18.6916  -16.8061 C   0  0  0  0  0  0  0  0  0  0  0  0
   28.3703  -18.1709  -15.6512 C   0  0  0  0  0  0  0  0  0  0  0  0
   28.5732  -19.3865  -14.7637 C   0  0  1  0  0  0  0  0  0  0  0  0
   27.5714  -19.3595  -13.6670 C   0  0  0  0  0  0  0  0  0  0  0  0
   27.5092  -18.3562  -12.9118 O   0  0  0  0  0  0  0  0  0  0  0  0
   22.2959  -17.2161  -16.9170 O   0  0  0  0  0  0  0  0  0  0  0  0
   22.7878  -18.0988  -15.9343 C   0  0  0  0  0  0  0  0  0  0  0  0
   23.3880  -19.2823  -16.2745 C   0  0  0  0  0  0  0  0  0  0  0  0
   23.8746  -20.1539  -15.2965 C   0  0  0  0  0  0  0  0  0  0  0  0
   23.7666  -19.8521  -13.9586 C   0  0  0  0  0  0  0  0  0  0  0  0
   24.2767  -20.7672  -12.9523 C   0  0  0  0  0  0  0  0  0  0  0  0
   25.6402  -20.4034  -12.4191 C   0  0  2  0  0  0  0  0  0  0  0  0
   26.6636  -20.4146  -13.4137 N   0  0  0  0  0  0  0  0  0  0  0  0
   25.9918  -21.2213  -11.2568 C   0  0  0  0  0  0  0  0  0  0  0  0
   26.3297  -22.4389  -11.4564 O   0  0  0  0  0  0  0  0  0  0  0  0
   23.1619  -18.6617  -13.6405 C   0  0  0  0  0  0  0  0  0  0  0  0
   22.6762  -17.7891  -14.5906 C   0  0  0  0  0  0  0  0  0  0  0  0
   25.9750  -20.7282   -9.9319 N   0  0  0  0  0  0  0  0  0  0  0  0
   26.2046  -21.6293   -8.7884 C   0  0  1  0  0  0  0  0  0  0  0  0
   27.5838  -21.3672   -8.3288 C   0  0  0  0  0  0  0  0  0  0  0  0
   27.7035  -20.2900   -7.3322 C   0  0  0  0  0  0  0  0  0  0  0  0
   27.1685  -18.9949   -7.4471 C   0  0  0  0  0  0  0  0  0  0  0  0
   27.5033  -18.2639   -6.3760 N   0  0  0  0  0  0  0  0  0  0  0  0
   28.2466  -19.0215   -5.5394 C   0  0  0  0  0  0  0  0  0  0  0  0
   28.8304  -18.7833   -4.3029 C   0  0  0  0  0  0  0  0  0  0  0  0
   29.5317  -19.7777   -3.6518 C   0  0  0  0  0  0  0  0  0  0  0  0
   29.6622  -21.0166   -4.2176 C   0  0  0  0  0  0  0  0  0  0  0  0
   29.0854  -21.2550   -5.4432 C   0  0  0  0  0  0  0  0  0  0  0  0
   28.3765  -20.2605   -6.1100 C   0  0  0  0  0  0  0  0  0  0  0  0
   25.2011  -21.4435   -7.7479 C   0  0  0  0  0  0  0  0  0  0  0  0
   24.1945  -20.4945   -7.9776 O   0  0  0  0  0  0  0  0  0  0  0  0
   25.1815  -22.0750   -6.6666 O   0  0  0  0  0  0  0  0  0  0  0  0
  1  2  1  0
  3  2  1  0
  4  5  1  0
  4  3  1  0
  5  6  1  1
  5  1  1  0
  6  7  2  0
  8  9  1  0
  9 19  2  0
  9 10  1  0
 10 11  2  0
 11 12  1  0
 12 13  1  0
 14 13  1  6
 15 14  1  0
 15  6  1  0
 16 14  1  0
 16 17  2  0
 18 12  2  0
 19 18  1  0
 20 16  1  0
 21 20  1  0
 21 32  1  0
 21 22  1  1
 23 22  1  0
 24 23  2  0
 25 26  1  0
 25 24  1  0
 26 31  2  0
 27 26  1  0
 27 28  2  0
 28 29  1  0
 29 30  2  0
 31 23  1  0
 31 30  1  0
 32 33  1  0
 34 32  2  0
M  END
$$$$
