PYW.pdb
     RDKit          3D

 34 37  0  0  1  0  0  0  0  0999 V2000
   24.3421  -17.8452  -13.6373 N   0  0  0  0  0  0  0  0  0  0  0  0
   24.9095  -16.7737  -14.4192 C   0  0  0  0  0  0  0  0  0  0  0  0
   25.6499  -17.3991  -15.5697 C   0  0  0  0  0  0  0  0  0  0  0  0
   24.7694  -18.6253  -15.8352 C   0  0  0  0  0  0  0  0  0  0  0  0
   24.2548  -19.0159  -14.4608 C   0  0  1  0  0  0  0  0  0  0  0  0
   25.1158  -20.0932  -13.9082 C   0  0  0  0  0  0  0  0  0  0  0  0
   25.1086  -21.2282  -14.4491 O   0  0  0  0  0  0  0  0  0  0  0  0
   29.7365  -19.5304  -17.7637 O   0  0  0  0  0  0  0  0  0  0  0  0
   29.3701  -19.8203  -16.4339 C   0  0  0  0  0  0  0  0  0  0  0  0
   29.1526  -21.1074  -16.0182 C   0  0  0  0  0  0  0  0  0  0  0  0
   28.7899  -21.3897  -14.6985 C   0  0  0  0  0  0  0  0  0  0  0  0
   28.6389  -20.3836  -13.7724 C   0  0  0  0  0  0  0  0  0  0  0  0
   28.2614  -20.6911  -12.4037 C   0  0  0  0  0  0  0  0  0  0  0  0
   26.7847  -20.9295  -12.2077 C   0  0  2  0  0  0  0  0  0  0  0  0
   25.9614  -19.9183  -12.7875 N   0  0  0  0  0  0  0  0  0  0  0  0
   26.4661  -21.1584  -10.7971 C   0  0  0  0  0  0  0  0  0  0  0  0
   27.0278  -22.1430  -10.2043 O   0  0  0  0  0  0  0  0  0  0  0  0
   28.8614  -19.1020  -14.2104 C   0  0  0  0  0  0  0  0  0  0  0  0
   29.2201  -18.8037  -15.5075 C   0  0  0  0  0  0  0  0  0  0  0  0
   25.5713  -20.3443  -10.0655 N   0  0  0  0  0  0  0  0  0  0  0  0
   25.0109  -20.8033   -8.7819 C   0  0  1  0  0  0  0  0  0  0  0  0
   25.3255  -19.7496   -7.7956 C   0  0  0  0  0  0  0  0  0  0  0  0
   26.7640  -19.5227   -7.5789 C   0  0  0  0  0  0  0  0  0  0  0  0
   27.6786  -19.0471   -8.5349 C   0  0  0  0  0  0  0  0  0  0  0  0
   28.9093  -19.0009   -8.0087 N   0  0  0  0  0  0  0  0  0  0  0  0
   28.8581  -19.4286   -6.7277 C   0  0  0  0  0  0  0  0  0  0  0  0
   29.8129  -19.5656   -5.7298 C   0  0  0  0  0  0  0  0  0  0  0  0
   29.4598  -20.0173   -4.4744 C   0  0  0  0  0  0  0  0  0  0  0  0
   28.1594  -20.3378   -4.1946 C   0  0  0  0  0  0  0  0  0  0  0  0
   27.2114  -20.2038   -5.1820 C   0  0  0  0  0  0  0  0  0  0  0  0
   27.5549  -19.7501   -6.4519 C   0  0  0  0  0  0  0  0  0  0  0  0
   23.5860  -21.0904   -8.8897 C   0  0  0  0  0  0  0  0  0  0  0  0
   22.9505  -21.6550   -7.7744 O   0  0  0  0  0  0  0  0  0  0  0  0
   22.8969  -20.8656   -9.9110 O   0  0  0  0  0  0  0  0  0  0  0  0
  1  2  1  0
  3  2  1  0
  4  5  1  0
  4  3  1  0
  5  6  1  1
  5  1  1  0
  6  7  2  0
  8  9  1  0
  9 19  2  0
  9 10  1  0
 10 11  2  0
 11 12  1  0
 12 13  1  0
 14 13  1  1
 15 14  1  0
 15  6  1  0
 16 14  1  0
 16 17  2  0
 18 12  2  0
 19 18  1  0
 20 16  1  0
 21 20  1  0
 21 32  1  0
 21 22  1  1
 23 22  1  0
 24 23  2  0
 25 26  1  0
 25 24  1  0
 26 31  2  0
 27 26  1  0
 27 28  2  0
 28 29  1  0
 29 30  2  0
 31 23  1  0
 31 30  1  0
 32 33  1  0
 34 32  2  0
M  END
$$$$
