HAW.pdb
     RDKit          3D

 30 32  0  0  1  0  0  0  0  0999 V2000
    8.0231  -16.6231   19.2742 N   0  0  0  0  0  0  0  0  0  0  0  0
    8.6102  -15.7122   20.2742 C   0  0  1  0  0  0  0  0  0  0  0  0
    7.7762  -14.4691   20.2188 C   0  0  0  0  0  0  0  0  0  0  0  0
    7.8968  -13.8435   18.8600 C   0  0  0  0  0  0  0  0  0  0  0  0
    8.6838  -12.7624   18.5390 C   0  0  0  0  0  0  0  0  0  0  0  0
    8.4966  -12.5039   17.2407 N   0  0  0  0  0  0  0  0  0  0  0  0
    7.6184  -13.3948   16.7594 C   0  0  0  0  0  0  0  0  0  0  0  0
    7.2533  -14.2098   17.7441 N   0  0  0  0  0  0  0  0  0  0  0  0
    8.5347  -16.3085   21.6233 C   0  0  0  0  0  0  0  0  0  0  0  0
    7.4938  -16.2934   22.3033 O   0  0  0  0  0  0  0  0  0  0  0  0
   10.5165  -18.8950   23.4127 C   0  0  0  0  0  0  0  0  0  0  0  0
    9.6211  -17.6781   23.4372 C   0  0  2  0  0  0  0  0  0  0  0  0
    9.6804  -16.9343   22.2006 N   0  0  0  0  0  0  0  0  0  0  0  0
   10.1162  -16.7984   24.5268 C   0  0  0  0  0  0  0  0  0  0  0  0
   10.9984  -15.9329   24.3019 O   0  0  0  0  0  0  0  0  0  0  0  0
    9.6283  -16.8877   25.8525 N   0  0  0  0  0  0  0  0  0  0  0  0
   10.3654  -16.2700   26.9330 C   0  0  1  0  0  0  0  0  0  0  0  0
    9.8064  -14.9531   27.3497 C   0  0  0  0  0  0  0  0  0  0  0  0
    8.4154  -14.8420   26.8467 C   0  0  0  0  0  0  0  0  0  0  0  0
    7.5081  -15.8304   26.5285 C   0  0  0  0  0  0  0  0  0  0  0  0
    6.3850  -15.2297   26.1098 N   0  0  0  0  0  0  0  0  0  0  0  0
    6.5068  -13.9044   26.1362 C   0  0  0  0  0  0  0  0  0  0  0  0
    5.6951  -12.8236   25.8240 C   0  0  0  0  0  0  0  0  0  0  0  0
    6.1424  -11.5229   25.9690 C   0  0  0  0  0  0  0  0  0  0  0  0
    7.4038  -11.2700   26.4266 C   0  0  0  0  0  0  0  0  0  0  0  0
    8.2234  -12.3167   26.7411 C   0  0  0  0  0  0  0  0  0  0  0  0
    7.7761  -13.6256   26.5963 C   0  0  0  0  0  0  0  0  0  0  0  0
   10.3513  -17.1923   28.0835 C   0  0  0  0  0  0  0  0  0  0  0  0
    9.6478  -18.3776   27.9988 O   0  0  0  0  0  0  0  0  0  0  0  0
   10.9586  -16.9426   29.1491 O   0  0  0  0  0  0  0  0  0  0  0  0
  2  1  1  6
  2  3  1  0
  2  9  1  0
  3  4  1  0
  4  5  2  0
  4  8  1  0
  5  6  1  0
  6  7  1  0
  8  7  2  0
  9 10  2  0
 12 11  1  6
 12 14  1  0
 13  9  1  0
 13 12  1  0
 14 15  2  0
 16 14  1  0
 16 17  1  0
 17 28  1  0
 17 18  1  1
 19 27  1  0
 19 18  1  0
 20 19  2  0
 21 20  1  0
 21 22  1  0
 22 27  2  0
 23 22  1  0
 23 24  2  0
 24 25  1  0
 25 26  2  0
 27 26  1  0
 28 30  2  0
 28 29  1  0
M  END
$$$$
