HAW.pdb
     RDKit          3D

 30 32  0  0  1  0  0  0  0  0999 V2000
    8.1356  -17.2714   17.5391 N   0  0  0  0  0  0  0  0  0  0  0  0
    8.6157  -16.2943   18.5336 C   0  0  1  0  0  0  0  0  0  0  0  0
    7.7829  -15.0675   18.3209 C   0  0  0  0  0  0  0  0  0  0  0  0
    8.1677  -14.4178   17.0240 C   0  0  0  0  0  0  0  0  0  0  0  0
    9.0897  -14.9002   16.1249 C   0  0  0  0  0  0  0  0  0  0  0  0
    9.1582  -14.0261   15.1156 N   0  0  0  0  0  0  0  0  0  0  0  0
    8.3056  -13.0240   15.3717 C   0  0  0  0  0  0  0  0  0  0  0  0
    7.7029  -13.2620   16.5325 N   0  0  0  0  0  0  0  0  0  0  0  0
    8.4122  -16.8088   19.9031 C   0  0  0  0  0  0  0  0  0  0  0  0
    7.3101  -16.7633   20.4770 O   0  0  0  0  0  0  0  0  0  0  0  0
    9.9994  -19.3294   22.0358 C   0  0  0  0  0  0  0  0  0  0  0  0
    9.3388  -17.9742   21.9352 C   0  0  2  0  0  0  0  0  0  0  0  0
    9.4991  -17.3869   20.6255 N   0  0  0  0  0  0  0  0  0  0  0  0
   10.0121  -17.0903   22.9208 C   0  0  0  0  0  0  0  0  0  0  0  0
   11.0515  -16.4570   22.6098 O   0  0  0  0  0  0  0  0  0  0  0  0
    9.5263  -16.9180   24.2391 N   0  0  0  0  0  0  0  0  0  0  0  0
   10.3287  -16.2133   25.2147 C   0  0  1  0  0  0  0  0  0  0  0  0
    9.8975  -14.8022   25.4228 C   0  0  0  0  0  0  0  0  0  0  0  0
    8.4349  -14.7792   25.6690 C   0  0  0  0  0  0  0  0  0  0  0  0
    7.5342  -15.8204   25.7456 C   0  0  0  0  0  0  0  0  0  0  0  0
    6.3238  -15.2927   25.9780 N   0  0  0  0  0  0  0  0  0  0  0  0
    6.3824  -13.9652   26.0578 C   0  0  0  0  0  0  0  0  0  0  0  0
    5.4734  -12.9398   26.2739 C   0  0  0  0  0  0  0  0  0  0  0  0
    5.8746  -11.6163   26.2968 C   0  0  0  0  0  0  0  0  0  0  0  0
    7.1855  -11.2853   26.1057 C   0  0  0  0  0  0  0  0  0  0  0  0
    8.1009  -12.2763   25.8908 C   0  0  0  0  0  0  0  0  0  0  0  0
    7.7002  -13.6079   25.8673 C   0  0  0  0  0  0  0  0  0  0  0  0
   10.2424  -16.9435   26.4928 C   0  0  0  0  0  0  0  0  0  0  0  0
   11.1014  -16.6176   27.5239 O   0  0  0  0  0  0  0  0  0  0  0  0
    9.4117  -17.8598   26.6857 O   0  0  0  0  0  0  0  0  0  0  0  0
  2  1  1  6
  2  3  1  0
  2  9  1  0
  3  4  1  0
  4  5  2  0
  4  8  1  0
  5  6  1  0
  6  7  1  0
  8  7  2  0
  9 10  2  0
 12 11  1  6
 12 14  1  0
 13  9  1  0
 13 12  1  0
 14 15  2  0
 16 14  1  0
 16 17  1  0
 17 28  1  0
 17 18  1  1
 19 27  1  0
 19 18  1  0
 20 19  2  0
 21 20  1  0
 21 22  1  0
 22 27  2  0
 23 22  1  0
 23 24  2  0
 24 25  1  0
 25 26  2  0
 27 26  1  0
 28 30  2  0
 28 29  1  0
M  END
$$$$
