HAW.pdb
     RDKit          3D

 30 32  0  0  1  0  0  0  0  0999 V2000
    6.4764  -16.1619   20.8074 N   0  0  0  0  0  0  0  0  0  0  0  0
    7.8229  -15.7576   21.2521 C   0  0  1  0  0  0  0  0  0  0  0  0
    7.7482  -14.2747   21.4509 C   0  0  0  0  0  0  0  0  0  0  0  0
    7.8939  -13.5825   20.1274 C   0  0  0  0  0  0  0  0  0  0  0  0
    8.0876  -14.1994   18.9137 C   0  0  0  0  0  0  0  0  0  0  0  0
    8.1869  -13.2389   17.9891 N   0  0  0  0  0  0  0  0  0  0  0  0
    8.0598  -12.0537   18.6020 C   0  0  0  0  0  0  0  0  0  0  0  0
    7.8815  -12.2623   19.9028 N   0  0  0  0  0  0  0  0  0  0  0  0
    8.1660  -16.4191   22.5273 C   0  0  0  0  0  0  0  0  0  0  0  0
    7.3346  -16.5909   23.4358 O   0  0  0  0  0  0  0  0  0  0  0  0
   11.0486  -18.5443   23.6885 C   0  0  0  0  0  0  0  0  0  0  0  0
    9.8523  -17.6544   23.9333 C   0  0  2  0  0  0  0  0  0  0  0  0
    9.4925  -16.8919   22.7607 N   0  0  0  0  0  0  0  0  0  0  0  0
   10.2359  -16.6983   25.0033 C   0  0  0  0  0  0  0  0  0  0  0  0
   10.8735  -15.6511   24.7297 O   0  0  0  0  0  0  0  0  0  0  0  0
    9.9088  -16.9132   26.3636 N   0  0  0  0  0  0  0  0  0  0  0  0
   10.5993  -16.1706   27.3951 C   0  0  1  0  0  0  0  0  0  0  0  0
    9.7049  -15.2594   28.1633 C   0  0  0  0  0  0  0  0  0  0  0  0
    8.4202  -15.1221   27.4346 C   0  0  0  0  0  0  0  0  0  0  0  0
    7.4608  -16.0697   27.1465 C   0  0  0  0  0  0  0  0  0  0  0  0
    6.4832  -15.4606   26.4603 N   0  0  0  0  0  0  0  0  0  0  0  0
    6.7492  -14.1684   26.2835 C   0  0  0  0  0  0  0  0  0  0  0  0
    6.1172  -13.0967   25.6700 C   0  0  0  0  0  0  0  0  0  0  0  0
    6.6840  -11.8350   25.6643 C   0  0  0  0  0  0  0  0  0  0  0  0
    7.8888  -11.6129   26.2674 C   0  0  0  0  0  0  0  0  0  0  0  0
    8.5321  -12.6515   26.8787 C   0  0  0  0  0  0  0  0  0  0  0  0
    7.9644  -13.9211   26.8859 C   0  0  0  0  0  0  0  0  0  0  0  0
   11.2201  -17.1380   28.3187 C   0  0  0  0  0  0  0  0  0  0  0  0
   12.0579  -16.6850   29.3188 O   0  0  0  0  0  0  0  0  0  0  0  0
   11.0173  -18.3701   28.2334 O   0  0  0  0  0  0  0  0  0  0  0  0
  2  1  1  1
  2  3  1  0
  2  9  1  0
  3  4  1  0
  4  5  2  0
  4  8  1  0
  5  6  1  0
  6  7  1  0
  8  7  2  0
  9 10  2  0
 12 11  1  6
 12 14  1  0
 13  9  1  0
 13 12  1  0
 14 15  2  0
 16 14  1  0
 16 17  1  0
 17 28  1  0
 17 18  1  1
 19 27  1  0
 19 18  1  0
 20 19  2  0
 21 20  1  0
 21 22  1  0
 22 27  2  0
 23 22  1  0
 23 24  2  0
 24 25  1  0
 25 26  2  0
 27 26  1  0
 28 30  2  0
 28 29  1  0
M  END
$$$$
