HAW.pdb
     RDKit          3D

 30 32  0  0  1  0  0  0  0  0999 V2000
    8.9317  -16.8713   19.0007 N   0  0  0  0  0  0  0  0  0  0  0  0
    9.0247  -15.9202   20.1236 C   0  0  1  0  0  0  0  0  0  0  0  0
    7.8485  -15.0055   19.9693 C   0  0  0  0  0  0  0  0  0  0  0  0
    7.9664  -14.2491   18.6784 C   0  0  0  0  0  0  0  0  0  0  0  0
    8.5356  -13.0070   18.5228 C   0  0  0  0  0  0  0  0  0  0  0  0
    8.4255  -12.6764   17.2321 N   0  0  0  0  0  0  0  0  0  0  0  0
    7.8057  -13.6795   16.5949 C   0  0  0  0  0  0  0  0  0  0  0  0
    7.5263  -14.6364   17.4744 N   0  0  0  0  0  0  0  0  0  0  0  0
    8.9401  -16.6344   21.4137 C   0  0  0  0  0  0  0  0  0  0  0  0
    7.9853  -17.3754   21.7060 O   0  0  0  0  0  0  0  0  0  0  0  0
   11.3046  -18.2215   23.5067 C   0  0  0  0  0  0  0  0  0  0  0  0
   10.0747  -17.3447   23.5478 C   0  0  2  0  0  0  0  0  0  0  0  0
    9.9754  -16.4924   22.3861 N   0  0  0  0  0  0  0  0  0  0  0  0
   10.2025  -16.4759   24.7457 C   0  0  0  0  0  0  0  0  0  0  0  0
   10.7737  -15.3596   24.6707 O   0  0  0  0  0  0  0  0  0  0  0  0
    9.6962  -16.8536   26.0123 N   0  0  0  0  0  0  0  0  0  0  0  0
   10.0071  -16.0555   27.1780 C   0  0  1  0  0  0  0  0  0  0  0  0
    8.8290  -15.8157   28.0585 C   0  0  0  0  0  0  0  0  0  0  0  0
    7.7609  -15.1630   27.2627 C   0  0  0  0  0  0  0  0  0  0  0  0
    6.7316  -15.7229   26.5359 C   0  0  0  0  0  0  0  0  0  0  0  0
    6.0317  -14.7202   25.9861 N   0  0  0  0  0  0  0  0  0  0  0  0
    6.5452  -13.5363   26.3124 C   0  0  0  0  0  0  0  0  0  0  0  0
    6.2432  -12.2104   26.0383 C   0  0  0  0  0  0  0  0  0  0  0  0
    7.0070  -11.1780   26.5519 C   0  0  0  0  0  0  0  0  0  0  0  0
    8.0851  -11.4418   27.3473 C   0  0  0  0  0  0  0  0  0  0  0  0
    8.4041  -12.7392   27.6325 C   0  0  0  0  0  0  0  0  0  0  0  0
    7.6377  -13.7792   27.1174 C   0  0  0  0  0  0  0  0  0  0  0  0
   11.0555  -16.7533   27.9450 C   0  0  0  0  0  0  0  0  0  0  0  0
   11.6472  -16.1221   29.0215 O   0  0  0  0  0  0  0  0  0  0  0  0
   11.4376  -17.9100   27.6575 O   0  0  0  0  0  0  0  0  0  0  0  0
  2  1  1  6
  2  3  1  0
  2  9  1  0
  3  4  1  0
  4  5  2  0
  4  8  1  0
  5  6  1  0
  6  7  1  0
  8  7  2  0
  9 10  2  0
 12 11  1  6
 12 14  1  0
 13  9  1  0
 13 12  1  0
 14 15  2  0
 16 14  1  0
 16 17  1  0
 17 28  1  0
 17 18  1  1
 19 27  1  0
 19 18  1  0
 20 19  2  0
 21 20  1  0
 21 22  1  0
 22 27  2  0
 23 22  1  0
 23 24  2  0
 24 25  1  0
 25 26  2  0
 27 26  1  0
 28 30  2  0
 28 29  1  0
M  END
$$$$
