HAW.pdb
     RDKit          3D

 30 32  0  0  1  0  0  0  0  0999 V2000
    6.9146  -17.0469   18.9094 N   0  0  0  0  0  0  0  0  0  0  0  0
    7.9656  -16.4084   19.7231 C   0  0  1  0  0  0  0  0  0  0  0  0
    7.5306  -14.9847   19.8895 C   0  0  0  0  0  0  0  0  0  0  0  0
    7.9442  -14.1891   18.6860 C   0  0  0  0  0  0  0  0  0  0  0  0
    8.5807  -14.6861   17.5729 C   0  0  0  0  0  0  0  0  0  0  0  0
    8.7910  -13.6602   16.7419 N   0  0  0  0  0  0  0  0  0  0  0  0
    8.3020  -12.5513   17.3146 C   0  0  0  0  0  0  0  0  0  0  0  0
    7.7869  -12.8727   18.4971 N   0  0  0  0  0  0  0  0  0  0  0  0
    8.0642  -17.0615   21.0442 C   0  0  0  0  0  0  0  0  0  0  0  0
    7.0633  -17.3526   21.7221 O   0  0  0  0  0  0  0  0  0  0  0  0
   10.5735  -19.2035   22.6849 C   0  0  0  0  0  0  0  0  0  0  0  0
    9.4923  -18.1552   22.8079 C   0  0  2  0  0  0  0  0  0  0  0  0
    9.3404  -17.3856   21.5952 N   0  0  0  0  0  0  0  0  0  0  0  0
    9.9093  -17.2284   23.8912 C   0  0  0  0  0  0  0  0  0  0  0  0
   10.6553  -16.2481   23.6452 O   0  0  0  0  0  0  0  0  0  0  0  0
    9.4950  -17.3983   25.2339 N   0  0  0  0  0  0  0  0  0  0  0  0
   10.0100  -16.5203   26.2617 C   0  0  1  0  0  0  0  0  0  0  0  0
    8.9862  -16.1341   27.2732 C   0  0  0  0  0  0  0  0  0  0  0  0
    7.8561  -15.4678   26.5812 C   0  0  0  0  0  0  0  0  0  0  0  0
    6.7773  -16.0152   25.9194 C   0  0  0  0  0  0  0  0  0  0  0  0
    6.0311  -15.0031   25.4544 N   0  0  0  0  0  0  0  0  0  0  0  0
    6.5611  -13.8247   25.7747 C   0  0  0  0  0  0  0  0  0  0  0  0
    6.2307  -12.4941   25.5634 C   0  0  0  0  0  0  0  0  0  0  0  0
    7.0255  -11.4705   26.0469 C   0  0  0  0  0  0  0  0  0  0  0  0
    8.1631  -11.7480   26.7492 C   0  0  0  0  0  0  0  0  0  0  0  0
    8.5111  -13.0503   26.9711 C   0  0  0  0  0  0  0  0  0  0  0  0
    7.7137  -14.0815   26.4862 C   0  0  0  0  0  0  0  0  0  0  0  0
   11.1264  -17.2087   26.9356 C   0  0  0  0  0  0  0  0  0  0  0  0
   11.4365  -18.5084   26.5865 O   0  0  0  0  0  0  0  0  0  0  0  0
   11.8148  -16.6571   27.8236 O   0  0  0  0  0  0  0  0  0  0  0  0
  2  1  1  6
  2  3  1  0
  2  9  1  0
  3  4  1  0
  4  5  2  0
  4  8  1  0
  5  6  1  0
  6  7  1  0
  8  7  2  0
  9 10  2  0
 12 11  1  6
 12 14  1  0
 13  9  1  0
 13 12  1  0
 14 15  2  0
 16 14  1  0
 16 17  1  0
 17 28  1  0
 17 18  1  1
 19 27  1  0
 19 18  1  0
 20 19  2  0
 21 20  1  0
 21 22  1  0
 22 27  2  0
 23 22  1  0
 23 24  2  0
 24 25  1  0
 25 26  2  0
 27 26  1  0
 28 30  2  0
 28 29  1  0
M  END
$$$$
