HAW.pdb
     RDKit          3D

 30 32  0  0  1  0  0  0  0  0999 V2000
    8.0355  -16.7716   18.4463 N   0  0  0  0  0  0  0  0  0  0  0  0
    8.5618  -15.9905   19.5809 C   0  0  1  0  0  0  0  0  0  0  0  0
    7.6473  -14.8112   19.7109 C   0  0  0  0  0  0  0  0  0  0  0  0
    7.8024  -13.9209   18.5128 C   0  0  0  0  0  0  0  0  0  0  0  0
    8.4258  -12.6952   18.4964 C   0  0  0  0  0  0  0  0  0  0  0  0
    8.3345  -12.2175   17.2511 N   0  0  0  0  0  0  0  0  0  0  0  0
    7.6737  -13.1149   16.5065 C   0  0  0  0  0  0  0  0  0  0  0  0
    7.3498  -14.1512   17.2736 N   0  0  0  0  0  0  0  0  0  0  0  0
    8.5268  -16.7927   20.8206 C   0  0  0  0  0  0  0  0  0  0  0  0
    7.4713  -17.2543   21.2883 O   0  0  0  0  0  0  0  0  0  0  0  0
   10.6121  -19.0931   22.6020 C   0  0  0  0  0  0  0  0  0  0  0  0
    9.7552  -17.8569   22.7454 C   0  0  2  0  0  0  0  0  0  0  0  0
    9.7311  -17.0685   21.5356 N   0  0  0  0  0  0  0  0  0  0  0  0
   10.3632  -17.0312   23.8200 C   0  0  0  0  0  0  0  0  0  0  0  0
   11.4057  -16.3643   23.6046 O   0  0  0  0  0  0  0  0  0  0  0  0
    9.8093  -16.9538   25.1202 N   0  0  0  0  0  0  0  0  0  0  0  0
   10.5005  -16.2139   26.1533 C   0  0  1  0  0  0  0  0  0  0  0  0
   10.1016  -14.7796   26.2172 C   0  0  0  0  0  0  0  0  0  0  0  0
    8.6267  -14.6861   26.0895 C   0  0  0  0  0  0  0  0  0  0  0  0
    7.6886  -15.6821   25.9179 C   0  0  0  0  0  0  0  0  0  0  0  0
    6.4843  -15.0968   25.8498 N   0  0  0  0  0  0  0  0  0  0  0  0
    6.5820  -13.7744   25.9672 C   0  0  0  0  0  0  0  0  0  0  0  0
    5.6961  -12.7069   25.9684 C   0  0  0  0  0  0  0  0  0  0  0  0
    6.1393  -11.4050   26.1165 C   0  0  0  0  0  0  0  0  0  0  0  0
    7.4699  -11.1379   26.2663 C   0  0  0  0  0  0  0  0  0  0  0  0
    8.3633  -12.1714   26.2686 C   0  0  0  0  0  0  0  0  0  0  0  0
    7.9205  -13.4814   26.1198 C   0  0  0  0  0  0  0  0  0  0  0  0
   10.2142  -16.8582   27.4483 C   0  0  0  0  0  0  0  0  0  0  0  0
    9.3619  -17.9439   27.4963 O   0  0  0  0  0  0  0  0  0  0  0  0
   10.7179  -16.4570   28.5216 O   0  0  0  0  0  0  0  0  0  0  0  0
  2  1  1  6
  2  3  1  0
  2  9  1  0
  3  4  1  0
  4  5  2  0
  4  8  1  0
  5  6  1  0
  6  7  1  0
  8  7  2  0
  9 10  2  0
 12 11  1  6
 12 14  1  0
 13  9  1  0
 13 12  1  0
 14 15  2  0
 16 14  1  0
 16 17  1  0
 17 28  1  0
 17 18  1  1
 19 27  1  0
 19 18  1  0
 20 19  2  0
 21 20  1  0
 21 22  1  0
 22 27  2  0
 23 22  1  0
 23 24  2  0
 24 25  1  0
 25 26  2  0
 27 26  1  0
 28 30  2  0
 28 29  1  0
M  END
$$$$
