HAW.pdb
     RDKit          3D

 30 32  0  0  1  0  0  0  0  0999 V2000
    7.6879  -16.6700   18.9582 N   0  0  0  0  0  0  0  0  0  0  0  0
    8.5504  -15.8816   19.8577 C   0  0  1  0  0  0  0  0  0  0  0  0
    8.0144  -14.4840   19.7996 C   0  0  0  0  0  0  0  0  0  0  0  0
    8.1910  -13.9355   18.4139 C   0  0  0  0  0  0  0  0  0  0  0  0
    8.7440  -14.6054   17.3478 C   0  0  0  0  0  0  0  0  0  0  0  0
    8.7378  -13.7695   16.3044 N   0  0  0  0  0  0  0  0  0  0  0  0
    8.1977  -12.6089   16.7017 C   0  0  0  0  0  0  0  0  0  0  0  0
    7.8650  -12.7095   17.9848 N   0  0  0  0  0  0  0  0  0  0  0  0
    8.4630  -16.3965   21.2393 C   0  0  0  0  0  0  0  0  0  0  0  0
    7.4600  -16.2253   21.9540 O   0  0  0  0  0  0  0  0  0  0  0  0
   10.2038  -19.1245   23.0657 C   0  0  0  0  0  0  0  0  0  0  0  0
    9.4505  -17.8147   23.0722 C   0  0  2  0  0  0  0  0  0  0  0  0
    9.5521  -17.1224   21.8088 N   0  0  0  0  0  0  0  0  0  0  0  0
   10.0750  -16.9614   24.1154 C   0  0  0  0  0  0  0  0  0  0  0  0
   11.0660  -16.2385   23.8444 O   0  0  0  0  0  0  0  0  0  0  0  0
    9.5947  -16.9189   25.4461 N   0  0  0  0  0  0  0  0  0  0  0  0
   10.4206  -16.3542   26.4909 C   0  0  1  0  0  0  0  0  0  0  0  0
    9.8622  -15.0996   27.0692 C   0  0  0  0  0  0  0  0  0  0  0  0
    8.4307  -14.9947   26.6947 C   0  0  0  0  0  0  0  0  0  0  0  0
    7.4784  -15.9819   26.5542 C   0  0  0  0  0  0  0  0  0  0  0  0
    6.3308  -15.3894   26.1941 N   0  0  0  0  0  0  0  0  0  0  0  0
    6.4792  -14.0706   26.0912 C   0  0  0  0  0  0  0  0  0  0  0  0
    5.6609  -12.9992   25.7641 C   0  0  0  0  0  0  0  0  0  0  0  0
    6.1444  -11.7034   25.7495 C   0  0  0  0  0  0  0  0  0  0  0  0
    7.4491  -11.4462   26.0592 C   0  0  0  0  0  0  0  0  0  0  0  0
    8.2761  -12.4837   26.3848 C   0  0  0  0  0  0  0  0  0  0  0  0
    7.7925  -13.7876   26.4003 C   0  0  0  0  0  0  0  0  0  0  0  0
   10.5631  -17.3621   27.5577 C   0  0  0  0  0  0  0  0  0  0  0  0
   11.4640  -17.1480   28.5823 O   0  0  0  0  0  0  0  0  0  0  0  0
    9.8927  -18.4190   27.5741 O   0  0  0  0  0  0  0  0  0  0  0  0
  2  1  1  6
  2  3  1  0
  2  9  1  0
  3  4  1  0
  4  5  2  0
  4  8  1  0
  5  6  1  0
  6  7  1  0
  8  7  2  0
  9 10  2  0
 12 11  1  6
 12 14  1  0
 13  9  1  0
 13 12  1  0
 14 15  2  0
 16 14  1  0
 16 17  1  0
 17 28  1  0
 17 18  1  1
 19 27  1  0
 19 18  1  0
 20 19  2  0
 21 20  1  0
 21 22  1  0
 22 27  2  0
 23 22  1  0
 23 24  2  0
 24 25  1  0
 25 26  2  0
 27 26  1  0
 28 30  2  0
 28 29  1  0
M  END
$$$$
