HAW.pdb
     RDKit          3D

 30 32  0  0  1  0  0  0  0  0999 V2000
    9.5091  -15.2536   19.0552 N   0  0  0  0  0  0  0  0  0  0  0  0
    8.6405  -14.5398   20.0094 C   0  0  1  0  0  0  0  0  0  0  0  0
    7.3482  -14.3205   19.2843 C   0  0  0  0  0  0  0  0  0  0  0  0
    7.6249  -13.7359   17.9301 C   0  0  0  0  0  0  0  0  0  0  0  0
    8.8679  -13.4494   17.4161 C   0  0  0  0  0  0  0  0  0  0  0  0
    8.6858  -12.9267   16.1992 N   0  0  0  0  0  0  0  0  0  0  0  0
    7.3686  -12.8851   15.9548 C   0  0  0  0  0  0  0  0  0  0  0  0
    6.7229  -13.3773   17.0075 N   0  0  0  0  0  0  0  0  0  0  0  0
    8.4081  -15.3643   21.2127 C   0  0  0  0  0  0  0  0  0  0  0  0
    7.6138  -15.0295   22.1088 O   0  0  0  0  0  0  0  0  0  0  0  0
    9.4168  -18.8552   22.2930 C   0  0  0  0  0  0  0  0  0  0  0  0
    8.8897  -17.4586   22.5271 C   0  0  2  0  0  0  0  0  0  0  0  0
    9.1042  -16.5981   21.3872 N   0  0  0  0  0  0  0  0  0  0  0  0
    9.6464  -16.8974   23.6754 C   0  0  0  0  0  0  0  0  0  0  0  0
   10.7881  -16.4001   23.5100 O   0  0  0  0  0  0  0  0  0  0  0  0
    9.1298  -16.8935   24.9932 N   0  0  0  0  0  0  0  0  0  0  0  0
    9.9620  -16.4511   26.0904 C   0  0  1  0  0  0  0  0  0  0  0  0
    9.4548  -15.2168   26.7535 C   0  0  0  0  0  0  0  0  0  0  0  0
    8.1211  -14.8860   26.1948 C   0  0  0  0  0  0  0  0  0  0  0  0
    7.1112  -15.7196   25.7629 C   0  0  0  0  0  0  0  0  0  0  0  0
    6.1023  -14.9465   25.3365 N   0  0  0  0  0  0  0  0  0  0  0  0
    6.3955  -13.6544   25.4652 C   0  0  0  0  0  0  0  0  0  0  0  0
    5.7518  -12.4557   25.1945 C   0  0  0  0  0  0  0  0  0  0  0  0
    6.3574  -11.2397   25.4549 C   0  0  0  0  0  0  0  0  0  0  0  0
    7.6131  -11.1902   25.9888 C   0  0  0  0  0  0  0  0  0  0  0  0
    8.2689  -12.3565   26.2646 C   0  0  0  0  0  0  0  0  0  0  0  0
    7.6624  -13.5805   26.0038 C   0  0  0  0  0  0  0  0  0  0  0  0
   10.0344  -17.5420   27.0798 C   0  0  0  0  0  0  0  0  0  0  0  0
   10.9029  -17.4371   28.1484 O   0  0  0  0  0  0  0  0  0  0  0  0
    9.3320  -18.5742   26.9908 O   0  0  0  0  0  0  0  0  0  0  0  0
  2  1  1  6
  2  3  1  0
  2  9  1  0
  3  4  1  0
  4  5  2  0
  4  8  1  0
  5  6  1  0
  6  7  1  0
  8  7  2  0
  9 10  2  0
 12 11  1  6
 12 14  1  0
 13  9  1  0
 13 12  1  0
 14 15  2  0
 16 14  1  0
 16 17  1  0
 17 28  1  0
 17 18  1  1
 19 27  1  0
 19 18  1  0
 20 19  2  0
 21 20  1  0
 21 22  1  0
 22 27  2  0
 23 22  1  0
 23 24  2  0
 24 25  1  0
 25 26  2  0
 27 26  1  0
 28 30  2  0
 28 29  1  0
M  END
$$$$
