HAW.pdb
     RDKit          3D

 30 32  0  0  1  0  0  0  0  0999 V2000
    8.4792  -16.8144   19.5524 N   0  0  0  0  0  0  0  0  0  0  0  0
    8.7969  -15.9179   20.6792 C   0  0  1  0  0  0  0  0  0  0  0  0
    7.6733  -14.9284   20.7299 C   0  0  0  0  0  0  0  0  0  0  0  0
    7.6974  -14.0774   19.4940 C   0  0  0  0  0  0  0  0  0  0  0  0
    8.3069  -12.8505   19.3736 C   0  0  0  0  0  0  0  0  0  0  0  0
    8.0841  -12.4145   18.1297 N   0  0  0  0  0  0  0  0  0  0  0  0
    7.3563  -13.3384   17.4868 C   0  0  0  0  0  0  0  0  0  0  0  0
    7.1209  -14.3501   18.3164 N   0  0  0  0  0  0  0  0  0  0  0  0
    8.8542  -16.6785   21.9441 C   0  0  0  0  0  0  0  0  0  0  0  0
    7.8738  -17.2930   22.3993 O   0  0  0  0  0  0  0  0  0  0  0  0
   11.4438  -18.3878   23.8693 C   0  0  0  0  0  0  0  0  0  0  0  0
   10.2006  -17.5294   23.8958 C   0  0  2  0  0  0  0  0  0  0  0  0
   10.0643  -16.7323   22.6992 N   0  0  0  0  0  0  0  0  0  0  0  0
   10.3374  -16.6052   25.0506 C   0  0  0  0  0  0  0  0  0  0  0  0
   10.9770  -15.5297   24.9394 O   0  0  0  0  0  0  0  0  0  0  0  0
    9.7643  -16.8830   26.3146 N   0  0  0  0  0  0  0  0  0  0  0  0
   10.0482  -16.0178   27.4385 C   0  0  1  0  0  0  0  0  0  0  0  0
    8.8214  -15.5010   28.1082 C   0  0  0  0  0  0  0  0  0  0  0  0
    7.8493  -15.0806   27.0696 C   0  0  0  0  0  0  0  0  0  0  0  0
    7.0133  -15.8418   26.2804 C   0  0  0  0  0  0  0  0  0  0  0  0
    6.3292  -15.0034   25.4887 N   0  0  0  0  0  0  0  0  0  0  0  0
    6.6708  -13.7371   25.7158 C   0  0  0  0  0  0  0  0  0  0  0  0
    6.3012  -12.4999   25.2086 C   0  0  0  0  0  0  0  0  0  0  0  0
    6.8702  -11.3305   25.6796 C   0  0  0  0  0  0  0  0  0  0  0  0
    7.8169  -11.3667   26.6629 C   0  0  0  0  0  0  0  0  0  0  0  0
    8.1988  -12.5724   27.1795 C   0  0  0  0  0  0  0  0  0  0  0  0
    7.6282  -13.7497   26.7077 C   0  0  0  0  0  0  0  0  0  0  0  0
   10.8514  -16.7799   28.4123 C   0  0  0  0  0  0  0  0  0  0  0  0
   11.1726  -18.0970   28.1493 O   0  0  0  0  0  0  0  0  0  0  0  0
   11.2604  -16.2763   29.4828 O   0  0  0  0  0  0  0  0  0  0  0  0
  2  1  1  6
  2  3  1  0
  2  9  1  0
  3  4  1  0
  4  5  2  0
  4  8  1  0
  5  6  1  0
  6  7  1  0
  8  7  2  0
  9 10  2  0
 12 11  1  6
 12 14  1  0
 13  9  1  0
 13 12  1  0
 14 15  2  0
 16 14  1  0
 16 17  1  0
 17 28  1  0
 17 18  1  1
 19 27  1  0
 19 18  1  0
 20 19  2  0
 21 20  1  0
 21 22  1  0
 22 27  2  0
 23 22  1  0
 23 24  2  0
 24 25  1  0
 25 26  2  0
 27 26  1  0
 28 30  2  0
 28 29  1  0
M  END
$$$$
