PIA.pdb
     RDKit          3D

 21 21  0  0  1  0  0  0  0  0999 V2000
   27.3697  -19.1292  -15.1124 N   0  0  0  0  0  0  0  0  0  0  0  0
   28.6836  -18.6623  -15.4537 C   0  0  0  0  0  0  0  0  0  0  0  0
   29.5814  -19.8816  -15.5501 C   0  0  0  0  0  0  0  0  0  0  0  0
   28.7925  -20.8780  -14.6893 C   0  0  0  0  0  0  0  0  0  0  0  0
   27.3855  -20.5717  -15.1637 C   0  0  1  0  0  0  0  0  0  0  0  0
   26.3645  -21.1812  -14.2879 C   0  0  0  0  0  0  0  0  0  0  0  0
   26.1036  -22.3974  -14.4497 O   0  0  0  0  0  0  0  0  0  0  0  0
   26.2409  -20.4342   -9.0924 C   0  0  0  0  0  0  0  0  0  0  0  0
   26.1373  -21.0632  -10.4727 C   0  0  0  0  0  0  0  0  0  0  0  0
   24.8357  -20.6066  -11.0747 C   0  0  2  0  0  0  0  0  0  0  0  0
   23.7046  -21.1438  -10.2267 C   0  0  0  0  0  0  0  0  0  0  0  0
   24.6761  -21.0606  -12.5040 C   0  0  2  0  0  0  0  0  0  0  0  0
   25.7010  -20.4422  -13.3059 N   0  0  0  0  0  0  0  0  0  0  0  0
   23.3224  -20.6225  -12.9799 C   0  0  0  0  0  0  0  0  0  0  0  0
   23.0443  -19.3971  -13.0034 O   0  0  0  0  0  0  0  0  0  0  0  0
   20.4916  -22.2308  -14.7847 C   0  0  0  0  0  0  0  0  0  0  0  0
   21.1000  -21.1849  -13.8713 C   0  0  2  0  0  0  0  0  0  0  0  0
   22.3809  -21.6055  -13.3950 N   0  0  0  0  0  0  0  0  0  0  0  0
   20.1439  -20.9391  -12.7577 C   0  0  0  0  0  0  0  0  0  0  0  0
   20.3684  -21.3507  -11.5853 O   0  0  0  0  0  0  0  0  0  0  0  0
   18.9899  -20.2442  -13.0272 O   0  0  0  0  0  0  0  0  0  0  0  0
  2  1  1  0
  3  4  1  0
  3  2  1  0
  4  5  1  0
  5  1  1  0
  5  6  1  1
  7  6  2  0
  9  8  1  0
 10  9  1  0
 10 11  1  1
 12 10  1  0
 12 13  1  6
 13  6  1  0
 14 12  1  0
 15 14  2  0
 17 16  1  6
 17 18  1  0
 18 14  1  0
 19 17  1  0
 19 21  1  0
 20 19  2  0
M  END
$$$$
