PIA.pdb
     RDKit          3D

 21 21  0  0  1  0  0  0  0  0999 V2000
   24.0337  -12.1571  -16.3779 N   0  0  0  0  0  0  0  0  0  0  0  0
   24.3428  -13.5354  -16.6339 C   0  0  0  0  0  0  0  0  0  0  0  0
   23.9909  -13.8118  -18.0837 C   0  0  0  0  0  0  0  0  0  0  0  0
   22.9789  -12.6875  -18.3445 C   0  0  0  0  0  0  0  0  0  0  0  0
   23.6751  -11.5433  -17.6342 C   0  0  1  0  0  0  0  0  0  0  0  0
   22.7837  -10.3786  -17.4619 C   0  0  0  0  0  0  0  0  0  0  0  0
   22.4542   -9.7357  -18.4873 O   0  0  0  0  0  0  0  0  0  0  0  0
   18.9122  -11.4848  -15.9183 C   0  0  0  0  0  0  0  0  0  0  0  0
   19.1958  -10.0835  -16.4356 C   0  0  0  0  0  0  0  0  0  0  0  0
   20.1118   -9.4184  -15.4439 C   0  0  2  0  0  0  0  0  0  0  0  0
   19.3594   -8.2819  -14.7887 C   0  0  0  0  0  0  0  0  0  0  0  0
   21.3750   -8.9041  -16.0875 C   0  0  2  0  0  0  0  0  0  0  0  0
   22.3132   -9.9913  -16.2052 N   0  0  0  0  0  0  0  0  0  0  0  0
   21.9426   -7.8342  -15.2020 C   0  0  0  0  0  0  0  0  0  0  0  0
   22.3745   -8.1422  -14.0627 O   0  0  0  0  0  0  0  0  0  0  0  0
   22.6945   -4.1727  -15.6078 C   0  0  0  0  0  0  0  0  0  0  0  0
   22.5867   -5.4855  -14.8572 C   0  0  2  0  0  0  0  0  0  0  0  0
   21.9797   -6.4915  -15.6721 N   0  0  0  0  0  0  0  0  0  0  0  0
   21.8139   -5.2366  -13.6100 C   0  0  0  0  0  0  0  0  0  0  0  0
   20.5574   -5.3539  -13.5716 O   0  0  0  0  0  0  0  0  0  0  0  0
   22.4996   -4.8699  -12.4774 O   0  0  0  0  0  0  0  0  0  0  0  0
  2  1  1  0
  3  4  1  0
  3  2  1  0
  4  5  1  0
  5  1  1  0
  5  6  1  1
  7  6  2  0
  9  8  1  0
 10  9  1  0
 10 11  1  6
 12 10  1  0
 12 13  1  1
 13  6  1  0
 14 12  1  0
 15 14  2  0
 17 16  1  6
 17 18  1  0
 18 14  1  0
 19 17  1  0
 19 21  1  0
 20 19  2  0
M  END
$$$$
