PIA.pdb
     RDKit          3D

 21 21  0  0  1  0  0  0  0  0999 V2000
   28.4514  -20.7729  -15.7664 N   0  0  0  0  0  0  0  0  0  0  0  0
   28.9213  -19.9665  -16.8571 C   0  0  0  0  0  0  0  0  0  0  0  0
   28.3073  -18.5887  -16.6929 C   0  0  0  0  0  0  0  0  0  0  0  0
   27.0897  -18.9278  -15.8219 C   0  0  0  0  0  0  0  0  0  0  0  0
   27.7255  -19.9137  -14.8616 C   0  0  1  0  0  0  0  0  0  0  0  0
   26.7132  -20.6460  -14.0743 C   0  0  0  0  0  0  0  0  0  0  0  0
   26.3153  -21.7513  -14.5141 O   0  0  0  0  0  0  0  0  0  0  0  0
   26.3334  -20.3231   -8.6846 C   0  0  0  0  0  0  0  0  0  0  0  0
   26.3268  -20.9261  -10.0802 C   0  0  0  0  0  0  0  0  0  0  0  0
   25.0865  -20.4312  -10.7743 C   0  0  2  0  0  0  0  0  0  0  0  0
   23.8829  -21.0380  -10.0884 C   0  0  0  0  0  0  0  0  0  0  0  0
   25.0772  -20.7747  -12.2428 C   0  0  2  0  0  0  0  0  0  0  0  0
   26.2043  -20.1391  -12.8765 N   0  0  0  0  0  0  0  0  0  0  0  0
   23.7997  -20.2527  -12.8316 C   0  0  0  0  0  0  0  0  0  0  0  0
   23.5487  -19.0230  -12.7669 O   0  0  0  0  0  0  0  0  0  0  0  0
   21.2649  -21.5724  -15.1997 C   0  0  0  0  0  0  0  0  0  0  0  0
   21.7203  -20.6544  -14.0825 C   0  0  2  0  0  0  0  0  0  0  0  0
   22.8985  -21.1628  -13.4517 N   0  0  0  0  0  0  0  0  0  0  0  0
   20.5924  -20.5085  -13.1227 C   0  0  0  0  0  0  0  0  0  0  0  0
   20.5812  -21.1108  -12.0130 O   0  0  0  0  0  0  0  0  0  0  0  0
   19.5416  -19.6930  -13.4667 O   0  0  0  0  0  0  0  0  0  0  0  0
  2  1  1  0
  3  4  1  0
  3  2  1  0
  4  5  1  0
  5  1  1  0
  5  6  1  6
  7  6  2  0
  9  8  1  0
 10  9  1  0
 10 11  1  1
 12 10  1  0
 12 13  1  6
 13  6  1  0
 14 12  1  0
 15 14  2  0
 17 16  1  6
 17 18  1  0
 18 14  1  0
 19 17  1  0
 19 21  1  0
 20 19  2  0
M  END
$$$$
