PIA.pdb
     RDKit          3D

 21 21  0  0  1  0  0  0  0  0999 V2000
   28.3397  -19.2443  -16.1090 N   0  0  0  0  0  0  0  0  0  0  0  0
   28.6718  -18.0650  -16.8572 C   0  0  0  0  0  0  0  0  0  0  0  0
   27.9039  -16.9114  -16.2394 C   0  0  0  0  0  0  0  0  0  0  0  0
   26.7665  -17.6731  -15.5450 C   0  0  0  0  0  0  0  0  0  0  0  0
   27.5484  -18.8387  -14.9719 C   0  0  1  0  0  0  0  0  0  0  0  0
   26.6587  -19.9135  -14.4882 C   0  0  0  0  0  0  0  0  0  0  0  0
   26.3896  -20.8513  -15.2766 O   0  0  0  0  0  0  0  0  0  0  0  0
   25.2523  -20.3675   -9.0206 C   0  0  0  0  0  0  0  0  0  0  0  0
   25.1465  -19.9585  -10.4812 C   0  0  0  0  0  0  0  0  0  0  0  0
   25.3982  -21.1901  -11.3088 C   0  0  2  0  0  0  0  0  0  0  0  0
   26.8071  -21.6673  -11.0358 C   0  0  0  0  0  0  0  0  0  0  0  0
   25.2110  -20.9362  -12.7836 C   0  0  2  0  0  0  0  0  0  0  0  0
   26.1250  -19.9023  -13.1976 N   0  0  0  0  0  0  0  0  0  0  0  0
   23.7970  -20.4832  -12.9989 C   0  0  0  0  0  0  0  0  0  0  0  0
   23.4866  -19.2917  -12.7471 O   0  0  0  0  0  0  0  0  0  0  0  0
   20.9707  -21.5845  -15.0278 C   0  0  0  0  0  0  0  0  0  0  0  0
   21.5054  -20.9646  -13.7518 C   0  0  2  0  0  0  0  0  0  0  0  0
   22.8363  -21.4140  -13.4843 N   0  0  0  0  0  0  0  0  0  0  0  0
   20.5679  -21.3094  -12.6486 C   0  0  0  0  0  0  0  0  0  0  0  0
   19.4034  -20.8250  -12.5896 O   0  0  0  0  0  0  0  0  0  0  0  0
   20.9948  -22.1796  -11.6750 O   0  0  0  0  0  0  0  0  0  0  0  0
  2  1  1  0
  3  4  1  0
  3  2  1  0
  4  5  1  0
  5  1  1  0
  5  6  1  6
  7  6  2  0
  9  8  1  0
 10  9  1  0
 10 11  1  6
 12 10  1  0
 12 13  1  1
 13  6  1  0
 14 12  1  0
 15 14  2  0
 17 16  1  6
 17 18  1  0
 18 14  1  0
 19 17  1  0
 19 21  1  0
 20 19  2  0
M  END
$$$$
