PIA.pdb
     RDKit          3D

 21 21  0  0  1  0  0  0  0  0999 V2000
   27.4454  -19.2457  -15.2538 N   0  0  0  0  0  0  0  0  0  0  0  0
   28.7931  -18.9124  -15.6192 C   0  0  0  0  0  0  0  0  0  0  0  0
   29.5399  -20.2184  -15.8163 C   0  0  0  0  0  0  0  0  0  0  0  0
   28.6684  -21.1670  -14.9816 C   0  0  0  0  0  0  0  0  0  0  0  0
   27.2921  -20.6750  -15.3844 C   0  0  1  0  0  0  0  0  0  0  0  0
   26.2357  -21.2144  -14.5048 C   0  0  0  0  0  0  0  0  0  0  0  0
   25.9535  -22.4324  -14.6061 O   0  0  0  0  0  0  0  0  0  0  0  0
   26.1109  -20.4411   -9.3532 C   0  0  0  0  0  0  0  0  0  0  0  0
   25.9631  -21.0676  -10.7306 C   0  0  0  0  0  0  0  0  0  0  0  0
   24.7089  -20.5059  -11.3442 C   0  0  2  0  0  0  0  0  0  0  0  0
   23.5322  -20.9279  -10.4930 C   0  0  0  0  0  0  0  0  0  0  0  0
   24.5132  -20.9648  -12.7675 C   0  0  2  0  0  0  0  0  0  0  0  0
   25.5621  -20.4088  -13.5840 N   0  0  0  0  0  0  0  0  0  0  0  0
   23.1801  -20.4609  -13.2366 C   0  0  0  0  0  0  0  0  0  0  0  0
   22.9361  -19.2290  -13.1906 O   0  0  0  0  0  0  0  0  0  0  0  0
   20.3331  -21.8840  -15.1702 C   0  0  0  0  0  0  0  0  0  0  0  0
   20.9593  -20.9058  -14.1957 C   0  0  2  0  0  0  0  0  0  0  0  0
   22.2193  -21.3904  -13.7243 N   0  0  0  0  0  0  0  0  0  0  0  0
   19.9944  -20.6875  -13.0840 C   0  0  0  0  0  0  0  0  0  0  0  0
   20.1427  -21.2370  -11.9570 O   0  0  0  0  0  0  0  0  0  0  0  0
   18.9177  -19.8631  -13.3044 O   0  0  0  0  0  0  0  0  0  0  0  0
  2  1  1  0
  3  4  1  0
  3  2  1  0
  4  5  1  0
  5  1  1  0
  5  6  1  1
  7  6  2  0
  9  8  1  0
 10  9  1  0
 10 11  1  1
 12 10  1  0
 12 13  1  6
 13  6  1  0
 14 12  1  0
 15 14  2  0
 17 16  1  6
 17 18  1  0
 18 14  1  0
 19 17  1  0
 19 21  1  0
 20 19  2  0
M  END
$$$$
