PIA.pdb
     RDKit          3D

 21 21  0  0  1  0  0  0  0  0999 V2000
   28.1170  -18.1678  -16.0072 N   0  0  0  0  0  0  0  0  0  0  0  0
   28.1742  -16.8814  -16.6418 C   0  0  0  0  0  0  0  0  0  0  0  0
   27.3557  -15.9264  -15.7932 C   0  0  0  0  0  0  0  0  0  0  0  0
   26.4451  -16.9181  -15.0561 C   0  0  0  0  0  0  0  0  0  0  0  0
   27.4524  -18.0051  -14.7362 C   0  0  1  0  0  0  0  0  0  0  0  0
   26.7961  -19.2457  -14.2769 C   0  0  0  0  0  0  0  0  0  0  0  0
   26.8688  -20.2561  -15.0166 O   0  0  0  0  0  0  0  0  0  0  0  0
   26.2439  -19.9414   -8.9614 C   0  0  0  0  0  0  0  0  0  0  0  0
   26.5844  -20.4168  -10.3648 C   0  0  0  0  0  0  0  0  0  0  0  0
   25.2947  -20.4872  -11.1373 C   0  0  2  0  0  0  0  0  0  0  0  0
   24.5280  -21.7056  -10.6738 C   0  0  0  0  0  0  0  0  0  0  0  0
   25.5229  -20.5509  -12.6268 C   0  0  2  0  0  0  0  0  0  0  0  0
   26.1121  -19.3098  -13.0609 N   0  0  0  0  0  0  0  0  0  0  0  0
   24.1912  -20.7431  -13.2907 C   0  0  0  0  0  0  0  0  0  0  0  0
   23.5464  -21.8017  -13.0833 O   0  0  0  0  0  0  0  0  0  0  0  0
   21.6164  -18.5918  -14.7188 C   0  0  0  0  0  0  0  0  0  0  0  0
   22.4004  -19.8891  -14.7445 C   0  0  2  0  0  0  0  0  0  0  0  0
   23.6863  -19.7209  -14.1423 N   0  0  0  0  0  0  0  0  0  0  0  0
   22.5016  -20.3338  -16.1611 C   0  0  0  0  0  0  0  0  0  0  0  0
   23.6136  -20.4213  -16.7528 O   0  0  0  0  0  0  0  0  0  0  0  0
   21.3457  -20.6545  -16.8306 O   0  0  0  0  0  0  0  0  0  0  0  0
  2  1  1  0
  3  4  1  0
  3  2  1  0
  4  5  1  0
  5  1  1  0
  5  6  1  6
  7  6  2  0
  9  8  1  0
 10  9  1  0
 10 11  1  1
 12 10  1  0
 12 13  1  6
 13  6  1  0
 14 12  1  0
 15 14  2  0
 17 16  1  6
 17 18  1  0
 18 14  1  0
 19 17  1  0
 19 21  1  0
 20 19  2  0
M  END
$$$$
