PIA.pdb
     RDKit          3D

 21 21  0  0  1  0  0  0  0  0999 V2000
   20.6841  -19.4258  -14.7911 N   0  0  0  0  0  0  0  0  0  0  0  0
   19.5592  -19.9022  -15.5450 C   0  0  0  0  0  0  0  0  0  0  0  0
   19.8311  -21.3556  -15.8857 C   0  0  0  0  0  0  0  0  0  0  0  0
   21.3610  -21.3888  -15.7657 C   0  0  0  0  0  0  0  0  0  0  0  0
   21.5401  -20.5542  -14.5127 C   0  0  1  0  0  0  0  0  0  0  0  0
   22.9490  -20.1606  -14.3104 C   0  0  0  0  0  0  0  0  0  0  0  0
   23.3103  -19.0365  -14.7340 O   0  0  0  0  0  0  0  0  0  0  0  0
   25.6956  -20.9661   -9.8369 C   0  0  0  0  0  0  0  0  0  0  0  0
   25.1471  -20.3585  -11.1181 C   0  0  0  0  0  0  0  0  0  0  0  0
   25.8082  -21.0696  -12.2680 C   0  0  2  0  0  0  0  0  0  0  0  0
   27.2945  -20.7974  -12.2048 C   0  0  0  0  0  0  0  0  0  0  0  0
   25.2556  -20.6359  -13.6025 C   0  0  2  0  0  0  0  0  0  0  0  0
   23.8632  -21.0002  -13.6702 N   0  0  0  0  0  0  0  0  0  0  0  0
   26.0227  -21.3513  -14.6752 C   0  0  0  0  0  0  0  0  0  0  0  0
   26.0372  -22.6079  -14.6886 O   0  0  0  0  0  0  0  0  0  0  0  0
   28.0984  -20.2899  -17.6301 C   0  0  0  0  0  0  0  0  0  0  0  0
   27.4681  -21.2735  -16.6639 C   0  0  2  0  0  0  0  0  0  0  0  0
   26.7185  -20.5903  -15.6559 N   0  0  0  0  0  0  0  0  0  0  0  0
   28.5571  -22.1044  -16.0823 C   0  0  0  0  0  0  0  0  0  0  0  0
   29.0831  -21.8265  -14.9686 O   0  0  0  0  0  0  0  0  0  0  0  0
   28.9918  -23.2004  -16.7873 O   0  0  0  0  0  0  0  0  0  0  0  0
  2  1  1  0
  3  4  1  0
  3  2  1  0
  4  5  1  0
  5  1  1  0
  5  6  1  6
  7  6  2  0
  9  8  1  0
 10  9  1  0
 10 11  1  6
 12 10  1  0
 12 13  1  1
 13  6  1  0
 14 12  1  0
 15 14  2  0
 17 16  1  6
 17 18  1  0
 18 14  1  0
 19 17  1  0
 19 21  1  0
 20 19  2  0
M  END
$$$$
