PIA.pdb
     RDKit          3D

 21 21  0  0  1  0  0  0  0  0999 V2000
   17.4320  -10.6420  -15.0226 N   0  0  0  0  0  0  0  0  0  0  0  0
   16.5561  -11.0732  -16.0750 C   0  0  0  0  0  0  0  0  0  0  0  0
   15.8258   -9.8436  -16.5821 C   0  0  0  0  0  0  0  0  0  0  0  0
   15.9572   -8.9187  -15.3642 C   0  0  0  0  0  0  0  0  0  0  0  0
   17.3969   -9.1995  -14.9806 C   0  0  1  0  0  0  0  0  0  0  0  0
   17.7250   -8.6632  -13.6444 C   0  0  0  0  0  0  0  0  0  0  0  0
   17.4087   -9.3495  -12.6433 O   0  0  0  0  0  0  0  0  0  0  0  0
   21.7904   -6.0573  -13.8100 C   0  0  0  0  0  0  0  0  0  0  0  0
   21.1277   -6.8716  -12.7103 C   0  0  0  0  0  0  0  0  0  0  0  0
   19.9256   -6.0959  -12.2432 C   0  0  2  0  0  0  0  0  0  0  0  0
   20.2393   -5.5020  -10.8882 C   0  0  0  0  0  0  0  0  0  0  0  0
   18.6876   -6.9534  -12.1621 C   0  0  2  0  0  0  0  0  0  0  0  0
   18.3667   -7.4333  -13.4822 N   0  0  0  0  0  0  0  0  0  0  0  0
   17.5676   -6.1005  -11.6432 C   0  0  0  0  0  0  0  0  0  0  0  0
   17.0522   -5.2357  -12.3954 O   0  0  0  0  0  0  0  0  0  0  0  0
   15.5361   -6.0047   -8.4846 C   0  0  0  0  0  0  0  0  0  0  0  0
   16.0312   -5.4902   -9.8219 C   0  0  2  0  0  0  0  0  0  0  0  0
   17.1125   -6.2896  -10.3082 N   0  0  0  0  0  0  0  0  0  0  0  0
   16.4255   -4.0661   -9.6460 C   0  0  0  0  0  0  0  0  0  0  0  0
   17.6367   -3.7114   -9.6056 O   0  0  0  0  0  0  0  0  0  0  0  0
   15.4342   -3.1226   -9.5256 O   0  0  0  0  0  0  0  0  0  0  0  0
  2  1  1  0
  3  4  1  0
  3  2  1  0
  4  5  1  0
  5  1  1  0
  5  6  1  1
  7  6  2  0
  9  8  1  0
 10  9  1  0
 10 11  1  1
 12 10  1  0
 12 13  1  6
 13  6  1  0
 14 12  1  0
 15 14  2  0
 17 16  1  1
 17 18  1  0
 18 14  1  0
 19 17  1  0
 19 21  1  0
 20 19  2  0
M  END
$$$$
