QNF.pdb
     RDKit          3D

 29 29  0  0  1  0  0  0  0  0999 V2000
   19.3089  -17.7362  -16.2680 N   0  0  0  0  0  0  0  0  0  0  0  0
   18.8243  -19.0034  -15.8718 C   0  0  0  0  0  0  0  0  0  0  0  0
   18.5300  -19.8314  -16.7547 O   0  0  0  0  0  0  0  0  0  0  0  0
   18.6770  -19.3284  -14.4564 C   0  0  0  0  0  0  0  0  0  0  0  0
   19.9123  -19.3610  -13.6404 C   0  0  0  0  0  0  0  0  0  0  0  0
   20.8024  -20.5683  -13.8322 C   0  0  2  0  0  0  0  0  0  0  0  0
   20.1940  -21.8260  -13.6417 N   0  0  0  0  0  0  0  0  0  0  0  0
   22.1121  -20.4439  -13.1708 C   0  0  0  0  0  0  0  0  0  0  0  0
   22.1649  -19.6476  -12.1870 O   0  0  0  0  0  0  0  0  0  0  0  0
   26.1017  -20.1847  -10.2963 N   0  0  0  0  0  0  0  0  0  0  0  0
   25.4817  -21.4263  -10.5438 C   0  0  0  0  0  0  0  0  0  0  0  0
   26.0091  -22.4887  -10.1501 O   0  0  0  0  0  0  0  0  0  0  0  0
   24.2030  -21.5011  -11.2703 C   0  0  0  0  0  0  0  0  0  0  0  0
   24.4336  -21.0508  -12.6960 C   0  0  2  0  0  0  0  0  0  0  0  0
   23.2840  -21.1301  -13.5487 N   0  0  0  0  0  0  0  0  0  0  0  0
   25.5905  -21.8126  -13.2898 C   0  0  0  0  0  0  0  0  0  0  0  0
   25.7053  -23.0514  -13.1525 O   0  0  0  0  0  0  0  0  0  0  0  0
   26.5484  -21.0754  -14.0166 N   0  0  0  0  0  0  0  0  0  0  0  0
   26.9393  -21.4410  -15.4004 C   0  0  1  0  0  0  0  0  0  0  0  0
   25.6843  -21.6094  -16.2250 C   0  0  0  0  0  0  0  0  0  0  0  0
   26.0378  -21.9053  -17.6155 C   0  0  0  0  0  0  0  0  0  0  0  0
   26.3942  -20.9222  -18.4879 C   0  0  0  0  0  0  0  0  0  0  0  0
   26.7116  -21.2626  -19.7823 C   0  0  0  0  0  0  0  0  0  0  0  0
   26.6760  -22.5833  -20.2183 C   0  0  0  0  0  0  0  0  0  0  0  0
   26.3194  -23.5586  -19.3439 C   0  0  0  0  0  0  0  0  0  0  0  0
   25.9968  -23.2282  -18.0328 C   0  0  0  0  0  0  0  0  0  0  0  0
   27.9115  -20.5079  -15.9373 C   0  0  0  0  0  0  0  0  0  0  0  0
   29.0808  -20.9474  -16.5661 O   0  0  0  0  0  0  0  0  0  0  0  0
   27.7445  -19.2750  -15.8587 O   0  0  0  0  0  0  0  0  0  0  0  0
  1  2  1  0
  2  3  2  0
  4  2  1  0
  4  5  1  0
  6  5  1  0
  6  7  1  1
  8  9  2  0
  8  6  1  0
 10 11  1  0
 11 12  2  0
 11 13  1  0
 14 13  1  1
 14 15  1  0
 15  8  1  0
 16 18  1  0
 16 14  1  0
 17 16  2  0
 19 20  1  6
 19 18  1  0
 21 22  2  0
 21 20  1  0
 23 22  1  0
 24 23  2  0
 25 24  1  0
 25 26  2  0
 26 21  1  0
 27 19  1  0
 28 27  1  0
 29 27  2  0
M  END
$$$$
