QNF.pdb
     RDKit          3D

 29 29  0  0  1  0  0  0  0  0999 V2000
   10.2935   -9.6189  -10.5997 N   0  0  0  0  0  0  0  0  0  0  0  0
   11.0214   -9.9795   -9.4430 C   0  0  0  0  0  0  0  0  0  0  0  0
   10.4022  -10.1331   -8.3732 O   0  0  0  0  0  0  0  0  0  0  0  0
   12.4673  -10.1686   -9.5093 C   0  0  0  0  0  0  0  0  0  0  0  0
   13.0990  -10.0719  -10.8452 C   0  0  0  0  0  0  0  0  0  0  0  0
   14.6022  -10.2326  -10.8814 C   0  0  2  0  0  0  0  0  0  0  0  0
   15.1495  -11.1677   -9.9790 N   0  0  0  0  0  0  0  0  0  0  0  0
   15.3295   -8.9527  -10.9131 C   0  0  0  0  0  0  0  0  0  0  0  0
   15.0078   -8.1531  -11.8415 O   0  0  0  0  0  0  0  0  0  0  0  0
   14.7329   -6.3481   -7.6334 N   0  0  0  0  0  0  0  0  0  0  0  0
   15.4729   -5.9531   -8.7664 C   0  0  0  0  0  0  0  0  0  0  0  0
   14.9536   -5.2289   -9.6426 O   0  0  0  0  0  0  0  0  0  0  0  0
   16.8699   -6.3833   -8.9444 C   0  0  0  0  0  0  0  0  0  0  0  0
   16.9456   -7.2771  -10.1626 C   0  0  2  0  0  0  0  0  0  0  0  0
   16.3367   -8.5654  -10.0063 N   0  0  0  0  0  0  0  0  0  0  0  0
   18.3801   -7.4161  -10.6037 C   0  0  0  0  0  0  0  0  0  0  0  0
   19.1609   -8.2313  -10.0632 O   0  0  0  0  0  0  0  0  0  0  0  0
   18.8172   -6.5902  -11.6601 N   0  0  0  0  0  0  0  0  0  0  0  0
   20.0800   -6.8520  -12.3937 C   0  0  1  0  0  0  0  0  0  0  0  0
   20.0506   -8.2725  -12.9081 C   0  0  0  0  0  0  0  0  0  0  0  0
   21.3149   -8.5860  -13.5783 C   0  0  0  0  0  0  0  0  0  0  0  0
   21.4790   -8.4033  -14.9178 C   0  0  0  0  0  0  0  0  0  0  0  0
   22.6890   -8.7199  -15.4903 C   0  0  0  0  0  0  0  0  0  0  0  0
   23.7441   -9.2212  -14.7346 C   0  0  0  0  0  0  0  0  0  0  0  0
   23.5739   -9.4014  -13.3998 C   0  0  0  0  0  0  0  0  0  0  0  0
   22.3563   -9.0848  -12.8086 C   0  0  0  0  0  0  0  0  0  0  0  0
   20.3261   -5.8354  -13.3987 C   0  0  0  0  0  0  0  0  0  0  0  0
   21.5883   -5.2558  -13.5624 O   0  0  0  0  0  0  0  0  0  0  0  0
   19.4211   -5.4357  -14.1572 O   0  0  0  0  0  0  0  0  0  0  0  0
  1  2  1  0
  2  3  2  0
  4  2  1  0
  4  5  1  0
  6  5  1  0
  6  7  1  1
  8  9  2  0
  8  6  1  0
 10 11  1  0
 11 12  2  0
 11 13  1  0
 14 13  1  1
 14 15  1  0
 15  8  1  0
 16 18  1  0
 16 14  1  0
 17 16  2  0
 19 20  1  6
 19 18  1  0
 21 22  2  0
 21 20  1  0
 23 22  1  0
 24 23  2  0
 25 24  1  0
 25 26  2  0
 26 21  1  0
 27 19  1  0
 28 27  1  0
 29 27  2  0
M  END
$$$$
