QNF.pdb
     RDKit          3D

 29 29  0  0  1  0  0  0  0  0999 V2000
   31.6724  -27.9112  -22.4463 N   0  0  0  0  0  0  0  0  0  0  0  0
   32.7376  -28.8397  -22.4135 C   0  0  0  0  0  0  0  0  0  0  0  0
   32.5501  -29.9783  -22.8824 O   0  0  0  0  0  0  0  0  0  0  0  0
   34.0276  -28.4640  -21.8429 C   0  0  0  0  0  0  0  0  0  0  0  0
   34.1064  -27.1519  -21.1610 C   0  0  0  0  0  0  0  0  0  0  0  0
   34.5140  -27.1843  -19.7052 C   0  0  2  0  0  0  0  0  0  0  0  0
   35.5995  -28.0241  -19.3819 N   0  0  0  0  0  0  0  0  0  0  0  0
   33.3765  -27.3130  -18.7792 C   0  0  0  0  0  0  0  0  0  0  0  0
   33.4999  -28.1798  -17.8636 O   0  0  0  0  0  0  0  0  0  0  0  0
   28.9035  -24.7474  -15.7288 N   0  0  0  0  0  0  0  0  0  0  0  0
   30.0796  -25.4926  -15.9497 C   0  0  0  0  0  0  0  0  0  0  0  0
   30.4459  -26.3588  -15.1267 O   0  0  0  0  0  0  0  0  0  0  0  0
   30.9021  -25.2685  -17.1504 C   0  0  0  0  0  0  0  0  0  0  0  0
   31.2798  -26.6130  -17.7316 C   0  0  2  0  0  0  0  0  0  0  0  0
   32.1868  -26.5594  -18.8404 N   0  0  0  0  0  0  0  0  0  0  0  0
   30.0337  -27.3769  -18.0995 C   0  0  0  0  0  0  0  0  0  0  0  0
   29.4906  -27.2537  -19.2203 O   0  0  0  0  0  0  0  0  0  0  0  0
   29.4961  -28.2478  -17.1290 N   0  0  0  0  0  0  0  0  0  0  0  0
   28.2797  -29.0577  -17.3852 C   0  0  1  0  0  0  0  0  0  0  0  0
   28.1300  -30.0652  -16.2690 C   0  0  0  0  0  0  0  0  0  0  0  0
   26.9947  -30.9490  -16.5445 C   0  0  0  0  0  0  0  0  0  0  0  0
   27.0446  -31.8936  -17.5242 C   0  0  0  0  0  0  0  0  0  0  0  0
   25.9445  -32.6911  -17.7378 C   0  0  0  0  0  0  0  0  0  0  0  0
   24.7865  -32.5541  -16.9790 C   0  0  0  0  0  0  0  0  0  0  0  0
   24.7428  -31.6102  -16.0042 C   0  0  0  0  0  0  0  0  0  0  0  0
   25.8480  -30.7982  -15.7776 C   0  0  0  0  0  0  0  0  0  0  0  0
   27.1230  -28.2131  -17.6151 C   0  0  0  0  0  0  0  0  0  0  0  0
   26.1248  -28.5685  -18.5280 O   0  0  0  0  0  0  0  0  0  0  0  0
   26.9724  -27.1345  -17.0087 O   0  0  0  0  0  0  0  0  0  0  0  0
  1  2  1  0
  2  3  2  0
  4  2  1  0
  4  5  1  0
  6  5  1  0
  6  7  1  6
  8  9  2  0
  8  6  1  0
 10 11  1  0
 11 12  2  0
 11 13  1  0
 14 13  1  6
 14 15  1  0
 15  8  1  0
 16 18  1  0
 16 14  1  0
 17 16  2  0
 19 20  1  1
 19 18  1  0
 21 22  2  0
 21 20  1  0
 23 22  1  0
 24 23  2  0
 25 24  1  0
 25 26  2  0
 26 21  1  0
 27 19  1  0
 28 27  1  0
 29 27  2  0
M  END
$$$$
