QNF.pdb
     RDKit          3D

 29 29  0  0  1  0  0  0  0  0999 V2000
   22.9641  -16.7550  -18.4402 N   0  0  0  0  0  0  0  0  0  0  0  0
   24.2974  -16.3314  -18.6418 C   0  0  0  0  0  0  0  0  0  0  0  0
   24.5371  -15.5425  -19.5755 O   0  0  0  0  0  0  0  0  0  0  0  0
   25.3647  -16.8105  -17.7689 C   0  0  0  0  0  0  0  0  0  0  0  0
   24.9736  -17.7031  -16.6539 C   0  0  0  0  0  0  0  0  0  0  0  0
   25.9007  -18.8655  -16.3783 C   0  0  2  0  0  0  0  0  0  0  0  0
   26.3156  -19.6099  -17.5016 N   0  0  0  0  0  0  0  0  0  0  0  0
   25.4726  -19.7027  -15.2452 C   0  0  0  0  0  0  0  0  0  0  0  0
   25.0061  -20.8428  -15.5410 O   0  0  0  0  0  0  0  0  0  0  0  0
   24.6717  -20.9460   -9.3398 N   0  0  0  0  0  0  0  0  0  0  0  0
   25.0209  -21.1752  -10.6862 C   0  0  0  0  0  0  0  0  0  0  0  0
   24.8751  -22.3070  -11.1957 O   0  0  0  0  0  0  0  0  0  0  0  0
   25.5646  -20.0910  -11.5211 C   0  0  0  0  0  0  0  0  0  0  0  0
   24.9652  -20.2041  -12.9054 C   0  0  2  0  0  0  0  0  0  0  0  0
   25.5410  -19.3322  -13.8869 N   0  0  0  0  0  0  0  0  0  0  0  0
   23.4724  -20.0102  -12.8313 C   0  0  0  0  0  0  0  0  0  0  0  0
   22.9619  -18.8855  -12.6294 O   0  0  0  0  0  0  0  0  0  0  0  0
   22.6605  -21.1508  -13.0025 N   0  0  0  0  0  0  0  0  0  0  0  0
   21.1791  -21.0745  -12.9736 C   0  0  1  0  0  0  0  0  0  0  0  0
   20.7244  -20.1511  -14.0800 C   0  0  0  0  0  0  0  0  0  0  0  0
   20.1734  -18.9206  -13.5070 C   0  0  0  0  0  0  0  0  0  0  0  0
   19.3760  -18.9399  -12.4033 C   0  0  0  0  0  0  0  0  0  0  0  0
   18.8856  -17.7514  -11.9144 C   0  0  0  0  0  0  0  0  0  0  0  0
   19.1842  -16.5353  -12.5206 C   0  0  0  0  0  0  0  0  0  0  0  0
   19.9793  -16.5228  -13.6210 C   0  0  0  0  0  0  0  0  0  0  0  0
   20.4820  -17.7169  -14.1247 C   0  0  0  0  0  0  0  0  0  0  0  0
   20.5829  -22.3968  -12.9877 C   0  0  0  0  0  0  0  0  0  0  0  0
   19.3023  -22.6297  -12.4762 O   0  0  0  0  0  0  0  0  0  0  0  0
   21.1891  -23.3804  -13.4556 O   0  0  0  0  0  0  0  0  0  0  0  0
  1  2  1  0
  2  3  2  0
  4  2  1  0
  4  5  1  0
  6  5  1  0
  6  7  1  6
  8  9  2  0
  8  6  1  0
 10 11  1  0
 11 12  2  0
 11 13  1  0
 14 13  1  1
 14 15  1  0
 15  8  1  0
 16 18  1  0
 16 14  1  0
 17 16  2  0
 19 20  1  6
 19 18  1  0
 21 22  2  0
 21 20  1  0
 23 22  1  0
 24 23  2  0
 25 24  1  0
 25 26  2  0
 26 21  1  0
 27 19  1  0
 28 27  1  0
 29 27  2  0
M  END
$$$$
