QNF.pdb
     RDKit          3D

 29 29  0  0  1  0  0  0  0  0999 V2000
   28.3243  -20.0291  -22.0656 N   0  0  0  0  0  0  0  0  0  0  0  0
   28.9995  -21.2095  -21.6802 C   0  0  0  0  0  0  0  0  0  0  0  0
   29.5498  -21.8959  -22.5619 O   0  0  0  0  0  0  0  0  0  0  0  0
   29.0487  -21.6075  -20.2766 C   0  0  0  0  0  0  0  0  0  0  0  0
   28.3516  -20.7352  -19.3040 C   0  0  0  0  0  0  0  0  0  0  0  0
   28.4061  -21.1769  -17.8588 C   0  0  2  0  0  0  0  0  0  0  0  0
   28.5433  -22.5625  -17.6368 N   0  0  0  0  0  0  0  0  0  0  0  0
   27.3797  -20.5459  -17.0123 C   0  0  0  0  0  0  0  0  0  0  0  0
   26.8495  -19.4918  -17.4735 O   0  0  0  0  0  0  0  0  0  0  0  0
   24.0195  -18.5272  -16.2184 N   0  0  0  0  0  0  0  0  0  0  0  0
   24.0777  -19.7695  -16.8822 C   0  0  0  0  0  0  0  0  0  0  0  0
   23.7621  -19.8600  -18.0880 O   0  0  0  0  0  0  0  0  0  0  0  0
   24.5094  -20.9857  -16.1732 C   0  0  0  0  0  0  0  0  0  0  0  0
   25.6673  -20.6284  -15.2676 C   0  0  2  0  0  0  0  0  0  0  0  0
   26.9581  -21.0194  -15.7534 N   0  0  0  0  0  0  0  0  0  0  0  0
   25.4261  -21.1862  -13.8884 C   0  0  0  0  0  0  0  0  0  0  0  0
   25.4175  -22.4179  -13.6667 O   0  0  0  0  0  0  0  0  0  0  0  0
   25.2115  -20.2634  -12.8435 N   0  0  0  0  0  0  0  0  0  0  0  0
   25.0084  -20.6971  -11.4392 C   0  0  1  0  0  0  0  0  0  0  0  0
   25.9751  -19.9399  -10.5586 C   0  0  0  0  0  0  0  0  0  0  0  0
   27.3525  -20.2777  -10.9252 C   0  0  0  0  0  0  0  0  0  0  0  0
   28.0779  -21.1887  -10.2191 C   0  0  0  0  0  0  0  0  0  0  0  0
   29.3683  -21.4607  -10.6102 C   0  0  0  0  0  0  0  0  0  0  0  0
   29.9465  -20.8280  -11.7060 C   0  0  0  0  0  0  0  0  0  0  0  0
   29.2183  -19.9205  -12.4055 C   0  0  0  0  0  0  0  0  0  0  0  0
   27.9129  -19.6368  -12.0211 C   0  0  0  0  0  0  0  0  0  0  0  0
   23.6135  -20.5988  -11.0537 C   0  0  0  0  0  0  0  0  0  0  0  0
   23.1501  -21.1130   -9.8385 O   0  0  0  0  0  0  0  0  0  0  0  0
   22.7701  -20.0525  -11.7915 O   0  0  0  0  0  0  0  0  0  0  0  0
  1  2  1  0
  2  3  2  0
  4  2  1  0
  4  5  1  0
  6  5  1  0
  6  7  1  6
  8  9  2  0
  8  6  1  0
 10 11  1  0
 11 12  2  0
 11 13  1  0
 14 13  1  6
 14 15  1  0
 15  8  1  0
 16 18  1  0
 16 14  1  0
 17 16  2  0
 19 20  1  1
 19 18  1  0
 21 22  2  0
 21 20  1  0
 23 22  1  0
 24 23  2  0
 25 24  1  0
 25 26  2  0
 26 21  1  0
 27 19  1  0
 28 27  1  0
 29 27  2  0
M  END
$$$$
