QNF.pdb
     RDKit          3D

 29 29  0  0  1  0  0  0  0  0999 V2000
   28.7508  -17.5897  -16.5795 N   0  0  0  0  0  0  0  0  0  0  0  0
   28.2749  -18.6754  -17.3493 C   0  0  0  0  0  0  0  0  0  0  0  0
   28.8846  -18.9786  -18.3923 O   0  0  0  0  0  0  0  0  0  0  0  0
   27.0951  -19.4219  -16.9234 C   0  0  0  0  0  0  0  0  0  0  0  0
   26.5194  -19.0766  -15.6034 C   0  0  0  0  0  0  0  0  0  0  0  0
   26.9041  -19.9817  -14.4547 C   0  0  2  0  0  0  0  0  0  0  0  0
   26.7497  -21.3658  -14.6749 N   0  0  0  0  0  0  0  0  0  0  0  0
   26.3827  -19.5328  -13.1528 C   0  0  0  0  0  0  0  0  0  0  0  0
   25.6570  -18.4946  -13.1724 O   0  0  0  0  0  0  0  0  0  0  0  0
   22.8439  -20.8661  -13.4907 N   0  0  0  0  0  0  0  0  0  0  0  0
   23.3794  -20.6285  -12.2085 C   0  0  0  0  0  0  0  0  0  0  0  0
   22.9062  -19.7305  -11.4795 O   0  0  0  0  0  0  0  0  0  0  0  0
   24.5056  -21.4292  -11.6995 C   0  0  0  0  0  0  0  0  0  0  0  0
   25.5174  -20.4932  -11.0763 C   0  0  2  0  0  0  0  0  0  0  0  0
   26.6310  -20.1607  -11.9155 N   0  0  0  0  0  0  0  0  0  0  0  0
   25.9913  -21.0579   -9.7617 C   0  0  0  0  0  0  0  0  0  0  0  0
   26.2277  -22.2781   -9.6142 O   0  0  0  0  0  0  0  0  0  0  0  0
   26.1649  -20.1548   -8.6923 N   0  0  0  0  0  0  0  0  0  0  0  0
   26.9190  -20.5200   -7.4677 C   0  0  1  0  0  0  0  0  0  0  0  0
   28.1026  -19.5897   -7.3376 C   0  0  0  0  0  0  0  0  0  0  0  0
   28.6298  -19.6422   -5.9719 C   0  0  0  0  0  0  0  0  0  0  0  0
   28.2646  -18.7306   -5.0285 C   0  0  0  0  0  0  0  0  0  0  0  0
   28.7971  -18.8301   -3.7641 C   0  0  0  0  0  0  0  0  0  0  0  0
   29.6972  -19.8367   -3.4294 C   0  0  0  0  0  0  0  0  0  0  0  0
   30.0576  -20.7422   -4.3746 C   0  0  0  0  0  0  0  0  0  0  0  0
   29.5264  -20.6533   -5.6560 C   0  0  0  0  0  0  0  0  0  0  0  0
   26.0474  -20.5774   -6.3096 C   0  0  0  0  0  0  0  0  0  0  0  0
   26.3957  -21.3006   -5.1644 O   0  0  0  0  0  0  0  0  0  0  0  0
   24.9508  -19.9850   -6.2889 O   0  0  0  0  0  0  0  0  0  0  0  0
  1  2  1  0
  2  3  2  0
  4  2  1  0
  4  5  1  0
  6  5  1  0
  6  7  1  6
  8  9  2  0
  8  6  1  0
 10 11  1  0
 11 12  2  0
 11 13  1  0
 14 13  1  6
 14 15  1  0
 15  8  1  0
 16 18  1  0
 16 14  1  0
 17 16  2  0
 19 20  1  1
 19 18  1  0
 21 22  2  0
 21 20  1  0
 23 22  1  0
 24 23  2  0
 25 24  1  0
 25 26  2  0
 26 21  1  0
 27 19  1  0
 28 27  1  0
 29 27  2  0
M  END
$$$$
