IQI.pdb
     RDKit          3D

 26 25  0  0  1  0  0  0  0  0999 V2000
    7.7491  -12.1337   19.0531 C   0  0  0  0  0  0  0  0  0  0  0  0
    7.6705  -13.6110   19.2710 C   0  0  0  0  0  0  0  0  0  0  0  0
    7.4660  -13.9792   20.7274 C   0  0  2  0  0  0  0  0  0  0  0  0
    8.5315  -13.4322   21.6119 C   0  0  0  0  0  0  0  0  0  0  0  0
    7.2876  -15.4704   20.7825 C   0  0  2  0  0  0  0  0  0  0  0  0
    6.1636  -15.7574   19.8699 N   0  0  0  0  0  0  0  0  0  0  0  0
    6.9288  -15.9976   22.1069 C   0  0  0  0  0  0  0  0  0  0  0  0
    5.7830  -15.7470   22.6062 O   0  0  0  0  0  0  0  0  0  0  0  0
    7.4167  -21.2012   25.1935 N   0  0  0  0  0  0  0  0  0  0  0  0
    7.1360  -20.2894   26.2587 C   0  0  0  0  0  0  0  0  0  0  0  0
    6.8546  -20.7789   27.3720 O   0  0  0  0  0  0  0  0  0  0  0  0
    7.1833  -18.8078   26.0251 C   0  0  0  0  0  0  0  0  0  0  0  0
    7.3454  -18.5909   24.5337 C   0  0  0  0  0  0  0  0  0  0  0  0
    7.5050  -17.0972   24.2994 C   0  0  2  0  0  0  0  0  0  0  0  0
    7.7653  -16.7931   22.9213 N   0  0  0  0  0  0  0  0  0  0  0  0
    8.5238  -16.5148   25.2133 C   0  0  0  0  0  0  0  0  0  0  0  0
    9.7041  -16.5508   24.8333 O   0  0  0  0  0  0  0  0  0  0  0  0
    7.9160  -11.6718   26.7934 C   0  0  0  0  0  0  0  0  0  0  0  0
    8.6014  -12.9558   26.5194 C   0  0  0  0  0  0  0  0  0  0  0  0
    8.8268  -13.9139   27.6094 C   0  0  2  0  0  0  0  0  0  0  0  0
    9.7911  -13.2368   28.5975 C   0  0  0  0  0  0  0  0  0  0  0  0
    9.1493  -15.3200   27.3799 C   0  0  2  0  0  0  0  0  0  0  0  0
    8.1944  -15.9446   26.4534 N   0  0  0  0  0  0  0  0  0  0  0  0
    9.5431  -16.2175   28.4524 C   0  0  0  0  0  0  0  0  0  0  0  0
    8.8531  -17.0634   29.0552 O   0  0  0  0  0  0  0  0  0  0  0  0
   10.8847  -16.1838   28.9397 O   0  0  0  0  0  0  0  0  0  0  0  0
  2  1  1  0
  3  2  1  0
  3  5  1  0
  3  4  1  1
  5  6  1  6
  7  5  1  0
  7  8  2  0
  9 10  1  0
 10 12  1  0
 11 10  2  0
 12 13  1  0
 14 13  1  6
 14 15  1  0
 15  7  1  0
 16 14  1  0
 17 16  2  0
 19 18  1  0
 20 19  1  0
 20 22  1  0
 20 21  1  6
 22 23  1  1
 22 24  1  0
 23 16  1  0
 24 26  1  0
 25 24  2  0
M  END
$$$$
