IQI.pdb
     RDKit          3D

 26 25  0  0  1  0  0  0  0  0999 V2000
    7.0775  -11.9712   18.9440 C   0  0  0  0  0  0  0  0  0  0  0  0
    7.5544  -13.3874   18.9995 C   0  0  0  0  0  0  0  0  0  0  0  0
    7.6904  -13.9055   20.4178 C   0  0  2  0  0  0  0  0  0  0  0  0
    8.5755  -13.0519   21.2574 C   0  0  0  0  0  0  0  0  0  0  0  0
    8.0940  -15.3499   20.3209 C   0  0  2  0  0  0  0  0  0  0  0  0
    7.0159  -15.9997   19.5502 N   0  0  0  0  0  0  0  0  0  0  0  0
    8.1982  -16.0465   21.6110 C   0  0  0  0  0  0  0  0  0  0  0  0
    7.1439  -16.3701   22.2503 O   0  0  0  0  0  0  0  0  0  0  0  0
   11.4853  -20.7909   23.9422 N   0  0  0  0  0  0  0  0  0  0  0  0
   11.3985  -19.8787   25.0399 C   0  0  0  0  0  0  0  0  0  0  0  0
   12.1537  -20.0808   26.0132 O   0  0  0  0  0  0  0  0  0  0  0  0
   10.4315  -18.7318   25.0023 C   0  0  0  0  0  0  0  0  0  0  0  0
   10.4728  -18.1522   23.6023 C   0  0  0  0  0  0  0  0  0  0  0  0
    9.4939  -16.9900   23.5552 C   0  0  2  0  0  0  0  0  0  0  0  0
    9.4069  -16.4121   22.2445 N   0  0  0  0  0  0  0  0  0  0  0  0
    9.8052  -15.9811   24.6028 C   0  0  0  0  0  0  0  0  0  0  0  0
   10.8112  -15.2778   24.4229 O   0  0  0  0  0  0  0  0  0  0  0  0
    6.4600  -12.2974   25.9664 C   0  0  0  0  0  0  0  0  0  0  0  0
    7.6614  -13.1469   25.7979 C   0  0  0  0  0  0  0  0  0  0  0  0
    8.2198  -13.8644   26.9514 C   0  0  2  0  0  0  0  0  0  0  0  0
    8.5055  -12.8071   28.0306 C   0  0  0  0  0  0  0  0  0  0  0  0
    9.2885  -14.8532   26.8330 C   0  0  2  0  0  0  0  0  0  0  0  0
    9.0158  -15.8103   25.7514 N   0  0  0  0  0  0  0  0  0  0  0  0
    9.8987  -15.4878   27.9889 C   0  0  0  0  0  0  0  0  0  0  0  0
   10.6221  -14.9785   28.8677 O   0  0  0  0  0  0  0  0  0  0  0  0
    9.6913  -16.8820   28.2160 O   0  0  0  0  0  0  0  0  0  0  0  0
  2  1  1  0
  3  2  1  0
  3  5  1  0
  3  4  1  1
  5  6  1  6
  7  5  1  0
  7  8  2  0
  9 10  1  0
 10 12  1  0
 11 10  2  0
 12 13  1  0
 14 13  1  6
 14 15  1  0
 15  7  1  0
 16 14  1  0
 17 16  2  0
 19 18  1  0
 20 19  1  0
 20 22  1  0
 20 21  1  1
 22 23  1  6
 22 24  1  0
 23 16  1  0
 24 26  1  0
 25 24  2  0
M  END
$$$$
