IQI.pdb
     RDKit          3D

 26 25  0  0  1  0  0  0  0  0999 V2000
    7.2125  -12.1327   19.2139 C   0  0  0  0  0  0  0  0  0  0  0  0
    7.5304  -13.5916   19.2967 C   0  0  0  0  0  0  0  0  0  0  0  0
    7.7928  -14.0553   20.7161 C   0  0  2  0  0  0  0  0  0  0  0  0
    8.8545  -13.2598   21.3919 C   0  0  0  0  0  0  0  0  0  0  0  0
    8.0396  -15.5365   20.6556 C   0  0  2  0  0  0  0  0  0  0  0  0
    6.8098  -16.1080   20.0730 N   0  0  0  0  0  0  0  0  0  0  0  0
    8.2510  -16.1779   21.9612 C   0  0  0  0  0  0  0  0  0  0  0  0
    7.2837  -16.2870   22.7843 O   0  0  0  0  0  0  0  0  0  0  0  0
   10.2952  -21.2280   25.8015 N   0  0  0  0  0  0  0  0  0  0  0  0
   11.1198  -20.2770   25.1231 C   0  0  0  0  0  0  0  0  0  0  0  0
   12.0831  -20.7211   24.4648 O   0  0  0  0  0  0  0  0  0  0  0  0
   10.8211  -18.8091   25.2127 C   0  0  0  0  0  0  0  0  0  0  0  0
   10.7711  -18.2713   23.7964 C   0  0  0  0  0  0  0  0  0  0  0  0
    9.7086  -17.1848   23.7528 C   0  0  2  0  0  0  0  0  0  0  0  0
    9.4765  -16.7120   22.4179 N   0  0  0  0  0  0  0  0  0  0  0  0
   10.0262  -16.0830   24.7001 C   0  0  0  0  0  0  0  0  0  0  0  0
   10.9389  -15.3086   24.3739 O   0  0  0  0  0  0  0  0  0  0  0  0
    6.7244  -12.4567   25.9338 C   0  0  0  0  0  0  0  0  0  0  0  0
    7.9544  -13.2701   25.7961 C   0  0  0  0  0  0  0  0  0  0  0  0
    8.5710  -13.8741   26.9843 C   0  0  2  0  0  0  0  0  0  0  0  0
    8.8967  -12.7191   27.9458 C   0  0  0  0  0  0  0  0  0  0  0  0
    9.6416  -14.8651   26.9095 C   0  0  2  0  0  0  0  0  0  0  0  0
    9.3422  -15.9033   25.9131 N   0  0  0  0  0  0  0  0  0  0  0  0
   10.2901  -15.4069   28.0914 C   0  0  0  0  0  0  0  0  0  0  0  0
   11.0555  -14.8353   28.8929 O   0  0  0  0  0  0  0  0  0  0  0  0
   10.0739  -16.7724   28.4476 O   0  0  0  0  0  0  0  0  0  0  0  0
  2  1  1  0
  3  2  1  0
  3  5  1  0
  3  4  1  6
  5  6  1  1
  7  5  1  0
  7  8  2  0
  9 10  1  0
 10 12  1  0
 11 10  2  0
 12 13  1  0
 14 13  1  6
 14 15  1  0
 15  7  1  0
 16 14  1  0
 17 16  2  0
 19 18  1  0
 20 19  1  0
 20 22  1  0
 20 21  1  1
 22 23  1  1
 22 24  1  0
 23 16  1  0
 24 26  1  0
 25 24  2  0
M  END
$$$$
