IQI.pdb
     RDKit          3D

 26 25  0  0  1  0  0  0  0  0999 V2000
    7.1579  -12.0920   18.8890 C   0  0  0  0  0  0  0  0  0  0  0  0
    7.4645  -13.5461   19.0561 C   0  0  0  0  0  0  0  0  0  0  0  0
    7.7605  -13.9217   20.4948 C   0  0  2  0  0  0  0  0  0  0  0  0
    8.8127  -13.0638   21.1063 C   0  0  0  0  0  0  0  0  0  0  0  0
    8.0430  -15.3976   20.5141 C   0  0  2  0  0  0  0  0  0  0  0  0
    6.8438  -16.0266   19.9270 N   0  0  0  0  0  0  0  0  0  0  0  0
    8.2319  -15.9695   21.8550 C   0  0  0  0  0  0  0  0  0  0  0  0
    7.2301  -16.1392   22.6249 O   0  0  0  0  0  0  0  0  0  0  0  0
   12.5314  -19.9873   23.9303 N   0  0  0  0  0  0  0  0  0  0  0  0
   11.7680  -19.7153   25.1085 C   0  0  0  0  0  0  0  0  0  0  0  0
   11.9921  -20.4235   26.1119 O   0  0  0  0  0  0  0  0  0  0  0  0
   10.7440  -18.6183   25.1161 C   0  0  0  0  0  0  0  0  0  0  0  0
   10.7072  -18.0256   23.7214 C   0  0  0  0  0  0  0  0  0  0  0  0
    9.6325  -16.9504   23.7055 C   0  0  2  0  0  0  0  0  0  0  0  0
    9.4709  -16.3700   22.4030 N   0  0  0  0  0  0  0  0  0  0  0  0
    9.8780  -15.9283   24.7579 C   0  0  0  0  0  0  0  0  0  0  0  0
   10.7875  -15.1118   24.5455 O   0  0  0  0  0  0  0  0  0  0  0  0
    6.8397  -12.1738   26.2262 C   0  0  0  0  0  0  0  0  0  0  0  0
    7.9716  -13.1150   26.0638 C   0  0  0  0  0  0  0  0  0  0  0  0
    8.4219  -13.9240   27.2039 C   0  0  2  0  0  0  0  0  0  0  0  0
    8.7318  -12.9413   28.3453 C   0  0  0  0  0  0  0  0  0  0  0  0
    9.4210  -14.9829   27.0839 C   0  0  2  0  0  0  0  0  0  0  0  0
    9.1315  -15.8665   25.9455 N   0  0  0  0  0  0  0  0  0  0  0  0
    9.9286  -15.7133   28.2326 C   0  0  0  0  0  0  0  0  0  0  0  0
    9.7319  -16.9031   28.5501 O   0  0  0  0  0  0  0  0  0  0  0  0
   10.7709  -15.0465   29.1730 O   0  0  0  0  0  0  0  0  0  0  0  0
  2  1  1  0
  3  2  1  0
  3  5  1  0
  3  4  1  6
  5  6  1  1
  7  5  1  0
  7  8  2  0
  9 10  1  0
 10 12  1  0
 11 10  2  0
 12 13  1  0
 14 13  1  6
 14 15  1  0
 15  7  1  0
 16 14  1  0
 17 16  2  0
 19 18  1  0
 20 19  1  0
 20 22  1  0
 20 21  1  1
 22 23  1  6
 22 24  1  0
 23 16  1  0
 24 26  1  0
 25 24  2  0
M  END
$$$$
