IQI.pdb
     RDKit          3D

 26 25  0  0  1  0  0  0  0  0999 V2000
    8.0095  -12.4286   18.9495 C   0  0  0  0  0  0  0  0  0  0  0  0
    7.6826  -13.8637   19.2134 C   0  0  0  0  0  0  0  0  0  0  0  0
    7.5050  -14.1632   20.6890 C   0  0  2  0  0  0  0  0  0  0  0  0
    8.6417  -13.6705   21.5147 C   0  0  0  0  0  0  0  0  0  0  0  0
    7.2145  -15.6329   20.8069 C   0  0  2  0  0  0  0  0  0  0  0  0
    6.0334  -15.8615   19.9517 N   0  0  0  0  0  0  0  0  0  0  0  0
    6.8735  -16.0849   22.1634 C   0  0  0  0  0  0  0  0  0  0  0  0
    5.8316  -15.6355   22.7444 O   0  0  0  0  0  0  0  0  0  0  0  0
    6.3253  -21.1783   26.6871 N   0  0  0  0  0  0  0  0  0  0  0  0
    7.4368  -20.2922   26.5319 C   0  0  0  0  0  0  0  0  0  0  0  0
    8.5769  -20.7661   26.7166 O   0  0  0  0  0  0  0  0  0  0  0  0
    7.2185  -18.8544   26.1616 C   0  0  0  0  0  0  0  0  0  0  0  0
    7.5353  -18.7153   24.6858 C   0  0  0  0  0  0  0  0  0  0  0  0
    7.4379  -17.2404   24.3302 C   0  0  2  0  0  0  0  0  0  0  0  0
    7.6191  -17.0122   22.9250 N   0  0  0  0  0  0  0  0  0  0  0  0
    8.3605  -16.4236   25.1633 C   0  0  0  0  0  0  0  0  0  0  0  0
    9.5219  -16.2904   24.7479 O   0  0  0  0  0  0  0  0  0  0  0  0
    6.8045  -11.7025   26.7274 C   0  0  0  0  0  0  0  0  0  0  0  0
    7.7215  -12.8196   26.4036 C   0  0  0  0  0  0  0  0  0  0  0  0
    8.2306  -13.6847   27.4757 C   0  0  2  0  0  0  0  0  0  0  0  0
    9.1042  -12.7980   28.3786 C   0  0  0  0  0  0  0  0  0  0  0  0
    8.8250  -14.9956   27.2267 C   0  0  2  0  0  0  0  0  0  0  0  0
    7.9636  -15.8202   26.3673 N   0  0  0  0  0  0  0  0  0  0  0  0
    9.4677  -15.7743   28.2714 C   0  0  0  0  0  0  0  0  0  0  0  0
    9.0760  -16.8271   28.8131 O   0  0  0  0  0  0  0  0  0  0  0  0
   10.7183  -15.3381   28.8043 O   0  0  0  0  0  0  0  0  0  0  0  0
  2  1  1  0
  3  2  1  0
  3  5  1  0
  3  4  1  1
  5  6  1  6
  7  5  1  0
  7  8  2  0
  9 10  1  0
 10 12  1  0
 11 10  2  0
 12 13  1  0
 14 13  1  6
 14 15  1  0
 15  7  1  0
 16 14  1  0
 17 16  2  0
 19 18  1  0
 20 19  1  0
 20 22  1  0
 20 21  1  6
 22 23  1  1
 22 24  1  0
 23 16  1  0
 24 26  1  0
 25 24  2  0
M  END
$$$$
