IQI.pdb
     RDKit          3D

 26 25  0  0  1  0  0  0  0  0999 V2000
    7.5820  -12.0974   18.7727 C   0  0  0  0  0  0  0  0  0  0  0  0
    7.9591  -13.5376   18.9130 C   0  0  0  0  0  0  0  0  0  0  0  0
    7.9125  -14.0190   20.3499 C   0  0  2  0  0  0  0  0  0  0  0  0
    8.6882  -13.1450   21.2726 C   0  0  0  0  0  0  0  0  0  0  0  0
    8.3186  -15.4659   20.3417 C   0  0  2  0  0  0  0  0  0  0  0  0
    7.3657  -16.1277   19.4293 N   0  0  0  0  0  0  0  0  0  0  0  0
    8.2235  -16.1381   21.6454 C   0  0  0  0  0  0  0  0  0  0  0  0
    7.0819  -16.3994   22.1486 O   0  0  0  0  0  0  0  0  0  0  0  0
   11.1217  -20.7322   24.1598 N   0  0  0  0  0  0  0  0  0  0  0  0
   11.0601  -20.1481   22.8560 C   0  0  0  0  0  0  0  0  0  0  0  0
   11.6073  -20.7715   21.9230 O   0  0  0  0  0  0  0  0  0  0  0  0
   10.3610  -18.8377   22.6409 C   0  0  0  0  0  0  0  0  0  0  0  0
    9.9187  -18.3336   24.0002 C   0  0  0  0  0  0  0  0  0  0  0  0
    9.2226  -16.9981   23.7927 C   0  0  2  0  0  0  0  0  0  0  0  0
    9.3225  -16.5441   22.4350 N   0  0  0  0  0  0  0  0  0  0  0  0
    9.7020  -15.9836   24.7691 C   0  0  0  0  0  0  0  0  0  0  0  0
   10.7464  -15.3787   24.4822 O   0  0  0  0  0  0  0  0  0  0  0  0
    6.4709  -12.2671   26.3503 C   0  0  0  0  0  0  0  0  0  0  0  0
    7.7293  -13.0029   26.0890 C   0  0  0  0  0  0  0  0  0  0  0  0
    8.4103  -13.7037   27.1855 C   0  0  2  0  0  0  0  0  0  0  0  0
    8.8330  -12.6277   28.1994 C   0  0  0  0  0  0  0  0  0  0  0  0
    9.4459  -14.7102   26.9659 C   0  0  2  0  0  0  0  0  0  0  0  0
    9.0252  -15.7029   25.9669 N   0  0  0  0  0  0  0  0  0  0  0  0
   10.1977  -15.3097   28.0551 C   0  0  0  0  0  0  0  0  0  0  0  0
   11.0708  -14.7912   28.7788 O   0  0  0  0  0  0  0  0  0  0  0  0
    9.9644  -16.6749   28.4019 O   0  0  0  0  0  0  0  0  0  0  0  0
  2  1  1  0
  3  2  1  0
  3  5  1  0
  3  4  1  1
  5  6  1  6
  7  5  1  0
  7  8  2  0
  9 10  1  0
 10 12  1  0
 11 10  2  0
 12 13  1  0
 14 13  1  6
 14 15  1  0
 15  7  1  0
 16 14  1  0
 17 16  2  0
 19 18  1  0
 20 19  1  0
 20 22  1  0
 20 21  1  1
 22 23  1  1
 22 24  1  0
 23 16  1  0
 24 26  1  0
 25 24  2  0
M  END
$$$$
