IQI.pdb
     RDKit          3D

 26 25  0  0  1  0  0  0  0  0999 V2000
    7.5211  -12.0060   19.3278 C   0  0  0  0  0  0  0  0  0  0  0  0
    7.4457  -13.4913   19.4839 C   0  0  0  0  0  0  0  0  0  0  0  0
    7.7599  -13.9497   20.8945 C   0  0  2  0  0  0  0  0  0  0  0  0
    9.0167  -13.3528   21.4245 C   0  0  0  0  0  0  0  0  0  0  0  0
    7.7142  -15.4518   20.8885 C   0  0  2  0  0  0  0  0  0  0  0  0
    6.3566  -15.7936   20.4210 N   0  0  0  0  0  0  0  0  0  0  0  0
    7.8999  -16.0773   22.2057 C   0  0  0  0  0  0  0  0  0  0  0  0
    7.0036  -15.9552   23.1038 O   0  0  0  0  0  0  0  0  0  0  0  0
   12.7045  -19.8788   25.2075 N   0  0  0  0  0  0  0  0  0  0  0  0
   11.3070  -20.1072   25.4066 C   0  0  0  0  0  0  0  0  0  0  0  0
   10.9404  -21.2859   25.5927 O   0  0  0  0  0  0  0  0  0  0  0  0
   10.3381  -18.9614   25.3885 C   0  0  0  0  0  0  0  0  0  0  0  0
   10.2237  -18.4896   23.9525 C   0  0  0  0  0  0  0  0  0  0  0  0
    9.2605  -17.3136   23.9287 C   0  0  2  0  0  0  0  0  0  0  0  0
    9.0251  -16.8375   22.5955 N   0  0  0  0  0  0  0  0  0  0  0  0
    9.7068  -16.2334   24.8487 C   0  0  0  0  0  0  0  0  0  0  0  0
   10.6888  -15.5641   24.4930 O   0  0  0  0  0  0  0  0  0  0  0  0
    6.9997  -12.1253   26.2510 C   0  0  0  0  0  0  0  0  0  0  0  0
    8.0802  -13.1195   26.0574 C   0  0  0  0  0  0  0  0  0  0  0  0
    8.5933  -13.8778   27.2058 C   0  0  2  0  0  0  0  0  0  0  0  0
    9.0479  -12.8428   28.2483 C   0  0  0  0  0  0  0  0  0  0  0  0
    9.5288  -14.9916   27.0710 C   0  0  2  0  0  0  0  0  0  0  0  0
    9.0663  -15.9616   26.0682 N   0  0  0  0  0  0  0  0  0  0  0  0
   10.1476  -15.6365   28.2165 C   0  0  0  0  0  0  0  0  0  0  0  0
   11.0563  -15.2094   28.9559 O   0  0  0  0  0  0  0  0  0  0  0  0
    9.7130  -16.9385   28.6093 O   0  0  0  0  0  0  0  0  0  0  0  0
  2  1  1  0
  3  2  1  0
  3  5  1  0
  3  4  1  6
  5  6  1  1
  7  5  1  0
  7  8  2  0
  9 10  1  0
 10 12  1  0
 11 10  2  0
 12 13  1  0
 14 13  1  6
 14 15  1  0
 15  7  1  0
 16 14  1  0
 17 16  2  0
 19 18  1  0
 20 19  1  0
 20 22  1  0
 20 21  1  1
 22 23  1  1
 22 24  1  0
 23 16  1  0
 24 26  1  0
 25 24  2  0
M  END
$$$$
