IQI.pdb
     RDKit          3D

 26 25  0  0  1  0  0  0  0  0999 V2000
    7.3319  -12.8512   17.2077 C   0  0  0  0  0  0  0  0  0  0  0  0
    8.2656  -13.6472   18.0626 C   0  0  0  0  0  0  0  0  0  0  0  0
    7.7194  -13.8946   19.4550 C   0  0  2  0  0  0  0  0  0  0  0  0
    7.3549  -12.6348   20.1599 C   0  0  0  0  0  0  0  0  0  0  0  0
    8.7145  -14.7657   20.1687 C   0  0  2  0  0  0  0  0  0  0  0  0
    8.8390  -15.9741   19.3303 N   0  0  0  0  0  0  0  0  0  0  0  0
    8.3006  -15.1986   21.5111 C   0  0  0  0  0  0  0  0  0  0  0  0
    8.1096  -14.3366   22.4306 O   0  0  0  0  0  0  0  0  0  0  0  0
    5.5670  -19.9721   24.1091 N   0  0  0  0  0  0  0  0  0  0  0  0
    5.7432  -19.7706   22.7045 C   0  0  0  0  0  0  0  0  0  0  0  0
    4.8581  -20.2184   21.9465 O   0  0  0  0  0  0  0  0  0  0  0  0
    6.9510  -19.0475   22.1845 C   0  0  0  0  0  0  0  0  0  0  0  0
    7.6693  -18.4516   23.3789 C   0  0  0  0  0  0  0  0  0  0  0  0
    7.6603  -16.9402   23.2157 C   0  0  2  0  0  0  0  0  0  0  0  0
    8.0819  -16.5378   21.9042 N   0  0  0  0  0  0  0  0  0  0  0  0
    8.4424  -16.2776   24.2935 C   0  0  0  0  0  0  0  0  0  0  0  0
    9.6648  -16.1672   24.1126 O   0  0  0  0  0  0  0  0  0  0  0  0
    6.1369  -12.0985   26.5167 C   0  0  0  0  0  0  0  0  0  0  0  0
    7.2645  -12.9512   26.0749 C   0  0  0  0  0  0  0  0  0  0  0  0
    7.8609  -13.9184   27.0054 C   0  0  2  0  0  0  0  0  0  0  0  0
    8.6597  -13.1026   28.0354 C   0  0  0  0  0  0  0  0  0  0  0  0
    8.5690  -15.1169   26.5627 C   0  0  2  0  0  0  0  0  0  0  0  0
    7.8521  -15.7905   25.4706 N   0  0  0  0  0  0  0  0  0  0  0  0
    9.1681  -16.0596   27.4919 C   0  0  0  0  0  0  0  0  0  0  0  0
   10.1704  -15.9095   28.2185 O   0  0  0  0  0  0  0  0  0  0  0  0
    8.5904  -17.3559   27.6476 O   0  0  0  0  0  0  0  0  0  0  0  0
  2  1  1  0
  3  2  1  0
  3  5  1  0
  3  4  1  1
  5  6  1  6
  7  5  1  0
  7  8  2  0
  9 10  1  0
 10 12  1  0
 11 10  2  0
 12 13  1  0
 14 13  1  6
 14 15  1  0
 15  7  1  0
 16 14  1  0
 17 16  2  0
 19 18  1  0
 20 19  1  0
 20 22  1  0
 20 21  1  6
 22 23  1  1
 22 24  1  0
 23 16  1  0
 24 26  1  0
 25 24  2  0
M  END
$$$$
