IQI.pdb
     RDKit          3D

 26 25  0  0  1  0  0  0  0  0999 V2000
    5.6381  -10.7175   26.2121 C   0  0  0  0  0  0  0  0  0  0  0  0
    5.3715  -12.0926   25.6885 C   0  0  0  0  0  0  0  0  0  0  0  0
    6.6388  -12.9009   25.4903 C   0  0  2  0  0  0  0  0  0  0  0  0
    7.6080  -12.2327   24.5788 C   0  0  0  0  0  0  0  0  0  0  0  0
    6.2179  -14.2837   25.0792 C   0  0  2  0  0  0  0  0  0  0  0  0
    5.2954  -14.7361   26.1388 N   0  0  0  0  0  0  0  0  0  0  0  0
    7.3132  -15.2607   24.9985 C   0  0  0  0  0  0  0  0  0  0  0  0
    7.6782  -15.8999   26.0392 O   0  0  0  0  0  0  0  0  0  0  0  0
    9.9976  -17.9271   19.9965 N   0  0  0  0  0  0  0  0  0  0  0  0
   10.8759  -18.3339   21.0491 C   0  0  0  0  0  0  0  0  0  0  0  0
   11.7168  -19.2175   20.7836 O   0  0  0  0  0  0  0  0  0  0  0  0
   10.7732  -17.7104   22.4102 C   0  0  0  0  0  0  0  0  0  0  0  0
    9.6505  -16.6933   22.3573 C   0  0  0  0  0  0  0  0  0  0  0  0
    9.0874  -16.5542   23.7626 C   0  0  2  0  0  0  0  0  0  0  0  0
    8.0367  -15.5789   23.8275 N   0  0  0  0  0  0  0  0  0  0  0  0
   10.1673  -16.2946   24.7519 C   0  0  0  0  0  0  0  0  0  0  0  0
   11.1008  -15.5648   24.3847 O   0  0  0  0  0  0  0  0  0  0  0  0
   10.1548  -13.3442   28.7090 C   0  0  0  0  0  0  0  0  0  0  0  0
   10.5487  -14.3060   27.6539 C   0  0  0  0  0  0  0  0  0  0  0  0
   10.9447  -15.6726   28.0182 C   0  0  2  0  0  0  0  0  0  0  0  0
   12.0399  -15.5421   29.0897 C   0  0  0  0  0  0  0  0  0  0  0  0
   11.2426  -16.7058   27.0295 C   0  0  2  0  0  0  0  0  0  0  0  0
   10.1572  -16.8366   26.0472 N   0  0  0  0  0  0  0  0  0  0  0  0
   11.8171  -17.9908   27.3896 C   0  0  0  0  0  0  0  0  0  0  0  0
   13.0140  -18.2850   27.5793 O   0  0  0  0  0  0  0  0  0  0  0  0
   10.9601  -19.1192   27.5647 O   0  0  0  0  0  0  0  0  0  0  0  0
  2  1  1  0
  3  2  1  0
  3  5  1  0
  3  4  1  6
  5  6  1  1
  7  5  1  0
  7  8  2  0
  9 10  1  0
 10 12  1  0
 11 10  2  0
 12 13  1  0
 14 13  1  6
 14 15  1  0
 15  7  1  0
 16 14  1  0
 17 16  2  0
 19 18  1  0
 20 19  1  0
 20 22  1  0
 20 21  1  6
 22 23  1  1
 22 24  1  0
 23 16  1  0
 24 26  1  0
 25 24  2  0
M  END
$$$$
