PMS.pdb
     RDKit          3D

 22 22  0  0  1  0  0  0  0  0999 V2000
    7.2624  -15.0259   19.7181 N   0  0  0  0  0  0  0  0  0  0  0  0
    6.7679  -14.1352   18.6874 C   0  0  0  0  0  0  0  0  0  0  0  0
    7.3590  -12.8012   19.1664 C   0  0  0  0  0  0  0  0  0  0  0  0
    8.8166  -13.2527   19.3317 C   0  0  0  0  0  0  0  0  0  0  0  0
    8.6241  -14.6461   19.9035 C   0  0  1  0  0  0  0  0  0  0  0  0
    8.9869  -14.5305   21.3657 C   0  0  0  0  0  0  0  0  0  0  0  0
   10.1957  -14.2780   21.5997 O   0  0  0  0  0  0  0  0  0  0  0  0
    6.7498  -11.6433   28.0938 C   0  0  0  0  0  0  0  0  0  0  0  0
    6.1567  -12.2338   26.4974 S   0  0  0  0  0  0  0  0  0  0  0  0
    7.4299  -13.3151   25.7715 C   0  0  0  0  0  0  0  0  0  0  0  0
    7.0340  -13.7291   24.3799 C   0  0  0  0  0  0  0  0  0  0  0  0
    8.2003  -14.4893   23.7299 C   0  0  2  0  0  0  0  0  0  0  0  0
    7.9854  -14.7063   22.3407 N   0  0  0  0  0  0  0  0  0  0  0  0
    8.4807  -15.7401   24.4735 C   0  0  0  0  0  0  0  0  0  0  0  0
    7.5467  -16.5565   24.6042 O   0  0  0  0  0  0  0  0  0  0  0  0
   12.3510  -17.0437   24.9955 O   0  0  0  0  0  0  0  0  0  0  0  0
   11.2657  -17.9060   24.8790 C   0  0  0  0  0  0  0  0  0  0  0  0
   10.0864  -17.3114   25.6314 C   0  0  2  0  0  0  0  0  0  0  0  0
    9.7389  -16.0535   25.0363 N   0  0  0  0  0  0  0  0  0  0  0  0
   10.3477  -17.2462   27.0635 C   0  0  0  0  0  0  0  0  0  0  0  0
   10.6688  -18.2710   27.7047 O   0  0  0  0  0  0  0  0  0  0  0  0
   10.2445  -16.0464   27.7386 O   0  0  0  0  0  0  0  0  0  0  0  0
  1  5  1  0
  2  1  1  0
  3  2  1  0
  3  4  1  0
  4  5  1  0
  5  6  1  1
  6  7  2  0
  8  9  1  0
  9 10  1  0
 11 10  1  0
 12 11  1  1
 12 14  1  0
 13  6  1  0
 13 12  1  0
 14 19  1  0
 14 15  2  0
 16 17  1  0
 18 17  1  6
 18 20  1  0
 19 18  1  0
 20 21  2  0
 20 22  1  0
M  END
$$$$
