PMS.pdb
     RDKit          3D

 22 22  0  0  1  0  0  0  0  0999 V2000
    7.2919  -15.0988   20.0505 N   0  0  0  0  0  0  0  0  0  0  0  0
    6.5887  -14.2264   19.1316 C   0  0  0  0  0  0  0  0  0  0  0  0
    7.0059  -12.8532   19.6784 C   0  0  0  0  0  0  0  0  0  0  0  0
    8.5236  -13.0802   19.7089 C   0  0  0  0  0  0  0  0  0  0  0  0
    8.5903  -14.5235   20.1758 C   0  0  1  0  0  0  0  0  0  0  0  0
    9.0447  -14.4561   21.6152 C   0  0  0  0  0  0  0  0  0  0  0  0
   10.2457  -14.1263   21.7834 O   0  0  0  0  0  0  0  0  0  0  0  0
    6.2660  -10.8911   26.4739 C   0  0  0  0  0  0  0  0  0  0  0  0
    6.4085  -12.6409   26.8819 S   0  0  0  0  0  0  0  0  0  0  0  0
    7.8019  -13.3422   25.9418 C   0  0  0  0  0  0  0  0  0  0  0  0
    7.2999  -14.3150   24.9090 C   0  0  0  0  0  0  0  0  0  0  0  0
    8.4739  -14.7578   24.0222 C   0  0  2  0  0  0  0  0  0  0  0  0
    8.1284  -14.7561   22.6424 N   0  0  0  0  0  0  0  0  0  0  0  0
    9.0069  -16.0615   24.4827 C   0  0  0  0  0  0  0  0  0  0  0  0
    8.2078  -17.0158   24.5656 O   0  0  0  0  0  0  0  0  0  0  0  0
   12.9913  -16.4152   25.4427 O   0  0  0  0  0  0  0  0  0  0  0  0
   12.4066  -17.5422   24.8747 C   0  0  0  0  0  0  0  0  0  0  0  0
   10.9231  -17.5424   25.2060 C   0  0  2  0  0  0  0  0  0  0  0  0
   10.3601  -16.2782   24.8291 N   0  0  0  0  0  0  0  0  0  0  0  0
   10.6887  -17.9136   26.5954 C   0  0  0  0  0  0  0  0  0  0  0  0
   10.1135  -17.1286   27.3812 O   0  0  0  0  0  0  0  0  0  0  0  0
   11.0996  -19.1435   27.0690 O   0  0  0  0  0  0  0  0  0  0  0  0
  1  5  1  0
  2  1  1  0
  3  2  1  0
  3  4  1  0
  4  5  1  0
  5  6  1  1
  6  7  2  0
  8  9  1  0
  9 10  1  0
 11 10  1  0
 12 11  1  1
 12 14  1  0
 13  6  1  0
 13 12  1  0
 14 19  1  0
 14 15  2  0
 16 17  1  0
 18 17  1  1
 18 20  1  0
 19 18  1  0
 20 21  2  0
 20 22  1  0
M  END
$$$$
