PMS.pdb
     RDKit          3D

 22 22  0  0  1  0  0  0  0  0999 V2000
    7.2131  -14.7565   19.9383 N   0  0  0  0  0  0  0  0  0  0  0  0
    6.6734  -13.7816   19.0120 C   0  0  0  0  0  0  0  0  0  0  0  0
    7.2610  -12.4886   19.5962 C   0  0  0  0  0  0  0  0  0  0  0  0
    8.7293  -12.9290   19.6733 C   0  0  0  0  0  0  0  0  0  0  0  0
    8.5746  -14.3730   20.1168 C   0  0  1  0  0  0  0  0  0  0  0  0
    8.9827  -14.3889   21.5715 C   0  0  0  0  0  0  0  0  0  0  0  0
   10.2082  -14.2118   21.7866 O   0  0  0  0  0  0  0  0  0  0  0  0
    6.8626  -11.1374   27.0884 C   0  0  0  0  0  0  0  0  0  0  0  0
    6.2926  -12.8467   27.1359 S   0  0  0  0  0  0  0  0  0  0  0  0
    7.4720  -13.8756   26.2046 C   0  0  0  0  0  0  0  0  0  0  0  0
    7.1455  -13.8474   24.7358 C   0  0  0  0  0  0  0  0  0  0  0  0
    8.2738  -14.5398   23.9559 C   0  0  2  0  0  0  0  0  0  0  0  0
    8.0010  -14.5937   22.5610 N   0  0  0  0  0  0  0  0  0  0  0  0
    8.5650  -15.8703   24.5395 C   0  0  0  0  0  0  0  0  0  0  0  0
    7.6095  -16.6587   24.6861 O   0  0  0  0  0  0  0  0  0  0  0  0
   12.4560  -17.2221   24.9015 O   0  0  0  0  0  0  0  0  0  0  0  0
   11.4063  -18.1157   24.7163 C   0  0  0  0  0  0  0  0  0  0  0  0
   10.1816  -17.5887   25.4462 C   0  0  2  0  0  0  0  0  0  0  0  0
    9.8560  -16.2889   24.9344 N   0  0  0  0  0  0  0  0  0  0  0  0
   10.3623  -17.6368   26.8913 C   0  0  0  0  0  0  0  0  0  0  0  0
   10.3077  -16.5941   27.5801 O   0  0  0  0  0  0  0  0  0  0  0  0
   10.5977  -18.8397   27.5264 O   0  0  0  0  0  0  0  0  0  0  0  0
  1  5  1  0
  2  1  1  0
  3  2  1  0
  3  4  1  0
  4  5  1  0
  5  6  1  1
  6  7  2  0
  8  9  1  0
  9 10  1  0
 11 10  1  0
 12 11  1  1
 12 14  1  0
 13  6  1  0
 13 12  1  0
 14 19  1  0
 14 15  2  0
 16 17  1  0
 18 17  1  6
 18 20  1  0
 19 18  1  0
 20 21  2  0
 20 22  1  0
M  END
$$$$
