PMS.pdb
     RDKit          3D

 22 22  0  0  1  0  0  0  0  0999 V2000
    7.3423  -15.0236   19.7495 N   0  0  0  0  0  0  0  0  0  0  0  0
    6.8040  -14.1995   18.6861 C   0  0  0  0  0  0  0  0  0  0  0  0
    7.3768  -12.8299   19.0792 C   0  0  0  0  0  0  0  0  0  0  0  0
    8.8475  -13.2418   19.2316 C   0  0  0  0  0  0  0  0  0  0  0  0
    8.6994  -14.6065   19.8806 C   0  0  1  0  0  0  0  0  0  0  0  0
    9.0943  -14.4058   21.3251 C   0  0  0  0  0  0  0  0  0  0  0  0
   10.3265  -14.2664   21.5296 O   0  0  0  0  0  0  0  0  0  0  0  0
    5.7029  -12.5611   27.8058 C   0  0  0  0  0  0  0  0  0  0  0  0
    6.7058  -11.7429   26.5515 S   0  0  0  0  0  0  0  0  0  0  0  0
    7.7930  -12.9841   25.7804 C   0  0  0  0  0  0  0  0  0  0  0  0
    7.3605  -13.2513   24.3639 C   0  0  0  0  0  0  0  0  0  0  0  0
    8.3690  -14.2020   23.7006 C   0  0  2  0  0  0  0  0  0  0  0  0
    8.0944  -14.3879   22.3174 N   0  0  0  0  0  0  0  0  0  0  0  0
    8.4477  -15.4776   24.4505 C   0  0  0  0  0  0  0  0  0  0  0  0
    7.4003  -16.1449   24.5673 O   0  0  0  0  0  0  0  0  0  0  0  0
   11.8641  -17.5954   24.5599 O   0  0  0  0  0  0  0  0  0  0  0  0
   10.5995  -18.1540   24.7134 C   0  0  0  0  0  0  0  0  0  0  0  0
    9.7822  -17.2661   25.6375 C   0  0  2  0  0  0  0  0  0  0  0  0
    9.6359  -15.9730   25.0343 N   0  0  0  0  0  0  0  0  0  0  0  0
   10.3416  -17.2411   26.9827 C   0  0  0  0  0  0  0  0  0  0  0  0
   10.5586  -18.3027   27.6075 O   0  0  0  0  0  0  0  0  0  0  0  0
   10.6426  -16.0395   27.5921 O   0  0  0  0  0  0  0  0  0  0  0  0
  1  5  1  0
  2  1  1  0
  3  2  1  0
  3  4  1  0
  4  5  1  0
  5  6  1  1
  6  7  2  0
  8  9  1  0
  9 10  1  0
 11 10  1  0
 12 11  1  1
 12 14  1  0
 13  6  1  0
 13 12  1  0
 14 19  1  0
 14 15  2  0
 16 17  1  0
 18 17  1  6
 18 20  1  0
 19 18  1  0
 20 21  2  0
 20 22  1  0
M  END
$$$$
