PMS.pdb
     RDKit          3D

 22 22  0  0  1  0  0  0  0  0999 V2000
    8.4046  -15.6390   18.9573 N   0  0  0  0  0  0  0  0  0  0  0  0
    8.1723  -16.7997   18.1213 C   0  0  0  0  0  0  0  0  0  0  0  0
    8.0643  -17.8956   19.1917 C   0  0  0  0  0  0  0  0  0  0  0  0
    7.0206  -17.2215   20.0927 C   0  0  0  0  0  0  0  0  0  0  0  0
    7.4786  -15.7750   20.0329 C   0  0  1  0  0  0  0  0  0  0  0  0
    8.1218  -15.5049   21.3731 C   0  0  0  0  0  0  0  0  0  0  0  0
    9.3526  -15.7513   21.4364 O   0  0  0  0  0  0  0  0  0  0  0  0
    7.2288  -11.7045   28.2134 C   0  0  0  0  0  0  0  0  0  0  0  0
    6.3547  -12.3459   26.7735 S   0  0  0  0  0  0  0  0  0  0  0  0
    7.5411  -13.2594   25.7365 C   0  0  0  0  0  0  0  0  0  0  0  0
    6.8578  -13.7958   24.5076 C   0  0  0  0  0  0  0  0  0  0  0  0
    7.8679  -14.6109   23.6854 C   0  0  2  0  0  0  0  0  0  0  0  0
    7.3320  -15.0118   22.4303 N   0  0  0  0  0  0  0  0  0  0  0  0
    8.3857  -15.7479   24.4822 C   0  0  0  0  0  0  0  0  0  0  0  0
    7.5796  -16.6452   24.8002 O   0  0  0  0  0  0  0  0  0  0  0  0
   12.4783  -16.2586   24.9634 O   0  0  0  0  0  0  0  0  0  0  0  0
   11.6264  -17.3486   24.8185 C   0  0  0  0  0  0  0  0  0  0  0  0
   10.3075  -17.0323   25.5046 C   0  0  2  0  0  0  0  0  0  0  0  0
    9.7318  -15.8679   24.8963 N   0  0  0  0  0  0  0  0  0  0  0  0
   10.4694  -16.9367   26.9496 C   0  0  0  0  0  0  0  0  0  0  0  0
   10.1544  -15.8933   27.5632 O   0  0  0  0  0  0  0  0  0  0  0  0
   10.9753  -18.0016   27.6679 O   0  0  0  0  0  0  0  0  0  0  0  0
  1  5  1  0
  2  1  1  0
  3  2  1  0
  3  4  1  0
  4  5  1  0
  5  6  1  1
  6  7  2  0
  8  9  1  0
  9 10  1  0
 11 10  1  0
 12 11  1  1
 12 14  1  0
 13  6  1  0
 13 12  1  0
 14 19  1  0
 14 15  2  0
 16 17  1  0
 18 17  1  6
 18 20  1  0
 19 18  1  0
 20 21  2  0
 20 22  1  0
M  END
$$$$
