PMS.pdb
     RDKit          3D

 22 22  0  0  1  0  0  0  0  0999 V2000
    7.2431  -15.0842   19.9318 N   0  0  0  0  0  0  0  0  0  0  0  0
    6.6594  -14.2461   18.9038 C   0  0  0  0  0  0  0  0  0  0  0  0
    7.1352  -12.8625   19.3705 C   0  0  0  0  0  0  0  0  0  0  0  0
    8.6290  -13.1820   19.5197 C   0  0  0  0  0  0  0  0  0  0  0  0
    8.5677  -14.5842   20.0992 C   0  0  1  0  0  0  0  0  0  0  0  0
    8.9360  -14.4297   21.5564 C   0  0  0  0  0  0  0  0  0  0  0  0
   10.1297  -14.1033   21.7760 O   0  0  0  0  0  0  0  0  0  0  0  0
    7.3910  -11.2854   27.4381 C   0  0  0  0  0  0  0  0  0  0  0  0
    6.3313  -12.6777   27.0054 S   0  0  0  0  0  0  0  0  0  0  0  0
    7.3471  -13.9416   26.1760 C   0  0  0  0  0  0  0  0  0  0  0  0
    7.0060  -14.0094   24.7118 C   0  0  0  0  0  0  0  0  0  0  0  0
    8.2148  -14.5585   23.9383 C   0  0  2  0  0  0  0  0  0  0  0  0
    7.9554  -14.6526   22.5430 N   0  0  0  0  0  0  0  0  0  0  0  0
    8.6685  -15.8393   24.5293 C   0  0  0  0  0  0  0  0  0  0  0  0
    7.8200  -16.7425   24.6723 O   0  0  0  0  0  0  0  0  0  0  0  0
   12.6866  -16.4642   25.4285 O   0  0  0  0  0  0  0  0  0  0  0  0
   11.9214  -17.5352   24.9787 C   0  0  0  0  0  0  0  0  0  0  0  0
   10.4869  -17.3392   25.4415 C   0  0  2  0  0  0  0  0  0  0  0  0
    9.9993  -16.0890   24.9350 N   0  0  0  0  0  0  0  0  0  0  0  0
   10.3693  -17.4884   26.8862 C   0  0  0  0  0  0  0  0  0  0  0  0
    9.8941  -16.5699   27.5898 O   0  0  0  0  0  0  0  0  0  0  0  0
   10.7823  -18.6517   27.5044 O   0  0  0  0  0  0  0  0  0  0  0  0
  1  5  1  0
  2  1  1  0
  3  2  1  0
  3  4  1  0
  4  5  1  0
  5  6  1  1
  6  7  2  0
  8  9  1  0
  9 10  1  0
 11 10  1  0
 12 11  1  1
 12 14  1  0
 13  6  1  0
 13 12  1  0
 14 19  1  0
 14 15  2  0
 16 17  1  0
 18 17  1  1
 18 20  1  0
 19 18  1  0
 20 21  2  0
 20 22  1  0
M  END
$$$$
