FAK.pdb
     RDKit          3D

 26 26  0  0  1  0  0  0  0  0999 V2000
    9.0539  -14.8296   24.6852 N   0  0  0  0  0  0  0  0  0  0  0  0
    7.8536  -15.5793   24.3699 C   0  0  1  0  0  0  0  0  0  0  0  0
    6.7932  -15.1974   25.3707 C   0  0  0  0  0  0  0  0  0  0  0  0
    7.1290  -13.9014   26.0143 C   0  0  0  0  0  0  0  0  0  0  0  0
    8.3739  -13.6835   26.5664 C   0  0  0  0  0  0  0  0  0  0  0  0
    8.6703  -12.4751   27.1612 C   0  0  0  0  0  0  0  0  0  0  0  0
    7.6992  -11.4850   27.1954 C   0  0  0  0  0  0  0  0  0  0  0  0
    6.4605  -11.7195   26.6390 C   0  0  0  0  0  0  0  0  0  0  0  0
    6.1625  -12.9179   26.0476 C   0  0  0  0  0  0  0  0  0  0  0  0
    7.4814  -15.3533   22.9720 C   0  0  0  0  0  0  0  0  0  0  0  0
    6.4989  -15.9939   22.4627 O   0  0  0  0  0  0  0  0  0  0  0  0
    8.0920  -13.0177   20.1487 C   0  0  0  0  0  0  0  0  0  0  0  0
    7.9583  -14.4558   20.6680 C   0  0  2  0  0  0  0  0  0  0  0  0
    8.1342  -14.4546   22.0963 N   0  0  0  0  0  0  0  0  0  0  0  0
    8.9769  -15.2404   19.9340 C   0  0  0  0  0  0  0  0  0  0  0  0
    9.0941  -15.2241   18.6856 O   0  0  0  0  0  0  0  0  0  0  0  0
    9.8521  -16.0414   20.6893 N   0  0  0  0  0  0  0  0  0  0  0  0
   11.0868  -16.5944   19.9988 C   0  0  1  0  0  0  0  0  0  0  0  0
   12.0563  -15.4675   20.0174 C   0  0  0  0  0  0  0  0  0  0  0  0
   12.8489  -15.1496   18.8400 C   0  0  0  0  0  0  0  0  0  0  0  0
   14.1517  -14.4627   18.9587 C   0  0  0  0  0  0  0  0  0  0  0  0
   14.6809  -14.0791   17.5483 C   0  0  0  0  0  0  0  0  0  0  0  0
   15.8711  -13.2808   17.7050 N   0  0  0  0  0  0  0  0  0  0  0  0
   11.4536  -17.6939   20.9481 C   0  0  0  0  0  0  0  0  0  0  0  0
   12.2534  -18.7734   20.7031 O   0  0  0  0  0  0  0  0  0  0  0  0
   10.9476  -17.6054   22.1312 O   0  0  0  0  0  0  0  0  0  0  0  0
  2  1  1  1
  2 10  1  0
  3  2  1  0
  3  4  1  0
  4  5  2  0
  4  9  1  0
  5  6  1  0
  6  7  2  0
  8  7  1  0
  9  8  2  0
 10 11  2  0
 13 12  1  6
 13 15  1  0
 14 10  1  0
 14 13  1  0
 15 16  2  0
 17 15  1  0
 17 18  1  0
 18 24  1  0
 19 20  1  0
 18 19  1  1
 21 20  1  0
 22 23  1  0
 22 21  1  0
 24 25  1  0
 26 24  2  0
M  END
$$$$
