FAK.pdb
     RDKit          3D

 26 26  0  0  1  0  0  0  0  0999 V2000
    7.8018  -16.5943   26.8483 N   0  0  0  0  0  0  0  0  0  0  0  0
    7.2117  -16.1598   25.5973 C   0  0  1  0  0  0  0  0  0  0  0  0
    7.8182  -14.8276   25.2375 C   0  0  0  0  0  0  0  0  0  0  0  0
    7.3266  -13.7681   26.1554 C   0  0  0  0  0  0  0  0  0  0  0  0
    5.9764  -13.5377   26.3165 C   0  0  0  0  0  0  0  0  0  0  0  0
    5.5356  -12.5498   27.1718 C   0  0  0  0  0  0  0  0  0  0  0  0
    6.4690  -11.7937   27.8656 C   0  0  0  0  0  0  0  0  0  0  0  0
    7.8144  -12.0372   27.6928 C   0  0  0  0  0  0  0  0  0  0  0  0
    8.2558  -13.0171   26.8445 C   0  0  0  0  0  0  0  0  0  0  0  0
    7.3818  -17.2006   24.5816 C   0  0  0  0  0  0  0  0  0  0  0  0
    8.2493  -18.1239   24.7547 O   0  0  0  0  0  0  0  0  0  0  0  0
    5.7353  -18.2677   21.3613 C   0  0  0  0  0  0  0  0  0  0  0  0
    6.9275  -18.2261   22.3270 C   0  0  2  0  0  0  0  0  0  0  0  0
    6.6449  -17.2835   23.3772 N   0  0  0  0  0  0  0  0  0  0  0  0
    8.1007  -17.8719   21.4963 C   0  0  0  0  0  0  0  0  0  0  0  0
    8.4847  -18.5540   20.5166 O   0  0  0  0  0  0  0  0  0  0  0  0
    8.8120  -16.7070   21.8352 N   0  0  0  0  0  0  0  0  0  0  0  0
   10.1137  -16.4288   21.1035 C   0  0  1  0  0  0  0  0  0  0  0  0
    9.8849  -15.1258   20.4251 C   0  0  0  0  0  0  0  0  0  0  0  0
    9.2199  -15.0676   19.1328 C   0  0  0  0  0  0  0  0  0  0  0  0
    8.9695  -13.7761   18.4601 C   0  0  0  0  0  0  0  0  0  0  0  0
    8.2038  -14.0104   17.1277 C   0  0  0  0  0  0  0  0  0  0  0  0
    8.0706  -12.7474   16.4454 N   0  0  0  0  0  0  0  0  0  0  0  0
   11.0551  -16.3236   22.2642 C   0  0  0  0  0  0  0  0  0  0  0  0
   10.7530  -16.4181   23.5926 O   0  0  0  0  0  0  0  0  0  0  0  0
   12.2925  -16.1152   21.9657 O   0  0  0  0  0  0  0  0  0  0  0  0
  2  1  1  1
  2 10  1  0
  3  2  1  0
  3  4  1  0
  4  5  2  0
  4  9  1  0
  5  6  1  0
  6  7  2  0
  8  7  1  0
  9  8  2  0
 10 11  2  0
 13 12  1  6
 13 15  1  0
 14 10  1  0
 14 13  1  0
 15 16  2  0
 17 15  1  0
 17 18  1  0
 18 24  1  0
 19 20  1  0
 18 19  1  1
 21 20  1  0
 22 23  1  0
 22 21  1  0
 24 25  1  0
 26 24  2  0
M  END
$$$$
