FAK.pdb
     RDKit          3D

 26 26  0  0  1  0  0  0  0  0999 V2000
    9.4341  -15.4211   22.2385 N   0  0  0  0  0  0  0  0  0  0  0  0
    8.9343  -14.6672   23.3715 C   0  0  1  0  0  0  0  0  0  0  0  0
    7.4289  -14.6632   23.2970 C   0  0  0  0  0  0  0  0  0  0  0  0
    6.8582  -13.8027   24.3650 C   0  0  0  0  0  0  0  0  0  0  0  0
    7.0196  -12.4333   24.3364 C   0  0  0  0  0  0  0  0  0  0  0  0
    6.4845  -11.6479   25.3358 C   0  0  0  0  0  0  0  0  0  0  0  0
    5.7833  -12.2553   26.3672 C   0  0  0  0  0  0  0  0  0  0  0  0
    5.6315  -13.6249   26.3803 C   0  0  0  0  0  0  0  0  0  0  0  0
    6.1613  -14.4079   25.3899 C   0  0  0  0  0  0  0  0  0  0  0  0
    9.4812  -15.2182   24.6130 C   0  0  0  0  0  0  0  0  0  0  0  0
    9.7094  -16.4729   24.7070 O   0  0  0  0  0  0  0  0  0  0  0  0
   10.3576  -14.0085   28.0759 C   0  0  0  0  0  0  0  0  0  0  0  0
   10.5089  -14.9830   26.8999 C   0  0  2  0  0  0  0  0  0  0  0  0
    9.7939  -14.4602   25.7655 N   0  0  0  0  0  0  0  0  0  0  0  0
    9.9966  -16.2823   27.3910 C   0  0  0  0  0  0  0  0  0  0  0  0
    8.7807  -16.5144   27.5914 O   0  0  0  0  0  0  0  0  0  0  0  0
   10.9341  -17.3003   27.6417 N   0  0  0  0  0  0  0  0  0  0  0  0
   10.4168  -18.6379   28.1422 C   0  0  1  0  0  0  0  0  0  0  0  0
   10.8544  -19.6132   27.1089 C   0  0  0  0  0  0  0  0  0  0  0  0
   12.2653  -19.7861   26.8005 C   0  0  0  0  0  0  0  0  0  0  0  0
   12.7114  -20.7644   25.7872 C   0  0  0  0  0  0  0  0  0  0  0  0
   14.2642  -20.7876   25.7179 C   0  0  0  0  0  0  0  0  0  0  0  0
   14.6639  -21.6651   24.6462 N   0  0  0  0  0  0  0  0  0  0  0  0
   11.1868  -18.7601   29.4215 C   0  0  0  0  0  0  0  0  0  0  0  0
   12.1193  -17.8947   29.9181 O   0  0  0  0  0  0  0  0  0  0  0  0
   10.9373  -19.8097   30.1283 O   0  0  0  0  0  0  0  0  0  0  0  0
  2  1  1  6
  2 10  1  0
  3  2  1  0
  3  4  1  0
  4  5  2  0
  4  9  1  0
  5  6  1  0
  6  7  2  0
  8  7  1  0
  9  8  2  0
 10 11  2  0
 13 12  1  1
 13 15  1  0
 14 10  1  0
 14 13  1  0
 15 16  2  0
 17 15  1  0
 17 18  1  0
 18 24  1  0
 19 20  1  0
 18 19  1  6
 21 20  1  0
 22 23  1  0
 22 21  1  0
 24 25  1  0
 26 24  2  0
M  END
$$$$
