FAK.pdb
     RDKit          3D

 26 26  0  0  1  0  0  0  0  0999 V2000
    5.9571  -16.4652   25.4253 N   0  0  0  0  0  0  0  0  0  0  0  0
    6.1751  -15.9675   24.0811 C   0  0  1  0  0  0  0  0  0  0  0  0
    5.8629  -14.4929   24.0773 C   0  0  0  0  0  0  0  0  0  0  0  0
    6.5287  -13.8181   25.2211 C   0  0  0  0  0  0  0  0  0  0  0  0
    7.8857  -13.5720   25.2091 C   0  0  0  0  0  0  0  0  0  0  0  0
    8.4894  -12.9453   26.2790 C   0  0  0  0  0  0  0  0  0  0  0  0
    7.7125  -12.5673   27.3642 C   0  0  0  0  0  0  0  0  0  0  0  0
    6.3579  -12.8208   27.3598 C   0  0  0  0  0  0  0  0  0  0  0  0
    5.7550  -13.4428   26.2995 C   0  0  0  0  0  0  0  0  0  0  0  0
    7.5307  -16.3042   23.6421 C   0  0  0  0  0  0  0  0  0  0  0  0
    8.3444  -16.8606   24.4567 O   0  0  0  0  0  0  0  0  0  0  0  0
    9.6956  -15.7459   20.6047 C   0  0  0  0  0  0  0  0  0  0  0  0
    9.3565  -16.4685   21.9156 C   0  0  2  0  0  0  0  0  0  0  0  0
    8.0452  -16.0617   22.3471 N   0  0  0  0  0  0  0  0  0  0  0  0
   10.4408  -16.1122   22.8586 C   0  0  0  0  0  0  0  0  0  0  0  0
   10.5553  -14.9792   23.3836 O   0  0  0  0  0  0  0  0  0  0  0  0
   11.3847  -17.1065   23.1728 N   0  0  0  0  0  0  0  0  0  0  0  0
   12.3806  -16.8181   24.2828 C   0  0  1  0  0  0  0  0  0  0  0  0
   12.0700  -17.8275   25.3292 C   0  0  0  0  0  0  0  0  0  0  0  0
   12.3326  -17.5482   26.7323 C   0  0  0  0  0  0  0  0  0  0  0  0
   12.0720  -18.5623   27.7748 C   0  0  0  0  0  0  0  0  0  0  0  0
   12.5229  -18.0262   29.1625 C   0  0  0  0  0  0  0  0  0  0  0  0
   12.2145  -19.0188   30.1615 N   0  0  0  0  0  0  0  0  0  0  0  0
   13.6665  -17.0982   23.5669 C   0  0  0  0  0  0  0  0  0  0  0  0
   14.9258  -16.7232   23.9394 O   0  0  0  0  0  0  0  0  0  0  0  0
   13.5633  -17.7684   22.4698 O   0  0  0  0  0  0  0  0  0  0  0  0
  2  1  1  1
  2 10  1  0
  3  2  1  0
  3  4  1  0
  4  5  2  0
  4  9  1  0
  5  6  1  0
  6  7  2  0
  8  7  1  0
  9  8  2  0
 10 11  2  0
 13 12  1  6
 13 15  1  0
 14 10  1  0
 14 13  1  0
 15 16  2  0
 17 15  1  0
 17 18  1  0
 18 24  1  0
 19 20  1  0
 18 19  1  1
 21 20  1  0
 22 23  1  0
 22 21  1  0
 24 25  1  0
 26 24  2  0
M  END
$$$$
