FAK.pdb
     RDKit          3D

 26 26  0  0  1  0  0  0  0  0999 V2000
    5.7621  -17.0354   25.5277 N   0  0  0  0  0  0  0  0  0  0  0  0
    6.3968  -15.8089   25.0861 C   0  0  1  0  0  0  0  0  0  0  0  0
    7.2174  -15.2740   26.2317 C   0  0  0  0  0  0  0  0  0  0  0  0
    6.8781  -13.8518   26.4941 C   0  0  0  0  0  0  0  0  0  0  0  0
    5.5834  -13.4708   26.7785 C   0  0  0  0  0  0  0  0  0  0  0  0
    5.2840  -12.1463   27.0191 C   0  0  0  0  0  0  0  0  0  0  0  0
    6.3026  -11.2059   26.9707 C   0  0  0  0  0  0  0  0  0  0  0  0
    7.5908  -11.6038   26.6851 C   0  0  0  0  0  0  0  0  0  0  0  0
    7.8919  -12.9178   26.4457 C   0  0  0  0  0  0  0  0  0  0  0  0
    7.1545  -16.0578   23.8582 C   0  0  0  0  0  0  0  0  0  0  0  0
    7.9022  -17.0914   23.7693 O   0  0  0  0  0  0  0  0  0  0  0  0
    7.9409  -14.1314   20.7110 C   0  0  0  0  0  0  0  0  0  0  0  0
    8.0245  -15.3847   21.5929 C   0  0  2  0  0  0  0  0  0  0  0  0
    7.1354  -15.2272   22.7135 N   0  0  0  0  0  0  0  0  0  0  0  0
    9.4512  -15.5140   21.9667 C   0  0  0  0  0  0  0  0  0  0  0  0
   10.0859  -14.6283   22.5874 O   0  0  0  0  0  0  0  0  0  0  0  0
   10.1168  -16.6974   21.6000 N   0  0  0  0  0  0  0  0  0  0  0  0
   11.4921  -16.9540   22.1916 C   0  0  1  0  0  0  0  0  0  0  0  0
   11.4204  -18.3487   22.7016 C   0  0  0  0  0  0  0  0  0  0  0  0
   12.1419  -18.7386   23.9029 C   0  0  0  0  0  0  0  0  0  0  0  0
   11.9850  -20.0879   24.4841 C   0  0  0  0  0  0  0  0  0  0  0  0
   12.7487  -20.1770   25.8351 C   0  0  0  0  0  0  0  0  0  0  0  0
   12.4373  -21.4396   26.4573 N   0  0  0  0  0  0  0  0  0  0  0  0
   12.3394  -16.8263   20.9626 C   0  0  0  0  0  0  0  0  0  0  0  0
   11.9536  -16.9969   19.6638 O   0  0  0  0  0  0  0  0  0  0  0  0
   13.5770  -16.5239   21.1636 O   0  0  0  0  0  0  0  0  0  0  0  0
  2  1  1  1
  2 10  1  0
  3  2  1  0
  3  4  1  0
  4  5  2  0
  4  9  1  0
  5  6  1  0
  6  7  2  0
  8  7  1  0
  9  8  2  0
 10 11  2  0
 13 12  1  6
 13 15  1  0
 14 10  1  0
 14 13  1  0
 15 16  2  0
 17 15  1  0
 17 18  1  0
 18 24  1  0
 19 20  1  0
 18 19  1  6
 21 20  1  0
 22 23  1  0
 22 21  1  0
 24 25  1  0
 26 24  2  0
M  END
$$$$
