FAK.pdb
     RDKit          3D

 26 26  0  0  1  0  0  0  0  0999 V2000
    8.7084  -16.2713   23.2303 N   0  0  0  0  0  0  0  0  0  0  0  0
    9.6170  -16.4246   22.1110 C   0  0  1  0  0  0  0  0  0  0  0  0
   10.0976  -15.0523   21.7137 C   0  0  0  0  0  0  0  0  0  0  0  0
    8.9819  -14.2574   21.1392 C   0  0  0  0  0  0  0  0  0  0  0  0
    8.2777  -13.3586   21.9128 C   0  0  0  0  0  0  0  0  0  0  0  0
    7.2439  -12.6285   21.3650 C   0  0  0  0  0  0  0  0  0  0  0  0
    6.9243  -12.8119   20.0276 C   0  0  0  0  0  0  0  0  0  0  0  0
    7.6383  -13.7141   19.2691 C   0  0  0  0  0  0  0  0  0  0  0  0
    8.6654  -14.4407   19.8093 C   0  0  0  0  0  0  0  0  0  0  0  0
   10.6828  -17.3647   22.4635 C   0  0  0  0  0  0  0  0  0  0  0  0
   11.4929  -17.0830   23.4120 O   0  0  0  0  0  0  0  0  0  0  0  0
   11.5105  -20.9439   22.0187 C   0  0  0  0  0  0  0  0  0  0  0  0
   11.9927  -19.4936   22.1584 C   0  0  2  0  0  0  0  0  0  0  0  0
   10.9087  -18.6072   21.8265 N   0  0  0  0  0  0  0  0  0  0  0  0
   13.1658  -19.3761   21.2628 C   0  0  0  0  0  0  0  0  0  0  0  0
   13.0876  -19.0078   20.0667 O   0  0  0  0  0  0  0  0  0  0  0  0
   14.4274  -19.6975   21.7949 N   0  0  0  0  0  0  0  0  0  0  0  0
   15.6385  -19.5619   20.8883 C   0  0  1  0  0  0  0  0  0  0  0  0
   16.6939  -18.9895   21.7651 C   0  0  0  0  0  0  0  0  0  0  0  0
   16.7794  -17.5542   21.9851 C   0  0  0  0  0  0  0  0  0  0  0  0
   17.7578  -16.9839   22.9341 C   0  0  0  0  0  0  0  0  0  0  0  0
   17.5918  -15.4399   23.0050 C   0  0  0  0  0  0  0  0  0  0  0  0
   18.3914  -14.9408   24.0958 N   0  0  0  0  0  0  0  0  0  0  0  0
   15.8805  -21.0011   20.5493 C   0  0  0  0  0  0  0  0  0  0  0  0
   16.5843  -21.5002   19.4907 O   0  0  0  0  0  0  0  0  0  0  0  0
   15.3561  -21.8626   21.3532 O   0  0  0  0  0  0  0  0  0  0  0  0
  2  1  1  1
  2 10  1  0
  3  2  1  0
  3  4  1  0
  4  5  2  0
  4  9  1  0
  5  6  1  0
  6  7  2  0
  8  7  1  0
  9  8  2  0
 10 11  2  0
 13 12  1  6
 13 15  1  0
 14 10  1  0
 14 13  1  0
 15 16  2  0
 17 15  1  0
 17 18  1  0
 18 24  1  0
 19 20  1  0
 18 19  1  1
 21 20  1  0
 22 23  1  0
 22 21  1  0
 24 25  1  0
 26 24  2  0
M  END
$$$$
