FAK.pdb
     RDKit          3D

 26 26  0  0  1  0  0  0  0  0999 V2000
    6.1971  -16.5144   25.1441 N   0  0  0  0  0  0  0  0  0  0  0  0
    7.2992  -15.6934   24.6822 C   0  0  1  0  0  0  0  0  0  0  0  0
    7.8372  -14.9320   25.8666 C   0  0  0  0  0  0  0  0  0  0  0  0
    7.1180  -13.6419   26.0250 C   0  0  0  0  0  0  0  0  0  0  0  0
    6.1755  -13.4709   27.0172 C   0  0  0  0  0  0  0  0  0  0  0  0
    5.5156  -12.2674   27.1510 C   0  0  0  0  0  0  0  0  0  0  0  0
    5.8139  -11.2345   26.2744 C   0  0  0  0  0  0  0  0  0  0  0  0
    6.7584  -11.4224   25.2886 C   0  0  0  0  0  0  0  0  0  0  0  0
    7.4157  -12.6158   25.1527 C   0  0  0  0  0  0  0  0  0  0  0  0
    8.2862  -16.5297   23.9964 C   0  0  0  0  0  0  0  0  0  0  0  0
    8.5614  -17.6929   24.4507 O   0  0  0  0  0  0  0  0  0  0  0  0
   10.4488  -16.3197   20.9029 C   0  0  0  0  0  0  0  0  0  0  0  0
   10.0678  -16.9245   22.2611 C   0  0  2  0  0  0  0  0  0  0  0  0
    8.9924  -16.1554   22.8294 N   0  0  0  0  0  0  0  0  0  0  0  0
   11.3108  -16.9121   23.0652 C   0  0  0  0  0  0  0  0  0  0  0  0
   11.7967  -15.8721   23.5701 O   0  0  0  0  0  0  0  0  0  0  0  0
   11.9706  -18.1379   23.2652 N   0  0  0  0  0  0  0  0  0  0  0  0
   13.1219  -18.1742   24.2553 C   0  0  1  0  0  0  0  0  0  0  0  0
   12.8644  -19.3863   25.0768 C   0  0  0  0  0  0  0  0  0  0  0  0
   12.6030  -19.2752   26.5034 C   0  0  0  0  0  0  0  0  0  0  0  0
   12.2681  -20.4647   27.3134 C   0  0  0  0  0  0  0  0  0  0  0  0
   12.0672  -20.0563   28.7998 C   0  0  0  0  0  0  0  0  0  0  0  0
   11.7912  -21.2433   29.5698 N   0  0  0  0  0  0  0  0  0  0  0  0
   14.2767  -18.3421   23.3157 C   0  0  0  0  0  0  0  0  0  0  0  0
   14.2696  -18.9340   22.0850 O   0  0  0  0  0  0  0  0  0  0  0  0
   15.4064  -17.8744   23.7262 O   0  0  0  0  0  0  0  0  0  0  0  0
  2  1  1  1
  2 10  1  0
  3  2  1  0
  3  4  1  0
  4  5  2  0
  4  9  1  0
  5  6  1  0
  6  7  2  0
  8  7  1  0
  9  8  2  0
 10 11  2  0
 13 12  1  6
 13 15  1  0
 14 10  1  0
 14 13  1  0
 15 16  2  0
 17 15  1  0
 17 18  1  0
 18 24  1  0
 19 20  1  0
 18 19  1  1
 21 20  1  0
 22 23  1  0
 22 21  1  0
 24 25  1  0
 26 24  2  0
M  END
$$$$
