FAK.pdb
     RDKit          3D

 26 26  0  0  1  0  0  0  0  0999 V2000
    6.8054  -16.3474   26.7224 N   0  0  0  0  0  0  0  0  0  0  0  0
    6.4571  -16.5254   25.3263 C   0  0  1  0  0  0  0  0  0  0  0  0
    6.1951  -15.1628   24.7374 C   0  0  0  0  0  0  0  0  0  0  0  0
    6.5180  -14.0998   25.7236 C   0  0  0  0  0  0  0  0  0  0  0  0
    5.5677  -13.6426   26.6124 C   0  0  0  0  0  0  0  0  0  0  0  0
    5.8826  -12.6546   27.5216 C   0  0  0  0  0  0  0  0  0  0  0  0
    7.1665  -12.1294   27.5279 C   0  0  0  0  0  0  0  0  0  0  0  0
    8.1038  -12.5978   26.6328 C   0  0  0  0  0  0  0  0  0  0  0  0
    7.7949  -13.5786   25.7287 C   0  0  0  0  0  0  0  0  0  0  0  0
    7.5049  -17.2907   24.6481 C   0  0  0  0  0  0  0  0  0  0  0  0
    8.6814  -17.3405   25.1467 O   0  0  0  0  0  0  0  0  0  0  0  0
    7.7457  -19.7813   21.8461 C   0  0  0  0  0  0  0  0  0  0  0  0
    8.3778  -18.7495   22.7903 C   0  0  2  0  0  0  0  0  0  0  0  0
    7.3296  -18.0103   23.4431 N   0  0  0  0  0  0  0  0  0  0  0  0
    9.2625  -17.9211   21.9399 C   0  0  0  0  0  0  0  0  0  0  0  0
    9.1630  -17.8618   20.6913 O   0  0  0  0  0  0  0  0  0  0  0  0
   10.2622  -17.1665   22.5795 N   0  0  0  0  0  0  0  0  0  0  0  0
   11.1859  -16.3279   21.7131 C   0  0  1  0  0  0  0  0  0  0  0  0
   10.4011  -15.1004   21.4170 C   0  0  0  0  0  0  0  0  0  0  0  0
    9.6489  -14.9803   20.1778 C   0  0  0  0  0  0  0  0  0  0  0  0
    8.9881  -13.7124   19.8053 C   0  0  0  0  0  0  0  0  0  0  0  0
    8.2502  -13.8765   18.4470 C   0  0  0  0  0  0  0  0  0  0  0  0
    7.6322  -12.6200   18.1043 N   0  0  0  0  0  0  0  0  0  0  0  0
   12.3070  -16.0840   22.6765 C   0  0  0  0  0  0  0  0  0  0  0  0
   12.3493  -16.4044   24.0034 O   0  0  0  0  0  0  0  0  0  0  0  0
   13.3481  -15.4991   22.1892 O   0  0  0  0  0  0  0  0  0  0  0  0
  2  1  1  1
  2 10  1  0
  3  2  1  0
  3  4  1  0
  4  5  2  0
  4  9  1  0
  5  6  1  0
  6  7  2  0
  8  7  1  0
  9  8  2  0
 10 11  2  0
 13 12  1  6
 13 15  1  0
 14 10  1  0
 14 13  1  0
 15 16  2  0
 17 15  1  0
 17 18  1  0
 18 24  1  0
 19 20  1  0
 18 19  1  1
 21 20  1  0
 22 23  1  0
 22 21  1  0
 24 25  1  0
 26 24  2  0
M  END
$$$$
