SIQ.pdb
     RDKit          3D

 24 23  0  0  1  0  0  0  0  0999 V2000
   28.3750  -18.7958  -16.2231 O   0  0  0  0  0  0  0  0  0  0  0  0
   27.3285  -19.4991  -15.6431 C   0  0  0  0  0  0  0  0  0  0  0  0
   27.9169  -20.6266  -14.8077 C   0  0  2  0  0  0  0  0  0  0  0  0
   28.4163  -21.6596  -15.6883 N   0  0  0  0  0  0  0  0  0  0  0  0
   26.8899  -21.2172  -13.9216 C   0  0  0  0  0  0  0  0  0  0  0  0
   26.1976  -22.1800  -14.3295 O   0  0  0  0  0  0  0  0  0  0  0  0
   27.0016  -20.0191   -8.4629 C   0  0  0  0  0  0  0  0  0  0  0  0
   26.8155  -20.9332   -9.6531 C   0  0  0  0  0  0  0  0  0  0  0  0
   25.6037  -20.4789  -10.4117 C   0  0  2  0  0  0  0  0  0  0  0  0
   24.3604  -20.8404   -9.6371 C   0  0  0  0  0  0  0  0  0  0  0  0
   25.5427  -21.0060  -11.8110 C   0  0  2  0  0  0  0  0  0  0  0  0
   26.6874  -20.6941  -12.6089 N   0  0  0  0  0  0  0  0  0  0  0  0
   24.2862  -20.4999  -12.4592 C   0  0  0  0  0  0  0  0  0  0  0  0
   24.2689  -19.2725  -12.7366 O   0  0  0  0  0  0  0  0  0  0  0  0
   21.0874  -22.8987  -16.9333 N   0  0  0  0  0  0  0  0  0  0  0  0
   20.2592  -21.8009  -16.6280 C   0  0  0  0  0  0  0  0  0  0  0  0
   19.3063  -21.5309  -17.3713 O   0  0  0  0  0  0  0  0  0  0  0  0
   20.5996  -21.0188  -15.3942 C   0  0  0  0  0  0  0  0  0  0  0  0
   21.7858  -21.6003  -14.6845 C   0  0  0  0  0  0  0  0  0  0  0  0
   22.0705  -20.7898  -13.4539 C   0  0  2  0  0  0  0  0  0  0  0  0
   23.2064  -21.3796  -12.7271 N   0  0  0  0  0  0  0  0  0  0  0  0
   20.9141  -20.8104  -12.5457 C   0  0  0  0  0  0  0  0  0  0  0  0
   19.9174  -19.8572  -12.5903 O   0  0  0  0  0  0  0  0  0  0  0  0
   20.8327  -21.7390  -11.6849 O   0  0  0  0  0  0  0  0  0  0  0  0
  2  1  1  0
  2  3  1  0
  3  4  1  6
  5 12  1  0
  5  3  1  0
  6  5  2  0
  7  8  1  0
  9  8  1  0
  9 11  1  0
  9 10  1  1
 11 12  1  6
 13 21  1  0
 13 11  1  0
 14 13  2  0
 16 15  1  0
 17 16  2  0
 18 16  1  0
 19 18  1  0
 20 19  1  6
 20 21  1  0
 22 20  1  0
 23 22  1  0
 24 22  2  0
M  END
$$$$
