SIQ.pdb
     RDKit          3D

 24 23  0  0  1  0  0  0  0  0999 V2000
   14.8899  -10.0279  -14.4547 O   0  0  0  0  0  0  0  0  0  0  0  0
   15.8752   -9.8021  -15.4057 C   0  0  0  0  0  0  0  0  0  0  0  0
   17.1665  -10.4405  -14.9152 C   0  0  2  0  0  0  0  0  0  0  0  0
   16.9719  -11.8679  -14.7869 N   0  0  0  0  0  0  0  0  0  0  0  0
   17.5551   -9.8963  -13.5956 C   0  0  0  0  0  0  0  0  0  0  0  0
   17.4851  -10.6263  -12.5782 O   0  0  0  0  0  0  0  0  0  0  0  0
   21.8445   -6.5110  -13.1845 C   0  0  0  0  0  0  0  0  0  0  0  0
   20.8141   -7.6049  -13.0167 C   0  0  0  0  0  0  0  0  0  0  0  0
   19.5871   -7.0059  -12.3953 C   0  0  2  0  0  0  0  0  0  0  0  0
   19.9477   -6.3832  -11.0690 C   0  0  0  0  0  0  0  0  0  0  0  0
   18.4572   -7.9762  -12.2490 C   0  0  2  0  0  0  0  0  0  0  0  0
   18.0074   -8.5473  -13.4801 N   0  0  0  0  0  0  0  0  0  0  0  0
   17.3278   -7.2920  -11.5338 C   0  0  0  0  0  0  0  0  0  0  0  0
   16.6709   -6.4622  -12.2147 O   0  0  0  0  0  0  0  0  0  0  0  0
   13.1481   -8.8491   -8.7666 N   0  0  0  0  0  0  0  0  0  0  0  0
   13.0217   -7.6506   -8.0372 C   0  0  0  0  0  0  0  0  0  0  0  0
   11.8985   -7.2682   -7.6829 O   0  0  0  0  0  0  0  0  0  0  0  0
   14.2879   -6.9057   -7.7348 C   0  0  0  0  0  0  0  0  0  0  0  0
   15.4848   -7.5969   -8.3166 C   0  0  0  0  0  0  0  0  0  0  0  0
   15.8481   -6.9430   -9.6176 C   0  0  2  0  0  0  0  0  0  0  0  0
   17.0482   -7.5878  -10.1752 N   0  0  0  0  0  0  0  0  0  0  0  0
   16.1736   -5.5245   -9.4069 C   0  0  0  0  0  0  0  0  0  0  0  0
   15.2622   -4.5124   -9.6283 O   0  0  0  0  0  0  0  0  0  0  0  0
   17.3398   -5.2200   -9.0102 O   0  0  0  0  0  0  0  0  0  0  0  0
  2  1  1  0
  2  3  1  0
  3  4  1  1
  5 12  1  0
  5  3  1  0
  6  5  2  0
  7  8  1  0
  9  8  1  0
  9 11  1  0
  9 10  1  1
 11 12  1  6
 13 21  1  0
 13 11  1  0
 14 13  2  0
 16 15  1  0
 17 16  2  0
 18 16  1  0
 19 18  1  0
 20 19  1  1
 20 21  1  0
 22 20  1  0
 23 22  1  0
 24 22  2  0
M  END
$$$$
