SIQ.pdb
     RDKit          3D

 24 23  0  0  1  0  0  0  0  0999 V2000
   19.7894  -15.7996  -18.0884 O   0  0  0  0  0  0  0  0  0  0  0  0
   20.1995  -14.7028  -17.3434 C   0  0  0  0  0  0  0  0  0  0  0  0
   21.5826  -14.9978  -16.7819 C   0  0  2  0  0  0  0  0  0  0  0  0
   21.5184  -16.1870  -15.9611 N   0  0  0  0  0  0  0  0  0  0  0  0
   22.0636  -13.8742  -15.9484 C   0  0  0  0  0  0  0  0  0  0  0  0
   21.7315  -13.8106  -14.7408 O   0  0  0  0  0  0  0  0  0  0  0  0
   26.9866  -10.5265  -15.1540 C   0  0  0  0  0  0  0  0  0  0  0  0
   25.4801  -10.5216  -15.0221 C   0  0  0  0  0  0  0  0  0  0  0  0
   24.9330  -11.6666  -15.8222 C   0  0  2  0  0  0  0  0  0  0  0  0
   25.4108  -11.5570  -17.2492 C   0  0  0  0  0  0  0  0  0  0  0  0
   23.4423  -11.7821  -15.7573 C   0  0  2  0  0  0  0  0  0  0  0  0
   22.9015  -12.8671  -16.5153 N   0  0  0  0  0  0  0  0  0  0  0  0
   22.8413  -10.4761  -16.1910 C   0  0  0  0  0  0  0  0  0  0  0  0
   22.8934  -10.2317  -17.4245 O   0  0  0  0  0  0  0  0  0  0  0  0
   17.9210   -9.0925  -17.3881 N   0  0  0  0  0  0  0  0  0  0  0  0
   18.2394   -7.7294  -17.2295 C   0  0  0  0  0  0  0  0  0  0  0  0
   17.5255   -6.8705  -17.7641 O   0  0  0  0  0  0  0  0  0  0  0  0
   19.4500   -7.4089  -16.4039 C   0  0  0  0  0  0  0  0  0  0  0  0
   20.1237   -8.6541  -15.9095 C   0  0  0  0  0  0  0  0  0  0  0  0
   21.5996   -8.4055  -15.7984 C   0  0  2  0  0  0  0  0  0  0  0  0
   22.2597   -9.5976  -15.2415 N   0  0  0  0  0  0  0  0  0  0  0  0
   21.8652   -7.2902  -14.8774 C   0  0  0  0  0  0  0  0  0  0  0  0
   22.4375   -7.4729  -13.6352 O   0  0  0  0  0  0  0  0  0  0  0  0
   21.5517   -6.1149  -15.2384 O   0  0  0  0  0  0  0  0  0  0  0  0
  2  1  1  0
  2  3  1  0
  3  4  1  1
  5 12  1  0
  5  3  1  0
  6  5  2  0
  7  8  1  0
  9  8  1  0
  9 11  1  0
  9 10  1  6
 11 12  1  6
 13 21  1  0
 13 11  1  0
 14 13  2  0
 16 15  1  0
 17 16  2  0
 18 16  1  0
 19 18  1  0
 20 19  1  1
 20 21  1  0
 22 20  1  0
 23 22  1  0
 24 22  2  0
M  END
$$$$
