SIQ.pdb
     RDKit          3D

 24 23  0  0  1  0  0  0  0  0999 V2000
   29.0857  -22.1146  -14.6548 O   0  0  0  0  0  0  0  0  0  0  0  0
   28.3518  -22.1432  -15.8325 C   0  0  0  0  0  0  0  0  0  0  0  0
   27.2543  -21.0936  -15.7360 C   0  0  2  0  0  0  0  0  0  0  0  0
   27.8331  -19.8388  -15.3093 N   0  0  0  0  0  0  0  0  0  0  0  0
   26.2245  -21.4970  -14.7535 C   0  0  0  0  0  0  0  0  0  0  0  0
   25.5768  -22.5559  -14.9325 O   0  0  0  0  0  0  0  0  0  0  0  0
   26.8466  -20.5109   -9.3822 C   0  0  0  0  0  0  0  0  0  0  0  0
   26.5067  -21.1938  -10.6879 C   0  0  0  0  0  0  0  0  0  0  0  0
   25.2757  -20.5478  -11.2516 C   0  0  2  0  0  0  0  0  0  0  0  0
   24.1116  -20.7865  -10.3218 C   0  0  0  0  0  0  0  0  0  0  0  0
   24.9551  -20.9881  -12.6455 C   0  0  2  0  0  0  0  0  0  0  0  0
   25.9688  -20.6855  -13.6073 N   0  0  0  0  0  0  0  0  0  0  0  0
   23.6402  -20.3846  -13.0479 C   0  0  0  0  0  0  0  0  0  0  0  0
   23.6156  -19.1290  -13.1290 O   0  0  0  0  0  0  0  0  0  0  0  0
   20.1600  -21.7869  -17.6245 N   0  0  0  0  0  0  0  0  0  0  0  0
   19.3155  -20.8406  -17.0113 C   0  0  0  0  0  0  0  0  0  0  0  0
   18.3194  -20.4277  -17.6201 O   0  0  0  0  0  0  0  0  0  0  0  0
   19.6931  -20.3904  -15.6313 C   0  0  0  0  0  0  0  0  0  0  0  0
   20.9870  -21.0047  -15.1873 C   0  0  0  0  0  0  0  0  0  0  0  0
   21.3190  -20.5133  -13.8087 C   0  0  2  0  0  0  0  0  0  0  0  0
   22.5172  -21.2096  -13.3125 N   0  0  0  0  0  0  0  0  0  0  0  0
   20.2221  -20.8158  -12.8770 C   0  0  0  0  0  0  0  0  0  0  0  0
   19.1830  -19.9385  -12.6432 O   0  0  0  0  0  0  0  0  0  0  0  0
   20.2349  -21.9251  -12.2613 O   0  0  0  0  0  0  0  0  0  0  0  0
  2  1  1  0
  2  3  1  0
  3  4  1  1
  5 12  1  0
  5  3  1  0
  6  5  2  0
  7  8  1  0
  9  8  1  0
  9 11  1  0
  9 10  1  1
 11 12  1  6
 13 21  1  0
 13 11  1  0
 14 13  2  0
 16 15  1  0
 17 16  2  0
 18 16  1  0
 19 18  1  0
 20 19  1  6
 20 21  1  0
 22 20  1  0
 23 22  1  0
 24 22  2  0
M  END
$$$$
