SIQ.pdb
     RDKit          3D

 24 23  0  0  1  0  0  0  0  0999 V2000
   21.6067  -21.7909   -9.9207 O   0  0  0  0  0  0  0  0  0  0  0  0
   22.6231  -21.4511  -10.8025 C   0  0  0  0  0  0  0  0  0  0  0  0
   23.9134  -21.3045  -10.0093 C   0  0  2  0  0  0  0  0  0  0  0  0
   23.6239  -20.6633   -8.7456 N   0  0  0  0  0  0  0  0  0  0  0  0
   24.8933  -20.4761  -10.7456 C   0  0  0  0  0  0  0  0  0  0  0  0
   24.9217  -19.2362  -10.5599 O   0  0  0  0  0  0  0  0  0  0  0  0
   30.0726  -21.4944  -11.2987 C   0  0  0  0  0  0  0  0  0  0  0  0
   28.7193  -20.8304  -11.1785 C   0  0  0  0  0  0  0  0  0  0  0  0
   28.0839  -20.8051  -12.5372 C   0  0  2  0  0  0  0  0  0  0  0  0
   28.9264  -19.9718  -13.4712 C   0  0  0  0  0  0  0  0  0  0  0  0
   26.6633  -20.3348  -12.5236 C   0  0  2  0  0  0  0  0  0  0  0  0
   25.8022  -21.0845  -11.6630 N   0  0  0  0  0  0  0  0  0  0  0  0
   26.1441  -20.3380  -13.9327 C   0  0  0  0  0  0  0  0  0  0  0  0
   26.0219  -21.4699  -14.4689 O   0  0  0  0  0  0  0  0  0  0  0  0
   22.8279  -15.8537  -16.7880 N   0  0  0  0  0  0  0  0  0  0  0  0
   22.7035  -16.9353  -17.6819 C   0  0  0  0  0  0  0  0  0  0  0  0
   21.9659  -16.8272  -18.6706 O   0  0  0  0  0  0  0  0  0  0  0  0
   23.4929  -18.1704  -17.3639 C   0  0  0  0  0  0  0  0  0  0  0  0
   24.2676  -18.0147  -16.0893 C   0  0  0  0  0  0  0  0  0  0  0  0
   25.0763  -19.2558  -15.8489 C   0  0  2  0  0  0  0  0  0  0  0  0
   25.8219  -19.1215  -14.5868 N   0  0  0  0  0  0  0  0  0  0  0  0
   26.0652  -19.4411  -16.9215 C   0  0  0  0  0  0  0  0  0  0  0  0
   25.8223  -20.2296  -18.0275 O   0  0  0  0  0  0  0  0  0  0  0  0
   27.1867  -18.8560  -16.8232 O   0  0  0  0  0  0  0  0  0  0  0  0
  2  1  1  0
  2  3  1  0
  3  4  1  1
  5 12  1  0
  5  3  1  0
  6  5  2  0
  7  8  1  0
  9  8  1  0
  9 11  1  0
  9 10  1  6
 11 12  1  1
 13 21  1  0
 13 11  1  0
 14 13  2  0
 16 15  1  0
 17 16  2  0
 18 16  1  0
 19 18  1  0
 20 19  1  6
 20 21  1  0
 22 20  1  0
 23 22  1  0
 24 22  2  0
M  END
$$$$
