SIQ.pdb
     RDKit          3D

 24 23  0  0  1  0  0  0  0  0999 V2000
   22.3160  -13.2770  -21.6552 O   0  0  0  0  0  0  0  0  0  0  0  0
   22.2839  -12.5814  -20.4546 C   0  0  0  0  0  0  0  0  0  0  0  0
   23.2215  -13.2743  -19.4768 C   0  0  2  0  0  0  0  0  0  0  0  0
   22.6928  -14.5821  -19.1572 N   0  0  0  0  0  0  0  0  0  0  0  0
   23.3458  -12.4963  -18.2246 C   0  0  0  0  0  0  0  0  0  0  0  0
   22.4626  -12.5986  -17.3401 O   0  0  0  0  0  0  0  0  0  0  0  0
   28.1013  -11.7108  -15.6935 C   0  0  0  0  0  0  0  0  0  0  0  0
   26.6445  -11.9615  -16.0123 C   0  0  0  0  0  0  0  0  0  0  0  0
   26.0103  -10.6529  -16.3807 C   0  0  2  0  0  0  0  0  0  0  0  0
   26.0846   -9.7093  -15.2057 C   0  0  0  0  0  0  0  0  0  0  0  0
   24.6055  -10.7891  -16.8783 C   0  0  2  0  0  0  0  0  0  0  0  0
   24.4650  -11.6333  -18.0236 N   0  0  0  0  0  0  0  0  0  0  0  0
   24.0606   -9.4176  -17.1560 C   0  0  0  0  0  0  0  0  0  0  0  0
   24.5507   -8.8246  -18.1520 O   0  0  0  0  0  0  0  0  0  0  0  0
   19.0619   -8.4928  -19.2202 N   0  0  0  0  0  0  0  0  0  0  0  0
   19.2835   -7.1304  -18.9389 C   0  0  0  0  0  0  0  0  0  0  0  0
   18.4952   -6.2816  -19.3764 O   0  0  0  0  0  0  0  0  0  0  0  0
   20.4881   -6.7979  -18.1094 C   0  0  0  0  0  0  0  0  0  0  0  0
   21.2382   -8.0333  -17.7093 C   0  0  0  0  0  0  0  0  0  0  0  0
   22.4034   -7.6453  -16.8467 C   0  0  2  0  0  0  0  0  0  0  0  0
   23.0563   -8.8574  -16.3259 N   0  0  0  0  0  0  0  0  0  0  0  0
   21.9473   -6.8637  -15.6875 C   0  0  0  0  0  0  0  0  0  0  0  0
   21.8647   -5.4865  -15.7063 O   0  0  0  0  0  0  0  0  0  0  0  0
   21.6212   -7.4805  -14.6278 O   0  0  0  0  0  0  0  0  0  0  0  0
  2  1  1  0
  2  3  1  0
  3  4  1  1
  5 12  1  0
  5  3  1  0
  6  5  2  0
  7  8  1  0
  9  8  1  0
  9 11  1  0
  9 10  1  1
 11 12  1  6
 13 21  1  0
 13 11  1  0
 14 13  2  0
 16 15  1  0
 17 16  2  0
 18 16  1  0
 19 18  1  0
 20 19  1  6
 20 21  1  0
 22 20  1  0
 23 22  1  0
 24 22  2  0
M  END
$$$$
