SIQ.pdb
     RDKit          3D

 24 23  0  0  1  0  0  0  0  0999 V2000
   28.8834  -23.1001  -18.1252 O   0  0  0  0  0  0  0  0  0  0  0  0
   27.9803  -22.3988  -17.3385 C   0  0  0  0  0  0  0  0  0  0  0  0
   28.7646  -21.6100  -16.3002 C   0  0  2  0  0  0  0  0  0  0  0  0
   29.3329  -22.5268  -15.3367 N   0  0  0  0  0  0  0  0  0  0  0  0
   27.8846  -20.6594  -15.5856 C   0  0  0  0  0  0  0  0  0  0  0  0
   27.6096  -20.8559  -14.3780 O   0  0  0  0  0  0  0  0  0  0  0  0
   26.7052  -14.7619  -15.3213 C   0  0  0  0  0  0  0  0  0  0  0  0
   26.0436  -16.1187  -15.2319 C   0  0  0  0  0  0  0  0  0  0  0  0
   26.9578  -17.1314  -15.8557 C   0  0  2  0  0  0  0  0  0  0  0  0
   27.1069  -16.8352  -17.3277 C   0  0  0  0  0  0  0  0  0  0  0  0
   26.5259  -18.5461  -15.6287 C   0  0  2  0  0  0  0  0  0  0  0  0
   27.3509  -19.5240  -16.2667 N   0  0  0  0  0  0  0  0  0  0  0  0
   25.0961  -18.6865  -16.0660 C   0  0  0  0  0  0  0  0  0  0  0  0
   24.9204  -18.9994  -17.2722 O   0  0  0  0  0  0  0  0  0  0  0  0
   21.5215  -22.1693  -13.0269 N   0  0  0  0  0  0  0  0  0  0  0  0
   20.6173  -21.8155  -14.0475 C   0  0  0  0  0  0  0  0  0  0  0  0
   19.5286  -22.4002  -14.1270 O   0  0  0  0  0  0  0  0  0  0  0  0
   21.0490  -20.7294  -14.9876 C   0  0  0  0  0  0  0  0  0  0  0  0
   22.3860  -20.1693  -14.6037 C   0  0  0  0  0  0  0  0  0  0  0  0
   22.7356  -19.0451  -15.5344 C   0  0  2  0  0  0  0  0  0  0  0  0
   24.0356  -18.4722  -15.1489 N   0  0  0  0  0  0  0  0  0  0  0  0
   21.7389  -17.9682  -15.4372 C   0  0  0  0  0  0  0  0  0  0  0  0
   20.5819  -17.9570  -16.1890 O   0  0  0  0  0  0  0  0  0  0  0  0
   21.9541  -17.0103  -14.6335 O   0  0  0  0  0  0  0  0  0  0  0  0
  2  1  1  0
  2  3  1  0
  3  4  1  1
  5 12  1  0
  5  3  1  0
  6  5  2  0
  7  8  1  0
  9  8  1  0
  9 11  1  0
  9 10  1  6
 11 12  1  6
 13 21  1  0
 13 11  1  0
 14 13  2  0
 16 15  1  0
 17 16  2  0
 18 16  1  0
 19 18  1  0
 20 19  1  1
 20 21  1  0
 22 20  1  0
 23 22  1  0
 24 22  2  0
M  END
$$$$
