SIQ.pdb
     RDKit          3D

 24 23  0  0  1  0  0  0  0  0999 V2000
   18.3758  -15.4224  -18.8474 O   0  0  0  0  0  0  0  0  0  0  0  0
   18.6617  -14.5992  -17.7672 C   0  0  0  0  0  0  0  0  0  0  0  0
   19.3119  -13.3287  -18.2948 C   0  0  2  0  0  0  0  0  0  0  0  0
   20.4997  -13.6780  -19.0424 N   0  0  0  0  0  0  0  0  0  0  0  0
   19.7003  -12.4344  -17.1821 C   0  0  0  0  0  0  0  0  0  0  0  0
   18.8339  -12.0574  -16.3575 O   0  0  0  0  0  0  0  0  0  0  0  0
   24.4114  -13.2746  -14.6907 C   0  0  0  0  0  0  0  0  0  0  0  0
   22.9572  -12.9610  -14.9623 C   0  0  0  0  0  0  0  0  0  0  0  0
   22.8625  -11.5437  -15.4447 C   0  0  2  0  0  0  0  0  0  0  0  0
   23.2904  -10.6072  -14.3418 C   0  0  0  0  0  0  0  0  0  0  0  0
   21.5088  -11.1805  -15.9692 C   0  0  2  0  0  0  0  0  0  0  0  0
   21.0541  -12.0024  -17.0471 N   0  0  0  0  0  0  0  0  0  0  0  0
   21.5230   -9.7335  -16.3706 C   0  0  0  0  0  0  0  0  0  0  0  0
   22.2072   -9.4541  -17.3892 O   0  0  0  0  0  0  0  0  0  0  0  0
   18.1391   -4.0529  -18.5805 N   0  0  0  0  0  0  0  0  0  0  0  0
   18.2050   -5.3051  -17.9386 C   0  0  0  0  0  0  0  0  0  0  0  0
   17.1919   -6.0150  -17.8818 O   0  0  0  0  0  0  0  0  0  0  0  0
   19.5300   -5.6980  -17.3558 C   0  0  0  0  0  0  0  0  0  0  0  0
   19.4902   -7.0840  -16.7846 C   0  0  0  0  0  0  0  0  0  0  0  0
   20.8194   -7.4000  -16.1635 C   0  0  2  0  0  0  0  0  0  0  0  0
   20.7984   -8.7694  -15.6242 N   0  0  0  0  0  0  0  0  0  0  0  0
   21.0900   -6.4926  -15.0383 C   0  0  0  0  0  0  0  0  0  0  0  0
   21.6613   -5.2482  -15.2084 O   0  0  0  0  0  0  0  0  0  0  0  0
   20.7899   -6.8715  -13.8651 O   0  0  0  0  0  0  0  0  0  0  0  0
  2  1  1  0
  2  3  1  0
  3  4  1  1
  5 12  1  0
  5  3  1  0
  6  5  2  0
  7  8  1  0
  9  8  1  0
  9 11  1  0
  9 10  1  1
 11 12  1  6
 13 21  1  0
 13 11  1  0
 14 13  2  0
 16 15  1  0
 17 16  2  0
 18 16  1  0
 19 18  1  0
 20 19  1  1
 20 21  1  0
 22 20  1  0
 23 22  1  0
 24 22  2  0
M  END
$$$$
