SIQ.pdb
     RDKit          3D

 24 23  0  0  1  0  0  0  0  0999 V2000
   21.1971  -19.2025  -17.3890 O   0  0  0  0  0  0  0  0  0  0  0  0
   22.4827  -19.5110  -17.8115 C   0  0  0  0  0  0  0  0  0  0  0  0
   23.3931  -19.5316  -16.5925 C   0  0  2  0  0  0  0  0  0  0  0  0
   22.9553  -20.5736  -15.6901 N   0  0  0  0  0  0  0  0  0  0  0  0
   23.3459  -18.2372  -15.8776 C   0  0  0  0  0  0  0  0  0  0  0  0
   22.7159  -18.1477  -14.7969 O   0  0  0  0  0  0  0  0  0  0  0  0
   27.6239  -15.7865  -15.8987 C   0  0  0  0  0  0  0  0  0  0  0  0
   26.3674  -15.8336  -15.0587 C   0  0  0  0  0  0  0  0  0  0  0  0
   25.2867  -15.0880  -15.7843 C   0  0  2  0  0  0  0  0  0  0  0  0
   25.1471  -13.7056  -15.1960 C   0  0  0  0  0  0  0  0  0  0  0  0
   23.9734  -15.8053  -15.8002 C   0  0  2  0  0  0  0  0  0  0  0  0
   24.0137  -17.0956  -16.4147 N   0  0  0  0  0  0  0  0  0  0  0  0
   22.9558  -14.9268  -16.4695 C   0  0  0  0  0  0  0  0  0  0  0  0
   23.0563  -14.8266  -17.7200 O   0  0  0  0  0  0  0  0  0  0  0  0
   16.1742  -13.0156  -16.5543 N   0  0  0  0  0  0  0  0  0  0  0  0
   17.3189  -12.6818  -15.8040 C   0  0  0  0  0  0  0  0  0  0  0  0
   17.1960  -12.3636  -14.6137 O   0  0  0  0  0  0  0  0  0  0  0  0
   18.6364  -12.7374  -16.5187 C   0  0  0  0  0  0  0  0  0  0  0  0
   19.6286  -13.5830  -15.7776 C   0  0  0  0  0  0  0  0  0  0  0  0
   20.9514  -13.5250  -16.4842 C   0  0  2  0  0  0  0  0  0  0  0  0
   21.9580  -14.2668  -15.7076 N   0  0  0  0  0  0  0  0  0  0  0  0
   21.4187  -12.1344  -16.5873 C   0  0  0  0  0  0  0  0  0  0  0  0
   21.2066  -11.3609  -17.7101 O   0  0  0  0  0  0  0  0  0  0  0  0
   22.0450  -11.6284  -15.6067 O   0  0  0  0  0  0  0  0  0  0  0  0
  2  1  1  0
  2  3  1  0
  3  4  1  1
  5 12  1  0
  5  3  1  0
  6  5  2  0
  7  8  1  0
  9  8  1  0
  9 11  1  0
  9 10  1  1
 11 12  1  6
 13 21  1  0
 13 11  1  0
 14 13  2  0
 16 15  1  0
 17 16  2  0
 18 16  1  0
 19 18  1  0
 20 19  1  1
 20 21  1  0
 22 20  1  0
 23 22  1  0
 24 22  2  0
M  END
$$$$
