SIQ.pdb
     RDKit          3D

 24 23  0  0  1  0  0  0  0  0999 V2000
   16.5675  -12.9565  -13.4592 O   0  0  0  0  0  0  0  0  0  0  0  0
   16.2936  -11.5980  -13.3823 C   0  0  0  0  0  0  0  0  0  0  0  0
   15.2903  -11.3767  -12.2599 C   0  0  2  0  0  0  0  0  0  0  0  0
   14.0386  -12.0115  -12.6096 N   0  0  0  0  0  0  0  0  0  0  0  0
   15.0451   -9.9331  -12.0494 C   0  0  0  0  0  0  0  0  0  0  0  0
   14.1891   -9.3405  -12.7486 O   0  0  0  0  0  0  0  0  0  0  0  0
   13.6005   -7.8172   -7.5126 C   0  0  0  0  0  0  0  0  0  0  0  0
   13.8315   -8.0891   -8.9821 C   0  0  0  0  0  0  0  0  0  0  0  0
   15.1779   -7.5441   -9.3567 C   0  0  2  0  0  0  0  0  0  0  0  0
   15.2190   -6.0633   -9.0695 C   0  0  0  0  0  0  0  0  0  0  0  0
   15.5661   -7.8323  -10.7729 C   0  0  2  0  0  0  0  0  0  0  0  0
   15.7788   -9.2176  -11.0557 N   0  0  0  0  0  0  0  0  0  0  0  0
   16.7873   -7.0253  -11.1087 C   0  0  0  0  0  0  0  0  0  0  0  0
   17.8496   -7.3728  -10.5304 O   0  0  0  0  0  0  0  0  0  0  0  0
   20.7740   -7.2002  -12.2957 N   0  0  0  0  0  0  0  0  0  0  0  0
   21.1227   -6.0317  -13.0010 C   0  0  0  0  0  0  0  0  0  0  0  0
   22.3063   -5.6691  -13.0325 O   0  0  0  0  0  0  0  0  0  0  0  0
   20.0078   -5.2929  -13.6799 C   0  0  0  0  0  0  0  0  0  0  0  0
   18.6838   -5.9552  -13.4408 C   0  0  0  0  0  0  0  0  0  0  0  0
   17.9821   -5.2613  -12.3102 C   0  0  2  0  0  0  0  0  0  0  0  0
   16.7104   -5.9456  -12.0251 N   0  0  0  0  0  0  0  0  0  0  0  0
   17.6578   -3.8752  -12.6795 C   0  0  0  0  0  0  0  0  0  0  0  0
   18.5630   -2.8416  -12.5528 O   0  0  0  0  0  0  0  0  0  0  0  0
   16.4986   -3.6202  -13.1280 O   0  0  0  0  0  0  0  0  0  0  0  0
  2  1  1  0
  2  3  1  0
  3  4  1  6
  5 12  1  0
  5  3  1  0
  6  5  2  0
  7  8  1  0
  9  8  1  0
  9 11  1  0
  9 10  1  6
 11 12  1  1
 13 21  1  0
 13 11  1  0
 14 13  2  0
 16 15  1  0
 17 16  2  0
 18 16  1  0
 19 18  1  0
 20 19  1  6
 20 21  1  0
 22 20  1  0
 23 22  1  0
 24 22  2  0
M  END
$$$$
