KDR.pdb
     RDKit          3D

 29 28  0  0  1  0  0  0  0  0999 V2000
   10.0432  -13.4914   18.1618 N   0  0  0  0  0  0  0  0  0  0  0  0
    8.8109  -13.7787   18.9209 C   0  0  1  0  0  0  0  0  0  0  0  0
    7.7809  -14.3114   17.9944 C   0  0  0  0  0  0  0  0  0  0  0  0
    8.2278  -14.6145   16.6372 C   0  0  0  0  0  0  0  0  0  0  0  0
    7.3869  -14.5291   15.4559 C   0  0  0  0  0  0  0  0  0  0  0  0
    7.8488  -14.9744   14.1249 C   0  0  0  0  0  0  0  0  0  0  0  0
    9.3457  -15.0993   14.1699 N   0  0  0  0  0  0  0  0  0  0  0  0
    9.2374  -14.8684   19.8992 C   0  0  0  0  0  0  0  0  0  0  0  0
    8.3586  -15.3520   20.6332 O   0  0  0  0  0  0  0  0  0  0  0  0
   10.5572  -15.3320   19.9955 N   0  0  0  0  0  0  0  0  0  0  0  0
   11.0213  -16.3519   20.8858 C   0  0  1  0  0  0  0  0  0  0  0  0
   12.3565  -16.8433   20.4291 C   0  0  0  0  0  0  0  0  0  0  0  0
   12.2712  -17.5217   19.1162 C   0  0  0  0  0  0  0  0  0  0  0  0
   11.3810  -18.3613   18.8247 O   0  0  0  0  0  0  0  0  0  0  0  0
   11.0497  -15.8760   22.2978 C   0  0  0  0  0  0  0  0  0  0  0  0
   11.8152  -14.9170   22.5653 O   0  0  0  0  0  0  0  0  0  0  0  0
   13.1969  -17.2649   18.0938 O   0  0  0  0  0  0  0  0  0  0  0  0
    5.3261  -12.8662   27.1327 N   0  0  0  0  0  0  0  0  0  0  0  0
    6.6752  -12.4271   26.9297 C   0  0  0  0  0  0  0  0  0  0  0  0
    7.1025  -11.3923   27.5674 N   0  0  0  0  0  0  0  0  0  0  0  0
    7.5203  -13.1357   26.0321 N   0  0  0  0  0  0  0  0  0  0  0  0
    6.9419  -14.0115   25.0397 C   0  0  0  0  0  0  0  0  0  0  0  0
    7.8518  -15.2560   24.9712 C   0  0  0  0  0  0  0  0  0  0  0  0
    9.2916  -14.8307   24.8559 C   0  0  0  0  0  0  0  0  0  0  0  0
   10.2353  -15.9679   24.6996 C   0  0  2  0  0  0  0  0  0  0  0  0
   10.2612  -16.4570   23.3191 N   0  0  0  0  0  0  0  0  0  0  0  0
    9.9683  -17.0594   25.6414 C   0  0  0  0  0  0  0  0  0  0  0  0
   10.0662  -16.7909   27.0112 O   0  0  0  0  0  0  0  0  0  0  0  0
    9.6548  -18.2315   25.3347 O   0  0  0  0  0  0  0  0  0  0  0  0
  2  1  1  6
  3  2  1  0
  4  3  1  0
  5  4  1  0
  6  5  1  0
  7  6  1  0
  8 10  1  0
  8  2  1  0
  9  8  2  0
 11 10  1  0
 12 13  1  0
 11 12  1  6
 13 17  1  0
 14 13  2  0
 15 26  1  0
 15 11  1  0
 16 15  2  0
 18 19  1  0
 19 21  1  0
 20 19  2  0
 21 22  1  0
 22 23  1  0
 23 24  1  0
 25 24  1  6
 25 26  1  0
 25 27  1  0
 27 28  1  0
 29 27  2  0
M  END
$$$$
