KDR.pdb
     RDKit          3D

 29 28  0  0  1  0  0  0  0  0999 V2000
    4.6612  -19.1170   21.1972 N   0  0  0  0  0  0  0  0  0  0  0  0
    5.7426  -19.9824   21.7062 C   0  0  1  0  0  0  0  0  0  0  0  0
    5.6653  -21.3044   21.0357 C   0  0  0  0  0  0  0  0  0  0  0  0
    5.0121  -21.3287   19.7294 C   0  0  0  0  0  0  0  0  0  0  0  0
    4.7904  -22.5295   18.9429 C   0  0  0  0  0  0  0  0  0  0  0  0
    4.5568  -22.4854   17.4845 C   0  0  0  0  0  0  0  0  0  0  0  0
    4.3449  -23.8938   17.0048 N   0  0  0  0  0  0  0  0  0  0  0  0
    7.0144  -19.2592   21.2751 C   0  0  0  0  0  0  0  0  0  0  0  0
    8.0996  -19.7921   21.5639 O   0  0  0  0  0  0  0  0  0  0  0  0
    7.0003  -18.0416   20.5798 N   0  0  0  0  0  0  0  0  0  0  0  0
    8.1500  -17.2585   20.2436 C   0  0  1  0  0  0  0  0  0  0  0  0
    7.9363  -16.6019   18.9184 C   0  0  0  0  0  0  0  0  0  0  0  0
    8.2129  -17.5277   17.7970 C   0  0  0  0  0  0  0  0  0  0  0  0
    8.7909  -18.6361   17.9377 O   0  0  0  0  0  0  0  0  0  0  0  0
    8.4748  -16.2735   21.3138 C   0  0  0  0  0  0  0  0  0  0  0  0
    7.7084  -15.2863   21.4374 O   0  0  0  0  0  0  0  0  0  0  0  0
    7.8394  -17.2205   16.4801 O   0  0  0  0  0  0  0  0  0  0  0  0
    7.1702  -20.0041   25.6567 N   0  0  0  0  0  0  0  0  0  0  0  0
    7.1543  -19.4275   26.9687 C   0  0  0  0  0  0  0  0  0  0  0  0
    6.7437  -20.1370   27.9626 N   0  0  0  0  0  0  0  0  0  0  0  0
    7.5901  -18.0868   27.1554 N   0  0  0  0  0  0  0  0  0  0  0  0
    7.3453  -17.1014   26.1280 C   0  0  0  0  0  0  0  0  0  0  0  0
    8.6809  -16.9097   25.3790 C   0  0  0  0  0  0  0  0  0  0  0  0
    8.5149  -15.8794   24.2937 C   0  0  0  0  0  0  0  0  0  0  0  0
    9.7251  -15.7079   23.4485 C   0  0  2  0  0  0  0  0  0  0  0  0
    9.5914  -16.4132   22.1716 N   0  0  0  0  0  0  0  0  0  0  0  0
   10.9586  -16.0963   24.1395 C   0  0  0  0  0  0  0  0  0  0  0  0
   11.5811  -17.2912   23.7618 O   0  0  0  0  0  0  0  0  0  0  0  0
   11.5213  -15.4510   25.0523 O   0  0  0  0  0  0  0  0  0  0  0  0
  2  1  1  6
  3  2  1  0
  4  3  1  0
  5  4  1  0
  6  5  1  0
  7  6  1  0
  8 10  1  0
  8  2  1  0
  9  8  2  0
 11 10  1  0
 12 13  1  0
 11 12  1  6
 13 17  1  0
 14 13  2  0
 15 26  1  0
 15 11  1  0
 16 15  2  0
 18 19  1  0
 19 21  1  0
 20 19  2  0
 21 22  1  0
 22 23  1  0
 23 24  1  0
 25 24  1  1
 25 26  1  0
 25 27  1  0
 27 28  1  0
 29 27  2  0
M  END
$$$$
