KDR.pdb
     RDKit          3D

 29 28  0  0  1  0  0  0  0  0999 V2000
    6.7936  -17.4764   16.9318 N   0  0  0  0  0  0  0  0  0  0  0  0
    8.0864  -16.7935   17.1314 C   0  0  1  0  0  0  0  0  0  0  0  0
    7.8686  -15.3253   17.1215 C   0  0  0  0  0  0  0  0  0  0  0  0
    8.1945  -14.6324   15.8776 C   0  0  0  0  0  0  0  0  0  0  0  0
    8.1756  -13.1897   15.7103 C   0  0  0  0  0  0  0  0  0  0  0  0
    8.4486  -12.5426   14.4103 C   0  0  0  0  0  0  0  0  0  0  0  0
    8.2139  -11.0665   14.5673 N   0  0  0  0  0  0  0  0  0  0  0  0
    8.5179  -17.2413   18.5240 C   0  0  0  0  0  0  0  0  0  0  0  0
    7.6229  -17.4295   19.3658 O   0  0  0  0  0  0  0  0  0  0  0  0
    9.8596  -17.4433   18.8779 N   0  0  0  0  0  0  0  0  0  0  0  0
   10.3235  -17.9880   20.1173 C   0  0  1  0  0  0  0  0  0  0  0  0
   11.5145  -18.8551   19.8668 C   0  0  0  0  0  0  0  0  0  0  0  0
   11.7343  -19.8166   20.9705 C   0  0  0  0  0  0  0  0  0  0  0  0
   10.8046  -20.4409   21.5435 O   0  0  0  0  0  0  0  0  0  0  0  0
   10.6067  -16.9177   21.1150 C   0  0  0  0  0  0  0  0  0  0  0  0
   11.4283  -16.0272   20.7844 O   0  0  0  0  0  0  0  0  0  0  0  0
   13.0201  -20.0978   21.4562 O   0  0  0  0  0  0  0  0  0  0  0  0
    5.1367  -12.8323   25.7789 N   0  0  0  0  0  0  0  0  0  0  0  0
    6.4292  -12.2382   25.6039 C   0  0  0  0  0  0  0  0  0  0  0  0
    6.6788  -11.1013   26.1564 N   0  0  0  0  0  0  0  0  0  0  0  0
    7.4142  -12.9078   24.8271 N   0  0  0  0  0  0  0  0  0  0  0  0
    7.0635  -14.1037   24.0968 C   0  0  0  0  0  0  0  0  0  0  0  0
    8.3225  -14.5188   23.3070 C   0  0  0  0  0  0  0  0  0  0  0  0
    9.1929  -15.4027   24.1603 C   0  0  0  0  0  0  0  0  0  0  0  0
   10.3810  -15.9350   23.4438 C   0  0  2  0  0  0  0  0  0  0  0  0
    9.9942  -16.8759   22.3899 N   0  0  0  0  0  0  0  0  0  0  0  0
   11.3678  -16.5326   24.3489 C   0  0  0  0  0  0  0  0  0  0  0  0
   12.0884  -15.6839   25.1963 O   0  0  0  0  0  0  0  0  0  0  0  0
   11.6341  -17.7520   24.4402 O   0  0  0  0  0  0  0  0  0  0  0  0
  2  1  1  1
  3  2  1  0
  4  3  1  0
  5  4  1  0
  6  5  1  0
  7  6  1  0
  8 10  1  0
  8  2  1  0
  9  8  2  0
 11 10  1  0
 12 13  1  0
 11 12  1  6
 13 17  1  0
 14 13  2  0
 15 26  1  0
 15 11  1  0
 16 15  2  0
 18 19  1  0
 19 21  1  0
 20 19  2  0
 21 22  1  0
 22 23  1  0
 23 24  1  0
 25 24  1  1
 25 26  1  0
 25 27  1  0
 27 28  1  0
 29 27  2  0
M  END
$$$$
