KDR.pdb
     RDKit          3D

 29 28  0  0  1  0  0  0  0  0999 V2000
   10.0732  -17.8070   16.8292 N   0  0  0  0  0  0  0  0  0  0  0  0
    8.9659  -17.4829   17.7491 C   0  0  1  0  0  0  0  0  0  0  0  0
    7.8383  -18.4160   17.5022 C   0  0  0  0  0  0  0  0  0  0  0  0
    7.5476  -18.7219   16.1038 C   0  0  0  0  0  0  0  0  0  0  0  0
    6.2177  -18.7152   15.5196 C   0  0  0  0  0  0  0  0  0  0  0  0
    5.9837  -18.9943   14.0876 C   0  0  0  0  0  0  0  0  0  0  0  0
    4.5177  -18.8117   13.8118 N   0  0  0  0  0  0  0  0  0  0  0  0
    9.5582  -17.7439   19.1302 C   0  0  0  0  0  0  0  0  0  0  0  0
    8.8112  -17.5847   20.1108 O   0  0  0  0  0  0  0  0  0  0  0  0
   10.8865  -18.1484   19.3257 N   0  0  0  0  0  0  0  0  0  0  0  0
   11.4642  -18.5430   20.5742 C   0  0  1  0  0  0  0  0  0  0  0  0
   12.7787  -19.2093   20.3274 C   0  0  0  0  0  0  0  0  0  0  0  0
   13.3955  -19.6875   21.5852 C   0  0  0  0  0  0  0  0  0  0  0  0
   12.7501  -20.2564   22.5028 O   0  0  0  0  0  0  0  0  0  0  0  0
   11.5847  -17.3905   21.5114 C   0  0  0  0  0  0  0  0  0  0  0  0
   12.3471  -16.4519   21.1723 O   0  0  0  0  0  0  0  0  0  0  0  0
   14.7669  -19.5332   21.8372 O   0  0  0  0  0  0  0  0  0  0  0  0
    9.6709  -15.6933   28.4557 N   0  0  0  0  0  0  0  0  0  0  0  0
    9.5696  -14.2982   28.1434 C   0  0  0  0  0  0  0  0  0  0  0  0
    9.9118  -13.4288   29.0305 N   0  0  0  0  0  0  0  0  0  0  0  0
    9.0955  -13.8939   26.8652 N   0  0  0  0  0  0  0  0  0  0  0  0
    8.3691  -14.8296   26.0387 C   0  0  0  0  0  0  0  0  0  0  0  0
    9.3935  -15.8829   25.5667 C   0  0  0  0  0  0  0  0  0  0  0  0
    9.6736  -15.7014   24.0985 C   0  0  0  0  0  0  0  0  0  0  0  0
   11.0065  -16.2091   23.6817 C   0  0  2  0  0  0  0  0  0  0  0  0
   10.8847  -17.3239   22.7393 N   0  0  0  0  0  0  0  0  0  0  0  0
   11.8565  -16.5708   24.8203 C   0  0  0  0  0  0  0  0  0  0  0  0
   12.5777  -15.5550   25.4574 O   0  0  0  0  0  0  0  0  0  0  0  0
   12.0033  -17.7222   25.2884 O   0  0  0  0  0  0  0  0  0  0  0  0
  2  1  1  6
  3  2  1  0
  4  3  1  0
  5  4  1  0
  6  5  1  0
  7  6  1  0
  8 10  1  0
  8  2  1  0
  9  8  2  0
 11 10  1  0
 12 13  1  0
 11 12  1  6
 13 17  1  0
 14 13  2  0
 15 26  1  0
 15 11  1  0
 16 15  2  0
 18 19  1  0
 19 21  1  0
 20 19  2  0
 21 22  1  0
 22 23  1  0
 23 24  1  0
 25 24  1  1
 25 26  1  0
 25 27  1  0
 27 28  1  0
 29 27  2  0
M  END
$$$$
