KDR.pdb
     RDKit          3D

 29 28  0  0  1  0  0  0  0  0999 V2000
    6.0115  -21.1357   20.7161 N   0  0  0  0  0  0  0  0  0  0  0  0
    5.8513  -21.8944   21.9715 C   0  0  1  0  0  0  0  0  0  0  0  0
    5.3077  -23.2404   21.6616 C   0  0  0  0  0  0  0  0  0  0  0  0
    4.1172  -23.2770   20.8160 C   0  0  0  0  0  0  0  0  0  0  0  0
    4.1395  -23.4064   19.3694 C   0  0  0  0  0  0  0  0  0  0  0  0
    2.9025  -23.4880   18.5655 C   0  0  0  0  0  0  0  0  0  0  0  0
    3.2938  -23.7028   17.1305 N   0  0  0  0  0  0  0  0  0  0  0  0
    7.2771  -22.0229   22.4980 C   0  0  0  0  0  0  0  0  0  0  0  0
    7.5597  -23.0525   23.1344 O   0  0  0  0  0  0  0  0  0  0  0  0
    8.2568  -21.0410   22.2924 N   0  0  0  0  0  0  0  0  0  0  0  0
    9.6031  -21.0907   22.7749 C   0  0  1  0  0  0  0  0  0  0  0  0
   10.4478  -20.1347   21.9967 C   0  0  0  0  0  0  0  0  0  0  0  0
   11.8831  -20.2743   22.3306 C   0  0  0  0  0  0  0  0  0  0  0  0
   12.3138  -21.0212   23.2465 O   0  0  0  0  0  0  0  0  0  0  0  0
    9.6700  -20.8354   24.2416 C   0  0  0  0  0  0  0  0  0  0  0  0
    9.2314  -19.7328   24.6531 O   0  0  0  0  0  0  0  0  0  0  0  0
   12.8732  -19.5680   21.6313 O   0  0  0  0  0  0  0  0  0  0  0  0
   13.1176  -22.3586   30.8226 N   0  0  0  0  0  0  0  0  0  0  0  0
   12.1130  -23.0230   31.5994 C   0  0  0  0  0  0  0  0  0  0  0  0
   12.2263  -23.0509   32.8825 N   0  0  0  0  0  0  0  0  0  0  0  0
   11.0098  -23.6393   30.9472 N   0  0  0  0  0  0  0  0  0  0  0  0
   11.0627  -23.8886   29.5254 C   0  0  0  0  0  0  0  0  0  0  0  0
   10.7161  -22.5531   28.8342 C   0  0  0  0  0  0  0  0  0  0  0  0
   10.7184  -22.7355   27.3396 C   0  0  0  0  0  0  0  0  0  0  0  0
   10.3586  -21.5033   26.5910 C   0  0  2  0  0  0  0  0  0  0  0  0
   10.1991  -21.7727   25.1601 N   0  0  0  0  0  0  0  0  0  0  0  0
   11.3032  -20.4054   26.8194 C   0  0  0  0  0  0  0  0  0  0  0  0
   12.5797  -20.5018   26.2544 O   0  0  0  0  0  0  0  0  0  0  0  0
   11.0755  -19.3690   27.4831 O   0  0  0  0  0  0  0  0  0  0  0  0
  2  1  1  6
  3  2  1  0
  4  3  1  0
  5  4  1  0
  6  5  1  0
  7  6  1  0
  8 10  1  0
  8  2  1  0
  9  8  2  0
 11 10  1  0
 12 13  1  0
 11 12  1  6
 13 17  1  0
 14 13  2  0
 15 26  1  0
 15 11  1  0
 16 15  2  0
 18 19  1  0
 19 21  1  0
 20 19  2  0
 21 22  1  0
 22 23  1  0
 23 24  1  0
 25 24  1  1
 25 26  1  0
 25 27  1  0
 27 28  1  0
 29 27  2  0
M  END
$$$$
