KDR.pdb
     RDKit          3D

 29 28  0  0  1  0  0  0  0  0999 V2000
    7.3949  -17.0895   19.6019 N   0  0  0  0  0  0  0  0  0  0  0  0
    8.5721  -16.2124   19.7508 C   0  0  1  0  0  0  0  0  0  0  0  0
    8.1170  -14.8349   20.0646 C   0  0  0  0  0  0  0  0  0  0  0  0
    7.5129  -14.0879   18.9643 C   0  0  0  0  0  0  0  0  0  0  0  0
    8.1613  -13.8324   17.6899 C   0  0  0  0  0  0  0  0  0  0  0  0
    7.5498  -12.9781   16.6509 C   0  0  0  0  0  0  0  0  0  0  0  0
    8.4112  -13.0523   15.4217 N   0  0  0  0  0  0  0  0  0  0  0  0
    9.3073  -16.7987   20.9516 C   0  0  0  0  0  0  0  0  0  0  0  0
    8.6151  -17.2711   21.8696 O   0  0  0  0  0  0  0  0  0  0  0  0
   10.7058  -16.8220   21.0520 N   0  0  0  0  0  0  0  0  0  0  0  0
   11.4539  -17.2405   22.1979 C   0  0  1  0  0  0  0  0  0  0  0  0
   12.9129  -17.2222   21.8753 C   0  0  0  0  0  0  0  0  0  0  0  0
   13.7274  -17.7563   22.9899 C   0  0  0  0  0  0  0  0  0  0  0  0
   14.1695  -17.0465   23.9296 O   0  0  0  0  0  0  0  0  0  0  0  0
   11.1320  -16.4134   23.3952 C   0  0  0  0  0  0  0  0  0  0  0  0
   11.3202  -15.1750   23.3051 O   0  0  0  0  0  0  0  0  0  0  0  0
   14.0637  -19.1160   23.0696 O   0  0  0  0  0  0  0  0  0  0  0  0
    5.8341  -11.3208   27.6856 N   0  0  0  0  0  0  0  0  0  0  0  0
    6.3667  -12.2053   26.6916 C   0  0  0  0  0  0  0  0  0  0  0  0
    7.2071  -11.7483   25.8285 N   0  0  0  0  0  0  0  0  0  0  0  0
    5.9630  -13.5686   26.6711 N   0  0  0  0  0  0  0  0  0  0  0  0
    6.5280  -14.4713   25.6952 C   0  0  0  0  0  0  0  0  0  0  0  0
    7.9265  -14.8612   26.2184 C   0  0  0  0  0  0  0  0  0  0  0  0
    8.5991  -15.7860   25.2389 C   0  0  0  0  0  0  0  0  0  0  0  0
    9.9749  -16.1774   25.6414 C   0  0  2  0  0  0  0  0  0  0  0  0
   10.6342  -16.9669   24.5986 N   0  0  0  0  0  0  0  0  0  0  0  0
   10.0117  -16.8721   26.9321 C   0  0  0  0  0  0  0  0  0  0  0  0
   10.6878  -18.0949   27.0069 O   0  0  0  0  0  0  0  0  0  0  0  0
    9.4877  -16.4706   27.9954 O   0  0  0  0  0  0  0  0  0  0  0  0
  2  1  1  1
  3  2  1  0
  4  3  1  0
  5  4  1  0
  6  5  1  0
  7  6  1  0
  8 10  1  0
  8  2  1  0
  9  8  2  0
 11 10  1  0
 12 13  1  0
 11 12  1  6
 13 17  1  0
 14 13  2  0
 15 26  1  0
 15 11  1  0
 16 15  2  0
 18 19  1  0
 19 21  1  0
 20 19  2  0
 21 22  1  0
 22 23  1  0
 23 24  1  0
 25 24  1  6
 25 26  1  0
 25 27  1  0
 27 28  1  0
 29 27  2  0
M  END
$$$$
