KDR.pdb
     RDKit          3D

 29 28  0  0  1  0  0  0  0  0999 V2000
    5.4484  -19.3494   20.0739 N   0  0  0  0  0  0  0  0  0  0  0  0
    5.4370  -18.4972   21.2784 C   0  0  1  0  0  0  0  0  0  0  0  0
    5.5901  -19.3524   22.4819 C   0  0  0  0  0  0  0  0  0  0  0  0
    6.3312  -20.5978   22.2991 C   0  0  0  0  0  0  0  0  0  0  0  0
    6.5019  -21.6116   23.3252 C   0  0  0  0  0  0  0  0  0  0  0  0
    7.3306  -22.8165   23.1137 C   0  0  0  0  0  0  0  0  0  0  0  0
    7.3346  -23.6082   24.3910 N   0  0  0  0  0  0  0  0  0  0  0  0
    6.6727  -17.6194   21.1091 C   0  0  0  0  0  0  0  0  0  0  0  0
    7.7742  -18.1914   21.0430 O   0  0  0  0  0  0  0  0  0  0  0  0
    6.6087  -16.2210   21.0273 N   0  0  0  0  0  0  0  0  0  0  0  0
    7.7306  -15.3325   21.0231 C   0  0  1  0  0  0  0  0  0  0  0  0
    7.3038  -13.9922   20.5187 C   0  0  0  0  0  0  0  0  0  0  0  0
    7.8458  -13.7165   19.1691 C   0  0  0  0  0  0  0  0  0  0  0  0
    8.2960  -14.6091   18.4057 O   0  0  0  0  0  0  0  0  0  0  0  0
    8.3703  -15.2505   22.3667 C   0  0  0  0  0  0  0  0  0  0  0  0
    7.7980  -14.5439   23.2330 O   0  0  0  0  0  0  0  0  0  0  0  0
    7.8916  -12.4154   18.6464 O   0  0  0  0  0  0  0  0  0  0  0  0
    6.8808  -20.0485   27.6669 N   0  0  0  0  0  0  0  0  0  0  0  0
    7.5194  -20.1819   26.3908 C   0  0  0  0  0  0  0  0  0  0  0  0
    7.5350  -21.3332   25.8126 N   0  0  0  0  0  0  0  0  0  0  0  0
    8.1240  -19.0477   25.7824 N   0  0  0  0  0  0  0  0  0  0  0  0
    8.1939  -17.7973   26.5021 C   0  0  0  0  0  0  0  0  0  0  0  0
    8.4750  -16.7029   25.4510 C   0  0  0  0  0  0  0  0  0  0  0  0
    9.8775  -16.8494   24.9233 C   0  0  0  0  0  0  0  0  0  0  0  0
   10.2666  -15.7798   23.9679 C   0  0  2  0  0  0  0  0  0  0  0  0
    9.5714  -15.9265   22.6870 N   0  0  0  0  0  0  0  0  0  0  0  0
   11.7174  -15.6932   23.7742 C   0  0  0  0  0  0  0  0  0  0  0  0
   12.5166  -15.3917   24.8825 O   0  0  0  0  0  0  0  0  0  0  0  0
   12.3238  -15.8663   22.6932 O   0  0  0  0  0  0  0  0  0  0  0  0
  2  1  1  6
  3  2  1  0
  4  3  1  0
  5  4  1  0
  6  5  1  0
  7  6  1  0
  8 10  1  0
  8  2  1  0
  9  8  2  0
 11 10  1  0
 12 13  1  0
 11 12  1  1
 13 17  1  0
 14 13  2  0
 15 26  1  0
 15 11  1  0
 16 15  2  0
 18 19  1  0
 19 21  1  0
 20 19  2  0
 21 22  1  0
 22 23  1  0
 23 24  1  0
 25 24  1  1
 25 26  1  0
 25 27  1  0
 27 28  1  0
 29 27  2  0
M  END
$$$$
