KDR.pdb
     RDKit          3D

 29 28  0  0  1  0  0  0  0  0999 V2000
    9.4978  -15.3787   17.8370 N   0  0  0  0  0  0  0  0  0  0  0  0
    9.1877  -14.7126   19.1166 C   0  0  1  0  0  0  0  0  0  0  0  0
    7.7407  -14.3846   19.1572 C   0  0  0  0  0  0  0  0  0  0  0  0
    7.2270  -13.5906   18.0439 C   0  0  0  0  0  0  0  0  0  0  0  0
    7.6316  -13.7577   16.6589 C   0  0  0  0  0  0  0  0  0  0  0  0
    7.0807  -12.9244   15.5701 C   0  0  0  0  0  0  0  0  0  0  0  0
    7.5419  -13.5038   14.2624 N   0  0  0  0  0  0  0  0  0  0  0  0
    9.5046  -15.7772   20.1619 C   0  0  0  0  0  0  0  0  0  0  0  0
    8.6272  -16.0267   21.0063 O   0  0  0  0  0  0  0  0  0  0  0  0
   10.7243  -16.4678   20.2009 N   0  0  0  0  0  0  0  0  0  0  0  0
   11.1221  -17.4042   21.2073 C   0  0  1  0  0  0  0  0  0  0  0  0
   12.3509  -18.1267   20.7591 C   0  0  0  0  0  0  0  0  0  0  0  0
   12.0716  -19.0272   19.6179 C   0  0  0  0  0  0  0  0  0  0  0  0
   10.9994  -19.6720   19.4880 O   0  0  0  0  0  0  0  0  0  0  0  0
   11.3094  -16.7420   22.5293 C   0  0  0  0  0  0  0  0  0  0  0  0
   11.6904  -15.5453   22.5232 O   0  0  0  0  0  0  0  0  0  0  0  0
   13.0046  -19.2212   18.5883 O   0  0  0  0  0  0  0  0  0  0  0  0
    5.8713  -12.0327   25.3271 N   0  0  0  0  0  0  0  0  0  0  0  0
    6.6135  -12.2244   26.5381 C   0  0  0  0  0  0  0  0  0  0  0  0
    6.3919  -11.4470   27.5413 N   0  0  0  0  0  0  0  0  0  0  0  0
    7.5794  -13.2650   26.6163 N   0  0  0  0  0  0  0  0  0  0  0  0
    7.9187  -14.0216   25.4336 C   0  0  0  0  0  0  0  0  0  0  0  0
    8.9403  -15.0903   25.8763 C   0  0  0  0  0  0  0  0  0  0  0  0
    9.4327  -15.8548   24.6763 C   0  0  0  0  0  0  0  0  0  0  0  0
   10.6017  -16.7252   24.9662 C   0  0  2  0  0  0  0  0  0  0  0  0
   11.0775  -17.4036   23.7584 N   0  0  0  0  0  0  0  0  0  0  0  0
   10.3399  -17.6856   26.0427 C   0  0  0  0  0  0  0  0  0  0  0  0
   10.4677  -17.2485   27.3658 O   0  0  0  0  0  0  0  0  0  0  0  0
   10.0062  -18.8824   25.8917 O   0  0  0  0  0  0  0  0  0  0  0  0
  2  1  1  6
  3  2  1  0
  4  3  1  0
  5  4  1  0
  6  5  1  0
  7  6  1  0
  8 10  1  0
  8  2  1  0
  9  8  2  0
 11 10  1  0
 12 13  1  0
 11 12  1  6
 13 17  1  0
 14 13  2  0
 15 26  1  0
 15 11  1  0
 16 15  2  0
 18 19  1  0
 19 21  1  0
 20 19  2  0
 21 22  1  0
 22 23  1  0
 23 24  1  0
 25 24  1  6
 25 26  1  0
 25 27  1  0
 27 28  1  0
 29 27  2  0
M  END
$$$$
