VPL.pdb
     RDKit          3D

 23 23  0  0  1  0  0  0  0  0999 V2000
   22.7030  -18.3999  -12.0675 C   0  0  0  0  0  0  0  0  0  0  0  0
   23.4443  -19.1936  -13.0978 C   0  0  2  0  0  0  0  0  0  0  0  0
   23.0062  -18.7744  -14.4795 C   0  0  0  0  0  0  0  0  0  0  0  0
   23.3145  -20.6845  -12.8863 C   0  0  2  0  0  0  0  0  0  0  0  0
   21.9568  -21.1168  -12.9767 N   0  0  0  0  0  0  0  0  0  0  0  0
   23.9660  -21.0427  -11.6042 C   0  0  0  0  0  0  0  0  0  0  0  0
   23.2541  -21.2587  -10.5616 O   0  0  0  0  0  0  0  0  0  0  0  0
   25.3659  -21.1625  -11.4605 N   0  0  0  0  0  0  0  0  0  0  0  0
   26.3397  -20.8315  -12.4507 C   0  0  0  0  0  0  0  0  0  0  0  0
   27.6376  -21.3717  -11.8963 C   0  0  0  0  0  0  0  0  0  0  0  0
   27.2141  -22.3945  -10.8513 C   0  0  0  0  0  0  0  0  0  0  0  0
   26.0119  -21.6460  -10.2754 C   0  0  1  0  0  0  0  0  0  0  0  0
   26.5512  -20.5863   -9.4194 C   0  0  0  0  0  0  0  0  0  0  0  0
   26.7214  -19.4227   -9.8433 O   0  0  0  0  0  0  0  0  0  0  0  0
   27.6256  -18.0686   -4.9601 C   0  0  0  0  0  0  0  0  0  0  0  0
   26.9654  -19.4596   -4.9288 C   0  0  2  0  0  0  0  0  0  0  0  0
   26.9568  -19.9005   -3.5018 C   0  0  0  0  0  0  0  0  0  0  0  0
   27.6849  -20.3787   -5.8498 C   0  0  0  0  0  0  0  0  0  0  0  0
   27.7172  -19.9373   -7.2752 C   0  0  2  0  0  0  0  0  0  0  0  0
   26.8960  -20.8605   -8.0752 N   0  0  0  0  0  0  0  0  0  0  0  0
   29.1077  -19.9545   -7.7770 C   0  0  0  0  0  0  0  0  0  0  0  0
   29.5715  -21.0628   -8.5008 O   0  0  0  0  0  0  0  0  0  0  0  0
   29.9236  -19.0333   -7.6014 O   0  0  0  0  0  0  0  0  0  0  0  0
  2  1  1  1
  2  3  1  0
  4  2  1  0
  4  5  1  1
  6  8  1  0
  6  4  1  0
  7  6  2  0
  8 12  1  0
  9  8  1  0
  9 10  1  0
 10 11  1  0
 12 11  1  0
 13 20  1  0
 12 13  1  1
 14 13  2  0
 16 15  1  1
 16 17  1  0
 18 16  1  0
 19 20  1  0
 19 18  1  1
 21 22  1  0
 21 19  1  0
 23 21  2  0
M  END
$$$$
