VPL.pdb
     RDKit          3D

 23 23  0  0  1  0  0  0  0  0999 V2000
   26.1559  -16.9641  -13.4422 C   0  0  0  0  0  0  0  0  0  0  0  0
   26.9541  -17.7641  -14.4240 C   0  0  2  0  0  0  0  0  0  0  0  0
   27.2127  -16.9429  -15.6632 C   0  0  0  0  0  0  0  0  0  0  0  0
   26.3139  -19.0950  -14.7453 C   0  0  2  0  0  0  0  0  0  0  0  0
   25.0433  -18.9338  -15.3761 N   0  0  0  0  0  0  0  0  0  0  0  0
   26.2621  -19.9101  -13.5086 C   0  0  0  0  0  0  0  0  0  0  0  0
   25.1349  -20.1703  -12.9589 O   0  0  0  0  0  0  0  0  0  0  0  0
   27.4159  -20.4310  -12.8824 N   0  0  0  0  0  0  0  0  0  0  0  0
   28.7658  -20.1740  -13.2696 C   0  0  0  0  0  0  0  0  0  0  0  0
   29.5827  -21.1490  -12.4536 C   0  0  0  0  0  0  0  0  0  0  0  0
   28.5876  -22.2161  -12.0191 C   0  0  0  0  0  0  0  0  0  0  0  0
   27.3861  -21.3099  -11.7501 C   0  0  1  0  0  0  0  0  0  0  0  0
   27.6460  -20.6407  -10.4728 C   0  0  0  0  0  0  0  0  0  0  0  0
   28.8007  -20.3069  -10.1295 O   0  0  0  0  0  0  0  0  0  0  0  0
   27.9446  -18.4190   -5.3206 C   0  0  0  0  0  0  0  0  0  0  0  0
   27.4670  -19.7285   -5.9754 C   0  0  2  0  0  0  0  0  0  0  0  0
   28.4854  -20.7707   -5.6476 C   0  0  0  0  0  0  0  0  0  0  0  0
   27.2556  -19.5149   -7.4316 C   0  0  0  0  0  0  0  0  0  0  0  0
   26.6497  -20.6730   -8.1524 C   0  0  2  0  0  0  0  0  0  0  0  0
   26.5807  -20.3536   -9.5876 N   0  0  0  0  0  0  0  0  0  0  0  0
   25.2872  -20.9294   -7.6391 C   0  0  0  0  0  0  0  0  0  0  0  0
   25.1185  -21.4722   -6.3568 O   0  0  0  0  0  0  0  0  0  0  0  0
   24.2464  -20.6937   -8.2764 O   0  0  0  0  0  0  0  0  0  0  0  0
  2  1  1  1
  2  3  1  0
  4  2  1  0
  4  5  1  1
  6  8  1  0
  6  4  1  0
  7  6  2  0
  8 12  1  0
  9  8  1  0
  9 10  1  0
 10 11  1  0
 12 11  1  0
 13 20  1  0
 12 13  1  1
 14 13  2  0
 16 15  1  6
 16 17  1  0
 18 16  1  0
 19 20  1  0
 19 18  1  1
 21 22  1  0
 21 19  1  0
 23 21  2  0
M  END
$$$$
