VPL.pdb
     RDKit          3D

 23 23  0  0  1  0  0  0  0  0999 V2000
   26.1961  -15.7308  -15.8864 C   0  0  0  0  0  0  0  0  0  0  0  0
   25.9284  -16.8456  -14.9239 C   0  0  2  0  0  0  0  0  0  0  0  0
   27.0825  -16.9787  -13.9610 C   0  0  0  0  0  0  0  0  0  0  0  0
   25.6128  -18.1499  -15.6193 C   0  0  2  0  0  0  0  0  0  0  0  0
   24.5378  -18.0090  -16.5482 N   0  0  0  0  0  0  0  0  0  0  0  0
   25.3757  -19.1924  -14.5929 C   0  0  0  0  0  0  0  0  0  0  0  0
   24.2200  -19.3102  -14.0535 O   0  0  0  0  0  0  0  0  0  0  0  0
   26.3785  -20.0886  -14.1616 N   0  0  0  0  0  0  0  0  0  0  0  0
   27.7582  -20.0377  -14.5252 C   0  0  0  0  0  0  0  0  0  0  0  0
   28.3304  -21.3382  -14.0102 C   0  0  0  0  0  0  0  0  0  0  0  0
   27.1204  -22.2416  -13.8165 C   0  0  0  0  0  0  0  0  0  0  0  0
   26.1401  -21.1966  -13.2836 C   0  0  1  0  0  0  0  0  0  0  0  0
   26.5180  -20.9419  -11.8911 C   0  0  0  0  0  0  0  0  0  0  0  0
   27.7096  -20.7687  -11.5554 O   0  0  0  0  0  0  0  0  0  0  0  0
   27.0775  -18.0630   -7.2944 C   0  0  0  0  0  0  0  0  0  0  0  0
   26.9555  -19.5553   -7.6547 C   0  0  2  0  0  0  0  0  0  0  0  0
   28.2351  -20.2047   -7.2407 C   0  0  0  0  0  0  0  0  0  0  0  0
   26.6346  -19.6994   -9.0994 C   0  0  0  0  0  0  0  0  0  0  0  0
   25.8691  -20.9316   -9.4504 C   0  0  2  0  0  0  0  0  0  0  0  0
   25.5286  -20.8856  -10.8817 N   0  0  0  0  0  0  0  0  0  0  0  0
   24.6274  -20.9987   -8.6509 C   0  0  0  0  0  0  0  0  0  0  0  0
   24.6802  -21.4420   -7.3213 O   0  0  0  0  0  0  0  0  0  0  0  0
   23.5043  -20.6824   -9.0797 O   0  0  0  0  0  0  0  0  0  0  0  0
  2  1  1  6
  2  3  1  0
  4  2  1  0
  4  5  1  1
  6  8  1  0
  6  4  1  0
  7  6  2  0
  8 12  1  0
  9  8  1  0
  9 10  1  0
 10 11  1  0
 12 11  1  0
 13 20  1  0
 12 13  1  1
 14 13  2  0
 16 15  1  6
 16 17  1  0
 18 16  1  0
 19 20  1  0
 19 18  1  1
 21 22  1  0
 21 19  1  0
 23 21  2  0
M  END
$$$$
