VPL.pdb
     RDKit          3D

 23 23  0  0  1  0  0  0  0  0999 V2000
   20.3137  -18.9553  -14.1308 C   0  0  0  0  0  0  0  0  0  0  0  0
   20.2991  -20.0269  -13.0856 C   0  0  2  0  0  0  0  0  0  0  0  0
   19.3952  -19.6200  -11.9480 C   0  0  0  0  0  0  0  0  0  0  0  0
   21.6862  -20.3921  -12.6091 C   0  0  2  0  0  0  0  0  0  0  0  0
   22.5461  -20.7379  -13.6952 N   0  0  0  0  0  0  0  0  0  0  0  0
   21.5732  -21.4544  -11.5819 C   0  0  0  0  0  0  0  0  0  0  0  0
   21.3748  -22.6695  -11.9350 O   0  0  0  0  0  0  0  0  0  0  0  0
   21.6735  -21.1979  -10.1966 N   0  0  0  0  0  0  0  0  0  0  0  0
   21.8282  -19.9133   -9.5930 C   0  0  0  0  0  0  0  0  0  0  0  0
   22.1322  -20.2137   -8.1434 C   0  0  0  0  0  0  0  0  0  0  0  0
   22.6017  -21.6619   -8.1404 C   0  0  0  0  0  0  0  0  0  0  0  0
   21.6356  -22.2158   -9.1877 C   0  0  1  0  0  0  0  0  0  0  0  0
   20.3346  -22.3478   -8.5269 C   0  0  0  0  0  0  0  0  0  0  0  0
   19.5194  -21.4009   -8.4871 O   0  0  0  0  0  0  0  0  0  0  0  0
   16.9201  -27.3079   -8.6397 C   0  0  0  0  0  0  0  0  0  0  0  0
   16.9668  -25.8294   -8.2112 C   0  0  2  0  0  0  0  0  0  0  0  0
   16.0585  -25.0844   -9.1334 C   0  0  0  0  0  0  0  0  0  0  0  0
   18.3738  -25.3485   -8.2162 C   0  0  0  0  0  0  0  0  0  0  0  0
   18.5597  -23.9531   -7.7201 C   0  0  2  0  0  0  0  0  0  0  0  0
   19.9673  -23.5668   -7.9105 N   0  0  0  0  0  0  0  0  0  0  0  0
   18.2190  -23.8791   -6.2834 C   0  0  0  0  0  0  0  0  0  0  0  0
   16.8837  -23.6973   -5.8945 O   0  0  0  0  0  0  0  0  0  0  0  0
   19.0510  -23.9685   -5.3642 O   0  0  0  0  0  0  0  0  0  0  0  0
  2  1  1  6
  2  3  1  0
  4  2  1  0
  4  5  1  6
  6  8  1  0
  6  4  1  0
  7  6  2  0
  8 12  1  0
  9  8  1  0
  9 10  1  0
 10 11  1  0
 12 11  1  0
 13 20  1  0
 12 13  1  1
 14 13  2  0
 16 15  1  6
 16 17  1  0
 18 16  1  0
 19 20  1  0
 19 18  1  1
 21 22  1  0
 21 19  1  0
 23 21  2  0
M  END
$$$$
