TDP.pdb
     RDKit          3D

 23 23  0  0  1  0  0  0  0  0999 V2000
    8.4876  -12.2945   20.1062 C   0  0  0  0  0  0  0  0  0  0  0  0
    8.1902  -13.3572   19.0568 C   0  0  1  0  0  0  0  0  0  0  0  0
    8.8996  -13.1789   17.8948 O   0  0  0  0  0  0  0  0  0  0  0  0
    8.5111  -14.7469   19.6047 C   0  0  2  0  0  0  0  0  0  0  0  0
    8.0396  -15.7336   18.6006 N   0  0  0  0  0  0  0  0  0  0  0  0
    7.7978  -15.0744   20.8404 C   0  0  0  0  0  0  0  0  0  0  0  0
    6.6080  -15.4682   20.8217 O   0  0  0  0  0  0  0  0  0  0  0  0
    8.4202  -14.9676   22.1223 N   0  0  0  0  0  0  0  0  0  0  0  0
    7.6497  -15.2964   23.3275 C   0  0  1  0  0  0  0  0  0  0  0  0
    7.4852  -16.8032   23.3280 C   0  0  0  0  0  0  0  0  0  0  0  0
    6.8758  -17.4048   24.4941 C   0  0  0  0  0  0  0  0  0  0  0  0
    7.4563  -17.9106   25.4783 O   0  0  0  0  0  0  0  0  0  0  0  0
    8.2390  -14.7558   24.5241 C   0  0  0  0  0  0  0  0  0  0  0  0
    9.5372  -14.8770   24.5822 O   0  0  0  0  0  0  0  0  0  0  0  0
    5.4564  -17.4561   24.5885 O   0  0  0  0  0  0  0  0  0  0  0  0
    7.6915  -14.1147   25.6535 N   0  0  0  0  0  0  0  0  0  0  0  0
    6.3630  -13.9060   26.1332 C   0  0  0  0  0  0  0  0  0  0  0  0
    6.4654  -12.8164   27.2122 C   0  0  0  0  0  0  0  0  0  0  0  0
    7.8538  -12.2039   26.9454 C   0  0  0  0  0  0  0  0  0  0  0  0
    8.5912  -13.5000   26.6649 C   0  0  1  0  0  0  0  0  0  0  0  0
    8.6490  -14.3624   27.8704 C   0  0  0  0  0  0  0  0  0  0  0  0
    9.4259  -14.1150   28.9788 O   0  0  0  0  0  0  0  0  0  0  0  0
    7.9350  -15.3954   27.8794 O   0  0  0  0  0  0  0  0  0  0  0  0
  2  4  1  0
  2  1  1  1
  3  2  1  0
  4  6  1  0
  4  5  1  6
  6  8  1  0
  6  7  2  0
  8  9  1  0
  9 10  1  1
  9 13  1  0
 11 10  1  0
 12 11  2  0
 13 16  1  0
 14 13  2  0
 15 11  1  0
 16 17  1  0
 16 20  1  0
 17 18  1  0
 18 19  1  0
 20 19  1  0
 20 21  1  1
 21 22  1  0
 23 21  2  0
M  END
$$$$
