TDP.pdb
     RDKit          3D

 23 23  0  0  1  0  0  0  0  0999 V2000
   10.3889  -13.8489   18.6700 C   0  0  0  0  0  0  0  0  0  0  0  0
    9.7547  -13.9459   20.0511 C   0  0  1  0  0  0  0  0  0  0  0  0
    9.8746  -12.7888   20.7804 O   0  0  0  0  0  0  0  0  0  0  0  0
    8.2695  -14.2829   19.9292 C   0  0  2  0  0  0  0  0  0  0  0  0
    7.6097  -13.1257   19.2736 N   0  0  0  0  0  0  0  0  0  0  0  0
    7.5916  -14.4420   21.2169 C   0  0  0  0  0  0  0  0  0  0  0  0
    6.9085  -13.5156   21.7130 O   0  0  0  0  0  0  0  0  0  0  0  0
    7.6696  -15.6565   21.9660 N   0  0  0  0  0  0  0  0  0  0  0  0
    7.0997  -15.7076   23.3177 C   0  0  1  0  0  0  0  0  0  0  0  0
    6.8594  -17.1731   23.6217 C   0  0  0  0  0  0  0  0  0  0  0  0
    6.6149  -17.5341   25.0011 C   0  0  0  0  0  0  0  0  0  0  0  0
    5.5434  -17.4277   25.6351 O   0  0  0  0  0  0  0  0  0  0  0  0
    7.9118  -15.0184   24.2855 C   0  0  0  0  0  0  0  0  0  0  0  0
    9.1958  -15.1205   24.0755 O   0  0  0  0  0  0  0  0  0  0  0  0
    7.6778  -18.0776   25.7764 O   0  0  0  0  0  0  0  0  0  0  0  0
    7.5961  -14.2474   25.4223 N   0  0  0  0  0  0  0  0  0  0  0  0
    6.3805  -13.9154   26.0938 C   0  0  0  0  0  0  0  0  0  0  0  0
    6.7164  -12.7430   27.0290 C   0  0  0  0  0  0  0  0  0  0  0  0
    8.0651  -12.2435   26.4763 C   0  0  0  0  0  0  0  0  0  0  0  0
    8.6832  -13.6023   26.2049 C   0  0  1  0  0  0  0  0  0  0  0  0
    8.9072  -14.3566   27.4623 C   0  0  0  0  0  0  0  0  0  0  0  0
    9.8668  -14.0547   28.4011 O   0  0  0  0  0  0  0  0  0  0  0  0
    8.1651  -15.3446   27.6862 O   0  0  0  0  0  0  0  0  0  0  0  0
  2  4  1  0
  2  1  1  6
  3  2  1  0
  4  6  1  0
  4  5  1  1
  6  8  1  0
  6  7  2  0
  8  9  1  0
  9 10  1  1
  9 13  1  0
 11 10  1  0
 12 11  2  0
 13 16  1  0
 14 13  2  0
 15 11  1  0
 16 17  1  0
 16 20  1  0
 17 18  1  0
 18 19  1  0
 20 19  1  0
 20 21  1  1
 21 22  1  0
 23 21  2  0
M  END
$$$$
