TDP.pdb
     RDKit          3D

 23 23  0  0  1  0  0  0  0  0999 V2000
    7.6644  -12.3075   19.5829 C   0  0  0  0  0  0  0  0  0  0  0  0
    8.9794  -13.0587   19.4228 C   0  0  1  0  0  0  0  0  0  0  0  0
    9.9172  -12.7074   20.3621 O   0  0  0  0  0  0  0  0  0  0  0  0
    8.7441  -14.5650   19.5218 C   0  0  2  0  0  0  0  0  0  0  0  0
    7.7745  -14.9282   18.4578 N   0  0  0  0  0  0  0  0  0  0  0  0
    8.1216  -14.9849   20.7785 C   0  0  0  0  0  0  0  0  0  0  0  0
    6.8786  -15.1091   20.8808 O   0  0  0  0  0  0  0  0  0  0  0  0
    8.8957  -15.2780   21.9435 N   0  0  0  0  0  0  0  0  0  0  0  0
    8.2137  -15.6724   23.1818 C   0  0  1  0  0  0  0  0  0  0  0  0
    8.5356  -17.1382   23.3951 C   0  0  0  0  0  0  0  0  0  0  0  0
    8.0753  -17.7477   24.6238 C   0  0  0  0  0  0  0  0  0  0  0  0
    8.7657  -18.0840   25.6095 O   0  0  0  0  0  0  0  0  0  0  0  0
    8.5446  -14.8169   24.2908 C   0  0  0  0  0  0  0  0  0  0  0  0
    9.8126  -14.5205   24.3773 O   0  0  0  0  0  0  0  0  0  0  0  0
    6.6877  -18.0202   24.7874 O   0  0  0  0  0  0  0  0  0  0  0  0
    7.7675  -14.2285   25.3089 N   0  0  0  0  0  0  0  0  0  0  0  0
    6.3764  -14.2376   25.6304 C   0  0  0  0  0  0  0  0  0  0  0  0
    6.1635  -13.0944   26.6354 C   0  0  0  0  0  0  0  0  0  0  0  0
    7.4469  -12.2571   26.4738 C   0  0  0  0  0  0  0  0  0  0  0  0
    8.4243  -13.4124   26.3638 C   0  0  1  0  0  0  0  0  0  0  0  0
    8.4900  -14.1888   27.6259 C   0  0  0  0  0  0  0  0  0  0  0  0
    8.0089  -15.4675   27.7895 O   0  0  0  0  0  0  0  0  0  0  0  0
    9.0250  -13.6372   28.6192 O   0  0  0  0  0  0  0  0  0  0  0  0
  2  4  1  0
  2  1  1  1
  3  2  1  0
  4  6  1  0
  4  5  1  6
  6  8  1  0
  6  7  2  0
  8  9  1  0
  9 10  1  1
  9 13  1  0
 11 10  1  0
 12 11  2  0
 13 16  1  0
 14 13  2  0
 15 11  1  0
 16 17  1  0
 16 20  1  0
 17 18  1  0
 18 19  1  0
 20 19  1  0
 20 21  1  1
 21 22  1  0
 23 21  2  0
M  END
$$$$
