TDP.pdb
     RDKit          3D

 23 23  0  0  1  0  0  0  0  0999 V2000
    8.6678  -12.2468   20.4431 C   0  0  0  0  0  0  0  0  0  0  0  0
    8.0460  -13.1615   19.3962 C   0  0  1  0  0  0  0  0  0  0  0  0
    8.5034  -12.9136   18.1256 O   0  0  0  0  0  0  0  0  0  0  0  0
    8.3350  -14.6237   19.7320 C   0  0  2  0  0  0  0  0  0  0  0  0
    7.5713  -15.4543   18.7671 N   0  0  0  0  0  0  0  0  0  0  0  0
    7.8640  -15.0304   21.0570 C   0  0  0  0  0  0  0  0  0  0  0  0
    6.6454  -15.2088   21.2895 O   0  0  0  0  0  0  0  0  0  0  0  0
    8.7653  -15.2487   22.1444 N   0  0  0  0  0  0  0  0  0  0  0  0
    8.2310  -15.6178   23.4606 C   0  0  1  0  0  0  0  0  0  0  0  0
    8.6714  -17.0463   23.7119 C   0  0  0  0  0  0  0  0  0  0  0  0
    8.0773  -18.0790   22.8911 C   0  0  0  0  0  0  0  0  0  0  0  0
    6.8716  -18.4021   22.8322 O   0  0  0  0  0  0  0  0  0  0  0  0
    8.6048  -14.6839   24.4899 C   0  0  0  0  0  0  0  0  0  0  0  0
    9.8484  -14.2923   24.4302 O   0  0  0  0  0  0  0  0  0  0  0  0
    8.9105  -18.8492   22.0315 O   0  0  0  0  0  0  0  0  0  0  0  0
    7.8912  -14.1009   25.5564 N   0  0  0  0  0  0  0  0  0  0  0  0
    6.5380  -14.1737   26.0062 C   0  0  0  0  0  0  0  0  0  0  0  0
    6.3521  -13.0070   26.9892 C   0  0  0  0  0  0  0  0  0  0  0  0
    7.5650  -12.1077   26.6820 C   0  0  0  0  0  0  0  0  0  0  0  0
    8.5933  -13.2114   26.5187 C   0  0  1  0  0  0  0  0  0  0  0  0
    8.8184  -13.9353   27.7936 C   0  0  0  0  0  0  0  0  0  0  0  0
    8.4830  -15.2501   28.0221 O   0  0  0  0  0  0  0  0  0  0  0  0
    9.3554  -13.3001   28.7344 O   0  0  0  0  0  0  0  0  0  0  0  0
  2  4  1  0
  2  1  1  1
  3  2  1  0
  4  6  1  0
  4  5  1  6
  6  8  1  0
  6  7  2  0
  8  9  1  0
  9 10  1  1
  9 13  1  0
 11 10  1  0
 12 11  2  0
 13 16  1  0
 14 13  2  0
 15 11  1  0
 16 17  1  0
 16 20  1  0
 17 18  1  0
 18 19  1  0
 20 19  1  0
 20 21  1  1
 21 22  1  0
 23 21  2  0
M  END
$$$$
