TDP.pdb
     RDKit          3D

 23 23  0  0  1  0  0  0  0  0999 V2000
    8.5697  -12.3868   20.3803 C   0  0  0  0  0  0  0  0  0  0  0  0
    7.9858  -13.3448   19.3505 C   0  0  1  0  0  0  0  0  0  0  0  0
    8.5338  -13.1905   18.1011 O   0  0  0  0  0  0  0  0  0  0  0  0
    8.2005  -14.7917   19.7917 C   0  0  2  0  0  0  0  0  0  0  0  0
    7.5075  -15.6582   18.8054 N   0  0  0  0  0  0  0  0  0  0  0  0
    7.5961  -15.1110   21.0862 C   0  0  0  0  0  0  0  0  0  0  0  0
    6.3569  -15.2532   21.2099 O   0  0  0  0  0  0  0  0  0  0  0  0
    8.3843  -15.2812   22.2660 N   0  0  0  0  0  0  0  0  0  0  0  0
    7.7209  -15.5935   23.5375 C   0  0  1  0  0  0  0  0  0  0  0  0
    7.8665  -17.0892   23.7359 C   0  0  0  0  0  0  0  0  0  0  0  0
    7.4326  -17.6368   25.0027 C   0  0  0  0  0  0  0  0  0  0  0  0
    8.1429  -17.9163   25.9921 O   0  0  0  0  0  0  0  0  0  0  0  0
    8.2116  -14.7921   24.6276 C   0  0  0  0  0  0  0  0  0  0  0  0
    9.5064  -14.6283   24.6299 O   0  0  0  0  0  0  0  0  0  0  0  0
    6.0503  -17.9100   25.2051 O   0  0  0  0  0  0  0  0  0  0  0  0
    7.5691  -14.1416   25.7002 N   0  0  0  0  0  0  0  0  0  0  0  0
    6.2144  -14.0514   26.1420 C   0  0  0  0  0  0  0  0  0  0  0  0
    6.1691  -12.8866   27.1437 C   0  0  0  0  0  0  0  0  0  0  0  0
    7.4872  -12.1416   26.8577 C   0  0  0  0  0  0  0  0  0  0  0  0
    8.3703  -13.3627   26.6809 C   0  0  1  0  0  0  0  0  0  0  0  0
    8.4940  -14.1296   27.9445 C   0  0  0  0  0  0  0  0  0  0  0  0
    7.9751  -15.3862   28.1567 O   0  0  0  0  0  0  0  0  0  0  0  0
    9.1194  -13.5912   28.8911 O   0  0  0  0  0  0  0  0  0  0  0  0
  2  4  1  0
  2  1  1  1
  3  2  1  0
  4  6  1  0
  4  5  1  6
  6  8  1  0
  6  7  2  0
  8  9  1  0
  9 10  1  1
  9 13  1  0
 11 10  1  0
 12 11  2  0
 13 16  1  0
 14 13  2  0
 15 11  1  0
 16 17  1  0
 16 20  1  0
 17 18  1  0
 18 19  1  0
 20 19  1  0
 20 21  1  1
 21 22  1  0
 23 21  2  0
M  END
$$$$
