TDP.pdb
     RDKit          3D

 23 23  0  0  1  0  0  0  0  0999 V2000
    8.6492  -12.3860   20.7033 C   0  0  0  0  0  0  0  0  0  0  0  0
    7.8264  -13.1856   19.7019 C   0  0  1  0  0  0  0  0  0  0  0  0
    8.1891  -12.9509   18.3986 O   0  0  0  0  0  0  0  0  0  0  0  0
    7.9675  -14.6821   19.9756 C   0  0  2  0  0  0  0  0  0  0  0  0
    7.0430  -15.3859   19.0514 N   0  0  0  0  0  0  0  0  0  0  0  0
    7.5519  -15.0787   21.3221 C   0  0  0  0  0  0  0  0  0  0  0  0
    6.3404  -15.1778   21.6279 O   0  0  0  0  0  0  0  0  0  0  0  0
    8.5010  -15.3763   22.3482 N   0  0  0  0  0  0  0  0  0  0  0  0
    8.0243  -15.7909   23.6730 C   0  0  1  0  0  0  0  0  0  0  0  0
    8.4399  -17.2391   23.8393 C   0  0  0  0  0  0  0  0  0  0  0  0
    8.1412  -17.8751   25.1040 C   0  0  0  0  0  0  0  0  0  0  0  0
    7.4070  -17.4410   26.0173 O   0  0  0  0  0  0  0  0  0  0  0  0
    8.4734  -14.9127   24.7210 C   0  0  0  0  0  0  0  0  0  0  0  0
    9.7467  -14.6304   24.6727 O   0  0  0  0  0  0  0  0  0  0  0  0
    8.7205  -19.1414   25.3994 O   0  0  0  0  0  0  0  0  0  0  0  0
    7.8084  -14.2896   25.7961 N   0  0  0  0  0  0  0  0  0  0  0  0
    6.4891  -14.3763   26.3352 C   0  0  0  0  0  0  0  0  0  0  0  0
    6.3255  -13.1598   27.2601 C   0  0  0  0  0  0  0  0  0  0  0  0
    7.4859  -12.2442   26.8251 C   0  0  0  0  0  0  0  0  0  0  0  0
    8.5387  -13.3241   26.6592 C   0  0  1  0  0  0  0  0  0  0  0  0
    8.8670  -13.9646   27.9562 C   0  0  0  0  0  0  0  0  0  0  0  0
    8.6090  -15.2785   28.2731 O   0  0  0  0  0  0  0  0  0  0  0  0
    9.4222  -13.2538   28.8301 O   0  0  0  0  0  0  0  0  0  0  0  0
  2  4  1  0
  2  1  1  1
  3  2  1  0
  4  6  1  0
  4  5  1  6
  6  8  1  0
  6  7  2  0
  8  9  1  0
  9 10  1  1
  9 13  1  0
 11 10  1  0
 12 11  2  0
 13 16  1  0
 14 13  2  0
 15 11  1  0
 16 17  1  0
 16 20  1  0
 17 18  1  0
 18 19  1  0
 20 19  1  0
 20 21  1  1
 21 22  1  0
 23 21  2  0
M  END
$$$$
