TDP.pdb
     RDKit          3D

 23 23  0  0  1  0  0  0  0  0999 V2000
   10.0528  -12.9886   20.6345 C   0  0  0  0  0  0  0  0  0  0  0  0
    9.1385  -13.1454   19.4267 C   0  0  1  0  0  0  0  0  0  0  0  0
    9.8139  -13.1040   18.2320 O   0  0  0  0  0  0  0  0  0  0  0  0
    8.3827  -14.4710   19.5033 C   0  0  2  0  0  0  0  0  0  0  0  0
    7.3340  -14.4391   18.4530 N   0  0  0  0  0  0  0  0  0  0  0  0
    7.6674  -14.6718   20.7647 C   0  0  0  0  0  0  0  0  0  0  0  0
    6.5328  -14.1751   20.9571 O   0  0  0  0  0  0  0  0  0  0  0  0
    8.2211  -15.4443   21.8319 N   0  0  0  0  0  0  0  0  0  0  0  0
    7.4556  -15.6123   23.0728 C   0  0  1  0  0  0  0  0  0  0  0  0
    7.1999  -17.0996   23.2156 C   0  0  0  0  0  0  0  0  0  0  0  0
    6.5530  -17.5492   24.4290 C   0  0  0  0  0  0  0  0  0  0  0  0
    7.0872  -17.7706   25.5368 O   0  0  0  0  0  0  0  0  0  0  0  0
    8.0998  -15.0019   24.2058 C   0  0  0  0  0  0  0  0  0  0  0  0
    9.4014  -15.0962   24.1953 O   0  0  0  0  0  0  0  0  0  0  0  0
    5.1490  -17.7837   24.4226 O   0  0  0  0  0  0  0  0  0  0  0  0
    7.6033  -14.3152   25.3321 N   0  0  0  0  0  0  0  0  0  0  0  0
    6.2954  -14.0519   25.8407 C   0  0  0  0  0  0  0  0  0  0  0  0
    6.4610  -12.9392   26.8878 C   0  0  0  0  0  0  0  0  0  0  0  0
    7.8603  -12.3786   26.5690 C   0  0  0  0  0  0  0  0  0  0  0  0
    8.5488  -13.7043   26.3033 C   0  0  1  0  0  0  0  0  0  0  0  0
    8.6118  -14.5374   27.5289 C   0  0  0  0  0  0  0  0  0  0  0  0
    9.4238  -14.2858   28.6109 O   0  0  0  0  0  0  0  0  0  0  0  0
    7.8680  -15.5479   27.5824 O   0  0  0  0  0  0  0  0  0  0  0  0
  2  4  1  0
  2  1  1  1
  3  2  1  0
  4  6  1  0
  4  5  1  6
  6  8  1  0
  6  7  2  0
  8  9  1  0
  9 10  1  1
  9 13  1  0
 11 10  1  0
 12 11  2  0
 13 16  1  0
 14 13  2  0
 15 11  1  0
 16 17  1  0
 16 20  1  0
 17 18  1  0
 18 19  1  0
 20 19  1  0
 20 21  1  1
 21 22  1  0
 23 21  2  0
M  END
$$$$
