TDP.pdb
     RDKit          3D

 23 23  0  0  1  0  0  0  0  0999 V2000
    8.5655  -12.3631   20.4170 C   0  0  0  0  0  0  0  0  0  0  0  0
    8.0066  -13.3001   19.3546 C   0  0  1  0  0  0  0  0  0  0  0  0
    8.6275  -13.1645   18.1375 O   0  0  0  0  0  0  0  0  0  0  0  0
    8.1469  -14.7537   19.8039 C   0  0  2  0  0  0  0  0  0  0  0  0
    7.4364  -15.5917   18.8054 N   0  0  0  0  0  0  0  0  0  0  0  0
    7.5017  -15.0411   21.0862 C   0  0  0  0  0  0  0  0  0  0  0  0
    6.2555  -15.1359   21.1823 O   0  0  0  0  0  0  0  0  0  0  0  0
    8.2560  -15.2323   22.2848 N   0  0  0  0  0  0  0  0  0  0  0  0
    7.5531  -15.5184   23.5411 C   0  0  1  0  0  0  0  0  0  0  0  0
    7.5727  -17.0253   23.7046 C   0  0  0  0  0  0  0  0  0  0  0  0
    7.0934  -17.5638   24.9590 C   0  0  0  0  0  0  0  0  0  0  0  0
    5.9654  -17.4037   25.4722 O   0  0  0  0  0  0  0  0  0  0  0  0
    8.0941  -14.7859   24.6555 C   0  0  0  0  0  0  0  0  0  0  0  0
    9.3906  -14.6399   24.6203 O   0  0  0  0  0  0  0  0  0  0  0  0
    7.9601  -18.3763   25.7432 O   0  0  0  0  0  0  0  0  0  0  0  0
    7.4999  -14.1878   25.7850 N   0  0  0  0  0  0  0  0  0  0  0  0
    6.1892  -14.2127   26.3507 C   0  0  0  0  0  0  0  0  0  0  0  0
    6.1364  -13.0512   27.3557 C   0  0  0  0  0  0  0  0  0  0  0  0
    7.3529  -12.1966   26.9510 C   0  0  0  0  0  0  0  0  0  0  0  0
    8.3181  -13.3377   26.6895 C   0  0  1  0  0  0  0  0  0  0  0  0
    8.6241  -14.0846   27.9339 C   0  0  0  0  0  0  0  0  0  0  0  0
    8.2702  -15.3924   28.1743 O   0  0  0  0  0  0  0  0  0  0  0  0
    9.2535  -13.4774   28.8351 O   0  0  0  0  0  0  0  0  0  0  0  0
  2  4  1  0
  2  1  1  1
  3  2  1  0
  4  6  1  0
  4  5  1  6
  6  8  1  0
  6  7  2  0
  8  9  1  0
  9 10  1  1
  9 13  1  0
 11 10  1  0
 12 11  2  0
 13 16  1  0
 14 13  2  0
 15 11  1  0
 16 17  1  0
 16 20  1  0
 17 18  1  0
 18 19  1  0
 20 19  1  0
 20 21  1  1
 21 22  1  0
 23 21  2  0
M  END
$$$$
