PAK.pdb
     RDKit          3D

 22 22  0  0  1  0  0  0  0  0999 V2000
    9.5141  -14.7692   17.8573 N   0  0  0  0  0  0  0  0  0  0  0  0
    8.5594  -14.9499   16.7820 C   0  0  0  0  0  0  0  0  0  0  0  0
    7.9107  -13.5659   16.7375 C   0  0  0  0  0  0  0  0  0  0  0  0
    7.6415  -13.3517   18.2252 C   0  0  0  0  0  0  0  0  0  0  0  0
    8.9298  -13.9053   18.8298 C   0  0  1  0  0  0  0  0  0  0  0  0
    8.6112  -14.6764   20.0505 C   0  0  0  0  0  0  0  0  0  0  0  0
    7.8733  -14.1843   20.9136 O   0  0  0  0  0  0  0  0  0  0  0  0
    9.6212  -18.0238   21.5694 C   0  0  0  0  0  0  0  0  0  0  0  0
    8.8603  -16.7264   21.4838 C   0  0  2  0  0  0  0  0  0  0  0  0
    9.1230  -15.9897   20.2897 N   0  0  0  0  0  0  0  0  0  0  0  0
    9.1794  -15.9403   22.7176 C   0  0  0  0  0  0  0  0  0  0  0  0
   10.3105  -15.4155   22.8931 O   0  0  0  0  0  0  0  0  0  0  0  0
    8.2129  -15.7592   23.7359 N   0  0  0  0  0  0  0  0  0  0  0  0
    8.3826  -14.8607   24.8610 C   0  0  1  0  0  0  0  0  0  0  0  0
    7.0970  -14.0883   25.1258 C   0  0  0  0  0  0  0  0  0  0  0  0
    7.2464  -13.1887   26.3279 C   0  0  0  0  0  0  0  0  0  0  0  0
    6.0370  -12.3882   26.6342 C   0  0  0  0  0  0  0  0  0  0  0  0
    6.1506  -11.5276   27.8606 C   0  0  0  0  0  0  0  0  0  0  0  0
    4.9161  -10.8506   28.1536 N   0  0  0  0  0  0  0  0  0  0  0  0
    8.7758  -15.6771   26.0306 C   0  0  0  0  0  0  0  0  0  0  0  0
    8.5235  -16.9024   26.1576 O   0  0  0  0  0  0  0  0  0  0  0  0
    9.4697  -15.0625   27.0635 O   0  0  0  0  0  0  0  0  0  0  0  0
  1  5  1  0
  1  2  1  0
  2  3  1  0
  3  4  1  0
  5  4  1  0
  6 10  1  0
  5  6  1  1
  7  6  2  0
  9 11  1  0
  9  8  1  6
  9 10  1  0
 11 13  1  0
 12 11  2  0
 13 14  1  0
 14 15  1  1
 15 16  1  0
 16 17  1  0
 18 17  1  0
 19 18  1  0
 20 14  1  0
 21 20  2  0
 22 20  1  0
M  END
$$$$
