PAK.pdb
     RDKit          3D

 22 22  0  0  1  0  0  0  0  0999 V2000
    8.1777  -14.5537   18.2748 N   0  0  0  0  0  0  0  0  0  0  0  0
    7.1052  -13.6049   18.0515 C   0  0  0  0  0  0  0  0  0  0  0  0
    7.7989  -12.2938   18.4232 C   0  0  0  0  0  0  0  0  0  0  0  0
    8.4499  -12.7034   19.7423 C   0  0  0  0  0  0  0  0  0  0  0  0
    8.9409  -14.1066   19.3934 C   0  0  1  0  0  0  0  0  0  0  0  0
    8.7133  -15.0095   20.5419 C   0  0  0  0  0  0  0  0  0  0  0  0
    7.6944  -14.8812   21.2325 O   0  0  0  0  0  0  0  0  0  0  0  0
   10.2334  -18.1895   21.9339 C   0  0  0  0  0  0  0  0  0  0  0  0
    9.4240  -16.9212   22.0113 C   0  0  2  0  0  0  0  0  0  0  0  0
    9.6299  -16.0456   20.9029 N   0  0  0  0  0  0  0  0  0  0  0  0
    9.7451  -16.2667   23.3191 C   0  0  0  0  0  0  0  0  0  0  0  0
   10.7423  -15.5093   23.4522 O   0  0  0  0  0  0  0  0  0  0  0  0
    8.9324  -16.4787   24.4586 N   0  0  0  0  0  0  0  0  0  0  0  0
    9.1605  -15.8467   25.7432 C   0  0  1  0  0  0  0  0  0  0  0  0
    7.8606  -15.2774   26.2963 C   0  0  0  0  0  0  0  0  0  0  0  0
    7.6804  -13.8392   25.8773 C   0  0  0  0  0  0  0  0  0  0  0  0
    6.4441  -13.2106   26.4004 C   0  0  0  0  0  0  0  0  0  0  0  0
    6.2718  -11.7650   26.0286 C   0  0  0  0  0  0  0  0  0  0  0  0
    5.0802  -11.2039   26.6060 N   0  0  0  0  0  0  0  0  0  0  0  0
    9.7346  -16.8666   26.6483 C   0  0  0  0  0  0  0  0  0  0  0  0
    9.6784  -18.1064   26.4467 O   0  0  0  0  0  0  0  0  0  0  0  0
   10.3811  -16.4404   27.8002 O   0  0  0  0  0  0  0  0  0  0  0  0
  1  5  1  0
  1  2  1  0
  2  3  1  0
  3  4  1  0
  5  4  1  0
  6 10  1  0
  5  6  1  1
  7  6  2  0
  9 11  1  0
  9  8  1  6
  9 10  1  0
 11 13  1  0
 12 11  2  0
 13 14  1  0
 14 15  1  1
 15 16  1  0
 16 17  1  0
 18 17  1  0
 19 18  1  0
 20 14  1  0
 21 20  2  0
 22 20  1  0
M  END
$$$$
