PAK.pdb
     RDKit          3D

 22 22  0  0  1  0  0  0  0  0999 V2000
    6.3071  -17.9046   20.3368 N   0  0  0  0  0  0  0  0  0  0  0  0
    5.2560  -17.9419   19.3397 C   0  0  0  0  0  0  0  0  0  0  0  0
    5.7753  -19.0436   18.4152 C   0  0  0  0  0  0  0  0  0  0  0  0
    7.2255  -18.5931   18.2550 C   0  0  0  0  0  0  0  0  0  0  0  0
    7.5485  -18.1613   19.6837 C   0  0  1  0  0  0  0  0  0  0  0  0
    8.3588  -16.9249   19.6549 C   0  0  0  0  0  0  0  0  0  0  0  0
    9.5940  -16.9994   19.6410 O   0  0  0  0  0  0  0  0  0  0  0  0
    7.8506  -13.2358   19.0631 C   0  0  0  0  0  0  0  0  0  0  0  0
    8.5451  -14.4183   19.6870 C   0  0  2  0  0  0  0  0  0  0  0  0
    7.7755  -15.6197   19.6419 N   0  0  0  0  0  0  0  0  0  0  0  0
    8.9130  -14.0320   21.0860 C   0  0  0  0  0  0  0  0  0  0  0  0
    9.7001  -13.0782   21.3232 O   0  0  0  0  0  0  0  0  0  0  0  0
    8.3842  -14.7312   22.1976 N   0  0  0  0  0  0  0  0  0  0  0  0
    8.6507  -14.3756   23.5775 C   0  0  1  0  0  0  0  0  0  0  0  0
    7.3770  -13.8949   24.2603 C   0  0  0  0  0  0  0  0  0  0  0  0
    7.6484  -13.4991   25.6907 C   0  0  0  0  0  0  0  0  0  0  0  0
    6.4906  -12.8718   26.3714 C   0  0  0  0  0  0  0  0  0  0  0  0
    6.7347  -12.5007   27.8068 C   0  0  0  0  0  0  0  0  0  0  0  0
    5.5409  -12.0110   28.4417 N   0  0  0  0  0  0  0  0  0  0  0  0
    9.2079  -15.5708   24.2483 C   0  0  0  0  0  0  0  0  0  0  0  0
    9.0937  -16.7456   23.8147 O   0  0  0  0  0  0  0  0  0  0  0  0
    9.9054  -15.3985   25.4358 O   0  0  0  0  0  0  0  0  0  0  0  0
  1  5  1  0
  1  2  1  0
  2  3  1  0
  3  4  1  0
  5  4  1  0
  6 10  1  0
  5  6  1  6
  7  6  2  0
  9 11  1  0
  9  8  1  1
  9 10  1  0
 11 13  1  0
 12 11  2  0
 13 14  1  0
 14 15  1  1
 15 16  1  0
 16 17  1  0
 18 17  1  0
 19 18  1  0
 20 14  1  0
 21 20  2  0
 22 20  1  0
M  END
$$$$
