PAK.pdb
     RDKit          3D

 22 22  0  0  1  0  0  0  0  0999 V2000
    6.9630  -15.0185   20.4076 N   0  0  0  0  0  0  0  0  0  0  0  0
    6.3053  -13.8668   19.8233 C   0  0  0  0  0  0  0  0  0  0  0  0
    7.3920  -13.3678   18.8702 C   0  0  0  0  0  0  0  0  0  0  0  0
    8.5999  -13.4039   19.8036 C   0  0  0  0  0  0  0  0  0  0  0  0
    8.3506  -14.7180   20.5403 C   0  0  1  0  0  0  0  0  0  0  0  0
    8.6881  -14.5543   21.9705 C   0  0  0  0  0  0  0  0  0  0  0  0
    9.8705  -14.6014   22.3326 O   0  0  0  0  0  0  0  0  0  0  0  0
    6.9321  -13.5801   25.1830 C   0  0  0  0  0  0  0  0  0  0  0  0
    8.0000  -14.2656   24.3709 C   0  0  2  0  0  0  0  0  0  0  0  0
    7.6967  -14.3397   22.9780 N   0  0  0  0  0  0  0  0  0  0  0  0
    8.2219  -15.6169   24.9763 C   0  0  0  0  0  0  0  0  0  0  0  0
    7.3518  -16.5244   24.9048 O   0  0  0  0  0  0  0  0  0  0  0  0
    9.4263  -15.9222   25.6547 N   0  0  0  0  0  0  0  0  0  0  0  0
    9.8140  -17.2619   26.0502 C   0  0  1  0  0  0  0  0  0  0  0  0
   10.9435  -17.7737   25.1657 C   0  0  0  0  0  0  0  0  0  0  0  0
   11.4097  -19.1348   25.6201 C   0  0  0  0  0  0  0  0  0  0  0  0
   12.5319  -19.6836   24.8221 C   0  0  0  0  0  0  0  0  0  0  0  0
   12.9664  -21.0654   25.2216 C   0  0  0  0  0  0  0  0  0  0  0  0
   14.1327  -21.4890   24.4946 N   0  0  0  0  0  0  0  0  0  0  0  0
   10.2198  -17.2092   27.4720 C   0  0  0  0  0  0  0  0  0  0  0  0
   10.4735  -18.2202   28.1754 O   0  0  0  0  0  0  0  0  0  0  0  0
   10.3317  -15.9679   28.0827 O   0  0  0  0  0  0  0  0  0  0  0  0
  1  5  1  0
  1  2  1  0
  2  3  1  0
  3  4  1  0
  5  4  1  0
  6 10  1  0
  5  6  1  1
  7  6  2  0
  9 11  1  0
  9  8  1  1
  9 10  1  0
 11 13  1  0
 12 11  2  0
 13 14  1  0
 14 15  1  6
 15 16  1  0
 16 17  1  0
 18 17  1  0
 19 18  1  0
 20 14  1  0
 21 20  2  0
 22 20  1  0
M  END
$$$$
