PAK.pdb
     RDKit          3D

 22 22  0  0  1  0  0  0  0  0999 V2000
    8.0936  -15.0237   17.5002 N   0  0  0  0  0  0  0  0  0  0  0  0
    6.8701  -14.3732   17.0756 C   0  0  0  0  0  0  0  0  0  0  0  0
    7.3893  -12.9744   16.7407 C   0  0  0  0  0  0  0  0  0  0  0  0
    8.2327  -12.7003   17.9837 C   0  0  0  0  0  0  0  0  0  0  0  0
    8.8938  -14.0621   18.1845 C   0  0  1  0  0  0  0  0  0  0  0  0
    8.9320  -14.3848   19.6269 C   0  0  0  0  0  0  0  0  0  0  0  0
    9.7434  -13.8108   20.3642 O   0  0  0  0  0  0  0  0  0  0  0  0
    6.8382  -16.3743   22.0898 C   0  0  0  0  0  0  0  0  0  0  0  0
    8.0760  -15.6556   21.6197 C   0  0  2  0  0  0  0  0  0  0  0  0
    8.0607  -15.3470   20.2261 N   0  0  0  0  0  0  0  0  0  0  0  0
    9.2530  -16.4984   22.0017 C   0  0  0  0  0  0  0  0  0  0  0  0
    9.5642  -17.5321   21.3534 O   0  0  0  0  0  0  0  0  0  0  0  0
   10.0618  -16.1591   23.1128 N   0  0  0  0  0  0  0  0  0  0  0  0
   11.3287  -16.7958   23.4150 C   0  0  1  0  0  0  0  0  0  0  0  0
   12.4880  -15.8792   23.0468 C   0  0  0  0  0  0  0  0  0  0  0  0
   12.8950  -16.0763   21.6074 C   0  0  0  0  0  0  0  0  0  0  0  0
   14.0362  -15.2305   21.1838 C   0  0  0  0  0  0  0  0  0  0  0  0
   14.4808  -15.4448   19.7646 C   0  0  0  0  0  0  0  0  0  0  0  0
   15.4665  -14.4780   19.3624 N   0  0  0  0  0  0  0  0  0  0  0  0
   11.3326  -17.1226   24.8580 C   0  0  0  0  0  0  0  0  0  0  0  0
   12.2150  -17.8151   25.4263 O   0  0  0  0  0  0  0  0  0  0  0  0
   10.2995  -16.6390   25.6488 O   0  0  0  0  0  0  0  0  0  0  0  0
  1  5  1  0
  1  2  1  0
  2  3  1  0
  3  4  1  0
  5  4  1  0
  6 10  1  0
  5  6  1  1
  7  6  2  0
  9 11  1  0
  9  8  1  6
  9 10  1  0
 11 13  1  0
 12 11  2  0
 13 14  1  0
 14 15  1  1
 15 16  1  0
 16 17  1  0
 18 17  1  0
 19 18  1  0
 20 14  1  0
 21 20  2  0
 22 20  1  0
M  END
$$$$
