PAK.pdb
     RDKit          3D

 22 22  0  0  1  0  0  0  0  0999 V2000
    9.0782  -14.4962   18.4505 N   0  0  0  0  0  0  0  0  0  0  0  0
    7.9791  -14.3993   17.5109 C   0  0  0  0  0  0  0  0  0  0  0  0
    7.6475  -12.9098   17.6085 C   0  0  0  0  0  0  0  0  0  0  0  0
    7.6216  -12.7432   19.1262 C   0  0  0  0  0  0  0  0  0  0  0  0
    8.8240  -13.5953   19.5262 C   0  0  1  0  0  0  0  0  0  0  0  0
    8.5018  -14.3613   20.7491 C   0  0  0  0  0  0  0  0  0  0  0  0
    8.0772  -13.7710   21.7505 O   0  0  0  0  0  0  0  0  0  0  0  0
    8.6413  -18.0029   21.8748 C   0  0  0  0  0  0  0  0  0  0  0  0
    8.3475  -16.5314   22.0084 C   0  0  2  0  0  0  0  0  0  0  0  0
    8.6591  -15.7796   20.8356 N   0  0  0  0  0  0  0  0  0  0  0  0
    9.0868  -16.0367   23.2128 C   0  0  0  0  0  0  0  0  0  0  0  0
   10.3220  -15.7943   23.1770 O   0  0  0  0  0  0  0  0  0  0  0  0
    8.4171  -15.8233   24.4415 N   0  0  0  0  0  0  0  0  0  0  0  0
    9.0496  -15.2652   25.6206 C   0  0  1  0  0  0  0  0  0  0  0  0
    8.0102  -14.6241   26.5309 C   0  0  0  0  0  0  0  0  0  0  0  0
    7.5366  -13.3080   25.9654 C   0  0  0  0  0  0  0  0  0  0  0  0
    6.4319  -12.6859   26.7335 C   0  0  0  0  0  0  0  0  0  0  0  0
    5.9365  -11.3829   26.1728 C   0  0  0  0  0  0  0  0  0  0  0  0
    4.8112  -10.8774   26.9120 N   0  0  0  0  0  0  0  0  0  0  0  0
    9.7675  -16.3626   26.3055 C   0  0  0  0  0  0  0  0  0  0  0  0
   10.7484  -16.1974   27.0747 O   0  0  0  0  0  0  0  0  0  0  0  0
    9.3406  -17.6662   26.0938 O   0  0  0  0  0  0  0  0  0  0  0  0
  1  5  1  0
  1  2  1  0
  2  3  1  0
  3  4  1  0
  5  4  1  0
  6 10  1  0
  5  6  1  1
  7  6  2  0
  9 11  1  0
  9  8  1  6
  9 10  1  0
 11 13  1  0
 12 11  2  0
 13 14  1  0
 14 15  1  1
 15 16  1  0
 16 17  1  0
 18 17  1  0
 19 18  1  0
 20 14  1  0
 21 20  2  0
 22 20  1  0
M  END
$$$$
