VGT.pdb
     RDKit          3D

 19 18  0  0  1  0  0  0  0  0999 V2000
    8.6583  -13.3319   17.7813 C   0  0  0  0  0  0  0  0  0  0  0  0
    7.9422  -13.6811   19.0682 C   0  0  2  0  0  0  0  0  0  0  0  0
    7.1659  -12.4875   19.5121 C   0  0  0  0  0  0  0  0  0  0  0  0
    8.8598  -14.2547   20.0994 C   0  0  2  0  0  0  0  0  0  0  0  0
    9.4095  -15.5050   19.6221 N   0  0  0  0  0  0  0  0  0  0  0  0
    8.2361  -14.4578   21.4173 C   0  0  0  0  0  0  0  0  0  0  0  0
    7.7658  -13.4927   22.1050 O   0  0  0  0  0  0  0  0  0  0  0  0
    8.1236  -15.7362   21.9952 N   0  0  0  0  0  0  0  0  0  0  0  0
    7.4630  -15.9305   23.2952 C   0  0  0  0  0  0  0  0  0  0  0  0
    8.1352  -15.1467   24.3492 C   0  0  0  0  0  0  0  0  0  0  0  0
    9.3913  -15.1188   24.3659 O   0  0  0  0  0  0  0  0  0  0  0  0
    6.5096  -11.6777   26.0087 C   0  0  0  0  0  0  0  0  0  0  0  0
    7.0035  -12.7174   26.9605 C   0  0  1  0  0  0  0  0  0  0  0  0
    5.9165  -13.5165   27.3813 O   0  0  0  0  0  0  0  0  0  0  0  0
    8.0452  -13.6347   26.3621 C   0  0  2  0  0  0  0  0  0  0  0  0
    7.4423  -14.4289   25.3368 N   0  0  0  0  0  0  0  0  0  0  0  0
    8.7802  -14.4007   27.3631 C   0  0  0  0  0  0  0  0  0  0  0  0
    8.7926  -15.6529   27.3517 O   0  0  0  0  0  0  0  0  0  0  0  0
    9.4858  -13.7463   28.3556 O   0  0  0  0  0  0  0  0  0  0  0  0
  2  1  1  6
  2  4  1  0
  3  2  1  0
  4  5  1  6
  6  4  1  0
  6  7  2  0
  8  6  1  0
  9  8  1  0
  9 10  1  0
 10 11  2  0
 10 16  1  0
 13 12  1  6
 13 15  1  0
 14 13  1  0
 15 17  1  0
 15 16  1  6
 17 18  2  0
 17 19  1  0
M  END
$$$$
