VGT.pdb
     RDKit          3D

 19 18  0  0  1  0  0  0  0  0999 V2000
    7.7103  -12.0454   27.3027 C   0  0  0  0  0  0  0  0  0  0  0  0
    6.8652  -12.8749   26.3600 C   0  0  2  0  0  0  0  0  0  0  0  0
    5.4321  -12.6933   26.7315 C   0  0  0  0  0  0  0  0  0  0  0  0
    7.3198  -14.2966   26.2802 C   0  0  2  0  0  0  0  0  0  0  0  0
    8.7408  -14.3402   26.0122 N   0  0  0  0  0  0  0  0  0  0  0  0
    6.6014  -15.1056   25.2818 C   0  0  0  0  0  0  0  0  0  0  0  0
    5.5466  -15.7622   25.5675 O   0  0  0  0  0  0  0  0  0  0  0  0
    7.0417  -15.1999   23.9483 N   0  0  0  0  0  0  0  0  0  0  0  0
    6.2891  -15.9741   22.9492 C   0  0  0  0  0  0  0  0  0  0  0  0
    6.9522  -15.9189   21.6323 C   0  0  0  0  0  0  0  0  0  0  0  0
    6.4274  -16.5351   20.6711 O   0  0  0  0  0  0  0  0  0  0  0  0
    7.2989  -13.0828   19.7615 C   0  0  0  0  0  0  0  0  0  0  0  0
    8.6829  -13.6369   19.6692 C   0  0  1  0  0  0  0  0  0  0  0  0
    9.5483  -12.8628   20.4747 O   0  0  0  0  0  0  0  0  0  0  0  0
    8.7878  -15.0732   20.1285 C   0  0  2  0  0  0  0  0  0  0  0  0
    8.1419  -15.2119   21.3970 N   0  0  0  0  0  0  0  0  0  0  0  0
   10.1508  -15.5923   20.0868 C   0  0  0  0  0  0  0  0  0  0  0  0
   10.7276  -16.0041   21.1192 O   0  0  0  0  0  0  0  0  0  0  0  0
   10.8381  -15.6386   18.8882 O   0  0  0  0  0  0  0  0  0  0  0  0
  2  1  1  1
  2  4  1  0
  3  2  1  0
  4  5  1  6
  6  4  1  0
  6  7  2  0
  8  6  1  0
  9  8  1  0
  9 10  1  0
 10 11  2  0
 10 16  1  0
 13 12  1  1
 13 15  1  0
 14 13  1  0
 15 17  1  0
 15 16  1  1
 17 18  2  0
 17 19  1  0
M  END
$$$$
