VGT.pdb
     RDKit          3D

 19 18  0  0  1  0  0  0  0  0999 V2000
    6.3522  -13.4377   18.9249 C   0  0  0  0  0  0  0  0  0  0  0  0
    7.7406  -13.5723   19.5123 C   0  0  2  0  0  0  0  0  0  0  0  0
    8.6617  -12.6821   18.7483 C   0  0  0  0  0  0  0  0  0  0  0  0
    8.1844  -14.9957   19.6184 C   0  0  2  0  0  0  0  0  0  0  0  0
    7.1537  -15.7817   20.2610 N   0  0  0  0  0  0  0  0  0  0  0  0
    9.4621  -15.1791   20.3264 C   0  0  0  0  0  0  0  0  0  0  0  0
   10.5889  -15.0045   19.7559 O   0  0  0  0  0  0  0  0  0  0  0  0
    9.5114  -15.5597   21.6805 N   0  0  0  0  0  0  0  0  0  0  0  0
   10.7890  -15.6356   22.4057 C   0  0  0  0  0  0  0  0  0  0  0  0
   10.5772  -16.0672   23.8007 C   0  0  0  0  0  0  0  0  0  0  0  0
   11.5676  -16.1041   24.5732 O   0  0  0  0  0  0  0  0  0  0  0  0
    7.8462  -14.4795   25.9164 C   0  0  0  0  0  0  0  0  0  0  0  0
    7.7535  -15.9631   26.0621 C   0  0  1  0  0  0  0  0  0  0  0  0
    6.7224  -16.4488   25.2265 O   0  0  0  0  0  0  0  0  0  0  0  0
    9.0278  -16.6852   25.6884 C   0  0  2  0  0  0  0  0  0  0  0  0
    9.3235  -16.4395   24.3108 N   0  0  0  0  0  0  0  0  0  0  0  0
    9.0195  -18.0961   26.0601 C   0  0  0  0  0  0  0  0  0  0  0  0
    9.1284  -19.0012   25.2015 O   0  0  0  0  0  0  0  0  0  0  0  0
    8.8894  -18.4622   27.3868 O   0  0  0  0  0  0  0  0  0  0  0  0
  2  1  1  6
  2  4  1  0
  3  2  1  0
  4  5  1  1
  6  4  1  0
  6  7  2  0
  8  6  1  0
  9  8  1  0
  9 10  1  0
 10 11  2  0
 10 16  1  0
 13 12  1  6
 13 15  1  0
 14 13  1  0
 15 17  1  0
 15 16  1  6
 17 18  2  0
 17 19  1  0
M  END
$$$$
