VGT.pdb
     RDKit          3D

 19 18  0  0  1  0  0  0  0  0999 V2000
    8.7352  -59.2206   80.7674 C   0  0  0  0  0  0  0  0  0  0  0  0
    7.7303  -60.3447   80.6351 C   0  0  2  0  0  0  0  0  0  0  0  0
    7.8648  -61.2366   81.8230 C   0  0  0  0  0  0  0  0  0  0  0  0
    7.8143  -61.0386   79.3139 C   0  0  2  0  0  0  0  0  0  0  0  0
    6.4938  -61.1409   78.7317 N   0  0  0  0  0  0  0  0  0  0  0  0
    8.4366  -62.3716   79.3700 C   0  0  0  0  0  0  0  0  0  0  0  0
    9.3034  -62.7558   78.5176 O   0  0  0  0  0  0  0  0  0  0  0  0
    8.1074  -63.3018   80.3736 N   0  0  0  0  0  0  0  0  0  0  0  0
    9.0217  -64.3988   80.7267 C   0  0  0  0  0  0  0  0  0  0  0  0
    8.2715  -65.5744   81.2087 C   0  0  0  0  0  0  0  0  0  0  0  0
    7.8347  -66.3943   80.3627 O   0  0  0  0  0  0  0  0  0  0  0  0
    9.9212  -67.7975   84.4319 C   0  0  0  0  0  0  0  0  0  0  0  0
    8.8497  -66.7722   84.6096 C   0  0  1  0  0  0  0  0  0  0  0  0
    8.9294  -66.2380   85.9155 O   0  0  0  0  0  0  0  0  0  0  0  0
    8.9500  -65.6218   83.6343 C   0  0  2  0  0  0  0  0  0  0  0  0
    8.0200  -65.8249   82.5669 N   0  0  0  0  0  0  0  0  0  0  0  0
   10.3168  -65.3540   83.1993 C   0  0  0  0  0  0  0  0  0  0  0  0
   10.8176  -64.2089   83.2778 O   0  0  0  0  0  0  0  0  0  0  0  0
   11.0930  -66.3761   82.6857 O   0  0  0  0  0  0  0  0  0  0  0  0
  2  1  1  6
  2  4  1  0
  3  2  1  0
  4  5  1  1
  6  4  1  0
  6  7  2  0
  8  6  1  0
  9  8  1  0
  9 10  1  0
 10 11  2  0
 10 16  1  0
 13 12  1  6
 13 15  1  0
 14 13  1  0
 15 17  1  0
 15 16  1  6
 17 18  2  0
 17 19  1  0
M  END
$$$$
