VGT.pdb
     RDKit          3D

 19 18  0  0  1  0  0  0  0  0999 V2000
    8.0933  -12.5221   20.5216 C   0  0  0  0  0  0  0  0  0  0  0  0
    7.6945  -13.6728   19.6228 C   0  0  2  0  0  0  0  0  0  0  0  0
    6.4450  -13.2938   18.9019 C   0  0  0  0  0  0  0  0  0  0  0  0
    7.6304  -14.9762   20.3517 C   0  0  2  0  0  0  0  0  0  0  0  0
    6.5596  -14.9395   21.3239 N   0  0  0  0  0  0  0  0  0  0  0  0
    8.8881  -15.3612   21.0130 C   0  0  0  0  0  0  0  0  0  0  0  0
    9.8888  -15.8126   20.3648 O   0  0  0  0  0  0  0  0  0  0  0  0
    9.0568  -15.2517   22.4060 N   0  0  0  0  0  0  0  0  0  0  0  0
   10.3414  -15.5735   23.0466 C   0  0  0  0  0  0  0  0  0  0  0  0
   10.2929  -15.2911   24.4940 C   0  0  0  0  0  0  0  0  0  0  0  0
   11.3503  -15.4078   25.1628 O   0  0  0  0  0  0  0  0  0  0  0  0
    8.0933  -12.2850   26.1660 C   0  0  0  0  0  0  0  0  0  0  0  0
    7.8784  -13.6308   26.7773 C   0  0  1  0  0  0  0  0  0  0  0  0
    6.7216  -14.2172   26.2158 O   0  0  0  0  0  0  0  0  0  0  0  0
    9.0312  -14.5831   26.5563 C   0  0  2  0  0  0  0  0  0  0  0  0
    9.1238  -14.8977   25.1641 N   0  0  0  0  0  0  0  0  0  0  0  0
    8.9925  -15.7469   27.4354 C   0  0  0  0  0  0  0  0  0  0  0  0
    8.8690  -16.9077   26.9818 O   0  0  0  0  0  0  0  0  0  0  0  0
    9.0932  -15.5846   28.8045 O   0  0  0  0  0  0  0  0  0  0  0  0
  2  1  1  1
  2  4  1  0
  3  2  1  0
  4  5  1  1
  6  4  1  0
  6  7  2  0
  8  6  1  0
  9  8  1  0
  9 10  1  0
 10 11  2  0
 10 16  1  0
 13 12  1  6
 13 15  1  0
 14 13  1  0
 15 17  1  0
 15 16  1  6
 17 18  2  0
 17 19  1  0
M  END
$$$$
