VGT.pdb
     RDKit          3D

 19 18  0  0  1  0  0  0  0  0999 V2000
    6.9090  -12.7652   20.7940 C   0  0  0  0  0  0  0  0  0  0  0  0
    8.2269  -13.3261   20.3048 C   0  0  2  0  0  0  0  0  0  0  0  0
    8.4622  -12.8299   18.9181 C   0  0  0  0  0  0  0  0  0  0  0  0
    8.3160  -14.8094   20.4666 C   0  0  2  0  0  0  0  0  0  0  0  0
    7.4813  -15.4589   19.4793 N   0  0  0  0  0  0  0  0  0  0  0  0
    7.9619  -15.2929   21.8112 C   0  0  0  0  0  0  0  0  0  0  0  0
    6.8044  -15.7498   22.0886 O   0  0  0  0  0  0  0  0  0  0  0  0
    8.8869  -15.2776   22.8719 N   0  0  0  0  0  0  0  0  0  0  0  0
    8.4998  -15.6963   24.2280 C   0  0  0  0  0  0  0  0  0  0  0  0
    9.6537  -15.6389   25.1458 C   0  0  0  0  0  0  0  0  0  0  0  0
   10.8080  -15.5757   24.6535 O   0  0  0  0  0  0  0  0  0  0  0  0
   10.2721  -13.1137   27.7963 C   0  0  0  0  0  0  0  0  0  0  0  0
   10.3618  -14.4541   28.4492 C   0  0  1  0  0  0  0  0  0  0  0  0
    9.1488  -14.7260   29.1213 O   0  0  0  0  0  0  0  0  0  0  0  0
   10.6118  -15.5824   27.4749 C   0  0  2  0  0  0  0  0  0  0  0  0
    9.5283  -15.6513   26.5439 N   0  0  0  0  0  0  0  0  0  0  0  0
   10.9250  -16.8484   28.1291 C   0  0  0  0  0  0  0  0  0  0  0  0
   10.1912  -17.8544   27.9963 O   0  0  0  0  0  0  0  0  0  0  0  0
   12.0545  -16.9595   28.9184 O   0  0  0  0  0  0  0  0  0  0  0  0
  2  1  1  6
  2  4  1  0
  3  2  1  0
  4  5  1  6
  6  4  1  0
  6  7  2  0
  8  6  1  0
  9  8  1  0
  9 10  1  0
 10 11  2  0
 10 16  1  0
 13 12  1  6
 13 15  1  0
 14 13  1  0
 15 17  1  0
 15 16  1  1
 17 18  2  0
 17 19  1  0
M  END
$$$$
