MPS.pdb
     RDKit          3D

 22 22  0  0  1  0  0  0  0  0999 V2000
   14.9101  -12.7867  -15.5821 C   0  0  0  0  0  0  0  0  0  0  0  0
   15.2219  -11.6645  -16.9797 S   0  0  0  0  0  0  0  0  0  0  0  0
   16.8637  -12.0399  -17.6911 C   0  0  0  0  0  0  0  0  0  0  0  0
   17.8546  -11.1805  -16.9668 C   0  0  0  0  0  0  0  0  0  0  0  0
   19.2321  -11.7902  -16.8586 C   0  0  2  0  0  0  0  0  0  0  0  0
   19.2162  -12.9080  -15.9810 N   0  0  0  0  0  0  0  0  0  0  0  0
   20.1961  -10.7427  -16.4699 C   0  0  0  0  0  0  0  0  0  0  0  0
   20.2416  -10.5061  -15.2118 O   0  0  0  0  0  0  0  0  0  0  0  0
   21.0363  -10.0081  -17.3211 N   0  0  0  0  0  0  0  0  0  0  0  0
   21.1596  -10.1193  -18.7529 C   0  0  0  0  0  0  0  0  0  0  0  0
   22.6235   -9.6840  -18.9659 C   0  0  0  0  0  0  0  0  0  0  0  0
   22.6341   -8.4404  -18.1136 C   0  0  0  0  0  0  0  0  0  0  0  0
   21.9648   -8.9870  -16.8457 C   0  0  1  0  0  0  0  0  0  0  0  0
   21.2820   -7.8681  -16.1706 C   0  0  0  0  0  0  0  0  0  0  0  0
   20.1308   -7.5757  -16.5830 O   0  0  0  0  0  0  0  0  0  0  0  0
   22.5217   -6.1544  -12.7587 O   0  0  0  0  0  0  0  0  0  0  0  0
   21.1777   -5.8849  -13.0672 C   0  0  0  0  0  0  0  0  0  0  0  0
   21.0761   -5.9341  -14.5752 C   0  0  2  0  0  0  0  0  0  0  0  0
   21.8056   -7.0979  -15.1032 N   0  0  0  0  0  0  0  0  0  0  0  0
   21.7228   -4.7175  -15.1104 C   0  0  0  0  0  0  0  0  0  0  0  0
   22.8063   -4.7687  -15.7488 O   0  0  0  0  0  0  0  0  0  0  0  0
   21.1700   -3.4561  -14.9372 O   0  0  0  0  0  0  0  0  0  0  0  0
  2  1  1  0
  3  2  1  0
  4  3  1  0
  4  5  1  0
  5  6  1  1
  7  9  1  0
  7  5  1  0
  8  7  2  0
  9 13  1  0
 10  9  1  0
 10 11  1  0
 11 12  1  0
 13 12  1  0
 13 14  1  6
 14 19  1  0
 14 15  2  0
 17 16  1  0
 18 17  1  1
 18 20  1  0
 19 18  1  0
 20 22  1  0
 21 20  2  0
M  END
$$$$
