MPS.pdb
     RDKit          3D

 22 22  0  0  1  0  0  0  0  0999 V2000
   26.0825  -16.9946  -16.5940 C   0  0  0  0  0  0  0  0  0  0  0  0
   27.5125  -16.7227  -15.5025 S   0  0  0  0  0  0  0  0  0  0  0  0
   28.0684  -18.3319  -14.8360 C   0  0  0  0  0  0  0  0  0  0  0  0
   26.8329  -19.1251  -14.5373 C   0  0  0  0  0  0  0  0  0  0  0  0
   27.1073  -20.4992  -13.9738 C   0  0  2  0  0  0  0  0  0  0  0  0
   27.6225  -21.3587  -14.9816 N   0  0  0  0  0  0  0  0  0  0  0  0
   25.8840  -21.0098  -13.3252 C   0  0  0  0  0  0  0  0  0  0  0  0
   25.1534  -21.7449  -14.0780 O   0  0  0  0  0  0  0  0  0  0  0  0
   25.4626  -20.7717  -12.0077 N   0  0  0  0  0  0  0  0  0  0  0  0
   26.1734  -20.0765  -10.9642 C   0  0  0  0  0  0  0  0  0  0  0  0
   25.6148  -20.7678   -9.7041 C   0  0  0  0  0  0  0  0  0  0  0  0
   24.1442  -20.7224  -10.0333 C   0  0  0  0  0  0  0  0  0  0  0  0
   24.1841  -21.2366  -11.4784 C   0  0  1  0  0  0  0  0  0  0  0  0
   23.0302  -20.6668  -12.1982 C   0  0  0  0  0  0  0  0  0  0  0  0
   23.1136  -19.4584  -12.5352 O   0  0  0  0  0  0  0  0  0  0  0  0
   20.1431  -22.9021  -13.7569 O   0  0  0  0  0  0  0  0  0  0  0  0
   20.2339  -21.6417  -14.3709 C   0  0  0  0  0  0  0  0  0  0  0  0
   20.7784  -20.7016  -13.3190 C   0  0  2  0  0  0  0  0  0  0  0  0
   21.8423  -21.3576  -12.5425 N   0  0  0  0  0  0  0  0  0  0  0  0
   19.6761  -20.3795  -12.3884 C   0  0  0  0  0  0  0  0  0  0  0  0
   19.7050  -20.7297  -11.1798 O   0  0  0  0  0  0  0  0  0  0  0  0
   18.5524  -19.6749  -12.7979 O   0  0  0  0  0  0  0  0  0  0  0  0
  2  1  1  0
  3  2  1  0
  4  3  1  0
  4  5  1  0
  5  6  1  6
  7  9  1  0
  7  5  1  0
  8  7  2  0
  9 13  1  0
 10  9  1  0
 10 11  1  0
 11 12  1  0
 13 12  1  0
 13 14  1  6
 14 19  1  0
 14 15  2  0
 17 16  1  0
 18 17  1  6
 18 20  1  0
 19 18  1  0
 20 22  1  0
 21 20  2  0
M  END
$$$$
