MPS.pdb
     RDKit          3D

 22 22  0  0  1  0  0  0  0  0999 V2000
   26.3846  -15.9578  -14.6921 C   0  0  0  0  0  0  0  0  0  0  0  0
   27.5431  -16.4581  -16.0026 S   0  0  0  0  0  0  0  0  0  0  0  0
   28.1663  -18.1378  -15.6383 C   0  0  0  0  0  0  0  0  0  0  0  0
   27.0058  -18.9227  -15.1073 C   0  0  0  0  0  0  0  0  0  0  0  0
   27.3751  -20.2961  -14.5988 C   0  0  2  0  0  0  0  0  0  0  0  0
   27.9065  -21.0917  -15.6497 N   0  0  0  0  0  0  0  0  0  0  0  0
   26.2036  -20.8969  -13.9322 C   0  0  0  0  0  0  0  0  0  0  0  0
   25.4657  -21.6092  -14.6997 O   0  0  0  0  0  0  0  0  0  0  0  0
   25.8366  -20.7636  -12.5840 N   0  0  0  0  0  0  0  0  0  0  0  0
   26.5713  -20.1136  -11.5280 C   0  0  0  0  0  0  0  0  0  0  0  0
   26.0969  -20.9083  -10.2947 C   0  0  0  0  0  0  0  0  0  0  0  0
   24.6117  -20.8963  -10.5541 C   0  0  0  0  0  0  0  0  0  0  0  0
   24.6012  -21.3107  -12.0314 C   0  0  1  0  0  0  0  0  0  0  0  0
   23.3958  -20.7379  -12.6582 C   0  0  0  0  0  0  0  0  0  0  0  0
   23.3746  -19.4898  -12.8085 O   0  0  0  0  0  0  0  0  0  0  0  0
   20.6587  -22.9590  -14.4473 O   0  0  0  0  0  0  0  0  0  0  0  0
   20.5739  -21.6224  -14.8720 C   0  0  0  0  0  0  0  0  0  0  0  0
   21.1244  -20.7869  -13.7382 C   0  0  2  0  0  0  0  0  0  0  0  0
   22.2657  -21.4661  -13.1045 N   0  0  0  0  0  0  0  0  0  0  0  0
   20.0608  -20.6510  -12.7208 C   0  0  0  0  0  0  0  0  0  0  0  0
   20.1628  -21.1749  -11.5809 O   0  0  0  0  0  0  0  0  0  0  0  0
   18.8950  -19.9396  -12.9688 O   0  0  0  0  0  0  0  0  0  0  0  0
  2  1  1  0
  3  2  1  0
  4  3  1  0
  4  5  1  0
  5  6  1  6
  7  9  1  0
  7  5  1  0
  8  7  2  0
  9 13  1  0
 10  9  1  0
 10 11  1  0
 11 12  1  0
 13 12  1  0
 13 14  1  6
 14 19  1  0
 14 15  2  0
 17 16  1  0
 18 17  1  6
 18 20  1  0
 19 18  1  0
 20 22  1  0
 21 20  2  0
M  END
$$$$
