MPS.pdb
     RDKit          3D

 22 22  0  0  1  0  0  0  0  0999 V2000
   14.7665  -11.5875    9.9846 C   0  0  0  0  0  0  0  0  0  0  0  0
   14.2267  -13.0844    9.1028 S   0  0  0  0  0  0  0  0  0  0  0  0
   15.0029  -13.1139    7.4476 C   0  0  0  0  0  0  0  0  0  0  0  0
   16.4384  -13.4917    7.6510 C   0  0  0  0  0  0  0  0  0  0  0  0
   17.2339  -13.5914    6.3710 C   0  0  2  0  0  0  0  0  0  0  0  0
   16.7859  -14.6901    5.5887 N   0  0  0  0  0  0  0  0  0  0  0  0
   18.6722  -13.6410    6.6973 C   0  0  0  0  0  0  0  0  0  0  0  0
   19.2238  -14.7776    6.4857 O   0  0  0  0  0  0  0  0  0  0  0  0
   19.4621  -12.5957    7.2007 N   0  0  0  0  0  0  0  0  0  0  0  0
   19.0683  -11.2320    7.4516 C   0  0  0  0  0  0  0  0  0  0  0  0
   20.4041  -10.4886    7.2502 C   0  0  0  0  0  0  0  0  0  0  0  0
   21.3030  -11.3759    8.0736 C   0  0  0  0  0  0  0  0  0  0  0  0
   20.8733  -12.7492    7.5409 C   0  0  1  0  0  0  0  0  0  0  0  0
   21.0958  -13.7430    8.6072 C   0  0  0  0  0  0  0  0  0  0  0  0
   20.1158  -14.0058    9.3497 O   0  0  0  0  0  0  0  0  0  0  0  0
   22.8100  -17.2795    8.7248 O   0  0  0  0  0  0  0  0  0  0  0  0
   23.4292  -16.4509    9.6755 C   0  0  0  0  0  0  0  0  0  0  0  0
   22.4303  -15.3615    9.9955 C   0  0  2  0  0  0  0  0  0  0  0  0
   22.3100  -14.4248    8.8670 N   0  0  0  0  0  0  0  0  0  0  0  0
   22.9457  -14.6040   11.1554 C   0  0  0  0  0  0  0  0  0  0  0  0
   23.7115  -13.6152   11.0143 O   0  0  0  0  0  0  0  0  0  0  0  0
   22.6128  -14.9431   12.4597 O   0  0  0  0  0  0  0  0  0  0  0  0
  2  1  1  0
  3  2  1  0
  4  3  1  0
  4  5  1  0
  5  6  1  1
  7  9  1  0
  7  5  1  0
  8  7  2  0
  9 13  1  0
 10  9  1  0
 10 11  1  0
 11 12  1  0
 13 12  1  0
 13 14  1  1
 14 19  1  0
 14 15  2  0
 17 16  1  0
 18 17  1  6
 18 20  1  0
 19 18  1  0
 20 22  1  0
 21 20  2  0
M  END
$$$$
