MPS.pdb
     RDKit          3D

 22 22  0  0  1  0  0  0  0  0999 V2000
   21.4592  -12.9584    6.9353 C   0  0  0  0  0  0  0  0  0  0  0  0
   19.7992  -12.2298    6.7825 S   0  0  0  0  0  0  0  0  0  0  0  0
   18.9090  -13.0560    5.4158 C   0  0  0  0  0  0  0  0  0  0  0  0
   17.5155  -12.5054    5.4135 C   0  0  0  0  0  0  0  0  0  0  0  0
   16.6141  -13.1214    4.3699 C   0  0  2  0  0  0  0  0  0  0  0  0
   15.3260  -12.5218    4.4057 N   0  0  0  0  0  0  0  0  0  0  0  0
   16.5936  -14.5858    4.5512 C   0  0  0  0  0  0  0  0  0  0  0  0
   15.9957  -14.9790    5.6136 O   0  0  0  0  0  0  0  0  0  0  0  0
   17.1496  -15.5517    3.6981 N   0  0  0  0  0  0  0  0  0  0  0  0
   17.9485  -15.3343    2.5182 C   0  0  0  0  0  0  0  0  0  0  0  0
   17.6083  -16.5873    1.6864 C   0  0  0  0  0  0  0  0  0  0  0  0
   17.7718  -17.6397    2.7536 C   0  0  0  0  0  0  0  0  0  0  0  0
   16.9703  -16.9879    3.8881 C   0  0  1  0  0  0  0  0  0  0  0  0
   17.5217  -17.4646    5.1697 C   0  0  0  0  0  0  0  0  0  0  0  0
   18.3798  -16.7320    5.7244 O   0  0  0  0  0  0  0  0  0  0  0  0
   17.4668  -19.3612    9.3915 O   0  0  0  0  0  0  0  0  0  0  0  0
   16.7582  -19.1369    8.1992 C   0  0  0  0  0  0  0  0  0  0  0  0
   17.7977  -19.0485    7.1045 C   0  0  2  0  0  0  0  0  0  0  0  0
   17.1712  -18.6689    5.8283 N   0  0  0  0  0  0  0  0  0  0  0  0
   18.3875  -20.3930    6.9334 C   0  0  0  0  0  0  0  0  0  0  0  0
   17.9256  -21.2189    6.1035 O   0  0  0  0  0  0  0  0  0  0  0  0
   19.4802  -20.8150    7.6781 O   0  0  0  0  0  0  0  0  0  0  0  0
  2  1  1  0
  3  2  1  0
  4  3  1  0
  4  5  1  0
  5  6  1  1
  7  9  1  0
  7  5  1  0
  8  7  2  0
  9 13  1  0
 10  9  1  0
 10 11  1  0
 11 12  1  0
 13 12  1  0
 13 14  1  1
 14 19  1  0
 14 15  2  0
 17 16  1  0
 18 17  1  1
 18 20  1  0
 19 18  1  0
 20 22  1  0
 21 20  2  0
M  END
$$$$
