MPS.pdb
     RDKit          3D

 22 22  0  0  1  0  0  0  0  0999 V2000
   20.5458  -12.0389  -21.1100 C   0  0  0  0  0  0  0  0  0  0  0  0
   21.5587  -13.5427  -21.2598 S   0  0  0  0  0  0  0  0  0  0  0  0
   21.7398  -14.3065  -19.6086 C   0  0  0  0  0  0  0  0  0  0  0  0
   21.3604  -13.2603  -18.6054 C   0  0  0  0  0  0  0  0  0  0  0  0
   21.4278  -13.7316  -17.1720 C   0  0  2  0  0  0  0  0  0  0  0  0
   20.4622  -14.7470  -16.9341 N   0  0  0  0  0  0  0  0  0  0  0  0
   21.3010  -12.5681  -16.2732 C   0  0  0  0  0  0  0  0  0  0  0  0
   20.0935  -12.2459  -15.9920 O   0  0  0  0  0  0  0  0  0  0  0  0
   22.3438  -11.8093  -15.7193 N   0  0  0  0  0  0  0  0  0  0  0  0
   23.7626  -12.0201  -15.8616 C   0  0  0  0  0  0  0  0  0  0  0  0
   24.2910  -11.4313  -14.5381 C   0  0  0  0  0  0  0  0  0  0  0  0
   23.5285  -10.1307  -14.5287 C   0  0  0  0  0  0  0  0  0  0  0  0
   22.1232  -10.6494  -14.8609 C   0  0  1  0  0  0  0  0  0  0  0  0
   21.3869   -9.5694  -15.5433 C   0  0  0  0  0  0  0  0  0  0  0  0
   21.6354   -9.3982  -16.7638 O   0  0  0  0  0  0  0  0  0  0  0  0
   18.2646   -7.7000  -13.9383 O   0  0  0  0  0  0  0  0  0  0  0  0
   18.2999   -7.5595  -15.3358 C   0  0  0  0  0  0  0  0  0  0  0  0
   19.7560   -7.6633  -15.7304 C   0  0  2  0  0  0  0  0  0  0  0  0
   20.4285   -8.7127  -14.9481 N   0  0  0  0  0  0  0  0  0  0  0  0
   20.4041   -6.3753  -15.4053 C   0  0  0  0  0  0  0  0  0  0  0  0
   20.1212   -5.3160  -16.0235 O   0  0  0  0  0  0  0  0  0  0  0  0
   21.3576   -6.2663  -14.4025 O   0  0  0  0  0  0  0  0  0  0  0  0
  2  1  1  0
  3  2  1  0
  4  3  1  0
  4  5  1  0
  5  6  1  1
  7  9  1  0
  7  5  1  0
  8  7  2  0
  9 13  1  0
 10  9  1  0
 10 11  1  0
 11 12  1  0
 13 12  1  0
 13 14  1  6
 14 19  1  0
 14 15  2  0
 17 16  1  0
 18 17  1  1
 18 20  1  0
 19 18  1  0
 20 22  1  0
 21 20  2  0
M  END
$$$$
