MPS.pdb
     RDKit          3D

 22 22  0  0  1  0  0  0  0  0999 V2000
   20.9302  -22.4244   -9.6534 C   0  0  0  0  0  0  0  0  0  0  0  0
   21.6075  -21.3436   -8.3560 S   0  0  0  0  0  0  0  0  0  0  0  0
   23.4118  -21.1775   -8.6003 C   0  0  0  0  0  0  0  0  0  0  0  0
   23.6106  -20.5992   -9.9681 C   0  0  0  0  0  0  0  0  0  0  0  0
   25.0524  -20.5657  -10.4165 C   0  0  2  0  0  0  0  0  0  0  0  0
   25.8230  -19.7343   -9.5592 N   0  0  0  0  0  0  0  0  0  0  0  0
   25.1087  -20.1696  -11.8370 C   0  0  0  0  0  0  0  0  0  0  0  0
   24.7450  -18.9626  -12.0644 O   0  0  0  0  0  0  0  0  0  0  0  0
   25.5086  -20.9653  -12.9219 N   0  0  0  0  0  0  0  0  0  0  0  0
   25.8891  -22.3554  -12.9058 C   0  0  0  0  0  0  0  0  0  0  0  0
   26.8673  -22.4160  -14.0962 C   0  0  0  0  0  0  0  0  0  0  0  0
   26.0476  -21.6759  -15.1226 C   0  0  0  0  0  0  0  0  0  0  0  0
   25.6177  -20.4623  -14.2879 C   0  0  1  0  0  0  0  0  0  0  0  0
   24.3311  -19.9753  -14.8185 C   0  0  0  0  0  0  0  0  0  0  0  0
   23.2935  -20.5542  -14.4073 O   0  0  0  0  0  0  0  0  0  0  0  0
   24.1495  -17.0338  -17.4237 O   0  0  0  0  0  0  0  0  0  0  0  0
   22.8655  -17.1658  -16.8688 C   0  0  0  0  0  0  0  0  0  0  0  0
   22.8252  -18.5346  -16.2272 C   0  0  2  0  0  0  0  0  0  0  0  0
   24.1618  -18.9174  -15.7453 N   0  0  0  0  0  0  0  0  0  0  0  0
   22.4260  -19.5076  -17.2657 C   0  0  0  0  0  0  0  0  0  0  0  0
   23.2770  -20.1418  -17.9423 O   0  0  0  0  0  0  0  0  0  0  0  0
   21.0932  -19.7727  -17.5492 O   0  0  0  0  0  0  0  0  0  0  0  0
  2  1  1  0
  3  2  1  0
  4  3  1  0
  4  5  1  0
  5  6  1  1
  7  9  1  0
  7  5  1  0
  8  7  2  0
  9 13  1  0
 10  9  1  0
 10 11  1  0
 11 12  1  0
 13 12  1  0
 13 14  1  6
 14 19  1  0
 14 15  2  0
 17 16  1  0
 18 17  1  6
 18 20  1  0
 19 18  1  0
 20 22  1  0
 21 20  2  0
M  END
$$$$
