FVQ.pdb
     RDKit          3D

 28 28  0  0  1  0  0  0  0  0999 V2000
    6.4609  -17.0468   25.0710 N   0  0  0  0  0  0  0  0  0  0  0  0
    6.8988  -15.7573   24.6282 C   0  0  1  0  0  0  0  0  0  0  0  0
    8.0849  -15.3147   25.4555 C   0  0  0  0  0  0  0  0  0  0  0  0
    7.9140  -13.9863   26.0869 C   0  0  0  0  0  0  0  0  0  0  0  0
    8.9224  -13.2418   26.6078 C   0  0  0  0  0  0  0  0  0  0  0  0
    8.7145  -11.9888   27.1872 C   0  0  0  0  0  0  0  0  0  0  0  0
    7.4441  -11.4935   27.2305 C   0  0  0  0  0  0  0  0  0  0  0  0
    6.3999  -12.2395   26.7036 C   0  0  0  0  0  0  0  0  0  0  0  0
    6.6180  -13.4717   26.1350 C   0  0  0  0  0  0  0  0  0  0  0  0
    7.3984  -15.8394   23.2200 C   0  0  0  0  0  0  0  0  0  0  0  0
    7.6919  -16.9526   22.7511 O   0  0  0  0  0  0  0  0  0  0  0  0
    8.0457  -13.4243   18.9177 C   0  0  0  0  0  0  0  0  0  0  0  0
    7.8165  -13.3154   20.4201 C   0  0  2  0  0  0  0  0  0  0  0  0
    8.6529  -12.2269   21.0060 C   0  0  0  0  0  0  0  0  0  0  0  0
    7.9072  -14.6420   21.0645 C   0  0  2  0  0  0  0  0  0  0  0  0
    7.5309  -14.6586   22.4331 N   0  0  0  0  0  0  0  0  0  0  0  0
    9.1590  -15.4045   20.7978 C   0  0  0  0  0  0  0  0  0  0  0  0
    9.4802  -15.7846   19.6420 O   0  0  0  0  0  0  0  0  0  0  0  0
   14.8193  -13.6524   19.4896 N   0  0  0  0  0  0  0  0  0  0  0  0
   14.1934  -14.9081   19.1906 C   0  0  0  0  0  0  0  0  0  0  0  0
   14.2528  -15.2196   17.9546 O   0  0  0  0  0  0  0  0  0  0  0  0
   13.5502  -15.7412   20.2244 C   0  0  0  0  0  0  0  0  0  0  0  0
   12.1760  -15.3160   20.6083 C   0  0  0  0  0  0  0  0  0  0  0  0
   11.4217  -16.1901   21.5230 C   0  0  2  0  0  0  0  0  0  0  0  0
   10.0783  -15.7649   21.8522 N   0  0  0  0  0  0  0  0  0  0  0  0
   12.1981  -16.5878   22.7536 C   0  0  0  0  0  0  0  0  0  0  0  0
   13.4724  -17.1135   22.7277 O   0  0  0  0  0  0  0  0  0  0  0  0
   11.6387  -16.4274   23.8572 O   0  0  0  0  0  0  0  0  0  0  0  0
  2  1  1  1
  2 10  1  0
  2  3  1  0
  4  9  2  0
  4  3  1  0
  5  4  1  0
  6  7  1  0
  6  5  2  0
  7  8  2  0
  8  9  1  0
 10 11  2  0
 13 12  1  6
 14 13  1  0
 15 13  1  0
 15 16  1  1
 16 10  1  0
 17 18  2  0
 17 15  1  0
 19 20  1  0
 20 21  2  0
 22 20  1  0
 22 23  1  0
 24 23  1  1
 24 26  1  0
 24 25  1  0
 25 17  1  0
 26 27  1  0
 28 26  2  0
M  END
$$$$
