FVQ.pdb
     RDKit          3D

 28 28  0  0  1  0  0  0  0  0999 V2000
    5.7278  -17.9340   25.4511 N   0  0  0  0  0  0  0  0  0  0  0  0
    6.1492  -16.5830   25.2316 C   0  0  1  0  0  0  0  0  0  0  0  0
    6.8491  -16.0647   26.4679 C   0  0  0  0  0  0  0  0  0  0  0  0
    6.8387  -14.5889   26.5891 C   0  0  0  0  0  0  0  0  0  0  0  0
    5.7183  -13.8233   26.6225 C   0  0  0  0  0  0  0  0  0  0  0  0
    5.7570  -12.4334   26.7461 C   0  0  0  0  0  0  0  0  0  0  0  0
    6.9725  -11.8207   26.8371 C   0  0  0  0  0  0  0  0  0  0  0  0
    8.1293  -12.5860   26.8045 C   0  0  0  0  0  0  0  0  0  0  0  0
    8.0776  -13.9540   26.6833 C   0  0  0  0  0  0  0  0  0  0  0  0
    7.1716  -16.5342   24.1400 C   0  0  0  0  0  0  0  0  0  0  0  0
    7.9415  -17.4994   23.9949 O   0  0  0  0  0  0  0  0  0  0  0  0
    6.4359  -14.4505   20.7299 C   0  0  0  0  0  0  0  0  0  0  0  0
    7.8594  -14.2344   21.2288 C   0  0  2  0  0  0  0  0  0  0  0  0
    8.8037  -14.0767   20.0838 C   0  0  0  0  0  0  0  0  0  0  0  0
    8.2177  -15.2392   22.2512 C   0  0  2  0  0  0  0  0  0  0  0  0
    7.2551  -15.3993   23.2821 N   0  0  0  0  0  0  0  0  0  0  0  0
    9.6134  -15.1652   22.7670 C   0  0  0  0  0  0  0  0  0  0  0  0
    9.9563  -14.3491   23.6614 O   0  0  0  0  0  0  0  0  0  0  0  0
   12.7643  -19.6670   26.8490 N   0  0  0  0  0  0  0  0  0  0  0  0
   11.9723  -18.5952   26.3179 C   0  0  0  0  0  0  0  0  0  0  0  0
   10.8517  -18.4539   26.9116 O   0  0  0  0  0  0  0  0  0  0  0  0
   12.4269  -17.7521   25.1958 C   0  0  0  0  0  0  0  0  0  0  0  0
   11.3426  -17.2511   24.3072 C   0  0  0  0  0  0  0  0  0  0  0  0
   11.7350  -16.4381   23.1433 C   0  0  2  0  0  0  0  0  0  0  0  0
   10.6643  -16.0195   22.2645 N   0  0  0  0  0  0  0  0  0  0  0  0
   12.8975  -17.0116   22.3719 C   0  0  0  0  0  0  0  0  0  0  0  0
   14.2149  -16.9022   22.7638 O   0  0  0  0  0  0  0  0  0  0  0  0
   12.6359  -17.6185   21.3138 O   0  0  0  0  0  0  0  0  0  0  0  0
  2  1  1  1
  2 10  1  0
  2  3  1  0
  4  9  2  0
  4  3  1  0
  5  4  1  0
  6  7  1  0
  6  5  2  0
  7  8  2  0
  8  9  1  0
 10 11  2  0
 13 12  1  6
 14 13  1  0
 15 13  1  0
 15 16  1  1
 16 10  1  0
 17 18  2  0
 17 15  1  0
 19 20  1  0
 20 21  2  0
 22 20  1  0
 22 23  1  0
 24 23  1  1
 24 26  1  0
 24 25  1  0
 25 17  1  0
 26 27  1  0
 28 26  2  0
M  END
$$$$
