FVQ.pdb
     RDKit          3D

 28 28  0  0  1  0  0  0  0  0999 V2000
   10.3931  -17.2070   16.1059 N   0  0  0  0  0  0  0  0  0  0  0  0
    9.1720  -17.0795   16.8432 C   0  0  1  0  0  0  0  0  0  0  0  0
    8.6393  -18.4541   17.1804 C   0  0  0  0  0  0  0  0  0  0  0  0
    8.2547  -19.2557   15.9963 C   0  0  0  0  0  0  0  0  0  0  0  0
    8.9197  -20.3544   15.5566 C   0  0  0  0  0  0  0  0  0  0  0  0
    8.5148  -21.0847   14.4379 C   0  0  0  0  0  0  0  0  0  0  0  0
    7.4042  -20.6756   13.7595 C   0  0  0  0  0  0  0  0  0  0  0  0
    6.7110  -19.5547   14.1931 C   0  0  0  0  0  0  0  0  0  0  0  0
    7.1195  -18.8448   15.2967 C   0  0  0  0  0  0  0  0  0  0  0  0
    9.4325  -16.4150   18.1585 C   0  0  0  0  0  0  0  0  0  0  0  0
   10.4929  -16.6644   18.7575 O   0  0  0  0  0  0  0  0  0  0  0  0
    8.3306  -12.7579   21.2692 C   0  0  0  0  0  0  0  0  0  0  0  0
    7.9512  -13.5126   20.0011 C   0  0  2  0  0  0  0  0  0  0  0  0
    6.4699  -13.5314   19.8190 C   0  0  0  0  0  0  0  0  0  0  0  0
    8.6444  -14.8159   19.9363 C   0  0  2  0  0  0  0  0  0  0  0  0
    8.4791  -15.5102   18.7093 N   0  0  0  0  0  0  0  0  0  0  0  0
    8.4778  -15.6952   21.1274 C   0  0  0  0  0  0  0  0  0  0  0  0
    7.8364  -16.7768   21.0790 O   0  0  0  0  0  0  0  0  0  0  0  0
   14.5314  -17.9726   22.3266 N   0  0  0  0  0  0  0  0  0  0  0  0
   13.1426  -18.1370   22.0067 C   0  0  0  0  0  0  0  0  0  0  0  0
   12.9481  -18.7301   20.8938 O   0  0  0  0  0  0  0  0  0  0  0  0
   12.0620  -17.6598   22.8906 C   0  0  0  0  0  0  0  0  0  0  0  0
   11.0774  -16.7495   22.2438 C   0  0  0  0  0  0  0  0  0  0  0  0
    9.9561  -16.2624   23.0653 C   0  0  2  0  0  0  0  0  0  0  0  0
    9.0339  -15.3555   22.4166 N   0  0  0  0  0  0  0  0  0  0  0  0
   10.3789  -15.7527   24.4207 C   0  0  0  0  0  0  0  0  0  0  0  0
   10.4152  -16.5267   25.5611 O   0  0  0  0  0  0  0  0  0  0  0  0
   10.7119  -14.5531   24.5002 O   0  0  0  0  0  0  0  0  0  0  0  0
  2  1  1  6
  2 10  1  0
  2  3  1  0
  4  9  2  0
  4  3  1  0
  5  4  1  0
  6  7  1  0
  6  5  2  0
  7  8  2  0
  8  9  1  0
 10 11  2  0
 13 12  1  1
 14 13  1  0
 15 13  1  0
 15 16  1  6
 16 10  1  0
 17 18  2  0
 17 15  1  0
 19 20  1  0
 20 21  2  0
 22 20  1  0
 22 23  1  0
 24 23  1  6
 24 26  1  0
 24 25  1  0
 25 17  1  0
 26 27  1  0
 28 26  2  0
M  END
$$$$
