FVQ.pdb
     RDKit          3D

 28 28  0  0  1  0  0  0  0  0999 V2000
    6.1838  -17.9547   25.8653 N   0  0  0  0  0  0  0  0  0  0  0  0
    6.5517  -16.6155   25.5159 C   0  0  1  0  0  0  0  0  0  0  0  0
    7.4159  -16.0273   26.6087 C   0  0  0  0  0  0  0  0  0  0  0  0
    7.2937  -14.5579   26.7448 C   0  0  0  0  0  0  0  0  0  0  0  0
    8.3230  -13.7187   27.0258 C   0  0  0  0  0  0  0  0  0  0  0  0
    8.1617  -12.3366   27.1369 C   0  0  0  0  0  0  0  0  0  0  0  0
    6.9167  -11.8090   26.9551 C   0  0  0  0  0  0  0  0  0  0  0  0
    5.8518  -12.6503   26.6674 C   0  0  0  0  0  0  0  0  0  0  0  0
    6.0241  -14.0096   26.5598 C   0  0  0  0  0  0  0  0  0  0  0  0
    7.4052  -16.6207   24.2867 C   0  0  0  0  0  0  0  0  0  0  0  0
    8.0534  -17.6448   24.0104 O   0  0  0  0  0  0  0  0  0  0  0  0
    6.4776  -14.7519   20.8862 C   0  0  0  0  0  0  0  0  0  0  0  0
    7.9023  -14.4049   21.3004 C   0  0  2  0  0  0  0  0  0  0  0  0
    8.7825  -14.2637   20.1034 C   0  0  0  0  0  0  0  0  0  0  0  0
    8.3753  -15.3090   22.3692 C   0  0  2  0  0  0  0  0  0  0  0  0
    7.4680  -15.4696   23.4489 N   0  0  0  0  0  0  0  0  0  0  0  0
    9.7800  -15.0974   22.8183 C   0  0  0  0  0  0  0  0  0  0  0  0
   10.0651  -14.3947   23.8225 O   0  0  0  0  0  0  0  0  0  0  0  0
   10.9087  -19.0509   26.0281 N   0  0  0  0  0  0  0  0  0  0  0  0
   12.2839  -18.6888   25.8389 C   0  0  0  0  0  0  0  0  0  0  0  0
   13.0722  -19.2497   26.6708 O   0  0  0  0  0  0  0  0  0  0  0  0
   12.7220  -17.7581   24.7813 C   0  0  0  0  0  0  0  0  0  0  0  0
   11.6249  -17.1907   23.9501 C   0  0  0  0  0  0  0  0  0  0  0  0
   11.9973  -16.2564   22.8739 C   0  0  2  0  0  0  0  0  0  0  0  0
   10.9047  -15.6778   22.1220 N   0  0  0  0  0  0  0  0  0  0  0  0
   13.0812  -16.7833   21.9667 C   0  0  0  0  0  0  0  0  0  0  0  0
   14.3747  -16.3065   21.9495 O   0  0  0  0  0  0  0  0  0  0  0  0
   12.7729  -17.7069   21.1868 O   0  0  0  0  0  0  0  0  0  0  0  0
  2  1  1  1
  2 10  1  0
  2  3  1  0
  4  9  2  0
  4  3  1  0
  5  4  1  0
  6  7  1  0
  6  5  2  0
  7  8  2  0
  8  9  1  0
 10 11  2  0
 13 12  1  6
 14 13  1  0
 15 13  1  0
 15 16  1  1
 16 10  1  0
 17 18  2  0
 17 15  1  0
 19 20  1  0
 20 21  2  0
 22 20  1  0
 22 23  1  0
 24 23  1  6
 24 26  1  0
 24 25  1  0
 25 17  1  0
 26 27  1  0
 28 26  2  0
M  END
$$$$
