FVQ.pdb
     RDKit          3D

 28 28  0  0  1  0  0  0  0  0999 V2000
    5.4666  -27.0504   20.1019 N   0  0  0  0  0  0  0  0  0  0  0  0
    6.6073  -26.5081   20.7767 C   0  0  1  0  0  0  0  0  0  0  0  0
    7.4356  -27.6340   21.3541 C   0  0  0  0  0  0  0  0  0  0  0  0
    6.7509  -28.3953   22.4237 C   0  0  0  0  0  0  0  0  0  0  0  0
    6.2716  -29.6581   22.2891 C   0  0  0  0  0  0  0  0  0  0  0  0
    5.6389  -30.3405   23.3297 C   0  0  0  0  0  0  0  0  0  0  0  0
    5.4975  -29.7104   24.5314 C   0  0  0  0  0  0  0  0  0  0  0  0
    5.9806  -28.4194   24.6887 C   0  0  0  0  0  0  0  0  0  0  0  0
    6.6025  -27.7586   23.6564 C   0  0  0  0  0  0  0  0  0  0  0  0
    7.5006  -25.8119   19.7986 C   0  0  0  0  0  0  0  0  0  0  0  0
    7.4618  -26.1512   18.6033 O   0  0  0  0  0  0  0  0  0  0  0  0
    8.7683  -21.7381   20.1862 C   0  0  0  0  0  0  0  0  0  0  0  0
    8.7055  -22.6983   19.0047 C   0  0  2  0  0  0  0  0  0  0  0  0
    7.3578  -22.6629   18.3644 C   0  0  0  0  0  0  0  0  0  0  0  0
    9.2279  -24.0290   19.3788 C   0  0  2  0  0  0  0  0  0  0  0  0
    8.3770  -24.7762   20.2347 N   0  0  0  0  0  0  0  0  0  0  0  0
   10.6553  -24.0654   19.8040 C   0  0  0  0  0  0  0  0  0  0  0  0
   11.0030  -23.9062   21.0029 O   0  0  0  0  0  0  0  0  0  0  0  0
   13.2314  -28.7637   17.4807 N   0  0  0  0  0  0  0  0  0  0  0  0
   13.5211  -27.3603   17.5488 C   0  0  0  0  0  0  0  0  0  0  0  0
   13.6094  -26.8073   16.4022 O   0  0  0  0  0  0  0  0  0  0  0  0
   13.6962  -26.6465   18.8279 C   0  0  0  0  0  0  0  0  0  0  0  0
   14.0266  -25.2005   18.7002 C   0  0  0  0  0  0  0  0  0  0  0  0
   13.1047  -24.2325   19.3187 C   0  0  2  0  0  0  0  0  0  0  0  0
   11.7316  -24.2755   18.8638 N   0  0  0  0  0  0  0  0  0  0  0  0
   13.6397  -22.8223   19.3443 C   0  0  0  0  0  0  0  0  0  0  0  0
   14.7867  -22.4424   20.0084 O   0  0  0  0  0  0  0  0  0  0  0  0
   12.9923  -21.9555   18.7232 O   0  0  0  0  0  0  0  0  0  0  0  0
  2  1  1  6
  2 10  1  0
  2  3  1  0
  4  9  2  0
  4  3  1  0
  5  4  1  0
  6  7  1  0
  6  5  2  0
  7  8  2  0
  8  9  1  0
 10 11  2  0
 13 12  1  1
 14 13  1  0
 15 13  1  0
 15 16  1  1
 16 10  1  0
 17 18  2  0
 17 15  1  0
 19 20  1  0
 20 21  2  0
 22 20  1  0
 22 23  1  0
 24 23  1  6
 24 26  1  0
 24 25  1  0
 25 17  1  0
 26 27  1  0
 28 26  2  0
M  END
$$$$
