FVQ.pdb
     RDKit          3D

 28 28  0  0  1  0  0  0  0  0999 V2000
    5.7664  -17.6007   25.7183 N   0  0  0  0  0  0  0  0  0  0  0  0
    6.2465  -16.3037   25.3468 C   0  0  1  0  0  0  0  0  0  0  0  0
    6.9599  -15.6731   26.5218 C   0  0  0  0  0  0  0  0  0  0  0  0
    6.7111  -14.2206   26.6658 C   0  0  0  0  0  0  0  0  0  0  0  0
    5.4881  -13.6591   26.8438 C   0  0  0  0  0  0  0  0  0  0  0  0
    5.3023  -12.2825   26.9830 C   0  0  0  0  0  0  0  0  0  0  0  0
    6.3967  -11.4693   26.9381 C   0  0  0  0  0  0  0  0  0  0  0  0
    7.6552  -12.0242   26.7566 C   0  0  0  0  0  0  0  0  0  0  0  0
    7.8249  -13.3813   26.6217 C   0  0  0  0  0  0  0  0  0  0  0  0
    7.2773  -16.4262   24.2688 C   0  0  0  0  0  0  0  0  0  0  0  0
    8.0243  -17.4197   24.2627 O   0  0  0  0  0  0  0  0  0  0  0  0
    8.4430  -13.1211   21.4165 C   0  0  0  0  0  0  0  0  0  0  0  0
    7.9941  -14.5369   21.0762 C   0  0  2  0  0  0  0  0  0  0  0  0
    6.5891  -14.5405   20.5727 C   0  0  0  0  0  0  0  0  0  0  0  0
    8.3060  -15.4683   22.1801 C   0  0  2  0  0  0  0  0  0  0  0  0
    7.3942  -15.4195   23.2669 N   0  0  0  0  0  0  0  0  0  0  0  0
    9.7297  -15.4958   22.6181 C   0  0  0  0  0  0  0  0  0  0  0  0
   10.2436  -14.5640   23.2899 O   0  0  0  0  0  0  0  0  0  0  0  0
   11.3019  -20.0456   25.3344 N   0  0  0  0  0  0  0  0  0  0  0  0
   11.2597  -18.7510   25.9513 C   0  0  0  0  0  0  0  0  0  0  0  0
   10.8509  -18.7813   27.1597 O   0  0  0  0  0  0  0  0  0  0  0  0
   11.6538  -17.5195   25.2411 C   0  0  0  0  0  0  0  0  0  0  0  0
   12.1619  -17.7277   23.8573 C   0  0  0  0  0  0  0  0  0  0  0  0
   11.9342  -16.6516   22.8775 C   0  0  2  0  0  0  0  0  0  0  0  0
   10.6134  -16.5902   22.2895 N   0  0  0  0  0  0  0  0  0  0  0  0
   13.0158  -16.5508   21.8309 C   0  0  0  0  0  0  0  0  0  0  0  0
   14.3549  -16.3881   22.1160 O   0  0  0  0  0  0  0  0  0  0  0  0
   12.6616  -16.6183   20.6366 O   0  0  0  0  0  0  0  0  0  0  0  0
  2  1  1  1
  2 10  1  0
  2  3  1  0
  4  9  2  0
  4  3  1  0
  5  4  1  0
  6  7  1  0
  6  5  2  0
  7  8  2  0
  8  9  1  0
 10 11  2  0
 13 12  1  1
 14 13  1  0
 15 13  1  0
 15 16  1  1
 16 10  1  0
 17 18  2  0
 17 15  1  0
 19 20  1  0
 20 21  2  0
 22 20  1  0
 22 23  1  0
 24 23  1  6
 24 26  1  0
 24 25  1  0
 25 17  1  0
 26 27  1  0
 28 26  2  0
M  END
$$$$
