NMY.pdb
     RDKit          3D

 29 29  0  0  1  0  0  0  0  0999 V2000
   29.2263  -23.1293  -19.0289 N   0  0  0  0  0  0  0  0  0  0  0  0
   29.2119  -21.7784  -18.6225 C   0  0  0  0  0  0  0  0  0  0  0  0
   30.3248  -21.1931  -18.5215 O   0  0  0  0  0  0  0  0  0  0  0  0
   27.9200  -21.0975  -18.3317 C   0  0  0  0  0  0  0  0  0  0  0  0
   27.6707  -21.2140  -16.8639 C   0  0  2  0  0  0  0  0  0  0  0  0
   27.3413  -22.5594  -16.5088 N   0  0  0  0  0  0  0  0  0  0  0  0
   26.6250  -20.2631  -16.3742 C   0  0  0  0  0  0  0  0  0  0  0  0
   26.7259  -19.0826  -16.7393 O   0  0  0  0  0  0  0  0  0  0  0  0
   23.3617  -16.8307  -19.6103 C   0  0  0  0  0  0  0  0  0  0  0  0
   22.8134  -18.3173  -18.7639 S   0  0  0  0  0  0  0  0  0  0  0  0
   24.0994  -18.7549  -17.5289 C   0  0  0  0  0  0  0  0  0  0  0  0
   23.5439  -19.8593  -16.7100 C   0  0  0  0  0  0  0  0  0  0  0  0
   24.2783  -20.1195  -15.4044 C   0  0  2  0  0  0  0  0  0  0  0  0
   25.5694  -20.6943  -15.5320 N   0  0  0  0  0  0  0  0  0  0  0  0
   23.3610  -20.7570  -14.4602 C   0  0  0  0  0  0  0  0  0  0  0  0
   22.8624  -21.9164  -14.6649 O   0  0  0  0  0  0  0  0  0  0  0  0
   28.1887  -21.1320  -10.4085 O   0  0  0  0  0  0  0  0  0  0  0  0
   26.8125  -20.9753  -10.5468 C   0  0  0  0  0  0  0  0  0  0  0  0
   26.1095  -21.8069  -11.3770 C   0  0  0  0  0  0  0  0  0  0  0  0
   24.7483  -21.6361  -11.5007 C   0  0  0  0  0  0  0  0  0  0  0  0
   24.1348  -20.6354  -10.7870 C   0  0  0  0  0  0  0  0  0  0  0  0
   22.6924  -20.4213  -10.9012 C   0  0  0  0  0  0  0  0  0  0  0  0
   22.1711  -20.9139  -12.2287 C   0  0  2  0  0  0  0  0  0  0  0  0
   22.9390  -20.1531  -13.2338 N   0  0  0  0  0  0  0  0  0  0  0  0
   20.7316  -20.6234  -12.3377 C   0  0  0  0  0  0  0  0  0  0  0  0
   20.2941  -19.7360  -13.0690 O   0  0  0  0  0  0  0  0  0  0  0  0
   24.8557  -19.7930   -9.9442 C   0  0  0  0  0  0  0  0  0  0  0  0
   26.2023  -19.9652   -9.8244 C   0  0  0  0  0  0  0  0  0  0  0  0
   19.8485  -21.3843  -11.5841 O   0  0  0  0  0  0  0  0  0  0  0  0
  2  1  1  0
  3  2  2  0
  4  5  1  0
  4  2  1  0
  5  6  1  6
  7  5  1  0
  7  8  2  0
  9 10  1  0
 11 10  1  0
 12 11  1  0
 13 12  1  6
 13 14  1  0
 14  7  1  0
 15 24  1  0
 15 13  1  0
 16 15  2  0
 18 17  1  0
 19 18  2  0
 20 19  1  0
 21 20  2  0
 21 27  1  0
 22 21  1  0
 23 24  1  0
 23 22  1  1
 25 23  1  0
 26 25  2  0
 27 28  2  0
 28 18  1  0
 29 25  1  0
M  END
$$$$
