NMY.pdb
     RDKit          3D

 29 29  0  0  1  0  0  0  0  0999 V2000
   28.2106  -19.4498  -18.5459 N   0  0  0  0  0  0  0  0  0  0  0  0
   28.0656  -20.8430  -18.3771 C   0  0  0  0  0  0  0  0  0  0  0  0
   28.8763  -21.5875  -18.9935 O   0  0  0  0  0  0  0  0  0  0  0  0
   26.9900  -21.3834  -17.5007 C   0  0  0  0  0  0  0  0  0  0  0  0
   27.2599  -20.9066  -16.1115 C   0  0  2  0  0  0  0  0  0  0  0  0
   28.5572  -21.3200  -15.6745 N   0  0  0  0  0  0  0  0  0  0  0  0
   26.2091  -21.3324  -15.1358 C   0  0  0  0  0  0  0  0  0  0  0  0
   25.2010  -21.8830  -15.6026 O   0  0  0  0  0  0  0  0  0  0  0  0
   27.2833  -20.6471   -8.8300 C   0  0  0  0  0  0  0  0  0  0  0  0
   25.5139  -20.3548   -8.7252 S   0  0  0  0  0  0  0  0  0  0  0  0
   24.7643  -20.9408  -10.2953 C   0  0  0  0  0  0  0  0  0  0  0  0
   25.7802  -20.7319  -11.3552 C   0  0  0  0  0  0  0  0  0  0  0  0
   25.3529  -21.1717  -12.7464 C   0  0  2  0  0  0  0  0  0  0  0  0
   26.3611  -21.1152  -13.7433 N   0  0  0  0  0  0  0  0  0  0  0  0
   24.0683  -20.5511  -13.0691 C   0  0  0  0  0  0  0  0  0  0  0  0
   23.9202  -19.2839  -13.1512 O   0  0  0  0  0  0  0  0  0  0  0  0
   16.9756  -18.0565  -17.0021 O   0  0  0  0  0  0  0  0  0  0  0  0
   18.1120  -18.7220  -16.5511 C   0  0  0  0  0  0  0  0  0  0  0  0
   18.1881  -20.0860  -16.6451 C   0  0  0  0  0  0  0  0  0  0  0  0
   19.3209  -20.7265  -16.1934 C   0  0  0  0  0  0  0  0  0  0  0  0
   20.3422  -19.9778  -15.6610 C   0  0  0  0  0  0  0  0  0  0  0  0
   21.5555  -20.6267  -15.1647 C   0  0  0  0  0  0  0  0  0  0  0  0
   21.6044  -20.6117  -13.6567 C   0  0  2  0  0  0  0  0  0  0  0  0
   22.8704  -21.2920  -13.3202 N   0  0  0  0  0  0  0  0  0  0  0  0
   20.4516  -21.3495  -13.1133 C   0  0  0  0  0  0  0  0  0  0  0  0
   20.4024  -22.5787  -13.1066 O   0  0  0  0  0  0  0  0  0  0  0  0
   20.2583  -18.5908  -15.5684 C   0  0  0  0  0  0  0  0  0  0  0  0
   19.1361  -17.9606  -16.0165 C   0  0  0  0  0  0  0  0  0  0  0  0
   19.3905  -20.6209  -12.5939 O   0  0  0  0  0  0  0  0  0  0  0  0
  2  1  1  0
  3  2  2  0
  4  5  1  0
  4  2  1  0
  5  6  1  1
  7  5  1  0
  7  8  2  0
  9 10  1  0
 11 10  1  0
 12 11  1  0
 13 12  1  1
 13 14  1  0
 14  7  1  0
 15 24  1  0
 15 13  1  0
 16 15  2  0
 18 17  1  0
 19 18  2  0
 20 19  1  0
 21 20  2  0
 21 27  1  0
 22 21  1  0
 23 24  1  0
 23 22  1  6
 25 23  1  0
 26 25  2  0
 27 28  2  0
 28 18  1  0
 29 25  1  0
M  END
$$$$
