NMY.pdb
     RDKit          3D

 29 29  0  0  1  0  0  0  0  0999 V2000
   25.5014  -16.0865  -15.2504 N   0  0  0  0  0  0  0  0  0  0  0  0
   26.1933  -14.8611  -15.1495 C   0  0  0  0  0  0  0  0  0  0  0  0
   27.3344  -14.8840  -14.6122 O   0  0  0  0  0  0  0  0  0  0  0  0
   25.5763  -13.6080  -15.6653 C   0  0  0  0  0  0  0  0  0  0  0  0
   24.1667  -13.9236  -16.0442 C   0  0  2  0  0  0  0  0  0  0  0  0
   24.1238  -14.9654  -17.0227 N   0  0  0  0  0  0  0  0  0  0  0  0
   23.4073  -12.7227  -16.5118 C   0  0  0  0  0  0  0  0  0  0  0  0
   23.7829  -12.1996  -17.5713 O   0  0  0  0  0  0  0  0  0  0  0  0
   16.5713  -13.3547  -16.7370 C   0  0  0  0  0  0  0  0  0  0  0  0
   17.5563  -12.2004  -15.7753 S   0  0  0  0  0  0  0  0  0  0  0  0
   19.2532  -12.2064  -16.4760 C   0  0  0  0  0  0  0  0  0  0  0  0
   20.0340  -11.2075  -15.7069 C   0  0  0  0  0  0  0  0  0  0  0  0
   21.4967  -11.0939  -16.1060 C   0  0  2  0  0  0  0  0  0  0  0  0
   22.3099  -12.2089  -15.7761 N   0  0  0  0  0  0  0  0  0  0  0  0
   21.9952   -9.7742  -15.7195 C   0  0  0  0  0  0  0  0  0  0  0  0
   22.4297   -9.5226  -14.5437 O   0  0  0  0  0  0  0  0  0  0  0  0
   24.9570   -1.5504  -16.5859 O   0  0  0  0  0  0  0  0  0  0  0  0
   24.5042   -2.8491  -16.8004 C   0  0  0  0  0  0  0  0  0  0  0  0
   25.3651   -3.9050  -16.6625 C   0  0  0  0  0  0  0  0  0  0  0  0
   24.8982   -5.1827  -16.8790 C   0  0  0  0  0  0  0  0  0  0  0  0
   23.5815   -5.3609  -17.2275 C   0  0  0  0  0  0  0  0  0  0  0  0
   23.0552   -6.7035  -17.4726 C   0  0  0  0  0  0  0  0  0  0  0  0
   22.6292   -7.3658  -16.1856 C   0  0  2  0  0  0  0  0  0  0  0  0
   22.0440   -8.6535  -16.6075 N   0  0  0  0  0  0  0  0  0  0  0  0
   21.6253   -6.5312  -15.5041 C   0  0  0  0  0  0  0  0  0  0  0  0
   20.4305   -6.5723  -15.7945 O   0  0  0  0  0  0  0  0  0  0  0  0
   22.7112   -4.2825  -17.3660 C   0  0  0  0  0  0  0  0  0  0  0  0
   23.1766   -3.0199  -17.1509 C   0  0  0  0  0  0  0  0  0  0  0  0
   22.0552   -5.6728  -14.5015 O   0  0  0  0  0  0  0  0  0  0  0  0
  2  1  1  0
  3  2  2  0
  4  5  1  0
  4  2  1  0
  5  6  1  6
  7  5  1  0
  7  8  2  0
  9 10  1  0
 11 10  1  0
 12 11  1  0
 13 12  1  1
 13 14  1  0
 14  7  1  0
 15 24  1  0
 15 13  1  0
 16 15  2  0
 18 17  1  0
 19 18  2  0
 20 19  1  0
 21 20  2  0
 21 27  1  0
 22 21  1  0
 23 24  1  0
 23 22  1  6
 25 23  1  0
 26 25  2  0
 27 28  2  0
 28 18  1  0
 29 25  1  0
M  END
$$$$
