NMY.pdb
     RDKit          3D

 29 29  0  0  1  0  0  0  0  0999 V2000
   28.5536  -21.3394  -18.3457 N   0  0  0  0  0  0  0  0  0  0  0  0
   29.3114  -21.6473  -17.1962 C   0  0  0  0  0  0  0  0  0  0  0  0
   30.5060  -22.0126  -17.3721 O   0  0  0  0  0  0  0  0  0  0  0  0
   28.6991  -21.5363  -15.8436 C   0  0  0  0  0  0  0  0  0  0  0  0
   27.2832  -21.0981  -16.0255 C   0  0  2  0  0  0  0  0  0  0  0  0
   27.1822  -19.6723  -15.9836 N   0  0  0  0  0  0  0  0  0  0  0  0
   26.3486  -21.7268  -15.0411 C   0  0  0  0  0  0  0  0  0  0  0  0
   26.2629  -22.9635  -15.0608 O   0  0  0  0  0  0  0  0  0  0  0  0
   24.5843  -20.8320   -8.6497 C   0  0  0  0  0  0  0  0  0  0  0  0
   26.1564  -20.4981   -9.4525 S   0  0  0  0  0  0  0  0  0  0  0  0
   26.1167  -21.3066  -11.1003 C   0  0  0  0  0  0  0  0  0  0  0  0
   24.8586  -20.8742  -11.7555 C   0  0  0  0  0  0  0  0  0  0  0  0
   24.6595  -21.4002  -13.1681 C   0  0  2  0  0  0  0  0  0  0  0  0
   25.5974  -20.9429  -14.1298 N   0  0  0  0  0  0  0  0  0  0  0  0
   23.2442  -21.2934  -13.5216 C   0  0  0  0  0  0  0  0  0  0  0  0
   22.7397  -20.2285  -14.0177 O   0  0  0  0  0  0  0  0  0  0  0  0
   14.9962  -23.6276  -15.2883 O   0  0  0  0  0  0  0  0  0  0  0  0
   16.3117  -23.6143  -14.8334 C   0  0  0  0  0  0  0  0  0  0  0  0
   16.5701  -23.5912  -13.4889 C   0  0  0  0  0  0  0  0  0  0  0  0
   17.8785  -23.5782  -13.0582 C   0  0  0  0  0  0  0  0  0  0  0  0
   18.8871  -23.5888  -13.9908 C   0  0  0  0  0  0  0  0  0  0  0  0
   20.2872  -23.5674  -13.5680 C   0  0  0  0  0  0  0  0  0  0  0  0
   20.8830  -22.1899  -13.7229 C   0  0  2  0  0  0  0  0  0  0  0  0
   22.3012  -22.3553  -13.3487 N   0  0  0  0  0  0  0  0  0  0  0  0
   20.2065  -21.2492  -12.8140 C   0  0  0  0  0  0  0  0  0  0  0  0
   20.4538  -21.2068  -11.6096 O   0  0  0  0  0  0  0  0  0  0  0  0
   18.6173  -23.6124  -15.3569 C   0  0  0  0  0  0  0  0  0  0  0  0
   17.3216  -23.6253  -15.7791 C   0  0  0  0  0  0  0  0  0  0  0  0
   19.2593  -20.3861  -13.3473 O   0  0  0  0  0  0  0  0  0  0  0  0
  2  1  1  0
  3  2  2  0
  4  5  1  0
  4  2  1  0
  5  6  1  1
  7  5  1  0
  7  8  2  0
  9 10  1  0
 11 10  1  0
 12 11  1  0
 13 12  1  1
 13 14  1  0
 14  7  1  0
 15 24  1  0
 15 13  1  0
 16 15  2  0
 18 17  1  0
 19 18  2  0
 20 19  1  0
 21 20  2  0
 21 27  1  0
 22 21  1  0
 23 24  1  0
 23 22  1  1
 25 23  1  0
 26 25  2  0
 27 28  2  0
 28 18  1  0
 29 25  1  0
M  END
$$$$
