NMY.pdb
     RDKit          3D

 29 29  0  0  1  0  0  0  0  0999 V2000
   28.3511  -21.6889  -19.6247 N   0  0  0  0  0  0  0  0  0  0  0  0
   29.1801  -21.8392  -18.4931 C   0  0  0  0  0  0  0  0  0  0  0  0
   30.3884  -21.4967  -18.6120 O   0  0  0  0  0  0  0  0  0  0  0  0
   28.6234  -22.3826  -17.2236 C   0  0  0  0  0  0  0  0  0  0  0  0
   28.2517  -21.2210  -16.3618 C   0  0  2  0  0  0  0  0  0  0  0  0
   29.3640  -20.3392  -16.1887 N   0  0  0  0  0  0  0  0  0  0  0  0
   27.6895  -21.6345  -15.0387 C   0  0  0  0  0  0  0  0  0  0  0  0
   26.8291  -22.5270  -15.0497 O   0  0  0  0  0  0  0  0  0  0  0  0
   29.6565  -20.8737   -8.6213 C   0  0  0  0  0  0  0  0  0  0  0  0
   30.8071  -21.0989   -9.9824 S   0  0  0  0  0  0  0  0  0  0  0  0
   29.8356  -21.6465  -11.4409 C   0  0  0  0  0  0  0  0  0  0  0  0
   28.5383  -20.9307  -11.3803 C   0  0  0  0  0  0  0  0  0  0  0  0
   27.5892  -21.2285  -12.5301 C   0  0  2  0  0  0  0  0  0  0  0  0
   28.1220  -21.0322  -13.8306 N   0  0  0  0  0  0  0  0  0  0  0  0
   26.2912  -20.6161  -12.2478 C   0  0  0  0  0  0  0  0  0  0  0  0
   26.1010  -19.3533  -12.3085 O   0  0  0  0  0  0  0  0  0  0  0  0
   17.7450  -19.9152  -13.4354 O   0  0  0  0  0  0  0  0  0  0  0  0
   19.0839  -20.2850  -13.3451 C   0  0  0  0  0  0  0  0  0  0  0  0
   20.0541  -19.4751  -13.8722 C   0  0  0  0  0  0  0  0  0  0  0  0
   21.3735  -19.8582  -13.7730 C   0  0  0  0  0  0  0  0  0  0  0  0
   21.6781  -21.0428  -13.1478 C   0  0  0  0  0  0  0  0  0  0  0  0
   23.0681  -21.4834  -13.0322 C   0  0  0  0  0  0  0  0  0  0  0  0
   23.7821  -20.7513  -11.9228 C   0  0  2  0  0  0  0  0  0  0  0  0
   25.1258  -21.3607  -11.8815 N   0  0  0  0  0  0  0  0  0  0  0  0
   23.0716  -20.9601  -10.6499 C   0  0  0  0  0  0  0  0  0  0  0  0
   23.4108  -21.8241   -9.8425 O   0  0  0  0  0  0  0  0  0  0  0  0
   20.6864  -21.8619  -12.6137 C   0  0  0  0  0  0  0  0  0  0  0  0
   19.3822  -21.4794  -12.7137 C   0  0  0  0  0  0  0  0  0  0  0  0
   21.9834  -20.1475  -10.3635 O   0  0  0  0  0  0  0  0  0  0  0  0
  2  1  1  0
  3  2  2  0
  4  5  1  0
  4  2  1  0
  5  6  1  1
  7  5  1  0
  7  8  2  0
  9 10  1  0
 11 10  1  0
 12 11  1  0
 13 12  1  1
 13 14  1  0
 14  7  1  0
 15 24  1  0
 15 13  1  0
 16 15  2  0
 18 17  1  0
 19 18  2  0
 20 19  1  0
 21 20  2  0
 21 27  1  0
 22 21  1  0
 23 24  1  0
 23 22  1  6
 25 23  1  0
 26 25  2  0
 27 28  2  0
 28 18  1  0
 29 25  1  0
M  END
$$$$
