NMY.pdb
     RDKit          3D

 29 29  0  0  1  0  0  0  0  0999 V2000
   27.9219  -18.1361  -16.6298 N   0  0  0  0  0  0  0  0  0  0  0  0
   28.0628  -18.3729  -15.2461 C   0  0  0  0  0  0  0  0  0  0  0  0
   29.0665  -17.8681  -14.6724 O   0  0  0  0  0  0  0  0  0  0  0  0
   27.0519  -19.1894  -14.5192 C   0  0  0  0  0  0  0  0  0  0  0  0
   27.7697  -20.3374  -13.8892 C   0  0  2  0  0  0  0  0  0  0  0  0
   28.3177  -21.2039  -14.8859 N   0  0  0  0  0  0  0  0  0  0  0  0
   26.9139  -21.1031  -12.9306 C   0  0  0  0  0  0  0  0  0  0  0  0
   26.2501  -22.0404  -13.3974 O   0  0  0  0  0  0  0  0  0  0  0  0
   28.8527  -20.4686   -6.2101 C   0  0  0  0  0  0  0  0  0  0  0  0
   27.2821  -20.0286   -6.9630 S   0  0  0  0  0  0  0  0  0  0  0  0
   27.2257  -20.8157   -8.6207 C   0  0  0  0  0  0  0  0  0  0  0  0
   25.9753  -20.3518   -9.2690 C   0  0  0  0  0  0  0  0  0  0  0  0
   25.7534  -20.8755  -10.6790 C   0  0  2  0  0  0  0  0  0  0  0  0
   26.8660  -20.7705  -11.5535 N   0  0  0  0  0  0  0  0  0  0  0  0
   24.4716  -20.3766  -11.1767 C   0  0  0  0  0  0  0  0  0  0  0  0
   24.3399  -19.2105  -11.6841 O   0  0  0  0  0  0  0  0  0  0  0  0
   20.1862  -18.5234  -17.5455 O   0  0  0  0  0  0  0  0  0  0  0  0
   20.7314  -19.2236  -16.4731 C   0  0  0  0  0  0  0  0  0  0  0  0
   20.8050  -18.6352  -15.2388 C   0  0  0  0  0  0  0  0  0  0  0  0
   21.3479  -19.3441  -14.1900 C   0  0  0  0  0  0  0  0  0  0  0  0
   21.8004  -20.6219  -14.4128 C   0  0  0  0  0  0  0  0  0  0  0  0
   22.3898  -21.3996  -13.3231 C   0  0  0  0  0  0  0  0  0  0  0  0
   22.1019  -20.7673  -11.9837 C   0  0  2  0  0  0  0  0  0  0  0  0
   23.2589  -21.1348  -11.1441 N   0  0  0  0  0  0  0  0  0  0  0  0
   20.8545  -21.3199  -11.4295 C   0  0  0  0  0  0  0  0  0  0  0  0
   20.7866  -22.4610  -10.9748 O   0  0  0  0  0  0  0  0  0  0  0  0
   21.7225  -21.2144  -15.6707 C   0  0  0  0  0  0  0  0  0  0  0  0
   21.1846  -20.5100  -16.7059 C   0  0  0  0  0  0  0  0  0  0  0  0
   19.7235  -20.5152  -11.4261 O   0  0  0  0  0  0  0  0  0  0  0  0
  2  1  1  0
  3  2  2  0
  4  5  1  0
  4  2  1  0
  5  6  1  6
  7  5  1  0
  7  8  2  0
  9 10  1  0
 11 10  1  0
 12 11  1  0
 13 12  1  1
 13 14  1  0
 14  7  1  0
 15 24  1  0
 15 13  1  0
 16 15  2  0
 18 17  1  0
 19 18  2  0
 20 19  1  0
 21 20  2  0
 21 27  1  0
 22 21  1  0
 23 24  1  0
 23 22  1  6
 25 23  1  0
 26 25  2  0
 27 28  2  0
 28 18  1  0
 29 25  1  0
M  END
$$$$
