NMY.pdb
     RDKit          3D

 29 29  0  0  1  0  0  0  0  0999 V2000
   28.9100  -20.1435  -16.9918 N   0  0  0  0  0  0  0  0  0  0  0  0
   28.7968  -21.5405  -16.8306 C   0  0  0  0  0  0  0  0  0  0  0  0
   29.5130  -22.2679  -17.5719 O   0  0  0  0  0  0  0  0  0  0  0  0
   27.8615  -22.1044  -15.8186 C   0  0  0  0  0  0  0  0  0  0  0  0
   27.2616  -20.9581  -15.0727 C   0  0  2  0  0  0  0  0  0  0  0  0
   28.2435  -20.3098  -14.2601 N   0  0  0  0  0  0  0  0  0  0  0  0
   26.0723  -21.3539  -14.2564 C   0  0  0  0  0  0  0  0  0  0  0  0
   25.2020  -22.0296  -14.8249 O   0  0  0  0  0  0  0  0  0  0  0  0
   26.4728  -19.2970   -8.1193 C   0  0  0  0  0  0  0  0  0  0  0  0
   26.4128  -21.0884   -8.2405 S   0  0  0  0  0  0  0  0  0  0  0  0
   26.3504  -21.5186  -10.0242 C   0  0  0  0  0  0  0  0  0  0  0  0
   25.0983  -20.9313  -10.5594 C   0  0  0  0  0  0  0  0  0  0  0  0
   24.8450  -21.2003  -12.0342 C   0  0  2  0  0  0  0  0  0  0  0  0
   25.9485  -20.9727  -12.8967 N   0  0  0  0  0  0  0  0  0  0  0  0
   23.5701  -20.5940  -12.4173 C   0  0  0  0  0  0  0  0  0  0  0  0
   23.4200  -19.3298  -12.5354 O   0  0  0  0  0  0  0  0  0  0  0  0
   17.3533  -18.3483  -17.6450 O   0  0  0  0  0  0  0  0  0  0  0  0
   18.4081  -18.9038  -16.9264 C   0  0  0  0  0  0  0  0  0  0  0  0
   18.5620  -20.2636  -16.8790 C   0  0  0  0  0  0  0  0  0  0  0  0
   19.6119  -20.7945  -16.1626 C   0  0  0  0  0  0  0  0  0  0  0  0
   20.4749  -19.9437  -15.5157 C   0  0  0  0  0  0  0  0  0  0  0  0
   21.5954  -20.4743  -14.7396 C   0  0  0  0  0  0  0  0  0  0  0  0
   21.1995  -20.7138  -13.3035 C   0  0  2  0  0  0  0  0  0  0  0  0
   22.3850  -21.3466  -12.6928 N   0  0  0  0  0  0  0  0  0  0  0  0
   20.0371  -21.6164  -13.2509 C   0  0  0  0  0  0  0  0  0  0  0  0
   20.1416  -22.8319  -13.4097 O   0  0  0  0  0  0  0  0  0  0  0  0
   20.3126  -18.5615  -15.5681 C   0  0  0  0  0  0  0  0  0  0  0  0
   19.2728  -18.0400  -16.2779 C   0  0  0  0  0  0  0  0  0  0  0  0
   18.7861  -21.0640  -13.0131 O   0  0  0  0  0  0  0  0  0  0  0  0
  2  1  1  0
  3  2  2  0
  4  5  1  0
  4  2  1  0
  5  6  1  1
  7  5  1  0
  7  8  2  0
  9 10  1  0
 11 10  1  0
 12 11  1  0
 13 12  1  1
 13 14  1  0
 14  7  1  0
 15 24  1  0
 15 13  1  0
 16 15  2  0
 18 17  1  0
 19 18  2  0
 20 19  1  0
 21 20  2  0
 21 27  1  0
 22 21  1  0
 23 24  1  0
 23 22  1  6
 25 23  1  0
 26 25  2  0
 27 28  2  0
 28 18  1  0
 29 25  1  0
M  END
$$$$
