NMY.pdb
     RDKit          3D

 29 29  0  0  1  0  0  0  0  0999 V2000
   20.5613  -13.7063  -20.3622 N   0  0  0  0  0  0  0  0  0  0  0  0
   19.6036  -13.0505  -19.5602 C   0  0  0  0  0  0  0  0  0  0  0  0
   18.3988  -13.3982  -19.6976 O   0  0  0  0  0  0  0  0  0  0  0  0
   20.0276  -11.9948  -18.5996 C   0  0  0  0  0  0  0  0  0  0  0  0
   21.4688  -11.7027  -18.8597 C   0  0  2  0  0  0  0  0  0  0  0  0
   22.2812  -12.8404  -18.5591 N   0  0  0  0  0  0  0  0  0  0  0  0
   21.9579  -10.4919  -18.1300 C   0  0  0  0  0  0  0  0  0  0  0  0
   22.5490  -10.6847  -17.0574 O   0  0  0  0  0  0  0  0  0  0  0  0
   24.8497   -5.8020  -22.2554 C   0  0  0  0  0  0  0  0  0  0  0  0
   23.5189   -5.5552  -21.0741 S   0  0  0  0  0  0  0  0  0  0  0  0
   23.5176   -6.9957  -19.9359 C   0  0  0  0  0  0  0  0  0  0  0  0
   22.3738   -6.8058  -19.0115 C   0  0  0  0  0  0  0  0  0  0  0  0
   22.1333   -7.9561  -18.0468 C   0  0  2  0  0  0  0  0  0  0  0  0
   21.7535   -9.1864  -18.6431 N   0  0  0  0  0  0  0  0  0  0  0  0
   21.3138   -7.4804  -16.9325 C   0  0  0  0  0  0  0  0  0  0  0  0
   20.0378   -7.5603  -16.9365 O   0  0  0  0  0  0  0  0  0  0  0  0
   18.1726   -6.2131   -9.0506 O   0  0  0  0  0  0  0  0  0  0  0  0
   18.9784   -6.4793  -10.1540 C   0  0  0  0  0  0  0  0  0  0  0  0
   18.8179   -7.6463  -10.8523 C   0  0  0  0  0  0  0  0  0  0  0  0
   19.6249   -7.8918  -11.9413 C   0  0  0  0  0  0  0  0  0  0  0  0
   20.5682   -6.9582  -12.2956 C   0  0  0  0  0  0  0  0  0  0  0  0
   21.4468   -7.1908  -13.4416 C   0  0  0  0  0  0  0  0  0  0  0  0
   20.9769   -6.4250  -14.6537 C   0  0  2  0  0  0  0  0  0  0  0  0
   21.8535   -6.8879  -15.7474 N   0  0  0  0  0  0  0  0  0  0  0  0
   21.1417   -4.9797  -14.4249 C   0  0  0  0  0  0  0  0  0  0  0  0
   22.2228   -4.4108  -14.5699 O   0  0  0  0  0  0  0  0  0  0  0  0
   20.7261   -5.7732  -11.5811 C   0  0  0  0  0  0  0  0  0  0  0  0
   19.9258   -5.5338  -10.5044 C   0  0  0  0  0  0  0  0  0  0  0  0
   20.0311   -4.2455  -14.0322 O   0  0  0  0  0  0  0  0  0  0  0  0
  2  1  1  0
  3  2  2  0
  4  5  1  0
  4  2  1  0
  5  6  1  1
  7  5  1  0
  7  8  2  0
  9 10  1  0
 11 10  1  0
 12 11  1  0
 13 12  1  6
 13 14  1  0
 14  7  1  0
 15 24  1  0
 15 13  1  0
 16 15  2  0
 18 17  1  0
 19 18  2  0
 20 19  1  0
 21 20  2  0
 21 27  1  0
 22 21  1  0
 23 24  1  0
 23 22  1  1
 25 23  1  0
 26 25  2  0
 27 28  2  0
 28 18  1  0
 29 25  1  0
M  END
$$$$
