NMY.pdb
     RDKit          3D

 29 29  0  0  1  0  0  0  0  0999 V2000
   18.3519  -13.1627  -19.3498 N   0  0  0  0  0  0  0  0  0  0  0  0
   17.2655  -13.0346  -18.4589 C   0  0  0  0  0  0  0  0  0  0  0  0
   16.1208  -13.3346  -18.8960 O   0  0  0  0  0  0  0  0  0  0  0  0
   17.4915  -12.5620  -17.0651 C   0  0  0  0  0  0  0  0  0  0  0  0
   18.9458  -12.2528  -16.9254 C   0  0  2  0  0  0  0  0  0  0  0  0
   19.7091  -13.4525  -16.7742 N   0  0  0  0  0  0  0  0  0  0  0  0
   19.2328  -11.2957  -15.8122 C   0  0  0  0  0  0  0  0  0  0  0  0
   19.3650  -11.7786  -14.6780 O   0  0  0  0  0  0  0  0  0  0  0  0
   21.8828   -4.0274  -14.1599 C   0  0  0  0  0  0  0  0  0  0  0  0
   21.5191   -5.2804  -15.3947 S   0  0  0  0  0  0  0  0  0  0  0  0
   20.6169   -6.6394  -14.5522 C   0  0  0  0  0  0  0  0  0  0  0  0
   20.3450   -7.6713  -15.5819 C   0  0  0  0  0  0  0  0  0  0  0  0
   19.5711   -8.8822  -15.0853 C   0  0  2  0  0  0  0  0  0  0  0  0
   19.3475   -9.9023  -16.0460 N   0  0  0  0  0  0  0  0  0  0  0  0
   18.4095   -8.4256  -14.3227 C   0  0  0  0  0  0  0  0  0  0  0  0
   17.3368   -8.0171  -14.8859 O   0  0  0  0  0  0  0  0  0  0  0  0
   12.8169   -7.0315   -7.7722 O   0  0  0  0  0  0  0  0  0  0  0  0
   13.9254   -7.3997   -8.5294 C   0  0  0  0  0  0  0  0  0  0  0  0
   15.1225   -6.7610   -8.3446 C   0  0  0  0  0  0  0  0  0  0  0  0
   16.2080   -7.1395   -9.1035 C   0  0  0  0  0  0  0  0  0  0  0  0
   16.0580   -8.1473  -10.0248 C   0  0  0  0  0  0  0  0  0  0  0  0
   17.1880   -8.5683  -10.8527 C   0  0  0  0  0  0  0  0  0  0  0  0
   17.1933   -7.8453  -12.1770 C   0  0  2  0  0  0  0  0  0  0  0  0
   18.3623   -8.3924  -12.8932 N   0  0  0  0  0  0  0  0  0  0  0  0
   17.3447   -6.3976  -11.9539 C   0  0  0  0  0  0  0  0  0  0  0  0
   18.4331   -5.8821  -11.7025 O   0  0  0  0  0  0  0  0  0  0  0  0
   14.8376   -8.7928  -10.2077 C   0  0  0  0  0  0  0  0  0  0  0  0
   13.7660   -8.4158   -9.4549 C   0  0  0  0  0  0  0  0  0  0  0  0
   16.2126   -5.5984  -12.0327 O   0  0  0  0  0  0  0  0  0  0  0  0
  2  1  1  0
  3  2  2  0
  4  5  1  0
  4  2  1  0
  5  6  1  1
  7  5  1  0
  7  8  2  0
  9 10  1  0
 11 10  1  0
 12 11  1  0
 13 12  1  6
 13 14  1  0
 14  7  1  0
 15 24  1  0
 15 13  1  0
 16 15  2  0
 18 17  1  0
 19 18  2  0
 20 19  1  0
 21 20  2  0
 21 27  1  0
 22 21  1  0
 23 24  1  0
 23 22  1  1
 25 23  1  0
 26 25  2  0
 27 28  2  0
 28 18  1  0
 29 25  1  0
M  END
$$$$
