STG.pdb
     RDKit          3D

 18 17  0  0  1  0  0  0  0  0999 V2000
   14.6873   -5.6658   -8.3264 O   0  0  0  0  0  0  0  0  0  0  0  0
   15.8902   -6.3270   -8.5682 C   0  0  0  0  0  0  0  0  0  0  0  0
   15.6515   -7.3990   -9.6056 C   0  0  2  0  0  0  0  0  0  0  0  0
   14.8090   -8.4450   -9.0962 N   0  0  0  0  0  0  0  0  0  0  0  0
   16.9012   -7.9828  -10.1179 C   0  0  0  0  0  0  0  0  0  0  0  0
   17.4737   -8.9639   -9.5345 O   0  0  0  0  0  0  0  0  0  0  0  0
   17.7780   -9.9071  -13.0501 C   0  0  0  0  0  0  0  0  0  0  0  0
   18.5324   -8.6221  -13.1626 C   0  0  1  0  0  0  0  0  0  0  0  0
   17.8480   -7.7542  -14.0378 O   0  0  0  0  0  0  0  0  0  0  0  0
   18.7130   -7.9108  -11.8557 C   0  0  2  0  0  0  0  0  0  0  0  0
   17.4750   -7.4288  -11.2954 N   0  0  0  0  0  0  0  0  0  0  0  0
   19.5677   -6.7025  -12.1318 C   0  0  0  0  0  0  0  0  0  0  0  0
   18.9817   -5.6038  -12.2499 O   0  0  0  0  0  0  0  0  0  0  0  0
   20.9711   -6.7843  -12.2556 N   0  0  0  0  0  0  0  0  0  0  0  0
   21.7546   -5.5952  -12.5077 C   0  0  0  0  0  0  0  0  0  0  0  0
   21.8333   -5.3686  -13.9601 C   0  0  0  0  0  0  0  0  0  0  0  0
   22.5420   -4.3036  -14.4623 O   0  0  0  0  0  0  0  0  0  0  0  0
   21.2438   -6.1597  -14.7609 O   0  0  0  0  0  0  0  0  0  0  0  0
  2  1  1  0
  2  3  1  0
  3  4  1  1
  5 11  1  0
  5  3  1  0
  6  5  2  0
  8  7  1  1
  8 10  1  0
  9  8  1  0
 10 11  1  6
 10 12  1  0
 12 13  2  0
 14 12  1  0
 14 15  1  0
 16 15  1  0
 16 17  1  0
 18 16  2  0
M  END
$$$$
