STG.pdb
     RDKit          3D

 18 17  0  0  1  0  0  0  0  0999 V2000
   18.1154  -12.8106  -15.0229 O   0  0  0  0  0  0  0  0  0  0  0  0
   19.1920  -11.9441  -14.8426 C   0  0  0  0  0  0  0  0  0  0  0  0
   19.9990  -11.9049  -16.1192 C   0  0  2  0  0  0  0  0  0  0  0  0
   20.4742  -13.2112  -16.4808 N   0  0  0  0  0  0  0  0  0  0  0  0
   21.1357  -10.9735  -16.0449 C   0  0  0  0  0  0  0  0  0  0  0  0
   22.3402  -11.3885  -15.9563 O   0  0  0  0  0  0  0  0  0  0  0  0
   22.3968   -8.8463  -18.5849 C   0  0  0  0  0  0  0  0  0  0  0  0
   22.0195   -7.9200  -17.4748 C   0  0  1  0  0  0  0  0  0  0  0  0
   20.7702   -7.3326  -17.7612 O   0  0  0  0  0  0  0  0  0  0  0  0
   21.9186   -8.5889  -16.1373 C   0  0  2  0  0  0  0  0  0  0  0  0
   20.8702   -9.5766  -16.0737 N   0  0  0  0  0  0  0  0  0  0  0  0
   21.5706   -7.5171  -15.1391 C   0  0  0  0  0  0  0  0  0  0  0  0
   20.3673   -7.4069  -14.8160 O   0  0  0  0  0  0  0  0  0  0  0  0
   22.5448   -6.6627  -14.5800 N   0  0  0  0  0  0  0  0  0  0  0  0
   22.2103   -5.7973  -13.4707 C   0  0  0  0  0  0  0  0  0  0  0  0
   22.0259   -4.4244  -13.9689 C   0  0  0  0  0  0  0  0  0  0  0  0
   21.7116   -3.4046  -13.1027 O   0  0  0  0  0  0  0  0  0  0  0  0
   22.1568   -4.1735  -15.2076 O   0  0  0  0  0  0  0  0  0  0  0  0
  2  1  1  0
  2  3  1  0
  3  4  1  1
  5 11  1  0
  5  3  1  0
  6  5  2  0
  8  7  1  6
  8 10  1  0
  9  8  1  0
 10 11  1  6
 10 12  1  0
 12 13  2  0
 14 12  1  0
 14 15  1  0
 16 15  1  0
 16 17  1  0
 18 16  2  0
M  END
$$$$
