STG.pdb
     RDKit          3D

 18 17  0  0  1  0  0  0  0  0999 V2000
   15.8898  -11.6528  -15.0778 O   0  0  0  0  0  0  0  0  0  0  0  0
   17.1433  -11.6697  -15.6868 C   0  0  0  0  0  0  0  0  0  0  0  0
   18.0885  -10.8212  -14.8689 C   0  0  2  0  0  0  0  0  0  0  0  0
   17.4887   -9.5678  -14.5053 N   0  0  0  0  0  0  0  0  0  0  0  0
   19.3665  -10.5719  -15.5542 C   0  0  0  0  0  0  0  0  0  0  0  0
   20.1217  -11.5279  -15.9372 O   0  0  0  0  0  0  0  0  0  0  0  0
   20.0690   -9.0189  -18.9049 C   0  0  0  0  0  0  0  0  0  0  0  0
   20.6137   -8.1453  -17.8218 C   0  0  1  0  0  0  0  0  0  0  0  0
   19.6740   -7.1395  -17.5167 O   0  0  0  0  0  0  0  0  0  0  0  0
   20.9303   -8.8801  -16.5544 C   0  0  2  0  0  0  0  0  0  0  0  0
   19.7578   -9.2250  -15.7895 N   0  0  0  0  0  0  0  0  0  0  0  0
   21.7491   -7.9471  -15.7027 C   0  0  0  0  0  0  0  0  0  0  0  0
   22.8613   -7.5921  -16.1519 O   0  0  0  0  0  0  0  0  0  0  0  0
   21.2999   -7.4813  -14.4486 N   0  0  0  0  0  0  0  0  0  0  0  0
   22.1646   -6.6780  -13.6130 C   0  0  0  0  0  0  0  0  0  0  0  0
   21.8155   -5.2580  -13.7824 C   0  0  0  0  0  0  0  0  0  0  0  0
   20.8968   -4.8740  -14.7298 O   0  0  0  0  0  0  0  0  0  0  0  0
   22.3637   -4.3756  -13.0507 O   0  0  0  0  0  0  0  0  0  0  0  0
  2  1  1  0
  2  3  1  0
  3  4  1  6
  5 11  1  0
  5  3  1  0
  6  5  2  0
  8  7  1  6
  8 10  1  0
  9  8  1  0
 10 11  1  1
 10 12  1  0
 12 13  2  0
 14 12  1  0
 14 15  1  0
 16 15  1  0
 16 17  1  0
 18 16  2  0
M  END
$$$$
