STG.pdb
     RDKit          3D

 18 17  0  0  1  0  0  0  0  0999 V2000
   17.9675  -12.7989  -14.2399 O   0  0  0  0  0  0  0  0  0  0  0  0
   19.0125  -12.1617  -14.9066 C   0  0  0  0  0  0  0  0  0  0  0  0
   18.4531  -11.4610  -16.1225 C   0  0  2  0  0  0  0  0  0  0  0  0
   18.1621  -12.3912  -17.1777 N   0  0  0  0  0  0  0  0  0  0  0  0
   19.3443  -10.4066  -16.6313 C   0  0  0  0  0  0  0  0  0  0  0  0
   20.1588  -10.6201  -17.5915 O   0  0  0  0  0  0  0  0  0  0  0  0
   18.6349   -7.2791  -18.3558 C   0  0  0  0  0  0  0  0  0  0  0  0
   19.3190   -6.9029  -17.0816 C   0  0  1  0  0  0  0  0  0  0  0  0
   18.3562   -6.4822  -16.1415 O   0  0  0  0  0  0  0  0  0  0  0  0
   20.1071   -8.0194  -16.4662 C   0  0  2  0  0  0  0  0  0  0  0  0
   19.2857   -9.1202  -16.0277 N   0  0  0  0  0  0  0  0  0  0  0  0
   20.7752   -7.4568  -15.2400 C   0  0  0  0  0  0  0  0  0  0  0  0
   20.2469   -7.7105  -14.1349 O   0  0  0  0  0  0  0  0  0  0  0  0
   21.9476   -6.6746  -15.3121 N   0  0  0  0  0  0  0  0  0  0  0  0
   22.6065   -6.2292  -14.1043 C   0  0  0  0  0  0  0  0  0  0  0  0
   21.9566   -4.9977  -13.6267 C   0  0  0  0  0  0  0  0  0  0  0  0
   20.8271   -4.5197  -14.2470 O   0  0  0  0  0  0  0  0  0  0  0  0
   22.4382   -4.3671  -12.6343 O   0  0  0  0  0  0  0  0  0  0  0  0
  2  1  1  0
  2  3  1  0
  3  4  1  6
  5 11  1  0
  5  3  1  0
  6  5  2  0
  8  7  1  6
  8 10  1  0
  9  8  1  0
 10 11  1  1
 10 12  1  0
 12 13  2  0
 14 12  1  0
 14 15  1  0
 16 15  1  0
 16 17  1  0
 18 16  2  0
M  END
$$$$
