STG.pdb
     RDKit          3D

 18 17  0  0  1  0  0  0  0  0999 V2000
   17.8030  -13.5401  -14.6516 O   0  0  0  0  0  0  0  0  0  0  0  0
   18.5772  -12.4745  -15.1072 C   0  0  0  0  0  0  0  0  0  0  0  0
   17.6624  -11.4422  -15.7236 C   0  0  2  0  0  0  0  0  0  0  0  0
   16.9454  -11.9791  -16.8465 N   0  0  0  0  0  0  0  0  0  0  0  0
   18.3763  -10.2235  -16.1359 C   0  0  0  0  0  0  0  0  0  0  0  0
   18.9675  -10.1399  -17.2648 O   0  0  0  0  0  0  0  0  0  0  0  0
   17.1735   -6.9391  -17.0254 C   0  0  0  0  0  0  0  0  0  0  0  0
   18.0129   -6.7580  -15.8025 C   0  0  1  0  0  0  0  0  0  0  0  0
   17.1781   -6.6995  -14.6678 O   0  0  0  0  0  0  0  0  0  0  0  0
   19.0095   -7.8562  -15.5854 C   0  0  2  0  0  0  0  0  0  0  0  0
   18.3999   -9.1170  -15.2426 N   0  0  0  0  0  0  0  0  0  0  0  0
   19.8591   -7.4479  -14.4115 C   0  0  0  0  0  0  0  0  0  0  0  0
   19.7792   -8.1481  -13.3781 O   0  0  0  0  0  0  0  0  0  0  0  0
   20.7154   -6.3270  -14.4544 N   0  0  0  0  0  0  0  0  0  0  0  0
   21.5260   -5.9802  -13.3081 C   0  0  0  0  0  0  0  0  0  0  0  0
   22.3439   -4.8007  -13.6351 C   0  0  0  0  0  0  0  0  0  0  0  0
   22.3549   -4.2921  -14.9118 O   0  0  0  0  0  0  0  0  0  0  0  0
   23.0472   -4.2440  -12.7351 O   0  0  0  0  0  0  0  0  0  0  0  0
  2  1  1  0
  2  3  1  0
  3  4  1  6
  5 11  1  0
  5  3  1  0
  6  5  2  0
  8  7  1  6
  8 10  1  0
  9  8  1  0
 10 11  1  1
 10 12  1  0
 12 13  2  0
 14 12  1  0
 14 15  1  0
 16 15  1  0
 16 17  1  0
 18 16  2  0
M  END
$$$$
