STG.pdb
     RDKit          3D

 18 17  0  0  1  0  0  0  0  0999 V2000
   16.1519  -11.6483  -17.1002 O   0  0  0  0  0  0  0  0  0  0  0  0
   17.1068  -10.9462  -16.3668 C   0  0  0  0  0  0  0  0  0  0  0  0
   18.3958  -11.7341  -16.3739 C   0  0  2  0  0  0  0  0  0  0  0  0
   18.1997  -13.0671  -15.8761 N   0  0  0  0  0  0  0  0  0  0  0  0
   19.4673  -11.0781  -15.6079 C   0  0  0  0  0  0  0  0  0  0  0  0
   19.7066  -11.3819  -14.3908 O   0  0  0  0  0  0  0  0  0  0  0  0
   23.1891  -10.9993  -16.2683 C   0  0  0  0  0  0  0  0  0  0  0  0
   22.6566   -9.6044  -16.3280 C   0  0  1  0  0  0  0  0  0  0  0  0
   22.4595   -9.2374  -17.6750 O   0  0  0  0  0  0  0  0  0  0  0  0
   21.3560   -9.4225  -15.6056 C   0  0  2  0  0  0  0  0  0  0  0  0
   20.2492  -10.0810  -16.2538 N   0  0  0  0  0  0  0  0  0  0  0  0
   21.0542   -7.9476  -15.6161 C   0  0  0  0  0  0  0  0  0  0  0  0
   20.2700   -7.5317  -16.4973 O   0  0  0  0  0  0  0  0  0  0  0  0
   21.6212   -7.0555  -14.6811 N   0  0  0  0  0  0  0  0  0  0  0  0
   21.2262   -5.6645  -14.6633 C   0  0  0  0  0  0  0  0  0  0  0  0
   22.0052   -4.9552  -13.6351 C   0  0  0  0  0  0  0  0  0  0  0  0
   21.9413   -3.5862  -13.5327 O   0  0  0  0  0  0  0  0  0  0  0  0
   22.7440   -5.6076  -12.8331 O   0  0  0  0  0  0  0  0  0  0  0  0
  2  1  1  0
  2  3  1  0
  3  4  1  1
  5 11  1  0
  5  3  1  0
  6  5  2  0
  8  7  1  6
  8 10  1  0
  9  8  1  0
 10 11  1  6
 10 12  1  0
 12 13  2  0
 14 12  1  0
 14 15  1  0
 16 15  1  0
 16 17  1  0
 18 16  2  0
M  END
$$$$
