GQC.pdb
     RDKit          3D

 20 19  0  0  1  0  0  0  0  0999 V2000
    6.6106  -18.9953   18.7118 N   0  0  0  0  0  0  0  0  0  0  0  0
    6.0656  -18.0086   19.6179 C   0  0  0  0  0  0  0  0  0  0  0  0
    7.1529  -17.0982   20.0361 C   0  0  0  0  0  0  0  0  0  0  0  0
    8.2289  -17.5832   20.4547 O   0  0  0  0  0  0  0  0  0  0  0  0
    9.8877  -13.0824   17.8440 N   0  0  0  0  0  0  0  0  0  0  0  0
   10.1737  -12.9611   19.2198 C   0  0  0  0  0  0  0  0  0  0  0  0
   11.3824  -13.2037   19.5521 O   0  0  0  0  0  0  0  0  0  0  0  0
    9.1735  -12.5820   20.2399 C   0  0  0  0  0  0  0  0  0  0  0  0
    7.9268  -13.4034   20.0234 C   0  0  0  0  0  0  0  0  0  0  0  0
    8.1076  -14.8414   20.4567 C   0  0  2  0  0  0  0  0  0  0  0  0
    7.0457  -15.6836   19.9896 N   0  0  0  0  0  0  0  0  0  0  0  0
    8.2224  -14.8279   21.9350 C   0  0  0  0  0  0  0  0  0  0  0  0
    7.2877  -14.2909   22.5744 O   0  0  0  0  0  0  0  0  0  0  0  0
    9.3195  -15.3837   22.6422 N   0  0  0  0  0  0  0  0  0  0  0  0
    9.2660  -15.4899   24.0702 C   0  0  1  0  0  0  0  0  0  0  0  0
    8.1658  -16.3888   24.5660 C   0  0  0  0  0  0  0  0  0  0  0  0
    6.7222  -15.5023   25.1451 S   0  0  0  0  0  0  0  0  0  0  0  0
   10.5501  -16.0611   24.5442 C   0  0  0  0  0  0  0  0  0  0  0  0
   10.7646  -16.1698   25.9085 O   0  0  0  0  0  0  0  0  0  0  0  0
   11.4333  -16.4421   23.7192 O   0  0  0  0  0  0  0  0  0  0  0  0
  2  1  1  0
  2  3  1  0
  3 11  1  0
  4  3  2  0
  6  5  1  0
  6  8  1  0
  7  6  2  0
  9  8  1  0
 10  9  1  1
 11 10  1  0
 12 10  1  0
 12 14  1  0
 13 12  2  0
 14 15  1  0
 15 18  1  0
 15 16  1  6
 16 17  1  0
 18 20  2  0
 18 19  1  0
M  END
$$$$
