GQC.pdb
     RDKit          3D

 20 19  0  0  1  0  0  0  0  0999 V2000
    7.4333  -19.2840   19.0762 N   0  0  0  0  0  0  0  0  0  0  0  0
    6.7700  -18.0880   19.5464 C   0  0  0  0  0  0  0  0  0  0  0  0
    7.7648  -16.9976   19.6324 C   0  0  0  0  0  0  0  0  0  0  0  0
    8.9835  -17.2745   19.5511 O   0  0  0  0  0  0  0  0  0  0  0  0
    9.3727  -13.2796   17.4056 N   0  0  0  0  0  0  0  0  0  0  0  0
    7.9657  -13.3009   17.3117 C   0  0  0  0  0  0  0  0  0  0  0  0
    7.4968  -13.4459   16.1330 O   0  0  0  0  0  0  0  0  0  0  0  0
    7.0595  -13.1680   18.4719 C   0  0  0  0  0  0  0  0  0  0  0  0
    7.8797  -13.2347   19.7362 C   0  0  0  0  0  0  0  0  0  0  0  0
    8.4136  -14.6256   19.9984 C   0  0  2  0  0  0  0  0  0  0  0  0
    7.4127  -15.6334   19.8046 N   0  0  0  0  0  0  0  0  0  0  0  0
    8.9613  -14.6171   21.3763 C   0  0  0  0  0  0  0  0  0  0  0  0
    9.9097  -13.8312   21.6077 O   0  0  0  0  0  0  0  0  0  0  0  0
    8.4700  -15.4412   22.4213 N   0  0  0  0  0  0  0  0  0  0  0  0
    9.1351  -15.4540   23.6906 C   0  0  1  0  0  0  0  0  0  0  0  0
    8.2415  -15.0797   24.8420 C   0  0  0  0  0  0  0  0  0  0  0  0
    9.0386  -15.2106   26.4397 S   0  0  0  0  0  0  0  0  0  0  0  0
    9.6298  -16.8290   23.9445 C   0  0  0  0  0  0  0  0  0  0  0  0
   10.4771  -17.0414   25.0197 O   0  0  0  0  0  0  0  0  0  0  0  0
    9.2852  -17.7902   23.1941 O   0  0  0  0  0  0  0  0  0  0  0  0
  2  1  1  0
  2  3  1  0
  3 11  1  0
  4  3  2  0
  6  5  1  0
  6  8  1  0
  7  6  2  0
  9  8  1  0
 10  9  1  1
 11 10  1  0
 12 10  1  0
 12 14  1  0
 13 12  2  0
 14 15  1  0
 15 18  1  0
 15 16  1  1
 16 17  1  0
 18 20  2  0
 18 19  1  0
M  END
$$$$
