GQC.pdb
     RDKit          3D

 20 19  0  0  1  0  0  0  0  0999 V2000
    5.5710  -18.1128   19.8518 N   0  0  0  0  0  0  0  0  0  0  0  0
    6.6545  -17.3674   20.4534 C   0  0  0  0  0  0  0  0  0  0  0  0
    6.3953  -17.2429   21.9037 C   0  0  0  0  0  0  0  0  0  0  0  0
    5.2143  -17.1363   22.3065 O   0  0  0  0  0  0  0  0  0  0  0  0
    8.3042  -20.2131   26.8231 N   0  0  0  0  0  0  0  0  0  0  0  0
    7.7378  -19.0530   27.3910 C   0  0  0  0  0  0  0  0  0  0  0  0
    7.6303  -19.0616   28.6632 O   0  0  0  0  0  0  0  0  0  0  0  0
    7.2866  -17.8856   26.6046 C   0  0  0  0  0  0  0  0  0  0  0  0
    7.5974  -18.1334   25.1494 C   0  0  0  0  0  0  0  0  0  0  0  0
    7.1348  -16.9969   24.2646 C   0  0  2  0  0  0  0  0  0  0  0  0
    7.4243  -17.2373   22.8814 N   0  0  0  0  0  0  0  0  0  0  0  0
    7.7812  -15.7666   24.7817 C   0  0  0  0  0  0  0  0  0  0  0  0
    8.9536  -15.5365   24.4032 O   0  0  0  0  0  0  0  0  0  0  0  0
    7.1449  -14.8583   25.6665 N   0  0  0  0  0  0  0  0  0  0  0  0
    7.8784  -13.7457   26.1934 C   0  0  1  0  0  0  0  0  0  0  0  0
    7.0019  -12.6556   26.7482 C   0  0  0  0  0  0  0  0  0  0  0  0
    5.6206  -12.2376   25.6888 S   0  0  0  0  0  0  0  0  0  0  0  0
    8.7327  -14.2333   27.3035 C   0  0  0  0  0  0  0  0  0  0  0  0
    9.6000  -13.3421   27.9141 O   0  0  0  0  0  0  0  0  0  0  0  0
    8.6712  -15.4397   27.6863 O   0  0  0  0  0  0  0  0  0  0  0  0
  2  1  1  0
  2  3  1  0
  3 11  1  0
  4  3  2  0
  6  5  1  0
  6  8  1  0
  7  6  2  0
  9  8  1  0
 10  9  1  1
 11 10  1  0
 12 10  1  0
 12 14  1  0
 13 12  2  0
 14 15  1  0
 15 18  1  0
 15 16  1  1
 16 17  1  0
 18 20  2  0
 18 19  1  0
M  END
$$$$
