GQC.pdb
     RDKit          3D

 20 19  0  0  1  0  0  0  0  0999 V2000
    6.2895  -17.5130   19.5692 N   0  0  0  0  0  0  0  0  0  0  0  0
    7.2956  -16.7593   20.2842 C   0  0  0  0  0  0  0  0  0  0  0  0
    6.8800  -16.6374   21.6979 C   0  0  0  0  0  0  0  0  0  0  0  0
    5.6676  -16.4753   21.9666 O   0  0  0  0  0  0  0  0  0  0  0  0
    8.1980  -19.8926   26.6041 N   0  0  0  0  0  0  0  0  0  0  0  0
    7.1962  -19.9952   25.6167 C   0  0  0  0  0  0  0  0  0  0  0  0
    6.5990  -21.1221   25.5563 O   0  0  0  0  0  0  0  0  0  0  0  0
    6.8312  -18.8988   24.6949 C   0  0  0  0  0  0  0  0  0  0  0  0
    7.6836  -17.6955   25.0132 C   0  0  0  0  0  0  0  0  0  0  0  0
    7.3481  -16.5094   24.1363 C   0  0  2  0  0  0  0  0  0  0  0  0
    7.7904  -16.6946   22.7854 N   0  0  0  0  0  0  0  0  0  0  0  0
    7.9541  -15.3198   24.7815 C   0  0  0  0  0  0  0  0  0  0  0  0
    9.1686  -15.1066   24.5574 O   0  0  0  0  0  0  0  0  0  0  0  0
    7.2356  -14.4319   25.6229 N   0  0  0  0  0  0  0  0  0  0  0  0
    7.9261  -13.3686   26.2910 C   0  0  1  0  0  0  0  0  0  0  0  0
    7.0108  -12.3069   26.8381 C   0  0  0  0  0  0  0  0  0  0  0  0
    5.5637  -12.0164   25.8249 S   0  0  0  0  0  0  0  0  0  0  0  0
    8.6705  -13.9436   27.4379 C   0  0  0  0  0  0  0  0  0  0  0  0
    9.5243  -13.1208   28.1543 O   0  0  0  0  0  0  0  0  0  0  0  0
    8.5291  -15.1618   27.7566 O   0  0  0  0  0  0  0  0  0  0  0  0
  2  1  1  0
  2  3  1  0
  3 11  1  0
  4  3  2  0
  6  5  1  0
  6  8  1  0
  7  6  2  0
  9  8  1  0
 10  9  1  1
 11 10  1  0
 12 10  1  0
 12 14  1  0
 13 12  2  0
 14 15  1  0
 15 18  1  0
 15 16  1  1
 16 17  1  0
 18 20  2  0
 18 19  1  0
M  END
$$$$
