GQC.pdb
     RDKit          3D

 20 19  0  0  1  0  0  0  0  0999 V2000
   -2.5696  -26.7307   24.2581 N   0  0  0  0  0  0  0  0  0  0  0  0
   -4.0071  -26.7302   24.0996 C   0  0  0  0  0  0  0  0  0  0  0  0
   -4.5893  -25.7714   25.0629 C   0  0  0  0  0  0  0  0  0  0  0  0
   -3.9011  -25.3903   26.0373 O   0  0  0  0  0  0  0  0  0  0  0  0
   -9.4642  -21.7888   24.2355 N   0  0  0  0  0  0  0  0  0  0  0  0
   -8.9243  -21.4806   25.5015 C   0  0  0  0  0  0  0  0  0  0  0  0
   -9.3422  -20.3943   26.0262 O   0  0  0  0  0  0  0  0  0  0  0  0
   -7.9407  -22.3287   26.2073 C   0  0  0  0  0  0  0  0  0  0  0  0
   -7.5243  -23.4519   25.2902 C   0  0  0  0  0  0  0  0  0  0  0  0
   -6.4087  -24.2867   25.8792 C   0  0  2  0  0  0  0  0  0  0  0  0
   -5.9040  -25.2497   24.9450 N   0  0  0  0  0  0  0  0  0  0  0  0
   -6.9502  -24.9100   27.1109 C   0  0  0  0  0  0  0  0  0  0  0  0
   -7.7394  -25.8722   26.9632 O   0  0  0  0  0  0  0  0  0  0  0  0
   -6.6214  -24.4747   28.4206 N   0  0  0  0  0  0  0  0  0  0  0  0
   -7.1286  -25.1869   29.5559 C   0  0  1  0  0  0  0  0  0  0  0  0
   -6.0641  -25.5808   30.5440 C   0  0  0  0  0  0  0  0  0  0  0  0
   -6.7166  -26.1717   32.1029 S   0  0  0  0  0  0  0  0  0  0  0  0
   -8.0882  -24.3081   30.2678 C   0  0  0  0  0  0  0  0  0  0  0  0
   -9.1743  -24.8883   30.9026 O   0  0  0  0  0  0  0  0  0  0  0  0
   -7.9191  -23.0525   30.2952 O   0  0  0  0  0  0  0  0  0  0  0  0
  2  1  1  0
  2  3  1  0
  3 11  1  0
  4  3  2  0
  6  5  1  0
  6  8  1  0
  7  6  2  0
  9  8  1  0
 10  9  1  6
 11 10  1  0
 12 10  1  0
 12 14  1  0
 13 12  2  0
 14 15  1  0
 15 18  1  0
 15 16  1  1
 16 17  1  0
 18 20  2  0
 18 19  1  0
M  END
$$$$
