GQC.pdb
     RDKit          3D

 20 19  0  0  1  0  0  0  0  0999 V2000
    4.2011  -19.2594   21.4567 N   0  0  0  0  0  0  0  0  0  0  0  0
    5.1966  -18.2103   21.4508 C   0  0  0  0  0  0  0  0  0  0  0  0
    5.5939  -17.9270   22.8465 C   0  0  0  0  0  0  0  0  0  0  0  0
    4.7174  -17.9145   23.7409 O   0  0  0  0  0  0  0  0  0  0  0  0
    6.8381  -18.8415   28.3183 N   0  0  0  0  0  0  0  0  0  0  0  0
    7.7554  -19.2075   27.3114 C   0  0  0  0  0  0  0  0  0  0  0  0
    7.8197  -20.4568   27.0560 O   0  0  0  0  0  0  0  0  0  0  0  0
    8.6029  -18.2439   26.5779 C   0  0  0  0  0  0  0  0  0  0  0  0
    8.3378  -18.3938   25.1003 C   0  0  0  0  0  0  0  0  0  0  0  0
    7.2757  -17.4347   24.6102 C   0  0  2  0  0  0  0  0  0  0  0  0
    6.9330  -17.6642   23.2374 N   0  0  0  0  0  0  0  0  0  0  0  0
    7.7950  -16.0669   24.8519 C   0  0  0  0  0  0  0  0  0  0  0  0
    8.7385  -15.6786   24.1240 O   0  0  0  0  0  0  0  0  0  0  0  0
    7.2824  -15.1975   25.8489 N   0  0  0  0  0  0  0  0  0  0  0  0
    7.9048  -13.9265   26.0737 C   0  0  1  0  0  0  0  0  0  0  0  0
    7.0427  -12.9618   26.8422 C   0  0  0  0  0  0  0  0  0  0  0  0
    5.4120  -12.7397   26.1375 S   0  0  0  0  0  0  0  0  0  0  0  0
    9.1386  -14.1448   26.8675 C   0  0  0  0  0  0  0  0  0  0  0  0
    9.9413  -13.0542   27.1596 O   0  0  0  0  0  0  0  0  0  0  0  0
    9.4528  -15.3044   27.2704 O   0  0  0  0  0  0  0  0  0  0  0  0
  2  1  1  0
  2  3  1  0
  3 11  1  0
  4  3  2  0
  6  5  1  0
  6  8  1  0
  7  6  2  0
  9  8  1  0
 10  9  1  6
 11 10  1  0
 12 10  1  0
 12 14  1  0
 13 12  2  0
 14 15  1  0
 15 18  1  0
 15 16  1  1
 16 17  1  0
 18 20  2  0
 18 19  1  0
M  END
$$$$
