GQC.pdb
     RDKit          3D

 20 19  0  0  1  0  0  0  0  0999 V2000
    7.5999  -19.3774   21.5515 N   0  0  0  0  0  0  0  0  0  0  0  0
    6.8583  -18.2047   21.9593 C   0  0  0  0  0  0  0  0  0  0  0  0
    7.7797  -17.0488   21.9898 C   0  0  0  0  0  0  0  0  0  0  0  0
    9.0096  -17.2441   21.8571 O   0  0  0  0  0  0  0  0  0  0  0  0
    8.3921  -12.2941   18.9203 N   0  0  0  0  0  0  0  0  0  0  0  0
    7.7231  -13.4007   19.4833 C   0  0  0  0  0  0  0  0  0  0  0  0
    7.9686  -14.5272   18.9348 O   0  0  0  0  0  0  0  0  0  0  0  0
    6.7939  -13.3072   20.6291 C   0  0  0  0  0  0  0  0  0  0  0  0
    7.5992  -13.2917   21.9047 C   0  0  0  0  0  0  0  0  0  0  0  0
    8.2745  -14.6190   22.1703 C   0  0  2  0  0  0  0  0  0  0  0  0
    7.3438  -15.7093   22.1637 N   0  0  0  0  0  0  0  0  0  0  0  0
    8.9885  -14.4807   23.4625 C   0  0  0  0  0  0  0  0  0  0  0  0
    9.7705  -13.5084   23.5803 O   0  0  0  0  0  0  0  0  0  0  0  0
    8.8290  -15.3806   24.5476 N   0  0  0  0  0  0  0  0  0  0  0  0
    9.4463  -15.0924   25.8083 C   0  0  1  0  0  0  0  0  0  0  0  0
    8.8881  -13.8705   26.4864 C   0  0  0  0  0  0  0  0  0  0  0  0
    9.6920  -13.4818   28.0381 S   0  0  0  0  0  0  0  0  0  0  0  0
    9.2167  -16.2439   26.7145 C   0  0  0  0  0  0  0  0  0  0  0  0
    9.9547  -16.3254   27.8841 O   0  0  0  0  0  0  0  0  0  0  0  0
    8.3634  -17.1352   26.4259 O   0  0  0  0  0  0  0  0  0  0  0  0
  2  1  1  0
  2  3  1  0
  3 11  1  0
  4  3  2  0
  6  5  1  0
  6  8  1  0
  7  6  2  0
  9  8  1  0
 10  9  1  1
 11 10  1  0
 12 10  1  0
 12 14  1  0
 13 12  2  0
 14 15  1  0
 15 18  1  0
 15 16  1  1
 16 17  1  0
 18 20  2  0
 18 19  1  0
M  END
$$$$
