AKL.pdb
     RDKit          3D

 23 22  0  0  1  0  0  0  0  0999 V2000
    8.5862  -12.1259   19.8396 C   0  0  0  0  0  0  0  0  0  0  0  0
    8.4986  -13.5560   19.2742 C   0  0  2  0  0  0  0  0  0  0  0  0
    7.4765  -13.4704   18.2404 N   0  0  0  0  0  0  0  0  0  0  0  0
    7.9451  -14.4338   20.3340 C   0  0  0  0  0  0  0  0  0  0  0  0
    6.6980  -14.3672   20.5113 O   0  0  0  0  0  0  0  0  0  0  0  0
    8.7352  -15.3110   21.1196 N   0  0  0  0  0  0  0  0  0  0  0  0
    8.1587  -16.0855   22.2125 C   0  0  1  0  0  0  0  0  0  0  0  0
    8.6245  -17.5159   21.9579 C   0  0  0  0  0  0  0  0  0  0  0  0
    8.1028  -18.4971   22.9493 C   0  0  0  0  0  0  0  0  0  0  0  0
    8.5015  -19.9039   22.5606 C   0  0  0  0  0  0  0  0  0  0  0  0
    7.8544  -20.9751   23.4052 C   0  0  0  0  0  0  0  0  0  0  0  0
    8.1667  -22.2834   22.8586 N   0  0  0  0  0  0  0  0  0  0  0  0
    8.4857  -15.6172   23.5422 C   0  0  0  0  0  0  0  0  0  0  0  0
    9.6783  -15.2988   23.8148 O   0  0  0  0  0  0  0  0  0  0  0  0
    5.3721  -12.2824   26.6792 C   0  0  0  0  0  0  0  0  0  0  0  0
    6.7047  -12.8291   26.0744 C   0  0  1  0  0  0  0  0  0  0  0  0
    7.7491  -11.8452   26.5517 C   0  0  0  0  0  0  0  0  0  0  0  0
    6.8536  -14.2290   26.5201 C   0  0  0  0  0  0  0  0  0  0  0  0
    7.9442  -15.0483   25.9566 C   0  0  2  0  0  0  0  0  0  0  0  0
    7.5382  -15.4887   24.5755 N   0  0  0  0  0  0  0  0  0  0  0  0
    8.4040  -16.2401   26.6226 C   0  0  0  0  0  0  0  0  0  0  0  0
    9.4606  -16.1692   27.5525 O   0  0  0  0  0  0  0  0  0  0  0  0
    7.9353  -17.3715   26.4475 O   0  0  0  0  0  0  0  0  0  0  0  0
  2  1  1  1
  2  3  1  0
  2  4  1  0
  4  5  2  0
  6  4  1  0
  6  7  1  0
  7 13  1  0
  7  8  1  1
  9  8  1  0
  9 10  1  0
 10 11  1  0
 11 12  1  0
 13 14  2  0
 16 15  1  1
 16 18  1  0
 17 16  1  0
 19 18  1  1
 19 21  1  0
 20 19  1  0
 20 13  1  0
 21 23  2  0
 21 22  1  0
M  END
$$$$
