AKL.pdb
     RDKit          3D

 23 22  0  0  1  0  0  0  0  0999 V2000
    5.4197  -19.2780   24.6675 C   0  0  0  0  0  0  0  0  0  0  0  0
    5.6222  -19.3363   23.1416 C   0  0  2  0  0  0  0  0  0  0  0  0
    6.2696  -20.6210   22.9152 N   0  0  0  0  0  0  0  0  0  0  0  0
    6.6162  -18.2993   22.7722 C   0  0  0  0  0  0  0  0  0  0  0  0
    7.8119  -18.5403   23.0936 O   0  0  0  0  0  0  0  0  0  0  0  0
    6.2838  -17.0983   22.0954 N   0  0  0  0  0  0  0  0  0  0  0  0
    7.2368  -16.0011   21.9748 C   0  0  1  0  0  0  0  0  0  0  0  0
    6.7071  -15.1564   20.8200 C   0  0  0  0  0  0  0  0  0  0  0  0
    7.5860  -14.0054   20.4723 C   0  0  0  0  0  0  0  0  0  0  0  0
    7.8404  -13.9663   18.9815 C   0  0  0  0  0  0  0  0  0  0  0  0
    8.6783  -12.7913   18.5378 C   0  0  0  0  0  0  0  0  0  0  0  0
    8.7712  -12.7766   17.0889 N   0  0  0  0  0  0  0  0  0  0  0  0
    7.4498  -15.2312   23.1816 C   0  0  0  0  0  0  0  0  0  0  0  0
    6.5473  -14.4433   23.5852 O   0  0  0  0  0  0  0  0  0  0  0  0
    8.1558  -11.7153   26.4442 C   0  0  0  0  0  0  0  0  0  0  0  0
    7.4383  -13.0592   26.7899 C   0  0  1  0  0  0  0  0  0  0  0  0
    6.0588  -12.6287   27.2353 C   0  0  0  0  0  0  0  0  0  0  0  0
    7.5144  -13.9237   25.5952 C   0  0  0  0  0  0  0  0  0  0  0  0
    8.8331  -14.4115   25.1464 C   0  0  2  0  0  0  0  0  0  0  0  0
    8.6243  -15.3065   23.9540 N   0  0  0  0  0  0  0  0  0  0  0  0
    9.6996  -15.1452   26.0331 C   0  0  0  0  0  0  0  0  0  0  0  0
    9.7093  -16.5543   26.0085 O   0  0  0  0  0  0  0  0  0  0  0  0
   10.4724  -14.6302   26.8503 O   0  0  0  0  0  0  0  0  0  0  0  0
  2  1  1  1
  2  3  1  0
  2  4  1  0
  4  5  2  0
  6  4  1  0
  6  7  1  0
  7 13  1  0
  7  8  1  6
  9  8  1  0
  9 10  1  0
 10 11  1  0
 11 12  1  0
 13 14  2  0
 16 15  1  6
 16 18  1  0
 17 16  1  0
 19 18  1  1
 19 21  1  0
 20 19  1  0
 20 13  1  0
 21 23  2  0
 21 22  1  0
M  END
$$$$
