AKL.pdb
     RDKit          3D

 23 22  0  0  1  0  0  0  0  0999 V2000
    7.2838  -12.9549   18.7612 C   0  0  0  0  0  0  0  0  0  0  0  0
    8.5225  -13.3540   19.5851 C   0  0  2  0  0  0  0  0  0  0  0  0
    9.1746  -14.3766   18.7789 N   0  0  0  0  0  0  0  0  0  0  0  0
    8.0528  -14.0332   20.8173 C   0  0  0  0  0  0  0  0  0  0  0  0
    7.3863  -13.3238   21.6195 O   0  0  0  0  0  0  0  0  0  0  0  0
    8.3130  -15.3959   21.1110 N   0  0  0  0  0  0  0  0  0  0  0  0
    7.8813  -16.0024   22.3649 C   0  0  1  0  0  0  0  0  0  0  0  0
    8.1745  -17.4899   22.1939 C   0  0  0  0  0  0  0  0  0  0  0  0
    8.7066  -17.8407   20.8478 C   0  0  0  0  0  0  0  0  0  0  0  0
    8.9786  -19.3263   20.7580 C   0  0  0  0  0  0  0  0  0  0  0  0
    9.5684  -19.7581   19.4369 C   0  0  0  0  0  0  0  0  0  0  0  0
    9.8396  -21.1842   19.4656 N   0  0  0  0  0  0  0  0  0  0  0  0
    8.4798  -15.4463   23.5595 C   0  0  0  0  0  0  0  0  0  0  0  0
    9.7047  -15.1335   23.5548 O   0  0  0  0  0  0  0  0  0  0  0  0
    5.6890  -12.0559   26.8668 C   0  0  0  0  0  0  0  0  0  0  0  0
    6.8236  -12.6210   25.9535 C   0  0  1  0  0  0  0  0  0  0  0  0
    7.7178  -11.4268   25.7068 C   0  0  0  0  0  0  0  0  0  0  0  0
    7.4262  -13.7725   26.6545 C   0  0  0  0  0  0  0  0  0  0  0  0
    8.4298  -14.5946   25.9507 C   0  0  2  0  0  0  0  0  0  0  0  0
    7.7685  -15.2241   24.7537 N   0  0  0  0  0  0  0  0  0  0  0  0
    9.1188  -15.6680   26.6204 C   0  0  0  0  0  0  0  0  0  0  0  0
   10.1517  -15.3842   27.5363 O   0  0  0  0  0  0  0  0  0  0  0  0
    8.8762  -16.8704   26.4605 O   0  0  0  0  0  0  0  0  0  0  0  0
  2  1  1  6
  2  3  1  0
  2  4  1  0
  4  5  2  0
  6  4  1  0
  6  7  1  0
  7 13  1  0
  7  8  1  6
  9  8  1  0
  9 10  1  0
 10 11  1  0
 11 12  1  0
 13 14  2  0
 16 15  1  1
 16 18  1  0
 17 16  1  0
 19 18  1  1
 19 21  1  0
 20 19  1  0
 20 13  1  0
 21 23  2  0
 21 22  1  0
M  END
$$$$
