AKL.pdb
     RDKit          3D

 23 22  0  0  1  0  0  0  0  0999 V2000
    6.0734  -19.3672   26.3547 C   0  0  0  0  0  0  0  0  0  0  0  0
    5.8675  -19.5380   24.8378 C   0  0  2  0  0  0  0  0  0  0  0  0
    6.2260  -20.9260   24.5818 N   0  0  0  0  0  0  0  0  0  0  0  0
    6.8838  -18.7112   24.1423 C   0  0  0  0  0  0  0  0  0  0  0  0
    8.0400  -19.2089   24.0616 O   0  0  0  0  0  0  0  0  0  0  0  0
    6.6116  -17.4359   23.5852 N   0  0  0  0  0  0  0  0  0  0  0  0
    7.6761  -16.5904   23.0575 C   0  0  1  0  0  0  0  0  0  0  0  0
    6.9941  -15.7283   21.9995 C   0  0  0  0  0  0  0  0  0  0  0  0
    7.9425  -14.8980   21.2063 C   0  0  0  0  0  0  0  0  0  0  0  0
    7.2066  -14.1525   20.1147 C   0  0  0  0  0  0  0  0  0  0  0  0
    8.1048  -13.3100   19.2413 C   0  0  0  0  0  0  0  0  0  0  0  0
    7.3005  -12.5580   18.2948 N   0  0  0  0  0  0  0  0  0  0  0  0
    8.3909  -15.8082   24.0432 C   0  0  0  0  0  0  0  0  0  0  0  0
    7.8512  -14.7726   24.5274 O   0  0  0  0  0  0  0  0  0  0  0  0
    9.6236  -13.0602   27.7197 C   0  0  0  0  0  0  0  0  0  0  0  0
   10.0244  -14.5516   27.9558 C   0  0  1  0  0  0  0  0  0  0  0  0
    9.3910  -14.8901   29.2866 C   0  0  0  0  0  0  0  0  0  0  0  0
    9.5684  -15.3252   26.7836 C   0  0  0  0  0  0  0  0  0  0  0  0
   10.3711  -15.2902   25.5455 C   0  0  2  0  0  0  0  0  0  0  0  0
    9.6781  -16.1352   24.5100 N   0  0  0  0  0  0  0  0  0  0  0  0
   11.7469  -15.7172   25.5349 C   0  0  0  0  0  0  0  0  0  0  0  0
   12.7797  -14.7751   25.3566 O   0  0  0  0  0  0  0  0  0  0  0  0
   12.1236  -16.8871   25.6758 O   0  0  0  0  0  0  0  0  0  0  0  0
  2  1  1  1
  2  3  1  0
  2  4  1  0
  4  5  2  0
  6  4  1  0
  6  7  1  0
  7 13  1  0
  7  8  1  6
  9  8  1  0
  9 10  1  0
 10 11  1  0
 11 12  1  0
 13 14  2  0
 16 15  1  6
 16 18  1  0
 17 16  1  0
 19 18  1  1
 19 21  1  0
 20 19  1  0
 20 13  1  0
 21 23  2  0
 21 22  1  0
M  END
$$$$
