AKL.pdb
     RDKit          3D

 23 22  0  0  1  0  0  0  0  0999 V2000
    5.8664  -18.7442   24.4270 C   0  0  0  0  0  0  0  0  0  0  0  0
    6.2927  -18.6426   22.9504 C   0  0  2  0  0  0  0  0  0  0  0  0
    6.9046  -19.9329   22.6647 N   0  0  0  0  0  0  0  0  0  0  0  0
    7.3794  -17.6374   22.8561 C   0  0  0  0  0  0  0  0  0  0  0  0
    8.5369  -18.0460   23.1465 O   0  0  0  0  0  0  0  0  0  0  0  0
    7.1718  -16.2906   22.4640 N   0  0  0  0  0  0  0  0  0  0  0  0
    8.2696  -15.3319   22.4152 C   0  0  1  0  0  0  0  0  0  0  0  0
    7.8533  -14.3243   21.3479 C   0  0  0  0  0  0  0  0  0  0  0  0
    8.2475  -14.7220   19.9679 C   0  0  0  0  0  0  0  0  0  0  0  0
    8.0133  -13.5813   19.0020 C   0  0  0  0  0  0  0  0  0  0  0  0
    8.2795  -13.9407   17.5599 C   0  0  0  0  0  0  0  0  0  0  0  0
    8.0346  -12.7854   16.7152 N   0  0  0  0  0  0  0  0  0  0  0  0
    8.6018  -14.7070   23.6777 C   0  0  0  0  0  0  0  0  0  0  0  0
    8.6672  -13.4466   23.7507 O   0  0  0  0  0  0  0  0  0  0  0  0
    5.7023  -12.4907   26.4081 C   0  0  0  0  0  0  0  0  0  0  0  0
    7.1263  -12.8722   25.8912 C   0  0  1  0  0  0  0  0  0  0  0  0
    8.0050  -11.7460   26.3875 C   0  0  0  0  0  0  0  0  0  0  0  0
    7.4323  -14.2274   26.3913 C   0  0  0  0  0  0  0  0  0  0  0  0
    8.7933  -14.7683   26.2086 C   0  0  2  0  0  0  0  0  0  0  0  0
    8.8608  -15.4295   24.8577 N   0  0  0  0  0  0  0  0  0  0  0  0
    9.3484  -15.7228   27.1340 C   0  0  0  0  0  0  0  0  0  0  0  0
    9.7250  -17.0055   26.6878 O   0  0  0  0  0  0  0  0  0  0  0  0
    9.5353  -15.5112   28.3384 O   0  0  0  0  0  0  0  0  0  0  0  0
  2  1  1  1
  2  3  1  0
  2  4  1  0
  4  5  2  0
  6  4  1  0
  6  7  1  0
  7 13  1  0
  7  8  1  6
  9  8  1  0
  9 10  1  0
 10 11  1  0
 11 12  1  0
 13 14  2  0
 16 15  1  1
 16 18  1  0
 17 16  1  0
 19 18  1  1
 19 21  1  0
 20 19  1  0
 20 13  1  0
 21 23  2  0
 21 22  1  0
M  END
$$$$
