AKL.pdb
     RDKit          3D

 23 22  0  0  1  0  0  0  0  0999 V2000
    8.4993  -12.1923   19.2799 C   0  0  0  0  0  0  0  0  0  0  0  0
    8.5865  -13.6429   18.7694 C   0  0  2  0  0  0  0  0  0  0  0  0
    7.4473  -13.7758   17.8720 N   0  0  0  0  0  0  0  0  0  0  0  0
    8.3212  -14.5476   19.9145 C   0  0  0  0  0  0  0  0  0  0  0  0
    7.1098  -14.6937   20.2342 O   0  0  0  0  0  0  0  0  0  0  0  0
    9.3388  -15.2281   20.6302 N   0  0  0  0  0  0  0  0  0  0  0  0
    9.0341  -16.0451   21.7991 C   0  0  1  0  0  0  0  0  0  0  0  0
    9.9689  -17.2453   21.6839 C   0  0  0  0  0  0  0  0  0  0  0  0
    9.8147  -18.2284   22.7921 C   0  0  0  0  0  0  0  0  0  0  0  0
   10.7258  -19.4166   22.5749 C   0  0  0  0  0  0  0  0  0  0  0  0
   10.6517  -20.4489   23.6741 C   0  0  0  0  0  0  0  0  0  0  0  0
   11.6268  -21.4961   23.4275 N   0  0  0  0  0  0  0  0  0  0  0  0
    9.1450  -15.3677   23.0732 C   0  0  0  0  0  0  0  0  0  0  0  0
   10.2141  -14.7588   23.3640 O   0  0  0  0  0  0  0  0  0  0  0  0
    7.9396  -11.5665   26.3853 C   0  0  0  0  0  0  0  0  0  0  0  0
    6.9024  -12.7269   26.5201 C   0  0  1  0  0  0  0  0  0  0  0  0
    5.5770  -12.0128   26.6620 C   0  0  0  0  0  0  0  0  0  0  0  0
    7.0642  -13.6062   25.3449 C   0  0  0  0  0  0  0  0  0  0  0  0
    8.2303  -14.5087   25.2803 C   0  0  2  0  0  0  0  0  0  0  0  0
    8.1140  -15.3410   24.0313 N   0  0  0  0  0  0  0  0  0  0  0  0
    8.5128  -15.4414   26.3412 C   0  0  0  0  0  0  0  0  0  0  0  0
    9.5852  -15.2058   27.2247 O   0  0  0  0  0  0  0  0  0  0  0  0
    7.8715  -16.4764   26.5600 O   0  0  0  0  0  0  0  0  0  0  0  0
  2  1  1  1
  2  3  1  0
  2  4  1  0
  4  5  2  0
  6  4  1  0
  6  7  1  0
  7 13  1  0
  7  8  1  1
  9  8  1  0
  9 10  1  0
 10 11  1  0
 11 12  1  0
 13 14  2  0
 16 15  1  6
 16 18  1  0
 17 16  1  0
 19 18  1  1
 19 21  1  0
 20 19  1  0
 20 13  1  0
 21 23  2  0
 21 22  1  0
M  END
$$$$
