AKL.pdb
     RDKit          3D

 23 22  0  0  1  0  0  0  0  0999 V2000
    6.2857  -18.7886   23.8737 C   0  0  0  0  0  0  0  0  0  0  0  0
    6.3514  -18.5810   22.3489 C   0  0  2  0  0  0  0  0  0  0  0  0
    6.7469  -19.8818   21.8271 N   0  0  0  0  0  0  0  0  0  0  0  0
    7.4764  -17.6582   22.0609 C   0  0  0  0  0  0  0  0  0  0  0  0
    8.6164  -18.1896   21.9654 O   0  0  0  0  0  0  0  0  0  0  0  0
    7.3212  -16.2588   21.8929 N   0  0  0  0  0  0  0  0  0  0  0  0
    8.4720  -15.3655   21.8274 C   0  0  1  0  0  0  0  0  0  0  0  0
    8.0481  -14.2619   20.8629 C   0  0  0  0  0  0  0  0  0  0  0  0
    8.0624  -14.6822   19.4342 C   0  0  0  0  0  0  0  0  0  0  0  0
    8.0353  -13.4716   18.5271 C   0  0  0  0  0  0  0  0  0  0  0  0
    8.1073  -13.8107   17.0576 C   0  0  0  0  0  0  0  0  0  0  0  0
    8.0497  -12.5914   16.2713 N   0  0  0  0  0  0  0  0  0  0  0  0
    8.9301  -14.8525   23.1007 C   0  0  0  0  0  0  0  0  0  0  0  0
    9.5081  -13.7291   23.1481 O   0  0  0  0  0  0  0  0  0  0  0  0
    8.1876  -11.7081   26.6694 C   0  0  0  0  0  0  0  0  0  0  0  0
    7.2560  -12.9621   26.6785 C   0  0  1  0  0  0  0  0  0  0  0  0
    5.8621  -12.3769   26.7152 C   0  0  0  0  0  0  0  0  0  0  0  0
    7.6043  -13.7830   25.5015 C   0  0  0  0  0  0  0  0  0  0  0  0
    8.6683  -14.7983   25.6255 C   0  0  2  0  0  0  0  0  0  0  0  0
    8.7680  -15.5392   24.3188 N   0  0  0  0  0  0  0  0  0  0  0  0
    8.6147  -15.8161   26.6436 C   0  0  0  0  0  0  0  0  0  0  0  0
    9.4116  -15.7034   27.8005 O   0  0  0  0  0  0  0  0  0  0  0  0
    7.9006  -16.8251   26.5956 O   0  0  0  0  0  0  0  0  0  0  0  0
  2  1  1  1
  2  3  1  0
  2  4  1  0
  4  5  2  0
  6  4  1  0
  6  7  1  0
  7 13  1  0
  7  8  1  6
  9  8  1  0
  9 10  1  0
 10 11  1  0
 11 12  1  0
 13 14  2  0
 16 15  1  6
 16 18  1  0
 17 16  1  0
 19 18  1  6
 19 21  1  0
 20 19  1  0
 20 13  1  0
 21 23  2  0
 21 22  1  0
M  END
$$$$
