AKL.pdb
     RDKit          3D

 23 22  0  0  1  0  0  0  0  0999 V2000
    8.2620  -12.1750   19.5322 C   0  0  0  0  0  0  0  0  0  0  0  0
    8.4593  -13.6638   19.1898 C   0  0  2  0  0  0  0  0  0  0  0  0
    7.4457  -13.9365   18.1804 N   0  0  0  0  0  0  0  0  0  0  0  0
    8.0831  -14.4612   20.3825 C   0  0  0  0  0  0  0  0  0  0  0  0
    6.8494  -14.5260   20.6373 O   0  0  0  0  0  0  0  0  0  0  0  0
    9.0221  -15.1282   21.2097 N   0  0  0  0  0  0  0  0  0  0  0  0
    8.6000  -15.9185   22.3603 C   0  0  1  0  0  0  0  0  0  0  0  0
    9.2512  -17.2821   22.1504 C   0  0  0  0  0  0  0  0  0  0  0  0
    8.6435  -18.0674   21.0404 C   0  0  0  0  0  0  0  0  0  0  0  0
    9.3510  -19.3955   20.8837 C   0  0  0  0  0  0  0  0  0  0  0  0
    8.8864  -20.1953   19.6904 C   0  0  0  0  0  0  0  0  0  0  0  0
    9.5950  -21.4618   19.6451 N   0  0  0  0  0  0  0  0  0  0  0  0
    8.9070  -15.3430   23.6522 C   0  0  0  0  0  0  0  0  0  0  0  0
   10.0786  -14.9305   23.8879 O   0  0  0  0  0  0  0  0  0  0  0  0
    5.6647  -11.9865   26.6761 C   0  0  0  0  0  0  0  0  0  0  0  0
    6.9227  -12.5635   25.9516 C   0  0  1  0  0  0  0  0  0  0  0  0
    7.9632  -11.4782   26.1138 C   0  0  0  0  0  0  0  0  0  0  0  0
    7.2246  -13.8740   26.5614 C   0  0  0  0  0  0  0  0  0  0  0  0
    8.3537  -14.6660   26.0358 C   0  0  2  0  0  0  0  0  0  0  0  0
    7.9622  -15.2080   24.6870 N   0  0  0  0  0  0  0  0  0  0  0  0
    8.8814  -15.7903   26.7657 C   0  0  0  0  0  0  0  0  0  0  0  0
    9.8017  -15.5860   27.8133 O   0  0  0  0  0  0  0  0  0  0  0  0
    8.5874  -16.9724   26.5498 O   0  0  0  0  0  0  0  0  0  0  0  0
  2  1  1  1
  2  3  1  0
  2  4  1  0
  4  5  2  0
  6  4  1  0
  6  7  1  0
  7 13  1  0
  7  8  1  1
  9  8  1  0
  9 10  1  0
 10 11  1  0
 11 12  1  0
 13 14  2  0
 16 15  1  1
 16 18  1  0
 17 16  1  0
 19 18  1  1
 19 21  1  0
 20 19  1  0
 20 13  1  0
 21 23  2  0
 21 22  1  0
M  END
$$$$
