PYG.pdb
     RDKit          3D

 24 25  0  0  1  0  0  0  0  0999 V2000
    7.8041  -15.4903   18.6314 N   0  0  0  0  0  0  0  0  0  0  0  0
    7.6810  -15.2373   17.2060 C   0  0  0  0  0  0  0  0  0  0  0  0
    7.6580  -13.7217   17.1151 C   0  0  0  0  0  0  0  0  0  0  0  0
    8.1636  -13.2265   18.4684 C   0  0  0  0  0  0  0  0  0  0  0  0
    8.7358  -14.4920   19.0520 C   0  0  1  0  0  0  0  0  0  0  0  0
    8.8694  -14.3676   20.5057 C   0  0  0  0  0  0  0  0  0  0  0  0
   10.0137  -14.1426   20.9784 O   0  0  0  0  0  0  0  0  0  0  0  0
    7.1020  -12.6345   29.0019 O   0  0  0  0  0  0  0  0  0  0  0  0
    7.0081  -12.8801   27.6285 C   0  0  0  0  0  0  0  0  0  0  0  0
    7.5673  -12.0091   26.7173 C   0  0  0  0  0  0  0  0  0  0  0  0
    7.4793  -12.2447   25.3475 C   0  0  0  0  0  0  0  0  0  0  0  0
    6.8315  -13.3547   24.8462 C   0  0  0  0  0  0  0  0  0  0  0  0
    6.7636  -13.5633   23.3770 C   0  0  0  0  0  0  0  0  0  0  0  0
    7.9767  -14.3035   22.8604 C   0  0  2  0  0  0  0  0  0  0  0  0
    7.7979  -14.4821   21.4334 N   0  0  0  0  0  0  0  0  0  0  0  0
    8.1426  -15.6070   23.5078 C   0  0  0  0  0  0  0  0  0  0  0  0
    7.2479  -16.4752   23.4192 O   0  0  0  0  0  0  0  0  0  0  0  0
    6.2743  -14.2221   25.7619 C   0  0  0  0  0  0  0  0  0  0  0  0
    6.3610  -13.9889   27.1292 C   0  0  0  0  0  0  0  0  0  0  0  0
    9.3087  -15.9614   24.2634 N   0  0  0  0  0  0  0  0  0  0  0  0
    9.4915  -17.2512   24.8502 C   0  0  0  0  0  0  0  0  0  0  0  0
   10.7797  -17.3784   25.5744 C   0  0  0  0  0  0  0  0  0  0  0  0
   11.0591  -18.4514   26.1620 O   0  0  0  0  0  0  0  0  0  0  0  0
   11.7054  -16.3507   25.6341 O   0  0  0  0  0  0  0  0  0  0  0  0
  1  5  1  0
  1  2  1  0
  2  3  1  0
  4  3  1  0
  5  4  1  0
  6  7  2  0
  5  6  1  1
  8  9  1  0
  9 19  2  0
  9 10  1  0
 10 11  2  0
 11 12  1  0
 12 13  1  0
 14 13  1  1
 14 15  1  0
 15  6  1  0
 16 14  1  0
 16 20  1  0
 17 16  2  0
 18 12  2  0
 19 18  1  0
 21 20  1  0
 21 22  1  0
 22 24  1  0
 23 22  2  0
M  END
$$$$
