PYG.pdb
     RDKit          3D

 24 25  0  0  1  0  0  0  0  0999 V2000
    7.5547  -16.5531   21.7367 N   0  0  0  0  0  0  0  0  0  0  0  0
    6.8531  -16.3803   20.4761 C   0  0  0  0  0  0  0  0  0  0  0  0
    6.7412  -14.8724   20.3360 C   0  0  0  0  0  0  0  0  0  0  0  0
    7.7359  -14.2967   21.3415 C   0  0  0  0  0  0  0  0  0  0  0  0
    8.5408  -15.5198   21.6957 C   0  0  1  0  0  0  0  0  0  0  0  0
    9.2500  -15.3142   22.9611 C   0  0  0  0  0  0  0  0  0  0  0  0
   10.2368  -14.5334   22.9670 O   0  0  0  0  0  0  0  0  0  0  0  0
    5.7846  -10.5428   26.4045 O   0  0  0  0  0  0  0  0  0  0  0  0
    6.4785  -11.7563   26.4407 C   0  0  0  0  0  0  0  0  0  0  0  0
    5.8759  -12.9249   26.0250 C   0  0  0  0  0  0  0  0  0  0  0  0
    6.5583  -14.1386   26.0571 C   0  0  0  0  0  0  0  0  0  0  0  0
    7.8606  -14.2228   26.5043 C   0  0  0  0  0  0  0  0  0  0  0  0
    8.5472  -15.5400   26.5200 C   0  0  0  0  0  0  0  0  0  0  0  0
    9.5962  -15.6370   25.4353 C   0  0  2  0  0  0  0  0  0  0  0  0
    8.9080  -15.9331   24.1947 N   0  0  0  0  0  0  0  0  0  0  0  0
   10.5841  -16.6810   25.7173 C   0  0  0  0  0  0  0  0  0  0  0  0
   11.4456  -16.5124   26.6070 O   0  0  0  0  0  0  0  0  0  0  0  0
    8.4581  -13.0512   26.9187 C   0  0  0  0  0  0  0  0  0  0  0  0
    7.7789  -11.8391   26.8875 C   0  0  0  0  0  0  0  0  0  0  0  0
   10.6260  -17.9285   25.0114 N   0  0  0  0  0  0  0  0  0  0  0  0
   11.5299  -18.9822   25.3491 C   0  0  0  0  0  0  0  0  0  0  0  0
   11.1480  -19.6935   26.5935 C   0  0  0  0  0  0  0  0  0  0  0  0
   11.8887  -20.6012   27.0428 O   0  0  0  0  0  0  0  0  0  0  0  0
    9.9919  -19.3980   27.2956 O   0  0  0  0  0  0  0  0  0  0  0  0
  1  5  1  0
  1  2  1  0
  2  3  1  0
  4  3  1  0
  5  4  1  0
  6  7  2  0
  5  6  1  1
  8  9  1  0
  9 19  2  0
  9 10  1  0
 10 11  2  0
 11 12  1  0
 12 13  1  0
 14 13  1  1
 14 15  1  0
 15  6  1  0
 16 14  1  0
 16 20  1  0
 17 16  2  0
 18 12  2  0
 19 18  1  0
 21 20  1  0
 21 22  1  0
 22 24  1  0
 23 22  2  0
M  END
$$$$
