PYG.pdb
     RDKit          3D

 24 25  0  0  1  0  0  0  0  0999 V2000
    7.1511  -15.2060   20.3702 N   0  0  0  0  0  0  0  0  0  0  0  0
    6.4934  -14.7448   19.1595 C   0  0  0  0  0  0  0  0  0  0  0  0
    6.6653  -13.2371   19.2143 C   0  0  0  0  0  0  0  0  0  0  0  0
    7.7509  -12.9904   20.2597 C   0  0  0  0  0  0  0  0  0  0  0  0
    8.3130  -14.3768   20.4361 C   0  0  1  0  0  0  0  0  0  0  0  0
    9.0490  -14.4713   21.6994 C   0  0  0  0  0  0  0  0  0  0  0  0
   10.2318  -14.0428   21.7294 O   0  0  0  0  0  0  0  0  0  0  0  0
   10.7267  -14.8646   30.4131 O   0  0  0  0  0  0  0  0  0  0  0  0
   10.1182  -14.8928   29.1545 C   0  0  0  0  0  0  0  0  0  0  0  0
    9.8155  -13.7217   28.4921 C   0  0  0  0  0  0  0  0  0  0  0  0
    9.2095  -13.7390   27.2383 C   0  0  0  0  0  0  0  0  0  0  0  0
    8.8875  -14.9234   26.6084 C   0  0  0  0  0  0  0  0  0  0  0  0
    8.2418  -14.8912   25.2711 C   0  0  0  0  0  0  0  0  0  0  0  0
    9.2590  -14.9862   24.1563 C   0  0  2  0  0  0  0  0  0  0  0  0
    8.5273  -15.0141   22.9056 N   0  0  0  0  0  0  0  0  0  0  0  0
   10.0916  -16.1858   24.2722 C   0  0  0  0  0  0  0  0  0  0  0  0
   10.8924  -16.3099   25.2237 O   0  0  0  0  0  0  0  0  0  0  0  0
    9.1924  -16.0911   27.2754 C   0  0  0  0  0  0  0  0  0  0  0  0
    9.7972  -16.0761   28.5266 C   0  0  0  0  0  0  0  0  0  0  0  0
   10.0433  -17.2646   23.3287 N   0  0  0  0  0  0  0  0  0  0  0  0
   10.7325  -18.5005   23.5262 C   0  0  0  0  0  0  0  0  0  0  0  0
   12.1778  -18.4131   23.2043 C   0  0  0  0  0  0  0  0  0  0  0  0
   12.6546  -17.3352   22.7737 O   0  0  0  0  0  0  0  0  0  0  0  0
   13.0417  -19.4838   23.3592 O   0  0  0  0  0  0  0  0  0  0  0  0
  1  5  1  0
  1  2  1  0
  2  3  1  0
  4  3  1  0
  5  4  1  0
  6  7  2  0
  5  6  1  1
  8  9  1  0
  9 19  2  0
  9 10  1  0
 10 11  2  0
 11 12  1  0
 12 13  1  0
 14 13  1  1
 14 15  1  0
 15  6  1  0
 16 14  1  0
 16 20  1  0
 17 16  2  0
 18 12  2  0
 19 18  1  0
 21 20  1  0
 21 22  1  0
 22 24  1  0
 23 22  2  0
M  END
$$$$
