PYG.pdb
     RDKit          3D

 24 25  0  0  1  0  0  0  0  0999 V2000
    7.4449  -14.9732   20.2378 N   0  0  0  0  0  0  0  0  0  0  0  0
    7.0217  -14.4089   18.9675 C   0  0  0  0  0  0  0  0  0  0  0  0
    7.3373  -12.9307   19.1129 C   0  0  0  0  0  0  0  0  0  0  0  0
    8.2782  -12.8328   20.3118 C   0  0  0  0  0  0  0  0  0  0  0  0
    8.6635  -14.2764   20.5046 C   0  0  1  0  0  0  0  0  0  0  0  0
    9.1937  -14.4862   21.8542 C   0  0  0  0  0  0  0  0  0  0  0  0
   10.3032  -13.9673   22.1422 O   0  0  0  0  0  0  0  0  0  0  0  0
    6.1885  -10.2625   27.2449 O   0  0  0  0  0  0  0  0  0  0  0  0
    6.5974  -11.4952   26.7267 C   0  0  0  0  0  0  0  0  0  0  0  0
    5.6796  -12.4940   26.4779 C   0  0  0  0  0  0  0  0  0  0  0  0
    6.0767  -13.7251   25.9618 C   0  0  0  0  0  0  0  0  0  0  0  0
    7.3993  -13.9966   25.6789 C   0  0  0  0  0  0  0  0  0  0  0  0
    7.7744  -15.3247   25.1295 C   0  0  0  0  0  0  0  0  0  0  0  0
    9.0016  -15.2401   24.2502 C   0  0  2  0  0  0  0  0  0  0  0  0
    8.5472  -15.2371   22.8740 N   0  0  0  0  0  0  0  0  0  0  0  0
    9.9144  -16.3644   24.4700 C   0  0  0  0  0  0  0  0  0  0  0  0
   10.2834  -16.6623   25.6264 O   0  0  0  0  0  0  0  0  0  0  0  0
    8.3125  -12.9942   25.9297 C   0  0  0  0  0  0  0  0  0  0  0  0
    7.9184  -11.7650   26.4446 C   0  0  0  0  0  0  0  0  0  0  0  0
   10.4291  -17.1731   23.4035 N   0  0  0  0  0  0  0  0  0  0  0  0
   11.2222  -18.3404   23.6270 C   0  0  0  0  0  0  0  0  0  0  0  0
   11.6257  -19.0136   22.3684 C   0  0  0  0  0  0  0  0  0  0  0  0
   10.8310  -19.0447   21.3978 O   0  0  0  0  0  0  0  0  0  0  0  0
   12.8600  -19.6205   22.2108 O   0  0  0  0  0  0  0  0  0  0  0  0
  1  5  1  0
  1  2  1  0
  2  3  1  0
  4  3  1  0
  5  4  1  0
  6  7  2  0
  5  6  1  1
  8  9  1  0
  9 19  2  0
  9 10  1  0
 10 11  2  0
 11 12  1  0
 12 13  1  0
 14 13  1  1
 14 15  1  0
 15  6  1  0
 16 14  1  0
 16 20  1  0
 17 16  2  0
 18 12  2  0
 19 18  1  0
 21 20  1  0
 21 22  1  0
 22 24  1  0
 23 22  2  0
M  END
$$$$
