PYG.pdb
     RDKit          3D

 24 25  0  0  1  0  0  0  0  0999 V2000
    6.9815  -15.0270   20.0758 N   0  0  0  0  0  0  0  0  0  0  0  0
    6.4249  -14.5505   18.8211 C   0  0  0  0  0  0  0  0  0  0  0  0
    6.7256  -13.0623   18.8418 C   0  0  0  0  0  0  0  0  0  0  0  0
    7.7777  -12.8761   19.9328 C   0  0  0  0  0  0  0  0  0  0  0  0
    8.2072  -14.2994   20.1763 C   0  0  1  0  0  0  0  0  0  0  0  0
    8.8713  -14.4158   21.4770 C   0  0  0  0  0  0  0  0  0  0  0  0
   10.0921  -14.1189   21.5475 O   0  0  0  0  0  0  0  0  0  0  0  0
   10.4492  -14.8392   30.1728 O   0  0  0  0  0  0  0  0  0  0  0  0
    9.8658  -14.7042   28.9091 C   0  0  0  0  0  0  0  0  0  0  0  0
    9.3866  -15.8065   28.2332 C   0  0  0  0  0  0  0  0  0  0  0  0
    8.8038  -15.6826   26.9743 C   0  0  0  0  0  0  0  0  0  0  0  0
    8.6818  -14.4570   26.3528 C   0  0  0  0  0  0  0  0  0  0  0  0
    8.0529  -14.3750   25.0096 C   0  0  0  0  0  0  0  0  0  0  0  0
    8.9476  -14.9539   23.9367 C   0  0  2  0  0  0  0  0  0  0  0  0
    8.2393  -14.8419   22.6774 N   0  0  0  0  0  0  0  0  0  0  0  0
    9.2813  -16.3563   24.1965 C   0  0  0  0  0  0  0  0  0  0  0  0
    8.3760  -17.2091   24.3202 O   0  0  0  0  0  0  0  0  0  0  0  0
    9.1627  -13.3584   27.0334 C   0  0  0  0  0  0  0  0  0  0  0  0
    9.7446  -13.4799   28.2896 C   0  0  0  0  0  0  0  0  0  0  0  0
   10.6295  -16.8284   24.3222 N   0  0  0  0  0  0  0  0  0  0  0  0
   10.9560  -18.2078   24.5013 C   0  0  0  0  0  0  0  0  0  0  0  0
   12.4011  -18.4312   24.7500 C   0  0  0  0  0  0  0  0  0  0  0  0
   13.2239  -18.2759   23.8154 O   0  0  0  0  0  0  0  0  0  0  0  0
   12.8944  -18.8101   25.9869 O   0  0  0  0  0  0  0  0  0  0  0  0
  1  5  1  0
  1  2  1  0
  2  3  1  0
  4  3  1  0
  5  4  1  0
  6  7  2  0
  5  6  1  1
  8  9  1  0
  9 19  2  0
  9 10  1  0
 10 11  2  0
 11 12  1  0
 12 13  1  0
 14 13  1  1
 14 15  1  0
 15  6  1  0
 16 14  1  0
 16 20  1  0
 17 16  2  0
 18 12  2  0
 19 18  1  0
 21 20  1  0
 21 22  1  0
 22 24  1  0
 23 22  2  0
M  END
$$$$
