PYG.pdb
     RDKit          3D

 24 25  0  0  1  0  0  0  0  0999 V2000
    7.7255  -15.4419   18.6896 N   0  0  0  0  0  0  0  0  0  0  0  0
    7.6104  -15.2967   17.2485 C   0  0  0  0  0  0  0  0  0  0  0  0
    7.8522  -13.8151   17.0206 C   0  0  0  0  0  0  0  0  0  0  0  0
    8.4736  -13.3012   18.3175 C   0  0  0  0  0  0  0  0  0  0  0  0
    8.8295  -14.5923   19.0074 C   0  0  1  0  0  0  0  0  0  0  0  0
    9.0222  -14.3669   20.4421 C   0  0  0  0  0  0  0  0  0  0  0  0
   10.0576  -13.7550   20.8120 O   0  0  0  0  0  0  0  0  0  0  0  0
    6.8615  -12.1008   28.7052 O   0  0  0  0  0  0  0  0  0  0  0  0
    6.8680  -12.5543   27.3825 C   0  0  0  0  0  0  0  0  0  0  0  0
    6.3780  -13.8032   27.0637 C   0  0  0  0  0  0  0  0  0  0  0  0
    6.3800  -14.2641   25.7495 C   0  0  0  0  0  0  0  0  0  0  0  0
    6.8702  -13.4940   24.7151 C   0  0  0  0  0  0  0  0  0  0  0  0
    6.8513  -14.0288   23.3294 C   0  0  0  0  0  0  0  0  0  0  0  0
    8.2429  -14.3575   22.8376 C   0  0  2  0  0  0  0  0  0  0  0  0
    8.1228  -14.7891   21.4594 N   0  0  0  0  0  0  0  0  0  0  0  0
    8.8737  -15.4115   23.6357 C   0  0  0  0  0  0  0  0  0  0  0  0
    9.0496  -15.2553   24.8632 O   0  0  0  0  0  0  0  0  0  0  0  0
    7.3588  -12.2461   25.0398 C   0  0  0  0  0  0  0  0  0  0  0  0
    7.3578  -11.7843   26.3506 C   0  0  0  0  0  0  0  0  0  0  0  0
    9.3174  -16.6552   23.0766 N   0  0  0  0  0  0  0  0  0  0  0  0
    9.9280  -17.6840   23.8577 C   0  0  0  0  0  0  0  0  0  0  0  0
   11.4022  -17.5447   23.9443 C   0  0  0  0  0  0  0  0  0  0  0  0
   11.9721  -16.5926   23.3584 O   0  0  0  0  0  0  0  0  0  0  0  0
   12.1939  -18.4316   24.6539 O   0  0  0  0  0  0  0  0  0  0  0  0
  1  5  1  0
  1  2  1  0
  2  3  1  0
  4  3  1  0
  5  4  1  0
  6  7  2  0
  5  6  1  1
  8  9  1  0
  9 19  2  0
  9 10  1  0
 10 11  2  0
 11 12  1  0
 12 13  1  0
 14 13  1  1
 14 15  1  0
 15  6  1  0
 16 14  1  0
 16 20  1  0
 17 16  2  0
 18 12  2  0
 19 18  1  0
 21 20  1  0
 21 22  1  0
 22 24  1  0
 23 22  2  0
M  END
$$$$
