PYG.pdb
     RDKit          3D

 24 25  0  0  1  0  0  0  0  0999 V2000
    7.9489  -15.5316   18.6373 N   0  0  0  0  0  0  0  0  0  0  0  0
    7.8219  -15.3829   17.1976 C   0  0  0  0  0  0  0  0  0  0  0  0
    7.8099  -13.8779   16.9958 C   0  0  0  0  0  0  0  0  0  0  0  0
    8.3248  -13.2887   18.3072 C   0  0  0  0  0  0  0  0  0  0  0  0
    8.8899  -14.5123   18.9801 C   0  0  1  0  0  0  0  0  0  0  0  0
    9.0304  -14.2827   20.4202 C   0  0  0  0  0  0  0  0  0  0  0  0
   10.0035  -13.5910   20.8177 O   0  0  0  0  0  0  0  0  0  0  0  0
    6.9433  -12.0476   28.6344 O   0  0  0  0  0  0  0  0  0  0  0  0
    6.9184  -12.5638   27.3350 C   0  0  0  0  0  0  0  0  0  0  0  0
    7.1820  -11.7542   26.2503 C   0  0  0  0  0  0  0  0  0  0  0  0
    7.1598  -12.2586   24.9524 C   0  0  0  0  0  0  0  0  0  0  0  0
    6.8743  -13.5841   24.6978 C   0  0  0  0  0  0  0  0  0  0  0  0
    6.8624  -14.0759   23.2962 C   0  0  0  0  0  0  0  0  0  0  0  0
    8.2529  -14.4204   22.8124 C   0  0  2  0  0  0  0  0  0  0  0  0
    8.1454  -14.7844   21.4137 N   0  0  0  0  0  0  0  0  0  0  0  0
    8.8405  -15.5275   23.5706 C   0  0  0  0  0  0  0  0  0  0  0  0
    9.0536  -15.4111   24.7966 O   0  0  0  0  0  0  0  0  0  0  0  0
    6.6115  -14.3889   25.7862 C   0  0  0  0  0  0  0  0  0  0  0  0
    6.6332  -13.8875   27.0822 C   0  0  0  0  0  0  0  0  0  0  0  0
    9.1990  -16.7807   22.9727 N   0  0  0  0  0  0  0  0  0  0  0  0
    9.7702  -17.8599   23.7144 C   0  0  0  0  0  0  0  0  0  0  0  0
   11.2428  -17.7490   23.8535 C   0  0  0  0  0  0  0  0  0  0  0  0
   11.9874  -18.1755   22.9380 O   0  0  0  0  0  0  0  0  0  0  0  0
   11.8459  -17.1868   24.9657 O   0  0  0  0  0  0  0  0  0  0  0  0
  1  5  1  0
  1  2  1  0
  2  3  1  0
  4  3  1  0
  5  4  1  0
  6  7  2  0
  5  6  1  1
  8  9  1  0
  9 19  2  0
  9 10  1  0
 10 11  2  0
 11 12  1  0
 12 13  1  0
 14 13  1  1
 14 15  1  0
 15  6  1  0
 16 14  1  0
 16 20  1  0
 17 16  2  0
 18 12  2  0
 19 18  1  0
 21 20  1  0
 21 22  1  0
 22 24  1  0
 23 22  2  0
M  END
$$$$
