PYG.pdb
     RDKit          3D

 24 25  0  0  1  0  0  0  0  0999 V2000
    7.8106  -15.6729   18.7899 N   0  0  0  0  0  0  0  0  0  0  0  0
    7.6556  -15.6329   17.3458 C   0  0  0  0  0  0  0  0  0  0  0  0
    7.7588  -14.1537   17.0185 C   0  0  0  0  0  0  0  0  0  0  0  0
    8.3559  -13.5033   18.2644 C   0  0  0  0  0  0  0  0  0  0  0  0
    8.8396  -14.7099   19.0257 C   0  0  1  0  0  0  0  0  0  0  0  0
    9.0384  -14.3752   20.4381 C   0  0  0  0  0  0  0  0  0  0  0  0
   10.0248  -13.6560   20.7434 O   0  0  0  0  0  0  0  0  0  0  0  0
    6.9147  -11.7199   28.5818 O   0  0  0  0  0  0  0  0  0  0  0  0
    6.9243  -12.2967   27.3080 C   0  0  0  0  0  0  0  0  0  0  0  0
    6.5909  -13.6233   27.1329 C   0  0  0  0  0  0  0  0  0  0  0  0
    6.5974  -14.2071   25.8685 C   0  0  0  0  0  0  0  0  0  0  0  0
    6.9362  -13.4860   24.7422 C   0  0  0  0  0  0  0  0  0  0  0  0
    6.9287  -14.1525   23.4147 C   0  0  0  0  0  0  0  0  0  0  0  0
    8.3252  -14.2958   22.8528 C   0  0  2  0  0  0  0  0  0  0  0  0
    8.1967  -14.8030   21.5013 N   0  0  0  0  0  0  0  0  0  0  0  0
    9.1479  -15.2084   23.6503 C   0  0  0  0  0  0  0  0  0  0  0  0
    9.5682  -14.8613   24.7750 O   0  0  0  0  0  0  0  0  0  0  0  0
    7.2687  -12.1601   24.9233 C   0  0  0  0  0  0  0  0  0  0  0  0
    7.2628  -11.5756   26.1842 C   0  0  0  0  0  0  0  0  0  0  0  0
    9.5141  -16.5214   23.2052 N   0  0  0  0  0  0  0  0  0  0  0  0
   10.3265  -17.4056   23.9796 C   0  0  0  0  0  0  0  0  0  0  0  0
    9.6015  -17.9954   25.1314 C   0  0  0  0  0  0  0  0  0  0  0  0
    8.3725  -17.7820   25.2676 O   0  0  0  0  0  0  0  0  0  0  0  0
   10.2279  -18.7847   26.0809 O   0  0  0  0  0  0  0  0  0  0  0  0
  1  5  1  0
  1  2  1  0
  2  3  1  0
  4  3  1  0
  5  4  1  0
  6  7  2  0
  5  6  1  1
  8  9  1  0
  9 19  2  0
  9 10  1  0
 10 11  2  0
 11 12  1  0
 12 13  1  0
 14 13  1  1
 14 15  1  0
 15  6  1  0
 16 14  1  0
 16 20  1  0
 17 16  2  0
 18 12  2  0
 19 18  1  0
 21 20  1  0
 21 22  1  0
 22 24  1  0
 23 22  2  0
M  END
$$$$
