PYG.pdb
     RDKit          3D

 24 25  0  0  1  0  0  0  0  0999 V2000
    7.0257  -14.9953   20.3587 N   0  0  0  0  0  0  0  0  0  0  0  0
    6.4593  -14.4884   19.1204 C   0  0  0  0  0  0  0  0  0  0  0  0
    6.8656  -13.0253   19.1169 C   0  0  0  0  0  0  0  0  0  0  0  0
    7.9670  -12.9077   20.1681 C   0  0  0  0  0  0  0  0  0  0  0  0
    8.3028  -14.3564   20.4089 C   0  0  1  0  0  0  0  0  0  0  0  0
    9.0035  -14.5114   21.6862 C   0  0  0  0  0  0  0  0  0  0  0  0
   10.2085  -14.1542   21.7480 O   0  0  0  0  0  0  0  0  0  0  0  0
   10.7158  -15.1163   30.3451 O   0  0  0  0  0  0  0  0  0  0  0  0
   10.1194  -14.9709   29.0887 C   0  0  0  0  0  0  0  0  0  0  0  0
    9.5568  -16.0538   28.4464 C   0  0  0  0  0  0  0  0  0  0  0  0
    8.9605  -15.9194   27.1951 C   0  0  0  0  0  0  0  0  0  0  0  0
    8.9074  -14.7023   26.5477 C   0  0  0  0  0  0  0  0  0  0  0  0
    8.2607  -14.6085   25.2137 C   0  0  0  0  0  0  0  0  0  0  0  0
    9.1552  -15.1458   24.1194 C   0  0  2  0  0  0  0  0  0  0  0  0
    8.4240  -15.0387   22.8727 N   0  0  0  0  0  0  0  0  0  0  0  0
    9.5351  -16.5407   24.3548 C   0  0  0  0  0  0  0  0  0  0  0  0
    8.6778  -17.4482   24.2943 O   0  0  0  0  0  0  0  0  0  0  0  0
    9.4715  -13.6231   27.1946 C   0  0  0  0  0  0  0  0  0  0  0  0
   10.0671  -13.7550   28.4433 C   0  0  0  0  0  0  0  0  0  0  0  0
   10.8766  -16.9442   24.6612 N   0  0  0  0  0  0  0  0  0  0  0  0
   11.2566  -18.3108   24.8333 C   0  0  0  0  0  0  0  0  0  0  0  0
   12.4304  -18.6914   24.0103 C   0  0  0  0  0  0  0  0  0  0  0  0
   12.3350  -18.7027   22.7592 O   0  0  0  0  0  0  0  0  0  0  0  0
   13.6488  -19.0412   24.5671 O   0  0  0  0  0  0  0  0  0  0  0  0
  1  5  1  0
  1  2  1  0
  2  3  1  0
  4  3  1  0
  5  4  1  0
  6  7  2  0
  5  6  1  1
  8  9  1  0
  9 19  2  0
  9 10  1  0
 10 11  2  0
 11 12  1  0
 12 13  1  0
 14 13  1  1
 14 15  1  0
 15  6  1  0
 16 14  1  0
 16 20  1  0
 17 16  2  0
 18 12  2  0
 19 18  1  0
 21 20  1  0
 21 22  1  0
 22 24  1  0
 23 22  2  0
M  END
$$$$
