PYG.pdb
     RDKit          3D

 24 25  0  0  1  0  0  0  0  0999 V2000
    7.4893  -14.9292   20.4234 N   0  0  0  0  0  0  0  0  0  0  0  0
    7.0372  -14.2543   19.2187 C   0  0  0  0  0  0  0  0  0  0  0  0
    7.3301  -12.7912   19.5004 C   0  0  0  0  0  0  0  0  0  0  0  0
    8.2874  -12.7909   20.6902 C   0  0  0  0  0  0  0  0  0  0  0  0
    8.6999  -14.2389   20.7390 C   0  0  1  0  0  0  0  0  0  0  0  0
    9.2541  -14.5667   22.0550 C   0  0  0  0  0  0  0  0  0  0  0  0
   10.3664  -14.0697   22.3699 O   0  0  0  0  0  0  0  0  0  0  0  0
    6.1440  -10.4172   26.7570 O   0  0  0  0  0  0  0  0  0  0  0  0
    6.5692  -11.6953   26.3812 C   0  0  0  0  0  0  0  0  0  0  0  0
    7.5913  -12.3254   27.0595 C   0  0  0  0  0  0  0  0  0  0  0  0
    8.0221  -13.5980   26.6930 C   0  0  0  0  0  0  0  0  0  0  0  0
    7.4470  -14.2796   25.6404 C   0  0  0  0  0  0  0  0  0  0  0  0
    7.9407  -15.6353   25.2869 C   0  0  0  0  0  0  0  0  0  0  0  0
    9.1349  -15.5721   24.3617 C   0  0  2  0  0  0  0  0  0  0  0  0
    8.6284  -15.4102   23.0135 N   0  0  0  0  0  0  0  0  0  0  0  0
    9.9575  -16.7815   24.4419 C   0  0  0  0  0  0  0  0  0  0  0  0
   10.4400  -17.1464   25.5357 O   0  0  0  0  0  0  0  0  0  0  0  0
    6.4256  -13.6447   24.9659 C   0  0  0  0  0  0  0  0  0  0  0  0
    5.9942  -12.3747   25.3299 C   0  0  0  0  0  0  0  0  0  0  0  0
   10.2540  -17.6018   23.3037 N   0  0  0  0  0  0  0  0  0  0  0  0
   11.0017  -18.8159   23.3950 C   0  0  0  0  0  0  0  0  0  0  0  0
   12.4608  -18.6091   23.2264 C   0  0  0  0  0  0  0  0  0  0  0  0
   13.2102  -19.5967   23.0325 O   0  0  0  0  0  0  0  0  0  0  0  0
   13.0460  -17.3553   23.2738 O   0  0  0  0  0  0  0  0  0  0  0  0
  1  5  1  0
  1  2  1  0
  2  3  1  0
  4  3  1  0
  5  4  1  0
  6  7  2  0
  5  6  1  1
  8  9  1  0
  9 19  2  0
  9 10  1  0
 10 11  2  0
 11 12  1  0
 12 13  1  0
 14 13  1  1
 14 15  1  0
 15  6  1  0
 16 14  1  0
 16 20  1  0
 17 16  2  0
 18 12  2  0
 19 18  1  0
 21 20  1  0
 21 22  1  0
 22 24  1  0
 23 22  2  0
M  END
$$$$
