QKT.pdb
     RDKit          3D

 26 25  0  0  1  0  0  0  0  0999 V2000
   20.7541  -17.4783  -14.1035 N   0  0  0  0  0  0  0  0  0  0  0  0
   21.8523  -18.2093  -14.6982 C   0  0  0  0  0  0  0  0  0  0  0  0
   21.8484  -19.4384  -14.5305 O   0  0  0  0  0  0  0  0  0  0  0  0
   22.8774  -17.4569  -15.4389 C   0  0  0  0  0  0  0  0  0  0  0  0
   22.6817  -15.9968  -15.5611 C   0  0  0  0  0  0  0  0  0  0  0  0
   21.7515  -15.5248  -16.6323 C   0  0  2  0  0  0  0  0  0  0  0  0
   22.1346  -16.1414  -17.8624 N   0  0  0  0  0  0  0  0  0  0  0  0
   21.4023  -14.1132  -16.6600 C   0  0  0  0  0  0  0  0  0  0  0  0
   22.3292  -13.2818  -16.9720 O   0  0  0  0  0  0  0  0  0  0  0  0
   20.1261  -13.5265  -16.3703 N   0  0  0  0  0  0  0  0  0  0  0  0
   19.9497  -12.1042  -16.5714 C   0  0  1  0  0  0  0  0  0  0  0  0
   18.5553  -11.6401  -16.7804 C   0  0  0  0  0  0  0  0  0  0  0  0
   17.5915  -12.4496  -17.5216 C   0  0  0  0  0  0  0  0  0  0  0  0
   16.6469  -13.3390  -16.7992 C   0  0  0  0  0  0  0  0  0  0  0  0
   15.7675  -14.0943  -17.8417 C   0  0  0  0  0  0  0  0  0  0  0  0
   16.1158  -15.5026  -17.8356 N   0  0  0  0  0  0  0  0  0  0  0  0
   20.5646  -11.3768  -15.3935 C   0  0  0  0  0  0  0  0  0  0  0  0
   20.3337  -11.8013  -14.2496 O   0  0  0  0  0  0  0  0  0  0  0  0
   24.1649  -10.7275  -14.8080 C   0  0  0  0  0  0  0  0  0  0  0  0
   23.5497   -9.3443  -14.9956 C   0  0  1  0  0  0  0  0  0  0  0  0
   23.6540   -9.1198  -16.3977 O   0  0  0  0  0  0  0  0  0  0  0  0
   22.0504   -9.4155  -14.6909 C   0  0  2  0  0  0  0  0  0  0  0  0
   21.3591  -10.2733  -15.6199 N   0  0  0  0  0  0  0  0  0  0  0  0
   21.4806   -8.0809  -14.7753 C   0  0  0  0  0  0  0  0  0  0  0  0
   21.8060   -7.1029  -13.8620 O   0  0  0  0  0  0  0  0  0  0  0  0
   20.6671   -7.7777  -15.6796 O   0  0  0  0  0  0  0  0  0  0  0  0
  1  2  1  0
  2  3  2  0
  4  5  1  0
  4  2  1  0
  5  6  1  0
  6  7  1  6
  8  9  2  0
  8  6  1  0
 10  8  1  0
 11 10  1  0
 11 12  1  1
 12 13  1  0
 13 14  1  0
 14 15  1  0
 15 16  1  0
 17 11  1  0
 18 17  2  0
 20 19  1  6
 20 22  1  0
 20 21  1  0
 22 23  1  6
 23 17  1  0
 24 25  1  0
 24 22  1  0
 26 24  2  0
M  END
$$$$
