QKT.pdb
     RDKit          3D

 26 25  0  0  1  0  0  0  0  0999 V2000
   16.6458  -12.9773  -17.3739 N   0  0  0  0  0  0  0  0  0  0  0  0
   17.9987  -13.4880  -17.3192 C   0  0  0  0  0  0  0  0  0  0  0  0
   18.1531  -14.6710  -17.6590 O   0  0  0  0  0  0  0  0  0  0  0  0
   19.0715  -12.5875  -16.8677 C   0  0  0  0  0  0  0  0  0  0  0  0
   18.6790  -11.2157  -16.4816 C   0  0  0  0  0  0  0  0  0  0  0  0
   19.7607  -10.3203  -15.9679 C   0  0  2  0  0  0  0  0  0  0  0  0
   20.8064  -11.1377  -15.4404 N   0  0  0  0  0  0  0  0  0  0  0  0
   19.3694   -9.1436  -15.2079 C   0  0  0  0  0  0  0  0  0  0  0  0
   18.5158   -8.3503  -15.7460 O   0  0  0  0  0  0  0  0  0  0  0  0
   19.8343   -8.7523  -13.9089 N   0  0  0  0  0  0  0  0  0  0  0  0
   19.3563   -7.5099  -13.3412 C   0  0  1  0  0  0  0  0  0  0  0  0
   18.6998   -7.6061  -12.0134 C   0  0  0  0  0  0  0  0  0  0  0  0
   18.1904   -6.4181  -11.3332 C   0  0  0  0  0  0  0  0  0  0  0  0
   17.4245   -6.5494  -10.0677 C   0  0  0  0  0  0  0  0  0  0  0  0
   16.9327   -5.1372   -9.6268 C   0  0  0  0  0  0  0  0  0  0  0  0
   16.1804   -5.2529   -8.3918 N   0  0  0  0  0  0  0  0  0  0  0  0
   20.5174   -6.5394  -13.2736 C   0  0  0  0  0  0  0  0  0  0  0  0
   21.5319   -6.8733  -12.6402 O   0  0  0  0  0  0  0  0  0  0  0  0
   21.0692   -4.0852  -16.5430 C   0  0  0  0  0  0  0  0  0  0  0  0
   22.0895   -4.3624  -15.4432 C   0  0  1  0  0  0  0  0  0  0  0  0
   22.9647   -3.2413  -15.5093 O   0  0  0  0  0  0  0  0  0  0  0  0
   21.3958   -4.2755  -14.0806 C   0  0  2  0  0  0  0  0  0  0  0  0
   20.4195   -5.3220  -13.9130 N   0  0  0  0  0  0  0  0  0  0  0  0
   20.7268   -2.9902  -13.9648 C   0  0  0  0  0  0  0  0  0  0  0  0
   19.3540   -2.8898  -14.0067 O   0  0  0  0  0  0  0  0  0  0  0  0
   21.3788   -1.9281  -13.8299 O   0  0  0  0  0  0  0  0  0  0  0  0
  1  2  1  0
  2  3  2  0
  4  5  1  0
  4  2  1  0
  5  6  1  0
  6  7  1  1
  8  9  2  0
  8  6  1  0
 10  8  1  0
 11 10  1  0
 11 12  1  1
 12 13  1  0
 13 14  1  0
 14 15  1  0
 15 16  1  0
 17 11  1  0
 18 17  2  0
 20 19  1  6
 20 22  1  0
 20 21  1  0
 22 23  1  6
 23 17  1  0
 24 25  1  0
 24 22  1  0
 26 24  2  0
M  END
$$$$
