QKT.pdb
     RDKit          3D

 26 25  0  0  1  0  0  0  0  0999 V2000
   24.7327   -8.8437  -22.7253 N   0  0  0  0  0  0  0  0  0  0  0  0
   25.4523  -10.0579  -23.0445 C   0  0  0  0  0  0  0  0  0  0  0  0
   26.4736   -9.9251  -23.7361 O   0  0  0  0  0  0  0  0  0  0  0  0
   24.9286  -11.3377  -22.5411 C   0  0  0  0  0  0  0  0  0  0  0  0
   23.6781  -11.2888  -21.7542 C   0  0  0  0  0  0  0  0  0  0  0  0
   23.7762  -11.6361  -20.3032 C   0  0  2  0  0  0  0  0  0  0  0  0
   24.1956  -12.9972  -20.1955 N   0  0  0  0  0  0  0  0  0  0  0  0
   22.7152  -11.1803  -19.4190 C   0  0  0  0  0  0  0  0  0  0  0  0
   21.9574  -10.2356  -19.8443 O   0  0  0  0  0  0  0  0  0  0  0  0
   22.4110  -11.6635  -18.1034 N   0  0  0  0  0  0  0  0  0  0  0  0
   21.2375  -11.1543  -17.4266 C   0  0  1  0  0  0  0  0  0  0  0  0
   20.4036  -12.1569  -16.7175 C   0  0  0  0  0  0  0  0  0  0  0  0
   19.1757  -11.7685  -16.0283 C   0  0  0  0  0  0  0  0  0  0  0  0
   18.3961  -12.7736  -15.2621 C   0  0  0  0  0  0  0  0  0  0  0  0
   17.1164  -12.0908  -14.6905 C   0  0  0  0  0  0  0  0  0  0  0  0
   16.4129  -13.0264  -13.8336 N   0  0  0  0  0  0  0  0  0  0  0  0
   21.6764  -10.0728  -16.4612 C   0  0  0  0  0  0  0  0  0  0  0  0
   22.6610  -10.2901  -15.7363 O   0  0  0  0  0  0  0  0  0  0  0  0
   22.4616   -6.5166  -17.4616 C   0  0  0  0  0  0  0  0  0  0  0  0
   21.2520   -6.4429  -16.5349 C   0  0  1  0  0  0  0  0  0  0  0  0
   20.1445   -6.5678  -17.4210 O   0  0  0  0  0  0  0  0  0  0  0  0
   21.2230   -7.6898  -15.6461 C   0  0  2  0  0  0  0  0  0  0  0  0
   20.9789   -8.8847  -16.4138 N   0  0  0  0  0  0  0  0  0  0  0  0
   20.1685   -7.5478  -14.6559 C   0  0  0  0  0  0  0  0  0  0  0  0
   20.2004   -6.5448  -13.7128 O   0  0  0  0  0  0  0  0  0  0  0  0
   19.1970   -8.3394  -14.6232 O   0  0  0  0  0  0  0  0  0  0  0  0
  1  2  1  0
  2  3  2  0
  4  5  1  0
  4  2  1  0
  5  6  1  0
  6  7  1  6
  8  9  2  0
  8  6  1  0
 10  8  1  0
 11 10  1  0
 11 12  1  1
 12 13  1  0
 13 14  1  0
 14 15  1  0
 15 16  1  0
 17 11  1  0
 18 17  2  0
 20 19  1  6
 20 22  1  0
 20 21  1  0
 22 23  1  6
 23 17  1  0
 24 25  1  0
 24 22  1  0
 26 24  2  0
M  END
$$$$
