QKT.pdb
     RDKit          3D

 26 25  0  0  1  0  0  0  0  0999 V2000
   23.9440  -20.6950   -9.3363 N   0  0  0  0  0  0  0  0  0  0  0  0
   25.1493  -20.2782   -8.6525 C   0  0  0  0  0  0  0  0  0  0  0  0
   25.1274  -20.3410   -7.4138 O   0  0  0  0  0  0  0  0  0  0  0  0
   26.2893  -19.8136   -9.4589 C   0  0  0  0  0  0  0  0  0  0  0  0
   26.1075  -19.7856  -10.9256 C   0  0  0  0  0  0  0  0  0  0  0  0
   25.8897  -21.0985  -11.6069 C   0  0  2  0  0  0  0  0  0  0  0  0
   26.9429  -21.9833  -11.2223 N   0  0  0  0  0  0  0  0  0  0  0  0
   25.4915  -21.0840  -13.0057 C   0  0  0  0  0  0  0  0  0  0  0  0
   24.8829  -20.0388  -13.4354 O   0  0  0  0  0  0  0  0  0  0  0  0
   25.6953  -22.1171  -13.9793 N   0  0  0  0  0  0  0  0  0  0  0  0
   25.2520  -21.8927  -15.3386 C   0  0  1  0  0  0  0  0  0  0  0  0
   25.8759  -22.7465  -16.3804 C   0  0  0  0  0  0  0  0  0  0  0  0
   27.3207  -22.9568  -16.4209 C   0  0  0  0  0  0  0  0  0  0  0  0
   27.9243  -23.8141  -17.4726 C   0  0  0  0  0  0  0  0  0  0  0  0
   29.4748  -23.7950  -17.3109 C   0  0  0  0  0  0  0  0  0  0  0  0
   30.0730  -24.6743  -18.2976 N   0  0  0  0  0  0  0  0  0  0  0  0
   23.7456  -22.0463  -15.3797 C   0  0  0  0  0  0  0  0  0  0  0  0
   23.2390  -23.0549  -14.8622 O   0  0  0  0  0  0  0  0  0  0  0  0
   21.1217  -19.9550  -13.9208 C   0  0  0  0  0  0  0  0  0  0  0  0
   20.9802  -19.7539  -15.4263 C   0  0  1  0  0  0  0  0  0  0  0  0
   21.8700  -18.6777  -15.7045 O   0  0  0  0  0  0  0  0  0  0  0  0
   21.5546  -20.9738  -16.1526 C   0  0  2  0  0  0  0  0  0  0  0  0
   22.9824  -21.0699  -15.9836 N   0  0  0  0  0  0  0  0  0  0  0  0
   21.2587  -20.8694  -17.5720 C   0  0  0  0  0  0  0  0  0  0  0  0
   19.9662  -20.9383  -18.0423 O   0  0  0  0  0  0  0  0  0  0  0  0
   22.1726  -20.7202  -18.4170 O   0  0  0  0  0  0  0  0  0  0  0  0
  1  2  1  0
  2  3  2  0
  4  5  1  0
  4  2  1  0
  5  6  1  0
  6  7  1  6
  8  9  2  0
  8  6  1  0
 10  8  1  0
 11 10  1  0
 11 12  1  6
 12 13  1  0
 13 14  1  0
 14 15  1  0
 15 16  1  0
 17 11  1  0
 18 17  2  0
 20 19  1  1
 20 22  1  0
 20 21  1  0
 22 23  1  6
 23 17  1  0
 24 25  1  0
 24 22  1  0
 26 24  2  0
M  END
$$$$
