QKT.pdb
     RDKit          3D

 26 25  0  0  1  0  0  0  0  0999 V2000
   18.6876  -12.9151  -15.7035 N   0  0  0  0  0  0  0  0  0  0  0  0
   17.4796  -13.4349  -15.0998 C   0  0  0  0  0  0  0  0  0  0  0  0
   17.3287  -14.6654  -15.1452 O   0  0  0  0  0  0  0  0  0  0  0  0
   16.5329  -12.4854  -14.4932 C   0  0  0  0  0  0  0  0  0  0  0  0
   16.9624  -11.0739  -14.4026 C   0  0  0  0  0  0  0  0  0  0  0  0
   16.0187  -10.1189  -13.7446 C   0  0  2  0  0  0  0  0  0  0  0  0
   14.7893  -10.1312  -14.4716 N   0  0  0  0  0  0  0  0  0  0  0  0
   16.5402   -8.8314  -13.3140 C   0  0  0  0  0  0  0  0  0  0  0  0
   16.5331   -7.8752  -14.1703 O   0  0  0  0  0  0  0  0  0  0  0  0
   17.0764   -8.4960  -12.0268 N   0  0  0  0  0  0  0  0  0  0  0  0
   17.5835   -7.1582  -11.8086 C   0  0  1  0  0  0  0  0  0  0  0  0
   17.2489   -6.5355  -10.5034 C   0  0  0  0  0  0  0  0  0  0  0  0
   15.8689   -6.2111  -10.1514 C   0  0  0  0  0  0  0  0  0  0  0  0
   15.5589   -5.5662   -8.8502 C   0  0  0  0  0  0  0  0  0  0  0  0
   14.0212   -5.3255   -8.7598 C   0  0  0  0  0  0  0  0  0  0  0  0
   13.7122   -4.6459   -7.5160 N   0  0  0  0  0  0  0  0  0  0  0  0
   19.0861   -7.1817  -11.9990 C   0  0  0  0  0  0  0  0  0  0  0  0
   19.7556   -7.9823  -11.3262 O   0  0  0  0  0  0  0  0  0  0  0  0
   22.7444   -6.1916  -15.1002 C   0  0  0  0  0  0  0  0  0  0  0  0
   21.2574   -6.3167  -14.7837 C   0  0  1  0  0  0  0  0  0  0  0  0
   20.9688   -7.6813  -15.0695 O   0  0  0  0  0  0  0  0  0  0  0  0
   21.0486   -6.1489  -13.2758 C   0  0  2  0  0  0  0  0  0  0  0  0
   19.6662   -6.3225  -12.9077 N   0  0  0  0  0  0  0  0  0  0  0  0
   21.4735   -4.8168  -12.8786 C   0  0  0  0  0  0  0  0  0  0  0  0
   22.7327   -4.5872  -12.3705 O   0  0  0  0  0  0  0  0  0  0  0  0
   20.7039   -3.8324  -12.9792 O   0  0  0  0  0  0  0  0  0  0  0  0
  1  2  1  0
  2  3  2  0
  4  5  1  0
  4  2  1  0
  5  6  1  0
  6  7  1  6
  8  9  2  0
  8  6  1  0
 10  8  1  0
 11 10  1  0
 11 12  1  1
 12 13  1  0
 13 14  1  0
 14 15  1  0
 15 16  1  0
 17 11  1  0
 18 17  2  0
 20 19  1  1
 20 22  1  0
 20 21  1  0
 22 23  1  6
 23 17  1  0
 24 25  1  0
 24 22  1  0
 26 24  2  0
M  END
$$$$
