QKT.pdb
     RDKit          3D

 26 25  0  0  1  0  0  0  0  0999 V2000
   25.7720  -18.8267   -7.8341 N   0  0  0  0  0  0  0  0  0  0  0  0
   26.0096  -20.2296   -7.5707 C   0  0  0  0  0  0  0  0  0  0  0  0
   25.8780  -20.5971   -6.3932 O   0  0  0  0  0  0  0  0  0  0  0  0
   26.3887  -21.1008   -8.6945 C   0  0  0  0  0  0  0  0  0  0  0  0
   26.4257  -20.4859  -10.0382 C   0  0  0  0  0  0  0  0  0  0  0  0
   26.7481  -21.3867  -11.1873 C   0  0  2  0  0  0  0  0  0  0  0  0
   28.1477  -21.6700  -11.1558 N   0  0  0  0  0  0  0  0  0  0  0  0
   26.1438  -21.0912  -12.4768 C   0  0  0  0  0  0  0  0  0  0  0  0
   26.9001  -20.5819  -13.3803 O   0  0  0  0  0  0  0  0  0  0  0  0
   24.7793  -21.2984  -12.8665 N   0  0  0  0  0  0  0  0  0  0  0  0
   24.4110  -21.1003  -14.2520 C   0  0  1  0  0  0  0  0  0  0  0  0
   23.4322  -22.0645  -14.8140 C   0  0  0  0  0  0  0  0  0  0  0  0
   23.8181  -23.0153  -15.8535 C   0  0  0  0  0  0  0  0  0  0  0  0
   24.3479  -24.3531  -15.4865 C   0  0  0  0  0  0  0  0  0  0  0  0
   24.7854  -25.0963  -16.7853 C   0  0  0  0  0  0  0  0  0  0  0  0
   25.2940  -26.4104  -16.4404 N   0  0  0  0  0  0  0  0  0  0  0  0
   23.8908  -19.6864  -14.4089 C   0  0  0  0  0  0  0  0  0  0  0  0
   23.0803  -19.2575  -13.5717 O   0  0  0  0  0  0  0  0  0  0  0  0
   26.1762  -16.6042  -15.1178 C   0  0  0  0  0  0  0  0  0  0  0  0
   25.2287  -16.7859  -16.2995 C   0  0  1  0  0  0  0  0  0  0  0  0
   25.9425  -17.6592  -17.1685 O   0  0  0  0  0  0  0  0  0  0  0  0
   23.9944  -17.5666  -15.8387 C   0  0  2  0  0  0  0  0  0  0  0  0
   24.3282  -18.9182  -15.4668 N   0  0  0  0  0  0  0  0  0  0  0  0
   23.0221  -17.6064  -16.9185 C   0  0  0  0  0  0  0  0  0  0  0  0
   22.4365  -16.4564  -17.3992 O   0  0  0  0  0  0  0  0  0  0  0  0
   22.6786  -18.6914  -17.4439 O   0  0  0  0  0  0  0  0  0  0  0  0
  1  2  1  0
  2  3  2  0
  4  5  1  0
  4  2  1  0
  5  6  1  0
  6  7  1  6
  8  9  2  0
  8  6  1  0
 10  8  1  0
 11 10  1  0
 11 12  1  1
 12 13  1  0
 13 14  1  0
 14 15  1  0
 15 16  1  0
 17 11  1  0
 18 17  2  0
 20 19  1  1
 20 22  1  0
 20 21  1  0
 22 23  1  6
 23 17  1  0
 24 25  1  0
 24 22  1  0
 26 24  2  0
M  END
$$$$
