QKT.pdb
     RDKit          3D

 26 25  0  0  1  0  0  0  0  0999 V2000
   26.6845  -20.2194  -14.0761 N   0  0  0  0  0  0  0  0  0  0  0  0
   26.5538  -20.7559  -15.4136 C   0  0  0  0  0  0  0  0  0  0  0  0
   27.5984  -20.8350  -16.0780 O   0  0  0  0  0  0  0  0  0  0  0  0
   25.2173  -21.1552  -15.8826 C   0  0  0  0  0  0  0  0  0  0  0  0
   24.1007  -21.0198  -14.9234 C   0  0  0  0  0  0  0  0  0  0  0  0
   23.5706  -22.2800  -14.3179 C   0  0  2  0  0  0  0  0  0  0  0  0
   24.1992  -23.3872  -14.9650 N   0  0  0  0  0  0  0  0  0  0  0  0
   22.1416  -22.3653  -14.0608 C   0  0  0  0  0  0  0  0  0  0  0  0
   21.3917  -22.7662  -15.0224 O   0  0  0  0  0  0  0  0  0  0  0  0
   21.4558  -22.0448  -12.8427 N   0  0  0  0  0  0  0  0  0  0  0  0
   20.0201  -22.2175  -12.7836 C   0  0  1  0  0  0  0  0  0  0  0  0
   19.4390  -22.4136  -11.4318 C   0  0  0  0  0  0  0  0  0  0  0  0
   19.1882  -23.7518  -10.9029 C   0  0  0  0  0  0  0  0  0  0  0  0
   18.5374  -23.9249   -9.5794 C   0  0  0  0  0  0  0  0  0  0  0  0
   18.4007  -25.4488   -9.2797 C   0  0  0  0  0  0  0  0  0  0  0  0
   18.9132  -25.7264   -7.9512 N   0  0  0  0  0  0  0  0  0  0  0  0
   19.3692  -21.0272  -13.4573 C   0  0  0  0  0  0  0  0  0  0  0  0
   19.7320  -19.8871  -13.1247 O   0  0  0  0  0  0  0  0  0  0  0  0
   19.5131  -19.8429  -16.7779 C   0  0  0  0  0  0  0  0  0  0  0  0
   18.0653  -20.3110  -16.6691 C   0  0  1  0  0  0  0  0  0  0  0  0
   18.1290  -21.6832  -17.0439 O   0  0  0  0  0  0  0  0  0  0  0  0
   17.6414  -20.2957  -15.1974 C   0  0  2  0  0  0  0  0  0  0  0  0
   18.4007  -21.2383  -14.4154 N   0  0  0  0  0  0  0  0  0  0  0  0
   16.2319  -20.6380  -15.1013 C   0  0  0  0  0  0  0  0  0  0  0  0
   15.2556  -19.8036  -15.5984 O   0  0  0  0  0  0  0  0  0  0  0  0
   15.8575  -21.7025  -14.5555 O   0  0  0  0  0  0  0  0  0  0  0  0
  1  2  1  0
  2  3  2  0
  4  5  1  0
  4  2  1  0
  5  6  1  0
  6  7  1  6
  8  9  2  0
  8  6  1  0
 10  8  1  0
 11 10  1  0
 11 12  1  1
 12 13  1  0
 13 14  1  0
 14 15  1  0
 15 16  1  0
 17 11  1  0
 18 17  2  0
 20 19  1  1
 20 22  1  0
 20 21  1  0
 22 23  1  1
 23 17  1  0
 24 25  1  0
 24 22  1  0
 26 24  2  0
M  END
$$$$
