PKE.pdb
     RDKit          3D

 26 26  0  0  1  0  0  0  0  0999 V2000
    8.3679  -14.9234   18.7543 N   0  0  0  0  0  0  0  0  0  0  0  0
    8.3662  -13.8936   17.7074 C   0  0  0  0  0  0  0  0  0  0  0  0
    7.6319  -12.7160   18.3087 C   0  0  0  0  0  0  0  0  0  0  0  0
    7.4890  -13.0645   19.7615 C   0  0  0  0  0  0  0  0  0  0  0  0
    8.5804  -14.1290   19.9284 C   0  0  1  0  0  0  0  0  0  0  0  0
    8.2659  -14.8666   21.1806 C   0  0  0  0  0  0  0  0  0  0  0  0
    8.3548  -14.2732   22.2905 O   0  0  0  0  0  0  0  0  0  0  0  0
    7.8655  -16.2219   21.1866 N   0  0  0  0  0  0  0  0  0  0  0  0
    7.5009  -16.9578   22.3560 C   0  0  1  0  0  0  0  0  0  0  0  0
    7.2218  -18.4201   22.0397 C   0  0  0  0  0  0  0  0  0  0  0  0
    7.0448  -19.2705   23.2559 C   0  0  0  0  0  0  0  0  0  0  0  0
    5.8170  -20.1312   23.0150 C   0  0  0  0  0  0  0  0  0  0  0  0
    5.5849  -21.0523   24.1989 C   0  0  0  0  0  0  0  0  0  0  0  0
    4.4458  -21.9069   23.9653 N   0  0  0  0  0  0  0  0  0  0  0  0
    8.7013  -16.9584   23.2820 C   0  0  0  0  0  0  0  0  0  0  0  0
    9.8548  -17.1129   22.8186 O   0  0  0  0  0  0  0  0  0  0  0  0
    8.5364  -16.7864   24.6713 N   0  0  0  0  0  0  0  0  0  0  0  0
    9.5651  -16.5623   25.6378 C   0  0  1  0  0  0  0  0  0  0  0  0
    9.1932  -15.6143   26.7628 C   0  0  0  0  0  0  0  0  0  0  0  0
   10.3893  -15.4032   27.6463 C   0  0  0  0  0  0  0  0  0  0  0  0
   10.0505  -14.5141   28.8161 C   0  0  0  0  0  0  0  0  0  0  0  0
    9.2126  -14.8345   29.6925 O   0  0  0  0  0  0  0  0  0  0  0  0
   10.2402  -17.7904   26.0859 C   0  0  0  0  0  0  0  0  0  0  0  0
   11.6234  -17.8872   26.2046 O   0  0  0  0  0  0  0  0  0  0  0  0
   10.7062  -13.2996   28.9010 O   0  0  0  0  0  0  0  0  0  0  0  0
    9.5837  -18.8217   26.3856 O   0  0  0  0  0  0  0  0  0  0  0  0
  1  5  1  0
  1  2  1  0
  2  3  1  0
  4  3  1  0
  5  4  1  0
  6  7  2  0
  5  6  1  1
  8  6  1  0
  9 10  1  6
  9  8  1  0
 11 10  1  0
 11 12  1  0
 13 14  1  0
 13 12  1  0
 15  9  1  0
 16 15  2  0
 17 15  1  0
 18 17  1  0
 19 20  1  0
 18 19  1  1
 21 25  1  0
 21 20  1  0
 22 21  2  0
 23 24  1  0
 23 18  1  0
 26 23  2  0
M  END
$$$$
