PKE.pdb
     RDKit          3D

 26 26  0  0  1  0  0  0  0  0999 V2000
    8.3656  -14.9848   19.0996 N   0  0  0  0  0  0  0  0  0  0  0  0
    8.5465  -13.9855   18.0389 C   0  0  0  0  0  0  0  0  0  0  0  0
    7.8117  -12.7550   18.5219 C   0  0  0  0  0  0  0  0  0  0  0  0
    7.4763  -13.0554   19.9535 C   0  0  0  0  0  0  0  0  0  0  0  0
    8.4792  -14.1706   20.2740 C   0  0  1  0  0  0  0  0  0  0  0  0
    7.9763  -14.8559   21.4940 C   0  0  0  0  0  0  0  0  0  0  0  0
    7.9610  -14.2367   22.5931 O   0  0  0  0  0  0  0  0  0  0  0  0
    7.5070  -16.1889   21.4804 N   0  0  0  0  0  0  0  0  0  0  0  0
    7.0000  -16.8850   22.6208 C   0  0  1  0  0  0  0  0  0  0  0  0
    6.5739  -18.3042   22.2736 C   0  0  0  0  0  0  0  0  0  0  0  0
    6.1295  -19.1004   23.4577 C   0  0  0  0  0  0  0  0  0  0  0  0
    5.7794  -20.4874   22.9480 C   0  0  0  0  0  0  0  0  0  0  0  0
    5.3272  -21.3677   24.0989 C   0  0  0  0  0  0  0  0  0  0  0  0
    5.0406  -22.7046   23.6372 N   0  0  0  0  0  0  0  0  0  0  0  0
    8.1419  -17.0274   23.6077 C   0  0  0  0  0  0  0  0  0  0  0  0
    9.2963  -17.2955   23.2017 O   0  0  0  0  0  0  0  0  0  0  0  0
    7.9212  -16.8615   24.9900 N   0  0  0  0  0  0  0  0  0  0  0  0
    8.9142  -16.7435   26.0110 C   0  0  1  0  0  0  0  0  0  0  0  0
    8.7885  -15.5123   26.8892 C   0  0  0  0  0  0  0  0  0  0  0  0
    9.8854  -15.5236   27.9151 C   0  0  0  0  0  0  0  0  0  0  0  0
    9.7483  -14.3646   28.8698 C   0  0  0  0  0  0  0  0  0  0  0  0
    8.7883  -13.5588   28.8265 O   0  0  0  0  0  0  0  0  0  0  0  0
    9.1557  -17.9896   26.7550 C   0  0  0  0  0  0  0  0  0  0  0  0
   10.4195  -18.3669   27.1993 O   0  0  0  0  0  0  0  0  0  0  0  0
   10.7376  -14.2071   29.8231 O   0  0  0  0  0  0  0  0  0  0  0  0
    8.2136  -18.7794   27.0250 O   0  0  0  0  0  0  0  0  0  0  0  0
  1  5  1  0
  1  2  1  0
  2  3  1  0
  4  3  1  0
  5  4  1  0
  6  7  2  0
  5  6  1  1
  8  6  1  0
  9 10  1  6
  9  8  1  0
 11 10  1  0
 11 12  1  0
 13 14  1  0
 13 12  1  0
 15  9  1  0
 16 15  2  0
 17 15  1  0
 18 17  1  0
 19 20  1  0
 18 19  1  1
 21 25  1  0
 21 20  1  0
 22 21  2  0
 23 24  1  0
 23 18  1  0
 26 23  2  0
M  END
$$$$
