PKE.pdb
     RDKit          3D

 26 26  0  0  1  0  0  0  0  0999 V2000
    7.9820  -14.9592   18.5200 N   0  0  0  0  0  0  0  0  0  0  0  0
    7.9155  -13.9701   17.4367 C   0  0  0  0  0  0  0  0  0  0  0  0
    7.6199  -12.6527   18.1183 C   0  0  0  0  0  0  0  0  0  0  0  0
    7.7950  -12.9389   19.5810 C   0  0  0  0  0  0  0  0  0  0  0  0
    8.6519  -14.2103   19.5424 C   0  0  1  0  0  0  0  0  0  0  0  0
    8.5335  -14.8429   20.8829 C   0  0  0  0  0  0  0  0  0  0  0  0
    9.0498  -14.2766   21.8852 O   0  0  0  0  0  0  0  0  0  0  0  0
    7.8591  -16.0673   21.0908 N   0  0  0  0  0  0  0  0  0  0  0  0
    7.8057  -16.7660   22.3362 C   0  0  1  0  0  0  0  0  0  0  0  0
    6.8106  -17.9168   22.2967 C   0  0  0  0  0  0  0  0  0  0  0  0
    5.4374  -17.5040   21.8755 C   0  0  0  0  0  0  0  0  0  0  0  0
    4.5992  -18.7687   21.8103 C   0  0  0  0  0  0  0  0  0  0  0  0
    3.1617  -18.4249   21.4652 C   0  0  0  0  0  0  0  0  0  0  0  0
    2.3782  -19.6239   21.2885 N   0  0  0  0  0  0  0  0  0  0  0  0
    9.1639  -17.4030   22.5555 C   0  0  0  0  0  0  0  0  0  0  0  0
    9.6293  -18.2017   21.7102 O   0  0  0  0  0  0  0  0  0  0  0  0
    9.9180  -17.1069   23.7090 N   0  0  0  0  0  0  0  0  0  0  0  0
   11.2399  -17.5583   24.0110 C   0  0  1  0  0  0  0  0  0  0  0  0
   12.3445  -16.5672   23.6943 C   0  0  0  0  0  0  0  0  0  0  0  0
   13.6677  -17.1615   24.0838 C   0  0  0  0  0  0  0  0  0  0  0  0
   14.8028  -16.2275   23.7481 C   0  0  0  0  0  0  0  0  0  0  0  0
   15.9545  -16.3585   24.2269 O   0  0  0  0  0  0  0  0  0  0  0  0
   11.3654  -18.1957   25.3312 C   0  0  0  0  0  0  0  0  0  0  0  0
   12.4217  -19.0395   25.6611 O   0  0  0  0  0  0  0  0  0  0  0  0
   14.5342  -15.1910   22.8730 O   0  0  0  0  0  0  0  0  0  0  0  0
   10.5081  -18.0009   26.2320 O   0  0  0  0  0  0  0  0  0  0  0  0
  1  5  1  0
  1  2  1  0
  2  3  1  0
  4  3  1  0
  5  4  1  0
  6  7  2  0
  5  6  1  1
  8  6  1  0
  9 10  1  6
  9  8  1  0
 11 10  1  0
 11 12  1  0
 13 14  1  0
 13 12  1  0
 15  9  1  0
 16 15  2  0
 17 15  1  0
 18 17  1  0
 19 20  1  0
 18 19  1  1
 21 25  1  0
 21 20  1  0
 22 21  2  0
 23 24  1  0
 23 18  1  0
 26 23  2  0
M  END
$$$$
