PKE.pdb
     RDKit          3D

 26 26  0  0  1  0  0  0  0  0999 V2000
    7.9334  -14.9665   18.8574 N   0  0  0  0  0  0  0  0  0  0  0  0
    7.8882  -14.1463   17.6403 C   0  0  0  0  0  0  0  0  0  0  0  0
    7.5242  -12.7557   18.1107 C   0  0  0  0  0  0  0  0  0  0  0  0
    7.6403  -12.8225   19.6055 C   0  0  0  0  0  0  0  0  0  0  0  0
    8.5341  -14.0555   19.7871 C   0  0  1  0  0  0  0  0  0  0  0  0
    8.3725  -14.4926   21.1991 C   0  0  0  0  0  0  0  0  0  0  0  0
    8.8709  -13.7968   22.1261 O   0  0  0  0  0  0  0  0  0  0  0  0
    7.6759  -15.6687   21.5578 N   0  0  0  0  0  0  0  0  0  0  0  0
    7.5304  -16.1531   22.8944 C   0  0  1  0  0  0  0  0  0  0  0  0
    6.2514  -16.9597   23.0674 C   0  0  0  0  0  0  0  0  0  0  0  0
    5.8145  -17.6601   21.8215 C   0  0  0  0  0  0  0  0  0  0  0  0
    4.5862  -18.4761   22.1842 C   0  0  0  0  0  0  0  0  0  0  0  0
    4.0341  -19.1651   20.9496 C   0  0  0  0  0  0  0  0  0  0  0  0
    2.8250  -19.8869   21.2653 N   0  0  0  0  0  0  0  0  0  0  0  0
    8.6671  -17.1232   23.1496 C   0  0  0  0  0  0  0  0  0  0  0  0
    9.0221  -17.9271   22.2570 O   0  0  0  0  0  0  0  0  0  0  0  0
    9.3367  -17.1342   24.3899 N   0  0  0  0  0  0  0  0  0  0  0  0
   10.7092  -17.4573   24.6229 C   0  0  1  0  0  0  0  0  0  0  0  0
   11.7035  -16.4127   24.1506 C   0  0  0  0  0  0  0  0  0  0  0  0
   13.0964  -16.8816   24.4598 C   0  0  0  0  0  0  0  0  0  0  0  0
   14.0539  -16.5043   23.3577 C   0  0  0  0  0  0  0  0  0  0  0  0
   14.0695  -17.0816   22.2445 O   0  0  0  0  0  0  0  0  0  0  0  0
   10.9790  -17.9759   25.9731 C   0  0  0  0  0  0  0  0  0  0  0  0
   12.0531  -18.8145   26.2555 O   0  0  0  0  0  0  0  0  0  0  0  0
   14.9416  -15.4752   23.6128 O   0  0  0  0  0  0  0  0  0  0  0  0
   10.2370  -17.6776   26.9451 O   0  0  0  0  0  0  0  0  0  0  0  0
  1  5  1  0
  1  2  1  0
  2  3  1  0
  4  3  1  0
  5  4  1  0
  6  7  2  0
  5  6  1  1
  8  6  1  0
  9 10  1  6
  9  8  1  0
 11 10  1  0
 11 12  1  0
 13 14  1  0
 13 12  1  0
 15  9  1  0
 16 15  2  0
 17 15  1  0
 18 17  1  0
 19 20  1  0
 18 19  1  1
 21 25  1  0
 21 20  1  0
 22 21  2  0
 23 24  1  0
 23 18  1  0
 26 23  2  0
M  END
$$$$
