PKE.pdb
     RDKit          3D

 26 26  0  0  1  0  0  0  0  0999 V2000
    9.1356  -14.3096   18.5144 N   0  0  0  0  0  0  0  0  0  0  0  0
    8.8125  -13.2529   17.5472 C   0  0  0  0  0  0  0  0  0  0  0  0
    7.6083  -12.5415   18.1227 C   0  0  0  0  0  0  0  0  0  0  0  0
    7.4836  -13.0818   19.5172 C   0  0  0  0  0  0  0  0  0  0  0  0
    8.8934  -13.6363   19.7565 C   0  0  1  0  0  0  0  0  0  0  0  0
    8.7907  -14.5762   20.9041 C   0  0  0  0  0  0  0  0  0  0  0  0
    8.2447  -14.1925   21.9748 O   0  0  0  0  0  0  0  0  0  0  0  0
    9.2833  -15.8997   20.8515 N   0  0  0  0  0  0  0  0  0  0  0  0
    9.1850  -16.8478   21.9162 C   0  0  1  0  0  0  0  0  0  0  0  0
    9.5309  -18.2558   21.4533 C   0  0  0  0  0  0  0  0  0  0  0  0
    8.5449  -18.8247   20.4850 C   0  0  0  0  0  0  0  0  0  0  0  0
    9.0449  -20.2091   20.1114 C   0  0  0  0  0  0  0  0  0  0  0  0
    8.0941  -20.8581   19.1222 C   0  0  0  0  0  0  0  0  0  0  0  0
    8.5263  -22.1972   18.8018 N   0  0  0  0  0  0  0  0  0  0  0  0
   10.2366  -16.4822   22.9452 C   0  0  0  0  0  0  0  0  0  0  0  0
   11.4025  -16.2020   22.5827 O   0  0  0  0  0  0  0  0  0  0  0  0
    9.9184  -16.4535   24.3180 N   0  0  0  0  0  0  0  0  0  0  0  0
   10.8152  -16.2077   25.4033 C   0  0  1  0  0  0  0  0  0  0  0  0
   10.1502  -16.0080   26.7526 C   0  0  0  0  0  0  0  0  0  0  0  0
   11.1971  -15.6625   27.7726 C   0  0  0  0  0  0  0  0  0  0  0  0
   10.5894  -14.9526   28.9560 C   0  0  0  0  0  0  0  0  0  0  0  0
   11.1400  -13.9763   29.5186 O   0  0  0  0  0  0  0  0  0  0  0  0
   11.9763  -17.1109   25.4339 C   0  0  0  0  0  0  0  0  0  0  0  0
   13.2828  -16.6512   25.5700 O   0  0  0  0  0  0  0  0  0  0  0  0
    9.3731  -15.4192   29.4200 O   0  0  0  0  0  0  0  0  0  0  0  0
   11.8336  -18.3577   25.3365 O   0  0  0  0  0  0  0  0  0  0  0  0
  1  5  1  0
  1  2  1  0
  2  3  1  0
  4  3  1  0
  5  4  1  0
  6  7  2  0
  5  6  1  1
  8  6  1  0
  9 10  1  6
  9  8  1  0
 11 10  1  0
 11 12  1  0
 13 14  1  0
 13 12  1  0
 15  9  1  0
 16 15  2  0
 17 15  1  0
 18 17  1  0
 19 20  1  0
 18 19  1  1
 21 25  1  0
 21 20  1  0
 22 21  2  0
 23 24  1  0
 23 18  1  0
 26 23  2  0
M  END
$$$$
