PKE.pdb
     RDKit          3D

 26 26  0  0  1  0  0  0  0  0999 V2000
    8.0212  -14.9063   18.6880 N   0  0  0  0  0  0  0  0  0  0  0  0
    7.9535  -13.8644   17.6554 C   0  0  0  0  0  0  0  0  0  0  0  0
    7.4455  -12.6306   18.3676 C   0  0  0  0  0  0  0  0  0  0  0  0
    7.5039  -12.9870   19.8243 C   0  0  0  0  0  0  0  0  0  0  0  0
    8.4971  -14.1556   19.8127 C   0  0  1  0  0  0  0  0  0  0  0  0
    8.3163  -14.8791   21.0990 C   0  0  0  0  0  0  0  0  0  0  0  0
    8.7318  -14.3568   22.1697 O   0  0  0  0  0  0  0  0  0  0  0  0
    7.6909  -16.1438   21.1805 N   0  0  0  0  0  0  0  0  0  0  0  0
    7.5301  -16.8963   22.3847 C   0  0  1  0  0  0  0  0  0  0  0  0
    6.5401  -18.0389   22.2096 C   0  0  0  0  0  0  0  0  0  0  0  0
    6.4845  -18.9651   23.3811 C   0  0  0  0  0  0  0  0  0  0  0  0
    5.4801  -20.0505   23.0355 C   0  0  0  0  0  0  0  0  0  0  0  0
    5.3560  -21.0323   24.1864 C   0  0  0  0  0  0  0  0  0  0  0  0
    4.4520  -22.1049   23.8474 N   0  0  0  0  0  0  0  0  0  0  0  0
    8.8635  -17.5497   22.6906 C   0  0  0  0  0  0  0  0  0  0  0  0
    9.4690  -18.1926   21.8021 O   0  0  0  0  0  0  0  0  0  0  0  0
    9.4374  -17.4439   23.9737 N   0  0  0  0  0  0  0  0  0  0  0  0
   10.8092  -17.6437   24.3208 C   0  0  1  0  0  0  0  0  0  0  0  0
   11.7587  -16.5659   23.8313 C   0  0  0  0  0  0  0  0  0  0  0  0
   13.1685  -16.9601   24.1672 C   0  0  0  0  0  0  0  0  0  0  0  0
   14.1533  -15.9325   23.6694 C   0  0  0  0  0  0  0  0  0  0  0  0
   13.9304  -15.2052   22.6723 O   0  0  0  0  0  0  0  0  0  0  0  0
   11.0185  -18.0364   25.7233 C   0  0  0  0  0  0  0  0  0  0  0  0
   11.2057  -19.3591   26.1136 O   0  0  0  0  0  0  0  0  0  0  0  0
   15.3447  -15.8082   24.3603 O   0  0  0  0  0  0  0  0  0  0  0  0
   11.0370  -17.1780   26.6437 O   0  0  0  0  0  0  0  0  0  0  0  0
  1  5  1  0
  1  2  1  0
  2  3  1  0
  4  3  1  0
  5  4  1  0
  6  7  2  0
  5  6  1  1
  8  6  1  0
  9 10  1  6
  9  8  1  0
 11 10  1  0
 11 12  1  0
 13 14  1  0
 13 12  1  0
 15  9  1  0
 16 15  2  0
 17 15  1  0
 18 17  1  0
 19 20  1  0
 18 19  1  1
 21 25  1  0
 21 20  1  0
 22 21  2  0
 23 24  1  0
 23 18  1  0
 26 23  2  0
M  END
$$$$
