PKE.pdb
     RDKit          3D

 26 26  0  0  1  0  0  0  0  0999 V2000
    7.3186  -15.1567   19.2976 N   0  0  0  0  0  0  0  0  0  0  0  0
    6.8976  -14.7843   17.9410 C   0  0  0  0  0  0  0  0  0  0  0  0
    7.2081  -13.3091   17.8187 C   0  0  0  0  0  0  0  0  0  0  0  0
    8.0296  -12.9962   19.0351 C   0  0  0  0  0  0  0  0  0  0  0  0
    8.5228  -14.3916   19.4372 C   0  0  1  0  0  0  0  0  0  0  0  0
    8.9740  -14.2913   20.8504 C   0  0  0  0  0  0  0  0  0  0  0  0
   10.2058  -14.1890   21.1038 O   0  0  0  0  0  0  0  0  0  0  0  0
    8.0746  -14.3051   21.9404 N   0  0  0  0  0  0  0  0  0  0  0  0
    8.4406  -14.0665   23.3010 C   0  0  1  0  0  0  0  0  0  0  0  0
    7.2697  -13.5383   24.1173 C   0  0  0  0  0  0  0  0  0  0  0  0
    7.6062  -13.2907   25.5522 C   0  0  0  0  0  0  0  0  0  0  0  0
    6.3905  -12.6329   26.1811 C   0  0  0  0  0  0  0  0  0  0  0  0
    6.6895  -12.2502   27.6192 C   0  0  0  0  0  0  0  0  0  0  0  0
    5.5394  -11.6306   28.2324 N   0  0  0  0  0  0  0  0  0  0  0  0
    8.7993  -15.4059   23.9139 C   0  0  0  0  0  0  0  0  0  0  0  0
    7.9642  -16.3395   23.9215 O   0  0  0  0  0  0  0  0  0  0  0  0
   10.0719  -15.6179   24.4819 N   0  0  0  0  0  0  0  0  0  0  0  0
   10.6476  -16.8708   24.8576 C   0  0  1  0  0  0  0  0  0  0  0  0
   11.9696  -17.1964   24.1872 C   0  0  0  0  0  0  0  0  0  0  0  0
   13.0668  -17.1520   25.2119 C   0  0  0  0  0  0  0  0  0  0  0  0
   14.4036  -16.8903   24.5654 C   0  0  0  0  0  0  0  0  0  0  0  0
   15.2857  -17.7740   24.4474 O   0  0  0  0  0  0  0  0  0  0  0  0
   10.6308  -17.1243   26.3068 C   0  0  0  0  0  0  0  0  0  0  0  0
   10.9162  -18.3711   26.8551 O   0  0  0  0  0  0  0  0  0  0  0  0
   14.6404  -15.6128   24.0919 O   0  0  0  0  0  0  0  0  0  0  0  0
   10.3527  -16.2086   27.1245 O   0  0  0  0  0  0  0  0  0  0  0  0
  1  5  1  0
  1  2  1  0
  2  3  1  0
  4  3  1  0
  5  4  1  0
  6  7  2  0
  5  6  1  1
  8  6  1  0
  9 10  1  1
  9  8  1  0
 11 10  1  0
 11 12  1  0
 13 14  1  0
 13 12  1  0
 15  9  1  0
 16 15  2  0
 17 15  1  0
 18 17  1  0
 19 20  1  0
 18 19  1  1
 21 25  1  0
 21 20  1  0
 22 21  2  0
 23 24  1  0
 23 18  1  0
 26 23  2  0
M  END
$$$$
