PKE.pdb
     RDKit          3D

 26 26  0  0  1  0  0  0  0  0999 V2000
    8.8860  -14.5364   18.9513 N   0  0  0  0  0  0  0  0  0  0  0  0
    8.6148  -13.5127   17.9341 C   0  0  0  0  0  0  0  0  0  0  0  0
    7.5683  -12.6095   18.5476 C   0  0  0  0  0  0  0  0  0  0  0  0
    7.5018  -13.0341   19.9854 C   0  0  0  0  0  0  0  0  0  0  0  0
    8.8449  -13.7554   20.1527 C   0  0  1  0  0  0  0  0  0  0  0  0
    8.7267  -14.5945   21.3746 C   0  0  0  0  0  0  0  0  0  0  0  0
    8.3990  -14.0573   22.4681 O   0  0  0  0  0  0  0  0  0  0  0  0
    8.9677  -15.9870   21.3689 N   0  0  0  0  0  0  0  0  0  0  0  0
    8.7964  -16.8473   22.4971 C   0  0  1  0  0  0  0  0  0  0  0  0
    8.8529  -18.3160   22.1019 C   0  0  0  0  0  0  0  0  0  0  0  0
    7.7181  -18.7429   21.2281 C   0  0  0  0  0  0  0  0  0  0  0  0
    7.9376  -20.2113   20.9093 C   0  0  0  0  0  0  0  0  0  0  0  0
    6.8710  -20.7016   19.9471 C   0  0  0  0  0  0  0  0  0  0  0  0
    7.0431  -22.1068   19.6668 N   0  0  0  0  0  0  0  0  0  0  0  0
    9.9783  -16.6231   23.4198 C   0  0  0  0  0  0  0  0  0  0  0  0
   11.1243  -16.4484   22.9451 O   0  0  0  0  0  0  0  0  0  0  0  0
    9.8045  -16.6088   24.8185 N   0  0  0  0  0  0  0  0  0  0  0  0
   10.8059  -16.3569   25.8065 C   0  0  1  0  0  0  0  0  0  0  0  0
   10.3398  -15.5431   26.9996 C   0  0  0  0  0  0  0  0  0  0  0  0
    9.7389  -14.2550   26.5142 C   0  0  0  0  0  0  0  0  0  0  0  0
    9.2341  -13.4230   27.6659 C   0  0  0  0  0  0  0  0  0  0  0  0
    9.3225  -13.7928   28.8610 O   0  0  0  0  0  0  0  0  0  0  0  0
   11.6042  -17.5405   26.1621 C   0  0  0  0  0  0  0  0  0  0  0  0
   12.8554  -17.4500   26.7647 O   0  0  0  0  0  0  0  0  0  0  0  0
    8.6532  -12.2053   27.3626 O   0  0  0  0  0  0  0  0  0  0  0  0
   11.1816  -18.7036   25.9320 O   0  0  0  0  0  0  0  0  0  0  0  0
  1  5  1  0
  1  2  1  0
  2  3  1  0
  4  3  1  0
  5  4  1  0
  6  7  2  0
  5  6  1  1
  8  6  1  0
  9 10  1  6
  9  8  1  0
 11 10  1  0
 11 12  1  0
 13 14  1  0
 13 12  1  0
 15  9  1  0
 16 15  2  0
 17 15  1  0
 18 17  1  0
 19 20  1  0
 18 19  1  1
 21 25  1  0
 21 20  1  0
 22 21  2  0
 23 24  1  0
 23 18  1  0
 26 23  2  0
M  END
$$$$
