PKE.pdb
     RDKit          3D

 26 26  0  0  1  0  0  0  0  0999 V2000
    8.5094  -14.8906   18.6974 N   0  0  0  0  0  0  0  0  0  0  0  0
    8.6157  -13.9568   17.5691 C   0  0  0  0  0  0  0  0  0  0  0  0
    7.8546  -12.7231   18.0005 C   0  0  0  0  0  0  0  0  0  0  0  0
    7.5820  -12.9411   19.4601 C   0  0  0  0  0  0  0  0  0  0  0  0
    8.6356  -13.9985   19.8123 C   0  0  1  0  0  0  0  0  0  0  0  0
    8.2021  -14.6199   21.0918 C   0  0  0  0  0  0  0  0  0  0  0  0
    8.1790  -13.9243   22.1441 O   0  0  0  0  0  0  0  0  0  0  0  0
    7.8081  -15.9738   21.1864 N   0  0  0  0  0  0  0  0  0  0  0  0
    7.3288  -16.6008   22.3777 C   0  0  1  0  0  0  0  0  0  0  0  0
    6.8716  -18.0293   22.1201 C   0  0  0  0  0  0  0  0  0  0  0  0
    6.5055  -18.7722   23.3642 C   0  0  0  0  0  0  0  0  0  0  0  0
    6.0659  -20.1605   22.9334 C   0  0  0  0  0  0  0  0  0  0  0  0
    5.5343  -20.9333   24.1268 C   0  0  0  0  0  0  0  0  0  0  0  0
    5.2269  -22.2943   23.7580 N   0  0  0  0  0  0  0  0  0  0  0  0
    8.5003  -16.7091   23.3339 C   0  0  0  0  0  0  0  0  0  0  0  0
    9.6483  -16.9580   22.8987 O   0  0  0  0  0  0  0  0  0  0  0  0
    8.3144  -16.5328   24.7200 N   0  0  0  0  0  0  0  0  0  0  0  0
    9.3327  -16.3983   25.7136 C   0  0  1  0  0  0  0  0  0  0  0  0
    9.0106  -15.4287   26.8356 C   0  0  0  0  0  0  0  0  0  0  0  0
   10.1693  -15.3750   27.7896 C   0  0  0  0  0  0  0  0  0  0  0  0
    9.8950  -14.4208   28.9245 C   0  0  0  0  0  0  0  0  0  0  0  0
    8.7829  -13.8655   29.0912 O   0  0  0  0  0  0  0  0  0  0  0  0
    9.8937  -17.6797   26.1699 C   0  0  0  0  0  0  0  0  0  0  0  0
   11.2522  -17.8623   26.4106 O   0  0  0  0  0  0  0  0  0  0  0  0
   10.9316  -14.1649   29.8032 O   0  0  0  0  0  0  0  0  0  0  0  0
    9.1558  -18.6806   26.3648 O   0  0  0  0  0  0  0  0  0  0  0  0
  1  5  1  0
  1  2  1  0
  2  3  1  0
  4  3  1  0
  5  4  1  0
  6  7  2  0
  5  6  1  1
  8  6  1  0
  9 10  1  6
  9  8  1  0
 11 10  1  0
 11 12  1  0
 13 14  1  0
 13 12  1  0
 15  9  1  0
 16 15  2  0
 17 15  1  0
 18 17  1  0
 19 20  1  0
 18 19  1  1
 21 25  1  0
 21 20  1  0
 22 21  2  0
 23 24  1  0
 23 18  1  0
 26 23  2  0
M  END
$$$$
