PKE.pdb
     RDKit          3D

 26 26  0  0  1  0  0  0  0  0999 V2000
    7.8195  -12.4414   26.4614 N   0  0  0  0  0  0  0  0  0  0  0  0
    7.2593  -11.6729   27.5803 C   0  0  0  0  0  0  0  0  0  0  0  0
    5.7587  -11.7704   27.4183 C   0  0  0  0  0  0  0  0  0  0  0  0
    5.5625  -12.8119   26.3558 C   0  0  0  0  0  0  0  0  0  0  0  0
    6.9083  -13.5462   26.3964 C   0  0  1  0  0  0  0  0  0  0  0  0
    7.0183  -14.3017   25.1204 C   0  0  0  0  0  0  0  0  0  0  0  0
    6.3413  -15.3545   24.9611 O   0  0  0  0  0  0  0  0  0  0  0  0
    7.8579  -13.8899   24.0609 N   0  0  0  0  0  0  0  0  0  0  0  0
    7.9961  -14.5792   22.8167 C   0  0  1  0  0  0  0  0  0  0  0  0
    7.8664  -13.6352   21.6300 C   0  0  0  0  0  0  0  0  0  0  0  0
    8.0149  -14.3154   20.3075 C   0  0  0  0  0  0  0  0  0  0  0  0
    8.0019  -13.2260   19.2495 C   0  0  0  0  0  0  0  0  0  0  0  0
    8.1488  -13.8382   17.8683 C   0  0  0  0  0  0  0  0  0  0  0  0
    8.1375  -12.8137   16.8520 N   0  0  0  0  0  0  0  0  0  0  0  0
    9.4094  -15.1246   22.7569 C   0  0  0  0  0  0  0  0  0  0  0  0
   10.3499  -14.4989   23.2984 O   0  0  0  0  0  0  0  0  0  0  0  0
    9.6834  -16.3376   22.0933 N   0  0  0  0  0  0  0  0  0  0  0  0
   10.8856  -17.1065   22.1695 C   0  0  1  0  0  0  0  0  0  0  0  0
   11.4109  -17.3389   23.5741 C   0  0  0  0  0  0  0  0  0  0  0  0
   10.3946  -18.1183   24.3586 C   0  0  0  0  0  0  0  0  0  0  0  0
   10.9127  -18.4567   25.7336 C   0  0  0  0  0  0  0  0  0  0  0  0
   11.7763  -17.7645   26.3234 O   0  0  0  0  0  0  0  0  0  0  0  0
   10.8779  -18.3109   21.3244 C   0  0  0  0  0  0  0  0  0  0  0  0
   12.0197  -19.0704   21.0877 O   0  0  0  0  0  0  0  0  0  0  0  0
   10.3967  -19.5837   26.3467 O   0  0  0  0  0  0  0  0  0  0  0  0
    9.8204  -18.7109   20.7711 O   0  0  0  0  0  0  0  0  0  0  0  0
  1  5  1  0
  1  2  1  0
  2  3  1  0
  4  3  1  0
  5  4  1  0
  6  7  2  0
  5  6  1  6
  8  6  1  0
  9 10  1  6
  9  8  1  0
 11 10  1  0
 11 12  1  0
 13 14  1  0
 13 12  1  0
 15  9  1  0
 16 15  2  0
 17 15  1  0
 18 17  1  0
 19 20  1  0
 18 19  1  1
 21 25  1  0
 21 20  1  0
 22 21  2  0
 23 24  1  0
 23 18  1  0
 26 23  2  0
M  END
$$$$
