QWI.pdb
     RDKit          3D

 32 33  0  0  1  0  0  0  0  0999 V2000
   28.2563  -21.4776  -19.7680 N   0  0  0  0  0  0  0  0  0  0  0  0
   27.2885  -20.6555  -20.3982 C   0  0  0  0  0  0  0  0  0  0  0  0
   27.4365  -20.3398  -21.5949 O   0  0  0  0  0  0  0  0  0  0  0  0
   26.1205  -20.1839  -19.6399 C   0  0  0  0  0  0  0  0  0  0  0  0
   26.1295  -20.7147  -18.2452 C   0  0  0  0  0  0  0  0  0  0  0  0
   26.1701  -19.6448  -17.2047 C   0  0  2  0  0  0  0  0  0  0  0  0
   27.3138  -18.7984  -17.5038 N   0  0  0  0  0  0  0  0  0  0  0  0
   26.3538  -20.2847  -15.8471 C   0  0  0  0  0  0  0  0  0  0  0  0
   25.7925  -21.3639  -15.5854 O   0  0  0  0  0  0  0  0  0  0  0  0
   27.1646  -19.6371  -14.9000 N   0  0  0  0  0  0  0  0  0  0  0  0
   27.2634  -20.0685  -13.5149 C   0  0  1  0  0  0  0  0  0  0  0  0
   28.4582  -19.4991  -12.8252 C   0  0  0  0  0  0  0  0  0  0  0  0
   28.6513  -20.2010  -11.5363 C   0  0  0  0  0  0  0  0  0  0  0  0
   29.3842  -21.3603  -11.3747 C   0  0  0  0  0  0  0  0  0  0  0  0
   29.3166  -21.6785  -10.0859 N   0  0  0  0  0  0  0  0  0  0  0  0
   28.5838  -20.7937   -9.4067 C   0  0  0  0  0  0  0  0  0  0  0  0
   28.2192  -20.6725   -8.0917 C   0  0  0  0  0  0  0  0  0  0  0  0
   27.4347  -19.6421   -7.6233 C   0  0  0  0  0  0  0  0  0  0  0  0
   27.0199  -18.7116   -8.5586 C   0  0  0  0  0  0  0  0  0  0  0  0
   27.3708  -18.8092   -9.8817 C   0  0  0  0  0  0  0  0  0  0  0  0
   28.1528  -19.8518  -10.3011 C   0  0  0  0  0  0  0  0  0  0  0  0
   26.0071  -19.7814  -12.7954 C   0  0  0  0  0  0  0  0  0  0  0  0
   25.4744  -18.6496  -12.8839 O   0  0  0  0  0  0  0  0  0  0  0  0
   20.5632  -21.0180  -12.8531 C   0  0  0  0  0  0  0  0  0  0  0  0
   21.5904  -20.6704  -11.7992 C   0  0  0  0  0  0  0  0  0  0  0  0
   22.9459  -20.8955  -12.3877 C   0  0  2  0  0  0  0  0  0  0  0  0
   23.1036  -22.3576  -12.7270 C   0  0  0  0  0  0  0  0  0  0  0  0
   24.0520  -20.5431  -11.3967 C   0  0  2  0  0  0  0  0  0  0  0  0
   25.3580  -20.7536  -11.9868 N   0  0  0  0  0  0  0  0  0  0  0  0
   23.9150  -21.4647  -10.2436 C   0  0  0  0  0  0  0  0  0  0  0  0
   22.9933  -21.2510   -9.2293 O   0  0  0  0  0  0  0  0  0  0  0  0
   24.6344  -22.4730  -10.1497 O   0  0  0  0  0  0  0  0  0  0  0  0
  2  3  2  0
  2  1  1  0
  4  2  1  0
  5  4  1  0
  6  5  1  0
  6  7  1  6
  8  6  1  0
  8  9  2  0
 10  8  1  0
 11 10  1  0
 11 12  1  1
 13 12  1  0
 13 14  2  0
 15 14  1  0
 16 15  1  0
 17 16  2  0
 18 17  1  0
 19 18  2  0
 19 20  1  0
 20 21  2  0
 21 16  1  0
 21 13  1  0
 22 11  1  0
 23 22  2  0
 25 24  1  0
 26 27  1  1
 26 28  1  0
 26 25  1  0
 28 29  1  6
 29 22  1  0
 30 28  1  0
 30 31  1  0
 32 30  2  0
M  END
$$$$
