QWI.pdb
     RDKit          3D

 32 33  0  0  1  0  0  0  0  0999 V2000
   28.0346  -17.1397  -14.4214 N   0  0  0  0  0  0  0  0  0  0  0  0
   28.7717  -17.4145  -15.6008 C   0  0  0  0  0  0  0  0  0  0  0  0
   29.5854  -16.5718  -16.0267 O   0  0  0  0  0  0  0  0  0  0  0  0
   28.5737  -18.6870  -16.3100 C   0  0  0  0  0  0  0  0  0  0  0  0
   27.6146  -19.5692  -15.5828 C   0  0  0  0  0  0  0  0  0  0  0  0
   28.2493  -20.3538  -14.4825 C   0  0  2  0  0  0  0  0  0  0  0  0
   29.2047  -21.2607  -15.0979 N   0  0  0  0  0  0  0  0  0  0  0  0
   27.1821  -21.1507  -13.7667 C   0  0  0  0  0  0  0  0  0  0  0  0
   26.3979  -21.8663  -14.4155 O   0  0  0  0  0  0  0  0  0  0  0  0
   27.0997  -21.0632  -12.3669 N   0  0  0  0  0  0  0  0  0  0  0  0
   26.0929  -21.7657  -11.5875 C   0  0  1  0  0  0  0  0  0  0  0  0
   26.6012  -22.1879  -10.2493 C   0  0  0  0  0  0  0  0  0  0  0  0
   26.6841  -21.0012   -9.3684 C   0  0  0  0  0  0  0  0  0  0  0  0
   25.8849  -19.8806   -9.4819 C   0  0  0  0  0  0  0  0  0  0  0  0
   26.2642  -19.0421   -8.5229 N   0  0  0  0  0  0  0  0  0  0  0  0
   27.2603  -19.5549   -7.7976 C   0  0  0  0  0  0  0  0  0  0  0  0
   27.9849  -19.1037   -6.7260 C   0  0  0  0  0  0  0  0  0  0  0  0
   28.9904  -19.8385   -6.1384 C   0  0  0  0  0  0  0  0  0  0  0  0
   29.2449  -21.0817   -6.6884 C   0  0  0  0  0  0  0  0  0  0  0  0
   28.5341  -21.5577   -7.7615 C   0  0  0  0  0  0  0  0  0  0  0  0
   27.5429  -20.7909   -8.3126 C   0  0  0  0  0  0  0  0  0  0  0  0
   24.8598  -20.9600  -11.4936 C   0  0  0  0  0  0  0  0  0  0  0  0
   24.8973  -19.8042  -11.0086 O   0  0  0  0  0  0  0  0  0  0  0  0
   23.0485  -19.9093  -15.9019 C   0  0  0  0  0  0  0  0  0  0  0  0
   23.3195  -19.8083  -14.4176 C   0  0  0  0  0  0  0  0  0  0  0  0
   22.1962  -20.4839  -13.6992 C   0  0  2  0  0  0  0  0  0  0  0  0
   20.9369  -19.6696  -13.8685 C   0  0  0  0  0  0  0  0  0  0  0  0
   22.4689  -20.5820  -12.2005 C   0  0  2  0  0  0  0  0  0  0  0  0
   23.6009  -21.4471  -11.9390 N   0  0  0  0  0  0  0  0  0  0  0  0
   21.2704  -21.1930  -11.5777 C   0  0  0  0  0  0  0  0  0  0  0  0
   21.0486  -22.5622  -11.5836 O   0  0  0  0  0  0  0  0  0  0  0  0
   20.4141  -20.4847  -11.0228 O   0  0  0  0  0  0  0  0  0  0  0  0
  2  3  2  0
  2  1  1  0
  4  2  1  0
  5  4  1  0
  6  5  1  0
  6  7  1  6
  8  6  1  0
  8  9  2  0
 10  8  1  0
 11 10  1  0
 11 12  1  1
 13 12  1  0
 13 14  2  0
 15 14  1  0
 16 15  1  0
 17 16  2  0
 18 17  1  0
 19 18  2  0
 19 20  1  0
 20 21  2  0
 21 16  1  0
 21 13  1  0
 22 11  1  0
 23 22  2  0
 25 24  1  0
 26 27  1  1
 26 28  1  0
 26 25  1  0
 28 29  1  6
 29 22  1  0
 30 28  1  0
 30 31  1  0
 32 30  2  0
M  END
$$$$
