QWI.pdb
     RDKit          3D

 32 33  0  0  1  0  0  0  0  0999 V2000
   30.5288  -23.5481  -15.5424 N   0  0  0  0  0  0  0  0  0  0  0  0
   29.8823  -22.7798  -16.5431 C   0  0  0  0  0  0  0  0  0  0  0  0
   30.5433  -21.9618  -17.2121 O   0  0  0  0  0  0  0  0  0  0  0  0
   28.4426  -22.9532  -16.7856 C   0  0  0  0  0  0  0  0  0  0  0  0
   27.6817  -23.0228  -15.5037 C   0  0  0  0  0  0  0  0  0  0  0  0
   26.7682  -21.8607  -15.2936 C   0  0  2  0  0  0  0  0  0  0  0  0
   27.5979  -20.6685  -15.2306 N   0  0  0  0  0  0  0  0  0  0  0  0
   26.0371  -22.0397  -13.9822 C   0  0  0  0  0  0  0  0  0  0  0  0
   25.4282  -23.0991  -13.7475 O   0  0  0  0  0  0  0  0  0  0  0  0
   26.0625  -20.9917  -13.0469 N   0  0  0  0  0  0  0  0  0  0  0  0
   25.1445  -20.9117  -11.9221 C   0  0  1  0  0  0  0  0  0  0  0  0
   25.6679  -20.0519  -10.8201 C   0  0  0  0  0  0  0  0  0  0  0  0
   26.9118  -20.6530  -10.2886 C   0  0  0  0  0  0  0  0  0  0  0  0
   27.7590  -21.4722  -11.0085 C   0  0  0  0  0  0  0  0  0  0  0  0
   28.7510  -21.8092  -10.1905 N   0  0  0  0  0  0  0  0  0  0  0  0
   28.5941  -21.2563   -8.9860 C   0  0  0  0  0  0  0  0  0  0  0  0
   29.3182  -21.2909   -7.8234 C   0  0  0  0  0  0  0  0  0  0  0  0
   28.9381  -20.6183   -6.6834 C   0  0  0  0  0  0  0  0  0  0  0  0
   27.7661  -19.8883   -6.7626 C   0  0  0  0  0  0  0  0  0  0  0  0
   27.0220  -19.8366   -7.9146 C   0  0  0  0  0  0  0  0  0  0  0  0
   27.4398  -20.5221   -9.0235 C   0  0  0  0  0  0  0  0  0  0  0  0
   23.8059  -20.4899  -12.3790 C   0  0  0  0  0  0  0  0  0  0  0  0
   23.6199  -19.3199  -12.7901 O   0  0  0  0  0  0  0  0  0  0  0  0
   19.7216  -21.6703  -16.2342 C   0  0  0  0  0  0  0  0  0  0  0  0
   19.8032  -21.2101  -14.7960 C   0  0  0  0  0  0  0  0  0  0  0  0
   21.1716  -21.5326  -14.2881 C   0  0  2  0  0  0  0  0  0  0  0  0
   21.3363  -23.0313  -14.2212 C   0  0  0  0  0  0  0  0  0  0  0  0
   21.3857  -20.9943  -12.8759 C   0  0  2  0  0  0  0  0  0  0  0  0
   22.6910  -21.3714  -12.3737 N   0  0  0  0  0  0  0  0  0  0  0  0
   20.3607  -21.6231  -12.0088 C   0  0  0  0  0  0  0  0  0  0  0  0
   19.0432  -21.1902  -11.9851 O   0  0  0  0  0  0  0  0  0  0  0  0
   20.6566  -22.5727  -11.2647 O   0  0  0  0  0  0  0  0  0  0  0  0
  2  3  2  0
  2  1  1  0
  4  2  1  0
  5  4  1  0
  6  5  1  0
  6  7  1  1
  8  6  1  0
  8  9  2  0
 10  8  1  0
 11 10  1  0
 11 12  1  1
 13 12  1  0
 13 14  2  0
 15 14  1  0
 16 15  1  0
 17 16  2  0
 18 17  1  0
 19 18  2  0
 19 20  1  0
 20 21  2  0
 21 16  1  0
 21 13  1  0
 22 11  1  0
 23 22  2  0
 25 24  1  0
 26 27  1  1
 26 28  1  0
 26 25  1  0
 28 29  1  1
 29 22  1  0
 30 28  1  0
 30 31  1  0
 32 30  2  0
M  END
$$$$
