QWI.pdb
     RDKit          3D

 32 33  0  0  1  0  0  0  0  0999 V2000
   24.8006  -21.6799  -20.6105 N   0  0  0  0  0  0  0  0  0  0  0  0
   25.2207  -20.3516  -20.8730 C   0  0  0  0  0  0  0  0  0  0  0  0
   24.9584  -19.8310  -21.9747 O   0  0  0  0  0  0  0  0  0  0  0  0
   25.9586  -19.5992  -19.8478 C   0  0  0  0  0  0  0  0  0  0  0  0
   26.1471  -20.4116  -18.6102 C   0  0  0  0  0  0  0  0  0  0  0  0
   27.3152  -19.9763  -17.7885 C   0  0  2  0  0  0  0  0  0  0  0  0
   28.5074  -20.5292  -18.4105 N   0  0  0  0  0  0  0  0  0  0  0  0
   27.1683  -20.5323  -16.3901 C   0  0  0  0  0  0  0  0  0  0  0  0
   26.5224  -21.5787  -16.1999 O   0  0  0  0  0  0  0  0  0  0  0  0
   27.7723  -19.8454  -15.3239 N   0  0  0  0  0  0  0  0  0  0  0  0
   27.6361  -20.2593  -13.9366 C   0  0  1  0  0  0  0  0  0  0  0  0
   28.7073  -19.6924  -13.0655 C   0  0  0  0  0  0  0  0  0  0  0  0
   28.7094  -20.4130  -11.7725 C   0  0  0  0  0  0  0  0  0  0  0  0
   29.4612  -21.5393  -11.5015 C   0  0  0  0  0  0  0  0  0  0  0  0
   29.1874  -21.8891  -10.2487 N   0  0  0  0  0  0  0  0  0  0  0  0
   28.3038  -21.0558   -9.6957 C   0  0  0  0  0  0  0  0  0  0  0  0
   27.7108  -20.9816   -8.4628 C   0  0  0  0  0  0  0  0  0  0  0  0
   26.8055  -20.0007   -8.1244 C   0  0  0  0  0  0  0  0  0  0  0  0
   26.5123  -19.0704   -9.1048 C   0  0  0  0  0  0  0  0  0  0  0  0
   27.0919  -19.1215  -10.3477 C   0  0  0  0  0  0  0  0  0  0  0  0
   27.9870  -20.1158  -10.6385 C   0  0  0  0  0  0  0  0  0  0  0  0
   26.2818  -19.9505  -13.4377 C   0  0  0  0  0  0  0  0  0  0  0  0
   25.8374  -18.7797  -13.5036 O   0  0  0  0  0  0  0  0  0  0  0  0
   20.6283  -21.3659  -13.5633 C   0  0  0  0  0  0  0  0  0  0  0  0
   21.6760  -20.8468  -12.6044 C   0  0  0  0  0  0  0  0  0  0  0  0
   23.0189  -21.2081  -13.1526 C   0  0  2  0  0  0  0  0  0  0  0  0
   23.1687  -22.7098  -13.1507 C   0  0  0  0  0  0  0  0  0  0  0  0
   24.1455  -20.6437  -12.2911 C   0  0  2  0  0  0  0  0  0  0  0  0
   25.4378  -20.9446  -12.8722 N   0  0  0  0  0  0  0  0  0  0  0  0
   24.0665  -21.3174  -10.9730 C   0  0  0  0  0  0  0  0  0  0  0  0
   23.1482  -20.9432  -10.0031 O   0  0  0  0  0  0  0  0  0  0  0  0
   24.8340  -22.2531  -10.6928 O   0  0  0  0  0  0  0  0  0  0  0  0
  2  3  2  0
  2  1  1  0
  4  2  1  0
  5  4  1  0
  6  5  1  0
  6  7  1  6
  8  6  1  0
  8  9  2  0
 10  8  1  0
 11 10  1  0
 11 12  1  1
 13 12  1  0
 13 14  2  0
 15 14  1  0
 16 15  1  0
 17 16  2  0
 18 17  1  0
 19 18  2  0
 19 20  1  0
 20 21  2  0
 21 16  1  0
 21 13  1  0
 22 11  1  0
 23 22  2  0
 25 24  1  0
 26 27  1  1
 26 28  1  0
 26 25  1  0
 28 29  1  6
 29 22  1  0
 30 28  1  0
 30 31  1  0
 32 30  2  0
M  END
$$$$
