QWI.pdb
     RDKit          3D

 32 33  0  0  1  0  0  0  0  0999 V2000
   29.2695  -24.1537  -16.2339 N   0  0  0  0  0  0  0  0  0  0  0  0
   29.5593  -23.5010  -17.4585 C   0  0  0  0  0  0  0  0  0  0  0  0
   29.2028  -24.0238  -18.5323 O   0  0  0  0  0  0  0  0  0  0  0  0
   30.2740  -22.2161  -17.4540 C   0  0  0  0  0  0  0  0  0  0  0  0
   29.4380  -21.1332  -16.8576 C   0  0  0  0  0  0  0  0  0  0  0  0
   28.2940  -20.7229  -17.7247 C   0  0  2  0  0  0  0  0  0  0  0  0
   28.8019  -19.7415  -18.6695 N   0  0  0  0  0  0  0  0  0  0  0  0
   27.2244  -20.0911  -16.8627 C   0  0  0  0  0  0  0  0  0  0  0  0
   27.5337  -19.2404  -16.0090 O   0  0  0  0  0  0  0  0  0  0  0  0
   25.8886  -20.4845  -17.0483 N   0  0  0  0  0  0  0  0  0  0  0  0
   24.7915  -19.9648  -16.2478 C   0  0  1  0  0  0  0  0  0  0  0  0
   23.6217  -19.5583  -17.0807 C   0  0  0  0  0  0  0  0  0  0  0  0
   22.5676  -19.0108  -16.1975 C   0  0  0  0  0  0  0  0  0  0  0  0
   22.7166  -17.8999  -15.3909 C   0  0  0  0  0  0  0  0  0  0  0  0
   21.5617  -17.7321  -14.7545 N   0  0  0  0  0  0  0  0  0  0  0  0
   20.6769  -18.6686  -15.1024 C   0  0  0  0  0  0  0  0  0  0  0  0
   19.3815  -18.9319  -14.7424 C   0  0  0  0  0  0  0  0  0  0  0  0
   18.6610  -19.9876  -15.2549 C   0  0  0  0  0  0  0  0  0  0  0  0
   19.3153  -20.7911  -16.1709 C   0  0  0  0  0  0  0  0  0  0  0  0
   20.6123  -20.5497  -16.5489 C   0  0  0  0  0  0  0  0  0  0  0  0
   21.2889  -19.4875  -16.0122 C   0  0  0  0  0  0  0  0  0  0  0  0
   24.4238  -20.9276  -15.1912 C   0  0  0  0  0  0  0  0  0  0  0  0
   24.1749  -22.1211  -15.4848 O   0  0  0  0  0  0  0  0  0  0  0  0
   25.6771  -19.9906   -9.7582 C   0  0  0  0  0  0  0  0  0  0  0  0
   24.7228  -20.0090  -10.9311 C   0  0  0  0  0  0  0  0  0  0  0  0
   24.7904  -21.3650  -11.5565 C   0  0  2  0  0  0  0  0  0  0  0  0
   26.2023  -21.6285  -12.0200 C   0  0  0  0  0  0  0  0  0  0  0  0
   23.8897  -21.4604  -12.7850 C   0  0  2  0  0  0  0  0  0  0  0  0
   24.3369  -20.5539  -13.8226 N   0  0  0  0  0  0  0  0  0  0  0  0
   22.5312  -21.0421  -12.3639 C   0  0  0  0  0  0  0  0  0  0  0  0
   21.7224  -21.8415  -11.5698 O   0  0  0  0  0  0  0  0  0  0  0  0
   22.0687  -19.9443  -12.7162 O   0  0  0  0  0  0  0  0  0  0  0  0
  2  3  2  0
  2  1  1  0
  4  2  1  0
  5  4  1  0
  6  5  1  0
  6  7  1  6
  8  6  1  0
  8  9  2  0
 10  8  1  0
 11 10  1  0
 11 12  1  6
 13 12  1  0
 13 14  2  0
 15 14  1  0
 16 15  1  0
 17 16  2  0
 18 17  1  0
 19 18  2  0
 19 20  1  0
 20 21  2  0
 21 16  1  0
 21 13  1  0
 22 11  1  0
 23 22  2  0
 25 24  1  0
 26 27  1  6
 26 28  1  0
 26 25  1  0
 28 29  1  6
 29 22  1  0
 30 28  1  0
 30 31  1  0
 32 30  2  0
M  END
$$$$
