QWI.pdb
     RDKit          3D

 32 33  0  0  1  0  0  0  0  0999 V2000
   27.9232  -25.6802  -18.0344 N   0  0  0  0  0  0  0  0  0  0  0  0
   28.9729  -25.0182  -18.7195 C   0  0  0  0  0  0  0  0  0  0  0  0
   29.3405  -25.4391  -19.8337 O   0  0  0  0  0  0  0  0  0  0  0  0
   29.6174  -23.8431  -18.1148 C   0  0  0  0  0  0  0  0  0  0  0  0
   29.0034  -23.5065  -16.7970 C   0  0  0  0  0  0  0  0  0  0  0  0
   27.7250  -22.7447  -16.9168 C   0  0  2  0  0  0  0  0  0  0  0  0
   28.0449  -21.4616  -17.5210 N   0  0  0  0  0  0  0  0  0  0  0  0
   27.1508  -22.5258  -15.5353 C   0  0  0  0  0  0  0  0  0  0  0  0
   26.7959  -23.4991  -14.8462 O   0  0  0  0  0  0  0  0  0  0  0  0
   27.0296  -21.2109  -15.0555 N   0  0  0  0  0  0  0  0  0  0  0  0
   26.4795  -20.8927  -13.7475 C   0  0  1  0  0  0  0  0  0  0  0  0
   27.2530  -19.8242  -13.0493 C   0  0  0  0  0  0  0  0  0  0  0  0
   27.6771  -20.3246  -11.7223 C   0  0  0  0  0  0  0  0  0  0  0  0
   28.8742  -20.9650  -11.4696 C   0  0  0  0  0  0  0  0  0  0  0  0
   28.8826  -21.2618  -10.1739 N   0  0  0  0  0  0  0  0  0  0  0  0
   27.7625  -20.8510   -9.5760 C   0  0  0  0  0  0  0  0  0  0  0  0
   27.2944  -20.9137   -8.2900 C   0  0  0  0  0  0  0  0  0  0  0  0
   26.0722  -20.4044   -7.9116 C   0  0  0  0  0  0  0  0  0  0  0  0
   25.3180  -19.8123   -8.9082 C   0  0  0  0  0  0  0  0  0  0  0  0
   25.7631  -19.7361  -10.2042 C   0  0  0  0  0  0  0  0  0  0  0  0
   26.9858  -20.2566  -10.5333 C   0  0  0  0  0  0  0  0  0  0  0  0
   25.0438  -20.5688  -13.8578 C   0  0  0  0  0  0  0  0  0  0  0  0
   24.6651  -19.6242  -14.5905 O   0  0  0  0  0  0  0  0  0  0  0  0
   21.7174  -23.9484  -15.5548 C   0  0  0  0  0  0  0  0  0  0  0  0
   22.3385  -22.6167  -15.1974 C   0  0  0  0  0  0  0  0  0  0  0  0
   21.8937  -22.2591  -13.8159 C   0  0  2  0  0  0  0  0  0  0  0  0
   20.4235  -21.9196  -13.8395 C   0  0  0  0  0  0  0  0  0  0  0  0
   22.6299  -21.0289  -13.2918 C   0  0  2  0  0  0  0  0  0  0  0  0
   24.0467  -21.2970  -13.1536 N   0  0  0  0  0  0  0  0  0  0  0  0
   22.0847  -20.7347  -11.9449 C   0  0  0  0  0  0  0  0  0  0  0  0
   21.0370  -19.8475  -11.7470 O   0  0  0  0  0  0  0  0  0  0  0  0
   22.5583  -21.2832  -10.9361 O   0  0  0  0  0  0  0  0  0  0  0  0
  2  3  2  0
  2  1  1  0
  4  2  1  0
  5  4  1  0
  6  5  1  0
  6  7  1  1
  8  6  1  0
  8  9  2  0
 10  8  1  0
 11 10  1  0
 11 12  1  6
 13 12  1  0
 13 14  2  0
 15 14  1  0
 16 15  1  0
 17 16  2  0
 18 17  1  0
 19 18  2  0
 19 20  1  0
 20 21  2  0
 21 16  1  0
 21 13  1  0
 22 11  1  0
 23 22  2  0
 25 24  1  0
 26 27  1  6
 26 28  1  0
 26 25  1  0
 28 29  1  1
 29 22  1  0
 30 28  1  0
 30 31  1  0
 32 30  2  0
M  END
$$$$
