QWI.pdb
     RDKit          3D

 32 33  0  0  1  0  0  0  0  0999 V2000
   26.1243  -20.0133  -17.7135 N   0  0  0  0  0  0  0  0  0  0  0  0
   27.4209  -19.4684  -17.5356 C   0  0  0  0  0  0  0  0  0  0  0  0
   28.0232  -18.9845  -18.5137 O   0  0  0  0  0  0  0  0  0  0  0  0
   28.0436  -19.4760  -16.2037 C   0  0  0  0  0  0  0  0  0  0  0  0
   27.1755  -20.1637  -15.2035 C   0  0  0  0  0  0  0  0  0  0  0  0
   27.9012  -21.1869  -14.3939 C   0  0  2  0  0  0  0  0  0  0  0  0
   27.9428  -22.4077  -15.1824 N   0  0  0  0  0  0  0  0  0  0  0  0
   27.1356  -21.4357  -13.1139 C   0  0  0  0  0  0  0  0  0  0  0  0
   26.0629  -22.0655  -13.1414 O   0  0  0  0  0  0  0  0  0  0  0  0
   27.6604  -20.9434  -11.9072 N   0  0  0  0  0  0  0  0  0  0  0  0
   26.9639  -21.0575  -10.6358 C   0  0  1  0  0  0  0  0  0  0  0  0
   27.8424  -20.7313   -9.4743 C   0  0  0  0  0  0  0  0  0  0  0  0
   27.0135  -20.6488   -8.2507 C   0  0  0  0  0  0  0  0  0  0  0  0
   25.7011  -21.0692   -8.1605 C   0  0  0  0  0  0  0  0  0  0  0  0
   25.3068  -20.8259   -6.9147 N   0  0  0  0  0  0  0  0  0  0  0  0
   26.2863  -20.2736   -6.1960 C   0  0  0  0  0  0  0  0  0  0  0  0
   26.3871  -19.8454   -4.8985 C   0  0  0  0  0  0  0  0  0  0  0  0
   27.5369  -19.2944   -4.3782 C   0  0  0  0  0  0  0  0  0  0  0  0
   28.6125  -19.1886   -5.2411 C   0  0  0  0  0  0  0  0  0  0  0  0
   28.5386  -19.6098   -6.5451 C   0  0  0  0  0  0  0  0  0  0  0  0
   27.3737  -20.1516   -7.0180 C   0  0  0  0  0  0  0  0  0  0  0  0
   25.7278  -20.2511  -10.6517 C   0  0  0  0  0  0  0  0  0  0  0  0
   25.7731  -19.0229  -10.4024 O   0  0  0  0  0  0  0  0  0  0  0  0
   22.0889  -20.9670  -14.5333 C   0  0  0  0  0  0  0  0  0  0  0  0
   22.5194  -21.2099  -13.1041 C   0  0  0  0  0  0  0  0  0  0  0  0
   22.7900  -19.8815  -12.4744 C   0  0  2  0  0  0  0  0  0  0  0  0
   23.9086  -19.1965  -13.2208 C   0  0  0  0  0  0  0  0  0  0  0  0
   23.2436  -20.0313  -11.0247 C   0  0  2  0  0  0  0  0  0  0  0  0
   24.4574  -20.8176  -10.9439 N   0  0  0  0  0  0  0  0  0  0  0  0
   22.1735  -20.7632  -10.3058 C   0  0  0  0  0  0  0  0  0  0  0  0
   20.9306  -20.2008  -10.0548 O   0  0  0  0  0  0  0  0  0  0  0  0
   22.3614  -21.9219   -9.8995 O   0  0  0  0  0  0  0  0  0  0  0  0
  2  3  2  0
  2  1  1  0
  4  2  1  0
  5  4  1  0
  6  5  1  0
  6  7  1  6
  8  6  1  0
  8  9  2  0
 10  8  1  0
 11 10  1  0
 11 12  1  1
 13 12  1  0
 13 14  2  0
 15 14  1  0
 16 15  1  0
 17 16  2  0
 18 17  1  0
 19 18  2  0
 19 20  1  0
 20 21  2  0
 21 16  1  0
 21 13  1  0
 22 11  1  0
 23 22  2  0
 25 24  1  0
 26 27  1  6
 26 28  1  0
 26 25  1  0
 28 29  1  6
 29 22  1  0
 30 28  1  0
 30 31  1  0
 32 30  2  0
M  END
$$$$
