VYN.pdb
     RDKit          3D

 28 28  0  0  1  0  0  0  0  0999 V2000
    7.5193  -13.1577   19.0170 C   0  0  0  0  0  0  0  0  0  0  0  0
    8.6474  -13.9139   18.3985 C   0  0  2  0  0  0  0  0  0  0  0  0
    8.2857  -14.4179   17.0208 C   0  0  0  0  0  0  0  0  0  0  0  0
    9.1154  -15.0224   19.3071 C   0  0  2  0  0  0  0  0  0  0  0  0
    8.0724  -16.0311   19.3238 N   0  0  0  0  0  0  0  0  0  0  0  0
    9.3151  -14.5606   20.7014 C   0  0  0  0  0  0  0  0  0  0  0  0
   10.3455  -13.8744   21.0127 O   0  0  0  0  0  0  0  0  0  0  0  0
    6.4032  -11.3879   28.5298 O   0  0  0  0  0  0  0  0  0  0  0  0
    6.6059  -12.0110   27.2932 C   0  0  0  0  0  0  0  0  0  0  0  0
    7.2427  -11.3764   26.2523 C   0  0  0  0  0  0  0  0  0  0  0  0
    7.4291  -12.0236   25.0337 C   0  0  0  0  0  0  0  0  0  0  0  0
    6.9936  -13.3079   24.8139 C   0  0  0  0  0  0  0  0  0  0  0  0
    7.2063  -13.9687   23.5444 C   0  0  0  0  0  0  0  0  0  0  0  0
    8.5663  -14.3370   23.1212 C   0  0  2  0  0  0  0  0  0  0  0  0
    8.4086  -14.8444   21.7254 N   0  0  0  0  0  0  0  0  0  0  0  0
    9.2423  -15.4045   23.8636 C   0  0  0  0  0  0  0  0  0  0  0  0
    9.2960  -15.4150   25.1447 O   0  0  0  0  0  0  0  0  0  0  0  0
    6.3494  -13.9370   25.8805 C   0  0  0  0  0  0  0  0  0  0  0  0
    6.1649  -13.2956   27.0868 C   0  0  0  0  0  0  0  0  0  0  0  0
   10.1583  -21.0364   24.4551 N   0  0  0  0  0  0  0  0  0  0  0  0
   10.9923  -20.0323   23.8995 C   0  0  0  0  0  0  0  0  0  0  0  0
   12.2311  -20.1589   24.0295 O   0  0  0  0  0  0  0  0  0  0  0  0
   10.3540  -18.8966   23.2008 C   0  0  0  0  0  0  0  0  0  0  0  0
   10.3959  -17.6044   24.0085 C   0  0  2  0  0  0  0  0  0  0  0  0
    9.8741  -16.4968   23.2182 N   0  0  0  0  0  0  0  0  0  0  0  0
   11.7822  -17.3630   24.4212 C   0  0  0  0  0  0  0  0  0  0  0  0
   12.1515  -17.8370   25.5468 O   0  0  0  0  0  0  0  0  0  0  0  0
   12.6454  -16.6542   23.6227 O   0  0  0  0  0  0  0  0  0  0  0  0
  2  1  1  1
  2  3  1  0
  4  2  1  0
  4  5  1  1
  6  4  1  0
  6  7  2  0
  8  9  1  0
  9 10  2  0
 10 11  1  0
 12 13  1  0
 12 11  2  0
 14 13  1  1
 14 15  1  0
 15  6  1  0
 16 14  1  0
 17 16  2  0
 18 12  1  0
 19 18  2  0
 19  9  1  0
 20 21  1  0
 21 22  2  0
 21 23  1  0
 24 23  1  6
 24 25  1  0
 24 26  1  0
 25 16  1  0
 26 28  1  0
 27 26  2  0
M  END
$$$$
