VYN.pdb
     RDKit          3D

 28 28  0  0  1  0  0  0  0  0999 V2000
    8.9706  -20.1139   18.6462 C   0  0  0  0  0  0  0  0  0  0  0  0
    9.2815  -19.0458   19.6410 C   0  0  2  0  0  0  0  0  0  0  0  0
    9.2769  -19.5860   21.0520 C   0  0  0  0  0  0  0  0  0  0  0  0
    8.3523  -17.8697   19.4770 C   0  0  2  0  0  0  0  0  0  0  0  0
    8.5046  -17.3906   18.1158 N   0  0  0  0  0  0  0  0  0  0  0  0
    8.6945  -16.7510   20.3872 C   0  0  0  0  0  0  0  0  0  0  0  0
    9.6248  -15.9320   20.0818 O   0  0  0  0  0  0  0  0  0  0  0  0
    6.8881  -11.3403   27.4358 O   0  0  0  0  0  0  0  0  0  0  0  0
    6.9402  -12.2931   26.4121 C   0  0  0  0  0  0  0  0  0  0  0  0
    7.0402  -13.6397   26.6734 C   0  0  0  0  0  0  0  0  0  0  0  0
    7.0898  -14.5631   25.6324 C   0  0  0  0  0  0  0  0  0  0  0  0
    7.0418  -14.1813   24.3136 C   0  0  0  0  0  0  0  0  0  0  0  0
    7.0831  -15.1560   23.2450 C   0  0  0  0  0  0  0  0  0  0  0  0
    8.3316  -15.3851   22.5011 C   0  0  2  0  0  0  0  0  0  0  0  0
    8.0336  -16.5374   21.5990 N   0  0  0  0  0  0  0  0  0  0  0  0
    9.5182  -15.7716   23.2695 C   0  0  0  0  0  0  0  0  0  0  0  0
   10.2438  -14.9100   23.8821 O   0  0  0  0  0  0  0  0  0  0  0  0
    6.9405  -12.8113   24.0663 C   0  0  0  0  0  0  0  0  0  0  0  0
    6.8916  -11.8974   25.0974 C   0  0  0  0  0  0  0  0  0  0  0  0
   13.6268  -17.8580   25.2633 N   0  0  0  0  0  0  0  0  0  0  0  0
   13.5510  -16.7308   24.4054 C   0  0  0  0  0  0  0  0  0  0  0  0
   14.5832  -16.0393   24.2508 O   0  0  0  0  0  0  0  0  0  0  0  0
   12.2618  -16.4368   23.7444 C   0  0  0  0  0  0  0  0  0  0  0  0
   11.1682  -17.4349   24.1074 C   0  0  2  0  0  0  0  0  0  0  0  0
    9.9380  -17.1197   23.3924 N   0  0  0  0  0  0  0  0  0  0  0  0
   10.9703  -17.3946   25.5598 C   0  0  0  0  0  0  0  0  0  0  0  0
   11.9590  -17.7214   26.2972 O   0  0  0  0  0  0  0  0  0  0  0  0
    9.7654  -17.0180   26.1000 O   0  0  0  0  0  0  0  0  0  0  0  0
  2  1  1  6
  2  3  1  0
  4  2  1  0
  4  5  1  6
  6  4  1  0
  6  7  2  0
  8  9  1  0
  9 10  2  0
 10 11  1  0
 12 13  1  0
 12 11  2  0
 14 13  1  1
 14 15  1  0
 15  6  1  0
 16 14  1  0
 17 16  2  0
 18 12  1  0
 19 18  2  0
 19  9  1  0
 20 21  1  0
 21 22  2  0
 21 23  1  0
 24 23  1  1
 24 25  1  0
 24 26  1  0
 25 16  1  0
 26 28  1  0
 27 26  2  0
M  END
$$$$
