VYN.pdb
     RDKit          3D

 28 28  0  0  1  0  0  0  0  0999 V2000
    7.6670  -12.5334   20.8447 C   0  0  0  0  0  0  0  0  0  0  0  0
    8.4449  -13.1893   19.7529 C   0  0  2  0  0  0  0  0  0  0  0  0
    7.7680  -13.0195   18.4128 C   0  0  0  0  0  0  0  0  0  0  0  0
    8.7133  -14.6371   20.0774 C   0  0  2  0  0  0  0  0  0  0  0  0
    7.4465  -15.3386   19.9842 N   0  0  0  0  0  0  0  0  0  0  0  0
    9.2264  -14.8190   21.4560 C   0  0  0  0  0  0  0  0  0  0  0  0
   10.4263  -14.4946   21.7463 O   0  0  0  0  0  0  0  0  0  0  0  0
    6.1608  -10.5018   27.1015 O   0  0  0  0  0  0  0  0  0  0  0  0
    6.5589  -11.7112   26.5205 C   0  0  0  0  0  0  0  0  0  0  0  0
    7.7343  -12.3352   26.8680 C   0  0  0  0  0  0  0  0  0  0  0  0
    8.1027  -13.5382   26.2715 C   0  0  0  0  0  0  0  0  0  0  0  0
    7.3227  -14.1522   25.3217 C   0  0  0  0  0  0  0  0  0  0  0  0
    7.7162  -15.4083   24.7208 C   0  0  0  0  0  0  0  0  0  0  0  0
    8.9298  -15.4837   23.8925 C   0  0  2  0  0  0  0  0  0  0  0  0
    8.4436  -15.3427   22.4875 N   0  0  0  0  0  0  0  0  0  0  0  0
    9.6999  -16.7300   23.9290 C   0  0  0  0  0  0  0  0  0  0  0  0
    9.7014  -17.5590   22.9508 O   0  0  0  0  0  0  0  0  0  0  0  0
    6.1336  -13.5055   24.9808 C   0  0  0  0  0  0  0  0  0  0  0  0
    5.7695  -12.3142   25.5716 C   0  0  0  0  0  0  0  0  0  0  0  0
   14.6021  -19.1826   24.0758 N   0  0  0  0  0  0  0  0  0  0  0  0
   13.2262  -19.3850   23.7961 C   0  0  0  0  0  0  0  0  0  0  0  0
   12.8479  -20.5450   23.5153 O   0  0  0  0  0  0  0  0  0  0  0  0
   12.3193  -18.2188   23.8516 C   0  0  0  0  0  0  0  0  0  0  0  0
   11.3054  -18.3098   24.9863 C   0  0  2  0  0  0  0  0  0  0  0  0
   10.4976  -17.0981   25.0412 N   0  0  0  0  0  0  0  0  0  0  0  0
   12.0343  -18.5262   26.2402 C   0  0  0  0  0  0  0  0  0  0  0  0
   11.9426  -17.6232   27.1369 O   0  0  0  0  0  0  0  0  0  0  0  0
   12.7846  -19.6593   26.4365 O   0  0  0  0  0  0  0  0  0  0  0  0
  2  1  1  1
  2  3  1  0
  4  2  1  0
  4  5  1  1
  6  4  1  0
  6  7  2  0
  8  9  1  0
  9 10  2  0
 10 11  1  0
 12 13  1  0
 12 11  2  0
 14 13  1  1
 14 15  1  0
 15  6  1  0
 16 14  1  0
 17 16  2  0
 18 12  1  0
 19 18  2  0
 19  9  1  0
 20 21  1  0
 21 22  2  0
 21 23  1  0
 24 23  1  6
 24 25  1  0
 24 26  1  0
 25 16  1  0
 26 28  1  0
 27 26  2  0
M  END
$$$$
