VYN.pdb
     RDKit          3D

 28 28  0  0  1  0  0  0  0  0999 V2000
    7.0253  -13.5585   18.6051 C   0  0  0  0  0  0  0  0  0  0  0  0
    7.6604  -13.4140   19.9479 C   0  0  2  0  0  0  0  0  0  0  0  0
    8.4579  -12.1347   20.0476 C   0  0  0  0  0  0  0  0  0  0  0  0
    8.4860  -14.6292   20.2871 C   0  0  2  0  0  0  0  0  0  0  0  0
    7.5985  -15.7763   20.2400 N   0  0  0  0  0  0  0  0  0  0  0  0
    9.0558  -14.5589   21.6536 C   0  0  0  0  0  0  0  0  0  0  0  0
   10.1024  -13.8646   21.8816 O   0  0  0  0  0  0  0  0  0  0  0  0
    6.1318  -10.2822   27.5464 O   0  0  0  0  0  0  0  0  0  0  0  0
    6.5224  -11.4692   26.9163 C   0  0  0  0  0  0  0  0  0  0  0  0
    5.7081  -12.5770   26.8787 C   0  0  0  0  0  0  0  0  0  0  0  0
    6.1256  -13.7436   26.2437 C   0  0  0  0  0  0  0  0  0  0  0  0
    7.3518  -13.8447   25.6325 C   0  0  0  0  0  0  0  0  0  0  0  0
    7.7642  -15.0617   24.9675 C   0  0  0  0  0  0  0  0  0  0  0  0
    8.9820  -15.0771   24.1420 C   0  0  2  0  0  0  0  0  0  0  0  0
    8.4920  -15.2322   22.7398 N   0  0  0  0  0  0  0  0  0  0  0  0
    9.9349  -16.1693   24.3587 C   0  0  0  0  0  0  0  0  0  0  0  0
   10.5047  -16.3618   25.4911 O   0  0  0  0  0  0  0  0  0  0  0  0
    8.1655  -12.7115   25.6802 C   0  0  0  0  0  0  0  0  0  0  0  0
    7.7516  -11.5566   26.3093 C   0  0  0  0  0  0  0  0  0  0  0  0
   14.1226  -19.4314   22.7198 N   0  0  0  0  0  0  0  0  0  0  0  0
   13.8242  -18.3575   23.5973 C   0  0  0  0  0  0  0  0  0  0  0  0
   14.5289  -18.2237   24.6234 O   0  0  0  0  0  0  0  0  0  0  0  0
   12.7016  -17.4597   23.2520 C   0  0  0  0  0  0  0  0  0  0  0  0
   11.3390  -18.0655   23.5687 C   0  0  2  0  0  0  0  0  0  0  0  0
   10.2842  -17.0870   23.3367 N   0  0  0  0  0  0  0  0  0  0  0  0
   11.3499  -18.5228   24.9620 C   0  0  0  0  0  0  0  0  0  0  0  0
   11.1974  -17.6410   25.8714 O   0  0  0  0  0  0  0  0  0  0  0  0
   11.5173  -19.8503   25.2701 O   0  0  0  0  0  0  0  0  0  0  0  0
  2  1  1  6
  2  3  1  0
  4  2  1  0
  4  5  1  1
  6  4  1  0
  6  7  2  0
  8  9  1  0
  9 10  2  0
 10 11  1  0
 12 13  1  0
 12 11  2  0
 14 13  1  1
 14 15  1  0
 15  6  1  0
 16 14  1  0
 17 16  2  0
 18 12  1  0
 19 18  2  0
 19  9  1  0
 20 21  1  0
 21 22  2  0
 21 23  1  0
 24 23  1  1
 24 25  1  0
 24 26  1  0
 25 16  1  0
 26 28  1  0
 27 26  2  0
M  END
$$$$
