VYN.pdb
     RDKit          3D

 28 28  0  0  1  0  0  0  0  0999 V2000
    8.8829  -18.8567   20.7645 C   0  0  0  0  0  0  0  0  0  0  0  0
    8.1110  -17.9083   19.9088 C   0  0  2  0  0  0  0  0  0  0  0  0
    7.7573  -18.5278   18.5769 C   0  0  0  0  0  0  0  0  0  0  0  0
    8.8472  -16.6018   19.7531 C   0  0  2  0  0  0  0  0  0  0  0  0
   10.1195  -16.9000   19.1222 N   0  0  0  0  0  0  0  0  0  0  0  0
    9.1332  -15.9581   21.0573 C   0  0  0  0  0  0  0  0  0  0  0  0
   10.2879  -16.0656   21.5907 O   0  0  0  0  0  0  0  0  0  0  0  0
    6.4506  -11.3712   28.4253 O   0  0  0  0  0  0  0  0  0  0  0  0
    6.6703  -11.9451   27.1680 C   0  0  0  0  0  0  0  0  0  0  0  0
    5.8730  -12.9524   26.6767 C   0  0  0  0  0  0  0  0  0  0  0  0
    6.1175  -13.5030   25.4214 C   0  0  0  0  0  0  0  0  0  0  0  0
    7.1504  -13.0742   24.6236 C   0  0  0  0  0  0  0  0  0  0  0  0
    7.3824  -13.6505   23.3168 C   0  0  0  0  0  0  0  0  0  0  0  0
    8.3941  -14.7043   23.1424 C   0  0  2  0  0  0  0  0  0  0  0  0
    8.1779  -15.2168   21.7565 N   0  0  0  0  0  0  0  0  0  0  0  0
    8.3139  -15.8742   24.0215 C   0  0  0  0  0  0  0  0  0  0  0  0
    7.4397  -16.7964   23.8504 O   0  0  0  0  0  0  0  0  0  0  0  0
    7.9497  -12.0516   25.1374 C   0  0  0  0  0  0  0  0  0  0  0  0
    7.7072  -11.5070   26.3805 C   0  0  0  0  0  0  0  0  0  0  0  0
   10.6049  -20.7125   24.8514 N   0  0  0  0  0  0  0  0  0  0  0  0
    9.7220  -19.7841   25.4604 C   0  0  0  0  0  0  0  0  0  0  0  0
    9.1575  -20.1217   26.5257 O   0  0  0  0  0  0  0  0  0  0  0  0
    9.5187  -18.4745   24.8053 C   0  0  0  0  0  0  0  0  0  0  0  0
    9.2354  -17.3527   25.7979 C   0  0  2  0  0  0  0  0  0  0  0  0
    9.1985  -16.0676   25.1118 N   0  0  0  0  0  0  0  0  0  0  0  0
   10.2742  -17.3791   26.8327 C   0  0  0  0  0  0  0  0  0  0  0  0
    9.9288  -17.7520   28.0030 O   0  0  0  0  0  0  0  0  0  0  0  0
   11.5672  -17.0160   26.5474 O   0  0  0  0  0  0  0  0  0  0  0  0
  2  1  1  6
  2  3  1  0
  4  2  1  0
  4  5  1  1
  6  4  1  0
  6  7  2  0
  8  9  1  0
  9 10  2  0
 10 11  1  0
 12 13  1  0
 12 11  2  0
 14 13  1  1
 14 15  1  0
 15  6  1  0
 16 14  1  0
 17 16  2  0
 18 12  1  0
 19 18  2  0
 19  9  1  0
 20 21  1  0
 21 22  2  0
 21 23  1  0
 24 23  1  6
 24 25  1  0
 24 26  1  0
 25 16  1  0
 26 28  1  0
 27 26  2  0
M  END
$$$$
