VYN.pdb
     RDKit          3D

 28 28  0  0  1  0  0  0  0  0999 V2000
    7.6396  -18.6234   17.6046 C   0  0  0  0  0  0  0  0  0  0  0  0
    8.8591  -18.0339   18.2312 C   0  0  2  0  0  0  0  0  0  0  0  0
   10.0454  -18.0959   17.2975 C   0  0  0  0  0  0  0  0  0  0  0  0
    9.1466  -18.6798   19.5630 C   0  0  2  0  0  0  0  0  0  0  0  0
    7.8688  -19.0424   20.1473 N   0  0  0  0  0  0  0  0  0  0  0  0
    9.8231  -17.7545   20.5028 C   0  0  0  0  0  0  0  0  0  0  0  0
   11.0396  -17.4174   20.3132 O   0  0  0  0  0  0  0  0  0  0  0  0
    6.7496  -12.1802   18.2935 O   0  0  0  0  0  0  0  0  0  0  0  0
    7.2212  -12.9252   19.3802 C   0  0  0  0  0  0  0  0  0  0  0  0
    6.4762  -13.9283   19.9551 C   0  0  0  0  0  0  0  0  0  0  0  0
    6.9737  -14.6518   21.0358 C   0  0  0  0  0  0  0  0  0  0  0  0
    8.2137  -14.4040   21.5728 C   0  0  0  0  0  0  0  0  0  0  0  0
    8.7188  -15.1738   22.6890 C   0  0  0  0  0  0  0  0  0  0  0  0
    9.7919  -16.1589   22.4824 C   0  0  2  0  0  0  0  0  0  0  0  0
    9.1818  -17.2143   21.6198 N   0  0  0  0  0  0  0  0  0  0  0  0
   10.3111  -16.8544   23.6633 C   0  0  0  0  0  0  0  0  0  0  0  0
    9.5993  -17.6844   24.3331 O   0  0  0  0  0  0  0  0  0  0  0  0
    8.9562  -13.3829   20.9776 C   0  0  0  0  0  0  0  0  0  0  0  0
    8.4631  -12.6667   19.9077 C   0  0  0  0  0  0  0  0  0  0  0  0
   13.3663  -21.1820   23.7045 N   0  0  0  0  0  0  0  0  0  0  0  0
   12.3539  -20.2345   24.0036 C   0  0  0  0  0  0  0  0  0  0  0  0
   11.3740  -20.6159   24.6831 O   0  0  0  0  0  0  0  0  0  0  0  0
   12.5121  -18.8544   23.4978 C   0  0  0  0  0  0  0  0  0  0  0  0
   12.4120  -17.8045   24.5985 C   0  0  2  0  0  0  0  0  0  0  0  0
   11.6324  -16.6623   24.1387 N   0  0  0  0  0  0  0  0  0  0  0  0
   13.7706  -17.4074   24.9823 C   0  0  0  0  0  0  0  0  0  0  0  0
   14.2375  -17.8849   26.0696 O   0  0  0  0  0  0  0  0  0  0  0  0
   14.5074  -16.5550   24.1977 O   0  0  0  0  0  0  0  0  0  0  0  0
  2  1  1  6
  2  3  1  0
  4  2  1  0
  4  5  1  1
  6  4  1  0
  6  7  2  0
  8  9  1  0
  9 10  2  0
 10 11  1  0
 12 13  1  0
 12 11  2  0
 14 13  1  1
 14 15  1  0
 15  6  1  0
 16 14  1  0
 17 16  2  0
 18 12  1  0
 19 18  2  0
 19  9  1  0
 20 21  1  0
 21 22  2  0
 21 23  1  0
 24 23  1  6
 24 25  1  0
 24 26  1  0
 25 16  1  0
 26 28  1  0
 27 26  2  0
M  END
$$$$
