VYN.pdb
     RDKit          3D

 28 28  0  0  1  0  0  0  0  0999 V2000
    9.3600  -18.9776   20.4686 C   0  0  0  0  0  0  0  0  0  0  0  0
    8.4337  -18.1398   19.6517 C   0  0  2  0  0  0  0  0  0  0  0  0
    8.1032  -18.8038   18.3353 C   0  0  0  0  0  0  0  0  0  0  0  0
    8.9864  -16.7493   19.4667 C   0  0  2  0  0  0  0  0  0  0  0  0
   10.2620  -16.8825   18.7879 N   0  0  0  0  0  0  0  0  0  0  0  0
    9.2349  -16.0660   20.7584 C   0  0  0  0  0  0  0  0  0  0  0  0
   10.4043  -16.0584   21.2701 O   0  0  0  0  0  0  0  0  0  0  0  0
    6.3992  -11.5679   28.1198 O   0  0  0  0  0  0  0  0  0  0  0  0
    6.6252  -12.1536   26.8691 C   0  0  0  0  0  0  0  0  0  0  0  0
    5.8885  -13.2256   26.4220 C   0  0  0  0  0  0  0  0  0  0  0  0
    6.1377  -13.7863   25.1721 C   0  0  0  0  0  0  0  0  0  0  0  0
    7.1157  -13.3043   24.3363 C   0  0  0  0  0  0  0  0  0  0  0  0
    7.3529  -13.8927   23.0359 C   0  0  0  0  0  0  0  0  0  0  0  0
    8.4043  -14.9074   22.8640 C   0  0  2  0  0  0  0  0  0  0  0  0
    8.2273  -15.4093   21.4686 N   0  0  0  0  0  0  0  0  0  0  0  0
    8.3530  -16.0907   23.7271 C   0  0  0  0  0  0  0  0  0  0  0  0
    7.5996  -17.0941   23.4636 O   0  0  0  0  0  0  0  0  0  0  0  0
    7.8539  -12.2165   24.8057 C   0  0  0  0  0  0  0  0  0  0  0  0
    7.6068  -11.6618   26.0434 C   0  0  0  0  0  0  0  0  0  0  0  0
   12.4736  -19.5351   24.5187 N   0  0  0  0  0  0  0  0  0  0  0  0
   11.0596  -19.4339   24.5708 C   0  0  0  0  0  0  0  0  0  0  0  0
   10.4119  -20.4375   24.9459 O   0  0  0  0  0  0  0  0  0  0  0  0
   10.4323  -18.1534   24.1805 C   0  0  0  0  0  0  0  0  0  0  0  0
    9.6388  -17.5125   25.3134 C   0  0  2  0  0  0  0  0  0  0  0  0
    9.1352  -16.2079   24.9032 N   0  0  0  0  0  0  0  0  0  0  0  0
   10.5128  -17.4059   26.4861 C   0  0  0  0  0  0  0  0  0  0  0  0
   10.9482  -18.4917   26.9955 O   0  0  0  0  0  0  0  0  0  0  0  0
   10.8471  -16.1820   27.0111 O   0  0  0  0  0  0  0  0  0  0  0  0
  2  1  1  6
  2  3  1  0
  4  2  1  0
  4  5  1  1
  6  4  1  0
  6  7  2  0
  8  9  1  0
  9 10  2  0
 10 11  1  0
 12 13  1  0
 12 11  2  0
 14 13  1  1
 14 15  1  0
 15  6  1  0
 16 14  1  0
 17 16  2  0
 18 12  1  0
 19 18  2  0
 19  9  1  0
 20 21  1  0
 21 22  2  0
 21 23  1  0
 24 23  1  6
 24 25  1  0
 24 26  1  0
 25 16  1  0
 26 28  1  0
 27 26  2  0
M  END
$$$$
