VCN.pdb
     RDKit          3D

 22 21  0  0  1  0  0  0  0  0999 V2000
   16.3145  -12.9055  -17.6325 C   0  0  0  0  0  0  0  0  0  0  0  0
   17.2822  -14.0034  -17.2441 C   0  0  2  0  0  0  0  0  0  0  0  0
   16.5355  -14.9397  -16.3191 C   0  0  0  0  0  0  0  0  0  0  0  0
   18.4348  -13.4152  -16.4673 C   0  0  2  0  0  0  0  0  0  0  0  0
   17.8746  -12.8342  -15.2573 N   0  0  0  0  0  0  0  0  0  0  0  0
   19.1063  -12.3138  -17.2060 C   0  0  0  0  0  0  0  0  0  0  0  0
   19.6266  -12.4768  -18.3500 O   0  0  0  0  0  0  0  0  0  0  0  0
   19.2143  -10.9852  -16.6775 N   0  0  0  0  0  0  0  0  0  0  0  0
   19.9775   -9.9485  -17.2895 C   0  0  1  0  0  0  0  0  0  0  0  0
   19.4488   -9.7711  -18.7181 C   0  0  0  0  0  0  0  0  0  0  0  0
   20.1628   -8.3137  -19.4998 S   0  0  0  0  0  0  0  0  0  0  0  0
   19.9025   -8.6600  -16.5446 C   0  0  0  0  0  0  0  0  0  0  0  0
   18.7649   -8.1638  -16.3598 O   0  0  0  0  0  0  0  0  0  0  0  0
   21.2812   -4.5021  -13.5590 N   0  0  0  0  0  0  0  0  0  0  0  0
   22.1834   -5.5766  -13.4017 C   0  0  0  0  0  0  0  0  0  0  0  0
   23.0928   -5.4659  -12.5630 O   0  0  0  0  0  0  0  0  0  0  0  0
   22.0259   -6.7740  -14.2181 C   0  0  0  0  0  0  0  0  0  0  0  0
   20.9652   -6.7333  -15.2697 C   0  0  2  0  0  0  0  0  0  0  0  0
   21.0258   -7.9856  -16.0477 N   0  0  0  0  0  0  0  0  0  0  0  0
   21.0699   -5.5805  -16.2021 C   0  0  0  0  0  0  0  0  0  0  0  0
   21.8223   -5.5267  -17.1714 O   0  0  0  0  0  0  0  0  0  0  0  0
   20.2592   -4.4437  -15.9874 O   0  0  0  0  0  0  0  0  0  0  0  0
  2  4  1  0
  2  1  1  1
  3  2  1  0
  4  6  1  0
  4  5  1  1
  6  8  1  0
  6  7  2  0
  8  9  1  0
  9 12  1  0
  9 10  1  6
 11 10  1  0
 12 19  1  0
 13 12  2  0
 15 14  1  0
 16 15  2  0
 17 15  1  0
 18 17  1  1
 19 18  1  0
 20 18  1  0
 20 22  1  0
 21 20  2  0
M  END
$$$$
