VCN.pdb
     RDKit          3D

 22 21  0  0  1  0  0  0  0  0999 V2000
   13.0586   -9.4706   -9.3170 C   0  0  0  0  0  0  0  0  0  0  0  0
   13.3787  -10.1056  -10.6538 C   0  0  2  0  0  0  0  0  0  0  0  0
   13.0408  -11.5757  -10.5336 C   0  0  0  0  0  0  0  0  0  0  0  0
   14.8590   -9.9970  -10.9278 C   0  0  2  0  0  0  0  0  0  0  0  0
   15.5420  -10.6298   -9.8105 N   0  0  0  0  0  0  0  0  0  0  0  0
   15.3198   -8.5844  -10.9735 C   0  0  0  0  0  0  0  0  0  0  0  0
   15.0131   -7.7964  -11.9173 O   0  0  0  0  0  0  0  0  0  0  0  0
   16.1457   -8.0100   -9.9518 N   0  0  0  0  0  0  0  0  0  0  0  0
   16.5153   -6.6339   -9.9121 C   0  0  1  0  0  0  0  0  0  0  0  0
   16.3419   -6.1533   -8.4661 C   0  0  0  0  0  0  0  0  0  0  0  0
   14.6057   -5.8715   -8.0778 S   0  0  0  0  0  0  0  0  0  0  0  0
   17.9126   -6.3980  -10.3732 C   0  0  0  0  0  0  0  0  0  0  0  0
   18.8202   -7.0844   -9.8444 O   0  0  0  0  0  0  0  0  0  0  0  0
   21.9892   -5.6234  -13.4465 N   0  0  0  0  0  0  0  0  0  0  0  0
   21.2936   -6.8062  -13.1144 C   0  0  0  0  0  0  0  0  0  0  0  0
   21.7700   -7.8935  -13.4799 O   0  0  0  0  0  0  0  0  0  0  0  0
   20.0491   -6.7217  -12.3600 C   0  0  0  0  0  0  0  0  0  0  0  0
   19.5939   -5.3531  -11.9696 C   0  0  2  0  0  0  0  0  0  0  0  0
   18.2564   -5.4596  -11.3553 N   0  0  0  0  0  0  0  0  0  0  0  0
   19.5324   -4.3832  -13.0943 C   0  0  0  0  0  0  0  0  0  0  0  0
   20.4599   -3.6615  -13.4514 O   0  0  0  0  0  0  0  0  0  0  0  0
   18.3329   -4.2541  -13.8292 O   0  0  0  0  0  0  0  0  0  0  0  0
  2  4  1  0
  2  1  1  1
  3  2  1  0
  4  6  1  0
  4  5  1  1
  6  8  1  0
  6  7  2  0
  8  9  1  0
  9 12  1  0
  9 10  1  1
 11 10  1  0
 12 19  1  0
 13 12  2  0
 15 14  1  0
 16 15  2  0
 17 15  1  0
 18 17  1  6
 19 18  1  0
 20 18  1  0
 20 22  1  0
 21 20  2  0
M  END
$$$$
