VCN.pdb
     RDKit          3D

 22 21  0  0  1  0  0  0  0  0999 V2000
   21.3400  -13.6904  -17.9158 C   0  0  0  0  0  0  0  0  0  0  0  0
   20.5200  -12.8007  -18.8261 C   0  0  2  0  0  0  0  0  0  0  0  0
   20.6691  -13.3506  -20.2280 C   0  0  0  0  0  0  0  0  0  0  0  0
   21.0892  -11.4028  -18.8198 C   0  0  2  0  0  0  0  0  0  0  0  0
   22.4494  -11.4993  -19.3254 N   0  0  0  0  0  0  0  0  0  0  0  0
   21.1761  -10.8379  -17.4475 C   0  0  0  0  0  0  0  0  0  0  0  0
   20.1986  -10.8495  -16.6412 O   0  0  0  0  0  0  0  0  0  0  0  0
   22.3737  -10.2380  -16.9357 N   0  0  0  0  0  0  0  0  0  0  0  0
   22.4425   -9.5397  -15.6949 C   0  0  1  0  0  0  0  0  0  0  0  0
   23.7054  -10.0179  -14.9682 C   0  0  0  0  0  0  0  0  0  0  0  0
   23.3957  -11.5423  -14.0599 S   0  0  0  0  0  0  0  0  0  0  0  0
   22.4716   -8.0597  -15.8664 C   0  0  0  0  0  0  0  0  0  0  0  0
   23.2600   -7.5917  -16.7231 O   0  0  0  0  0  0  0  0  0  0  0  0
   21.2853   -2.9431  -15.6739 N   0  0  0  0  0  0  0  0  0  0  0  0
   20.2007   -3.8100  -15.9298 C   0  0  0  0  0  0  0  0  0  0  0  0
   19.1209   -3.3137  -16.2909 O   0  0  0  0  0  0  0  0  0  0  0  0
   20.3744   -5.2480  -15.7655 C   0  0  0  0  0  0  0  0  0  0  0  0
   21.7056   -5.7097  -15.2682 C   0  0  2  0  0  0  0  0  0  0  0  0
   21.6717   -7.1781  -15.1271 N   0  0  0  0  0  0  0  0  0  0  0  0
   22.1178   -5.1098  -13.9722 C   0  0  0  0  0  0  0  0  0  0  0  0
   22.1218   -5.6993  -12.8947 O   0  0  0  0  0  0  0  0  0  0  0  0
   22.5416   -3.7627  -13.9393 O   0  0  0  0  0  0  0  0  0  0  0  0
  2  4  1  0
  2  1  1  1
  3  2  1  0
  4  6  1  0
  4  5  1  1
  6  8  1  0
  6  7  2  0
  8  9  1  0
  9 12  1  0
  9 10  1  6
 11 10  1  0
 12 19  1  0
 13 12  2  0
 15 14  1  0
 16 15  2  0
 17 15  1  0
 18 17  1  1
 19 18  1  0
 20 18  1  0
 20 22  1  0
 21 20  2  0
M  END
$$$$
