VCN.pdb
     RDKit          3D

 22 21  0  0  1  0  0  0  0  0999 V2000
   20.1331  -12.3080  -18.9309 C   0  0  0  0  0  0  0  0  0  0  0  0
   20.9261  -11.5994  -20.0088 C   0  0  2  0  0  0  0  0  0  0  0  0
   21.8568  -12.6265  -20.6158 C   0  0  0  0  0  0  0  0  0  0  0  0
   21.7784  -10.5198  -19.3875 C   0  0  2  0  0  0  0  0  0  0  0  0
   22.8202  -11.1911  -18.6263 N   0  0  0  0  0  0  0  0  0  0  0  0
   21.0124   -9.6818  -18.4279 C   0  0  0  0  0  0  0  0  0  0  0  0
   19.9924   -9.0118  -18.7696 O   0  0  0  0  0  0  0  0  0  0  0  0
   21.3721   -9.5703  -17.0444 N   0  0  0  0  0  0  0  0  0  0  0  0
   20.6941   -8.7293  -16.1146 C   0  0  1  0  0  0  0  0  0  0  0  0
   20.4510   -9.5521  -14.8435 C   0  0  0  0  0  0  0  0  0  0  0  0
   22.0063  -10.0390  -14.0761 S   0  0  0  0  0  0  0  0  0  0  0  0
   21.4581   -7.4910  -15.7928 C   0  0  0  0  0  0  0  0  0  0  0  0
   22.7107   -7.5589  -15.8249 O   0  0  0  0  0  0  0  0  0  0  0  0
   20.5762   -1.3894  -15.4218 N   0  0  0  0  0  0  0  0  0  0  0  0
   21.2680   -2.5572  -15.0332 C   0  0  0  0  0  0  0  0  0  0  0  0
   22.3304   -2.4314  -14.4021 O   0  0  0  0  0  0  0  0  0  0  0  0
   20.7239   -3.8647  -15.3787 C   0  0  0  0  0  0  0  0  0  0  0  0
   21.5949   -5.0470  -15.1031 C   0  0  2  0  0  0  0  0  0  0  0  0
   20.8531   -6.2714  -15.4609 N   0  0  0  0  0  0  0  0  0  0  0  0
   22.0538   -5.1554  -13.6935 C   0  0  0  0  0  0  0  0  0  0  0  0
   21.4364   -5.7213  -12.7950 O   0  0  0  0  0  0  0  0  0  0  0  0
   23.2871   -4.5749  -13.3229 O   0  0  0  0  0  0  0  0  0  0  0  0
  2  4  1  0
  2  1  1  1
  3  2  1  0
  4  6  1  0
  4  5  1  1
  6  8  1  0
  6  7  2  0
  8  9  1  0
  9 12  1  0
  9 10  1  1
 11 10  1  0
 12 19  1  0
 13 12  2  0
 15 14  1  0
 16 15  2  0
 17 15  1  0
 18 17  1  1
 19 18  1  0
 20 18  1  0
 20 22  1  0
 21 20  2  0
M  END
$$$$
