VCN.pdb
     RDKit          3D

 22 21  0  0  1  0  0  0  0  0999 V2000
   18.2975   -7.9472  -18.6172 C   0  0  0  0  0  0  0  0  0  0  0  0
   18.7197   -9.0509  -17.6705 C   0  0  2  0  0  0  0  0  0  0  0  0
   17.4671   -9.8157  -17.3016 C   0  0  0  0  0  0  0  0  0  0  0  0
   19.2785   -8.4496  -16.4039 C   0  0  2  0  0  0  0  0  0  0  0  0
   19.8349   -9.5458  -15.6267 N   0  0  0  0  0  0  0  0  0  0  0  0
   18.2233   -7.8182  -15.5686 C   0  0  0  0  0  0  0  0  0  0  0  0
   17.5526   -6.8161  -15.9583 O   0  0  0  0  0  0  0  0  0  0  0  0
   17.8872   -8.2975  -14.2597 N   0  0  0  0  0  0  0  0  0  0  0  0
   16.8394   -7.7530  -13.4612 C   0  0  1  0  0  0  0  0  0  0  0  0
   15.8470   -8.8856  -13.1712 C   0  0  0  0  0  0  0  0  0  0  0  0
   14.6853   -8.4174  -11.8767 S   0  0  0  0  0  0  0  0  0  0  0  0
   17.3340   -7.1578  -12.1878 C   0  0  0  0  0  0  0  0  0  0  0  0
   18.1448   -7.8338  -11.5094 O   0  0  0  0  0  0  0  0  0  0  0  0
   17.1367   -1.7541   -9.2192 N   0  0  0  0  0  0  0  0  0  0  0  0
   17.7972   -2.9647   -9.5219 C   0  0  0  0  0  0  0  0  0  0  0  0
   18.7600   -3.3046   -8.8146 O   0  0  0  0  0  0  0  0  0  0  0  0
   17.3374   -3.7746  -10.6433 C   0  0  0  0  0  0  0  0  0  0  0  0
   17.4908   -5.2547  -10.5082 C   0  0  2  0  0  0  0  0  0  0  0  0
   16.9424   -5.8969  -11.7182 N   0  0  0  0  0  0  0  0  0  0  0  0
   16.8258   -5.8334   -9.3114 C   0  0  0  0  0  0  0  0  0  0  0  0
   15.6156   -6.0080   -9.1954 O   0  0  0  0  0  0  0  0  0  0  0  0
   17.6134   -6.2222   -8.2050 O   0  0  0  0  0  0  0  0  0  0  0  0
  2  4  1  0
  2  1  1  6
  3  2  1  0
  4  6  1  0
  4  5  1  1
  6  8  1  0
  6  7  2  0
  8  9  1  0
  9 12  1  0
  9 10  1  1
 11 10  1  0
 12 19  1  0
 13 12  2  0
 15 14  1  0
 16 15  2  0
 17 15  1  0
 18 17  1  6
 19 18  1  0
 20 18  1  0
 20 22  1  0
 21 20  2  0
M  END
$$$$
