VCN.pdb
     RDKit          3D

 22 21  0  0  1  0  0  0  0  0999 V2000
   13.9255  -10.2855   -9.4643 C   0  0  0  0  0  0  0  0  0  0  0  0
   13.5103  -10.0442  -10.9003 C   0  0  2  0  0  0  0  0  0  0  0  0
   12.2164  -10.7985  -11.1159 C   0  0  0  0  0  0  0  0  0  0  0  0
   14.5421  -10.6288  -11.8340 C   0  0  2  0  0  0  0  0  0  0  0  0
   14.6332  -12.0474  -11.5262 N   0  0  0  0  0  0  0  0  0  0  0  0
   15.8931  -10.0498  -11.6119 C   0  0  0  0  0  0  0  0  0  0  0  0
   16.7759  -10.6263  -10.9088 O   0  0  0  0  0  0  0  0  0  0  0  0
   16.2963   -8.7954  -12.1775 N   0  0  0  0  0  0  0  0  0  0  0  0
   17.5860   -8.2187  -11.9882 C   0  0  1  0  0  0  0  0  0  0  0  0
   18.0194   -7.6128  -13.3288 C   0  0  0  0  0  0  0  0  0  0  0  0
   18.5163   -8.8952  -14.4921 S   0  0  0  0  0  0  0  0  0  0  0  0
   17.6027   -7.1800  -10.9198 C   0  0  0  0  0  0  0  0  0  0  0  0
   18.7010   -6.6289  -10.6655 O   0  0  0  0  0  0  0  0  0  0  0  0
   16.3249   -3.3482   -7.6601 N   0  0  0  0  0  0  0  0  0  0  0  0
   16.9775   -3.2982   -8.9111 C   0  0  0  0  0  0  0  0  0  0  0  0
   17.5031   -2.2284   -9.2603 O   0  0  0  0  0  0  0  0  0  0  0  0
   17.0170   -4.4895   -9.7503 C   0  0  0  0  0  0  0  0  0  0  0  0
   16.4592   -5.7437   -9.1602 C   0  0  2  0  0  0  0  0  0  0  0  0
   16.4665   -6.7947  -10.1958 N   0  0  0  0  0  0  0  0  0  0  0  0
   15.0808   -5.6074   -8.6209 C   0  0  0  0  0  0  0  0  0  0  0  0
   14.7691   -4.9149   -7.6556 O   0  0  0  0  0  0  0  0  0  0  0  0
   14.0251   -6.3139   -9.2390 O   0  0  0  0  0  0  0  0  0  0  0  0
  2  4  1  0
  2  1  1  1
  3  2  1  0
  4  6  1  0
  4  5  1  1
  6  8  1  0
  6  7  2  0
  8  9  1  0
  9 12  1  0
  9 10  1  6
 11 10  1  0
 12 19  1  0
 13 12  2  0
 15 14  1  0
 16 15  2  0
 17 15  1  0
 18 17  1  6
 19 18  1  0
 20 18  1  0
 20 22  1  0
 21 20  2  0
M  END
$$$$
