VCN.pdb
     RDKit          3D

 22 21  0  0  1  0  0  0  0  0999 V2000
   15.9045  -12.6341  -16.9045 C   0  0  0  0  0  0  0  0  0  0  0  0
   17.3405  -13.1080  -16.9815 C   0  0  2  0  0  0  0  0  0  0  0  0
   17.3647  -14.5238  -16.4479 C   0  0  0  0  0  0  0  0  0  0  0  0
   18.2049  -12.2633  -16.0775 C   0  0  2  0  0  0  0  0  0  0  0  0
   17.7256  -12.4722  -14.7203 N   0  0  0  0  0  0  0  0  0  0  0  0
   18.0690  -10.8114  -16.3662 C   0  0  0  0  0  0  0  0  0  0  0  0
   18.4316  -10.2972  -17.4663 O   0  0  0  0  0  0  0  0  0  0  0  0
   17.5170   -9.8860  -15.4202 N   0  0  0  0  0  0  0  0  0  0  0  0
   17.3917   -8.4867  -15.6609 C   0  0  1  0  0  0  0  0  0  0  0  0
   15.9325   -8.1025  -15.3874 C   0  0  0  0  0  0  0  0  0  0  0  0
   14.8343   -8.7816  -16.6433 S   0  0  0  0  0  0  0  0  0  0  0  0
   18.3100   -7.6713  -14.8168 C   0  0  0  0  0  0  0  0  0  0  0  0
   18.8558   -8.2394  -13.8401 O   0  0  0  0  0  0  0  0  0  0  0  0
   22.0384   -4.4071  -13.3812 N   0  0  0  0  0  0  0  0  0  0  0  0
   22.1391   -5.6715  -14.0013 C   0  0  0  0  0  0  0  0  0  0  0  0
   23.2616   -6.1947  -14.0962 O   0  0  0  0  0  0  0  0  0  0  0  0
   20.9371   -6.3225  -14.5080 C   0  0  0  0  0  0  0  0  0  0  0  0
   19.6586   -5.5593  -14.3832 C   0  0  2  0  0  0  0  0  0  0  0  0
   18.5892   -6.3195  -15.0583 N   0  0  0  0  0  0  0  0  0  0  0  0
   19.7062   -4.1861  -14.9502 C   0  0  0  0  0  0  0  0  0  0  0  0
   19.7791   -3.1544  -14.2877 O   0  0  0  0  0  0  0  0  0  0  0  0
   19.6652   -4.0168  -16.3520 O   0  0  0  0  0  0  0  0  0  0  0  0
  2  4  1  0
  2  1  1  1
  3  2  1  0
  4  6  1  0
  4  5  1  1
  6  8  1  0
  6  7  2  0
  8  9  1  0
  9 12  1  0
  9 10  1  1
 11 10  1  0
 12 19  1  0
 13 12  2  0
 15 14  1  0
 16 15  2  0
 17 15  1  0
 18 17  1  6
 19 18  1  0
 20 18  1  0
 20 22  1  0
 21 20  2  0
M  END
$$$$
