DPR.pdb
     RDKit          3D

 27 27  0  0  1  0  0  0  0  0999 V2000
    6.2424  -18.3932   18.3345 N   0  0  0  0  0  0  0  0  0  0  0  0
    6.1790  -17.3321   19.2849 C   0  0  1  0  0  0  0  0  0  0  0  0
    5.4305  -17.8135   20.5119 C   0  0  0  0  0  0  0  0  0  0  0  0
    4.0735  -18.2793   20.2246 C   0  0  0  0  0  0  0  0  0  0  0  0
    3.6953  -18.4313   19.0524 O   0  0  0  0  0  0  0  0  0  0  0  0
    7.4490  -16.6878   19.6249 C   0  0  0  0  0  0  0  0  0  0  0  0
    8.4445  -17.4189   19.8150 O   0  0  0  0  0  0  0  0  0  0  0  0
    3.1607  -18.5685   21.2281 O   0  0  0  0  0  0  0  0  0  0  0  0
    7.6154  -15.2646   19.7538 N   0  0  0  0  0  0  0  0  0  0  0  0
    6.6020  -14.3497   19.3416 C   0  0  0  0  0  0  0  0  0  0  0  0
    7.1830  -12.9798   19.5646 C   0  0  0  0  0  0  0  0  0  0  0  0
    8.2684  -13.1713   20.5761 C   0  0  0  0  0  0  0  0  0  0  0  0
    8.7479  -14.5599   20.2517 C   0  0  1  0  0  0  0  0  0  0  0  0
    9.3168  -15.1262   21.5128 C   0  0  0  0  0  0  0  0  0  0  0  0
    8.5193  -15.4558   22.4143 O   0  0  0  0  0  0  0  0  0  0  0  0
   10.7208  -20.6669   25.9739 N   0  0  0  0  0  0  0  0  0  0  0  0
   11.5826  -21.3644   25.1021 C   0  0  0  0  0  0  0  0  0  0  0  0
   11.7458  -22.6547   25.2349 N   0  0  0  0  0  0  0  0  0  0  0  0
   12.2898  -20.6934   24.0686 N   0  0  0  0  0  0  0  0  0  0  0  0
   11.5942  -19.9016   23.0752 C   0  0  0  0  0  0  0  0  0  0  0  0
   11.6705  -18.4650   23.4704 C   0  0  0  0  0  0  0  0  0  0  0  0
   11.0738  -17.5128   22.4867 C   0  0  0  0  0  0  0  0  0  0  0  0
   11.2685  -16.0633   22.8205 C   0  0  2  0  0  0  0  0  0  0  0  0
   10.6903  -15.3023   21.7265 N   0  0  0  0  0  0  0  0  0  0  0  0
   12.6907  -15.6738   22.9487 C   0  0  0  0  0  0  0  0  0  0  0  0
   13.2622  -15.2647   21.8850 O   0  0  0  0  0  0  0  0  0  0  0  0
   13.4060  -15.7326   24.1372 O   0  0  0  0  0  0  0  0  0  0  0  0
  2  1  1  6
  2  3  1  0
  3  4  1  0
  4  8  1  0
  5  4  2  0
  6  2  1  0
  7  6  2  0
  9 13  1  0
  9  6  1  0
 10  9  1  0
 11 10  1  0
 11 12  1  0
 12 13  1  0
 14 15  2  0
 13 14  1  1
 16 17  1  0
 17 18  2  0
 19 17  1  0
 19 20  1  0
 21 20  1  0
 21 22  1  0
 23 22  1  6
 23 24  1  0
 23 25  1  0
 24 14  1  0
 25 27  1  0
 26 25  2  0
M  END
$$$$
