DPR.pdb
     RDKit          3D

 27 27  0  0  1  0  0  0  0  0999 V2000
   13.5174  -14.5673   19.4496 N   0  0  0  0  0  0  0  0  0  0  0  0
   12.1512  -14.4748   19.0518 C   0  0  1  0  0  0  0  0  0  0  0  0
   11.8886  -15.4848   17.9526 C   0  0  0  0  0  0  0  0  0  0  0  0
   12.4295  -16.8141   18.2374 C   0  0  0  0  0  0  0  0  0  0  0  0
   13.6345  -16.9610   18.4957 O   0  0  0  0  0  0  0  0  0  0  0  0
   11.1562  -14.5470   20.1235 C   0  0  0  0  0  0  0  0  0  0  0  0
   11.4468  -15.1981   21.1498 O   0  0  0  0  0  0  0  0  0  0  0  0
   11.6383  -17.9533   18.2331 O   0  0  0  0  0  0  0  0  0  0  0  0
    9.8657  -13.9140   20.0617 N   0  0  0  0  0  0  0  0  0  0  0  0
    9.5130  -13.0300   18.9996 C   0  0  0  0  0  0  0  0  0  0  0  0
    8.1361  -12.5260   19.3371 C   0  0  0  0  0  0  0  0  0  0  0  0
    7.5638  -13.5403   20.2762 C   0  0  0  0  0  0  0  0  0  0  0  0
    8.7952  -14.0223   20.9939 C   0  0  1  0  0  0  0  0  0  0  0  0
    8.5134  -15.4195   21.4446 C   0  0  0  0  0  0  0  0  0  0  0  0
    8.6588  -16.3394   20.6140 O   0  0  0  0  0  0  0  0  0  0  0  0
    7.9729  -13.5589   28.1962 N   0  0  0  0  0  0  0  0  0  0  0  0
    9.2931  -14.0288   28.0363 C   0  0  0  0  0  0  0  0  0  0  0  0
   10.3017  -13.2997   28.4367 N   0  0  0  0  0  0  0  0  0  0  0  0
    9.5614  -15.2911   27.4422 N   0  0  0  0  0  0  0  0  0  0  0  0
    8.4954  -16.1041   26.8940 C   0  0  0  0  0  0  0  0  0  0  0  0
    8.7077  -16.2421   25.4237 C   0  0  0  0  0  0  0  0  0  0  0  0
    7.6324  -16.9870   24.7033 C   0  0  0  0  0  0  0  0  0  0  0  0
    7.8250  -17.0855   23.2189 C   0  0  2  0  0  0  0  0  0  0  0  0
    8.0981  -15.7401   22.7438 N   0  0  0  0  0  0  0  0  0  0  0  0
    6.6332  -17.5919   22.5021 C   0  0  0  0  0  0  0  0  0  0  0  0
    5.8075  -16.7130   22.0883 O   0  0  0  0  0  0  0  0  0  0  0  0
    6.3831  -18.9375   22.2684 O   0  0  0  0  0  0  0  0  0  0  0  0
  2  1  1  1
  2  3  1  0
  3  4  1  0
  4  8  1  0
  5  4  2  0
  6  2  1  0
  7  6  2  0
  9 13  1  0
  9  6  1  0
 10  9  1  0
 11 10  1  0
 11 12  1  0
 12 13  1  0
 14 15  2  0
 13 14  1  6
 16 17  1  0
 17 18  2  0
 19 17  1  0
 19 20  1  0
 21 20  1  0
 21 22  1  0
 23 22  1  1
 23 24  1  0
 23 25  1  0
 24 14  1  0
 25 27  1  0
 26 25  2  0
M  END
$$$$
