DPR.pdb
     RDKit          3D

 27 27  0  0  1  0  0  0  0  0999 V2000
    8.9008  -14.5663   14.1649 N   0  0  0  0  0  0  0  0  0  0  0  0
    8.3634  -15.2223   15.3112 C   0  0  1  0  0  0  0  0  0  0  0  0
    8.2183  -16.7007   15.0102 C   0  0  0  0  0  0  0  0  0  0  0  0
    7.8365  -17.5006   16.1743 C   0  0  0  0  0  0  0  0  0  0  0  0
    6.6643  -17.4987   16.5821 O   0  0  0  0  0  0  0  0  0  0  0  0
    9.0499  -14.9775   16.5811 C   0  0  0  0  0  0  0  0  0  0  0  0
   10.1828  -15.4800   16.7411 O   0  0  0  0  0  0  0  0  0  0  0  0
    8.7474  -18.2851   16.8662 O   0  0  0  0  0  0  0  0  0  0  0  0
    8.4950  -14.1948   17.6532 N   0  0  0  0  0  0  0  0  0  0  0  0
    7.1961  -13.6128   17.5637 C   0  0  0  0  0  0  0  0  0  0  0  0
    7.0220  -12.8225   18.8322 C   0  0  0  0  0  0  0  0  0  0  0  0
    7.9911  -13.4176   19.8041 C   0  0  0  0  0  0  0  0  0  0  0  0
    9.1055  -13.8583   18.8945 C   0  0  1  0  0  0  0  0  0  0  0  0
    9.7892  -15.0023   19.5718 C   0  0  0  0  0  0  0  0  0  0  0  0
    9.2844  -16.1369   19.4493 O   0  0  0  0  0  0  0  0  0  0  0  0
   16.9827  -14.0236   21.2741 N   0  0  0  0  0  0  0  0  0  0  0  0
   16.9239  -14.8504   22.4153 C   0  0  0  0  0  0  0  0  0  0  0  0
   17.6441  -14.5663   23.4687 N   0  0  0  0  0  0  0  0  0  0  0  0
   16.0919  -16.0015   22.4519 N   0  0  0  0  0  0  0  0  0  0  0  0
   15.4598  -16.5089   21.2516 C   0  0  0  0  0  0  0  0  0  0  0  0
   14.0020  -16.6833   21.5166 C   0  0  0  0  0  0  0  0  0  0  0  0
   13.1145  -15.7303   20.7856 C   0  0  0  0  0  0  0  0  0  0  0  0
   11.6465  -15.9470   21.0055 C   0  0  2  0  0  0  0  0  0  0  0  0
   10.9590  -14.8601   20.3298 N   0  0  0  0  0  0  0  0  0  0  0  0
   11.2541  -15.9211   22.4323 C   0  0  0  0  0  0  0  0  0  0  0  0
   10.8426  -14.8024   22.8846 O   0  0  0  0  0  0  0  0  0  0  0  0
   11.3124  -17.0253   23.2721 O   0  0  0  0  0  0  0  0  0  0  0  0
  2  1  1  6
  2  3  1  0
  3  4  1  0
  4  8  1  0
  5  4  2  0
  6  2  1  0
  7  6  2  0
  9 13  1  0
  9  6  1  0
 10  9  1  0
 11 10  1  0
 11 12  1  0
 12 13  1  0
 14 15  2  0
 13 14  1  1
 16 17  1  0
 17 18  2  0
 19 17  1  0
 19 20  1  0
 21 20  1  0
 21 22  1  0
 23 22  1  1
 23 24  1  0
 23 25  1  0
 24 14  1  0
 25 27  1  0
 26 25  2  0
M  END
$$$$
