DPR.pdb
     RDKit          3D

 27 27  0  0  1  0  0  0  0  0999 V2000
   11.3890  -15.8616   16.8348 N   0  0  0  0  0  0  0  0  0  0  0  0
   10.0454  -15.8132   17.3100 C   0  0  1  0  0  0  0  0  0  0  0  0
    9.4367  -17.1976   17.2089 C   0  0  0  0  0  0  0  0  0  0  0  0
    9.3208  -17.6874   15.8351 C   0  0  0  0  0  0  0  0  0  0  0  0
    8.2054  -17.9083   15.3377 O   0  0  0  0  0  0  0  0  0  0  0  0
    9.8444  -15.2117   18.6296 C   0  0  0  0  0  0  0  0  0  0  0  0
   10.6561  -15.5002   19.5348 O   0  0  0  0  0  0  0  0  0  0  0  0
   10.4297  -17.9244   15.0361 O   0  0  0  0  0  0  0  0  0  0  0  0
    8.7671  -14.3110   18.9432 N   0  0  0  0  0  0  0  0  0  0  0  0
    7.9318  -13.7574   17.9285 C   0  0  0  0  0  0  0  0  0  0  0  0
    6.9964  -12.8216   18.6449 C   0  0  0  0  0  0  0  0  0  0  0  0
    6.9871  -13.2851   20.0672 C   0  0  0  0  0  0  0  0  0  0  0  0
    8.3842  -13.8209   20.2238 C   0  0  1  0  0  0  0  0  0  0  0  0
    8.3286  -14.8678   21.2896 C   0  0  0  0  0  0  0  0  0  0  0  0
    8.0811  -16.0402   20.9413 O   0  0  0  0  0  0  0  0  0  0  0  0
   10.5432  -14.7342   30.0846 N   0  0  0  0  0  0  0  0  0  0  0  0
   10.5474  -16.0510   29.5793 C   0  0  0  0  0  0  0  0  0  0  0  0
   11.0538  -17.0244   30.2900 N   0  0  0  0  0  0  0  0  0  0  0  0
   10.0094  -16.3532   28.2995 N   0  0  0  0  0  0  0  0  0  0  0  0
   10.0547  -15.3890   27.2198 C   0  0  0  0  0  0  0  0  0  0  0  0
    9.3275  -15.9525   26.0453 C   0  0  0  0  0  0  0  0  0  0  0  0
    9.2566  -15.0472   24.8597 C   0  0  0  0  0  0  0  0  0  0  0  0
    8.4448  -15.5766   23.7148 C   0  0  2  0  0  0  0  0  0  0  0  0
    8.5397  -14.5954   22.6477 N   0  0  0  0  0  0  0  0  0  0  0  0
    7.0132  -15.7604   24.0426 C   0  0  0  0  0  0  0  0  0  0  0  0
    6.2563  -14.7523   23.8523 O   0  0  0  0  0  0  0  0  0  0  0  0
    6.4761  -16.9435   24.5321 O   0  0  0  0  0  0  0  0  0  0  0  0
  2  1  1  1
  2  3  1  0
  3  4  1  0
  4  8  1  0
  5  4  2  0
  6  2  1  0
  7  6  2  0
  9 13  1  0
  9  6  1  0
 10  9  1  0
 11 10  1  0
 11 12  1  0
 12 13  1  0
 14 15  2  0
 13 14  1  1
 16 17  1  0
 17 18  2  0
 19 17  1  0
 19 20  1  0
 21 20  1  0
 21 22  1  0
 23 22  1  1
 23 24  1  0
 23 25  1  0
 24 14  1  0
 25 27  1  0
 26 25  2  0
M  END
$$$$
