DPR.pdb
     RDKit          3D

 27 27  0  0  1  0  0  0  0  0999 V2000
   10.2164  -14.8900   14.5938 N   0  0  0  0  0  0  0  0  0  0  0  0
    9.2241  -15.1915   15.5725 C   0  0  1  0  0  0  0  0  0  0  0  0
    8.7714  -16.6264   15.3897 C   0  0  0  0  0  0  0  0  0  0  0  0
    8.2355  -16.9060   14.0572 C   0  0  0  0  0  0  0  0  0  0  0  0
    8.9960  -17.2041   13.1229 O   0  0  0  0  0  0  0  0  0  0  0  0
    9.5703  -14.8899   16.9628 C   0  0  0  0  0  0  0  0  0  0  0  0
   10.6817  -15.2736   17.3863 O   0  0  0  0  0  0  0  0  0  0  0  0
    6.8779  -16.8529   13.7777 O   0  0  0  0  0  0  0  0  0  0  0  0
    8.7054  -14.1803   17.8674 N   0  0  0  0  0  0  0  0  0  0  0  0
    7.5153  -13.5355   17.4179 C   0  0  0  0  0  0  0  0  0  0  0  0
    6.9458  -12.8525   18.6316 C   0  0  0  0  0  0  0  0  0  0  0  0
    7.5351  -13.5729   19.8029 C   0  0  0  0  0  0  0  0  0  0  0  0
    8.8801  -13.9812   19.2662 C   0  0  1  0  0  0  0  0  0  0  0  0
    9.2889  -15.2093   20.0141 C   0  0  0  0  0  0  0  0  0  0  0  0
    8.7547  -16.2906   19.6937 O   0  0  0  0  0  0  0  0  0  0  0  0
   17.0873  -16.1406   19.5030 N   0  0  0  0  0  0  0  0  0  0  0  0
   16.6263  -15.0143   20.2159 C   0  0  0  0  0  0  0  0  0  0  0  0
   17.4038  -13.9755   20.3750 N   0  0  0  0  0  0  0  0  0  0  0  0
   15.3208  -14.9773   20.7753 N   0  0  0  0  0  0  0  0  0  0  0  0
   14.3976  -16.0794   20.5995 C   0  0  0  0  0  0  0  0  0  0  0  0
   13.1005  -15.7236   21.2450 C   0  0  0  0  0  0  0  0  0  0  0  0
   12.0264  -16.7509   21.0993 C   0  0  0  0  0  0  0  0  0  0  0  0
   10.7190  -16.3852   21.7374 C   0  0  2  0  0  0  0  0  0  0  0  0
   10.2351  -15.2018   21.0475 N   0  0  0  0  0  0  0  0  0  0  0  0
   10.8358  -16.0611   23.1769 C   0  0  0  0  0  0  0  0  0  0  0  0
   10.5342  -14.8691   23.5136 O   0  0  0  0  0  0  0  0  0  0  0  0
   11.2460  -16.9684   24.1445 O   0  0  0  0  0  0  0  0  0  0  0  0
  2  1  1  6
  2  3  1  0
  3  4  1  0
  4  8  1  0
  5  4  2  0
  6  2  1  0
  7  6  2  0
  9 13  1  0
  9  6  1  0
 10  9  1  0
 11 10  1  0
 11 12  1  0
 12 13  1  0
 14 15  2  0
 13 14  1  1
 16 17  1  0
 17 18  2  0
 19 17  1  0
 19 20  1  0
 21 20  1  0
 21 22  1  0
 23 22  1  6
 23 24  1  0
 23 25  1  0
 24 14  1  0
 25 27  1  0
 26 25  2  0
M  END
$$$$
