DPR.pdb
     RDKit          3D

 27 27  0  0  1  0  0  0  0  0999 V2000
    5.3841  -19.7898   23.8805 N   0  0  0  0  0  0  0  0  0  0  0  0
    6.3723  -19.1819   24.7095 C   0  0  1  0  0  0  0  0  0  0  0  0
    7.3628  -20.2403   25.1523 C   0  0  0  0  0  0  0  0  0  0  0  0
    6.8161  -21.1813   26.1302 C   0  0  0  0  0  0  0  0  0  0  0  0
    5.9803  -22.0318   25.7860 O   0  0  0  0  0  0  0  0  0  0  0  0
    7.0331  -17.9931   24.1674 C   0  0  0  0  0  0  0  0  0  0  0  0
    7.4219  -18.0289   22.9803 O   0  0  0  0  0  0  0  0  0  0  0  0
    7.1972  -21.1700   27.4638 O   0  0  0  0  0  0  0  0  0  0  0  0
    7.2612  -16.7897   24.9223 N   0  0  0  0  0  0  0  0  0  0  0  0
    6.5817  -16.5331   26.1497 C   0  0  0  0  0  0  0  0  0  0  0  0
    7.0290  -15.1616   26.5771 C   0  0  0  0  0  0  0  0  0  0  0  0
    8.3260  -14.9307   25.8681 C   0  0  0  0  0  0  0  0  0  0  0  0
    8.1199  -15.7029   24.5934 C   0  0  1  0  0  0  0  0  0  0  0  0
    9.4747  -16.1150   24.1141 C   0  0  0  0  0  0  0  0  0  0  0  0
   10.0623  -17.0212   24.7392 O   0  0  0  0  0  0  0  0  0  0  0  0
    9.0818  -12.0381   17.6304 N   0  0  0  0  0  0  0  0  0  0  0  0
    8.6544  -13.3779   17.5229 C   0  0  0  0  0  0  0  0  0  0  0  0
    7.8581  -13.7362   16.5501 N   0  0  0  0  0  0  0  0  0  0  0  0
    9.0708  -14.3636   18.4576 N   0  0  0  0  0  0  0  0  0  0  0  0
   10.1451  -14.1039   19.3936 C   0  0  0  0  0  0  0  0  0  0  0  0
   10.3844  -15.3360   20.2000 C   0  0  0  0  0  0  0  0  0  0  0  0
   11.5408  -15.2532   21.1414 C   0  0  0  0  0  0  0  0  0  0  0  0
   11.3564  -16.0024   22.4278 C   0  0  2  0  0  0  0  0  0  0  0  0
   10.1080  -15.5364   23.0064 N   0  0  0  0  0  0  0  0  0  0  0  0
   12.4360  -15.7604   23.4108 C   0  0  0  0  0  0  0  0  0  0  0  0
   13.5457  -16.3467   23.1867 O   0  0  0  0  0  0  0  0  0  0  0  0
   12.2979  -14.9496   24.5295 O   0  0  0  0  0  0  0  0  0  0  0  0
  2  1  1  6
  2  3  1  0
  3  4  1  0
  4  8  1  0
  5  4  2  0
  6  2  1  0
  7  6  2  0
  9 13  1  0
  9  6  1  0
 10  9  1  0
 11 10  1  0
 11 12  1  0
 12 13  1  0
 14 15  2  0
 13 14  1  1
 16 17  1  0
 17 18  2  0
 19 17  1  0
 19 20  1  0
 21 20  1  0
 21 22  1  0
 23 22  1  6
 23 24  1  0
 23 25  1  0
 24 14  1  0
 25 27  1  0
 26 25  2  0
M  END
$$$$
