DPR.pdb
     RDKit          3D

 27 27  0  0  1  0  0  0  0  0999 V2000
    5.9517  -18.6209   20.1698 N   0  0  0  0  0  0  0  0  0  0  0  0
    6.0317  -17.3100   20.7252 C   0  0  1  0  0  0  0  0  0  0  0  0
    5.4267  -17.3257   22.1148 C   0  0  0  0  0  0  0  0  0  0  0  0
    4.0254  -17.7459   22.1387 C   0  0  0  0  0  0  0  0  0  0  0  0
    3.4790  -18.1733   21.1095 O   0  0  0  0  0  0  0  0  0  0  0  0
    7.3496  -16.6728   20.6990 C   0  0  0  0  0  0  0  0  0  0  0  0
    8.3413  -17.3646   21.0149 O   0  0  0  0  0  0  0  0  0  0  0  0
    3.2534  -17.6888   23.2896 O   0  0  0  0  0  0  0  0  0  0  0  0
    7.5674  -15.2986   20.3329 N   0  0  0  0  0  0  0  0  0  0  0  0
    6.5324  -14.5007   19.7617 C   0  0  0  0  0  0  0  0  0  0  0  0
    7.1719  -13.1740   19.4538 C   0  0  0  0  0  0  0  0  0  0  0  0
    8.3744  -13.1001   20.3408 C   0  0  0  0  0  0  0  0  0  0  0  0
    8.7723  -14.5478   20.4383 C   0  0  1  0  0  0  0  0  0  0  0  0
    9.4857  -14.7128   21.7417 C   0  0  0  0  0  0  0  0  0  0  0  0
    9.0297  -14.1107   22.7350 O   0  0  0  0  0  0  0  0  0  0  0  0
    7.2106  -12.7075   27.6226 N   0  0  0  0  0  0  0  0  0  0  0  0
    8.2258  -13.6738   27.4648 C   0  0  0  0  0  0  0  0  0  0  0  0
    9.1137  -13.8520   28.4076 N   0  0  0  0  0  0  0  0  0  0  0  0
    8.3120  -14.4703   26.2915 N   0  0  0  0  0  0  0  0  0  0  0  0
    9.5734  -15.0363   25.8599 C   0  0  0  0  0  0  0  0  0  0  0  0
    9.3465  -15.8044   24.6011 C   0  0  0  0  0  0  0  0  0  0  0  0
   10.5597  -16.4819   24.0540 C   0  0  0  0  0  0  0  0  0  0  0  0
   11.3867  -15.6367   23.1310 C   0  0  2  0  0  0  0  0  0  0  0  0
   10.6310  -15.5048   21.8973 N   0  0  0  0  0  0  0  0  0  0  0  0
   12.7002  -16.2346   22.8024 C   0  0  0  0  0  0  0  0  0  0  0  0
   13.6231  -16.0809   23.6685 O   0  0  0  0  0  0  0  0  0  0  0  0
   12.9628  -16.9322   21.6311 O   0  0  0  0  0  0  0  0  0  0  0  0
  2  1  1  1
  2  3  1  0
  3  4  1  0
  4  8  1  0
  5  4  2  0
  6  2  1  0
  7  6  2  0
  9 13  1  0
  9  6  1  0
 10  9  1  0
 11 10  1  0
 11 12  1  0
 12 13  1  0
 14 15  2  0
 13 14  1  1
 16 17  1  0
 17 18  2  0
 19 17  1  0
 19 20  1  0
 21 20  1  0
 21 22  1  0
 23 22  1  1
 23 24  1  0
 23 25  1  0
 24 14  1  0
 25 27  1  0
 26 25  2  0
M  END
$$$$
