DPR.pdb
     RDKit          3D

 27 27  0  0  1  0  0  0  0  0999 V2000
    9.7469  -15.3620   14.9297 N   0  0  0  0  0  0  0  0  0  0  0  0
    8.8845  -15.5843   16.0433 C   0  0  1  0  0  0  0  0  0  0  0  0
    8.4511  -17.0368   16.0488 C   0  0  0  0  0  0  0  0  0  0  0  0
    7.7674  -17.4484   14.8225 C   0  0  0  0  0  0  0  0  0  0  0  0
    6.7856  -16.8137   14.4060 O   0  0  0  0  0  0  0  0  0  0  0  0
    9.3834  -15.1474   17.3486 C   0  0  0  0  0  0  0  0  0  0  0  0
   10.5253  -15.5194   17.6939 O   0  0  0  0  0  0  0  0  0  0  0  0
    8.1746  -18.5465   14.0792 O   0  0  0  0  0  0  0  0  0  0  0  0
    8.6350  -14.3176   18.2549 N   0  0  0  0  0  0  0  0  0  0  0  0
    7.4437  -13.6466   17.8489 C   0  0  0  0  0  0  0  0  0  0  0  0
    7.0146  -12.8341   19.0403 C   0  0  0  0  0  0  0  0  0  0  0  0
    7.6661  -13.4866   20.2184 C   0  0  0  0  0  0  0  0  0  0  0  0
    8.9384  -14.0130   19.6121 C   0  0  1  0  0  0  0  0  0  0  0  0
    9.3492  -15.1958   20.4289 C   0  0  0  0  0  0  0  0  0  0  0  0
    8.7679  -16.2795   20.2171 O   0  0  0  0  0  0  0  0  0  0  0  0
   17.3358  -15.2695   23.6643 N   0  0  0  0  0  0  0  0  0  0  0  0
   16.5637  -16.2048   22.9444 C   0  0  0  0  0  0  0  0  0  0  0  0
   17.1445  -17.0460   22.1295 N   0  0  0  0  0  0  0  0  0  0  0  0
   15.1505  -16.2582   23.0816 N   0  0  0  0  0  0  0  0  0  0  0  0
   14.4081  -17.4537   22.7392 C   0  0  0  0  0  0  0  0  0  0  0  0
   12.9702  -17.2346   23.0712 C   0  0  0  0  0  0  0  0  0  0  0  0
   12.3033  -16.1554   22.2833 C   0  0  0  0  0  0  0  0  0  0  0  0
   10.8122  -16.2837   22.1821 C   0  0  2  0  0  0  0  0  0  0  0  0
   10.3471  -15.1437   21.4111 N   0  0  0  0  0  0  0  0  0  0  0  0
   10.1281  -16.2597   23.4944 C   0  0  0  0  0  0  0  0  0  0  0  0
    9.5797  -15.1573   23.8252 O   0  0  0  0  0  0  0  0  0  0  0  0
   10.0596  -17.3490   24.3525 O   0  0  0  0  0  0  0  0  0  0  0  0
  2  1  1  6
  2  3  1  0
  3  4  1  0
  4  8  1  0
  5  4  2  0
  6  2  1  0
  7  6  2  0
  9 13  1  0
  9  6  1  0
 10  9  1  0
 11 10  1  0
 11 12  1  0
 12 13  1  0
 14 15  2  0
 13 14  1  1
 16 17  1  0
 17 18  2  0
 19 17  1  0
 19 20  1  0
 21 20  1  0
 21 22  1  0
 23 22  1  1
 23 24  1  0
 23 25  1  0
 24 14  1  0
 25 27  1  0
 26 25  2  0
M  END
$$$$
