IPS.pdb
     RDKit          3D

 22 22  0  0  1  0  0  0  0  0999 V2000
    7.0036  -11.6364   27.5361 C   0  0  0  0  0  0  0  0  0  0  0  0
    6.3456  -12.7402   26.8013 C   0  0  0  0  0  0  0  0  0  0  0  0
    7.2321  -13.6794   26.0476 C   0  0  2  0  0  0  0  0  0  0  0  0
    8.0273  -12.7731   25.0793 C   0  0  0  0  0  0  0  0  0  0  0  0
    6.5582  -14.7337   25.2518 C   0  0  2  0  0  0  0  0  0  0  0  0
    5.8174  -15.5741   26.2091 N   0  0  0  0  0  0  0  0  0  0  0  0
    7.4113  -15.5785   24.3977 C   0  0  0  0  0  0  0  0  0  0  0  0
    7.9878  -16.5892   24.9348 O   0  0  0  0  0  0  0  0  0  0  0  0
    7.6155  -15.3264   23.0168 N   0  0  0  0  0  0  0  0  0  0  0  0
    6.8544  -14.3486   22.2342 C   0  0  0  0  0  0  0  0  0  0  0  0
    7.0230  -14.8471   20.7934 C   0  0  0  0  0  0  0  0  0  0  0  0
    8.5271  -15.1632   20.8503 C   0  0  0  0  0  0  0  0  0  0  0  0
    8.5539  -15.9363   22.1508 C   0  0  1  0  0  0  0  0  0  0  0  0
    9.9405  -16.0367   22.6333 C   0  0  0  0  0  0  0  0  0  0  0  0
   10.6157  -15.0786   23.0780 O   0  0  0  0  0  0  0  0  0  0  0  0
   11.3518  -19.6459   23.5424 O   0  0  0  0  0  0  0  0  0  0  0  0
   12.1239  -18.5745   23.9860 C   0  0  0  0  0  0  0  0  0  0  0  0
   12.0283  -17.4045   22.9950 C   0  0  2  0  0  0  0  0  0  0  0  0
   10.6492  -17.2920   22.6291 N   0  0  0  0  0  0  0  0  0  0  0  0
   12.9012  -17.6495   21.8260 C   0  0  0  0  0  0  0  0  0  0  0  0
   12.3886  -17.8746   20.7081 O   0  0  0  0  0  0  0  0  0  0  0  0
   14.2601  -17.6311   21.9613 O   0  0  0  0  0  0  0  0  0  0  0  0
  2  1  1  0
  2  3  1  0
  3  4  1  6
  5  3  1  0
  5  7  1  0
  5  6  1  1
  7  8  2  0
  9  7  1  0
  9 13  1  0
 10 11  1  0
 10  9  1  0
 11 12  1  0
 12 13  1  0
 13 14  1  1
 14 15  2  0
 16 17  1  0
 18 17  1  1
 18 20  1  0
 19 18  1  0
 19 14  1  0
 20 21  2  0
 20 22  1  0
M  END
$$$$
