IPS.pdb
     RDKit          3D

 22 22  0  0  1  0  0  0  0  0999 V2000
    6.4496  -11.6395   27.5143 C   0  0  0  0  0  0  0  0  0  0  0  0
    5.9372  -12.7423   26.6702 C   0  0  0  0  0  0  0  0  0  0  0  0
    6.9510  -13.6115   25.9972 C   0  0  2  0  0  0  0  0  0  0  0  0
    7.7302  -12.6535   25.0664 C   0  0  0  0  0  0  0  0  0  0  0  0
    6.4266  -14.7319   25.1796 C   0  0  2  0  0  0  0  0  0  0  0  0
    5.7103  -15.6280   26.1044 N   0  0  0  0  0  0  0  0  0  0  0  0
    7.4039  -15.5020   24.3905 C   0  0  0  0  0  0  0  0  0  0  0  0
    8.0410  -16.4464   24.9774 O   0  0  0  0  0  0  0  0  0  0  0  0
    7.6636  -15.2486   23.0191 N   0  0  0  0  0  0  0  0  0  0  0  0
    6.9220  -14.2838   22.2026 C   0  0  0  0  0  0  0  0  0  0  0  0
    7.1602  -14.7815   20.7714 C   0  0  0  0  0  0  0  0  0  0  0  0
    8.6651  -15.0743   20.8937 C   0  0  0  0  0  0  0  0  0  0  0  0
    8.6477  -15.8451   22.1956 C   0  0  1  0  0  0  0  0  0  0  0  0
   10.0135  -15.9235   22.7376 C   0  0  0  0  0  0  0  0  0  0  0  0
   10.6422  -14.9612   23.2383 O   0  0  0  0  0  0  0  0  0  0  0  0
   11.3315  -19.4166   23.8677 O   0  0  0  0  0  0  0  0  0  0  0  0
   12.1507  -18.3543   24.2435 C   0  0  0  0  0  0  0  0  0  0  0  0
   12.1129  -17.2507   23.1755 C   0  0  2  0  0  0  0  0  0  0  0  0
   10.7553  -17.1595   22.7315 N   0  0  0  0  0  0  0  0  0  0  0  0
   13.0441  -17.5725   22.0718 C   0  0  0  0  0  0  0  0  0  0  0  0
   14.2736  -17.6194   22.2942 O   0  0  0  0  0  0  0  0  0  0  0  0
   12.5691  -17.8178   20.8151 O   0  0  0  0  0  0  0  0  0  0  0  0
  2  1  1  0
  2  3  1  0
  3  4  1  6
  5  3  1  0
  5  7  1  0
  5  6  1  1
  7  8  2  0
  9  7  1  0
  9 13  1  0
 10 11  1  0
 10  9  1  0
 11 12  1  0
 12 13  1  0
 13 14  1  1
 14 15  2  0
 16 17  1  0
 18 17  1  1
 18 20  1  0
 19 18  1  0
 19 14  1  0
 20 21  2  0
 20 22  1  0
M  END
$$$$
