IPS.pdb
     RDKit          3D

 22 22  0  0  1  0  0  0  0  0999 V2000
    3.7886  -19.6592   19.1571 C   0  0  0  0  0  0  0  0  0  0  0  0
    4.3441  -18.3690   18.6901 C   0  0  0  0  0  0  0  0  0  0  0  0
    5.5851  -17.8785   19.3649 C   0  0  2  0  0  0  0  0  0  0  0  0
    5.0868  -17.2402   20.6823 C   0  0  0  0  0  0  0  0  0  0  0  0
    6.3848  -16.8682   18.6308 C   0  0  2  0  0  0  0  0  0  0  0  0
    6.6863  -17.4491   17.3105 N   0  0  0  0  0  0  0  0  0  0  0  0
    7.6279  -16.4023   19.2699 C   0  0  0  0  0  0  0  0  0  0  0  0
    8.6218  -17.2100   19.3132 O   0  0  0  0  0  0  0  0  0  0  0  0
    7.7721  -15.1069   19.8297 N   0  0  0  0  0  0  0  0  0  0  0  0
    6.7843  -14.0331   19.6927 C   0  0  0  0  0  0  0  0  0  0  0  0
    7.6116  -12.7644   19.9348 C   0  0  0  0  0  0  0  0  0  0  0  0
    8.4191  -13.2625   21.1453 C   0  0  0  0  0  0  0  0  0  0  0  0
    8.8479  -14.6080   20.6019 C   0  0  1  0  0  0  0  0  0  0  0  0
    9.3248  -15.4541   21.7073 C   0  0  0  0  0  0  0  0  0  0  0  0
    8.5968  -15.9341   22.6081 O   0  0  0  0  0  0  0  0  0  0  0  0
   12.8584  -17.4264   21.3143 O   0  0  0  0  0  0  0  0  0  0  0  0
   11.8659  -17.8587   22.1910 C   0  0  0  0  0  0  0  0  0  0  0  0
   11.2060  -16.6555   22.8815 C   0  0  2  0  0  0  0  0  0  0  0  0
   10.7167  -15.8054   21.8392 N   0  0  0  0  0  0  0  0  0  0  0  0
   12.1809  -15.9675   23.7560 C   0  0  0  0  0  0  0  0  0  0  0  0
   12.5692  -14.8157   23.4627 O   0  0  0  0  0  0  0  0  0  0  0  0
   12.6575  -16.5820   24.8786 O   0  0  0  0  0  0  0  0  0  0  0  0
  2  1  1  0
  2  3  1  0
  3  4  1  1
  5  3  1  0
  5  7  1  0
  5  6  1  6
  7  8  2  0
  9  7  1  0
  9 13  1  0
 10 11  1  0
 10  9  1  0
 11 12  1  0
 12 13  1  0
 13 14  1  1
 14 15  2  0
 16 17  1  0
 18 17  1  6
 18 20  1  0
 19 18  1  0
 19 14  1  0
 20 21  2  0
 20 22  1  0
M  END
$$$$
