IPS.pdb
     RDKit          3D

 22 22  0  0  1  0  0  0  0  0999 V2000
    6.3709  -11.4203   27.5552 C   0  0  0  0  0  0  0  0  0  0  0  0
    5.9118  -12.5910   26.7742 C   0  0  0  0  0  0  0  0  0  0  0  0
    6.9581  -13.3838   26.0581 C   0  0  2  0  0  0  0  0  0  0  0  0
    7.5952  -12.3832   25.0661 C   0  0  0  0  0  0  0  0  0  0  0  0
    6.4887  -14.5640   25.2928 C   0  0  2  0  0  0  0  0  0  0  0  0
    5.8317  -15.4592   26.2615 N   0  0  0  0  0  0  0  0  0  0  0  0
    7.4996  -15.3113   24.5243 C   0  0  0  0  0  0  0  0  0  0  0  0
    8.2025  -16.1850   25.1445 O   0  0  0  0  0  0  0  0  0  0  0  0
    7.7222  -15.1107   23.1378 N   0  0  0  0  0  0  0  0  0  0  0  0
    7.0159  -14.1184   22.3228 C   0  0  0  0  0  0  0  0  0  0  0  0
    7.1644  -14.6670   20.8981 C   0  0  0  0  0  0  0  0  0  0  0  0
    8.6499  -15.0584   20.9727 C   0  0  0  0  0  0  0  0  0  0  0  0
    8.6314  -15.7933   22.2952 C   0  0  1  0  0  0  0  0  0  0  0  0
   10.0089  -15.9508   22.7882 C   0  0  0  0  0  0  0  0  0  0  0  0
   10.7458  -15.0107   23.1689 O   0  0  0  0  0  0  0  0  0  0  0  0
   11.1236  -19.5325   24.1000 O   0  0  0  0  0  0  0  0  0  0  0  0
   11.9353  -18.4572   24.4542 C   0  0  0  0  0  0  0  0  0  0  0  0
   11.9834  -17.4295   23.3133 C   0  0  2  0  0  0  0  0  0  0  0  0
   10.6341  -17.2470   22.8721 N   0  0  0  0  0  0  0  0  0  0  0  0
   12.8689  -17.9076   22.2289 C   0  0  0  0  0  0  0  0  0  0  0  0
   14.0985  -18.0060   22.4330 O   0  0  0  0  0  0  0  0  0  0  0  0
   12.3517  -18.2411   21.0097 O   0  0  0  0  0  0  0  0  0  0  0  0
  2  1  1  0
  2  3  1  0
  3  4  1  6
  5  3  1  0
  5  7  1  0
  5  6  1  1
  7  8  2  0
  9  7  1  0
  9 13  1  0
 10 11  1  0
 10  9  1  0
 11 12  1  0
 12 13  1  0
 13 14  1  1
 14 15  2  0
 16 17  1  0
 18 17  1  1
 18 20  1  0
 19 18  1  0
 19 14  1  0
 20 21  2  0
 20 22  1  0
M  END
$$$$
