IPS.pdb
     RDKit          3D

 22 22  0  0  1  0  0  0  0  0999 V2000
    6.6833  -11.6443   27.6575 C   0  0  0  0  0  0  0  0  0  0  0  0
    6.1412  -12.7399   26.8225 C   0  0  0  0  0  0  0  0  0  0  0  0
    7.1310  -13.6453   26.1617 C   0  0  2  0  0  0  0  0  0  0  0  0
    7.9657  -12.7138   25.2525 C   0  0  0  0  0  0  0  0  0  0  0  0
    6.5766  -14.7378   25.3262 C   0  0  2  0  0  0  0  0  0  0  0  0
    5.8042  -15.6080   26.2304 N   0  0  0  0  0  0  0  0  0  0  0  0
    7.5365  -15.5442   24.5521 C   0  0  0  0  0  0  0  0  0  0  0  0
    8.1606  -16.4842   25.1596 O   0  0  0  0  0  0  0  0  0  0  0  0
    7.7930  -15.3300   23.1735 N   0  0  0  0  0  0  0  0  0  0  0  0
    7.0380  -14.4019   22.3273 C   0  0  0  0  0  0  0  0  0  0  0  0
    7.2838  -14.9406   20.9123 C   0  0  0  0  0  0  0  0  0  0  0  0
    8.7927  -15.2078   21.0435 C   0  0  0  0  0  0  0  0  0  0  0  0
    8.7858  -15.9378   22.3689 C   0  0  1  0  0  0  0  0  0  0  0  0
   10.1524  -15.9797   22.9130 C   0  0  0  0  0  0  0  0  0  0  0  0
   10.7275  -15.0212   23.4809 O   0  0  0  0  0  0  0  0  0  0  0  0
   11.7753  -18.8099   24.9824 O   0  0  0  0  0  0  0  0  0  0  0  0
   12.5495  -18.6243   23.8392 C   0  0  0  0  0  0  0  0  0  0  0  0
   12.3214  -17.2174   23.2658 C   0  0  2  0  0  0  0  0  0  0  0  0
   10.9592  -17.1713   22.8288 N   0  0  0  0  0  0  0  0  0  0  0  0
   13.2734  -16.9512   22.1652 C   0  0  0  0  0  0  0  0  0  0  0  0
   12.9524  -17.2296   20.9893 O   0  0  0  0  0  0  0  0  0  0  0  0
   14.4975  -16.4047   22.4262 O   0  0  0  0  0  0  0  0  0  0  0  0
  2  1  1  0
  2  3  1  0
  3  4  1  6
  5  3  1  0
  5  7  1  0
  5  6  1  1
  7  8  2  0
  9  7  1  0
  9 13  1  0
 10 11  1  0
 10  9  1  0
 11 12  1  0
 12 13  1  0
 13 14  1  1
 14 15  2  0
 16 17  1  0
 18 17  1  6
 18 20  1  0
 19 18  1  0
 19 14  1  0
 20 21  2  0
 20 22  1  0
M  END
$$$$
