IPS.pdb
     RDKit          3D

 22 22  0  0  1  0  0  0  0  0999 V2000
    6.6610  -11.4164   27.4631 C   0  0  0  0  0  0  0  0  0  0  0  0
    6.0996  -12.4881   26.6102 C   0  0  0  0  0  0  0  0  0  0  0  0
    7.0689  -13.4475   25.9968 C   0  0  2  0  0  0  0  0  0  0  0  0
    7.9503  -12.5748   25.0733 C   0  0  0  0  0  0  0  0  0  0  0  0
    6.4917  -14.5474   25.1869 C   0  0  2  0  0  0  0  0  0  0  0  0
    5.6732  -15.3600   26.1041 N   0  0  0  0  0  0  0  0  0  0  0  0
    7.4366  -15.4116   24.4580 C   0  0  0  0  0  0  0  0  0  0  0  0
    8.0120  -16.3554   25.1063 O   0  0  0  0  0  0  0  0  0  0  0  0
    7.7297  -15.2485   23.0797 N   0  0  0  0  0  0  0  0  0  0  0  0
    7.0700  -14.2758   22.2043 C   0  0  0  0  0  0  0  0  0  0  0  0
    7.2876  -14.8624   20.8039 C   0  0  0  0  0  0  0  0  0  0  0  0
    8.7656  -15.2567   20.9636 C   0  0  0  0  0  0  0  0  0  0  0  0
    8.6769  -15.9563   22.3023 C   0  0  1  0  0  0  0  0  0  0  0  0
   10.0271  -16.1053   22.8682 C   0  0  0  0  0  0  0  0  0  0  0  0
   10.7148  -15.1683   23.3382 O   0  0  0  0  0  0  0  0  0  0  0  0
   11.2552  -18.9393   25.2132 O   0  0  0  0  0  0  0  0  0  0  0  0
   12.0732  -18.9302   24.0856 C   0  0  0  0  0  0  0  0  0  0  0  0
   12.0204  -17.5554   23.4021 C   0  0  2  0  0  0  0  0  0  0  0  0
   10.6813  -17.3886   22.9250 N   0  0  0  0  0  0  0  0  0  0  0  0
   13.0177  -17.4858   22.3116 C   0  0  0  0  0  0  0  0  0  0  0  0
   12.6524  -17.6561   21.1280 O   0  0  0  0  0  0  0  0  0  0  0  0
   14.3314  -17.2372   22.5902 O   0  0  0  0  0  0  0  0  0  0  0  0
  2  1  1  0
  2  3  1  0
  3  4  1  6
  5  3  1  0
  5  7  1  0
  5  6  1  1
  7  8  2  0
  9  7  1  0
  9 13  1  0
 10 11  1  0
 10  9  1  0
 11 12  1  0
 12 13  1  0
 13 14  1  1
 14 15  2  0
 16 17  1  0
 18 17  1  6
 18 20  1  0
 19 18  1  0
 19 14  1  0
 20 21  2  0
 20 22  1  0
M  END
$$$$
