IPS.pdb
     RDKit          3D

 22 22  0  0  1  0  0  0  0  0999 V2000
    6.4935  -11.5333   27.4034 C   0  0  0  0  0  0  0  0  0  0  0  0
    5.9917  -12.7377   26.7041 C   0  0  0  0  0  0  0  0  0  0  0  0
    6.9959  -13.5631   25.9649 C   0  0  2  0  0  0  0  0  0  0  0  0
    7.6291  -12.5872   24.9460 C   0  0  0  0  0  0  0  0  0  0  0  0
    6.4742  -14.7369   25.2240 C   0  0  2  0  0  0  0  0  0  0  0  0
    5.8713  -15.6329   26.2266 N   0  0  0  0  0  0  0  0  0  0  0  0
    7.4324  -15.4862   24.3928 C   0  0  0  0  0  0  0  0  0  0  0  0
    8.1384  -16.3941   24.9582 O   0  0  0  0  0  0  0  0  0  0  0  0
    7.6016  -15.2517   23.0040 N   0  0  0  0  0  0  0  0  0  0  0  0
    6.8235  -14.2810   22.2295 C   0  0  0  0  0  0  0  0  0  0  0  0
    6.9532  -14.7975   20.7910 C   0  0  0  0  0  0  0  0  0  0  0  0
    8.4572  -15.1180   20.8129 C   0  0  0  0  0  0  0  0  0  0  0  0
    8.5153  -15.8753   22.1216 C   0  0  1  0  0  0  0  0  0  0  0  0
    9.9136  -15.9745   22.5693 C   0  0  0  0  0  0  0  0  0  0  0  0
   10.6667  -14.9968   22.7897 O   0  0  0  0  0  0  0  0  0  0  0  0
   11.1852  -19.4897   24.0540 O   0  0  0  0  0  0  0  0  0  0  0  0
   11.9735  -18.3744   24.3289 C   0  0  0  0  0  0  0  0  0  0  0  0
   11.9210  -17.3845   23.1553 C   0  0  2  0  0  0  0  0  0  0  0  0
   10.5420  -17.2520   22.7953 N   0  0  0  0  0  0  0  0  0  0  0  0
   12.7498  -17.8753   22.0324 C   0  0  0  0  0  0  0  0  0  0  0  0
   13.9938  -17.9117   22.1522 O   0  0  0  0  0  0  0  0  0  0  0  0
   12.1648  -18.2875   20.8692 O   0  0  0  0  0  0  0  0  0  0  0  0
  2  1  1  0
  2  3  1  0
  3  4  1  6
  5  3  1  0
  5  7  1  0
  5  6  1  1
  7  8  2  0
  9  7  1  0
  9 13  1  0
 10 11  1  0
 10  9  1  0
 11 12  1  0
 12 13  1  0
 13 14  1  1
 14 15  2  0
 16 17  1  0
 18 17  1  1
 18 20  1  0
 19 18  1  0
 19 14  1  0
 20 21  2  0
 20 22  1  0
M  END
$$$$
