IPS.pdb
     RDKit          3D

 22 22  0  0  1  0  0  0  0  0999 V2000
    7.0470  -11.7446   27.5759 C   0  0  0  0  0  0  0  0  0  0  0  0
    6.4139  -12.7619   26.7068 C   0  0  0  0  0  0  0  0  0  0  0  0
    7.3216  -13.7391   26.0306 C   0  0  2  0  0  0  0  0  0  0  0  0
    8.1667  -12.8804   25.0612 C   0  0  0  0  0  0  0  0  0  0  0  0
    6.6709  -14.8192   25.2502 C   0  0  2  0  0  0  0  0  0  0  0  0
    6.0111  -15.7042   26.2263 N   0  0  0  0  0  0  0  0  0  0  0  0
    7.5314  -15.6124   24.3550 C   0  0  0  0  0  0  0  0  0  0  0  0
    8.1158  -16.6444   24.8404 O   0  0  0  0  0  0  0  0  0  0  0  0
    7.7343  -15.2885   22.9889 N   0  0  0  0  0  0  0  0  0  0  0  0
    6.9998  -14.2441   22.2696 C   0  0  0  0  0  0  0  0  0  0  0  0
    7.1426  -14.6647   20.8015 C   0  0  0  0  0  0  0  0  0  0  0  0
    8.6361  -15.0311   20.8275 C   0  0  0  0  0  0  0  0  0  0  0  0
    8.6468  -15.8775   22.0817 C   0  0  1  0  0  0  0  0  0  0  0  0
   10.0326  -16.0492   22.5459 C   0  0  0  0  0  0  0  0  0  0  0  0
   10.7094  -15.1663   23.1239 O   0  0  0  0  0  0  0  0  0  0  0  0
   11.3263  -19.5933   23.4554 O   0  0  0  0  0  0  0  0  0  0  0  0
   12.1854  -18.5447   23.7765 C   0  0  0  0  0  0  0  0  0  0  0  0
   12.1211  -17.4551   22.6954 C   0  0  2  0  0  0  0  0  0  0  0  0
   10.7386  -17.2925   22.3624 N   0  0  0  0  0  0  0  0  0  0  0  0
   12.9385  -17.8443   21.5254 C   0  0  0  0  0  0  0  0  0  0  0  0
   14.1770  -17.9637   21.6486 O   0  0  0  0  0  0  0  0  0  0  0  0
   12.3490  -18.0731   20.3149 O   0  0  0  0  0  0  0  0  0  0  0  0
  2  1  1  0
  2  3  1  0
  3  4  1  6
  5  3  1  0
  5  7  1  0
  5  6  1  1
  7  8  2  0
  9  7  1  0
  9 13  1  0
 10 11  1  0
 10  9  1  0
 11 12  1  0
 12 13  1  0
 13 14  1  1
 14 15  2  0
 16 17  1  0
 18 17  1  1
 18 20  1  0
 19 18  1  0
 19 14  1  0
 20 21  2  0
 20 22  1  0
M  END
$$$$
