WHH.pdb
     RDKit          3D

 35 38  0  0  1  0  0  0  0  0999 V2000
   12.0517  -17.0971   20.3051 N   0  0  0  0  0  0  0  0  0  0  0  0
   11.0372  -16.3731   21.0157 C   0  0  1  0  0  0  0  0  0  0  0  0
    9.6806  -16.8950   20.6337 C   0  0  0  0  0  0  0  0  0  0  0  0
    8.7877  -15.7806   20.2504 C   0  0  0  0  0  0  0  0  0  0  0  0
    8.1716  -15.6649   18.9961 C   0  0  0  0  0  0  0  0  0  0  0  0
    7.4056  -14.5644   18.9822 N   0  0  0  0  0  0  0  0  0  0  0  0
    7.5114  -13.9728   20.1840 C   0  0  0  0  0  0  0  0  0  0  0  0
    6.9229  -12.8072   20.6682 C   0  0  0  0  0  0  0  0  0  0  0  0
    7.2098  -12.4033   21.9651 C   0  0  0  0  0  0  0  0  0  0  0  0
    8.0465  -13.1105   22.7740 C   0  0  0  0  0  0  0  0  0  0  0  0
    8.6153  -14.2640   22.2639 C   0  0  0  0  0  0  0  0  0  0  0  0
    8.3601  -14.7026   20.9884 C   0  0  0  0  0  0  0  0  0  0  0  0
   11.2002  -16.5465   22.4971 C   0  0  0  0  0  0  0  0  0  0  0  0
   11.9677  -17.4125   22.9900 O   0  0  0  0  0  0  0  0  0  0  0  0
   10.4794  -15.7225   23.4055 N   0  0  0  0  0  0  0  0  0  0  0  0
   10.6420  -15.8305   24.8222 C   0  0  1  0  0  0  0  0  0  0  0  0
    9.8059  -14.7233   25.4708 C   0  0  0  0  0  0  0  0  0  0  0  0
    9.9097  -14.7650   26.9592 C   0  0  0  0  0  0  0  0  0  0  0  0
   10.6138  -15.6741   27.7087 C   0  0  0  0  0  0  0  0  0  0  0  0
   10.4333  -15.3417   28.9963 N   0  0  0  0  0  0  0  0  0  0  0  0
    9.6457  -14.2622   29.0881 C   0  0  0  0  0  0  0  0  0  0  0  0
    9.3291  -13.9152   27.8310 N   0  0  0  0  0  0  0  0  0  0  0  0
   10.2138  -17.1356   25.3783 C   0  0  0  0  0  0  0  0  0  0  0  0
    9.0398  -17.5784   25.1584 O   0  0  0  0  0  0  0  0  0  0  0  0
   11.0548  -17.9571   26.1669 N   0  0  0  0  0  0  0  0  0  0  0  0
   10.6209  -19.2488   26.7258 C   0  0  1  0  0  0  0  0  0  0  0  0
   11.5548  -20.3375   26.2494 C   0  0  0  0  0  0  0  0  0  0  0  0
   11.4001  -20.5494   24.8092 C   0  0  0  0  0  0  0  0  0  0  0  0
   12.4564  -20.4011   23.8955 C   0  0  0  0  0  0  0  0  0  0  0  0
   12.0084  -20.6604   22.6626 N   0  0  0  0  0  0  0  0  0  0  0  0
   10.7220  -20.9663   22.7426 C   0  0  0  0  0  0  0  0  0  0  0  0
   10.3687  -20.8963   24.0350 N   0  0  0  0  0  0  0  0  0  0  0  0
   10.7772  -19.1086   28.1820 C   0  0  0  0  0  0  0  0  0  0  0  0
   10.5000  -20.0317   28.9625 O   0  0  0  0  0  0  0  0  0  0  0  0
   11.2434  -17.9317   28.7310 O   0  0  0  0  0  0  0  0  0  0  0  0
  2  1  1  6
  3  2  1  0
  4  3  1  0
  5  4  2  0
  6  7  1  0
  6  5  1  0
  7 12  2  0
  8  7  1  0
  8  9  2  0
  9 10  1  0
 10 11  2  0
 12  4  1  0
 12 11  1  0
 13  2  1  0
 13 14  2  0
 15 13  1  0
 16 17  1  1
 16 15  1  0
 18 22  1  0
 18 17  1  0
 19 18  2  0
 20 19  1  0
 20 21  1  0
 21 22  2  0
 23 16  1  0
 24 23  2  0
 25 23  1  0
 26 27  1  6
 26 25  1  0
 27 28  1  0
 28 29  2  0
 29 30  1  0
 31 30  1  0
 32 28  1  0
 32 31  2  0
 33 35  1  0
 33 26  1  0
 34 33  2  0
M  END
$$$$
