WHH.pdb
     RDKit          3D

 35 38  0  0  1  0  0  0  0  0999 V2000
    6.1225  -17.3570   23.5448 N   0  0  0  0  0  0  0  0  0  0  0  0
    7.1499  -16.3558   23.5695 C   0  0  1  0  0  0  0  0  0  0  0  0
    7.6680  -16.1959   24.9711 C   0  0  0  0  0  0  0  0  0  0  0  0
    6.8549  -15.2086   25.7128 C   0  0  0  0  0  0  0  0  0  0  0  0
    5.6963  -15.5300   26.4342 C   0  0  0  0  0  0  0  0  0  0  0  0
    5.2169  -14.4199   27.0138 N   0  0  0  0  0  0  0  0  0  0  0  0
    6.0289  -13.4004   26.6872 C   0  0  0  0  0  0  0  0  0  0  0  0
    5.9623  -12.0519   27.0287 C   0  0  0  0  0  0  0  0  0  0  0  0
    6.9378  -11.1913   26.5438 C   0  0  0  0  0  0  0  0  0  0  0  0
    7.9534  -11.6254   25.7471 C   0  0  0  0  0  0  0  0  0  0  0  0
    7.9920  -12.9706   25.4259 C   0  0  0  0  0  0  0  0  0  0  0  0
    7.0502  -13.8585   25.8829 C   0  0  0  0  0  0  0  0  0  0  0  0
    8.3004  -16.7538   22.6925 C   0  0  0  0  0  0  0  0  0  0  0  0
    8.5022  -17.9478   22.3526 O   0  0  0  0  0  0  0  0  0  0  0  0
    9.2143  -15.7761   22.2104 N   0  0  0  0  0  0  0  0  0  0  0  0
   10.3922  -16.1314   21.4813 C   0  0  1  0  0  0  0  0  0  0  0  0
   10.7980  -14.9200   20.6366 C   0  0  0  0  0  0  0  0  0  0  0  0
    9.7107  -14.5270   19.6925 C   0  0  0  0  0  0  0  0  0  0  0  0
    8.5602  -15.2269   19.4270 C   0  0  0  0  0  0  0  0  0  0  0  0
    7.8697  -14.5145   18.5233 N   0  0  0  0  0  0  0  0  0  0  0  0
    8.5374  -13.3965   18.2093 C   0  0  0  0  0  0  0  0  0  0  0  0
    9.6674  -13.4133   18.9329 N   0  0  0  0  0  0  0  0  0  0  0  0
   11.5372  -16.5158   22.3399 C   0  0  0  0  0  0  0  0  0  0  0  0
   12.6996  -16.6629   21.8400 O   0  0  0  0  0  0  0  0  0  0  0  0
   11.4228  -16.7372   23.7334 N   0  0  0  0  0  0  0  0  0  0  0  0
   12.5666  -17.1065   24.5845 C   0  0  1  0  0  0  0  0  0  0  0  0
   12.1071  -17.2098   26.0207 C   0  0  0  0  0  0  0  0  0  0  0  0
   11.5409  -15.9363   26.4688 C   0  0  0  0  0  0  0  0  0  0  0  0
   11.5846  -14.7645   25.6957 C   0  0  0  0  0  0  0  0  0  0  0  0
   10.9891  -13.7740   26.3682 N   0  0  0  0  0  0  0  0  0  0  0  0
   10.5682  -14.2530   27.5293 C   0  0  0  0  0  0  0  0  0  0  0  0
   10.9049  -15.5508   27.5780 N   0  0  0  0  0  0  0  0  0  0  0  0
   12.9671  -18.4468   24.1286 C   0  0  0  0  0  0  0  0  0  0  0  0
   13.9852  -19.0085   24.5600 O   0  0  0  0  0  0  0  0  0  0  0  0
   12.2127  -19.1291   23.1963 O   0  0  0  0  0  0  0  0  0  0  0  0
  2  1  1  1
  3  2  1  0
  4  3  1  0
  5  4  2  0
  6  7  1  0
  6  5  1  0
  7 12  2  0
  8  7  1  0
  8  9  2  0
  9 10  1  0
 10 11  2  0
 12  4  1  0
 12 11  1  0
 13  2  1  0
 13 14  2  0
 15 13  1  0
 16 17  1  1
 16 15  1  0
 18 22  1  0
 18 17  1  0
 19 18  2  0
 20 19  1  0
 20 21  1  0
 21 22  2  0
 23 16  1  0
 24 23  2  0
 25 23  1  0
 26 27  1  1
 26 25  1  0
 27 28  1  0
 28 29  2  0
 29 30  1  0
 31 30  1  0
 32 28  1  0
 32 31  2  0
 33 35  1  0
 33 26  1  0
 34 33  2  0
M  END
$$$$
