WHH.pdb
     RDKit          3D

 35 38  0  0  1  0  0  0  0  0999 V2000
    5.8573  -17.1267   23.9822 N   0  0  0  0  0  0  0  0  0  0  0  0
    7.0444  -16.3653   23.7187 C   0  0  1  0  0  0  0  0  0  0  0  0
    7.6066  -15.8402   25.0097 C   0  0  0  0  0  0  0  0  0  0  0  0
    6.8050  -14.6964   25.4947 C   0  0  0  0  0  0  0  0  0  0  0  0
    5.7231  -14.8154   26.3787 C   0  0  0  0  0  0  0  0  0  0  0  0
    5.2353  -13.5948   26.6437 N   0  0  0  0  0  0  0  0  0  0  0  0
    5.9676  -12.7002   25.9591 C   0  0  0  0  0  0  0  0  0  0  0  0
    5.8605  -11.3134   25.8903 C   0  0  0  0  0  0  0  0  0  0  0  0
    6.7515  -10.6137   25.0878 C   0  0  0  0  0  0  0  0  0  0  0  0
    7.7228  -11.2414   24.3686 C   0  0  0  0  0  0  0  0  0  0  0  0
    7.8035  -12.6197   24.4582 C   0  0  0  0  0  0  0  0  0  0  0  0
    6.9453  -13.3530   25.2393 C   0  0  0  0  0  0  0  0  0  0  0  0
    8.0922  -17.2222   23.0714 C   0  0  0  0  0  0  0  0  0  0  0  0
    8.2560  -18.4299   23.3820 O   0  0  0  0  0  0  0  0  0  0  0  0
    8.9473  -16.6858   22.0690 N   0  0  0  0  0  0  0  0  0  0  0  0
   10.3402  -17.0045   22.0086 C   0  0  1  0  0  0  0  0  0  0  0  0
   10.9700  -16.1274   20.9226 C   0  0  0  0  0  0  0  0  0  0  0  0
   10.3527  -16.3867   19.5886 C   0  0  0  0  0  0  0  0  0  0  0  0
    9.3579  -17.2889   19.3049 C   0  0  0  0  0  0  0  0  0  0  0  0
    9.1075  -17.1931   17.9900 N   0  0  0  0  0  0  0  0  0  0  0  0
    9.9026  -16.2691   17.4350 C   0  0  0  0  0  0  0  0  0  0  0  0
   10.6643  -15.7792   18.4254 N   0  0  0  0  0  0  0  0  0  0  0  0
   11.0643  -16.7769   23.2813 C   0  0  0  0  0  0  0  0  0  0  0  0
   11.1403  -15.6080   23.7818 O   0  0  0  0  0  0  0  0  0  0  0  0
   11.7007  -17.8114   24.0083 N   0  0  0  0  0  0  0  0  0  0  0  0
   12.0992  -17.6735   25.4195 C   0  0  1  0  0  0  0  0  0  0  0  0
   10.9443  -18.0795   26.3060 C   0  0  0  0  0  0  0  0  0  0  0  0
   11.3507  -18.0670   27.7123 C   0  0  0  0  0  0  0  0  0  0  0  0
   12.0453  -16.9966   28.2992 C   0  0  0  0  0  0  0  0  0  0  0  0
   12.2732  -17.2761   29.5868 N   0  0  0  0  0  0  0  0  0  0  0  0
   11.7604  -18.4684   29.8513 C   0  0  0  0  0  0  0  0  0  0  0  0
   11.2098  -18.9327   28.7194 N   0  0  0  0  0  0  0  0  0  0  0  0
   13.1900  -18.6430   25.6065 C   0  0  0  0  0  0  0  0  0  0  0  0
   13.3709  -19.5854   24.8209 O   0  0  0  0  0  0  0  0  0  0  0  0
   14.0566  -18.5318   26.6744 O   0  0  0  0  0  0  0  0  0  0  0  0
  2  1  1  1
  3  2  1  0
  4  3  1  0
  5  4  2  0
  6  7  1  0
  6  5  1  0
  7 12  2  0
  8  7  1  0
  8  9  2  0
  9 10  1  0
 10 11  2  0
 12  4  1  0
 12 11  1  0
 13  2  1  0
 13 14  2  0
 15 13  1  0
 16 17  1  6
 16 15  1  0
 18 22  1  0
 18 17  1  0
 19 18  2  0
 20 19  1  0
 20 21  1  0
 21 22  2  0
 23 16  1  0
 24 23  2  0
 25 23  1  0
 26 27  1  1
 26 25  1  0
 27 28  1  0
 28 29  2  0
 29 30  1  0
 31 30  1  0
 32 28  1  0
 32 31  2  0
 33 35  1  0
 33 26  1  0
 34 33  2  0
M  END
$$$$
