WHH.pdb
     RDKit          3D

 35 38  0  0  1  0  0  0  0  0999 V2000
    7.7697  -17.7256   25.8769 N   0  0  0  0  0  0  0  0  0  0  0  0
    7.7166  -16.8623   24.7322 C   0  0  1  0  0  0  0  0  0  0  0  0
    8.8291  -15.8545   24.8056 C   0  0  0  0  0  0  0  0  0  0  0  0
    8.5821  -14.8914   25.8999 C   0  0  0  0  0  0  0  0  0  0  0  0
    9.1051  -15.0236   27.1942 C   0  0  0  0  0  0  0  0  0  0  0  0
    8.7216  -13.9724   27.9330 N   0  0  0  0  0  0  0  0  0  0  0  0
    7.9712  -13.1735   27.1558 C   0  0  0  0  0  0  0  0  0  0  0  0
    7.3349  -11.9704   27.4509 C   0  0  0  0  0  0  0  0  0  0  0  0
    6.6017  -11.3407   26.4542 C   0  0  0  0  0  0  0  0  0  0  0  0
    6.4870  -11.8631   25.2018 C   0  0  0  0  0  0  0  0  0  0  0  0
    7.1309  -13.0594   24.9398 C   0  0  0  0  0  0  0  0  0  0  0  0
    7.8675  -13.7171   25.8933 C   0  0  0  0  0  0  0  0  0  0  0  0
    7.8863  -17.6487   23.4658 C   0  0  0  0  0  0  0  0  0  0  0  0
    8.3375  -18.8226   23.4612 O   0  0  0  0  0  0  0  0  0  0  0  0
    7.5360  -17.0807   22.2094 N   0  0  0  0  0  0  0  0  0  0  0  0
    7.7663  -17.7659   20.9754 C   0  0  1  0  0  0  0  0  0  0  0  0
    6.5334  -17.5561   20.0913 C   0  0  0  0  0  0  0  0  0  0  0  0
    5.3023  -18.0989   20.7377 C   0  0  0  0  0  0  0  0  0  0  0  0
    4.9937  -19.4214   20.9368 C   0  0  0  0  0  0  0  0  0  0  0  0
    3.7997  -19.4558   21.5484 N   0  0  0  0  0  0  0  0  0  0  0  0
    3.3446  -18.2110   21.7422 C   0  0  0  0  0  0  0  0  0  0  0  0
    4.2749  -17.3842   21.2406 N   0  0  0  0  0  0  0  0  0  0  0  0
    8.9630  -17.2935   20.2401 C   0  0  0  0  0  0  0  0  0  0  0  0
    9.2642  -17.7917   19.1071 O   0  0  0  0  0  0  0  0  0  0  0  0
    9.8271  -16.2849   20.7298 N   0  0  0  0  0  0  0  0  0  0  0  0
   10.9721  -15.7661   19.9623 C   0  0  1  0  0  0  0  0  0  0  0  0
   10.8926  -14.2578   19.9058 C   0  0  0  0  0  0  0  0  0  0  0  0
    9.6722  -13.8360   19.2161 C   0  0  0  0  0  0  0  0  0  0  0  0
    9.2454  -14.3982   18.0018 C   0  0  0  0  0  0  0  0  0  0  0  0
    8.1053  -13.8106   17.6241 N   0  0  0  0  0  0  0  0  0  0  0  0
    7.7830  -12.9033   18.5338 C   0  0  0  0  0  0  0  0  0  0  0  0
    8.7302  -12.9278   19.4837 N   0  0  0  0  0  0  0  0  0  0  0  0
   12.1600  -16.1385   20.7465 C   0  0  0  0  0  0  0  0  0  0  0  0
   12.0729  -16.7902   21.7981 O   0  0  0  0  0  0  0  0  0  0  0  0
   13.4231  -15.7704   20.3307 O   0  0  0  0  0  0  0  0  0  0  0  0
  2  1  1  1
  3  2  1  0
  4  3  1  0
  5  4  2  0
  6  7  1  0
  6  5  1  0
  7 12  2  0
  8  7  1  0
  8  9  2  0
  9 10  1  0
 10 11  2  0
 12  4  1  0
 12 11  1  0
 13  2  1  0
 13 14  2  0
 15 13  1  0
 16 17  1  6
 16 15  1  0
 18 22  1  0
 18 17  1  0
 19 18  2  0
 20 19  1  0
 20 21  1  0
 21 22  2  0
 23 16  1  0
 24 23  2  0
 25 23  1  0
 26 27  1  1
 26 25  1  0
 27 28  1  0
 28 29  2  0
 29 30  1  0
 31 30  1  0
 32 28  1  0
 32 31  2  0
 33 35  1  0
 33 26  1  0
 34 33  2  0
M  END
$$$$
