WHH.pdb
     RDKit          3D

 35 38  0  0  1  0  0  0  0  0999 V2000
    6.3667  -17.6850   24.9043 N   0  0  0  0  0  0  0  0  0  0  0  0
    6.7092  -16.4428   24.2732 C   0  0  1  0  0  0  0  0  0  0  0  0
    7.8591  -15.8050   25.0008 C   0  0  0  0  0  0  0  0  0  0  0  0
    7.3642  -14.9570   26.1063 C   0  0  0  0  0  0  0  0  0  0  0  0
    6.8607  -15.4588   27.3149 C   0  0  0  0  0  0  0  0  0  0  0  0
    6.5283  -14.4333   28.1124 N   0  0  0  0  0  0  0  0  0  0  0  0
    6.8015  -13.2938   27.4549 C   0  0  0  0  0  0  0  0  0  0  0  0
    6.6313  -11.9675   27.8437 C   0  0  0  0  0  0  0  0  0  0  0  0
    6.9906  -10.9606   26.9580 C   0  0  0  0  0  0  0  0  0  0  0  0
    7.5022  -11.2310   25.7252 C   0  0  0  0  0  0  0  0  0  0  0  0
    7.6592  -12.5585   25.3685 C   0  0  0  0  0  0  0  0  0  0  0  0
    7.3190  -13.5871   26.2115 C   0  0  0  0  0  0  0  0  0  0  0  0
    7.1285  -16.6680   22.8503 C   0  0  0  0  0  0  0  0  0  0  0  0
    7.6969  -17.7266   22.4787 O   0  0  0  0  0  0  0  0  0  0  0  0
    6.8921  -15.6737   21.8607 N   0  0  0  0  0  0  0  0  0  0  0  0
    7.6529  -15.6096   20.6515 C   0  0  1  0  0  0  0  0  0  0  0  0
    7.3038  -14.2919   19.9532 C   0  0  0  0  0  0  0  0  0  0  0  0
    7.7647  -14.2903   18.5336 C   0  0  0  0  0  0  0  0  0  0  0  0
    8.5521  -15.2352   17.9242 C   0  0  0  0  0  0  0  0  0  0  0  0
    8.7205  -14.8416   16.6523 N   0  0  0  0  0  0  0  0  0  0  0  0
    8.0725  -13.6894   16.4362 C   0  0  0  0  0  0  0  0  0  0  0  0
    7.4882  -13.3587   17.5982 N   0  0  0  0  0  0  0  0  0  0  0  0
    9.1190  -15.6615   20.8606 C   0  0  0  0  0  0  0  0  0  0  0  0
    9.6314  -15.2506   21.9520 O   0  0  0  0  0  0  0  0  0  0  0  0
   10.0243  -16.1583   19.8923 N   0  0  0  0  0  0  0  0  0  0  0  0
   11.3887  -16.6039   20.2224 C   0  0  1  0  0  0  0  0  0  0  0  0
   11.3247  -17.9665   20.8735 C   0  0  0  0  0  0  0  0  0  0  0  0
   11.3478  -17.8376   22.3316 C   0  0  0  0  0  0  0  0  0  0  0  0
   11.4255  -16.5994   22.9898 C   0  0  0  0  0  0  0  0  0  0  0  0
   11.4273  -16.8053   24.3110 N   0  0  0  0  0  0  0  0  0  0  0  0
   11.3549  -18.1098   24.5293 C   0  0  0  0  0  0  0  0  0  0  0  0
   11.3076  -18.7184   23.3346 N   0  0  0  0  0  0  0  0  0  0  0  0
   12.0715  -16.7412   18.9264 C   0  0  0  0  0  0  0  0  0  0  0  0
   11.4690  -16.6058   17.8509 O   0  0  0  0  0  0  0  0  0  0  0  0
   13.4199  -17.0276   18.8668 O   0  0  0  0  0  0  0  0  0  0  0  0
  2  1  1  1
  3  2  1  0
  4  3  1  0
  5  4  2  0
  6  7  1  0
  6  5  1  0
  7 12  2  0
  8  7  1  0
  8  9  2  0
  9 10  1  0
 10 11  2  0
 12  4  1  0
 12 11  1  0
 13  2  1  0
 13 14  2  0
 15 13  1  0
 16 17  1  1
 16 15  1  0
 18 22  1  0
 18 17  1  0
 19 18  2  0
 20 19  1  0
 20 21  1  0
 21 22  2  0
 23 16  1  0
 24 23  2  0
 25 23  1  0
 26 27  1  6
 26 25  1  0
 27 28  1  0
 28 29  2  0
 29 30  1  0
 31 30  1  0
 32 28  1  0
 32 31  2  0
 33 35  1  0
 33 26  1  0
 34 33  2  0
M  END
$$$$
