WHH.pdb
     RDKit          3D

 35 38  0  0  1  0  0  0  0  0999 V2000
    6.2934  -16.8498   23.7168 N   0  0  0  0  0  0  0  0  0  0  0  0
    7.1088  -16.2854   22.6800 C   0  0  1  0  0  0  0  0  0  0  0  0
    7.4418  -14.8592   23.0172 C   0  0  0  0  0  0  0  0  0  0  0  0
    6.9670  -14.5256   24.3771 C   0  0  0  0  0  0  0  0  0  0  0  0
    6.3502  -15.4431   25.2396 C   0  0  0  0  0  0  0  0  0  0  0  0
    6.0712  -14.8352   26.4018 N   0  0  0  0  0  0  0  0  0  0  0  0
    6.4880  -13.5610   26.3114 C   0  0  0  0  0  0  0  0  0  0  0  0
    6.4220  -12.5245   27.2392 C   0  0  0  0  0  0  0  0  0  0  0  0
    6.9248  -11.2795   26.8865 C   0  0  0  0  0  0  0  0  0  0  0  0
    7.4780  -11.0431   25.6647 C   0  0  0  0  0  0  0  0  0  0  0  0
    7.5290  -12.0930   24.7651 C   0  0  0  0  0  0  0  0  0  0  0  0
    7.0455  -13.3410   25.0701 C   0  0  0  0  0  0  0  0  0  0  0  0
    8.3970  -17.0429   22.5459 C   0  0  0  0  0  0  0  0  0  0  0  0
    8.5631  -17.9332   21.6732 O   0  0  0  0  0  0  0  0  0  0  0  0
    9.4889  -16.7728   23.4168 N   0  0  0  0  0  0  0  0  0  0  0  0
   10.8389  -17.0833   23.0612 C   0  0  1  0  0  0  0  0  0  0  0  0
   11.1371  -16.3942   21.7264 C   0  0  0  0  0  0  0  0  0  0  0  0
   10.6540  -17.2101   20.5736 C   0  0  0  0  0  0  0  0  0  0  0  0
   10.2960  -18.5351   20.5974 C   0  0  0  0  0  0  0  0  0  0  0  0
    9.9256  -18.8617   19.3496 N   0  0  0  0  0  0  0  0  0  0  0  0
   10.0355  -17.7985   18.5424 C   0  0  0  0  0  0  0  0  0  0  0  0
   10.4839  -16.7885   19.3038 N   0  0  0  0  0  0  0  0  0  0  0  0
   11.8404  -16.6385   24.0587 C   0  0  0  0  0  0  0  0  0  0  0  0
   12.3967  -15.4975   23.9519 O   0  0  0  0  0  0  0  0  0  0  0  0
   12.2348  -17.4256   25.1672 N   0  0  0  0  0  0  0  0  0  0  0  0
   13.2569  -16.9938   26.1357 C   0  0  1  0  0  0  0  0  0  0  0  0
   13.0243  -17.6970   27.4533 C   0  0  0  0  0  0  0  0  0  0  0  0
   11.7883  -17.2198   28.0759 C   0  0  0  0  0  0  0  0  0  0  0  0
   11.2443  -15.9498   27.8234 C   0  0  0  0  0  0  0  0  0  0  0  0
   10.1202  -15.8061   28.5329 N   0  0  0  0  0  0  0  0  0  0  0  0
    9.9191  -16.9178   29.2245 C   0  0  0  0  0  0  0  0  0  0  0  0
   10.9260  -17.7582   28.9421 N   0  0  0  0  0  0  0  0  0  0  0  0
   14.5354  -17.4634   25.5792 C   0  0  0  0  0  0  0  0  0  0  0  0
   14.5970  -18.0652   24.4966 O   0  0  0  0  0  0  0  0  0  0  0  0
   15.7198  -17.2454   26.2525 O   0  0  0  0  0  0  0  0  0  0  0  0
  2  1  1  1
  3  2  1  0
  4  3  1  0
  5  4  2  0
  6  7  1  0
  6  5  1  0
  7 12  2  0
  8  7  1  0
  8  9  2  0
  9 10  1  0
 10 11  2  0
 12  4  1  0
 12 11  1  0
 13  2  1  0
 13 14  2  0
 15 13  1  0
 16 17  1  6
 16 15  1  0
 18 22  1  0
 18 17  1  0
 19 18  2  0
 20 19  1  0
 20 21  1  0
 21 22  2  0
 23 16  1  0
 24 23  2  0
 25 23  1  0
 26 27  1  1
 26 25  1  0
 27 28  1  0
 28 29  2  0
 29 30  1  0
 31 30  1  0
 32 28  1  0
 32 31  2  0
 33 35  1  0
 33 26  1  0
 34 33  2  0
M  END
$$$$
