WHH.pdb
     RDKit          3D

 35 38  0  0  1  0  0  0  0  0999 V2000
    6.0893  -17.8054   23.6575 N   0  0  0  0  0  0  0  0  0  0  0  0
    6.9636  -16.6729   23.7650 C   0  0  1  0  0  0  0  0  0  0  0  0
    7.3510  -16.4665   25.2024 C   0  0  0  0  0  0  0  0  0  0  0  0
    6.5749  -15.3545   25.7917 C   0  0  0  0  0  0  0  0  0  0  0  0
    5.3897  -15.5253   26.5214 C   0  0  0  0  0  0  0  0  0  0  0  0
    4.9559  -14.3283   26.9420 N   0  0  0  0  0  0  0  0  0  0  0  0
    5.8225  -13.3987   26.5060 C   0  0  0  0  0  0  0  0  0  0  0  0
    5.8167  -12.0157   26.6694 C   0  0  0  0  0  0  0  0  0  0  0  0
    6.8415  -11.2716   26.1007 C   0  0  0  0  0  0  0  0  0  0  0  0
    7.8479  -11.8522   25.3903 C   0  0  0  0  0  0  0  0  0  0  0  0
    7.8256  -13.2281   25.2458 C   0  0  0  0  0  0  0  0  0  0  0  0
    6.8336  -14.0044   25.7912 C   0  0  0  0  0  0  0  0  0  0  0  0
    8.2191  -16.8943   22.9739 C   0  0  0  0  0  0  0  0  0  0  0  0
    8.6030  -18.0426   22.6335 O   0  0  0  0  0  0  0  0  0  0  0  0
    9.0278  -15.7932   22.5775 N   0  0  0  0  0  0  0  0  0  0  0  0
   10.2950  -15.9723   21.9393 C   0  0  1  0  0  0  0  0  0  0  0  0
   10.6531  -14.6566   21.2418 C   0  0  0  0  0  0  0  0  0  0  0  0
    9.5932  -14.2489   20.2732 C   0  0  0  0  0  0  0  0  0  0  0  0
    8.4439  -14.9375   19.9747 C   0  0  0  0  0  0  0  0  0  0  0  0
    7.7822  -14.2140   19.0584 N   0  0  0  0  0  0  0  0  0  0  0  0
    8.4667  -13.0998   18.7681 C   0  0  0  0  0  0  0  0  0  0  0  0
    9.5781  -13.1304   19.5196 N   0  0  0  0  0  0  0  0  0  0  0  0
   11.3914  -16.3293   22.8701 C   0  0  0  0  0  0  0  0  0  0  0  0
   12.6077  -16.2322   22.5041 O   0  0  0  0  0  0  0  0  0  0  0  0
   11.1702  -16.7870   24.1912 N   0  0  0  0  0  0  0  0  0  0  0  0
   12.2639  -17.1244   25.1180 C   0  0  1  0  0  0  0  0  0  0  0  0
   11.7163  -17.2162   26.5238 C   0  0  0  0  0  0  0  0  0  0  0  0
   11.2853  -15.8976   26.9913 C   0  0  0  0  0  0  0  0  0  0  0  0
   10.4419  -15.7160   28.0996 C   0  0  0  0  0  0  0  0  0  0  0  0
   10.2293  -14.4080   28.2782 N   0  0  0  0  0  0  0  0  0  0  0  0
   10.8929  -13.7464   27.3420 C   0  0  0  0  0  0  0  0  0  0  0  0
   11.5224  -14.6505   26.5763 N   0  0  0  0  0  0  0  0  0  0  0  0
   12.7148  -18.4635   24.7080 C   0  0  0  0  0  0  0  0  0  0  0  0
   13.7018  -19.0091   25.2241 O   0  0  0  0  0  0  0  0  0  0  0  0
   12.0448  -19.1628   23.7252 O   0  0  0  0  0  0  0  0  0  0  0  0
  2  1  1  1
  3  2  1  0
  4  3  1  0
  5  4  2  0
  6  7  1  0
  6  5  1  0
  7 12  2  0
  8  7  1  0
  8  9  2  0
  9 10  1  0
 10 11  2  0
 12  4  1  0
 12 11  1  0
 13  2  1  0
 13 14  2  0
 15 13  1  0
 16 17  1  1
 16 15  1  0
 18 22  1  0
 18 17  1  0
 19 18  2  0
 20 19  1  0
 20 21  1  0
 21 22  2  0
 23 16  1  0
 24 23  2  0
 25 23  1  0
 26 27  1  1
 26 25  1  0
 27 28  1  0
 28 29  2  0
 29 30  1  0
 31 30  1  0
 32 28  1  0
 32 31  2  0
 33 35  1  0
 33 26  1  0
 34 33  2  0
M  END
$$$$
