WHH.pdb
     RDKit          3D

 35 38  0  0  1  0  0  0  0  0999 V2000
    8.3327  -16.4187   20.5071 N   0  0  0  0  0  0  0  0  0  0  0  0
    8.3822  -16.0045   21.8798 C   0  0  1  0  0  0  0  0  0  0  0  0
    7.0856  -15.3448   22.2571 C   0  0  0  0  0  0  0  0  0  0  0  0
    7.3362  -14.0097   22.8409 C   0  0  0  0  0  0  0  0  0  0  0  0
    7.9485  -12.9540   22.1504 C   0  0  0  0  0  0  0  0  0  0  0  0
    7.9970  -11.8767   22.9474 N   0  0  0  0  0  0  0  0  0  0  0  0
    7.4374  -12.2078   24.1232 C   0  0  0  0  0  0  0  0  0  0  0  0
    7.2522  -11.4500   25.2769 C   0  0  0  0  0  0  0  0  0  0  0  0
    6.6453  -12.0435   26.3754 C   0  0  0  0  0  0  0  0  0  0  0  0
    6.2278  -13.3397   26.3579 C   0  0  0  0  0  0  0  0  0  0  0  0
    6.4258  -14.0660   25.1971 C   0  0  0  0  0  0  0  0  0  0  0  0
    7.0202  -13.5210   24.0863 C   0  0  0  0  0  0  0  0  0  0  0  0
    8.5818  -17.1851   22.7839 C   0  0  0  0  0  0  0  0  0  0  0  0
    7.7785  -18.1525   22.8102 O   0  0  0  0  0  0  0  0  0  0  0  0
    9.7054  -17.2478   23.6542 N   0  0  0  0  0  0  0  0  0  0  0  0
    9.8447  -18.2724   24.6421 C   0  0  1  0  0  0  0  0  0  0  0  0
   10.1119  -19.5903   23.9090 C   0  0  0  0  0  0  0  0  0  0  0  0
   10.5997  -19.3497   22.5190 C   0  0  0  0  0  0  0  0  0  0  0  0
   10.8648  -18.1337   21.9400 C   0  0  0  0  0  0  0  0  0  0  0  0
   11.2787  -18.3798   20.6874 N   0  0  0  0  0  0  0  0  0  0  0  0
   11.2851  -19.6987   20.4543 C   0  0  0  0  0  0  0  0  0  0  0  0
   10.8662  -20.2864   21.5857 N   0  0  0  0  0  0  0  0  0  0  0  0
   10.9459  -18.0334   25.6045 C   0  0  0  0  0  0  0  0  0  0  0  0
   12.1277  -17.8005   25.1900 O   0  0  0  0  0  0  0  0  0  0  0  0
   10.7661  -18.0448   27.0086 N   0  0  0  0  0  0  0  0  0  0  0  0
   11.8744  -17.8647   27.9616 C   0  0  1  0  0  0  0  0  0  0  0  0
   11.3445  -17.2368   29.2303 C   0  0  0  0  0  0  0  0  0  0  0  0
   10.6051  -16.0111   28.9235 C   0  0  0  0  0  0  0  0  0  0  0  0
   10.6780  -15.3639   27.6792 C   0  0  0  0  0  0  0  0  0  0  0  0
    9.8963  -14.2793   27.7034 N   0  0  0  0  0  0  0  0  0  0  0  0
    9.3291  -14.2013   28.8979 C   0  0  0  0  0  0  0  0  0  0  0  0
    9.7618  -15.2454   29.6208 N   0  0  0  0  0  0  0  0  0  0  0  0
   12.3352  -19.2262   28.2759 C   0  0  0  0  0  0  0  0  0  0  0  0
   11.8463  -20.2259   27.7285 O   0  0  0  0  0  0  0  0  0  0  0  0
   13.3382  -19.4353   29.1999 O   0  0  0  0  0  0  0  0  0  0  0  0
  2  1  1  6
  3  2  1  0
  4  3  1  0
  5  4  2  0
  6  7  1  0
  6  5  1  0
  7 12  2  0
  8  7  1  0
  8  9  2  0
  9 10  1  0
 10 11  2  0
 12  4  1  0
 12 11  1  0
 13  2  1  0
 13 14  2  0
 15 13  1  0
 16 17  1  6
 16 15  1  0
 18 22  1  0
 18 17  1  0
 19 18  2  0
 20 19  1  0
 20 21  1  0
 21 22  2  0
 23 16  1  0
 24 23  2  0
 25 23  1  0
 26 27  1  1
 26 25  1  0
 27 28  1  0
 28 29  2  0
 29 30  1  0
 31 30  1  0
 32 28  1  0
 32 31  2  0
 33 35  1  0
 33 26  1  0
 34 33  2  0
M  END
$$$$
