WHH.pdb
     RDKit          3D

 35 38  0  0  1  0  0  0  0  0999 V2000
    6.3223  -17.4693   24.6580 N   0  0  0  0  0  0  0  0  0  0  0  0
    6.9690  -17.0908   23.4344 C   0  0  1  0  0  0  0  0  0  0  0  0
    6.8981  -15.5992   23.2642 C   0  0  0  0  0  0  0  0  0  0  0  0
    6.7371  -14.9368   24.5762 C   0  0  0  0  0  0  0  0  0  0  0  0
    6.1784  -15.5552   25.7039 C   0  0  0  0  0  0  0  0  0  0  0  0
    6.2070  -14.6983   26.7349 N   0  0  0  0  0  0  0  0  0  0  0  0
    6.7641  -13.5537   26.3048 C   0  0  0  0  0  0  0  0  0  0  0  0
    7.0125  -12.3631   26.9832 C   0  0  0  0  0  0  0  0  0  0  0  0
    7.5999  -11.3114   26.2932 C   0  0  0  0  0  0  0  0  0  0  0  0
    7.9387  -11.4095   24.9778 C   0  0  0  0  0  0  0  0  0  0  0  0
    7.6794  -12.6052   24.3319 C   0  0  0  0  0  0  0  0  0  0  0  0
    7.1013  -13.6722   24.9735 C   0  0  0  0  0  0  0  0  0  0  0  0
    8.4160  -17.4868   23.4540 C   0  0  0  0  0  0  0  0  0  0  0  0
    8.8954  -18.2300   24.3483 O   0  0  0  0  0  0  0  0  0  0  0  0
    9.3057  -17.0259   22.4442 N   0  0  0  0  0  0  0  0  0  0  0  0
   10.6689  -17.4536   22.3800 C   0  0  1  0  0  0  0  0  0  0  0  0
   11.2912  -16.8326   21.1259 C   0  0  0  0  0  0  0  0  0  0  0  0
   10.7926  -17.4970   19.8857 C   0  0  0  0  0  0  0  0  0  0  0  0
   10.1113  -18.6860   19.8075 C   0  0  0  0  0  0  0  0  0  0  0  0
    9.8584  -18.9062   18.5081 N   0  0  0  0  0  0  0  0  0  0  0  0
   10.3517  -17.9062   17.7661 C   0  0  0  0  0  0  0  0  0  0  0  0
   10.9240  -17.0451   18.6217 N   0  0  0  0  0  0  0  0  0  0  0  0
   11.4786  -17.0587   23.5565 C   0  0  0  0  0  0  0  0  0  0  0  0
   11.6675  -15.8285   23.8279 O   0  0  0  0  0  0  0  0  0  0  0  0
   12.0785  -17.9926   24.4350 N   0  0  0  0  0  0  0  0  0  0  0  0
   12.9177  -17.5954   25.5783 C   0  0  1  0  0  0  0  0  0  0  0  0
   12.8810  -18.6840   26.6262 C   0  0  0  0  0  0  0  0  0  0  0  0
   11.6011  -18.6663   27.3367 C   0  0  0  0  0  0  0  0  0  0  0  0
   10.6504  -17.6450   27.1767 C   0  0  0  0  0  0  0  0  0  0  0  0
    9.5924  -17.9065   27.9514 N   0  0  0  0  0  0  0  0  0  0  0  0
    9.8189  -19.0408   28.5968 C   0  0  0  0  0  0  0  0  0  0  0  0
   11.0267  -19.4871   28.2198 N   0  0  0  0  0  0  0  0  0  0  0  0
   14.2850  -17.5154   25.0410 C   0  0  0  0  0  0  0  0  0  0  0  0
   14.5345  -17.7437   23.8478 O   0  0  0  0  0  0  0  0  0  0  0  0
   15.3450  -17.1789   25.8577 O   0  0  0  0  0  0  0  0  0  0  0  0
  2  1  1  1
  3  2  1  0
  4  3  1  0
  5  4  2  0
  6  7  1  0
  6  5  1  0
  7 12  2  0
  8  7  1  0
  8  9  2  0
  9 10  1  0
 10 11  2  0
 12  4  1  0
 12 11  1  0
 13  2  1  0
 13 14  2  0
 15 13  1  0
 16 17  1  6
 16 15  1  0
 18 22  1  0
 18 17  1  0
 19 18  2  0
 20 19  1  0
 20 21  1  0
 21 22  2  0
 23 16  1  0
 24 23  2  0
 25 23  1  0
 26 27  1  1
 26 25  1  0
 27 28  1  0
 28 29  2  0
 29 30  1  0
 31 30  1  0
 32 28  1  0
 32 31  2  0
 33 35  1  0
 33 26  1  0
 34 33  2  0
M  END
$$$$
