WHH.pdb
     RDKit          3D

 35 38  0  0  1  0  0  0  0  0999 V2000
    6.7826  -17.7544   24.6537 N   0  0  0  0  0  0  0  0  0  0  0  0
    7.6389  -16.6686   24.2713 C   0  0  1  0  0  0  0  0  0  0  0  0
    8.1095  -15.9384   25.4977 C   0  0  0  0  0  0  0  0  0  0  0  0
    7.0956  -14.9547   25.9338 C   0  0  0  0  0  0  0  0  0  0  0  0
    5.8134  -15.2977   26.3860 C   0  0  0  0  0  0  0  0  0  0  0  0
    5.1564  -14.1817   26.7335 N   0  0  0  0  0  0  0  0  0  0  0  0
    5.9742  -13.1375   26.5185 C   0  0  0  0  0  0  0  0  0  0  0  0
    5.7636  -11.7745   26.7120 C   0  0  0  0  0  0  0  0  0  0  0  0
    6.7857  -10.8894   26.3968 C   0  0  0  0  0  0  0  0  0  0  0  0
    7.9830  -11.3134   25.9057 C   0  0  0  0  0  0  0  0  0  0  0  0
    8.1615  -12.6734   25.7249 C   0  0  0  0  0  0  0  0  0  0  0  0
    7.1801  -13.5855   26.0235 C   0  0  0  0  0  0  0  0  0  0  0  0
    8.8476  -17.1770   23.5421 C   0  0  0  0  0  0  0  0  0  0  0  0
    9.4012  -18.2663   23.8403 O   0  0  0  0  0  0  0  0  0  0  0  0
    9.4145  -16.4296   22.4727 N   0  0  0  0  0  0  0  0  0  0  0  0
   10.7726  -16.6045   22.0600 C   0  0  1  0  0  0  0  0  0  0  0  0
   11.0122  -15.6910   20.8543 C   0  0  0  0  0  0  0  0  0  0  0  0
   12.3650  -15.9136   20.2641 C   0  0  0  0  0  0  0  0  0  0  0  0
   13.4681  -15.1101   20.4112 C   0  0  0  0  0  0  0  0  0  0  0  0
   14.4634  -15.6824   19.7164 N   0  0  0  0  0  0  0  0  0  0  0  0
   14.0329  -16.8115   19.1387 C   0  0  0  0  0  0  0  0  0  0  0  0
   12.7422  -16.9450   19.4810 N   0  0  0  0  0  0  0  0  0  0  0  0
   11.7664  -16.2757   23.1089 C   0  0  0  0  0  0  0  0  0  0  0  0
   11.6657  -15.1975   23.7798 O   0  0  0  0  0  0  0  0  0  0  0  0
   12.8620  -17.1125   23.4301 N   0  0  0  0  0  0  0  0  0  0  0  0
   13.8787  -16.7547   24.4339 C   0  0  1  0  0  0  0  0  0  0  0  0
   13.5625  -17.4544   25.7357 C   0  0  0  0  0  0  0  0  0  0  0  0
   12.7366  -16.5980   26.5887 C   0  0  0  0  0  0  0  0  0  0  0  0
   12.3627  -15.2925   26.2302 C   0  0  0  0  0  0  0  0  0  0  0  0
   11.6141  -14.7681   27.2061 N   0  0  0  0  0  0  0  0  0  0  0  0
   11.4913  -15.6707   28.1678 C   0  0  0  0  0  0  0  0  0  0  0  0
   12.1687  -16.7640   27.7860 N   0  0  0  0  0  0  0  0  0  0  0  0
   15.1420  -17.2978   23.9108 C   0  0  0  0  0  0  0  0  0  0  0  0
   16.2181  -17.1445   24.5079 O   0  0  0  0  0  0  0  0  0  0  0  0
   15.1688  -18.0039   22.7256 O   0  0  0  0  0  0  0  0  0  0  0  0
  2  1  1  1
  3  2  1  0
  4  3  1  0
  5  4  2  0
  6  7  1  0
  6  5  1  0
  7 12  2  0
  8  7  1  0
  8  9  2  0
  9 10  1  0
 10 11  2  0
 12  4  1  0
 12 11  1  0
 13  2  1  0
 13 14  2  0
 15 13  1  0
 16 17  1  6
 16 15  1  0
 18 22  1  0
 18 17  1  0
 19 18  2  0
 20 19  1  0
 20 21  1  0
 21 22  2  0
 23 16  1  0
 24 23  2  0
 25 23  1  0
 26 27  1  1
 26 25  1  0
 27 28  1  0
 28 29  2  0
 29 30  1  0
 31 30  1  0
 32 28  1  0
 32 31  2  0
 33 35  1  0
 33 26  1  0
 34 33  2  0
M  END
$$$$
