WHH.pdb
     RDKit          3D

 35 38  0  0  1  0  0  0  0  0999 V2000
    5.7962  -17.5177   23.1770 N   0  0  0  0  0  0  0  0  0  0  0  0
    6.7305  -16.4289   23.1641 C   0  0  1  0  0  0  0  0  0  0  0  0
    7.2085  -16.1548   24.5624 C   0  0  0  0  0  0  0  0  0  0  0  0
    6.4046  -15.0793   25.1813 C   0  0  0  0  0  0  0  0  0  0  0  0
    5.2288  -15.3006   25.9125 C   0  0  0  0  0  0  0  0  0  0  0  0
    4.7636  -14.1265   26.3632 N   0  0  0  0  0  0  0  0  0  0  0  0
    5.6013  -13.1628   25.9449 C   0  0  0  0  0  0  0  0  0  0  0  0
    5.5573  -11.7847   26.1408 C   0  0  0  0  0  0  0  0  0  0  0  0
    6.5576  -10.9988   25.5846 C   0  0  0  0  0  0  0  0  0  0  0  0
    7.5760  -11.5340   24.8560 C   0  0  0  0  0  0  0  0  0  0  0  0
    7.5918  -12.9061   24.6794 C   0  0  0  0  0  0  0  0  0  0  0  0
    6.6251  -13.7228   25.2112 C   0  0  0  0  0  0  0  0  0  0  0  0
    7.9266  -16.7655   22.3230 C   0  0  0  0  0  0  0  0  0  0  0  0
    8.3066  -17.9508   22.1422 O   0  0  0  0  0  0  0  0  0  0  0  0
    8.6806  -15.7366   21.6934 N   0  0  0  0  0  0  0  0  0  0  0  0
   10.0809  -15.8705   21.4354 C   0  0  1  0  0  0  0  0  0  0  0  0
   10.5252  -14.6407   20.6380 C   0  0  0  0  0  0  0  0  0  0  0  0
    9.5970  -14.3650   19.5021 C   0  0  0  0  0  0  0  0  0  0  0  0
    8.5598  -15.1574   19.0775 C   0  0  0  0  0  0  0  0  0  0  0  0
    7.9931  -14.5326   18.0338 N   0  0  0  0  0  0  0  0  0  0  0  0
    8.6300  -13.3810   17.7842 C   0  0  0  0  0  0  0  0  0  0  0  0
    9.6141  -13.2869   18.6917 N   0  0  0  0  0  0  0  0  0  0  0  0
   10.9107  -15.9673   22.6594 C   0  0  0  0  0  0  0  0  0  0  0  0
   12.1714  -16.1289   22.5747 O   0  0  0  0  0  0  0  0  0  0  0  0
   10.3766  -15.8870   23.9679 N   0  0  0  0  0  0  0  0  0  0  0  0
   11.1968  -16.0438   25.1811 C   0  0  1  0  0  0  0  0  0  0  0  0
   10.3288  -15.8348   26.4006 C   0  0  0  0  0  0  0  0  0  0  0  0
   11.1389  -15.8842   27.6189 C   0  0  0  0  0  0  0  0  0  0  0  0
   11.8779  -14.7876   28.0923 C   0  0  0  0  0  0  0  0  0  0  0  0
   12.5094  -15.1382   29.2175 N   0  0  0  0  0  0  0  0  0  0  0  0
   12.2118  -16.4007   29.4862 C   0  0  0  0  0  0  0  0  0  0  0  0
   11.3892  -16.8372   28.5204 N   0  0  0  0  0  0  0  0  0  0  0  0
   11.6424  -17.4459   25.1643 C   0  0  0  0  0  0  0  0  0  0  0  0
   10.8953  -18.3665   24.8004 O   0  0  0  0  0  0  0  0  0  0  0  0
   12.9212  -17.7840   25.5569 O   0  0  0  0  0  0  0  0  0  0  0  0
  2  1  1  1
  3  2  1  0
  4  3  1  0
  5  4  2  0
  6  7  1  0
  6  5  1  0
  7 12  2  0
  8  7  1  0
  8  9  2  0
  9 10  1  0
 10 11  2  0
 12  4  1  0
 12 11  1  0
 13  2  1  0
 13 14  2  0
 15 13  1  0
 16 17  1  1
 16 15  1  0
 18 22  1  0
 18 17  1  0
 19 18  2  0
 20 19  1  0
 20 21  1  0
 21 22  2  0
 23 16  1  0
 24 23  2  0
 25 23  1  0
 26 27  1  1
 26 25  1  0
 27 28  1  0
 28 29  2  0
 29 30  1  0
 31 30  1  0
 32 28  1  0
 32 31  2  0
 33 35  1  0
 33 26  1  0
 34 33  2  0
M  END
$$$$
