WHH.pdb
     RDKit          3D

 35 38  0  0  1  0  0  0  0  0999 V2000
    6.4922  -17.6901   24.1265 N   0  0  0  0  0  0  0  0  0  0  0  0
    7.7910  -17.0949   24.2589 C   0  0  1  0  0  0  0  0  0  0  0  0
    7.9872  -16.6153   25.6696 C   0  0  0  0  0  0  0  0  0  0  0  0
    7.1462  -15.4281   25.9330 C   0  0  0  0  0  0  0  0  0  0  0  0
    5.9692  -15.4539   26.6947 C   0  0  0  0  0  0  0  0  0  0  0  0
    5.4658  -14.2132   26.7685 N   0  0  0  0  0  0  0  0  0  0  0  0
    6.2802  -13.3958   26.0800 C   0  0  0  0  0  0  0  0  0  0  0  0
    6.1948  -12.0250   25.8500 C   0  0  0  0  0  0  0  0  0  0  0  0
    7.1783  -11.4137   25.0842 C   0  0  0  0  0  0  0  0  0  0  0  0
    8.2196  -12.1127   24.5533 C   0  0  0  0  0  0  0  0  0  0  0  0
    8.2764  -13.4729   24.7998 C   0  0  0  0  0  0  0  0  0  0  0  0
    7.3275  -14.1198   25.5518 C   0  0  0  0  0  0  0  0  0  0  0  0
    8.8670  -18.0955   23.9556 C   0  0  0  0  0  0  0  0  0  0  0  0
    8.7759  -19.3023   24.2982 O   0  0  0  0  0  0  0  0  0  0  0  0
   10.0439  -17.7034   23.2592 N   0  0  0  0  0  0  0  0  0  0  0  0
   11.0787  -18.6347   22.9318 C   0  0  1  0  0  0  0  0  0  0  0  0
   11.7556  -18.1437   21.6487 C   0  0  0  0  0  0  0  0  0  0  0  0
   10.7529  -17.8561   20.5810 C   0  0  0  0  0  0  0  0  0  0  0  0
    9.8430  -18.7358   20.0497 C   0  0  0  0  0  0  0  0  0  0  0  0
    9.1436  -18.0620   19.1236 N   0  0  0  0  0  0  0  0  0  0  0  0
    9.5752  -16.7962   19.0500 C   0  0  0  0  0  0  0  0  0  0  0  0
   10.5643  -16.6793   19.9494 N   0  0  0  0  0  0  0  0  0  0  0  0
   12.1100  -18.7818   23.9856 C   0  0  0  0  0  0  0  0  0  0  0  0
   13.0646  -19.6134   23.8446 O   0  0  0  0  0  0  0  0  0  0  0  0
   12.1075  -18.0297   25.1849 N   0  0  0  0  0  0  0  0  0  0  0  0
   12.9873  -18.3347   26.3260 C   0  0  1  0  0  0  0  0  0  0  0  0
   13.8074  -17.1111   26.6647 C   0  0  0  0  0  0  0  0  0  0  0  0
   14.8223  -16.8756   25.6362 C   0  0  0  0  0  0  0  0  0  0  0  0
   14.9919  -17.7132   24.5216 C   0  0  0  0  0  0  0  0  0  0  0  0
   15.9899  -17.2413   23.7673 N   0  0  0  0  0  0  0  0  0  0  0  0
   16.4654  -16.1469   24.3426 C   0  0  0  0  0  0  0  0  0  0  0  0
   15.7571  -15.9377   25.4627 N   0  0  0  0  0  0  0  0  0  0  0  0
   12.0775  -18.6083   27.4495 C   0  0  0  0  0  0  0  0  0  0  0  0
   10.8453  -18.6117   27.3088 O   0  0  0  0  0  0  0  0  0  0  0  0
   12.5731  -18.8735   28.7095 O   0  0  0  0  0  0  0  0  0  0  0  0
  2  1  1  1
  3  2  1  0
  4  3  1  0
  5  4  2  0
  6  7  1  0
  6  5  1  0
  7 12  2  0
  8  7  1  0
  8  9  2  0
  9 10  1  0
 10 11  2  0
 12  4  1  0
 12 11  1  0
 13  2  1  0
 13 14  2  0
 15 13  1  0
 16 17  1  6
 16 15  1  0
 18 22  1  0
 18 17  1  0
 19 18  2  0
 20 19  1  0
 20 21  1  0
 21 22  2  0
 23 16  1  0
 24 23  2  0
 25 23  1  0
 26 27  1  1
 26 25  1  0
 27 28  1  0
 28 29  2  0
 29 30  1  0
 31 30  1  0
 32 28  1  0
 32 31  2  0
 33 35  1  0
 33 26  1  0
 34 33  2  0
M  END
$$$$
