HVT.pdb
     RDKit          3D

 25 25  0  0  1  0  0  0  0  0999 V2000
    9.0106  -15.5081   20.9988 N   0  0  0  0  0  0  0  0  0  0  0  0
    8.1388  -15.8780   22.1047 C   0  0  1  0  0  0  0  0  0  0  0  0
    8.2732  -17.3991   22.2849 C   0  0  0  0  0  0  0  0  0  0  0  0
    7.6447  -18.1277   21.1585 C   0  0  0  0  0  0  0  0  0  0  0  0
    7.1028  -17.5248   20.0202 C   0  0  0  0  0  0  0  0  0  0  0  0
    6.6332  -18.4968   19.2470 N   0  0  0  0  0  0  0  0  0  0  0  0
    6.8574  -19.6787   19.8519 C   0  0  0  0  0  0  0  0  0  0  0  0
    7.4746  -19.4455   21.0193 N   0  0  0  0  0  0  0  0  0  0  0  0
    8.5104  -15.1794   23.3414 C   0  0  0  0  0  0  0  0  0  0  0  0
    9.7581  -14.9753   23.5928 O   0  0  0  0  0  0  0  0  0  0  0  0
    7.3950  -12.5015   27.3621 C   0  0  0  0  0  0  0  0  0  0  0  0
    6.9639  -13.1637   26.0912 C   0  0  1  0  0  0  0  0  0  0  0  0
    6.8186  -12.0477   25.0453 C   0  0  0  0  0  0  0  0  0  0  0  0
    8.0597  -14.0626   25.5459 C   0  0  2  0  0  0  0  0  0  0  0  0
    7.6150  -14.6904   24.3189 N   0  0  0  0  0  0  0  0  0  0  0  0
    8.4809  -15.0549   26.5574 C   0  0  0  0  0  0  0  0  0  0  0  0
    7.6647  -15.8115   27.1526 O   0  0  0  0  0  0  0  0  0  0  0  0
   11.2371  -17.8111   26.0985 C   0  0  0  0  0  0  0  0  0  0  0  0
   11.5138  -16.9846   27.3017 C   0  0  1  0  0  0  0  0  0  0  0  0
   12.5093  -16.0526   27.0401 O   0  0  0  0  0  0  0  0  0  0  0  0
   10.3166  -16.2377   27.8503 C   0  0  2  0  0  0  0  0  0  0  0  0
    9.8404  -15.2292   26.9322 N   0  0  0  0  0  0  0  0  0  0  0  0
   10.6392  -15.6075   29.1368 C   0  0  0  0  0  0  0  0  0  0  0  0
   11.0038  -16.3713   30.2411 O   0  0  0  0  0  0  0  0  0  0  0  0
   10.5944  -14.3677   29.2678 O   0  0  0  0  0  0  0  0  0  0  0  0
  2  3  1  0
  2  1  1  6
  4  3  1  0
  4  8  1  0
  5  6  1  0
  5  4  2  0
  6  7  1  0
  7  8  2  0
  9  2  1  0
 10  9  2  0
 12 11  1  1
 12 14  1  0
 13 12  1  0
 14 16  1  0
 14 15  1  6
 15  9  1  0
 16 22  1  0
 17 16  2  0
 19 20  1  0
 19 18  1  6
 21 19  1  0
 21 23  1  0
 21 22  1  6
 23 25  2  0
 23 24  1  0
M  END
$$$$
