HVT.pdb
     RDKit          3D

 25 25  0  0  1  0  0  0  0  0999 V2000
    8.0250  -14.6184   20.4170 N   0  0  0  0  0  0  0  0  0  0  0  0
    7.6045  -15.5042   21.4933 C   0  0  1  0  0  0  0  0  0  0  0  0
    7.9555  -16.9348   21.0523 C   0  0  0  0  0  0  0  0  0  0  0  0
    7.1755  -17.3312   19.8567 C   0  0  0  0  0  0  0  0  0  0  0  0
    5.8555  -16.9502   19.6015 C   0  0  0  0  0  0  0  0  0  0  0  0
    5.5042  -17.5016   18.4458 N   0  0  0  0  0  0  0  0  0  0  0  0
    6.5453  -18.2098   17.9689 C   0  0  0  0  0  0  0  0  0  0  0  0
    7.5623  -18.1020   18.8363 N   0  0  0  0  0  0  0  0  0  0  0  0
    8.2780  -15.1762   22.7560 C   0  0  0  0  0  0  0  0  0  0  0  0
    9.5500  -15.3616   22.8521 O   0  0  0  0  0  0  0  0  0  0  0  0
    7.5083  -12.1156   25.1248 C   0  0  0  0  0  0  0  0  0  0  0  0
    7.6989  -13.3447   25.9568 C   0  0  1  0  0  0  0  0  0  0  0  0
    6.2943  -13.8888   26.2595 C   0  0  0  0  0  0  0  0  0  0  0  0
    8.3744  -14.4451   25.1574 C   0  0  2  0  0  0  0  0  0  0  0  0
    7.6588  -14.6613   23.9170 N   0  0  0  0  0  0  0  0  0  0  0  0
    8.4898  -15.6835   25.9562 C   0  0  0  0  0  0  0  0  0  0  0  0
    7.4938  -16.3998   26.2527 O   0  0  0  0  0  0  0  0  0  0  0  0
   10.3044  -18.7636   24.9923 C   0  0  0  0  0  0  0  0  0  0  0  0
   10.8361  -18.3468   26.3154 C   0  0  1  0  0  0  0  0  0  0  0  0
   12.0615  -17.7088   26.1745 O   0  0  0  0  0  0  0  0  0  0  0  0
    9.9279  -17.4296   27.1066 C   0  0  2  0  0  0  0  0  0  0  0  0
    9.7355  -16.1584   26.4480 N   0  0  0  0  0  0  0  0  0  0  0  0
   10.4635  -17.2002   28.4545 C   0  0  0  0  0  0  0  0  0  0  0  0
   10.6451  -18.2532   29.3457 O   0  0  0  0  0  0  0  0  0  0  0  0
   10.7701  -16.0511   28.8311 O   0  0  0  0  0  0  0  0  0  0  0  0
  2  3  1  0
  2  1  1  6
  4  3  1  0
  4  8  1  0
  5  6  1  0
  5  4  2  0
  6  7  1  0
  7  8  2  0
  9  2  1  0
 10  9  2  0
 12 11  1  6
 12 14  1  0
 13 12  1  0
 14 16  1  0
 14 15  1  6
 15  9  1  0
 16 22  1  0
 17 16  2  0
 19 20  1  0
 19 18  1  6
 21 19  1  0
 21 23  1  0
 21 22  1  6
 23 25  2  0
 23 24  1  0
M  END
$$$$
