HVT.pdb
     RDKit          3D

 25 25  0  0  1  0  0  0  0  0999 V2000
    9.2418  -17.3393   16.0920 N   0  0  0  0  0  0  0  0  0  0  0  0
    8.2820  -17.3717   17.1863 C   0  0  1  0  0  0  0  0  0  0  0  0
    8.0811  -18.8507   17.5556 C   0  0  0  0  0  0  0  0  0  0  0  0
    7.3178  -19.5641   16.5052 C   0  0  0  0  0  0  0  0  0  0  0  0
    5.9308  -19.5044   16.3457 C   0  0  0  0  0  0  0  0  0  0  0  0
    5.6215  -20.2736   15.3084 N   0  0  0  0  0  0  0  0  0  0  0  0
    6.7529  -20.8107   14.8142 C   0  0  0  0  0  0  0  0  0  0  0  0
    7.7848  -20.3738   15.5506 N   0  0  0  0  0  0  0  0  0  0  0  0
    8.7626  -16.6130   18.3478 C   0  0  0  0  0  0  0  0  0  0  0  0
    9.9842  -16.7639   18.7306 O   0  0  0  0  0  0  0  0  0  0  0  0
    8.2086  -12.9813   21.6944 C   0  0  0  0  0  0  0  0  0  0  0  0
    7.6288  -13.8125   20.5932 C   0  0  1  0  0  0  0  0  0  0  0  0
    7.5908  -12.9176   19.3449 C   0  0  0  0  0  0  0  0  0  0  0  0
    8.5608  -14.9525   20.2220 C   0  0  2  0  0  0  0  0  0  0  0  0
    8.0022  -15.7038   19.1170 N   0  0  0  0  0  0  0  0  0  0  0  0
    8.8390  -15.8100   21.3935 C   0  0  0  0  0  0  0  0  0  0  0  0
    7.9258  -16.3601   22.0690 O   0  0  0  0  0  0  0  0  0  0  0  0
   11.1597  -18.9535   21.5675 C   0  0  0  0  0  0  0  0  0  0  0  0
   11.5637  -17.9487   22.5845 C   0  0  1  0  0  0  0  0  0  0  0  0
   12.6781  -17.2380   22.1585 O   0  0  0  0  0  0  0  0  0  0  0  0
   10.4904  -16.9456   22.9504 C   0  0  2  0  0  0  0  0  0  0  0  0
   10.1599  -16.0784   21.8434 N   0  0  0  0  0  0  0  0  0  0  0  0
   10.9081  -16.1290   24.0972 C   0  0  0  0  0  0  0  0  0  0  0  0
   11.0482  -16.6860   25.3644 O   0  0  0  0  0  0  0  0  0  0  0  0
   11.1487  -14.9127   23.9591 O   0  0  0  0  0  0  0  0  0  0  0  0
  2  3  1  0
  2  1  1  6
  4  3  1  0
  4  8  1  0
  5  6  1  0
  5  4  2  0
  6  7  1  0
  7  8  2  0
  9  2  1  0
 10  9  2  0
 12 11  1  1
 12 14  1  0
 13 12  1  0
 14 16  1  0
 14 15  1  6
 15  9  1  0
 16 22  1  0
 17 16  2  0
 19 20  1  0
 19 18  1  6
 21 19  1  0
 21 23  1  0
 21 22  1  6
 23 25  2  0
 23 24  1  0
M  END
$$$$
