HVT.pdb
     RDKit          3D

 25 25  0  0  1  0  0  0  0  0999 V2000
    6.9403  -15.2409   20.9113 N   0  0  0  0  0  0  0  0  0  0  0  0
    8.3464  -14.9567   21.1601 C   0  0  1  0  0  0  0  0  0  0  0  0
    8.7120  -13.7390   20.2954 C   0  0  0  0  0  0  0  0  0  0  0  0
    8.4588  -14.0079   18.8607 C   0  0  0  0  0  0  0  0  0  0  0  0
    8.6951  -15.2285   18.2227 C   0  0  0  0  0  0  0  0  0  0  0  0
    8.3521  -15.0785   16.9488 N   0  0  0  0  0  0  0  0  0  0  0  0
    7.9131  -13.8193   16.7632 C   0  0  0  0  0  0  0  0  0  0  0  0
    7.9819  -13.1709   17.9349 N   0  0  0  0  0  0  0  0  0  0  0  0
    8.5965  -14.6728   22.5788 C   0  0  0  0  0  0  0  0  0  0  0  0
    9.7982  -14.4037   22.9596 O   0  0  0  0  0  0  0  0  0  0  0  0
    7.4054  -13.2334   27.0597 C   0  0  0  0  0  0  0  0  0  0  0  0
    6.9373  -13.6404   25.6978 C   0  0  1  0  0  0  0  0  0  0  0  0
    6.8840  -12.3579   24.8534 C   0  0  0  0  0  0  0  0  0  0  0  0
    7.9680  -14.5150   25.0057 C   0  0  2  0  0  0  0  0  0  0  0  0
    7.6265  -14.6630   23.6062 N   0  0  0  0  0  0  0  0  0  0  0  0
    8.0967  -15.8200   25.6880 C   0  0  0  0  0  0  0  0  0  0  0  0
    7.1089  -16.5722   25.9146 O   0  0  0  0  0  0  0  0  0  0  0  0
    9.8806  -18.8248   24.4778 C   0  0  0  0  0  0  0  0  0  0  0  0
   10.4464  -18.4918   25.8106 C   0  0  1  0  0  0  0  0  0  0  0  0
   11.6595  -17.8291   25.6785 O   0  0  0  0  0  0  0  0  0  0  0  0
    9.5514  -17.6431   26.6884 C   0  0  2  0  0  0  0  0  0  0  0  0
    9.3471  -16.3233   26.1379 N   0  0  0  0  0  0  0  0  0  0  0  0
   10.1098  -17.5222   28.0412 C   0  0  0  0  0  0  0  0  0  0  0  0
   10.2058  -18.6268   28.8817 O   0  0  0  0  0  0  0  0  0  0  0  0
   10.5134  -16.4215   28.4677 O   0  0  0  0  0  0  0  0  0  0  0  0
  2  3  1  0
  2  1  1  1
  4  3  1  0
  4  8  1  0
  5  6  1  0
  5  4  2  0
  6  7  1  0
  7  8  2  0
  9  2  1  0
 10  9  2  0
 12 11  1  1
 12 14  1  0
 13 12  1  0
 14 16  1  0
 14 15  1  6
 15  9  1  0
 16 22  1  0
 17 16  2  0
 19 20  1  0
 19 18  1  6
 21 19  1  0
 21 23  1  0
 21 22  1  6
 23 25  2  0
 23 24  1  0
M  END
$$$$
