HVT.pdb
     RDKit          3D

 25 25  0  0  1  0  0  0  0  0999 V2000
    8.2911  -15.9243   20.5405 N   0  0  0  0  0  0  0  0  0  0  0  0
    7.3624  -16.0452   21.6552 C   0  0  1  0  0  0  0  0  0  0  0  0
    7.0179  -17.5382   21.7847 C   0  0  0  0  0  0  0  0  0  0  0  0
    6.2558  -18.0141   20.6068 C   0  0  0  0  0  0  0  0  0  0  0  0
    5.9864  -17.2508   19.4677 C   0  0  0  0  0  0  0  0  0  0  0  0
    5.2819  -18.0144   18.6409 N   0  0  0  0  0  0  0  0  0  0  0  0
    5.0992  -19.2195   19.2131 C   0  0  0  0  0  0  0  0  0  0  0  0
    5.6959  -19.2118   20.4140 N   0  0  0  0  0  0  0  0  0  0  0  0
    7.9501  -15.5436   22.9037 C   0  0  0  0  0  0  0  0  0  0  0  0
    9.1907  -15.7890   23.1530 O   0  0  0  0  0  0  0  0  0  0  0  0
    7.6879  -13.0430   27.1884 C   0  0  0  0  0  0  0  0  0  0  0  0
    7.0422  -13.4444   25.8994 C   0  0  1  0  0  0  0  0  0  0  0  0
    7.1239  -12.2227   24.9714 C   0  0  0  0  0  0  0  0  0  0  0  0
    7.8526  -14.5183   25.1949 C   0  0  2  0  0  0  0  0  0  0  0  0
    7.2770  -14.7947   23.8950 N   0  0  0  0  0  0  0  0  0  0  0  0
    7.9543  -15.7350   26.0283 C   0  0  0  0  0  0  0  0  0  0  0  0
    6.9426  -16.3717   26.4331 O   0  0  0  0  0  0  0  0  0  0  0  0
    9.2743  -18.9864   25.0167 C   0  0  0  0  0  0  0  0  0  0  0  0
   10.0575  -18.5660   26.2071 C   0  0  1  0  0  0  0  0  0  0  0  0
   11.2828  -18.0343   25.8272 O   0  0  0  0  0  0  0  0  0  0  0  0
    9.3707  -17.5505   27.0953 C   0  0  2  0  0  0  0  0  0  0  0  0
    9.2037  -16.2774   26.4334 N   0  0  0  0  0  0  0  0  0  0  0  0
   10.1225  -17.3534   28.3412 C   0  0  0  0  0  0  0  0  0  0  0  0
   10.2814  -18.3884   29.2574 O   0  0  0  0  0  0  0  0  0  0  0  0
   10.6386  -16.2489   28.6058 O   0  0  0  0  0  0  0  0  0  0  0  0
  2  3  1  0
  2  1  1  6
  4  3  1  0
  4  8  1  0
  5  6  1  0
  5  4  2  0
  6  7  1  0
  7  8  2  0
  9  2  1  0
 10  9  2  0
 12 11  1  1
 12 14  1  0
 13 12  1  0
 14 16  1  0
 14 15  1  6
 15  9  1  0
 16 22  1  0
 17 16  2  0
 19 20  1  0
 19 18  1  6
 21 19  1  0
 21 23  1  0
 21 22  1  6
 23 25  2  0
 23 24  1  0
M  END
$$$$
