HVT.pdb
     RDKit          3D

 25 25  0  0  1  0  0  0  0  0999 V2000
    9.0720  -18.2829   19.8344 N   0  0  0  0  0  0  0  0  0  0  0  0
    9.7063  -17.3401   20.7447 C   0  0  1  0  0  0  0  0  0  0  0  0
   10.2957  -16.2154   19.8775 C   0  0  0  0  0  0  0  0  0  0  0  0
   11.5317  -16.6613   19.1931 C   0  0  0  0  0  0  0  0  0  0  0  0
   12.7559  -16.8934   19.8256 C   0  0  0  0  0  0  0  0  0  0  0  0
   13.6165  -17.2726   18.8882 N   0  0  0  0  0  0  0  0  0  0  0  0
   12.9845  -17.2869   17.6994 C   0  0  0  0  0  0  0  0  0  0  0  0
   11.7118  -16.9116   17.8931 N   0  0  0  0  0  0  0  0  0  0  0  0
    8.7454  -16.7936   21.7109 C   0  0  0  0  0  0  0  0  0  0  0  0
    7.6643  -16.2439   21.2742 O   0  0  0  0  0  0  0  0  0  0  0  0
    7.0771  -18.7149   23.8069 C   0  0  0  0  0  0  0  0  0  0  0  0
    7.2309  -17.5491   24.7325 C   0  0  1  0  0  0  0  0  0  0  0  0
    8.2850  -17.9550   25.7740 C   0  0  0  0  0  0  0  0  0  0  0  0
    7.8389  -16.3580   24.0129 C   0  0  2  0  0  0  0  0  0  0  0  0
    8.8846  -16.8066   23.1170 N   0  0  0  0  0  0  0  0  0  0  0  0
    8.3276  -15.3509   24.9783 C   0  0  0  0  0  0  0  0  0  0  0  0
    9.5436  -15.2476   25.3001 O   0  0  0  0  0  0  0  0  0  0  0  0
    6.6923  -11.4296   25.6834 C   0  0  0  0  0  0  0  0  0  0  0  0
    6.8374  -12.3777   26.8179 C   0  0  1  0  0  0  0  0  0  0  0  0
    5.6267  -12.9966   27.0999 O   0  0  0  0  0  0  0  0  0  0  0  0
    7.8723  -13.4633   26.6124 C   0  0  2  0  0  0  0  0  0  0  0  0
    7.4599  -14.4226   25.6142 N   0  0  0  0  0  0  0  0  0  0  0  0
    8.1503  -14.1649   27.8722 C   0  0  0  0  0  0  0  0  0  0  0  0
    8.7185  -13.5015   28.9552 O   0  0  0  0  0  0  0  0  0  0  0  0
    7.8804  -15.3762   27.9997 O   0  0  0  0  0  0  0  0  0  0  0  0
  2  3  1  0
  2  1  1  6
  4  3  1  0
  4  8  1  0
  5  6  1  0
  5  4  2  0
  6  7  1  0
  7  8  2  0
  9  2  1  0
 10  9  2  0
 12 11  1  6
 12 14  1  0
 13 12  1  0
 14 16  1  0
 14 15  1  1
 15  9  1  0
 16 22  1  0
 17 16  2  0
 19 20  1  0
 19 18  1  6
 21 19  1  0
 21 23  1  0
 21 22  1  6
 23 25  2  0
 23 24  1  0
M  END
$$$$
