HVT.pdb
     RDKit          3D

 25 25  0  0  1  0  0  0  0  0999 V2000
    8.9674  -15.2325   20.5594 N   0  0  0  0  0  0  0  0  0  0  0  0
    7.9117  -15.2397   21.5620 C   0  0  1  0  0  0  0  0  0  0  0  0
    7.3668  -16.6763   21.6209 C   0  0  0  0  0  0  0  0  0  0  0  0
    6.8041  -17.0878   20.3137 C   0  0  0  0  0  0  0  0  0  0  0  0
    6.8159  -16.3044   19.1566 C   0  0  0  0  0  0  0  0  0  0  0  0
    6.2205  -17.0075   18.2004 N   0  0  0  0  0  0  0  0  0  0  0  0
    5.8374  -18.1938   18.7090 C   0  0  0  0  0  0  0  0  0  0  0  0
    6.1963  -18.2356   20.0003 N   0  0  0  0  0  0  0  0  0  0  0  0
    8.4149  -14.8269   22.8780 C   0  0  0  0  0  0  0  0  0  0  0  0
    9.5325  -15.3115   23.2997 O   0  0  0  0  0  0  0  0  0  0  0  0
    5.9565  -13.2686   26.0924 C   0  0  0  0  0  0  0  0  0  0  0  0
    7.3199  -12.7165   25.8171 C   0  0  1  0  0  0  0  0  0  0  0  0
    7.9795  -12.4810   27.1846 C   0  0  0  0  0  0  0  0  0  0  0  0
    8.2000  -13.7509   25.1378 C   0  0  2  0  0  0  0  0  0  0  0  0
    7.7826  -13.9238   23.7618 N   0  0  0  0  0  0  0  0  0  0  0  0
    8.1908  -15.0256   25.8863 C   0  0  0  0  0  0  0  0  0  0  0  0
    7.1383  -15.6937   26.0834 O   0  0  0  0  0  0  0  0  0  0  0  0
    9.4730  -18.3482   25.1178 C   0  0  0  0  0  0  0  0  0  0  0  0
   10.1530  -17.9167   26.3662 C   0  0  1  0  0  0  0  0  0  0  0  0
   11.4294  -17.4431   26.0928 O   0  0  0  0  0  0  0  0  0  0  0  0
    9.4238  -16.8474   27.1517 C   0  0  2  0  0  0  0  0  0  0  0  0
    9.3711  -15.5925   26.4380 N   0  0  0  0  0  0  0  0  0  0  0  0
   10.0592  -16.6348   28.4584 C   0  0  0  0  0  0  0  0  0  0  0  0
   10.1255  -17.6561   29.4011 O   0  0  0  0  0  0  0  0  0  0  0  0
   10.5567  -15.5293   28.7525 O   0  0  0  0  0  0  0  0  0  0  0  0
  2  3  1  0
  2  1  1  6
  4  3  1  0
  4  8  1  0
  5  6  1  0
  5  4  2  0
  6  7  1  0
  7  8  2  0
  9  2  1  0
 10  9  2  0
 12 11  1  1
 12 14  1  0
 13 12  1  0
 14 16  1  0
 14 15  1  6
 15  9  1  0
 16 22  1  0
 17 16  2  0
 19 20  1  0
 19 18  1  6
 21 19  1  0
 21 23  1  0
 21 22  1  6
 23 25  2  0
 23 24  1  0
M  END
$$$$
