HVT.pdb
     RDKit          3D

 25 25  0  0  1  0  0  0  0  0999 V2000
    9.3336  -15.6527   20.3128 N   0  0  0  0  0  0  0  0  0  0  0  0
    8.2012  -15.6071   21.2268 C   0  0  1  0  0  0  0  0  0  0  0  0
    7.5729  -17.0105   21.2240 C   0  0  0  0  0  0  0  0  0  0  0  0
    6.9596  -17.3181   19.9110 C   0  0  0  0  0  0  0  0  0  0  0  0
    7.0478  -16.5051   18.7779 C   0  0  0  0  0  0  0  0  0  0  0  0
    6.3729  -17.1098   17.8073 N   0  0  0  0  0  0  0  0  0  0  0  0
    5.8673  -18.2630   18.2841 C   0  0  0  0  0  0  0  0  0  0  0  0
    6.2289  -18.3832   19.5697 N   0  0  0  0  0  0  0  0  0  0  0  0
    8.6183  -15.2338   22.5841 C   0  0  0  0  0  0  0  0  0  0  0  0
    9.7648  -15.6332   23.0174 O   0  0  0  0  0  0  0  0  0  0  0  0
    6.0299  -13.6690   25.6922 C   0  0  0  0  0  0  0  0  0  0  0  0
    7.4206  -13.1527   25.4955 C   0  0  1  0  0  0  0  0  0  0  0  0
    8.0118  -12.9457   26.8984 C   0  0  0  0  0  0  0  0  0  0  0  0
    8.3077  -14.2058   24.8550 C   0  0  2  0  0  0  0  0  0  0  0  0
    7.8709  -14.4566   23.4972 N   0  0  0  0  0  0  0  0  0  0  0  0
    8.3333  -15.4401   25.6680 C   0  0  0  0  0  0  0  0  0  0  0  0
    7.3007  -16.1294   25.8953 O   0  0  0  0  0  0  0  0  0  0  0  0
    9.9143  -18.6745   24.9158 C   0  0  0  0  0  0  0  0  0  0  0  0
   10.4914  -18.1966   26.1986 C   0  0  1  0  0  0  0  0  0  0  0  0
   11.7339  -17.6120   25.9917 O   0  0  0  0  0  0  0  0  0  0  0  0
    9.6340  -17.2014   26.9512 C   0  0  2  0  0  0  0  0  0  0  0  0
    9.5274  -15.9415   26.2528 N   0  0  0  0  0  0  0  0  0  0  0  0
   10.1693  -16.9645   28.2980 C   0  0  0  0  0  0  0  0  0  0  0  0
   10.2127  -17.9832   29.2447 O   0  0  0  0  0  0  0  0  0  0  0  0
   10.6001  -15.8399   28.6235 O   0  0  0  0  0  0  0  0  0  0  0  0
  2  3  1  0
  2  1  1  6
  4  3  1  0
  4  8  1  0
  5  6  1  0
  5  4  2  0
  6  7  1  0
  7  8  2  0
  9  2  1  0
 10  9  2  0
 12 11  1  1
 12 14  1  0
 13 12  1  0
 14 16  1  0
 14 15  1  6
 15  9  1  0
 16 22  1  0
 17 16  2  0
 19 20  1  0
 19 18  1  6
 21 19  1  0
 21 23  1  0
 21 22  1  6
 23 25  2  0
 23 24  1  0
M  END
$$$$
