WWA.pdb
     RDKit          3D

 34 37  0  0  1  0  0  0  0  0999 V2000
   26.8293  -22.2877  -10.2439 N   0  0  0  0  0  0  0  0  0  0  0  0
   26.4832  -20.9574   -9.8532 C   0  0  1  0  0  0  0  0  0  0  0  0
   27.6203  -20.0204   -9.7024 C   0  0  0  0  0  0  0  0  0  0  0  0
   28.6028  -20.3984   -8.6941 C   0  0  0  0  0  0  0  0  0  0  0  0
   29.7651  -21.1175   -8.8439 C   0  0  0  0  0  0  0  0  0  0  0  0
   30.3775  -21.2502   -7.6481 N   0  0  0  0  0  0  0  0  0  0  0  0
   29.6406  -20.6353   -6.7281 C   0  0  0  0  0  0  0  0  0  0  0  0
   29.8469  -20.4999   -5.3719 C   0  0  0  0  0  0  0  0  0  0  0  0
   28.9195  -19.8066   -4.6150 C   0  0  0  0  0  0  0  0  0  0  0  0
   27.7966  -19.2515   -5.1973 C   0  0  0  0  0  0  0  0  0  0  0  0
   27.6273  -19.4105   -6.5618 C   0  0  0  0  0  0  0  0  0  0  0  0
   28.5295  -20.0952   -7.3495 C   0  0  0  0  0  0  0  0  0  0  0  0
   25.4600  -20.4378  -10.7931 C   0  0  0  0  0  0  0  0  0  0  0  0
   25.0087  -19.2610  -10.6517 O   0  0  0  0  0  0  0  0  0  0  0  0
   24.9283  -21.1808  -11.8735 N   0  0  0  0  0  0  0  0  0  0  0  0
   23.9753  -20.6230  -12.7889 C   0  0  1  0  0  0  0  0  0  0  0  0
   24.4075  -20.6265  -14.2109 C   0  0  0  0  0  0  0  0  0  0  0  0
   25.6326  -19.8729  -14.5220 C   0  0  0  0  0  0  0  0  0  0  0  0
   26.9282  -20.4024  -14.5227 C   0  0  0  0  0  0  0  0  0  0  0  0
   27.8028  -19.4296  -14.8322 N   0  0  0  0  0  0  0  0  0  0  0  0
   27.1354  -18.2685  -15.0388 C   0  0  0  0  0  0  0  0  0  0  0  0
   27.5078  -16.9974  -15.3793 C   0  0  0  0  0  0  0  0  0  0  0  0
   26.5572  -16.0189  -15.5263 C   0  0  0  0  0  0  0  0  0  0  0  0
   25.2316  -16.2688  -15.3429 C   0  0  0  0  0  0  0  0  0  0  0  0
   24.8534  -17.5355  -15.0022 C   0  0  0  0  0  0  0  0  0  0  0  0
   25.8007  -18.5469  -14.8468 C   0  0  0  0  0  0  0  0  0  0  0  0
   22.6201  -21.2390  -12.6058 C   0  0  0  0  0  0  0  0  0  0  0  0
   22.4661  -22.4855  -12.5290 O   0  0  0  0  0  0  0  0  0  0  0  0
   19.1337  -19.9142  -11.9904 C   0  0  0  0  0  0  0  0  0  0  0  0
   20.1420  -21.0092  -12.3246 C   0  0  2  0  0  0  0  0  0  0  0  0
   21.4502  -20.4330  -12.5102 N   0  0  0  0  0  0  0  0  0  0  0  0
   19.6834  -21.7871  -13.4771 C   0  0  0  0  0  0  0  0  0  0  0  0
   20.0649  -21.4953  -14.6367 O   0  0  0  0  0  0  0  0  0  0  0  0
   18.8219  -22.8627  -13.3364 O   0  0  0  0  0  0  0  0  0  0  0  0
  2  3  1  0
  2  1  1  6
  3  4  1  0
  4  5  2  0
  6  5  1  0
  7  6  1  0
  8  7  2  0
  9  8  1  0
 10  9  2  0
 10 11  1  0
 11 12  2  0
 12  7  1  0
 12  4  1  0
 13 15  1  0
 13  2  1  0
 14 13  2  0
 16 17  1  6
 16 15  1  0
 17 18  1  0
 18 19  2  0
 19 20  1  0
 21 20  1  0
 22 21  2  0
 23 22  1  0
 24 25  1  0
 24 23  2  0
 25 26  2  0
 26 18  1  0
 26 21  1  0
 27 16  1  0
 28 27  2  0
 30 29  1  6
 30 31  1  0
 31 27  1  0
 32 30  1  0
 32 34  1  0
 33 32  2  0
M  END
$$$$
