WWA.pdb
     RDKit          3D

 34 37  0  0  1  0  0  0  0  0999 V2000
   25.1496  -12.0223  -48.1078 N   0  0  0  0  0  0  0  0  0  0  0  0
   25.6325  -10.7035  -48.3726 C   0  0  1  0  0  0  0  0  0  0  0  0
   24.6726   -9.7948  -49.0408 C   0  0  0  0  0  0  0  0  0  0  0  0
   25.2021   -9.0761  -50.1933 C   0  0  0  0  0  0  0  0  0  0  0  0
   26.3638   -8.3487  -50.3016 C   0  0  0  0  0  0  0  0  0  0  0  0
   26.4683   -7.8374  -51.5468 N   0  0  0  0  0  0  0  0  0  0  0  0
   25.4032   -8.2155  -52.2469 C   0  0  0  0  0  0  0  0  0  0  0  0
   25.0589   -7.9438  -53.5536 C   0  0  0  0  0  0  0  0  0  0  0  0
   23.8783   -8.4567  -54.0603 C   0  0  0  0  0  0  0  0  0  0  0  0
   23.0454   -9.2333  -53.2782 C   0  0  0  0  0  0  0  0  0  0  0  0
   23.4282   -9.4822  -51.9716 C   0  0  0  0  0  0  0  0  0  0  0  0
   24.5971   -8.9880  -51.4308 C   0  0  0  0  0  0  0  0  0  0  0  0
   26.1522  -10.1259  -47.1090 C   0  0  0  0  0  0  0  0  0  0  0  0
   26.6266   -8.9497  -47.0977 O   0  0  0  0  0  0  0  0  0  0  0  0
   26.1610  -10.8107  -45.8709 N   0  0  0  0  0  0  0  0  0  0  0  0
   25.3913  -12.0007  -45.6503 C   0  0  1  0  0  0  0  0  0  0  0  0
   26.0930  -13.0571  -44.8754 C   0  0  0  0  0  0  0  0  0  0  0  0
   26.5142  -12.6952  -43.5125 C   0  0  0  0  0  0  0  0  0  0  0  0
   27.5138  -13.3428  -42.7774 C   0  0  0  0  0  0  0  0  0  0  0  0
   27.6201  -12.7621  -41.5697 N   0  0  0  0  0  0  0  0  0  0  0  0
   26.7260  -11.7485  -41.4734 C   0  0  0  0  0  0  0  0  0  0  0  0
   26.4112  -10.8383  -40.5024 C   0  0  0  0  0  0  0  0  0  0  0  0
   25.4321   -9.9039  -40.7279 C   0  0  0  0  0  0  0  0  0  0  0  0
   24.7483   -9.8461  -41.9037 C   0  0  0  0  0  0  0  0  0  0  0  0
   25.0574  -10.7523  -42.8768 C   0  0  0  0  0  0  0  0  0  0  0  0
   26.0483  -11.7117  -42.6713 C   0  0  0  0  0  0  0  0  0  0  0  0
   24.0428  -11.6782  -45.0783 C   0  0  0  0  0  0  0  0  0  0  0  0
   23.8864  -11.4318  -43.8542 O   0  0  0  0  0  0  0  0  0  0  0  0
   21.7594  -13.1090  -44.3286 C   0  0  0  0  0  0  0  0  0  0  0  0
   21.8164  -12.5973  -45.7647 C   0  0  2  0  0  0  0  0  0  0  0  0
   22.8824  -11.6369  -45.9025 N   0  0  0  0  0  0  0  0  0  0  0  0
   20.5103  -12.0743  -46.1696 C   0  0  0  0  0  0  0  0  0  0  0  0
   19.4655  -12.4373  -45.5764 O   0  0  0  0  0  0  0  0  0  0  0  0
   20.3763  -11.1691  -47.2096 O   0  0  0  0  0  0  0  0  0  0  0  0
  2  3  1  0
  2  1  1  1
  3  4  1  0
  4  5  2  0
  6  5  1  0
  7  6  1  0
  8  7  2  0
  9  8  1  0
 10  9  2  0
 10 11  1  0
 11 12  2  0
 12  7  1  0
 12  4  1  0
 13 15  1  0
 13  2  1  0
 14 13  2  0
 16 17  1  1
 16 15  1  0
 17 18  1  0
 18 19  2  0
 19 20  1  0
 21 20  1  0
 22 21  2  0
 23 22  1  0
 24 25  1  0
 24 23  2  0
 25 26  2  0
 26 18  1  0
 26 21  1  0
 27 16  1  0
 28 27  2  0
 30 29  1  1
 30 31  1  0
 31 27  1  0
 32 30  1  0
 32 34  1  0
 33 32  2  0
M  END
$$$$
