WWA.pdb
     RDKit          3D

 34 37  0  0  1  0  0  0  0  0999 V2000
   28.5729  -20.9164  -16.1002 N   0  0  0  0  0  0  0  0  0  0  0  0
   27.7431  -20.2438  -15.1509 C   0  0  1  0  0  0  0  0  0  0  0  0
   26.6853  -19.3813  -15.7260 C   0  0  0  0  0  0  0  0  0  0  0  0
   27.1678  -18.2607  -16.5238 C   0  0  0  0  0  0  0  0  0  0  0  0
   27.4815  -18.2216  -17.8619 C   0  0  0  0  0  0  0  0  0  0  0  0
   27.9016  -16.9829  -18.1965 N   0  0  0  0  0  0  0  0  0  0  0  0
   27.8679  -16.2196  -17.1086 C   0  0  0  0  0  0  0  0  0  0  0  0
   28.2035  -14.8926  -16.9456 C   0  0  0  0  0  0  0  0  0  0  0  0
   28.0837  -14.3158  -15.6940 C   0  0  0  0  0  0  0  0  0  0  0  0
   27.6345  -15.0481  -14.6122 C   0  0  0  0  0  0  0  0  0  0  0  0
   27.3082  -16.3772  -14.8188 C   0  0  0  0  0  0  0  0  0  0  0  0
   27.4147  -16.9875  -16.0515 C   0  0  0  0  0  0  0  0  0  0  0  0
   27.1871  -21.2479  -14.2113 C   0  0  0  0  0  0  0  0  0  0  0  0
   27.0342  -22.4501  -14.5856 O   0  0  0  0  0  0  0  0  0  0  0  0
   26.7988  -20.9577  -12.8819 N   0  0  0  0  0  0  0  0  0  0  0  0
   26.2723  -21.9616  -12.0032 C   0  0  1  0  0  0  0  0  0  0  0  0
   27.0188  -22.1215  -10.7280 C   0  0  0  0  0  0  0  0  0  0  0  0
   26.7446  -21.1230   -9.6822 C   0  0  0  0  0  0  0  0  0  0  0  0
   25.5975  -20.3245   -9.6090 C   0  0  0  0  0  0  0  0  0  0  0  0
   25.6898  -19.5160   -8.5390 N   0  0  0  0  0  0  0  0  0  0  0  0
   26.8592  -19.7477   -7.8949 C   0  0  0  0  0  0  0  0  0  0  0  0
   27.4534  -19.2352   -6.7748 C   0  0  0  0  0  0  0  0  0  0  0  0
   28.6758  -19.7074   -6.3682 C   0  0  0  0  0  0  0  0  0  0  0  0
   29.3334  -20.6855   -7.0496 C   0  0  0  0  0  0  0  0  0  0  0  0
   28.7459  -21.2008   -8.1690 C   0  0  0  0  0  0  0  0  0  0  0  0
   27.5042  -20.7372   -8.6024 C   0  0  0  0  0  0  0  0  0  0  0  0
   24.8013  -21.7719  -11.7799 C   0  0  0  0  0  0  0  0  0  0  0  0
   24.1460  -22.5285  -11.0172 O   0  0  0  0  0  0  0  0  0  0  0  0
   22.2120  -19.2548  -12.9116 C   0  0  0  0  0  0  0  0  0  0  0  0
   22.6635  -20.5597  -12.2629 C   0  0  2  0  0  0  0  0  0  0  0  0
   24.0865  -20.7226  -12.4245 N   0  0  0  0  0  0  0  0  0  0  0  0
   21.8886  -21.6840  -12.7912 C   0  0  0  0  0  0  0  0  0  0  0  0
   20.7342  -21.9222  -12.3600 O   0  0  0  0  0  0  0  0  0  0  0  0
   22.3910  -22.5190  -13.7757 O   0  0  0  0  0  0  0  0  0  0  0  0
  2  3  1  0
  2  1  1  6
  3  4  1  0
  4  5  2  0
  6  5  1  0
  7  6  1  0
  8  7  2  0
  9  8  1  0
 10  9  2  0
 10 11  1  0
 11 12  2  0
 12  7  1  0
 12  4  1  0
 13 15  1  0
 13  2  1  0
 14 13  2  0
 16 17  1  1
 16 15  1  0
 17 18  1  0
 18 19  2  0
 19 20  1  0
 21 20  1  0
 22 21  2  0
 23 22  1  0
 24 25  1  0
 24 23  2  0
 25 26  2  0
 26 18  1  0
 26 21  1  0
 27 16  1  0
 28 27  2  0
 30 29  1  6
 30 31  1  0
 31 27  1  0
 32 30  1  0
 32 34  1  0
 33 32  2  0
M  END
$$$$
