WWA.pdb
     RDKit          3D

 34 37  0  0  1  0  0  0  0  0999 V2000
   28.2936  -23.3092  -11.8512 N   0  0  0  0  0  0  0  0  0  0  0  0
   28.2873  -22.1570  -11.0057 C   0  0  1  0  0  0  0  0  0  0  0  0
   28.9399  -20.9511  -11.5657 C   0  0  0  0  0  0  0  0  0  0  0  0
   30.3712  -21.0803  -11.8099 C   0  0  0  0  0  0  0  0  0  0  0  0
   31.1331  -20.5237  -12.8100 C   0  0  0  0  0  0  0  0  0  0  0  0
   32.4197  -20.9091  -12.6724 N   0  0  0  0  0  0  0  0  0  0  0  0
   32.5095  -21.7013  -11.6086 C   0  0  0  0  0  0  0  0  0  0  0  0
   33.6051  -22.3404  -11.0688 C   0  0  0  0  0  0  0  0  0  0  0  0
   33.4401  -23.1253   -9.9418 C   0  0  0  0  0  0  0  0  0  0  0  0
   32.1991  -23.2757   -9.3539 C   0  0  0  0  0  0  0  0  0  0  0  0
   31.1253  -22.6170   -9.9273 C   0  0  0  0  0  0  0  0  0  0  0  0
   31.2502  -21.8262  -11.0507 C   0  0  0  0  0  0  0  0  0  0  0  0
   26.8912  -21.8848  -10.5851 C   0  0  0  0  0  0  0  0  0  0  0  0
   25.9289  -22.4797  -11.1584 O   0  0  0  0  0  0  0  0  0  0  0  0
   26.5369  -20.9790   -9.5574 N   0  0  0  0  0  0  0  0  0  0  0  0
   25.1841  -20.8267   -9.1059 C   0  0  1  0  0  0  0  0  0  0  0  0
   25.0406  -20.1134   -7.8099 C   0  0  0  0  0  0  0  0  0  0  0  0
   26.2703  -19.5365   -7.2434 C   0  0  0  0  0  0  0  0  0  0  0  0
   26.9875  -18.4669   -7.7916 C   0  0  0  0  0  0  0  0  0  0  0  0
   28.0637  -18.2180   -7.0255 N   0  0  0  0  0  0  0  0  0  0  0  0
   28.0894  -19.0845   -5.9841 C   0  0  0  0  0  0  0  0  0  0  0  0
   28.9256  -19.2774   -4.9193 C   0  0  0  0  0  0  0  0  0  0  0  0
   28.6583  -20.2658   -4.0058 C   0  0  0  0  0  0  0  0  0  0  0  0
   27.5717  -21.0780   -4.1202 C   0  0  0  0  0  0  0  0  0  0  0  0
   26.7334  -20.8909   -5.1813 C   0  0  0  0  0  0  0  0  0  0  0  0
   26.9839  -19.8934   -6.1230 C   0  0  0  0  0  0  0  0  0  0  0  0
   24.3159  -20.2373  -10.1775 C   0  0  0  0  0  0  0  0  0  0  0  0
   24.5618  -19.1108  -10.6814 O   0  0  0  0  0  0  0  0  0  0  0  0
   21.5517  -21.4440  -12.4036 C   0  0  0  0  0  0  0  0  0  0  0  0
   22.2842  -20.3464  -11.6379 C   0  0  2  0  0  0  0  0  0  0  0  0
   23.1754  -20.9337  -10.6692 N   0  0  0  0  0  0  0  0  0  0  0  0
   21.3242  -19.4110  -11.0488 C   0  0  0  0  0  0  0  0  0  0  0  0
   21.0792  -19.4384   -9.8182 O   0  0  0  0  0  0  0  0  0  0  0  0
   20.6567  -18.4699  -11.8154 O   0  0  0  0  0  0  0  0  0  0  0  0
  2  3  1  0
  2  1  1  6
  3  4  1  0
  4  5  2  0
  6  5  1  0
  7  6  1  0
  8  7  2  0
  9  8  1  0
 10  9  2  0
 10 11  1  0
 11 12  2  0
 12  7  1  0
 12  4  1  0
 13 15  1  0
 13  2  1  0
 14 13  2  0
 16 17  1  1
 16 15  1  0
 17 18  1  0
 18 19  2  0
 19 20  1  0
 21 20  1  0
 22 21  2  0
 23 22  1  0
 24 25  1  0
 24 23  2  0
 25 26  2  0
 26 18  1  0
 26 21  1  0
 27 16  1  0
 28 27  2  0
 30 29  1  1
 30 31  1  0
 31 27  1  0
 32 30  1  0
 32 34  1  0
 33 32  2  0
M  END
$$$$
