WWA.pdb
     RDKit          3D

 34 37  0  0  1  0  0  0  0  0999 V2000
   23.4499  -32.4514  -13.3028 N   0  0  0  0  0  0  0  0  0  0  0  0
   22.9090  -31.3273  -14.0000 C   0  0  1  0  0  0  0  0  0  0  0  0
   22.1773  -31.6426  -15.2486 C   0  0  0  0  0  0  0  0  0  0  0  0
   22.9994  -32.1724  -16.3295 C   0  0  0  0  0  0  0  0  0  0  0  0
   24.1262  -31.6337  -16.9046 C   0  0  0  0  0  0  0  0  0  0  0  0
   24.5728  -32.4482  -17.8844 N   0  0  0  0  0  0  0  0  0  0  0  0
   23.7633  -33.5002  -17.9579 C   0  0  0  0  0  0  0  0  0  0  0  0
   23.8036  -34.5932  -18.7968 C   0  0  0  0  0  0  0  0  0  0  0  0
   22.8309  -35.5697  -18.6789 C   0  0  0  0  0  0  0  0  0  0  0  0
   21.8262  -35.4642  -17.7366 C   0  0  0  0  0  0  0  0  0  0  0  0
   21.8223  -34.3511  -16.9141 C   0  0  0  0  0  0  0  0  0  0  0  0
   22.7744  -33.3567  -17.0019 C   0  0  0  0  0  0  0  0  0  0  0  0
   22.0787  -30.5388  -13.0571 C   0  0  0  0  0  0  0  0  0  0  0  0
   21.6467  -31.0749  -11.9920 O   0  0  0  0  0  0  0  0  0  0  0  0
   21.7173  -29.1862  -13.2620 N   0  0  0  0  0  0  0  0  0  0  0  0
   20.9472  -28.4474  -12.3036 C   0  0  1  0  0  0  0  0  0  0  0  0
   21.0856  -26.9710  -12.4040 C   0  0  0  0  0  0  0  0  0  0  0  0
   20.2443  -26.1740  -11.4971 C   0  0  0  0  0  0  0  0  0  0  0  0
   20.0175  -26.4599  -10.1458 C   0  0  0  0  0  0  0  0  0  0  0  0
   19.1871  -25.5359   -9.6323 N   0  0  0  0  0  0  0  0  0  0  0  0
   18.8520  -24.6424  -10.5943 C   0  0  0  0  0  0  0  0  0  0  0  0
   18.0680  -23.5224  -10.6298 C   0  0  0  0  0  0  0  0  0  0  0  0
   17.9403  -22.8096  -11.7952 C   0  0  0  0  0  0  0  0  0  0  0  0
   18.5761  -23.1809  -12.9403 C   0  0  0  0  0  0  0  0  0  0  0  0
   19.3598  -24.2984  -12.9116 C   0  0  0  0  0  0  0  0  0  0  0  0
   19.5051  -25.0396  -11.7394 C   0  0  0  0  0  0  0  0  0  0  0  0
   19.5125  -28.8846  -12.3052 C   0  0  0  0  0  0  0  0  0  0  0  0
   18.8491  -28.9694  -13.3711 O   0  0  0  0  0  0  0  0  0  0  0  0
   17.0969  -30.3416   -9.8280 C   0  0  0  0  0  0  0  0  0  0  0  0
   17.4301  -29.5059  -11.0601 C   0  0  2  0  0  0  0  0  0  0  0  0
   18.8431  -29.2233  -11.0949 N   0  0  0  0  0  0  0  0  0  0  0  0
   16.5979  -28.3019  -11.0970 C   0  0  0  0  0  0  0  0  0  0  0  0
   15.7318  -28.1518  -11.9929 O   0  0  0  0  0  0  0  0  0  0  0  0
   16.7304  -27.2931  -10.1569 O   0  0  0  0  0  0  0  0  0  0  0  0
  2  3  1  0
  2  1  1  1
  3  4  1  0
  4  5  2  0
  6  5  1  0
  7  6  1  0
  8  7  2  0
  9  8  1  0
 10  9  2  0
 10 11  1  0
 11 12  2  0
 12  7  1  0
 12  4  1  0
 13 15  1  0
 13  2  1  0
 14 13  2  0
 16 17  1  6
 16 15  1  0
 17 18  1  0
 18 19  2  0
 19 20  1  0
 21 20  1  0
 22 21  2  0
 23 22  1  0
 24 25  1  0
 24 23  2  0
 25 26  2  0
 26 18  1  0
 26 21  1  0
 27 16  1  0
 28 27  2  0
 30 29  1  1
 30 31  1  0
 31 27  1  0
 32 30  1  0
 32 34  1  0
 33 32  2  0
M  END
$$$$
