WWA.pdb
     RDKit          3D

 34 37  0  0  1  0  0  0  0  0999 V2000
   27.7348  -21.4622  -12.8800 N   0  0  0  0  0  0  0  0  0  0  0  0
   26.8021  -20.5161  -12.3533 C   0  0  1  0  0  0  0  0  0  0  0  0
   25.6193  -20.2455  -13.2027 C   0  0  0  0  0  0  0  0  0  0  0  0
   25.9161  -19.6810  -14.5135 C   0  0  0  0  0  0  0  0  0  0  0  0
   25.8655  -20.2843  -15.7480 C   0  0  0  0  0  0  0  0  0  0  0  0
   26.2295  -19.4019  -16.7029 N   0  0  0  0  0  0  0  0  0  0  0  0
   26.5146  -18.2430  -16.1173 C   0  0  0  0  0  0  0  0  0  0  0  0
   26.9323  -17.0503  -16.6679 C   0  0  0  0  0  0  0  0  0  0  0  0
   27.1707  -15.9708  -15.8363 C   0  0  0  0  0  0  0  0  0  0  0  0
   26.9962  -16.0722  -14.4697 C   0  0  0  0  0  0  0  0  0  0  0  0
   26.5758  -17.2873  -13.9576 C   0  0  0  0  0  0  0  0  0  0  0  0
   26.3284  -18.3860  -14.7544 C   0  0  0  0  0  0  0  0  0  0  0  0
   26.4148  -20.9422  -10.9863 C   0  0  0  0  0  0  0  0  0  0  0  0
   26.5830  -22.1466  -10.6262 O   0  0  0  0  0  0  0  0  0  0  0  0
   25.8509  -20.0779  -10.0183 N   0  0  0  0  0  0  0  0  0  0  0  0
   25.5256  -20.5225   -8.6940 C   0  0  1  0  0  0  0  0  0  0  0  0
   25.6465  -19.4782   -7.6433 C   0  0  0  0  0  0  0  0  0  0  0  0
   26.9961  -19.2505   -7.1024 C   0  0  0  0  0  0  0  0  0  0  0  0
   27.8970  -18.2823   -7.5608 C   0  0  0  0  0  0  0  0  0  0  0  0
   29.0366  -18.3695   -6.8533 N   0  0  0  0  0  0  0  0  0  0  0  0
   28.9274  -19.3625   -5.9377 C   0  0  0  0  0  0  0  0  0  0  0  0
   29.7534  -19.8712   -4.9737 C   0  0  0  0  0  0  0  0  0  0  0  0
   29.3262  -20.9043   -4.1781 C   0  0  0  0  0  0  0  0  0  0  0  0
   28.0878  -21.4535   -4.3134 C   0  0  0  0  0  0  0  0  0  0  0  0
   27.2588  -20.9504   -5.2743 C   0  0  0  0  0  0  0  0  0  0  0  0
   27.6702  -19.9010   -6.0953 C   0  0  0  0  0  0  0  0  0  0  0  0
   24.1919  -21.2079   -8.6624 C   0  0  0  0  0  0  0  0  0  0  0  0
   23.2410  -20.8366   -9.3983 O   0  0  0  0  0  0  0  0  0  0  0  0
   22.7151  -24.1310   -6.7615 C   0  0  0  0  0  0  0  0  0  0  0  0
   22.6422  -22.9037   -7.6647 C   0  0  2  0  0  0  0  0  0  0  0  0
   23.9496  -22.3111   -7.7954 N   0  0  0  0  0  0  0  0  0  0  0  0
   21.6298  -21.9688   -7.1702 C   0  0  0  0  0  0  0  0  0  0  0  0
   21.9622  -20.8395   -6.7349 O   0  0  0  0  0  0  0  0  0  0  0  0
   20.2819  -22.2881   -7.1632 O   0  0  0  0  0  0  0  0  0  0  0  0
  2  3  1  0
  2  1  1  6
  3  4  1  0
  4  5  2  0
  6  5  1  0
  7  6  1  0
  8  7  2  0
  9  8  1  0
 10  9  2  0
 10 11  1  0
 11 12  2  0
 12  7  1  0
 12  4  1  0
 13 15  1  0
 13  2  1  0
 14 13  2  0
 16 17  1  1
 16 15  1  0
 17 18  1  0
 18 19  2  0
 19 20  1  0
 21 20  1  0
 22 21  2  0
 23 22  1  0
 24 25  1  0
 24 23  2  0
 25 26  2  0
 26 18  1  0
 26 21  1  0
 27 16  1  0
 28 27  2  0
 30 29  1  1
 30 31  1  0
 31 27  1  0
 32 30  1  0
 32 34  1  0
 33 32  2  0
M  END
$$$$
