WWA.pdb
     RDKit          3D

 34 37  0  0  1  0  0  0  0  0999 V2000
   25.7797  -19.8262  -15.1805 N   0  0  0  0  0  0  0  0  0  0  0  0
   24.5075  -19.6236  -14.5617 C   0  0  1  0  0  0  0  0  0  0  0  0
   23.3343  -19.7606  -15.4553 C   0  0  0  0  0  0  0  0  0  0  0  0
   23.1102  -18.6376  -16.3572 C   0  0  0  0  0  0  0  0  0  0  0  0
   23.6658  -18.3933  -17.5910 C   0  0  0  0  0  0  0  0  0  0  0  0
   23.1901  -17.2299  -18.0839 N   0  0  0  0  0  0  0  0  0  0  0  0
   22.3409  -16.7151  -17.2001 C   0  0  0  0  0  0  0  0  0  0  0  0
   21.6095  -15.5477  -17.2489 C   0  0  0  0  0  0  0  0  0  0  0  0
   20.7852  -15.2237  -16.1864 C   0  0  0  0  0  0  0  0  0  0  0  0
   20.6860  -16.0502  -15.0840 C   0  0  0  0  0  0  0  0  0  0  0  0
   21.4372  -17.2127  -15.0748 C   0  0  0  0  0  0  0  0  0  0  0  0
   22.2703  -17.5694  -16.1149 C   0  0  0  0  0  0  0  0  0  0  0  0
   24.4081  -20.5134  -13.3790 C   0  0  0  0  0  0  0  0  0  0  0  0
   24.3742  -21.7717  -13.5335 O   0  0  0  0  0  0  0  0  0  0  0  0
   24.3447  -20.0500  -12.0435 N   0  0  0  0  0  0  0  0  0  0  0  0
   23.9906  -20.9106  -10.9521 C   0  0  1  0  0  0  0  0  0  0  0  0
   24.6472  -20.5757   -9.6615 C   0  0  0  0  0  0  0  0  0  0  0  0
   26.0922  -20.8414   -9.5767 C   0  0  0  0  0  0  0  0  0  0  0  0
   26.8263  -21.6121  -10.4856 C   0  0  0  0  0  0  0  0  0  0  0  0
   28.1101  -21.6581  -10.0898 N   0  0  0  0  0  0  0  0  0  0  0  0
   28.2586  -20.9439   -8.9479 C   0  0  0  0  0  0  0  0  0  0  0  0
   29.3169  -20.6500   -8.1330 C   0  0  0  0  0  0  0  0  0  0  0  0
   29.1320  -19.8656   -7.0225 C   0  0  0  0  0  0  0  0  0  0  0  0
   27.9122  -19.3583   -6.6936 C   0  0  0  0  0  0  0  0  0  0  0  0
   26.8516  -19.6486   -7.5027 C   0  0  0  0  0  0  0  0  0  0  0  0
   27.0142  -20.4437   -8.6367 C   0  0  0  0  0  0  0  0  0  0  0  0
   22.5019  -21.0331  -10.8168 C   0  0  0  0  0  0  0  0  0  0  0  0
   21.7801  -20.0405  -10.5391 O   0  0  0  0  0  0  0  0  0  0  0  0
   19.9177  -23.5193  -11.8138 C   0  0  0  0  0  0  0  0  0  0  0  0
   20.4140  -22.4146  -10.8860 C   0  0  2  0  0  0  0  0  0  0  0  0
   21.8448  -22.2831  -10.9994 N   0  0  0  0  0  0  0  0  0  0  0  0
   19.9623  -22.6617   -9.5154 C   0  0  0  0  0  0  0  0  0  0  0  0
   20.7802  -22.9977   -8.6246 O   0  0  0  0  0  0  0  0  0  0  0  0
   18.6319  -22.5359   -9.1507 O   0  0  0  0  0  0  0  0  0  0  0  0
  2  3  1  0
  2  1  1  6
  3  4  1  0
  4  5  2  0
  6  5  1  0
  7  6  1  0
  8  7  2  0
  9  8  1  0
 10  9  2  0
 10 11  1  0
 11 12  2  0
 12  7  1  0
 12  4  1  0
 13 15  1  0
 13  2  1  0
 14 13  2  0
 16 17  1  1
 16 15  1  0
 17 18  1  0
 18 19  2  0
 19 20  1  0
 21 20  1  0
 22 21  2  0
 23 22  1  0
 24 25  1  0
 24 23  2  0
 25 26  2  0
 26 18  1  0
 26 21  1  0
 27 16  1  0
 28 27  2  0
 30 29  1  6
 30 31  1  0
 31 27  1  0
 32 30  1  0
 32 34  1  0
 33 32  2  0
M  END
$$$$
