WWA.pdb
     RDKit          3D

 34 37  0  0  1  0  0  0  0  0999 V2000
   28.5258  -20.6180  -16.2563 N   0  0  0  0  0  0  0  0  0  0  0  0
   27.6573  -20.0904  -15.2515 C   0  0  1  0  0  0  0  0  0  0  0  0
   26.4790  -19.3464  -15.7532 C   0  0  0  0  0  0  0  0  0  0  0  0
   26.7865  -18.1300  -16.4954 C   0  0  0  0  0  0  0  0  0  0  0  0
   26.7701  -17.9166  -17.8536 C   0  0  0  0  0  0  0  0  0  0  0  0
   27.1318  -16.6434  -18.1203 N   0  0  0  0  0  0  0  0  0  0  0  0
   27.3820  -16.0278  -16.9689 C   0  0  0  0  0  0  0  0  0  0  0  0
   27.7839  -14.7319  -16.7253 C   0  0  0  0  0  0  0  0  0  0  0  0
   27.9849  -14.3227  -15.4192 C   0  0  0  0  0  0  0  0  0  0  0  0
   27.7889  -15.1908  -14.3627 C   0  0  0  0  0  0  0  0  0  0  0  0
   27.3855  -16.4830  -14.6508 C   0  0  0  0  0  0  0  0  0  0  0  0
   27.1753  -16.9279  -15.9396 C   0  0  0  0  0  0  0  0  0  0  0  0
   27.2674  -21.1905  -14.3361 C   0  0  0  0  0  0  0  0  0  0  0  0
   27.2663  -22.3893  -14.7501 O   0  0  0  0  0  0  0  0  0  0  0  0
   26.8816  -20.9989  -12.9883 N   0  0  0  0  0  0  0  0  0  0  0  0
   26.2864  -22.0448  -12.2078 C   0  0  1  0  0  0  0  0  0  0  0  0
   26.9092  -22.2532  -10.8745 C   0  0  0  0  0  0  0  0  0  0  0  0
   26.6453  -21.2179   -9.8624 C   0  0  0  0  0  0  0  0  0  0  0  0
   25.4619  -20.4785   -9.7532 C   0  0  0  0  0  0  0  0  0  0  0  0
   25.5754  -19.6119   -8.7317 N   0  0  0  0  0  0  0  0  0  0  0  0
   26.7939  -19.7478   -8.1548 C   0  0  0  0  0  0  0  0  0  0  0  0
   27.4272  -19.1473   -7.1018 C   0  0  0  0  0  0  0  0  0  0  0  0
   28.6972  -19.5325   -6.7535 C   0  0  0  0  0  0  0  0  0  0  0  0
   29.3648  -20.5084   -7.4284 C   0  0  0  0  0  0  0  0  0  0  0  0
   28.7384  -21.1113   -8.4809 C   0  0  0  0  0  0  0  0  0  0  0  0
   27.4480  -20.7371   -8.8543 C   0  0  0  0  0  0  0  0  0  0  0  0
   24.7984  -21.8783  -12.1196 C   0  0  0  0  0  0  0  0  0  0  0  0
   24.0808  -22.6847  -11.4729 O   0  0  0  0  0  0  0  0  0  0  0  0
   22.3226  -19.2255  -13.1488 C   0  0  0  0  0  0  0  0  0  0  0  0
   22.7060  -20.6364  -12.7130 C   0  0  2  0  0  0  0  0  0  0  0  0
   24.1376  -20.7954  -12.7663 N   0  0  0  0  0  0  0  0  0  0  0  0
   21.9833  -21.6283  -13.5113 C   0  0  0  0  0  0  0  0  0  0  0  0
   22.5354  -22.1830  -14.4925 O   0  0  0  0  0  0  0  0  0  0  0  0
   20.6785  -21.9907  -13.2196 O   0  0  0  0  0  0  0  0  0  0  0  0
  2  3  1  0
  2  1  1  6
  3  4  1  0
  4  5  2  0
  6  5  1  0
  7  6  1  0
  8  7  2  0
  9  8  1  0
 10  9  2  0
 10 11  1  0
 11 12  2  0
 12  7  1  0
 12  4  1  0
 13 15  1  0
 13  2  1  0
 14 13  2  0
 16 17  1  1
 16 15  1  0
 17 18  1  0
 18 19  2  0
 19 20  1  0
 21 20  1  0
 22 21  2  0
 23 22  1  0
 24 25  1  0
 24 23  2  0
 25 26  2  0
 26 18  1  0
 26 21  1  0
 27 16  1  0
 28 27  2  0
 30 29  1  6
 30 31  1  0
 31 27  1  0
 32 30  1  0
 32 34  1  0
 33 32  2  0
M  END
$$$$
