WWA.pdb
     RDKit          3D

 34 37  0  0  1  0  0  0  0  0999 V2000
   27.4323  -18.3392  -14.5915 N   0  0  0  0  0  0  0  0  0  0  0  0
   27.2878  -19.5070  -15.4024 C   0  0  1  0  0  0  0  0  0  0  0  0
   28.5090  -19.9408  -16.1197 C   0  0  0  0  0  0  0  0  0  0  0  0
   29.1190  -18.9263  -16.9703 C   0  0  0  0  0  0  0  0  0  0  0  0
   30.4441  -18.5795  -17.0908 C   0  0  0  0  0  0  0  0  0  0  0  0
   30.5746  -17.5789  -17.9878 N   0  0  0  0  0  0  0  0  0  0  0  0
   29.3674  -17.2693  -18.4505 C   0  0  0  0  0  0  0  0  0  0  0  0
   28.9885  -16.3181  -19.3734 C   0  0  0  0  0  0  0  0  0  0  0  0
   27.6490  -16.1836  -19.6918 C   0  0  0  0  0  0  0  0  0  0  0  0
   26.6923  -16.9857  -19.1005 C   0  0  0  0  0  0  0  0  0  0  0  0
   27.1149  -17.9281  -18.1792 C   0  0  0  0  0  0  0  0  0  0  0  0
   28.4410  -18.0917  -17.8357 C   0  0  0  0  0  0  0  0  0  0  0  0
   26.7200  -20.5955  -14.5700 C   0  0  0  0  0  0  0  0  0  0  0  0
   26.7708  -21.7961  -14.9756 O   0  0  0  0  0  0  0  0  0  0  0  0
   26.1026  -20.3905  -13.3134 N   0  0  0  0  0  0  0  0  0  0  0  0
   25.2585  -21.3786  -12.7065 C   0  0  1  0  0  0  0  0  0  0  0  0
   25.8817  -22.1151  -11.5759 C   0  0  0  0  0  0  0  0  0  0  0  0
   26.2436  -21.3136  -10.3960 C   0  0  0  0  0  0  0  0  0  0  0  0
   25.3406  -20.6150   -9.5864 C   0  0  0  0  0  0  0  0  0  0  0  0
   26.0185  -19.9799   -8.6148 N   0  0  0  0  0  0  0  0  0  0  0  0
   27.3435  -20.2310   -8.7475 C   0  0  0  0  0  0  0  0  0  0  0  0
   28.4624  -19.8619   -8.0530 C   0  0  0  0  0  0  0  0  0  0  0  0
   29.6969  -20.3093   -8.4511 C   0  0  0  0  0  0  0  0  0  0  0  0
   29.8548  -21.1222   -9.5317 C   0  0  0  0  0  0  0  0  0  0  0  0
   28.7418  -21.4937  -10.2295 C   0  0  0  0  0  0  0  0  0  0  0  0
   27.4763  -21.0520   -9.8447 C   0  0  0  0  0  0  0  0  0  0  0  0
   23.9226  -20.8028  -12.3413 C   0  0  0  0  0  0  0  0  0  0  0  0
   23.7441  -19.5613  -12.2393 O   0  0  0  0  0  0  0  0  0  0  0  0
   21.6232  -19.9542  -10.8035 C   0  0  0  0  0  0  0  0  0  0  0  0
   21.4960  -21.1033  -11.7988 C   0  0  2  0  0  0  0  0  0  0  0  0
   22.7992  -21.6427  -12.0961 N   0  0  0  0  0  0  0  0  0  0  0  0
   20.7657  -20.6651  -12.9896 C   0  0  0  0  0  0  0  0  0  0  0  0
   21.3264  -20.6487  -14.1124 O   0  0  0  0  0  0  0  0  0  0  0  0
   19.4435  -20.2567  -12.9266 O   0  0  0  0  0  0  0  0  0  0  0  0
  2  3  1  0
  2  1  1  1
  3  4  1  0
  4  5  2  0
  6  5  1  0
  7  6  1  0
  8  7  2  0
  9  8  1  0
 10  9  2  0
 10 11  1  0
 11 12  2  0
 12  7  1  0
 12  4  1  0
 13 15  1  0
 13  2  1  0
 14 13  2  0
 16 17  1  1
 16 15  1  0
 17 18  1  0
 18 19  2  0
 19 20  1  0
 21 20  1  0
 22 21  2  0
 23 22  1  0
 24 25  1  0
 24 23  2  0
 25 26  2  0
 26 18  1  0
 26 21  1  0
 27 16  1  0
 28 27  2  0
 30 29  1  1
 30 31  1  0
 31 27  1  0
 32 30  1  0
 32 34  1  0
 33 32  2  0
M  END
$$$$
