WWA.pdb
     RDKit          3D

 34 37  0  0  1  0  0  0  0  0999 V2000
   27.8902  -19.2684  -16.0497 N   0  0  0  0  0  0  0  0  0  0  0  0
   26.9930  -18.9619  -14.9804 C   0  0  1  0  0  0  0  0  0  0  0  0
   25.9192  -17.9951  -15.3058 C   0  0  0  0  0  0  0  0  0  0  0  0
   26.3688  -16.6286  -15.5412 C   0  0  0  0  0  0  0  0  0  0  0  0
   27.4827  -15.9870  -15.0533 C   0  0  0  0  0  0  0  0  0  0  0  0
   27.5171  -14.7181  -15.5131 N   0  0  0  0  0  0  0  0  0  0  0  0
   26.4533  -14.5223  -16.2860 C   0  0  0  0  0  0  0  0  0  0  0  0
   26.0516  -13.3970  -16.9734 C   0  0  0  0  0  0  0  0  0  0  0  0
   24.8866  -13.4419  -17.7179 C   0  0  0  0  0  0  0  0  0  0  0  0
   24.1255  -14.5931  -17.7811 C   0  0  0  0  0  0  0  0  0  0  0  0
   24.5642  -15.7005  -17.0762 C   0  0  0  0  0  0  0  0  0  0  0  0
   25.7198  -15.6941  -16.3228 C   0  0  0  0  0  0  0  0  0  0  0  0
   26.4484  -20.2312  -14.4395 C   0  0  0  0  0  0  0  0  0  0  0  0
   26.1043  -21.1613  -15.2301 O   0  0  0  0  0  0  0  0  0  0  0  0
   26.2756  -20.4937  -13.0599 N   0  0  0  0  0  0  0  0  0  0  0  0
   25.6030  -21.6675  -12.5837 C   0  0  1  0  0  0  0  0  0  0  0  0
   26.1038  -22.1832  -11.2829 C   0  0  0  0  0  0  0  0  0  0  0  0
   26.1978  -21.2060  -10.1866 C   0  0  0  0  0  0  0  0  0  0  0  0
   25.1634  -20.3618   -9.7664 C   0  0  0  0  0  0  0  0  0  0  0  0
   25.6050  -19.5905   -8.7579 N   0  0  0  0  0  0  0  0  0  0  0  0
   26.8988  -19.8913   -8.4897 C   0  0  0  0  0  0  0  0  0  0  0  0
   27.8195  -19.4386   -7.5855 C   0  0  0  0  0  0  0  0  0  0  0  0
   29.0824  -19.9747   -7.5638 C   0  0  0  0  0  0  0  0  0  0  0  0
   29.4623  -20.9589   -8.4242 C   0  0  0  0  0  0  0  0  0  0  0  0
   28.5479  -21.4147   -9.3297 C   0  0  0  0  0  0  0  0  0  0  0  0
   27.2584  -20.8857   -9.3715 C   0  0  0  0  0  0  0  0  0  0  0  0
   24.1148  -21.4802  -12.5852 C   0  0  0  0  0  0  0  0  0  0  0  0
   23.5875  -20.3790  -12.2806 O   0  0  0  0  0  0  0  0  0  0  0  0
   21.1827  -23.4123  -13.9000 C   0  0  0  0  0  0  0  0  0  0  0  0
   21.8071  -22.3718  -12.9754 C   0  0  2  0  0  0  0  0  0  0  0  0
   23.2374  -22.5459  -12.9341 N   0  0  0  0  0  0  0  0  0  0  0  0
   21.1793  -22.4249  -11.6538 C   0  0  0  0  0  0  0  0  0  0  0  0
   21.8269  -22.8226  -10.6550 O   0  0  0  0  0  0  0  0  0  0  0  0
   19.8627  -22.0430  -11.4547 O   0  0  0  0  0  0  0  0  0  0  0  0
  2  3  1  0
  2  1  1  6
  3  4  1  0
  4  5  2  0
  6  5  1  0
  7  6  1  0
  8  7  2  0
  9  8  1  0
 10  9  2  0
 10 11  1  0
 11 12  2  0
 12  7  1  0
 12  4  1  0
 13 15  1  0
 13  2  1  0
 14 13  2  0
 16 17  1  1
 16 15  1  0
 17 18  1  0
 18 19  2  0
 19 20  1  0
 21 20  1  0
 22 21  2  0
 23 22  1  0
 24 25  1  0
 24 23  2  0
 25 26  2  0
 26 18  1  0
 26 21  1  0
 27 16  1  0
 28 27  2  0
 30 29  1  6
 30 31  1  0
 31 27  1  0
 32 30  1  0
 32 34  1  0
 33 32  2  0
M  END
$$$$
