WWA.pdb
     RDKit          3D

 34 37  0  0  1  0  0  0  0  0999 V2000
   27.1884  -22.9108  -12.5089 N   0  0  0  0  0  0  0  0  0  0  0  0
   26.2525  -22.0517  -11.8544 C   0  0  1  0  0  0  0  0  0  0  0  0
   26.8088  -20.7822  -11.3323 C   0  0  0  0  0  0  0  0  0  0  0  0
   27.8708  -20.9327  -10.3451 C   0  0  0  0  0  0  0  0  0  0  0  0
   29.1179  -21.4924  -10.4930 C   0  0  0  0  0  0  0  0  0  0  0  0
   29.7855  -21.4368   -9.3208 N   0  0  0  0  0  0  0  0  0  0  0  0
   29.0016  -20.8555   -8.4181 C   0  0  0  0  0  0  0  0  0  0  0  0
   29.2348  -20.5785   -7.0880 C   0  0  0  0  0  0  0  0  0  0  0  0
   28.2455  -19.9601   -6.3447 C   0  0  0  0  0  0  0  0  0  0  0  0
   27.0346  -19.6185   -6.9150 C   0  0  0  0  0  0  0  0  0  0  0  0
   26.8410  -19.9142   -8.2531 C   0  0  0  0  0  0  0  0  0  0  0  0
   27.8031  -20.5302   -9.0266 C   0  0  0  0  0  0  0  0  0  0  0  0
   25.1049  -21.8190  -12.7648 C   0  0  0  0  0  0  0  0  0  0  0  0
   25.2311  -21.0399  -13.7577 O   0  0  0  0  0  0  0  0  0  0  0  0
   23.8338  -22.4197  -12.6050 N   0  0  0  0  0  0  0  0  0  0  0  0
   22.7805  -22.2457  -13.5629 C   0  0  1  0  0  0  0  0  0  0  0  0
   22.5058  -23.4395  -14.4046 C   0  0  0  0  0  0  0  0  0  0  0  0
   23.5972  -23.8793  -15.2885 C   0  0  0  0  0  0  0  0  0  0  0  0
   24.4952  -24.9156  -15.0085 C   0  0  0  0  0  0  0  0  0  0  0  0
   25.3679  -25.0303  -16.0245 N   0  0  0  0  0  0  0  0  0  0  0  0
   25.0829  -24.1063  -16.9738 C   0  0  0  0  0  0  0  0  0  0  0  0
   25.6216  -23.7841  -18.1889 C   0  0  0  0  0  0  0  0  0  0  0  0
   25.0759  -22.7705  -18.9355 C   0  0  0  0  0  0  0  0  0  0  0  0
   23.9979  -22.0588  -18.5055 C   0  0  0  0  0  0  0  0  0  0  0  0
   23.4559  -22.3751  -17.2931 C   0  0  0  0  0  0  0  0  0  0  0  0
   23.9928  -23.4009  -16.5159 C   0  0  0  0  0  0  0  0  0  0  0  0
   21.5385  -21.7102  -12.9146 C   0  0  0  0  0  0  0  0  0  0  0  0
   21.1083  -22.1748  -11.8271 O   0  0  0  0  0  0  0  0  0  0  0  0
   19.2212  -18.7999  -13.5758 C   0  0  0  0  0  0  0  0  0  0  0  0
   19.6284  -20.0908  -12.8721 C   0  0  2  0  0  0  0  0  0  0  0  0
   20.7956  -20.6496  -13.5069 N   0  0  0  0  0  0  0  0  0  0  0  0
   18.4975  -21.0191  -12.8199 C   0  0  0  0  0  0  0  0  0  0  0  0
   18.3190  -21.8597  -13.7347 O   0  0  0  0  0  0  0  0  0  0  0  0
   17.5910  -21.0081  -11.7726 O   0  0  0  0  0  0  0  0  0  0  0  0
  2  3  1  0
  2  1  1  6
  3  4  1  0
  4  5  2  0
  6  5  1  0
  7  6  1  0
  8  7  2  0
  9  8  1  0
 10  9  2  0
 10 11  1  0
 11 12  2  0
 12  7  1  0
 12  4  1  0
 13 15  1  0
 13  2  1  0
 14 13  2  0
 16 17  1  1
 16 15  1  0
 17 18  1  0
 18 19  2  0
 19 20  1  0
 21 20  1  0
 22 21  2  0
 23 22  1  0
 24 25  1  0
 24 23  2  0
 25 26  2  0
 26 18  1  0
 26 21  1  0
 27 16  1  0
 28 27  2  0
 30 29  1  6
 30 31  1  0
 31 27  1  0
 32 30  1  0
 32 34  1  0
 33 32  2  0
M  END
$$$$
