CVE.pdb
     RDKit          3D

 23 22  0  0  1  0  0  0  0  0999 V2000
    7.4451  -14.9520   20.8283 N   0  0  0  0  0  0  0  0  0  0  0  0
    6.8453  -15.1668   22.1091 C   0  0  1  0  0  0  0  0  0  0  0  0
    6.6115  -16.6536   22.2827 C   0  0  0  0  0  0  0  0  0  0  0  0
    5.8433  -17.0264   23.8730 S   0  0  0  0  0  0  0  0  0  0  0  0
    7.7671  -14.7558   23.2267 C   0  0  0  0  0  0  0  0  0  0  0  0
    8.9977  -14.9997   23.1449 O   0  0  0  0  0  0  0  0  0  0  0  0
    6.5528  -11.7169   25.3597 C   0  0  0  0  0  0  0  0  0  0  0  0
    7.4245  -12.5752   26.2109 C   0  0  1  0  0  0  0  0  0  0  0  0
    6.5835  -13.2145   27.2962 C   0  0  0  0  0  0  0  0  0  0  0  0
    8.1517  -13.6504   25.4633 C   0  0  2  0  0  0  0  0  0  0  0  0
    7.2960  -14.0967   24.3812 N   0  0  0  0  0  0  0  0  0  0  0  0
    8.4737  -14.7923   26.3642 C   0  0  0  0  0  0  0  0  0  0  0  0
    7.6406  -15.6892   26.6446 O   0  0  0  0  0  0  0  0  0  0  0  0
    9.7592  -14.9119   26.9510 N   0  0  0  0  0  0  0  0  0  0  0  0
   10.1946  -16.1839   27.4927 C   0  0  1  0  0  0  0  0  0  0  0  0
   11.4078  -16.7191   26.7672 C   0  0  0  0  0  0  0  0  0  0  0  0
   11.8882  -18.0166   27.4079 C   0  0  0  0  0  0  0  0  0  0  0  0
   13.0500  -18.5727   26.6749 C   0  0  0  0  0  0  0  0  0  0  0  0
   13.9356  -19.1599   27.3200 O   0  0  0  0  0  0  0  0  0  0  0  0
   10.4388  -16.0087   28.9349 C   0  0  0  0  0  0  0  0  0  0  0  0
   10.6629  -17.0964   29.7924 O   0  0  0  0  0  0  0  0  0  0  0  0
   13.1883  -18.4645   25.3003 O   0  0  0  0  0  0  0  0  0  0  0  0
   10.4586  -14.8732   29.4696 O   0  0  0  0  0  0  0  0  0  0  0  0
  2  1  1  6
  3  2  1  0
  4  3  1  0
  5  2  1  0
  6  5  2  0
  8  9  1  1
  8  7  1  0
 10  8  1  0
 10 11  1  6
 11  5  1  0
 12 10  1  0
 13 12  2  0
 14 12  1  0
 15 14  1  0
 15 16  1  6
 17 16  1  0
 18 17  1  0
 19 18  2  0
 20 15  1  0
 20 21  1  0
 22 18  1  0
 23 20  2  0
M  END
$$$$
