CVE.pdb
     RDKit          3D

 23 22  0  0  1  0  0  0  0  0999 V2000
    8.0163  -13.4629   16.6078 N   0  0  0  0  0  0  0  0  0  0  0  0
    8.0464  -14.6006   17.4743 C   0  0  1  0  0  0  0  0  0  0  0  0
    8.9614  -15.6418   16.8626 C   0  0  0  0  0  0  0  0  0  0  0  0
    8.1098  -16.6248   15.6109 S   0  0  0  0  0  0  0  0  0  0  0  0
    8.6407  -14.2584   18.8150 C   0  0  0  0  0  0  0  0  0  0  0  0
    9.6818  -13.5563   18.8774 O   0  0  0  0  0  0  0  0  0  0  0  0
    6.6498  -15.5903   22.3630 C   0  0  0  0  0  0  0  0  0  0  0  0
    7.4821  -14.3552   22.3083 C   0  0  1  0  0  0  0  0  0  0  0  0
    8.0347  -14.0678   23.6889 C   0  0  0  0  0  0  0  0  0  0  0  0
    8.6182  -14.4188   21.3341 C   0  0  2  0  0  0  0  0  0  0  0  0
    8.0655  -14.7021   20.0239 N   0  0  0  0  0  0  0  0  0  0  0  0
    9.5851  -15.4837   21.7219 C   0  0  0  0  0  0  0  0  0  0  0  0
    9.4954  -16.6645   21.3036 O   0  0  0  0  0  0  0  0  0  0  0  0
   10.6651  -15.1984   22.5956 N   0  0  0  0  0  0  0  0  0  0  0  0
   11.6438  -16.2236   22.8991 C   0  0  1  0  0  0  0  0  0  0  0  0
   13.0583  -15.7050   22.7778 C   0  0  0  0  0  0  0  0  0  0  0  0
   14.0633  -16.7992   23.1209 C   0  0  0  0  0  0  0  0  0  0  0  0
   15.4521  -16.2874   23.0460 C   0  0  0  0  0  0  0  0  0  0  0  0
   15.6488  -15.1717   22.5345 O   0  0  0  0  0  0  0  0  0  0  0  0
   11.3553  -16.7490   24.2449 C   0  0  0  0  0  0  0  0  0  0  0  0
   11.8129  -18.0052   24.6706 O   0  0  0  0  0  0  0  0  0  0  0  0
   16.5391  -17.0024   23.5229 O   0  0  0  0  0  0  0  0  0  0  0  0
   10.6833  -16.0961   25.0801 O   0  0  0  0  0  0  0  0  0  0  0  0
  2  1  1  6
  3  2  1  0
  4  3  1  0
  5  2  1  0
  6  5  2  0
  8  9  1  1
  8  7  1  0
 10  8  1  0
 10 11  1  6
 11  5  1  0
 12 10  1  0
 13 12  2  0
 14 12  1  0
 15 14  1  0
 15 16  1  1
 17 16  1  0
 18 17  1  0
 19 18  2  0
 20 15  1  0
 20 21  1  0
 22 18  1  0
 23 20  2  0
M  END
$$$$
