CVE.pdb
     RDKit          3D

 23 22  0  0  1  0  0  0  0  0999 V2000
    9.4609  -17.8036   17.0679 N   0  0  0  0  0  0  0  0  0  0  0  0
    8.4473  -17.3308   17.9597 C   0  0  1  0  0  0  0  0  0  0  0  0
    7.9270  -18.5089   18.7577 C   0  0  0  0  0  0  0  0  0  0  0  0
    8.0837  -20.0562   17.8414 S   0  0  0  0  0  0  0  0  0  0  0  0
    9.0057  -16.3591   18.9654 C   0  0  0  0  0  0  0  0  0  0  0  0
   10.1899  -15.9522   18.8521 O   0  0  0  0  0  0  0  0  0  0  0  0
    7.5536  -13.0345   22.3588 C   0  0  0  0  0  0  0  0  0  0  0  0
    7.3841  -13.9977   21.2342 C   0  0  1  0  0  0  0  0  0  0  0  0
    6.8948  -13.2509   20.0108 C   0  0  0  0  0  0  0  0  0  0  0  0
    8.6265  -14.7543   20.8767 C   0  0  2  0  0  0  0  0  0  0  0  0
    8.2394  -15.8793   20.0479 N   0  0  0  0  0  0  0  0  0  0  0  0
    9.3195  -15.2381   22.1035 C   0  0  0  0  0  0  0  0  0  0  0  0
    9.7643  -14.4584   22.9818 O   0  0  0  0  0  0  0  0  0  0  0  0
    9.5068  -16.6254   22.3304 N   0  0  0  0  0  0  0  0  0  0  0  0
   10.1990  -17.0797   23.5201 C   0  0  1  0  0  0  0  0  0  0  0  0
   10.9962  -18.3375   23.2619 C   0  0  0  0  0  0  0  0  0  0  0  0
   10.1742  -19.3394   22.4585 C   0  0  0  0  0  0  0  0  0  0  0  0
   10.9928  -20.5149   22.0784 C   0  0  0  0  0  0  0  0  0  0  0  0
   10.5230  -21.3302   21.2662 O   0  0  0  0  0  0  0  0  0  0  0  0
   11.0420  -15.9752   24.0100 C   0  0  0  0  0  0  0  0  0  0  0  0
   11.1495  -15.6656   25.3742 O   0  0  0  0  0  0  0  0  0  0  0  0
   12.2599  -20.7411   22.5919 O   0  0  0  0  0  0  0  0  0  0  0  0
   11.7081  -15.2540   23.2278 O   0  0  0  0  0  0  0  0  0  0  0  0
  2  1  1  6
  3  2  1  0
  4  3  1  0
  5  2  1  0
  6  5  2  0
  8  9  1  6
  8  7  1  0
 10  8  1  0
 10 11  1  6
 11  5  1  0
 12 10  1  0
 13 12  2  0
 14 12  1  0
 15 14  1  0
 15 16  1  6
 17 16  1  0
 18 17  1  0
 19 18  2  0
 20 15  1  0
 20 21  1  0
 22 18  1  0
 23 20  2  0
M  END
$$$$
