CVE.pdb
     RDKit          3D

 23 22  0  0  1  0  0  0  0  0999 V2000
    7.7818  -12.6255   20.1392 N   0  0  0  0  0  0  0  0  0  0  0  0
    7.0968  -13.3945   21.1319 C   0  0  1  0  0  0  0  0  0  0  0  0
    6.8868  -14.7938   20.5901 C   0  0  0  0  0  0  0  0  0  0  0  0
    6.0588  -15.8565   21.7914 S   0  0  0  0  0  0  0  0  0  0  0  0
    7.9256  -13.5498   22.3796 C   0  0  0  0  0  0  0  0  0  0  0  0
    9.1576  -13.7829   22.2876 O   0  0  0  0  0  0  0  0  0  0  0  0
    7.2200  -11.3493   25.7408 C   0  0  0  0  0  0  0  0  0  0  0  0
    7.3712  -12.8145   25.9680 C   0  0  1  0  0  0  0  0  0  0  0  0
    5.9983  -13.4410   26.0965 C   0  0  0  0  0  0  0  0  0  0  0  0
    8.1332  -13.5303   24.8952 C   0  0  2  0  0  0  0  0  0  0  0  0
    7.3645  -13.4423   23.6690 N   0  0  0  0  0  0  0  0  0  0  0  0
    8.3455  -14.9580   25.2638 C   0  0  0  0  0  0  0  0  0  0  0  0
    7.4997  -15.8534   25.0188 O   0  0  0  0  0  0  0  0  0  0  0  0
    9.5348  -15.3681   25.9184 N   0  0  0  0  0  0  0  0  0  0  0  0
    9.9002  -16.7705   25.9492 C   0  0  1  0  0  0  0  0  0  0  0  0
   11.1171  -17.0540   25.0989 C   0  0  0  0  0  0  0  0  0  0  0  0
   11.4557  -18.5404   25.1236 C   0  0  0  0  0  0  0  0  0  0  0  0
   12.7161  -18.8105   24.3922 C   0  0  0  0  0  0  0  0  0  0  0  0
   13.1998  -17.9088   23.6862 O   0  0  0  0  0  0  0  0  0  0  0  0
   10.0983  -17.1619   27.3556 C   0  0  0  0  0  0  0  0  0  0  0  0
   10.1269  -18.5050   27.7604 O   0  0  0  0  0  0  0  0  0  0  0  0
   13.3762  -20.0268   24.4638 O   0  0  0  0  0  0  0  0  0  0  0  0
   10.2519  -16.3098   28.2643 O   0  0  0  0  0  0  0  0  0  0  0  0
  2  1  1  6
  3  2  1  0
  4  3  1  0
  5  2  1  0
  6  5  2  0
  8  9  1  6
  8  7  1  0
 10  8  1  0
 10 11  1  6
 11  5  1  0
 12 10  1  0
 13 12  2  0
 14 12  1  0
 15 14  1  0
 15 16  1  6
 17 16  1  0
 18 17  1  0
 19 18  2  0
 20 15  1  0
 20 21  1  0
 22 18  1  0
 23 20  2  0
M  END
$$$$
