CVE.pdb
     RDKit          3D

 23 22  0  0  1  0  0  0  0  0999 V2000
    7.6409  -14.1341   20.1606 N   0  0  0  0  0  0  0  0  0  0  0  0
    7.0477  -14.7476   21.3087 C   0  0  1  0  0  0  0  0  0  0  0  0
    7.2197  -16.2481   21.1899 C   0  0  0  0  0  0  0  0  0  0  0  0
    6.5026  -17.1151   22.6013 S   0  0  0  0  0  0  0  0  0  0  0  0
    7.7534  -14.3454   22.5767 C   0  0  0  0  0  0  0  0  0  0  0  0
    9.0012  -14.1912   22.5766 O   0  0  0  0  0  0  0  0  0  0  0  0
    7.1983  -13.0680   27.3729 C   0  0  0  0  0  0  0  0  0  0  0  0
    6.7107  -13.2683   25.9788 C   0  0  1  0  0  0  0  0  0  0  0  0
    6.3029  -11.9299   25.3987 C   0  0  0  0  0  0  0  0  0  0  0  0
    7.7062  -13.9116   25.0629 C   0  0  2  0  0  0  0  0  0  0  0  0
    7.0579  -14.1312   23.7847 N   0  0  0  0  0  0  0  0  0  0  0  0
    8.1783  -15.2077   25.6257 C   0  0  0  0  0  0  0  0  0  0  0  0
    7.4421  -16.2225   25.6982 O   0  0  0  0  0  0  0  0  0  0  0  0
    9.5037  -15.3471   26.1106 N   0  0  0  0  0  0  0  0  0  0  0  0
   10.0151  -16.6577   26.4594 C   0  0  1  0  0  0  0  0  0  0  0  0
   11.3579  -16.9264   25.8198 C   0  0  0  0  0  0  0  0  0  0  0  0
   11.8680  -18.3114   26.2025 C   0  0  0  0  0  0  0  0  0  0  0  0
   13.2057  -18.5653   25.6173 C   0  0  0  0  0  0  0  0  0  0  0  0
   13.7314  -17.6765   24.9253 O   0  0  0  0  0  0  0  0  0  0  0  0
   10.0674  -16.7534   27.9286 C   0  0  0  0  0  0  0  0  0  0  0  0
   10.1476  -17.9856   28.5948 O   0  0  0  0  0  0  0  0  0  0  0  0
   13.8932  -19.7529   25.8106 O   0  0  0  0  0  0  0  0  0  0  0  0
   10.0427  -15.7332   28.6595 O   0  0  0  0  0  0  0  0  0  0  0  0
  2  1  1  6
  3  2  1  0
  4  3  1  0
  5  2  1  0
  6  5  2  0
  8  9  1  6
  8  7  1  0
 10  8  1  0
 10 11  1  6
 11  5  1  0
 12 10  1  0
 13 12  2  0
 14 12  1  0
 15 14  1  0
 15 16  1  6
 17 16  1  0
 18 17  1  0
 19 18  2  0
 20 15  1  0
 20 21  1  0
 22 18  1  0
 23 20  2  0
M  END
$$$$
