CVE.pdb
     RDKit          3D

 23 22  0  0  1  0  0  0  0  0999 V2000
    7.8993  -13.4817   19.9245 N   0  0  0  0  0  0  0  0  0  0  0  0
    7.1590  -14.0371   21.0151 C   0  0  1  0  0  0  0  0  0  0  0  0
    6.9180  -15.5053   20.7293 C   0  0  0  0  0  0  0  0  0  0  0  0
    6.0946  -16.3268   22.1097 S   0  0  0  0  0  0  0  0  0  0  0  0
    7.9440  -13.9850   22.2992 C   0  0  0  0  0  0  0  0  0  0  0  0
    9.1712  -14.2583   22.2941 O   0  0  0  0  0  0  0  0  0  0  0  0
    5.8997  -13.2075   26.0133 C   0  0  0  0  0  0  0  0  0  0  0  0
    7.2805  -12.7239   25.7288 C   0  0  1  0  0  0  0  0  0  0  0  0
    8.0423  -12.6032   27.0323 C   0  0  0  0  0  0  0  0  0  0  0  0
    8.0585  -13.5944   24.7904 C   0  0  2  0  0  0  0  0  0  0  0  0
    7.3465  -13.6358   23.5280 N   0  0  0  0  0  0  0  0  0  0  0  0
    8.1987  -14.9707   25.3432 C   0  0  0  0  0  0  0  0  0  0  0  0
    7.2403  -15.7806   25.3942 O   0  0  0  0  0  0  0  0  0  0  0  0
    9.4450  -15.4273   25.8427 N   0  0  0  0  0  0  0  0  0  0  0  0
    9.5899  -16.7987   26.2890 C   0  0  1  0  0  0  0  0  0  0  0  0
   10.4797  -17.5998   25.3665 C   0  0  0  0  0  0  0  0  0  0  0  0
   11.8286  -16.9114   25.1891 C   0  0  0  0  0  0  0  0  0  0  0  0
   12.6780  -17.6479   24.2235 C   0  0  0  0  0  0  0  0  0  0  0  0
   13.0936  -17.0478   23.2174 O   0  0  0  0  0  0  0  0  0  0  0  0
   10.0939  -16.7796   27.6732 C   0  0  0  0  0  0  0  0  0  0  0  0
   10.4471  -15.5875   28.3235 O   0  0  0  0  0  0  0  0  0  0  0  0
   13.0271  -18.9776   24.3974 O   0  0  0  0  0  0  0  0  0  0  0  0
   10.2326  -17.8330   28.3415 O   0  0  0  0  0  0  0  0  0  0  0  0
  2  1  1  6
  3  2  1  0
  4  3  1  0
  5  2  1  0
  6  5  2  0
  8  9  1  1
  8  7  1  0
 10  8  1  0
 10 11  1  6
 11  5  1  0
 12 10  1  0
 13 12  2  0
 14 12  1  0
 15 14  1  0
 15 16  1  6
 17 16  1  0
 18 17  1  0
 19 18  2  0
 20 15  1  0
 20 21  1  0
 22 18  1  0
 23 20  2  0
M  END
$$$$
