CVE.pdb
     RDKit          3D

 23 22  0  0  1  0  0  0  0  0999 V2000
    6.4573  -15.9213   21.6675 N   0  0  0  0  0  0  0  0  0  0  0  0
    7.8862  -15.8886   21.6111 C   0  0  1  0  0  0  0  0  0  0  0  0
    8.2972  -15.0742   20.4015 C   0  0  0  0  0  0  0  0  0  0  0  0
    7.8013  -13.3460   20.5616 S   0  0  0  0  0  0  0  0  0  0  0  0
    8.4704  -15.1840   22.8070 C   0  0  0  0  0  0  0  0  0  0  0  0
    9.7156  -15.0379   22.9009 O   0  0  0  0  0  0  0  0  0  0  0  0
    5.8416  -13.5628   25.8095 C   0  0  0  0  0  0  0  0  0  0  0  0
    7.1863  -13.0095   25.4823 C   0  0  1  0  0  0  0  0  0  0  0  0
    7.7341  -12.2871   26.6956 C   0  0  0  0  0  0  0  0  0  0  0  0
    8.1836  -14.0340   25.0357 C   0  0  2  0  0  0  0  0  0  0  0  0
    7.6618  -14.6728   23.8433 N   0  0  0  0  0  0  0  0  0  0  0  0
    8.4087  -15.0493   26.1023 C   0  0  0  0  0  0  0  0  0  0  0  0
    7.5515  -15.9162   26.4036 O   0  0  0  0  0  0  0  0  0  0  0  0
    9.6242  -15.0757   26.8325 N   0  0  0  0  0  0  0  0  0  0  0  0
    9.8953  -16.1627   27.7522 C   0  0  1  0  0  0  0  0  0  0  0  0
   10.9076  -17.1351   27.1917 C   0  0  0  0  0  0  0  0  0  0  0  0
   12.1872  -16.4083   26.7925 C   0  0  0  0  0  0  0  0  0  0  0  0
   13.1103  -17.3155   26.0706 C   0  0  0  0  0  0  0  0  0  0  0  0
   12.7784  -18.5035   25.9166 O   0  0  0  0  0  0  0  0  0  0  0  0
   10.3302  -15.5811   29.0340 C   0  0  0  0  0  0  0  0  0  0  0  0
   10.6028  -16.3731   30.1597 O   0  0  0  0  0  0  0  0  0  0  0  0
   14.3276  -16.8927   25.5608 O   0  0  0  0  0  0  0  0  0  0  0  0
   10.4789  -14.3437   29.1828 O   0  0  0  0  0  0  0  0  0  0  0  0
  2  1  1  1
  3  2  1  0
  4  3  1  0
  5  2  1  0
  6  5  2  0
  8  9  1  1
  8  7  1  0
 10  8  1  0
 10 11  1  6
 11  5  1  0
 12 10  1  0
 13 12  2  0
 14 12  1  0
 15 14  1  0
 15 16  1  6
 17 16  1  0
 18 17  1  0
 19 18  2  0
 20 15  1  0
 20 21  1  0
 22 18  1  0
 23 20  2  0
M  END
$$$$
