ETR.pdb
     RDKit          3D

 28 27  0  0  1  0  0  0  0  0999 V2000
   21.1735  -16.1289  -16.9247 N   0  0  0  0  0  0  0  0  0  0  0  0
   22.0411  -16.5401  -15.8068 C   0  0  1  0  0  0  0  0  0  0  0  0
   21.5265  -17.8568  -15.2384 C   0  0  0  0  0  0  0  0  0  0  0  0
   20.0186  -17.9230  -15.4358 C   0  0  0  0  0  0  0  0  0  0  0  0
   19.3947  -17.7313  -14.1120 C   0  0  0  0  0  0  0  0  0  0  0  0
   19.9033  -18.2046  -13.0627 O   0  0  0  0  0  0  0  0  0  0  0  0
   23.3803  -16.8038  -16.3812 C   0  0  0  0  0  0  0  0  0  0  0  0
   23.5145  -17.2098  -17.5838 O   0  0  0  0  0  0  0  0  0  0  0  0
   18.2176  -17.0162  -13.9899 O   0  0  0  0  0  0  0  0  0  0  0  0
   26.5987  -14.5732  -15.8954 C   0  0  0  0  0  0  0  0  0  0  0  0
   26.8835  -15.9730  -15.3794 C   0  0  1  0  0  0  0  0  0  0  0  0
   26.6356  -16.0838  -14.0221 O   0  0  0  0  0  0  0  0  0  0  0  0
   25.8503  -16.8677  -16.0836 C   0  0  2  0  0  0  0  0  0  0  0  0
   24.5250  -16.5949  -15.5623 N   0  0  0  0  0  0  0  0  0  0  0  0
   26.2200  -18.2612  -15.7283 C   0  0  0  0  0  0  0  0  0  0  0  0
   25.6860  -18.8392  -14.7165 O   0  0  0  0  0  0  0  0  0  0  0  0
   22.9046  -25.3248  -16.0681 N   0  0  0  0  0  0  0  0  0  0  0  0
   24.2508  -25.7684  -15.9016 C   0  0  0  0  0  0  0  0  0  0  0  0
   24.4854  -27.0340  -15.8497 N   0  0  0  0  0  0  0  0  0  0  0  0
   25.3145  -24.8484  -15.7927 N   0  0  0  0  0  0  0  0  0  0  0  0
   25.0675  -23.4217  -15.9895 C   0  0  0  0  0  0  0  0  0  0  0  0
   26.3668  -22.6879  -15.8766 C   0  0  0  0  0  0  0  0  0  0  0  0
   26.1797  -21.2248  -16.0697 C   0  0  0  0  0  0  0  0  0  0  0  0
   27.4377  -20.4054  -16.0181 C   0  0  2  0  0  0  0  0  0  0  0  0
   27.1537  -19.0291  -16.4521 N   0  0  0  0  0  0  0  0  0  0  0  0
   28.5041  -20.9105  -16.9016 C   0  0  0  0  0  0  0  0  0  0  0  0
   29.4086  -21.8935  -16.5300 O   0  0  0  0  0  0  0  0  0  0  0  0
   28.6292  -20.4494  -18.0553 O   0  0  0  0  0  0  0  0  0  0  0  0
  2  1  1  6
  3  2  1  0
  4  3  1  0
  5  4  1  0
  5  6  2  0
  7  8  2  0
  7  2  1  0
  9  5  1  0
 11 10  1  6
 12 11  1  0
 13 11  1  0
 13 14  1  1
 14  7  1  0
 15 13  1  0
 16 15  2  0
 18 17  1  0
 18 19  2  0
 20 18  1  0
 21 20  1  0
 21 22  1  0
 24 23  1  6
 23 22  1  0
 24 25  1  0
 25 15  1  0
 26 27  1  0
 26 24  1  0
 28 26  2  0
M  END
$$$$
