ETR.pdb
     RDKit          3D

 28 27  0  0  1  0  0  0  0  0999 V2000
   16.2650   -4.0181  -11.8722 N   0  0  0  0  0  0  0  0  0  0  0  0
   17.4376   -4.7529  -11.3657 C   0  0  1  0  0  0  0  0  0  0  0  0
   17.0372   -5.5230  -10.1134 C   0  0  0  0  0  0  0  0  0  0  0  0
   16.6354   -4.5300   -9.0318 C   0  0  0  0  0  0  0  0  0  0  0  0
   16.3234   -5.3081   -7.8169 C   0  0  0  0  0  0  0  0  0  0  0  0
   16.7493   -6.4806   -7.6510 O   0  0  0  0  0  0  0  0  0  0  0  0
   17.7940   -5.7516  -12.3995 C   0  0  0  0  0  0  0  0  0  0  0  0
   16.9726   -6.0662  -13.3244 O   0  0  0  0  0  0  0  0  0  0  0  0
   15.5431   -4.7598   -6.8158 O   0  0  0  0  0  0  0  0  0  0  0  0
   21.2101   -8.7592  -14.2312 C   0  0  0  0  0  0  0  0  0  0  0  0
   20.9547   -7.6802  -13.1932 C   0  0  1  0  0  0  0  0  0  0  0  0
   21.6495   -6.5168  -13.4753 O   0  0  0  0  0  0  0  0  0  0  0  0
   19.4623   -7.3406  -13.3404 C   0  0  2  0  0  0  0  0  0  0  0  0
   19.0792   -6.3596  -12.3436 N   0  0  0  0  0  0  0  0  0  0  0  0
   18.7353   -8.6051  -13.0624 C   0  0  0  0  0  0  0  0  0  0  0  0
   18.7147   -9.0984  -11.8795 O   0  0  0  0  0  0  0  0  0  0  0  0
   11.3555  -10.6582  -10.6572 N   0  0  0  0  0  0  0  0  0  0  0  0
   11.8363  -11.9444  -11.0463 C   0  0  0  0  0  0  0  0  0  0  0  0
   11.1357  -12.9843  -10.7511 N   0  0  0  0  0  0  0  0  0  0  0  0
   13.0558  -12.0888  -11.7403 N   0  0  0  0  0  0  0  0  0  0  0  0
   13.9352  -10.9352  -11.9168 C   0  0  0  0  0  0  0  0  0  0  0  0
   15.1656  -11.3747  -12.6465 C   0  0  0  0  0  0  0  0  0  0  0  0
   16.0675  -10.2253  -12.9263 C   0  0  0  0  0  0  0  0  0  0  0  0
   17.3354  -10.5681  -13.6553 C   0  0  2  0  0  0  0  0  0  0  0  0
   18.0355   -9.3344  -14.0442 N   0  0  0  0  0  0  0  0  0  0  0  0
   17.1111  -11.3303  -14.8970 C   0  0  0  0  0  0  0  0  0  0  0  0
   17.0947  -10.7559  -16.1589 O   0  0  0  0  0  0  0  0  0  0  0  0
   16.9214  -12.5635  -14.8465 O   0  0  0  0  0  0  0  0  0  0  0  0
  2  1  1  6
  3  2  1  0
  4  3  1  0
  5  4  1  0
  5  6  2  0
  7  8  2  0
  7  2  1  0
  9  5  1  0
 11 10  1  6
 12 11  1  0
 13 11  1  0
 13 14  1  1
 14  7  1  0
 15 13  1  0
 16 15  2  0
 18 17  1  0
 18 19  2  0
 20 18  1  0
 21 20  1  0
 21 22  1  0
 24 23  1  6
 23 22  1  0
 24 25  1  0
 25 15  1  0
 26 27  1  0
 26 24  1  0
 28 26  2  0
M  END
$$$$
