ETR.pdb
     RDKit          3D

 28 27  0  0  1  0  0  0  0  0999 V2000
   26.9530  -21.5478  -17.3478 N   0  0  0  0  0  0  0  0  0  0  0  0
   27.2799  -21.6290  -15.9133 C   0  0  1  0  0  0  0  0  0  0  0  0
   28.7258  -21.1938  -15.7088 C   0  0  0  0  0  0  0  0  0  0  0  0
   29.6220  -22.0166  -16.6236 C   0  0  0  0  0  0  0  0  0  0  0  0
   29.7799  -21.2581  -17.8800 C   0  0  0  0  0  0  0  0  0  0  0  0
   30.4023  -21.7293  -18.8670 O   0  0  0  0  0  0  0  0  0  0  0  0
   26.4220  -20.6383  -15.2238 C   0  0  0  0  0  0  0  0  0  0  0  0
   26.4538  -20.5073  -13.9545 O   0  0  0  0  0  0  0  0  0  0  0  0
   29.2398  -19.9915  -18.0055 O   0  0  0  0  0  0  0  0  0  0  0  0
   26.2832  -17.0947  -15.1279 C   0  0  0  0  0  0  0  0  0  0  0  0
   24.9885  -17.4540  -15.8360 C   0  0  1  0  0  0  0  0  0  0  0  0
   25.1530  -17.5263  -17.2084 O   0  0  0  0  0  0  0  0  0  0  0  0
   24.6656  -18.8805  -15.3620 C   0  0  2  0  0  0  0  0  0  0  0  0
   25.5541  -19.8276  -16.0073 N   0  0  0  0  0  0  0  0  0  0  0  0
   23.2780  -19.1487  -15.8174 C   0  0  0  0  0  0  0  0  0  0  0  0
   23.0612  -19.8478  -16.8696 O   0  0  0  0  0  0  0  0  0  0  0  0
   15.7670  -18.5768  -13.9369 N   0  0  0  0  0  0  0  0  0  0  0  0
   15.4457  -19.8891  -14.3967 C   0  0  0  0  0  0  0  0  0  0  0  0
   14.2251  -20.1552  -14.7110 N   0  0  0  0  0  0  0  0  0  0  0  0
   16.4366  -20.8868  -14.5079 N   0  0  0  0  0  0  0  0  0  0  0  0
   17.7930  -20.6234  -14.0325 C   0  0  0  0  0  0  0  0  0  0  0  0
   18.5526  -19.9165  -15.1109 C   0  0  0  0  0  0  0  0  0  0  0  0
   19.9739  -19.7094  -14.7241 C   0  0  0  0  0  0  0  0  0  0  0  0
   20.8050  -18.9509  -15.7192 C   0  0  2  0  0  0  0  0  0  0  0  0
   22.1323  -18.6720  -15.1499 N   0  0  0  0  0  0  0  0  0  0  0  0
   20.2284  -17.6467  -16.0930 C   0  0  0  0  0  0  0  0  0  0  0  0
   19.2213  -17.4930  -17.0336 O   0  0  0  0  0  0  0  0  0  0  0  0
   20.6469  -16.6015  -15.5528 O   0  0  0  0  0  0  0  0  0  0  0  0
  2  1  1  6
  3  2  1  0
  4  3  1  0
  5  4  1  0
  5  6  2  0
  7  8  2  0
  7  2  1  0
  9  5  1  0
 11 10  1  1
 12 11  1  0
 13 11  1  0
 13 14  1  6
 14  7  1  0
 15 13  1  0
 16 15  2  0
 18 17  1  0
 18 19  2  0
 20 18  1  0
 21 20  1  0
 21 22  1  0
 24 23  1  1
 23 22  1  0
 24 25  1  0
 25 15  1  0
 26 27  1  0
 26 24  1  0
 28 26  2  0
M  END
$$$$
