ETR.pdb
     RDKit          3D

 28 27  0  0  1  0  0  0  0  0999 V2000
   21.0376  -19.8787  -15.2840 N   0  0  0  0  0  0  0  0  0  0  0  0
   20.1200  -20.7162  -14.4915 C   0  0  1  0  0  0  0  0  0  0  0  0
   19.8906  -22.0317  -15.2256 C   0  0  0  0  0  0  0  0  0  0  0  0
   18.7191  -21.8638  -16.1830 C   0  0  0  0  0  0  0  0  0  0  0  0
   19.2802  -21.7190  -17.5405 C   0  0  0  0  0  0  0  0  0  0  0  0
   20.4154  -22.1705  -17.8420 O   0  0  0  0  0  0  0  0  0  0  0  0
   20.8201  -21.0363  -13.2264 C   0  0  0  0  0  0  0  0  0  0  0  0
   22.0895  -21.1641  -13.1885 O   0  0  0  0  0  0  0  0  0  0  0  0
   18.5615  -21.0735  -18.5297 O   0  0  0  0  0  0  0  0  0  0  0  0
   21.4205  -19.1732  -10.5583 C   0  0  0  0  0  0  0  0  0  0  0  0
   20.6017  -20.2455   -9.8608 C   0  0  1  0  0  0  0  0  0  0  0  0
   19.2596  -19.9126   -9.7992 O   0  0  0  0  0  0  0  0  0  0  0  0
   20.7021  -21.4744  -10.7794 C   0  0  2  0  0  0  0  0  0  0  0  0
   20.0466  -21.2001  -12.0434 N   0  0  0  0  0  0  0  0  0  0  0  0
   19.9563  -22.5544  -10.0852 C   0  0  0  0  0  0  0  0  0  0  0  0
   18.6755  -22.5366  -10.0399 O   0  0  0  0  0  0  0  0  0  0  0  0
   15.9288  -26.3679   -6.9281 N   0  0  0  0  0  0  0  0  0  0  0  0
   15.7357  -25.8760   -5.6024 C   0  0  0  0  0  0  0  0  0  0  0  0
   14.5909  -26.0478   -5.0372 N   0  0  0  0  0  0  0  0  0  0  0  0
   16.7704  -25.2102   -4.9126 N   0  0  0  0  0  0  0  0  0  0  0  0
   17.6417  -24.2797   -5.6269 C   0  0  0  0  0  0  0  0  0  0  0  0
   17.9914  -24.8712   -6.9563 C   0  0  0  0  0  0  0  0  0  0  0  0
   18.8815  -23.9670   -7.7329 C   0  0  0  0  0  0  0  0  0  0  0  0
   19.7434  -24.6435   -8.7604 C   0  0  2  0  0  0  0  0  0  0  0  0
   20.5783  -23.6450   -9.4456 N   0  0  0  0  0  0  0  0  0  0  0  0
   18.9730  -25.3349   -9.8099 C   0  0  0  0  0  0  0  0  0  0  0  0
   19.0431  -26.7003  -10.0411 O   0  0  0  0  0  0  0  0  0  0  0  0
   18.2054  -24.6857  -10.5505 O   0  0  0  0  0  0  0  0  0  0  0  0
  2  1  1  6
  3  2  1  0
  4  3  1  0
  5  4  1  0
  5  6  2  0
  7  8  2  0
  7  2  1  0
  9  5  1  0
 11 10  1  6
 12 11  1  0
 13 11  1  0
 13 14  1  6
 14  7  1  0
 15 13  1  0
 16 15  2  0
 18 17  1  0
 18 19  2  0
 20 18  1  0
 21 20  1  0
 21 22  1  0
 24 23  1  1
 23 22  1  0
 24 25  1  0
 25 15  1  0
 26 27  1  0
 26 24  1  0
 28 26  2  0
M  END
$$$$
