ETR.pdb
     RDKit          3D

 28 27  0  0  1  0  0  0  0  0999 V2000
   24.8485  -18.7690  -18.3014 N   0  0  0  0  0  0  0  0  0  0  0  0
   23.6133  -19.5495  -18.1104 C   0  0  1  0  0  0  0  0  0  0  0  0
   23.9052  -21.0174  -18.3963 C   0  0  0  0  0  0  0  0  0  0  0  0
   23.8305  -21.2512  -19.8986 C   0  0  0  0  0  0  0  0  0  0  0  0
   22.4092  -21.4566  -20.2398 C   0  0  0  0  0  0  0  0  0  0  0  0
   21.8263  -20.7570  -21.1084 O   0  0  0  0  0  0  0  0  0  0  0  0
   23.2596  -19.4438  -16.6763 C   0  0  0  0  0  0  0  0  0  0  0  0
   24.1573  -19.2673  -15.7863 O   0  0  0  0  0  0  0  0  0  0  0  0
   21.6714  -22.4377  -19.6034 O   0  0  0  0  0  0  0  0  0  0  0  0
   22.2320  -16.9842  -14.9371 C   0  0  0  0  0  0  0  0  0  0  0  0
   20.9863  -17.8418  -14.7969 C   0  0  1  0  0  0  0  0  0  0  0  0
   20.0978  -17.6368  -15.8382 O   0  0  0  0  0  0  0  0  0  0  0  0
   21.4892  -19.2883  -14.9341 C   0  0  2  0  0  0  0  0  0  0  0  0
   21.8899  -19.5432  -16.3042 N   0  0  0  0  0  0  0  0  0  0  0  0
   20.3223  -20.1492  -14.6153 C   0  0  0  0  0  0  0  0  0  0  0  0
   19.6574  -20.7185  -15.5516 O   0  0  0  0  0  0  0  0  0  0  0  0
   18.6557  -27.1045  -10.2178 N   0  0  0  0  0  0  0  0  0  0  0  0
   17.3701  -26.6231  -10.6081 C   0  0  0  0  0  0  0  0  0  0  0  0
   16.3930  -27.4586  -10.6896 N   0  0  0  0  0  0  0  0  0  0  0  0
   17.1598  -25.2601  -10.9039 N   0  0  0  0  0  0  0  0  0  0  0  0
   18.3019  -24.3838  -11.1549 C   0  0  0  0  0  0  0  0  0  0  0  0
   17.7947  -23.0240  -11.5198 C   0  0  0  0  0  0  0  0  0  0  0  0
   18.9128  -22.1028  -11.8575 C   0  0  0  0  0  0  0  0  0  0  0  0
   18.7147  -21.2828  -13.1004 C   0  0  2  0  0  0  0  0  0  0  0  0
   19.8723  -20.3985  -13.3035 N   0  0  0  0  0  0  0  0  0  0  0  0
   17.5274  -20.4108  -13.0455 C   0  0  0  0  0  0  0  0  0  0  0  0
   17.5232  -19.1543  -12.4592 O   0  0  0  0  0  0  0  0  0  0  0  0
   16.4485  -20.7934  -13.5445 O   0  0  0  0  0  0  0  0  0  0  0  0
  2  1  1  1
  3  2  1  0
  4  3  1  0
  5  4  1  0
  5  6  2  0
  7  8  2  0
  7  2  1  0
  9  5  1  0
 11 10  1  6
 12 11  1  0
 13 11  1  0
 13 14  1  6
 14  7  1  0
 15 13  1  0
 16 15  2  0
 18 17  1  0
 18 19  2  0
 20 18  1  0
 21 20  1  0
 21 22  1  0
 24 23  1  1
 23 22  1  0
 24 25  1  0
 25 15  1  0
 26 27  1  0
 26 24  1  0
 28 26  2  0
M  END
$$$$
