ETR.pdb
     RDKit          3D

 28 27  0  0  1  0  0  0  0  0999 V2000
   23.1825  -18.3397  -18.5562 N   0  0  0  0  0  0  0  0  0  0  0  0
   24.0599  -17.6010  -17.6312 C   0  0  1  0  0  0  0  0  0  0  0  0
   23.2093  -16.6627  -16.7839 C   0  0  0  0  0  0  0  0  0  0  0  0
   21.7651  -17.1428  -16.8161 C   0  0  0  0  0  0  0  0  0  0  0  0
   20.9648  -16.1759  -16.0394 C   0  0  0  0  0  0  0  0  0  0  0  0
   21.4761  -15.1414  -15.5373 O   0  0  0  0  0  0  0  0  0  0  0  0
   24.6533  -18.6022  -16.7154 C   0  0  0  0  0  0  0  0  0  0  0  0
   24.1039  -19.7402  -16.5362 O   0  0  0  0  0  0  0  0  0  0  0  0
   19.6127  -16.3861  -15.8409 O   0  0  0  0  0  0  0  0  0  0  0  0
   28.3233  -19.7342  -13.6608 C   0  0  0  0  0  0  0  0  0  0  0  0
   27.8461  -18.7144  -14.6802 C   0  0  1  0  0  0  0  0  0  0  0  0
   28.6510  -18.6934  -15.8060 O   0  0  0  0  0  0  0  0  0  0  0  0
   26.4727  -19.2319  -15.1384 C   0  0  2  0  0  0  0  0  0  0  0  0
   25.8571  -18.2709  -16.0330 N   0  0  0  0  0  0  0  0  0  0  0  0
   25.6492  -19.3252  -13.9064 C   0  0  0  0  0  0  0  0  0  0  0  0
   25.1596  -18.2699  -13.3684 O   0  0  0  0  0  0  0  0  0  0  0  0
   18.1034  -22.6059  -11.6623 N   0  0  0  0  0  0  0  0  0  0  0  0
   18.4135  -21.4157  -10.9383 C   0  0  0  0  0  0  0  0  0  0  0  0
   17.4503  -20.7374  -10.4172 N   0  0  0  0  0  0  0  0  0  0  0  0
   19.7461  -20.9776  -10.7900 N   0  0  0  0  0  0  0  0  0  0  0  0
   20.7199  -21.2337  -11.8489 C   0  0  0  0  0  0  0  0  0  0  0  0
   22.0717  -20.8004  -11.3752 C   0  0  0  0  0  0  0  0  0  0  0  0
   23.0855  -20.9133  -12.4579 C   0  0  0  0  0  0  0  0  0  0  0  0
   24.4833  -20.5228  -12.0704 C   0  0  2  0  0  0  0  0  0  0  0  0
   25.3523  -20.5399  -13.2569 N   0  0  0  0  0  0  0  0  0  0  0  0
   25.0975  -21.4359  -11.0895 C   0  0  0  0  0  0  0  0  0  0  0  0
   24.9789  -21.2815   -9.7167 O   0  0  0  0  0  0  0  0  0  0  0  0
   25.7692  -22.4128  -11.4817 O   0  0  0  0  0  0  0  0  0  0  0  0
  2  1  1  6
  3  2  1  0
  4  3  1  0
  5  4  1  0
  5  6  2  0
  7  8  2  0
  7  2  1  0
  9  5  1  0
 11 10  1  1
 12 11  1  0
 13 11  1  0
 13 14  1  6
 14  7  1  0
 15 13  1  0
 16 15  2  0
 18 17  1  0
 18 19  2  0
 20 18  1  0
 21 20  1  0
 21 22  1  0
 24 23  1  6
 23 22  1  0
 24 25  1  0
 25 15  1  0
 26 27  1  0
 26 24  1  0
 28 26  2  0
M  END
$$$$
