ETR.pdb
     RDKit          3D

 28 27  0  0  1  0  0  0  0  0999 V2000
   27.0306  -20.5069  -16.2469 N   0  0  0  0  0  0  0  0  0  0  0  0
   25.9943  -21.4536  -15.7983 C   0  0  1  0  0  0  0  0  0  0  0  0
   26.6345  -22.4953  -14.8891 C   0  0  0  0  0  0  0  0  0  0  0  0
   27.0053  -23.7147  -15.7215 C   0  0  0  0  0  0  0  0  0  0  0  0
   25.8403  -24.6211  -15.7136 C   0  0  0  0  0  0  0  0  0  0  0  0
   24.7756  -24.3297  -15.1093 O   0  0  0  0  0  0  0  0  0  0  0  0
   25.0382  -20.6798  -14.9736 C   0  0  0  0  0  0  0  0  0  0  0  0
   25.4460  -19.8325  -14.1105 O   0  0  0  0  0  0  0  0  0  0  0  0
   25.8908  -25.8316  -16.3798 O   0  0  0  0  0  0  0  0  0  0  0  0
   22.9126  -18.0325  -15.4842 C   0  0  0  0  0  0  0  0  0  0  0  0
   21.9247  -19.1621  -15.2501 C   0  0  1  0  0  0  0  0  0  0  0  0
   21.6166  -19.8304  -16.4224 O   0  0  0  0  0  0  0  0  0  0  0  0
   22.6806  -20.1661  -14.3642 C   0  0  2  0  0  0  0  0  0  0  0  0
   23.6450  -20.8988  -15.1616 N   0  0  0  0  0  0  0  0  0  0  0  0
   21.6529  -21.1185  -13.8729 C   0  0  0  0  0  0  0  0  0  0  0  0
   21.4399  -22.2222  -14.4888 O   0  0  0  0  0  0  0  0  0  0  0  0
   19.0303  -24.9731   -7.0590 N   0  0  0  0  0  0  0  0  0  0  0  0
   17.8604  -25.0718   -7.8705 C   0  0  0  0  0  0  0  0  0  0  0  0
   16.9802  -25.9678   -7.5843 N   0  0  0  0  0  0  0  0  0  0  0  0
   17.6599  -24.2114   -8.9701 N   0  0  0  0  0  0  0  0  0  0  0  0
   18.6841  -23.2316   -9.3256 C   0  0  0  0  0  0  0  0  0  0  0  0
   18.2100  -22.4466  -10.5081 C   0  0  0  0  0  0  0  0  0  0  0  0
   19.2680  -21.5270  -11.0057 C   0  0  0  0  0  0  0  0  0  0  0  0
   19.8869  -21.9128  -12.3189 C   0  0  2  0  0  0  0  0  0  0  0  0
   20.8607  -20.8901  -12.7302 N   0  0  0  0  0  0  0  0  0  0  0  0
   18.9106  -22.0257  -13.4176 C   0  0  0  0  0  0  0  0  0  0  0  0
   18.4012  -20.9364  -14.1079 O   0  0  0  0  0  0  0  0  0  0  0  0
   18.4973  -23.1495  -13.7721 O   0  0  0  0  0  0  0  0  0  0  0  0
  2  1  1  1
  3  2  1  0
  4  3  1  0
  5  4  1  0
  5  6  2  0
  7  8  2  0
  7  2  1  0
  9  5  1  0
 11 10  1  6
 12 11  1  0
 13 11  1  0
 13 14  1  6
 14  7  1  0
 15 13  1  0
 16 15  2  0
 18 17  1  0
 18 19  2  0
 20 18  1  0
 21 20  1  0
 21 22  1  0
 24 23  1  1
 23 22  1  0
 24 25  1  0
 25 15  1  0
 26 27  1  0
 26 24  1  0
 28 26  2  0
M  END
$$$$
