ETR.pdb
     RDKit          3D

 28 27  0  0  1  0  0  0  0  0999 V2000
   25.2317  -12.2881  -20.0566 N   0  0  0  0  0  0  0  0  0  0  0  0
   24.2245  -11.2127  -20.0380 C   0  0  1  0  0  0  0  0  0  0  0  0
   22.8345  -11.8358  -20.0021 C   0  0  0  0  0  0  0  0  0  0  0  0
   22.9736  -13.3517  -20.0126 C   0  0  0  0  0  0  0  0  0  0  0  0
   21.6102  -13.9165  -20.0371 C   0  0  0  0  0  0  0  0  0  0  0  0
   20.7748  -13.5982  -20.9228 O   0  0  0  0  0  0  0  0  0  0  0  0
   24.4088  -10.4780  -18.7655 C   0  0  0  0  0  0  0  0  0  0  0  0
   24.9092  -11.0495  -17.7398 O   0  0  0  0  0  0  0  0  0  0  0  0
   21.2106  -14.8228  -19.0724 O   0  0  0  0  0  0  0  0  0  0  0  0
   26.5393   -7.8651  -18.2961 C   0  0  0  0  0  0  0  0  0  0  0  0
   25.2551   -7.1784  -17.8647 C   0  0  1  0  0  0  0  0  0  0  0  0
   24.6685   -6.4788  -18.9050 O   0  0  0  0  0  0  0  0  0  0  0  0
   24.2940   -8.3275  -17.5182 C   0  0  2  0  0  0  0  0  0  0  0  0
   24.0151   -9.1120  -18.7054 N   0  0  0  0  0  0  0  0  0  0  0  0
   23.0351   -7.6760  -17.0760 C   0  0  0  0  0  0  0  0  0  0  0  0
   21.9654   -7.7843  -17.7738 O   0  0  0  0  0  0  0  0  0  0  0  0
   16.0568  -10.0567  -14.9703 N   0  0  0  0  0  0  0  0  0  0  0  0
   15.8599   -8.6508  -14.8234 C   0  0  0  0  0  0  0  0  0  0  0  0
   14.6564   -8.1925  -14.7921 N   0  0  0  0  0  0  0  0  0  0  0  0
   16.9545   -7.7676  -14.7152 N   0  0  0  0  0  0  0  0  0  0  0  0
   18.3100   -8.2523  -14.9659 C   0  0  0  0  0  0  0  0  0  0  0  0
   19.2424   -7.0822  -14.9946 C   0  0  0  0  0  0  0  0  0  0  0  0
   20.6096   -7.4907  -15.4148 C   0  0  0  0  0  0  0  0  0  0  0  0
   21.6100   -6.3746  -15.5140 C   0  0  2  0  0  0  0  0  0  0  0  0
   22.9236   -6.9155  -15.8951 N   0  0  0  0  0  0  0  0  0  0  0  0
   21.8086   -5.6496  -14.2460 C   0  0  0  0  0  0  0  0  0  0  0  0
   20.9424   -4.6750  -13.7743 O   0  0  0  0  0  0  0  0  0  0  0  0
   22.8016   -5.9015  -13.5321 O   0  0  0  0  0  0  0  0  0  0  0  0
  2  1  1  1
  3  2  1  0
  4  3  1  0
  5  4  1  0
  5  6  2  0
  7  8  2  0
  7  2  1  0
  9  5  1  0
 11 10  1  6
 12 11  1  0
 13 11  1  0
 13 14  1  6
 14  7  1  0
 15 13  1  0
 16 15  2  0
 18 17  1  0
 18 19  2  0
 20 18  1  0
 21 20  1  0
 21 22  1  0
 24 23  1  1
 23 22  1  0
 24 25  1  0
 25 15  1  0
 26 27  1  0
 26 24  1  0
 28 26  2  0
M  END
$$$$
