DWC.pdb
     RDKit          3D

 29 30  0  0  1  0  0  0  0  0999 V2000
   10.9112  -18.0526   21.3150 N   0  0  0  0  0  0  0  0  0  0  0  0
   11.9121  -17.0855   21.6969 C   0  0  1  0  0  0  0  0  0  0  0  0
   12.1788  -16.2320   20.4871 C   0  0  0  0  0  0  0  0  0  0  0  0
   12.9248  -16.9043   19.4201 C   0  0  0  0  0  0  0  0  0  0  0  0
   12.3366  -17.1847   18.3438 O   0  0  0  0  0  0  0  0  0  0  0  0
   11.4707  -16.3169   22.8799 C   0  0  0  0  0  0  0  0  0  0  0  0
   12.0586  -15.3100   23.3340 O   0  0  0  0  0  0  0  0  0  0  0  0
   14.2489  -17.2549   19.5202 O   0  0  0  0  0  0  0  0  0  0  0  0
   10.3005  -16.7424   23.5535 N   0  0  0  0  0  0  0  0  0  0  0  0
    9.7943  -15.9931   24.7166 C   0  0  1  0  0  0  0  0  0  0  0  0
    8.3386  -16.2068   24.8862 C   0  0  0  0  0  0  0  0  0  0  0  0
    7.5404  -15.0217   24.5515 C   0  0  0  0  0  0  0  0  0  0  0  0
    6.9102  -14.7159   23.3376 C   0  0  0  0  0  0  0  0  0  0  0  0
    6.3181  -13.5168   23.4487 N   0  0  0  0  0  0  0  0  0  0  0  0
    6.5092  -12.9924   24.6643 C   0  0  0  0  0  0  0  0  0  0  0  0
    6.1223  -11.8061   25.2838 C   0  0  0  0  0  0  0  0  0  0  0  0
    6.4992  -11.5575   26.5971 C   0  0  0  0  0  0  0  0  0  0  0  0
    7.2505  -12.4688   27.2942 C   0  0  0  0  0  0  0  0  0  0  0  0
    7.6220  -13.6414   26.6533 C   0  0  0  0  0  0  0  0  0  0  0  0
    7.2603  -13.9084   25.3542 C   0  0  0  0  0  0  0  0  0  0  0  0
   10.5115  -16.5352   25.8815 C   0  0  0  0  0  0  0  0  0  0  0  0
   11.0856  -17.6727   25.7348 O   0  0  0  0  0  0  0  0  0  0  0  0
   10.6441  -15.9371   27.1473 N   0  0  0  0  0  0  0  0  0  0  0  0
   11.3451  -16.5741   28.2369 C   0  0  1  0  0  0  0  0  0  0  0  0
   11.4808  -15.6283   29.4245 C   0  0  0  0  0  0  0  0  0  0  0  0
   11.1311  -13.9369   28.8709 S   0  0  0  0  0  0  0  0  0  0  0  0
   10.7538  -17.8088   28.7339 C   0  0  0  0  0  0  0  0  0  0  0  0
   11.4208  -18.4514   29.6190 O   0  0  0  0  0  0  0  0  0  0  0  0
    9.5551  -18.3800   28.3702 O   0  0  0  0  0  0  0  0  0  0  0  0
  2  1  1  6
  2  6  1  0
  3  2  1  0
  3  4  1  0
  4  8  1  0
  5  4  2  0
  6  9  1  0
  7  6  2  0
  9 10  1  0
 10 11  1  1
 12 11  1  0
 13 12  2  0
 14 13  1  0
 15 14  1  0
 15 20  2  0
 16 15  1  0
 17 16  2  0
 17 18  1  0
 18 19  2  0
 19 20  1  0
 20 12  1  0
 21 22  2  0
 21 10  1  0
 23 21  1  0
 24 23  1  0
 24 27  1  0
 24 25  1  1
 26 25  1  0
 27 29  1  0
 28 27  2  0
M  END
$$$$
