DWC.pdb
     RDKit          3D

 29 30  0  0  1  0  0  0  0  0999 V2000
   10.0579  -18.0586   21.1694 N   0  0  0  0  0  0  0  0  0  0  0  0
   11.1680  -17.1633   21.3907 C   0  0  1  0  0  0  0  0  0  0  0  0
   11.2497  -16.2632   20.1881 C   0  0  0  0  0  0  0  0  0  0  0  0
   11.7593  -16.9108   18.9764 C   0  0  0  0  0  0  0  0  0  0  0  0
   12.0735  -18.1284   19.0181 O   0  0  0  0  0  0  0  0  0  0  0  0
   11.0051  -16.4353   22.6669 C   0  0  0  0  0  0  0  0  0  0  0  0
   11.7097  -15.4665   23.0283 O   0  0  0  0  0  0  0  0  0  0  0  0
   11.9192  -16.2632   17.7760 O   0  0  0  0  0  0  0  0  0  0  0  0
    9.9816  -16.8568   23.5495 N   0  0  0  0  0  0  0  0  0  0  0  0
    9.7516  -16.1465   24.8196 C   0  0  1  0  0  0  0  0  0  0  0  0
    8.3102  -16.1313   25.1596 C   0  0  0  0  0  0  0  0  0  0  0  0
    7.6116  -14.9455   24.6504 C   0  0  0  0  0  0  0  0  0  0  0  0
    7.1781  -14.6902   23.3422 C   0  0  0  0  0  0  0  0  0  0  0  0
    6.6180  -13.4713   23.3033 N   0  0  0  0  0  0  0  0  0  0  0  0
    6.6461  -12.8860   24.5058 C   0  0  0  0  0  0  0  0  0  0  0  0
    6.2135  -11.6575   25.0000 C   0  0  0  0  0  0  0  0  0  0  0  0
    6.4012  -11.3471   26.3406 C   0  0  0  0  0  0  0  0  0  0  0  0
    7.0096  -12.2386   27.1869 C   0  0  0  0  0  0  0  0  0  0  0  0
    7.4306  -13.4542   26.6685 C   0  0  0  0  0  0  0  0  0  0  0  0
    7.2551  -13.7825   25.3451 C   0  0  0  0  0  0  0  0  0  0  0  0
   10.4911  -16.9067   25.8397 C   0  0  0  0  0  0  0  0  0  0  0  0
   10.2807  -18.1709   25.8908 O   0  0  0  0  0  0  0  0  0  0  0  0
   11.4158  -16.3982   26.7692 N   0  0  0  0  0  0  0  0  0  0  0  0
   11.3867  -16.7559   28.1676 C   0  0  1  0  0  0  0  0  0  0  0  0
   10.3715  -15.9085   28.9258 C   0  0  0  0  0  0  0  0  0  0  0  0
   10.9297  -14.1828   28.9248 S   0  0  0  0  0  0  0  0  0  0  0  0
   11.0867  -18.1511   28.4578 C   0  0  0  0  0  0  0  0  0  0  0  0
    9.9078  -18.4097   28.8873 O   0  0  0  0  0  0  0  0  0  0  0  0
   11.9180  -19.2409   28.3275 O   0  0  0  0  0  0  0  0  0  0  0  0
  2  1  1  6
  2  6  1  0
  3  2  1  0
  3  4  1  0
  4  8  1  0
  5  4  2  0
  6  9  1  0
  7  6  2  0
  9 10  1  0
 10 11  1  1
 12 11  1  0
 13 12  2  0
 14 13  1  0
 15 14  1  0
 15 20  2  0
 16 15  1  0
 17 16  2  0
 17 18  1  0
 18 19  2  0
 19 20  1  0
 20 12  1  0
 21 22  2  0
 21 10  1  0
 23 21  1  0
 24 23  1  0
 24 27  1  0
 24 25  1  1
 26 25  1  0
 27 29  1  0
 28 27  2  0
M  END
$$$$
