DWC.pdb
     RDKit          3D

 29 30  0  0  1  0  0  0  0  0999 V2000
   10.6300  -18.5257   20.7506 N   0  0  0  0  0  0  0  0  0  0  0  0
   11.4506  -17.3421   20.8433 C   0  0  1  0  0  0  0  0  0  0  0  0
   11.4974  -16.7343   19.4679 C   0  0  0  0  0  0  0  0  0  0  0  0
   12.8427  -16.6188   18.8987 C   0  0  0  0  0  0  0  0  0  0  0  0
   13.8183  -17.1025   19.5288 O   0  0  0  0  0  0  0  0  0  0  0  0
   10.9297  -16.4257   21.8797 C   0  0  0  0  0  0  0  0  0  0  0  0
   11.4383  -15.3208   22.1731 O   0  0  0  0  0  0  0  0  0  0  0  0
   13.1129  -16.0056   17.7000 O   0  0  0  0  0  0  0  0  0  0  0  0
    9.7735  -16.8174   22.5967 N   0  0  0  0  0  0  0  0  0  0  0  0
    9.2241  -15.9542   23.6566 C   0  0  1  0  0  0  0  0  0  0  0  0
    7.7746  -16.2000   23.8358 C   0  0  0  0  0  0  0  0  0  0  0  0
    7.1941  -15.4340   24.9447 C   0  0  0  0  0  0  0  0  0  0  0  0
    6.5507  -15.9207   26.0908 C   0  0  0  0  0  0  0  0  0  0  0  0
    6.1384  -14.8790   26.8295 N   0  0  0  0  0  0  0  0  0  0  0  0
    6.4637  -13.7167   26.2530 C   0  0  0  0  0  0  0  0  0  0  0  0
    6.2755  -12.3778   26.5890 C   0  0  0  0  0  0  0  0  0  0  0  0
    6.7481  -11.3807   25.7457 C   0  0  0  0  0  0  0  0  0  0  0  0
    7.4001  -11.6991   24.5820 C   0  0  0  0  0  0  0  0  0  0  0  0
    7.5738  -13.0397   24.2718 C   0  0  0  0  0  0  0  0  0  0  0  0
    7.1144  -14.0432   25.0914 C   0  0  0  0  0  0  0  0  0  0  0  0
    9.9433  -16.3266   24.8852 C   0  0  0  0  0  0  0  0  0  0  0  0
   10.2993  -17.5531   25.0030 O   0  0  0  0  0  0  0  0  0  0  0  0
   10.2923  -15.4789   25.9516 N   0  0  0  0  0  0  0  0  0  0  0  0
   10.9693  -15.9573   27.1335 C   0  0  1  0  0  0  0  0  0  0  0  0
   11.2471  -14.8142   28.1027 C   0  0  0  0  0  0  0  0  0  0  0  0
    9.7222  -13.8609   28.3387 S   0  0  0  0  0  0  0  0  0  0  0  0
   10.2780  -16.9985   27.8811 C   0  0  0  0  0  0  0  0  0  0  0  0
   10.9504  -17.5959   28.7933 O   0  0  0  0  0  0  0  0  0  0  0  0
    8.9783  -17.4275   27.7313 O   0  0  0  0  0  0  0  0  0  0  0  0
  2  1  1  6
  2  6  1  0
  3  2  1  0
  3  4  1  0
  4  8  1  0
  5  4  2  0
  6  9  1  0
  7  6  2  0
  9 10  1  0
 10 11  1  1
 12 11  1  0
 13 12  2  0
 14 13  1  0
 15 14  1  0
 15 20  2  0
 16 15  1  0
 17 16  2  0
 17 18  1  0
 18 19  2  0
 19 20  1  0
 20 12  1  0
 21 22  2  0
 21 10  1  0
 23 21  1  0
 24 23  1  0
 24 27  1  0
 24 25  1  1
 26 25  1  0
 27 29  1  0
 28 27  2  0
M  END
$$$$
