DWC.pdb
     RDKit          3D

 29 30  0  0  1  0  0  0  0  0999 V2000
   10.8727  -18.0416   20.5090 N   0  0  0  0  0  0  0  0  0  0  0  0
   11.7355  -16.9231   20.8048 C   0  0  1  0  0  0  0  0  0  0  0  0
   11.9587  -16.1895   19.5105 C   0  0  0  0  0  0  0  0  0  0  0  0
   12.6009  -16.9865   18.4618 C   0  0  0  0  0  0  0  0  0  0  0  0
   13.3019  -17.9787   18.7888 O   0  0  0  0  0  0  0  0  0  0  0  0
   11.1523  -16.0816   21.8710 C   0  0  0  0  0  0  0  0  0  0  0  0
   11.6401  -15.0012   22.2715 O   0  0  0  0  0  0  0  0  0  0  0  0
   12.4851  -16.7158   17.1204 O   0  0  0  0  0  0  0  0  0  0  0  0
    9.9567  -16.5211   22.4889 N   0  0  0  0  0  0  0  0  0  0  0  0
    9.3519  -15.7421   23.5834 C   0  0  1  0  0  0  0  0  0  0  0  0
    7.8922  -15.9820   23.6548 C   0  0  0  0  0  0  0  0  0  0  0  0
    7.2404  -15.2433   24.7424 C   0  0  0  0  0  0  0  0  0  0  0  0
    6.5130  -15.7571   25.8246 C   0  0  0  0  0  0  0  0  0  0  0  0
    6.0576  -14.7335   26.5635 N   0  0  0  0  0  0  0  0  0  0  0  0
    6.4327  -13.5580   26.0470 C   0  0  0  0  0  0  0  0  0  0  0  0
    6.2320  -12.2279   26.4093 C   0  0  0  0  0  0  0  0  0  0  0  0
    6.7717  -11.2111   25.6323 C   0  0  0  0  0  0  0  0  0  0  0  0
    7.5024  -11.5016   24.5086 C   0  0  0  0  0  0  0  0  0  0  0  0
    7.6867  -12.8341   24.1710 C   0  0  0  0  0  0  0  0  0  0  0  0
    7.1618  -13.8567   24.9252 C   0  0  0  0  0  0  0  0  0  0  0  0
    9.9923  -16.2259   24.8167 C   0  0  0  0  0  0  0  0  0  0  0  0
   10.5346  -17.3875   24.7747 O   0  0  0  0  0  0  0  0  0  0  0  0
   10.0823  -15.5484   26.0457 N   0  0  0  0  0  0  0  0  0  0  0  0
   10.7083  -16.1309   27.2088 C   0  0  1  0  0  0  0  0  0  0  0  0
   10.5980  -15.1999   28.4107 C   0  0  0  0  0  0  0  0  0  0  0  0
   10.7876  -13.4869   27.8458 S   0  0  0  0  0  0  0  0  0  0  0  0
   10.1941  -17.4298   27.6205 C   0  0  0  0  0  0  0  0  0  0  0  0
    9.1684  -17.8692   26.9913 O   0  0  0  0  0  0  0  0  0  0  0  0
   10.6758  -18.2559   28.6110 O   0  0  0  0  0  0  0  0  0  0  0  0
  2  1  1  6
  2  6  1  0
  3  2  1  0
  3  4  1  0
  4  8  1  0
  5  4  2  0
  6  9  1  0
  7  6  2  0
  9 10  1  0
 10 11  1  1
 12 11  1  0
 13 12  2  0
 14 13  1  0
 15 14  1  0
 15 20  2  0
 16 15  1  0
 17 16  2  0
 17 18  1  0
 18 19  2  0
 19 20  1  0
 20 12  1  0
 21 22  2  0
 21 10  1  0
 23 21  1  0
 24 23  1  0
 24 27  1  0
 24 25  1  1
 26 25  1  0
 27 29  1  0
 28 27  2  0
M  END
$$$$
