DWC.pdb
     RDKit          3D

 29 30  0  0  1  0  0  0  0  0999 V2000
    9.3921  -17.5584   21.3721 N   0  0  0  0  0  0  0  0  0  0  0  0
   10.6865  -16.9777   21.6369 C   0  0  1  0  0  0  0  0  0  0  0  0
   10.9175  -15.9274   20.5848 C   0  0  0  0  0  0  0  0  0  0  0  0
   11.1675  -16.4562   19.2413 C   0  0  0  0  0  0  0  0  0  0  0  0
   10.6952  -17.5792   18.9269 O   0  0  0  0  0  0  0  0  0  0  0  0
   10.7524  -16.4577   23.0191 C   0  0  0  0  0  0  0  0  0  0  0  0
   11.5598  -15.5871   23.4139 O   0  0  0  0  0  0  0  0  0  0  0  0
   11.8972  -15.7934   18.2851 O   0  0  0  0  0  0  0  0  0  0  0  0
    9.8413  -16.9754   23.9710 N   0  0  0  0  0  0  0  0  0  0  0  0
    9.8191  -16.4488   25.3467 C   0  0  1  0  0  0  0  0  0  0  0  0
    8.4937  -16.6657   25.9710 C   0  0  0  0  0  0  0  0  0  0  0  0
    7.4834  -15.6986   25.5267 C   0  0  0  0  0  0  0  0  0  0  0  0
    6.4193  -15.9036   24.6379 C   0  0  0  0  0  0  0  0  0  0  0  0
    5.7601  -14.7456   24.4793 N   0  0  0  0  0  0  0  0  0  0  0  0
    6.3134  -13.7690   25.2069 C   0  0  0  0  0  0  0  0  0  0  0  0
    6.0309  -12.4182   25.3971 C   0  0  0  0  0  0  0  0  0  0  0  0
    6.8266  -11.6584   26.2446 C   0  0  0  0  0  0  0  0  0  0  0  0
    7.8911  -12.2238   26.8989 C   0  0  0  0  0  0  0  0  0  0  0  0
    8.1499  -13.5705   26.6914 C   0  0  0  0  0  0  0  0  0  0  0  0
    7.3757  -14.3416   25.8572 C   0  0  0  0  0  0  0  0  0  0  0  0
   10.8411  -17.2115   26.0808 C   0  0  0  0  0  0  0  0  0  0  0  0
   10.9245  -18.4664   25.8291 O   0  0  0  0  0  0  0  0  0  0  0  0
   11.7489  -16.7126   27.0319 N   0  0  0  0  0  0  0  0  0  0  0  0
   12.6000  -17.5735   27.8184 C   0  0  1  0  0  0  0  0  0  0  0  0
   13.7986  -16.8051   28.3628 C   0  0  0  0  0  0  0  0  0  0  0  0
   14.5499  -15.8558   27.0122 S   0  0  0  0  0  0  0  0  0  0  0  0
   11.9612  -18.2337   28.9486 C   0  0  0  0  0  0  0  0  0  0  0  0
   10.7171  -17.9884   29.1311 O   0  0  0  0  0  0  0  0  0  0  0  0
   12.5303  -19.0983   29.8563 O   0  0  0  0  0  0  0  0  0  0  0  0
  2  1  1  6
  2  6  1  0
  3  2  1  0
  3  4  1  0
  4  8  1  0
  5  4  2  0
  6  9  1  0
  7  6  2  0
  9 10  1  0
 10 11  1  1
 12 11  1  0
 13 12  2  0
 14 13  1  0
 15 14  1  0
 15 20  2  0
 16 15  1  0
 17 16  2  0
 17 18  1  0
 18 19  2  0
 19 20  1  0
 20 12  1  0
 21 22  2  0
 21 10  1  0
 23 21  1  0
 24 23  1  0
 24 27  1  0
 24 25  1  1
 26 25  1  0
 27 29  1  0
 28 27  2  0
M  END
$$$$
