DWC.pdb
     RDKit          3D

 29 30  0  0  1  0  0  0  0  0999 V2000
   10.8953  -18.3141   21.4495 N   0  0  0  0  0  0  0  0  0  0  0  0
   11.6768  -17.1080   21.5822 C   0  0  1  0  0  0  0  0  0  0  0  0
   11.5557  -16.3638   20.2804 C   0  0  0  0  0  0  0  0  0  0  0  0
   12.1818  -17.0321   19.1365 C   0  0  0  0  0  0  0  0  0  0  0  0
   13.2286  -17.7061   19.3182 O   0  0  0  0  0  0  0  0  0  0  0  0
   11.2345  -16.3261   22.7562 C   0  0  0  0  0  0  0  0  0  0  0  0
   11.6313  -15.1721   23.0328 O   0  0  0  0  0  0  0  0  0  0  0  0
   11.6914  -16.9696   17.8553 O   0  0  0  0  0  0  0  0  0  0  0  0
   10.2954  -16.9165   23.6359 N   0  0  0  0  0  0  0  0  0  0  0  0
    9.7588  -16.1538   24.7764 C   0  0  1  0  0  0  0  0  0  0  0  0
    8.3100  -16.4110   24.9453 C   0  0  0  0  0  0  0  0  0  0  0  0
    7.4755  -15.2588   24.5854 C   0  0  0  0  0  0  0  0  0  0  0  0
    6.7506  -15.0491   23.4043 C   0  0  0  0  0  0  0  0  0  0  0  0
    6.1556  -13.8481   23.4705 N   0  0  0  0  0  0  0  0  0  0  0  0
    6.4338  -13.2320   24.6248 C   0  0  0  0  0  0  0  0  0  0  0  0
    6.0826  -12.0042   25.1815 C   0  0  0  0  0  0  0  0  0  0  0  0
    6.5566  -11.6548   26.4392 C   0  0  0  0  0  0  0  0  0  0  0  0
    7.3692  -12.5068   27.1425 C   0  0  0  0  0  0  0  0  0  0  0  0
    7.7033  -13.7227   26.5648 C   0  0  0  0  0  0  0  0  0  0  0  0
    7.2458  -14.0893   25.3213 C   0  0  0  0  0  0  0  0  0  0  0  0
   10.4874  -16.6409   25.9584 C   0  0  0  0  0  0  0  0  0  0  0  0
   11.1108  -17.7556   25.8403 O   0  0  0  0  0  0  0  0  0  0  0  0
   10.5825  -16.0120   27.2126 N   0  0  0  0  0  0  0  0  0  0  0  0
   11.3268  -16.5806   28.3112 C   0  0  1  0  0  0  0  0  0  0  0  0
   11.3081  -15.6525   29.5202 C   0  0  0  0  0  0  0  0  0  0  0  0
   11.1870  -13.9376   28.9421 S   0  0  0  0  0  0  0  0  0  0  0  0
   10.8821  -17.8907   28.7660 C   0  0  0  0  0  0  0  0  0  0  0  0
    9.8306  -18.3671   28.2105 O   0  0  0  0  0  0  0  0  0  0  0  0
   11.4546  -18.6924   29.7278 O   0  0  0  0  0  0  0  0  0  0  0  0
  2  1  1  6
  2  6  1  0
  3  2  1  0
  3  4  1  0
  4  8  1  0
  5  4  2  0
  6  9  1  0
  7  6  2  0
  9 10  1  0
 10 11  1  1
 12 11  1  0
 13 12  2  0
 14 13  1  0
 15 14  1  0
 15 20  2  0
 16 15  1  0
 17 16  2  0
 17 18  1  0
 18 19  2  0
 19 20  1  0
 20 12  1  0
 21 22  2  0
 21 10  1  0
 23 21  1  0
 24 23  1  0
 24 27  1  0
 24 25  1  1
 26 25  1  0
 27 29  1  0
 28 27  2  0
M  END
$$$$
