DWC.pdb
     RDKit          3D

 29 30  0  0  1  0  0  0  0  0999 V2000
    9.7249  -17.8712   21.0862 N   0  0  0  0  0  0  0  0  0  0  0  0
   10.8569  -17.0335   21.4020 C   0  0  1  0  0  0  0  0  0  0  0  0
   11.0568  -16.1100   20.2313 C   0  0  0  0  0  0  0  0  0  0  0  0
   11.6796  -16.7355   19.0617 C   0  0  0  0  0  0  0  0  0  0  0  0
   12.0086  -17.9485   19.1178 O   0  0  0  0  0  0  0  0  0  0  0  0
   10.6436  -16.3291   22.6839 C   0  0  0  0  0  0  0  0  0  0  0  0
   11.1271  -15.2111   22.9705 O   0  0  0  0  0  0  0  0  0  0  0  0
   11.9322  -16.0715   17.8864 O   0  0  0  0  0  0  0  0  0  0  0  0
    9.8362  -16.9560   23.6634 N   0  0  0  0  0  0  0  0  0  0  0  0
    9.5332  -16.2703   24.9317 C   0  0  1  0  0  0  0  0  0  0  0  0
    8.2806  -16.7923   25.5250 C   0  0  0  0  0  0  0  0  0  0  0  0
    7.1942  -15.8058   25.5350 C   0  0  0  0  0  0  0  0  0  0  0  0
    5.8223  -16.0257   25.3507 C   0  0  0  0  0  0  0  0  0  0  0  0
    5.1857  -14.8454   25.3986 N   0  0  0  0  0  0  0  0  0  0  0  0
    6.0434  -13.8397   25.6042 C   0  0  0  0  0  0  0  0  0  0  0  0
    5.9111  -12.4587   25.7304 C   0  0  0  0  0  0  0  0  0  0  0  0
    7.0365  -11.6732   25.9428 C   0  0  0  0  0  0  0  0  0  0  0  0
    8.2811  -12.2425   26.0301 C   0  0  0  0  0  0  0  0  0  0  0  0
    8.3842  -13.6196   25.9008 C   0  0  0  0  0  0  0  0  0  0  0  0
    7.2840  -14.4166   25.6902 C   0  0  0  0  0  0  0  0  0  0  0  0
   10.6639  -16.5687   25.8248 C   0  0  0  0  0  0  0  0  0  0  0  0
   11.3621  -17.6098   25.5533 O   0  0  0  0  0  0  0  0  0  0  0  0
   11.0719  -15.8297   26.9496 N   0  0  0  0  0  0  0  0  0  0  0  0
   11.9969  -16.3520   27.9272 C   0  0  1  0  0  0  0  0  0  0  0  0
   12.1751  -15.3762   29.0846 C   0  0  0  0  0  0  0  0  0  0  0  0
   10.5616  -14.6612   29.5033 S   0  0  0  0  0  0  0  0  0  0  0  0
   11.6478  -17.6439   28.5019 C   0  0  0  0  0  0  0  0  0  0  0  0
   10.4676  -18.0809   28.2625 O   0  0  0  0  0  0  0  0  0  0  0  0
   12.4337  -18.4655   29.2783 O   0  0  0  0  0  0  0  0  0  0  0  0
  2  1  1  6
  2  6  1  0
  3  2  1  0
  3  4  1  0
  4  8  1  0
  5  4  2  0
  6  9  1  0
  7  6  2  0
  9 10  1  0
 10 11  1  1
 12 11  1  0
 13 12  2  0
 14 13  1  0
 15 14  1  0
 15 20  2  0
 16 15  1  0
 17 16  2  0
 17 18  1  0
 18 19  2  0
 19 20  1  0
 20 12  1  0
 21 22  2  0
 21 10  1  0
 23 21  1  0
 24 23  1  0
 24 27  1  0
 24 25  1  1
 26 25  1  0
 27 29  1  0
 28 27  2  0
M  END
$$$$
