YVK.pdb
     RDKit          3D

 29 29  0  0  1  0  0  0  0  0999 V2000
    3.6950  -23.3366   22.5153 O   0  0  0  0  0  0  0  0  0  0  0  0
    4.5200  -22.2675   22.8987 C   0  0  0  0  0  0  0  0  0  0  0  0
    5.7050  -22.0070   22.2289 C   0  0  0  0  0  0  0  0  0  0  0  0
    6.5150  -20.9505   22.6120 C   0  0  0  0  0  0  0  0  0  0  0  0
    6.1557  -20.1400   23.6667 C   0  0  0  0  0  0  0  0  0  0  0  0
    7.0155  -19.0222   24.0666 C   0  0  0  0  0  0  0  0  0  0  0  0
    6.6933  -17.7562   23.3139 C   0  0  2  0  0  0  0  0  0  0  0  0
    7.0462  -17.9999   21.9307 N   0  0  0  0  0  0  0  0  0  0  0  0
    7.3601  -16.5543   23.7964 C   0  0  0  0  0  0  0  0  0  0  0  0
    8.5549  -16.3241   23.4302 O   0  0  0  0  0  0  0  0  0  0  0  0
    4.9916  -20.3882   24.3320 C   0  0  0  0  0  0  0  0  0  0  0  0
    4.1787  -21.4469   23.9491 C   0  0  0  0  0  0  0  0  0  0  0  0
    5.5258  -14.0369   26.6935 C   0  0  0  0  0  0  0  0  0  0  0  0
    6.5110  -13.5028   25.7138 C   0  0  1  0  0  0  0  0  0  0  0  0
    7.2687  -12.3639   26.4085 C   0  0  0  0  0  0  0  0  0  0  0  0
    7.5563  -14.4851   25.2543 C   0  0  2  0  0  0  0  0  0  0  0  0
    6.7938  -15.5903   24.6543 N   0  0  0  0  0  0  0  0  0  0  0  0
    8.4212  -14.9999   26.3143 C   0  0  0  0  0  0  0  0  0  0  0  0
    7.9024  -15.8415   27.1244 O   0  0  0  0  0  0  0  0  0  0  0  0
    9.7575  -14.6648   26.5299 N   0  0  0  0  0  0  0  0  0  0  0  0
   10.5229  -15.3330   27.5734 C   0  0  1  0  0  0  0  0  0  0  0  0
   11.9452  -15.5229   27.1847 C   0  0  0  0  0  0  0  0  0  0  0  0
   12.0759  -16.0982   25.8191 C   0  0  0  0  0  0  0  0  0  0  0  0
   13.5439  -16.2823   25.4166 C   0  0  0  0  0  0  0  0  0  0  0  0
   13.6752  -16.8752   24.0399 C   0  0  0  0  0  0  0  0  0  0  0  0
   15.0736  -16.9444   23.6254 N   0  0  0  0  0  0  0  0  0  0  0  0
   10.4172  -14.5969   28.8519 C   0  0  0  0  0  0  0  0  0  0  0  0
   10.8897  -15.2615   30.0061 O   0  0  0  0  0  0  0  0  0  0  0  0
    9.9656  -13.4679   29.0412 O   0  0  0  0  0  0  0  0  0  0  0  0
  2  3  2  0
  2  1  1  0
  4  3  1  0
  5  4  2  0
  6  5  1  0
  7  6  1  0
  7  8  1  6
  9  7  1  0
  9 10  2  0
 11  5  1  0
 11 12  2  0
 12  2  1  0
 14 13  1  1
 14 16  1  0
 15 14  1  0
 16 17  1  1
 17  9  1  0
 18 16  1  0
 19 18  2  0
 20 18  1  0
 21 20  1  0
 21 27  1  0
 21 22  1  6
 23 22  1  0
 24 23  1  0
 25 24  1  0
 26 25  1  0
 27 28  1  0
 29 27  2  0
M  END
$$$$
