YVK.pdb
     RDKit          3D

 29 29  0  0  1  0  0  0  0  0999 V2000
    6.5476  -19.0285   16.6161 O   0  0  0  0  0  0  0  0  0  0  0  0
    7.0569  -18.5594   17.8373 C   0  0  0  0  0  0  0  0  0  0  0  0
    6.3176  -18.6651   19.0046 C   0  0  0  0  0  0  0  0  0  0  0  0
    6.8255  -18.2004   20.2067 C   0  0  0  0  0  0  0  0  0  0  0  0
    8.0760  -17.6245   20.2619 C   0  0  0  0  0  0  0  0  0  0  0  0
    8.6096  -17.1362   21.5369 C   0  0  0  0  0  0  0  0  0  0  0  0
    8.4642  -15.6427   21.6822 C   0  0  2  0  0  0  0  0  0  0  0  0
    9.3048  -15.0474   20.6642 N   0  0  0  0  0  0  0  0  0  0  0  0
    8.8070  -15.1049   22.9919 C   0  0  0  0  0  0  0  0  0  0  0  0
   10.0272  -15.0770   23.3456 O   0  0  0  0  0  0  0  0  0  0  0  0
    8.8113  -17.5161   19.1187 C   0  0  0  0  0  0  0  0  0  0  0  0
    8.3033  -17.9814   17.9131 C   0  0  0  0  0  0  0  0  0  0  0  0
    7.2156  -12.7594   27.1220 C   0  0  0  0  0  0  0  0  0  0  0  0
    7.0963  -13.3090   25.7437 C   0  0  1  0  0  0  0  0  0  0  0  0
    6.9719  -12.1145   24.7890 C   0  0  0  0  0  0  0  0  0  0  0  0
    8.2807  -14.1079   25.2666 C   0  0  2  0  0  0  0  0  0  0  0  0
    7.8919  -14.5950   23.9346 N   0  0  0  0  0  0  0  0  0  0  0  0
    8.6411  -15.2383   26.1203 C   0  0  0  0  0  0  0  0  0  0  0  0
    7.8641  -16.2527   26.0928 O   0  0  0  0  0  0  0  0  0  0  0  0
    9.7498  -15.3210   26.9621 N   0  0  0  0  0  0  0  0  0  0  0  0
   10.1351  -16.5988   27.5452 C   0  0  1  0  0  0  0  0  0  0  0  0
   11.2509  -17.2369   26.7983 C   0  0  0  0  0  0  0  0  0  0  0  0
   11.7086  -18.4935   27.4499 C   0  0  0  0  0  0  0  0  0  0  0  0
   12.8787  -19.1337   26.6938 C   0  0  0  0  0  0  0  0  0  0  0  0
   13.2889  -20.4452   27.3070 C   0  0  0  0  0  0  0  0  0  0  0  0
   14.2804  -21.1279   26.4806 N   0  0  0  0  0  0  0  0  0  0  0  0
   10.4785  -16.4387   28.9750 C   0  0  0  0  0  0  0  0  0  0  0  0
   10.4754  -15.1200   29.4831 O   0  0  0  0  0  0  0  0  0  0  0  0
   10.7697  -17.3161   29.7872 O   0  0  0  0  0  0  0  0  0  0  0  0
  2  3  2  0
  2  1  1  0
  4  3  1  0
  5  4  2  0
  6  5  1  0
  7  6  1  0
  7  8  1  6
  9  7  1  0
  9 10  2  0
 11  5  1  0
 11 12  2  0
 12  2  1  0
 14 13  1  1
 14 16  1  0
 15 14  1  0
 16 17  1  6
 17  9  1  0
 18 16  1  0
 19 18  2  0
 20 18  1  0
 21 20  1  0
 21 27  1  0
 21 22  1  6
 23 22  1  0
 24 23  1  0
 25 24  1  0
 26 25  1  0
 27 28  1  0
 29 27  2  0
M  END
$$$$
