YVK.pdb
     RDKit          3D

 29 29  0  0  1  0  0  0  0  0999 V2000
   10.1293  -14.2705   30.8808 O   0  0  0  0  0  0  0  0  0  0  0  0
    9.9400  -14.5821   29.5252 C   0  0  0  0  0  0  0  0  0  0  0  0
   10.2994  -15.8228   29.0230 C   0  0  0  0  0  0  0  0  0  0  0  0
   10.1101  -16.1245   27.6842 C   0  0  0  0  0  0  0  0  0  0  0  0
    9.5608  -15.1948   26.8285 C   0  0  0  0  0  0  0  0  0  0  0  0
    9.3609  -15.5200   25.4132 C   0  0  0  0  0  0  0  0  0  0  0  0
    7.9009  -15.6286   25.0529 C   0  0  2  0  0  0  0  0  0  0  0  0
    7.3705  -16.7374   25.8187 N   0  0  0  0  0  0  0  0  0  0  0  0
    7.6182  -15.8177   23.6365 C   0  0  0  0  0  0  0  0  0  0  0  0
    7.4717  -16.9985   23.1904 O   0  0  0  0  0  0  0  0  0  0  0  0
    9.2039  -13.9713   27.3131 C   0  0  0  0  0  0  0  0  0  0  0  0
    9.3931  -13.6676   28.6547 C   0  0  0  0  0  0  0  0  0  0  0  0
    8.0637  -12.5004   20.9421 C   0  0  0  0  0  0  0  0  0  0  0  0
    7.2405  -13.6947   20.6080 C   0  0  1  0  0  0  0  0  0  0  0  0
    7.3382  -13.9022   19.0910 C   0  0  0  0  0  0  0  0  0  0  0  0
    7.6948  -14.9844   21.2396 C   0  0  2  0  0  0  0  0  0  0  0  0
    7.4851  -14.7894   22.6821 N   0  0  0  0  0  0  0  0  0  0  0  0
    9.0918  -15.3318   20.9860 C   0  0  0  0  0  0  0  0  0  0  0  0
    9.9129  -15.1615   21.9506 O   0  0  0  0  0  0  0  0  0  0  0  0
    9.6188  -15.8318   19.7956 N   0  0  0  0  0  0  0  0  0  0  0  0
   10.4481  -17.0290   19.8057 C   0  0  1  0  0  0  0  0  0  0  0  0
    9.7392  -18.1916   20.4021 C   0  0  0  0  0  0  0  0  0  0  0  0
   10.5992  -19.4047   20.4447 C   0  0  0  0  0  0  0  0  0  0  0  0
   10.2037  -20.3436   21.5904 C   0  0  0  0  0  0  0  0  0  0  0  0
   11.0364  -21.5968   21.5979 C   0  0  0  0  0  0  0  0  0  0  0  0
   10.6357  -22.4911   22.6805 N   0  0  0  0  0  0  0  0  0  0  0  0
   10.9279  -17.3441   18.4424 C   0  0  0  0  0  0  0  0  0  0  0  0
    9.9750  -17.2651   17.4018 O   0  0  0  0  0  0  0  0  0  0  0  0
   12.0626  -17.6697   18.0948 O   0  0  0  0  0  0  0  0  0  0  0  0
  2  3  2  0
  2  1  1  0
  4  3  1  0
  5  4  2  0
  6  5  1  0
  7  6  1  0
  7  8  1  1
  9  7  1  0
  9 10  2  0
 11  5  1  0
 11 12  2  0
 12  2  1  0
 14 13  1  1
 14 16  1  0
 15 14  1  0
 16 17  1  1
 17  9  1  0
 18 16  1  0
 19 18  2  0
 20 18  1  0
 21 20  1  0
 21 27  1  0
 21 22  1  6
 23 22  1  0
 24 23  1  0
 25 24  1  0
 26 25  1  0
 27 28  1  0
 29 27  2  0
M  END
$$$$
