YVK.pdb
     RDKit          3D

 29 29  0  0  1  0  0  0  0  0999 V2000
    6.3356  -10.3132   27.7145 O   0  0  0  0  0  0  0  0  0  0  0  0
    6.6057  -11.6142   27.2614 C   0  0  0  0  0  0  0  0  0  0  0  0
    7.8972  -12.0038   26.9443 C   0  0  0  0  0  0  0  0  0  0  0  0
    8.1575  -13.2891   26.4976 C   0  0  0  0  0  0  0  0  0  0  0  0
    7.1352  -14.2027   26.3609 C   0  0  0  0  0  0  0  0  0  0  0  0
    7.4165  -15.5619   25.8897 C   0  0  0  0  0  0  0  0  0  0  0  0
    6.5705  -15.9405   24.7006 C   0  0  2  0  0  0  0  0  0  0  0  0
    5.7379  -17.0470   25.1247 N   0  0  0  0  0  0  0  0  0  0  0  0
    7.3080  -16.3016   23.4974 C   0  0  0  0  0  0  0  0  0  0  0  0
    7.7281  -17.4938   23.3673 O   0  0  0  0  0  0  0  0  0  0  0  0
    5.8610  -13.8288   26.6705 C   0  0  0  0  0  0  0  0  0  0  0  0
    5.5987  -12.5410   27.1183 C   0  0  0  0  0  0  0  0  0  0  0  0
    6.7709  -14.3476   19.9781 C   0  0  0  0  0  0  0  0  0  0  0  0
    8.1862  -14.7132   20.2589 C   0  0  1  0  0  0  0  0  0  0  0  0
    8.8564  -13.4827   20.8838 C   0  0  0  0  0  0  0  0  0  0  0  0
    8.3754  -15.8398   21.2406 C   0  0  2  0  0  0  0  0  0  0  0  0
    7.6101  -15.4337   22.4289 N   0  0  0  0  0  0  0  0  0  0  0  0
    9.7645  -16.1010   21.6131 C   0  0  0  0  0  0  0  0  0  0  0  0
   10.3142  -15.2677   22.4112 O   0  0  0  0  0  0  0  0  0  0  0  0
   10.5506  -17.1702   21.1848 N   0  0  0  0  0  0  0  0  0  0  0  0
   11.9117  -17.3251   21.6794 C   0  0  1  0  0  0  0  0  0  0  0  0
   12.1421  -18.6738   22.2606 C   0  0  0  0  0  0  0  0  0  0  0  0
   11.6878  -18.7544   23.6749 C   0  0  0  0  0  0  0  0  0  0  0  0
   11.9329  -20.1443   24.2737 C   0  0  0  0  0  0  0  0  0  0  0  0
   11.3399  -20.2714   25.6507 C   0  0  0  0  0  0  0  0  0  0  0  0
   11.5845  -21.5974   26.2112 N   0  0  0  0  0  0  0  0  0  0  0  0
   12.8924  -17.0345   20.6109 C   0  0  0  0  0  0  0  0  0  0  0  0
   14.2521  -16.9917   20.9939 O   0  0  0  0  0  0  0  0  0  0  0  0
   12.6736  -16.8230   19.4185 O   0  0  0  0  0  0  0  0  0  0  0  0
  2  3  2  0
  2  1  1  0
  4  3  1  0
  5  4  2  0
  6  5  1  0
  7  6  1  0
  7  8  1  1
  9  7  1  0
  9 10  2  0
 11  5  1  0
 11 12  2  0
 12  2  1  0
 14 13  1  1
 14 16  1  0
 15 14  1  0
 16 17  1  1
 17  9  1  0
 18 16  1  0
 19 18  2  0
 20 18  1  0
 21 20  1  0
 21 27  1  0
 21 22  1  6
 23 22  1  0
 24 23  1  0
 25 24  1  0
 26 25  1  0
 27 28  1  0
 29 27  2  0
M  END
$$$$
