YVK.pdb
     RDKit          3D

 29 29  0  0  1  0  0  0  0  0999 V2000
   12.8581  -17.1690   31.9945 O   0  0  0  0  0  0  0  0  0  0  0  0
   12.0687  -17.0626   30.8386 C   0  0  0  0  0  0  0  0  0  0  0  0
   11.9235  -18.1361   29.9743 C   0  0  0  0  0  0  0  0  0  0  0  0
   11.1431  -18.0250   28.8351 C   0  0  0  0  0  0  0  0  0  0  0  0
   10.4974  -16.8437   28.5419 C   0  0  0  0  0  0  0  0  0  0  0  0
    9.6713  -16.7322   27.3362 C   0  0  0  0  0  0  0  0  0  0  0  0
    8.2160  -17.0117   27.6132 C   0  0  2  0  0  0  0  0  0  0  0  0
    8.1074  -18.4384   27.8372 N   0  0  0  0  0  0  0  0  0  0  0  0
    7.2891  -16.5970   26.5688 C   0  0  0  0  0  0  0  0  0  0  0  0
    6.0410  -16.6278   26.8056 O   0  0  0  0  0  0  0  0  0  0  0  0
   10.6340  -15.7817   29.3861 C   0  0  0  0  0  0  0  0  0  0  0  0
   11.4159  -15.8917   30.5283 C   0  0  0  0  0  0  0  0  0  0  0  0
    8.1301  -13.2626   25.7850 C   0  0  0  0  0  0  0  0  0  0  0  0
    6.8378  -13.9470   25.5065 C   0  0  1  0  0  0  0  0  0  0  0  0
    5.9100  -12.9142   24.8536 C   0  0  0  0  0  0  0  0  0  0  0  0
    6.9189  -15.1058   24.5477 C   0  0  2  0  0  0  0  0  0  0  0  0
    7.6500  -16.1493   25.2822 N   0  0  0  0  0  0  0  0  0  0  0  0
    7.6050  -14.8137   23.2904 C   0  0  0  0  0  0  0  0  0  0  0  0
    8.5318  -13.9344   23.3298 O   0  0  0  0  0  0  0  0  0  0  0  0
    7.3497  -15.3998   22.0512 N   0  0  0  0  0  0  0  0  0  0  0  0
    7.7354  -14.7182   20.8233 C   0  0  1  0  0  0  0  0  0  0  0  0
    7.2064  -13.3300   20.7682 C   0  0  0  0  0  0  0  0  0  0  0  0
    7.7003  -12.5942   19.5733 C   0  0  0  0  0  0  0  0  0  0  0  0
    7.3113  -13.2996   18.2688 C   0  0  0  0  0  0  0  0  0  0  0  0
    7.9213  -12.6289   17.0680 C   0  0  0  0  0  0  0  0  0  0  0  0
    7.5864  -13.3408   15.8379 N   0  0  0  0  0  0  0  0  0  0  0  0
    9.2052  -14.7316   20.6574 C   0  0  0  0  0  0  0  0  0  0  0  0
    9.9696  -15.0266   21.8088 O   0  0  0  0  0  0  0  0  0  0  0  0
    9.8543  -14.5164   19.6344 O   0  0  0  0  0  0  0  0  0  0  0  0
  2  3  2  0
  2  1  1  0
  4  3  1  0
  5  4  2  0
  6  5  1  0
  7  6  1  0
  7  8  1  6
  9  7  1  0
  9 10  2  0
 11  5  1  0
 11 12  2  0
 12  2  1  0
 14 13  1  6
 14 16  1  0
 15 14  1  0
 16 17  1  1
 17  9  1  0
 18 16  1  0
 19 18  2  0
 20 18  1  0
 21 20  1  0
 21 27  1  0
 21 22  1  1
 23 22  1  0
 24 23  1  0
 25 24  1  0
 26 25  1  0
 27 28  1  0
 29 27  2  0
M  END
$$$$
