YVK.pdb
     RDKit          3D

 29 29  0  0  1  0  0  0  0  0999 V2000
    4.9711  -10.2895   27.9849 O   0  0  0  0  0  0  0  0  0  0  0  0
    5.6881  -11.3134   27.3457 C   0  0  0  0  0  0  0  0  0  0  0  0
    6.6962  -11.9965   28.0072 C   0  0  0  0  0  0  0  0  0  0  0  0
    7.4002  -13.0059   27.3712 C   0  0  0  0  0  0  0  0  0  0  0  0
    7.1095  -13.3479   26.0685 C   0  0  0  0  0  0  0  0  0  0  0  0
    7.8562  -14.4181   25.4008 C   0  0  0  0  0  0  0  0  0  0  0  0
    6.9836  -15.2370   24.4837 C   0  0  2  0  0  0  0  0  0  0  0  0
    6.4104  -16.2908   25.2951 N   0  0  0  0  0  0  0  0  0  0  0  0
    7.6562  -15.8075   23.3244 C   0  0  0  0  0  0  0  0  0  0  0  0
    7.7691  -17.0702   23.2378 O   0  0  0  0  0  0  0  0  0  0  0  0
    6.1193  -12.6816   25.4092 C   0  0  0  0  0  0  0  0  0  0  0  0
    5.4129  -11.6696   26.0455 C   0  0  0  0  0  0  0  0  0  0  0  0
    6.9316  -14.4060   19.7548 C   0  0  0  0  0  0  0  0  0  0  0  0
    8.3804  -14.6973   19.9336 C   0  0  1  0  0  0  0  0  0  0  0  0
    9.0595  -13.3834   20.3415 C   0  0  0  0  0  0  0  0  0  0  0  0
    8.7060  -15.6932   21.0156 C   0  0  2  0  0  0  0  0  0  0  0  0
    8.2099  -15.0758   22.2547 N   0  0  0  0  0  0  0  0  0  0  0  0
   10.1274  -16.0049   21.1537 C   0  0  0  0  0  0  0  0  0  0  0  0
   10.8499  -15.8795   20.1068 O   0  0  0  0  0  0  0  0  0  0  0  0
   10.7750  -16.4251   22.3150 N   0  0  0  0  0  0  0  0  0  0  0  0
   11.9532  -17.2772   22.2313 C   0  0  1  0  0  0  0  0  0  0  0  0
   11.6754  -18.5396   21.4971 C   0  0  0  0  0  0  0  0  0  0  0  0
   12.9114  -19.3377   21.2768 C   0  0  0  0  0  0  0  0  0  0  0  0
   12.6197  -20.6455   20.5316 C   0  0  0  0  0  0  0  0  0  0  0  0
   13.8706  -21.4513   20.3076 C   0  0  0  0  0  0  0  0  0  0  0  0
   13.6090  -22.6072   19.4545 N   0  0  0  0  0  0  0  0  0  0  0  0
   13.0842  -16.5466   21.6190 C   0  0  0  0  0  0  0  0  0  0  0  0
   14.2758  -16.4756   22.3754 O   0  0  0  0  0  0  0  0  0  0  0  0
   13.1206  -15.9868   20.5237 O   0  0  0  0  0  0  0  0  0  0  0  0
  2  3  2  0
  2  1  1  0
  4  3  1  0
  5  4  2  0
  6  5  1  0
  7  6  1  0
  7  8  1  1
  9  7  1  0
  9 10  2  0
 11  5  1  0
 11 12  2  0
 12  2  1  0
 14 13  1  1
 14 16  1  0
 15 14  1  0
 16 17  1  1
 17  9  1  0
 18 16  1  0
 19 18  2  0
 20 18  1  0
 21 20  1  0
 21 27  1  0
 21 22  1  6
 23 22  1  0
 24 23  1  0
 25 24  1  0
 26 25  1  0
 27 28  1  0
 29 27  2  0
M  END
$$$$
