NNS.pdb
     RDKit          3D

 23 22  0  0  1  0  0  0  0  0999 V2000
   13.6847  -11.8441  -12.7797 N   0  0  0  0  0  0  0  0  0  0  0  0
   14.0582  -11.8730  -11.4218 C   0  0  0  0  0  0  0  0  0  0  0  0
   13.7658  -12.8519  -10.7136 O   0  0  0  0  0  0  0  0  0  0  0  0
   14.7989  -10.7367  -10.8434 C   0  0  0  0  0  0  0  0  0  0  0  0
   16.2505  -10.9878  -11.0297 C   0  0  2  0  0  0  0  0  0  0  0  0
   16.6518  -12.1716  -10.3402 N   0  0  0  0  0  0  0  0  0  0  0  0
   17.1409   -9.8634  -10.6987 C   0  0  0  0  0  0  0  0  0  0  0  0
   17.3227   -9.6067   -9.4809 O   0  0  0  0  0  0  0  0  0  0  0  0
   21.1007   -5.6487  -12.6576 N   0  0  0  0  0  0  0  0  0  0  0  0
   20.7480   -6.6592  -11.7259 C   0  0  0  0  0  0  0  0  0  0  0  0
   21.1988   -6.5325  -10.5623 O   0  0  0  0  0  0  0  0  0  0  0  0
   19.8992   -7.8172  -12.0582 C   0  0  0  0  0  0  0  0  0  0  0  0
   18.6110   -7.9144  -11.3513 C   0  0  2  0  0  0  0  0  0  0  0  0
   17.7961   -9.0660  -11.6666 N   0  0  0  0  0  0  0  0  0  0  0  0
   17.8353   -6.7178  -11.0753 C   0  0  0  0  0  0  0  0  0  0  0  0
   17.0461   -6.3294  -12.0308 O   0  0  0  0  0  0  0  0  0  0  0  0
   15.9492   -3.1844   -8.3149 O   0  0  0  0  0  0  0  0  0  0  0  0
   16.7597   -4.3328   -8.3710 C   0  0  0  0  0  0  0  0  0  0  0  0
   16.9596   -4.7358   -9.8049 C   0  0  2  0  0  0  0  0  0  0  0  0
   17.8218   -5.9196   -9.9224 N   0  0  0  0  0  0  0  0  0  0  0  0
   17.5244   -3.6406  -10.6082 C   0  0  0  0  0  0  0  0  0  0  0  0
   16.7272   -2.6585  -11.1670 O   0  0  0  0  0  0  0  0  0  0  0  0
   18.7763   -3.5591  -10.8168 O   0  0  0  0  0  0  0  0  0  0  0  0
  1  2  1  0
  2  4  1  0
  3  2  2  0
  4  5  1  0
  5  6  1  1
  7  5  1  0
  8  7  2  0
 10  9  1  0
 11 10  2  0
 12 10  1  0
 13 12  1  6
 13 15  1  0
 13 14  1  0
 14  7  1  0
 15 20  1  0
 16 15  2  0
 18 17  1  0
 19 18  1  1
 19 21  1  0
 20 19  1  0
 21 23  2  0
 21 22  1  0
M  END
$$$$
