NNS.pdb
     RDKit          3D

 23 22  0  0  1  0  0  0  0  0999 V2000
   16.1572  -13.4509  -12.1767 N   0  0  0  0  0  0  0  0  0  0  0  0
   17.0091  -12.5009  -12.7734 C   0  0  0  0  0  0  0  0  0  0  0  0
   17.9689  -12.8725  -13.4706 O   0  0  0  0  0  0  0  0  0  0  0  0
   16.7573  -11.0626  -12.5680 C   0  0  0  0  0  0  0  0  0  0  0  0
   15.6242  -10.9225  -11.6186 C   0  0  2  0  0  0  0  0  0  0  0  0
   14.4500  -11.5482  -12.1361 N   0  0  0  0  0  0  0  0  0  0  0  0
   15.3311   -9.5509  -11.1717 C   0  0  0  0  0  0  0  0  0  0  0  0
   14.5968   -8.8450  -11.9096 O   0  0  0  0  0  0  0  0  0  0  0  0
   14.9296   -4.9955   -8.4526 N   0  0  0  0  0  0  0  0  0  0  0  0
   15.0139   -6.1243   -7.5969 C   0  0  0  0  0  0  0  0  0  0  0  0
   14.8287   -5.9169   -6.3738 O   0  0  0  0  0  0  0  0  0  0  0  0
   15.3014   -7.4897   -8.0708 C   0  0  0  0  0  0  0  0  0  0  0  0
   15.5277   -7.6513   -9.5169 C   0  0  2  0  0  0  0  0  0  0  0  0
   15.8254   -8.9914   -9.9698 N   0  0  0  0  0  0  0  0  0  0  0  0
   16.2233   -6.6213  -10.2686 C   0  0  0  0  0  0  0  0  0  0  0  0
   17.4994   -6.8065  -10.4234 O   0  0  0  0  0  0  0  0  0  0  0  0
   17.0676   -4.7120  -14.1914 O   0  0  0  0  0  0  0  0  0  0  0  0
   16.4302   -5.4804  -13.2004 C   0  0  0  0  0  0  0  0  0  0  0  0
   16.4313   -4.7243  -11.9017 C   0  0  2  0  0  0  0  0  0  0  0  0
   15.7109   -5.4515  -10.8478 N   0  0  0  0  0  0  0  0  0  0  0  0
   15.8512   -3.3806  -12.0495 C   0  0  0  0  0  0  0  0  0  0  0  0
   16.6166   -2.2920  -12.4253 O   0  0  0  0  0  0  0  0  0  0  0  0
   14.6148   -3.1735  -11.8355 O   0  0  0  0  0  0  0  0  0  0  0  0
  1  2  1  0
  2  4  1  0
  3  2  2  0
  4  5  1  0
  5  6  1  6
  7  5  1  0
  8  7  2  0
 10  9  1  0
 11 10  2  0
 12 10  1  0
 13 12  1  1
 13 15  1  0
 13 14  1  0
 14  7  1  0
 15 20  1  0
 16 15  2  0
 18 17  1  0
 19 18  1  6
 19 21  1  0
 20 19  1  0
 21 23  2  0
 21 22  1  0
M  END
$$$$
