NNS.pdb
     RDKit          3D

 23 22  0  0  1  0  0  0  0  0999 V2000
   26.6514  -20.5510   -8.7841 N   0  0  0  0  0  0  0  0  0  0  0  0
   26.3530  -20.9483  -10.1022 C   0  0  0  0  0  0  0  0  0  0  0  0
   27.0606  -21.7944  -10.6756 O   0  0  0  0  0  0  0  0  0  0  0  0
   25.1963  -20.3565  -10.7996 C   0  0  0  0  0  0  0  0  0  0  0  0
   25.3540  -20.6098  -12.2541 C   0  0  2  0  0  0  0  0  0  0  0  0
   26.6260  -20.1517  -12.7126 N   0  0  0  0  0  0  0  0  0  0  0  0
   24.2739  -20.0970  -13.1126 C   0  0  0  0  0  0  0  0  0  0  0  0
   23.6698  -19.0626  -12.7290 O   0  0  0  0  0  0  0  0  0  0  0  0
   25.6090  -19.6390  -17.4375 N   0  0  0  0  0  0  0  0  0  0  0  0
   24.3712  -19.1634  -16.9327 C   0  0  0  0  0  0  0  0  0  0  0  0
   24.2783  -17.9263  -16.7471 O   0  0  0  0  0  0  0  0  0  0  0  0
   23.2238  -20.0359  -16.6262 C   0  0  0  0  0  0  0  0  0  0  0  0
   22.8599  -20.1714  -15.2057 C   0  0  2  0  0  0  0  0  0  0  0  0
   23.8843  -20.6986  -14.3326 N   0  0  0  0  0  0  0  0  0  0  0  0
   21.5171  -20.5778  -14.8295 C   0  0  0  0  0  0  0  0  0  0  0  0
   21.2688  -21.8488  -14.9272 O   0  0  0  0  0  0  0  0  0  0  0  0
   18.8323  -18.4603  -12.5795 O   0  0  0  0  0  0  0  0  0  0  0  0
   18.7630  -19.8653  -12.5888 C   0  0  0  0  0  0  0  0  0  0  0  0
   19.1770  -20.3789  -13.9390 C   0  0  2  0  0  0  0  0  0  0  0  0
   20.4485  -19.7892  -14.3792 N   0  0  0  0  0  0  0  0  0  0  0  0
   18.1465  -20.1312  -14.9590 C   0  0  0  0  0  0  0  0  0  0  0  0
   18.4140  -19.4076  -16.1066 O   0  0  0  0  0  0  0  0  0  0  0  0
   16.9645  -20.5790  -14.8186 O   0  0  0  0  0  0  0  0  0  0  0  0
  1  2  1  0
  2  4  1  0
  3  2  2  0
  4  5  1  0
  5  6  1  6
  7  5  1  0
  8  7  2  0
 10  9  1  0
 11 10  2  0
 12 10  1  0
 13 12  1  6
 13 15  1  0
 13 14  1  0
 14  7  1  0
 15 20  1  0
 16 15  2  0
 18 17  1  0
 19 18  1  1
 19 21  1  0
 20 19  1  0
 21 23  2  0
 21 22  1  0
M  END
$$$$
