NNS.pdb
     RDKit          3D

 23 22  0  0  1  0  0  0  0  0999 V2000
   11.2664  -13.2399  -12.6374 N   0  0  0  0  0  0  0  0  0  0  0  0
   12.2819  -13.6483  -11.7506 C   0  0  0  0  0  0  0  0  0  0  0  0
   12.4589  -14.8562  -11.5163 O   0  0  0  0  0  0  0  0  0  0  0  0
   13.1355  -12.6362  -11.1015 C   0  0  0  0  0  0  0  0  0  0  0  0
   14.4838  -12.7028  -11.7200 C   0  0  2  0  0  0  0  0  0  0  0  0
   15.0542  -14.0007  -11.5518 N   0  0  0  0  0  0  0  0  0  0  0  0
   15.4315  -11.6576  -11.3003 C   0  0  0  0  0  0  0  0  0  0  0  0
   15.8731  -11.7137  -10.1238 O   0  0  0  0  0  0  0  0  0  0  0  0
   18.7943   -7.5886  -10.9607 N   0  0  0  0  0  0  0  0  0  0  0  0
   18.9286   -8.3398  -12.1571 C   0  0  0  0  0  0  0  0  0  0  0  0
   19.9420   -8.1041  -12.8575 O   0  0  0  0  0  0  0  0  0  0  0  0
   17.9559   -9.3552  -12.5982 C   0  0  0  0  0  0  0  0  0  0  0  0
   16.7858   -9.5679  -11.7299 C   0  0  2  0  0  0  0  0  0  0  0  0
   15.8674  -10.6060  -12.1405 N   0  0  0  0  0  0  0  0  0  0  0  0
   16.1309   -8.4380  -11.0940 C   0  0  0  0  0  0  0  0  0  0  0  0
   15.3428   -7.7447  -11.8587 O   0  0  0  0  0  0  0  0  0  0  0  0
   14.4920   -5.8193   -7.3547 O   0  0  0  0  0  0  0  0  0  0  0  0
   15.3109   -6.8834   -7.7744 C   0  0  0  0  0  0  0  0  0  0  0  0
   15.4464   -6.8518   -9.2708 C   0  0  2  0  0  0  0  0  0  0  0  0
   16.2336   -7.9873   -9.7701 N   0  0  0  0  0  0  0  0  0  0  0  0
   16.0522   -5.5960   -9.7396 C   0  0  0  0  0  0  0  0  0  0  0  0
   17.3439   -5.5469  -10.2305 O   0  0  0  0  0  0  0  0  0  0  0  0
   15.4017   -4.5036   -9.7098 O   0  0  0  0  0  0  0  0  0  0  0  0
  1  2  1  0
  2  4  1  0
  3  2  2  0
  4  5  1  0
  5  6  1  1
  7  5  1  0
  8  7  2  0
 10  9  1  0
 11 10  2  0
 12 10  1  0
 13 12  1  6
 13 15  1  0
 13 14  1  0
 14  7  1  0
 15 20  1  0
 16 15  2  0
 18 17  1  0
 19 18  1  1
 19 21  1  0
 20 19  1  0
 21 23  2  0
 21 22  1  0
M  END
$$$$
