NNS.pdb
     RDKit          3D

 23 22  0  0  1  0  0  0  0  0999 V2000
   16.2573  -11.5083  -14.4894 N   0  0  0  0  0  0  0  0  0  0  0  0
   16.0435  -11.4071  -13.1008 C   0  0  0  0  0  0  0  0  0  0  0  0
   16.4426  -12.3052  -12.3396 O   0  0  0  0  0  0  0  0  0  0  0  0
   15.3443  -10.2300  -12.5531 C   0  0  0  0  0  0  0  0  0  0  0  0
   16.1650   -9.6787  -11.4452 C   0  0  2  0  0  0  0  0  0  0  0  0
   16.2779  -10.6231  -10.3805 N   0  0  0  0  0  0  0  0  0  0  0  0
   15.7470   -8.3631  -10.9340 C   0  0  0  0  0  0  0  0  0  0  0  0
   15.2077   -7.5696  -11.7474 O   0  0  0  0  0  0  0  0  0  0  0  0
   12.8656   -7.9863   -8.5902 N   0  0  0  0  0  0  0  0  0  0  0  0
   13.6008   -7.4072   -7.5236 C   0  0  0  0  0  0  0  0  0  0  0  0
   13.0968   -7.4998   -6.3787 O   0  0  0  0  0  0  0  0  0  0  0  0
   14.8934   -6.7217   -7.6993 C   0  0  0  0  0  0  0  0  0  0  0  0
   15.4419   -6.6894   -9.0656 C   0  0  2  0  0  0  0  0  0  0  0  0
   15.9171   -7.9491   -9.5918 N   0  0  0  0  0  0  0  0  0  0  0  0
   16.2181   -5.5474   -9.5160 C   0  0  0  0  0  0  0  0  0  0  0  0
   17.3643   -5.3825   -8.9281 O   0  0  0  0  0  0  0  0  0  0  0  0
   15.8172   -3.4415  -13.0456 O   0  0  0  0  0  0  0  0  0  0  0  0
   17.0621   -3.5591  -12.4012 C   0  0  0  0  0  0  0  0  0  0  0  0
   16.8579   -3.5599  -10.9123 C   0  0  2  0  0  0  0  0  0  0  0  0
   15.9017   -4.5941  -10.4946 N   0  0  0  0  0  0  0  0  0  0  0  0
   16.4038   -2.2500  -10.4208 C   0  0  0  0  0  0  0  0  0  0  0  0
   17.1570   -1.1035  -10.5949 O   0  0  0  0  0  0  0  0  0  0  0  0
   15.2927   -2.1269   -9.8146 O   0  0  0  0  0  0  0  0  0  0  0  0
  1  2  1  0
  2  4  1  0
  3  2  2  0
  4  5  1  0
  5  6  1  1
  7  5  1  0
  8  7  2  0
 10  9  1  0
 11 10  2  0
 12 10  1  0
 13 12  1  1
 13 15  1  0
 13 14  1  0
 14  7  1  0
 15 20  1  0
 16 15  2  0
 18 17  1  0
 19 18  1  6
 19 21  1  0
 20 19  1  0
 21 23  2  0
 21 22  1  0
M  END
$$$$
