NNS.pdb
     RDKit          3D

 23 22  0  0  1  0  0  0  0  0999 V2000
   14.0399  -13.2885  -17.3678 N   0  0  0  0  0  0  0  0  0  0  0  0
   14.7885  -13.2942  -16.1745 C   0  0  0  0  0  0  0  0  0  0  0  0
   15.5599  -14.2365  -15.9248 O   0  0  0  0  0  0  0  0  0  0  0  0
   14.6538  -12.1765  -15.2222 C   0  0  0  0  0  0  0  0  0  0  0  0
   15.8420  -11.2982  -15.3688 C   0  0  2  0  0  0  0  0  0  0  0  0
   17.0448  -12.0307  -15.1348 N   0  0  0  0  0  0  0  0  0  0  0  0
   15.8224  -10.0591  -14.5745 C   0  0  0  0  0  0  0  0  0  0  0  0
   14.8272   -9.3012  -14.7065 O   0  0  0  0  0  0  0  0  0  0  0  0
   16.4340   -6.6268   -9.9180 N   0  0  0  0  0  0  0  0  0  0  0  0
   17.3538   -7.2873  -10.7730 C   0  0  0  0  0  0  0  0  0  0  0  0
   18.4811   -6.7532  -10.9050 O   0  0  0  0  0  0  0  0  0  0  0  0
   17.0494   -8.5374  -11.4914 C   0  0  0  0  0  0  0  0  0  0  0  0
   16.8719   -8.4331  -12.9496 C   0  0  2  0  0  0  0  0  0  0  0  0
   16.8513   -9.6803  -13.6802 N   0  0  0  0  0  0  0  0  0  0  0  0
   17.4894   -7.3441  -13.6861 C   0  0  0  0  0  0  0  0  0  0  0  0
   18.7434   -7.5080  -13.9813 O   0  0  0  0  0  0  0  0  0  0  0  0
   15.6268   -4.2194  -15.7137 O   0  0  0  0  0  0  0  0  0  0  0  0
   16.8553   -4.7483  -16.1497 C   0  0  0  0  0  0  0  0  0  0  0  0
   17.6628   -5.1866  -14.9605 C   0  0  2  0  0  0  0  0  0  0  0  0
   16.9223   -6.1372  -14.1201 N   0  0  0  0  0  0  0  0  0  0  0  0
   18.0938   -4.0444  -14.1398 C   0  0  0  0  0  0  0  0  0  0  0  0
   18.9181   -3.0542  -14.6418 O   0  0  0  0  0  0  0  0  0  0  0  0
   17.7185   -3.9281  -12.9303 O   0  0  0  0  0  0  0  0  0  0  0  0
  1  2  1  0
  2  4  1  0
  3  2  2  0
  4  5  1  0
  5  6  1  1
  7  5  1  0
  8  7  2  0
 10  9  1  0
 11 10  2  0
 12 10  1  0
 13 12  1  1
 13 15  1  0
 13 14  1  0
 14  7  1  0
 15 20  1  0
 16 15  2  0
 18 17  1  0
 19 18  1  6
 19 21  1  0
 20 19  1  0
 21 23  2  0
 21 22  1  0
M  END
$$$$
