NNS.pdb
     RDKit          3D

 23 22  0  0  1  0  0  0  0  0999 V2000
   13.9576  -13.9293  -13.3358 N   0  0  0  0  0  0  0  0  0  0  0  0
   14.8544  -13.2208  -12.5123 C   0  0  0  0  0  0  0  0  0  0  0  0
   15.9464  -13.7249  -12.1982 O   0  0  0  0  0  0  0  0  0  0  0  0
   14.4924  -11.8772  -12.0244 C   0  0  0  0  0  0  0  0  0  0  0  0
   15.7101  -11.0284  -12.0606 C   0  0  2  0  0  0  0  0  0  0  0  0
   16.7707  -11.6330  -11.3206 N   0  0  0  0  0  0  0  0  0  0  0  0
   15.5235   -9.6259  -11.6546 C   0  0  0  0  0  0  0  0  0  0  0  0
   14.5578   -8.9991  -12.1611 O   0  0  0  0  0  0  0  0  0  0  0  0
   14.0052   -8.1036   -8.5437 N   0  0  0  0  0  0  0  0  0  0  0  0
   15.2365   -7.5814   -8.0697 C   0  0  0  0  0  0  0  0  0  0  0  0
   15.3347   -7.4111   -6.8309 O   0  0  0  0  0  0  0  0  0  0  0  0
   16.3713   -7.2405   -8.9459 C   0  0  0  0  0  0  0  0  0  0  0  0
   16.2197   -7.5609  -10.3752 C   0  0  2  0  0  0  0  0  0  0  0  0
   16.3629   -8.9536  -10.7350 N   0  0  0  0  0  0  0  0  0  0  0  0
   16.7246   -6.6495  -11.3873 C   0  0  0  0  0  0  0  0  0  0  0  0
   17.9948   -6.7428  -11.6411 O   0  0  0  0  0  0  0  0  0  0  0  0
   16.8141   -4.5742  -15.5514 O   0  0  0  0  0  0  0  0  0  0  0  0
   16.2636   -5.4080  -14.5611 C   0  0  0  0  0  0  0  0  0  0  0  0
   16.6779   -4.9150  -13.2033 C   0  0  2  0  0  0  0  0  0  0  0  0
   16.0333   -5.6790  -12.1267 N   0  0  0  0  0  0  0  0  0  0  0  0
   16.3854   -3.4841  -13.0272 C   0  0  0  0  0  0  0  0  0  0  0  0
   17.2672   -2.5023  -13.4401 O   0  0  0  0  0  0  0  0  0  0  0  0
   15.3014   -3.0988  -12.4852 O   0  0  0  0  0  0  0  0  0  0  0  0
  1  2  1  0
  2  4  1  0
  3  2  2  0
  4  5  1  0
  5  6  1  1
  7  5  1  0
  8  7  2  0
 10  9  1  0
 11 10  2  0
 12 10  1  0
 13 12  1  1
 13 15  1  0
 13 14  1  0
 14  7  1  0
 15 20  1  0
 16 15  2  0
 18 17  1  0
 19 18  1  6
 19 21  1  0
 20 19  1  0
 21 23  2  0
 21 22  1  0
M  END
$$$$
