NNS.pdb
     RDKit          3D

 23 22  0  0  1  0  0  0  0  0999 V2000
   18.4777  -13.1211  -17.3987 N   0  0  0  0  0  0  0  0  0  0  0  0
   18.3832  -12.8239  -16.0250 C   0  0  0  0  0  0  0  0  0  0  0  0
   17.5621  -13.4243  -15.3104 O   0  0  0  0  0  0  0  0  0  0  0  0
   19.2637  -11.7974  -15.4373 C   0  0  0  0  0  0  0  0  0  0  0  0
   20.2073  -11.3404  -16.4888 C   0  0  2  0  0  0  0  0  0  0  0  0
   20.9439  -12.4415  -17.0209 N   0  0  0  0  0  0  0  0  0  0  0  0
   21.1116  -10.2448  -16.1032 C   0  0  0  0  0  0  0  0  0  0  0  0
   21.1799   -9.9518  -14.8819 O   0  0  0  0  0  0  0  0  0  0  0  0
   25.1280   -5.9900  -18.0582 N   0  0  0  0  0  0  0  0  0  0  0  0
   24.7363   -6.9726  -17.1124 C   0  0  0  0  0  0  0  0  0  0  0  0
   25.1148   -6.7961  -15.9296 O   0  0  0  0  0  0  0  0  0  0  0  0
   23.9275   -8.1569  -17.4513 C   0  0  0  0  0  0  0  0  0  0  0  0
   22.6960   -8.3596  -16.6698 C   0  0  2  0  0  0  0  0  0  0  0  0
   21.8993   -9.5129  -17.0229 N   0  0  0  0  0  0  0  0  0  0  0  0
   21.9026   -7.2194  -16.2451 C   0  0  0  0  0  0  0  0  0  0  0  0
   21.0678   -6.7587  -17.1269 O   0  0  0  0  0  0  0  0  0  0  0  0
   19.0660   -4.5533  -13.7913 O   0  0  0  0  0  0  0  0  0  0  0  0
   19.8396   -5.7116  -13.9885 C   0  0  0  0  0  0  0  0  0  0  0  0
   21.0747   -5.3626  -14.7701 C   0  0  2  0  0  0  0  0  0  0  0  0
   21.9142   -6.5427  -15.0170 N   0  0  0  0  0  0  0  0  0  0  0  0
   21.8751   -4.3281  -14.0969 C   0  0  0  0  0  0  0  0  0  0  0  0
   21.5057   -2.9957  -14.1095 O   0  0  0  0  0  0  0  0  0  0  0  0
   22.9428   -4.6276  -13.4744 O   0  0  0  0  0  0  0  0  0  0  0  0
  1  2  1  0
  2  4  1  0
  3  2  2  0
  4  5  1  0
  5  6  1  1
  7  5  1  0
  8  7  2  0
 10  9  1  0
 11 10  2  0
 12 10  1  0
 13 12  1  6
 13 15  1  0
 13 14  1  0
 14  7  1  0
 15 20  1  0
 16 15  2  0
 18 17  1  0
 19 18  1  1
 19 21  1  0
 20 19  1  0
 21 23  2  0
 21 22  1  0
M  END
$$$$
