NNS.pdb
     RDKit          3D

 23 22  0  0  1  0  0  0  0  0999 V2000
   19.2893  -11.4231  -17.3172 N   0  0  0  0  0  0  0  0  0  0  0  0
   19.0968  -10.9637  -15.9995 C   0  0  0  0  0  0  0  0  0  0  0  0
   19.9423  -11.2091  -15.1219 O   0  0  0  0  0  0  0  0  0  0  0  0
   17.8873  -10.1892  -15.6652 C   0  0  0  0  0  0  0  0  0  0  0  0
   17.5798  -10.4087  -14.2292 C   0  0  2  0  0  0  0  0  0  0  0  0
   17.2095  -11.7671  -13.9928 N   0  0  0  0  0  0  0  0  0  0  0  0
   16.5940   -9.4885  -13.6392 C   0  0  0  0  0  0  0  0  0  0  0  0
   15.4333   -9.4934  -14.1239 O   0  0  0  0  0  0  0  0  0  0  0  0
   16.4787   -6.4514   -8.6272 N   0  0  0  0  0  0  0  0  0  0  0  0
   16.6532   -7.4351   -9.6348 C   0  0  0  0  0  0  0  0  0  0  0  0
   17.7733   -7.9975   -9.6827 O   0  0  0  0  0  0  0  0  0  0  0  0
   15.6046   -7.8125  -10.5990 C   0  0  0  0  0  0  0  0  0  0  0  0
   15.9351   -7.6586  -12.0258 C   0  0  2  0  0  0  0  0  0  0  0  0
   16.8794   -8.6096  -12.5677 N   0  0  0  0  0  0  0  0  0  0  0  0
   16.0503   -6.3346  -12.6119 C   0  0  0  0  0  0  0  0  0  0  0  0
   17.2616   -5.9307  -12.8489 O   0  0  0  0  0  0  0  0  0  0  0  0
   14.4113   -2.3168  -14.8251 O   0  0  0  0  0  0  0  0  0  0  0  0
   14.0850   -3.5406  -14.2128 C   0  0  0  0  0  0  0  0  0  0  0  0
   15.3252   -4.1544  -13.6267 C   0  0  2  0  0  0  0  0  0  0  0  0
   15.0365   -5.4283  -12.9542 N   0  0  0  0  0  0  0  0  0  0  0  0
   15.9925   -3.2456  -12.6820 C   0  0  0  0  0  0  0  0  0  0  0  0
   17.0025   -2.3898  -13.0816 O   0  0  0  0  0  0  0  0  0  0  0  0
   15.6592   -3.2156  -11.4551 O   0  0  0  0  0  0  0  0  0  0  0  0
  1  2  1  0
  2  4  1  0
  3  2  2  0
  4  5  1  0
  5  6  1  6
  7  5  1  0
  8  7  2  0
 10  9  1  0
 11 10  2  0
 12 10  1  0
 13 12  1  1
 13 15  1  0
 13 14  1  0
 14  7  1  0
 15 20  1  0
 16 15  2  0
 18 17  1  0
 19 18  1  1
 19 21  1  0
 20 19  1  0
 21 23  2  0
 21 22  1  0
M  END
$$$$
