CQR.pdb
     RDKit          3D

 27 26  0  0  1  0  0  0  0  0999 V2000
    6.1488  -17.3845   22.5140 N   0  0  0  0  0  0  0  0  0  0  0  0
    7.3607  -16.7289   22.0051 C   0  0  1  0  0  0  0  0  0  0  0  0
    7.6398  -15.5253   22.9105 C   0  0  0  0  0  0  0  0  0  0  0  0
    6.2636  -14.3792   22.8027 S   0  0  0  0  0  0  0  0  0  0  0  0
    8.4886  -17.6576   21.9690 C   0  0  0  0  0  0  0  0  0  0  0  0
    8.3204  -18.7948   22.5371 O   0  0  0  0  0  0  0  0  0  0  0  0
    9.2180  -22.1301   18.7238 N   0  0  0  0  0  0  0  0  0  0  0  0
    8.7371  -20.8277   19.0187 C   0  0  0  0  0  0  0  0  0  0  0  0
    7.4911  -20.6346   19.0075 O   0  0  0  0  0  0  0  0  0  0  0  0
    9.6654  -19.7249   19.3266 C   0  0  0  0  0  0  0  0  0  0  0  0
   10.3138  -19.7374   20.6560 C   0  0  0  0  0  0  0  0  0  0  0  0
   10.7566  -18.4454   21.2240 C   0  0  2  0  0  0  0  0  0  0  0  0
    9.7579  -17.4134   21.3574 N   0  0  0  0  0  0  0  0  0  0  0  0
   12.0058  -17.9254   20.6144 C   0  0  0  0  0  0  0  0  0  0  0  0
   12.1031  -17.9766   19.3602 O   0  0  0  0  0  0  0  0  0  0  0  0
    8.6180  -12.2331   18.6996 N   0  0  0  0  0  0  0  0  0  0  0  0
    9.0424  -13.4125   18.0083 C   0  0  0  0  0  0  0  0  0  0  0  0
    8.3718  -13.9012   17.0240 N   0  0  0  0  0  0  0  0  0  0  0  0
   10.2230  -14.0547   18.4134 N   0  0  0  0  0  0  0  0  0  0  0  0
   11.0003  -13.4990   19.5441 C   0  0  0  0  0  0  0  0  0  0  0  0
   12.2054  -14.3158   19.8076 C   0  0  0  0  0  0  0  0  0  0  0  0
   12.2558  -15.1521   21.0154 C   0  0  0  0  0  0  0  0  0  0  0  0
   13.4525  -15.9403   21.3078 C   0  0  2  0  0  0  0  0  0  0  0  0
   13.0727  -17.3841   21.3612 N   0  0  0  0  0  0  0  0  0  0  0  0
   14.4022  -15.6386   22.3526 C   0  0  0  0  0  0  0  0  0  0  0  0
   14.3458  -15.9510   23.5727 O   0  0  0  0  0  0  0  0  0  0  0  0
   15.5951  -14.8922   22.0675 O   0  0  0  0  0  0  0  0  0  0  0  0
  2  1  1  1
  3  2  1  0
  4  3  1  0
  5  2  1  0
  5  6  2  0
  7  8  1  0
  8  9  2  0
  8 10  1  0
 10 11  1  0
 12 11  1  6
 12 13  1  0
 13  5  1  0
 14 12  1  0
 15 14  2  0
 16 17  1  0
 17 19  1  0
 18 17  2  0
 19 20  1  0
 20 21  1  0
 22 21  1  0
 23 22  1  1
 23 24  1  0
 24 14  1  0
 25 23  1  0
 26 25  2  0
 27 25  1  0
M  END
$$$$
