CQR.pdb
     RDKit          3D

 27 26  0  0  1  0  0  0  0  0999 V2000
    6.6089  -14.1988   18.9852 N   0  0  0  0  0  0  0  0  0  0  0  0
    8.0588  -13.9672   18.9452 C   0  0  1  0  0  0  0  0  0  0  0  0
    8.3306  -12.6609   19.6975 C   0  0  0  0  0  0  0  0  0  0  0  0
    7.9294  -12.8887   21.4314 S   0  0  0  0  0  0  0  0  0  0  0  0
    8.7901  -15.0924   19.5242 C   0  0  0  0  0  0  0  0  0  0  0  0
    8.1482  -15.8383   20.3462 O   0  0  0  0  0  0  0  0  0  0  0  0
   13.7381  -17.6856   16.5301 N   0  0  0  0  0  0  0  0  0  0  0  0
   12.9000  -18.4592   17.3751 C   0  0  0  0  0  0  0  0  0  0  0  0
   13.1743  -19.6797   17.5327 O   0  0  0  0  0  0  0  0  0  0  0  0
   11.7357  -17.8576   18.0498 C   0  0  0  0  0  0  0  0  0  0  0  0
   11.9892  -17.1164   19.3045 C   0  0  0  0  0  0  0  0  0  0  0  0
   10.8370  -16.4792   19.9785 C   0  0  2  0  0  0  0  0  0  0  0  0
   10.1518  -15.4360   19.2556 N   0  0  0  0  0  0  0  0  0  0  0  0
   11.1138  -16.0841   21.3820 C   0  0  0  0  0  0  0  0  0  0  0  0
   11.3524  -14.8683   21.6051 O   0  0  0  0  0  0  0  0  0  0  0  0
    5.5597  -12.5889   25.4036 N   0  0  0  0  0  0  0  0  0  0  0  0
    6.6250  -12.5709   26.3595 C   0  0  0  0  0  0  0  0  0  0  0  0
    6.6561  -11.7210   27.3260 N   0  0  0  0  0  0  0  0  0  0  0  0
    7.6652  -13.5060   26.2413 N   0  0  0  0  0  0  0  0  0  0  0  0
    7.9963  -14.0589   24.9086 C   0  0  0  0  0  0  0  0  0  0  0  0
    9.0868  -15.0539   25.0065 C   0  0  0  0  0  0  0  0  0  0  0  0
    9.6067  -15.6724   23.7786 C   0  0  0  0  0  0  0  0  0  0  0  0
   10.7303  -16.6058   23.8509 C   0  0  2  0  0  0  0  0  0  0  0  0
   11.1215  -16.9915   22.4616 N   0  0  0  0  0  0  0  0  0  0  0  0
   10.7897  -17.7570   24.7202 C   0  0  0  0  0  0  0  0  0  0  0  0
   10.2714  -18.8932   24.5475 O   0  0  0  0  0  0  0  0  0  0  0  0
   11.5055  -17.7021   25.9636 O   0  0  0  0  0  0  0  0  0  0  0  0
  2  1  1  1
  3  2  1  0
  4  3  1  0
  5  2  1  0
  5  6  2  0
  7  8  1  0
  8  9  2  0
  8 10  1  0
 10 11  1  0
 12 11  1  6
 12 13  1  0
 13  5  1  0
 14 12  1  0
 15 14  2  0
 16 17  1  0
 17 19  1  0
 18 17  2  0
 19 20  1  0
 20 21  1  0
 22 21  1  0
 23 22  1  6
 23 24  1  0
 24 14  1  0
 25 23  1  0
 26 25  2  0
 27 25  1  0
M  END
$$$$
