CQR.pdb
     RDKit          3D

 27 26  0  0  1  0  0  0  0  0999 V2000
    2.7837  -18.6033   22.2490 N   0  0  0  0  0  0  0  0  0  0  0  0
    4.1847  -19.0025   22.0609 C   0  0  1  0  0  0  0  0  0  0  0  0
    4.4058  -19.1876   20.5566 C   0  0  0  0  0  0  0  0  0  0  0  0
    6.1286  -19.5939   20.2630 S   0  0  0  0  0  0  0  0  0  0  0  0
    5.0973  -18.0121   22.6286 C   0  0  0  0  0  0  0  0  0  0  0  0
    4.8479  -16.7809   22.3717 O   0  0  0  0  0  0  0  0  0  0  0  0
    7.5317  -16.8204   28.2649 N   0  0  0  0  0  0  0  0  0  0  0  0
    8.0455  -17.9766   27.6216 C   0  0  0  0  0  0  0  0  0  0  0  0
    8.6348  -18.8401   28.3266 O   0  0  0  0  0  0  0  0  0  0  0  0
    7.9007  -18.1662   26.1670 C   0  0  0  0  0  0  0  0  0  0  0  0
    7.1960  -17.1064   25.4132 C   0  0  0  0  0  0  0  0  0  0  0  0
    7.0986  -17.2479   23.9441 C   0  0  2  0  0  0  0  0  0  0  0  0
    6.2384  -18.2920   23.4437 N   0  0  0  0  0  0  0  0  0  0  0  0
    8.4146  -17.2446   23.2583 C   0  0  0  0  0  0  0  0  0  0  0  0
    8.8828  -18.3565   22.8984 O   0  0  0  0  0  0  0  0  0  0  0  0
    7.5882  -12.0852   19.6538 N   0  0  0  0  0  0  0  0  0  0  0  0
    8.0702  -12.7358   18.4734 C   0  0  0  0  0  0  0  0  0  0  0  0
    7.3521  -12.8315   17.4092 N   0  0  0  0  0  0  0  0  0  0  0  0
    9.3622  -13.2846   18.4747 N   0  0  0  0  0  0  0  0  0  0  0  0
   10.1400  -13.3073   19.7341 C   0  0  0  0  0  0  0  0  0  0  0  0
    9.9821  -14.6043   20.4281 C   0  0  0  0  0  0  0  0  0  0  0  0
   10.7394  -14.8546   21.6628 C   0  0  0  0  0  0  0  0  0  0  0  0
   10.5291  -16.0947   22.4091 C   0  0  2  0  0  0  0  0  0  0  0  0
    9.1545  -16.0735   22.9939 N   0  0  0  0  0  0  0  0  0  0  0  0
   11.4629  -16.6529   23.3583 C   0  0  0  0  0  0  0  0  0  0  0  0
   11.3057  -16.8291   24.5967 O   0  0  0  0  0  0  0  0  0  0  0  0
   12.7632  -17.0930   22.9372 O   0  0  0  0  0  0  0  0  0  0  0  0
  2  1  1  6
  3  2  1  0
  4  3  1  0
  5  2  1  0
  5  6  2  0
  7  8  1  0
  8  9  2  0
  8 10  1  0
 10 11  1  0
 12 11  1  1
 12 13  1  0
 13  5  1  0
 14 12  1  0
 15 14  2  0
 16 17  1  0
 17 19  1  0
 18 17  2  0
 19 20  1  0
 20 21  1  0
 22 21  1  0
 23 22  1  1
 23 24  1  0
 24 14  1  0
 25 23  1  0
 26 25  2  0
 27 25  1  0
M  END
$$$$
