CQR.pdb
     RDKit          3D

 27 26  0  0  1  0  0  0  0  0999 V2000
    5.3928  -19.8487   22.5194 N   0  0  0  0  0  0  0  0  0  0  0  0
    5.6919  -18.5178   23.0642 C   0  0  1  0  0  0  0  0  0  0  0  0
    6.2436  -18.7198   24.4788 C   0  0  0  0  0  0  0  0  0  0  0  0
    6.5197  -17.1162   25.2348 S   0  0  0  0  0  0  0  0  0  0  0  0
    6.6326  -17.7960   22.2097 C   0  0  0  0  0  0  0  0  0  0  0  0
    7.5371  -18.4931   21.6267 O   0  0  0  0  0  0  0  0  0  0  0  0
    6.5221  -12.5040   18.5168 N   0  0  0  0  0  0  0  0  0  0  0  0
    7.8738  -12.9351   18.5567 C   0  0  0  0  0  0  0  0  0  0  0  0
    8.6908  -12.4137   17.7501 O   0  0  0  0  0  0  0  0  0  0  0  0
    8.3157  -13.9679   19.5111 C   0  0  0  0  0  0  0  0  0  0  0  0
    7.2756  -14.6060   20.3472 C   0  0  0  0  0  0  0  0  0  0  0  0
    7.6767  -15.7407   21.2072 C   0  0  2  0  0  0  0  0  0  0  0  0
    6.6334  -16.3872   21.9649 N   0  0  0  0  0  0  0  0  0  0  0  0
    8.8696  -15.4593   22.0440 C   0  0  0  0  0  0  0  0  0  0  0  0
    8.8883  -14.3723   22.6788 O   0  0  0  0  0  0  0  0  0  0  0  0
    8.8803  -12.9789   28.2413 N   0  0  0  0  0  0  0  0  0  0  0  0
    9.5107  -14.2141   28.5961 C   0  0  0  0  0  0  0  0  0  0  0  0
   10.1605  -14.3528   29.6988 N   0  0  0  0  0  0  0  0  0  0  0  0
    9.4179  -15.3056   27.7185 N   0  0  0  0  0  0  0  0  0  0  0  0
   10.5393  -15.5924   26.7956 C   0  0  0  0  0  0  0  0  0  0  0  0
   10.2223  -16.7437   25.9222 C   0  0  0  0  0  0  0  0  0  0  0  0
    9.7601  -16.4971   24.5488 C   0  0  0  0  0  0  0  0  0  0  0  0
   10.7120  -16.5424   23.4393 C   0  0  2  0  0  0  0  0  0  0  0  0
    9.9662  -16.3383   22.1610 N   0  0  0  0  0  0  0  0  0  0  0  0
   11.7261  -17.5552   23.2653 C   0  0  0  0  0  0  0  0  0  0  0  0
   11.6083  -18.6957   22.7411 O   0  0  0  0  0  0  0  0  0  0  0  0
   13.0718  -17.3316   23.7132 O   0  0  0  0  0  0  0  0  0  0  0  0
  2  1  1  6
  3  2  1  0
  4  3  1  0
  5  2  1  0
  5  6  2  0
  7  8  1  0
  8  9  2  0
  8 10  1  0
 10 11  1  0
 12 11  1  1
 12 13  1  0
 13  5  1  0
 14 12  1  0
 15 14  2  0
 16 17  1  0
 17 19  1  0
 18 17  2  0
 19 20  1  0
 20 21  1  0
 22 21  1  0
 23 22  1  1
 23 24  1  0
 24 14  1  0
 25 23  1  0
 26 25  2  0
 27 25  1  0
M  END
$$$$
