LWT.pdb
     RDKit          3D

 30 31  0  0  1  0  0  0  0  0999 V2000
   19.3017  -18.4321  -11.7172 C   0  0  0  0  0  0  0  0  0  0  0  0
   19.9604  -19.7582  -12.0353 C   0  0  1  0  0  0  0  0  0  0  0  0
   19.3672  -20.2823  -13.3042 C   0  0  0  0  0  0  0  0  0  0  0  0
   21.4595  -19.5661  -12.1185 C   0  0  0  0  0  0  0  0  0  0  0  0
   22.1491  -20.7659  -12.7195 C   0  0  2  0  0  0  0  0  0  0  0  0
   21.9564  -21.8910  -11.8302 N   0  0  0  0  0  0  0  0  0  0  0  0
   23.6043  -20.4593  -12.7487 C   0  0  0  0  0  0  0  0  0  0  0  0
   24.0153  -19.3131  -13.1238 O   0  0  0  0  0  0  0  0  0  0  0  0
   24.5921  -21.4001  -12.3705 N   0  0  0  0  0  0  0  0  0  0  0  0
   26.0318  -21.1228  -12.5225 C   0  0  1  0  0  0  0  0  0  0  0  0
   26.7241  -21.6841  -11.3233 C   0  0  0  0  0  0  0  0  0  0  0  0
   26.6053  -20.9277  -10.0861 C   0  0  0  0  0  0  0  0  0  0  0  0
   25.4593  -20.3244   -9.6175 C   0  0  0  0  0  0  0  0  0  0  0  0
   25.7831  -19.7106   -8.4446 N   0  0  0  0  0  0  0  0  0  0  0  0
   27.0704  -19.8953   -8.1505 C   0  0  0  0  0  0  0  0  0  0  0  0
   27.8188  -19.4621   -7.0794 C   0  0  0  0  0  0  0  0  0  0  0  0
   29.1748  -19.8001   -7.0078 C   0  0  0  0  0  0  0  0  0  0  0  0
   29.7228  -20.5656   -8.0257 C   0  0  0  0  0  0  0  0  0  0  0  0
   28.9479  -20.9804   -9.0788 C   0  0  0  0  0  0  0  0  0  0  0  0
   27.5966  -20.6558   -9.1704 C   0  0  0  0  0  0  0  0  0  0  0  0
   26.4405  -21.7257  -13.8095 C   0  0  0  0  0  0  0  0  0  0  0  0
   26.2553  -22.9733  -14.0453 O   0  0  0  0  0  0  0  0  0  0  0  0
   25.7656  -20.1966  -17.4083 C   0  0  0  0  0  0  0  0  0  0  0  0
   27.1920  -20.6073  -17.2320 C   0  0  1  0  0  0  0  0  0  0  0  0
   27.9197  -19.4856  -16.8379 O   0  0  0  0  0  0  0  0  0  0  0  0
   27.3653  -21.6382  -16.1351 C   0  0  2  0  0  0  0  0  0  0  0  0
   27.0528  -21.0061  -14.8703 N   0  0  0  0  0  0  0  0  0  0  0  0
   28.6932  -22.2489  -16.1988 C   0  0  0  0  0  0  0  0  0  0  0  0
   29.4732  -22.0619  -15.2316 O   0  0  0  0  0  0  0  0  0  0  0  0
   29.1751  -23.0241  -17.2413 O   0  0  0  0  0  0  0  0  0  0  0  0
  2  1  1  6
  3  2  1  0
  4  2  1  0
  5  4  1  0
  5  6  1  1
  7  9  1  0
  7  5  1  0
  8  7  2  0
 10  9  1  0
 10 11  1  1
 12 13  2  0
 12 11  1  0
 14 13  1  0
 15 20  2  0
 15 14  1  0
 16 15  1  0
 17 18  1  0
 17 16  2  0
 18 19  2  0
 19 20  1  0
 20 12  1  0
 21 10  1  0
 22 21  2  0
 24 23  1  1
 24 25  1  0
 24 26  1  0
 26 27  1  1
 26 28  1  0
 27 21  1  0
 28 30  1  0
 29 28  2  0
M  END
$$$$
