LWT.pdb
     RDKit          3D

 30 31  0  0  1  0  0  0  0  0999 V2000
   28.2183  -19.1796   -7.2987 C   0  0  0  0  0  0  0  0  0  0  0  0
   26.7320  -19.2586   -7.5778 C   0  0  1  0  0  0  0  0  0  0  0  0
   26.3211  -18.0044   -8.2814 C   0  0  0  0  0  0  0  0  0  0  0  0
   26.4381  -20.5091   -8.3784 C   0  0  0  0  0  0  0  0  0  0  0  0
   24.9764  -20.6195   -8.7354 C   0  0  2  0  0  0  0  0  0  0  0  0
   24.4267  -21.7648   -8.0425 N   0  0  0  0  0  0  0  0  0  0  0  0
   24.9070  -20.9003  -10.1945 C   0  0  0  0  0  0  0  0  0  0  0  0
   25.4499  -21.9472  -10.6770 O   0  0  0  0  0  0  0  0  0  0  0  0
   24.2499  -20.0421  -11.1084 N   0  0  0  0  0  0  0  0  0  0  0  0
   24.0290  -20.4231  -12.5151 C   0  0  1  0  0  0  0  0  0  0  0  0
   22.5532  -20.5277  -12.7233 C   0  0  0  0  0  0  0  0  0  0  0  0
   22.1077  -20.9644  -14.0378 C   0  0  0  0  0  0  0  0  0  0  0  0
   22.2436  -22.2340  -14.5538 C   0  0  0  0  0  0  0  0  0  0  0  0
   21.7147  -22.2124  -15.8098 N   0  0  0  0  0  0  0  0  0  0  0  0
   21.2538  -20.9981  -16.1111 C   0  0  0  0  0  0  0  0  0  0  0  0
   20.6475  -20.5247  -17.2527 C   0  0  0  0  0  0  0  0  0  0  0  0
   20.2512  -19.1840  -17.3141 C   0  0  0  0  0  0  0  0  0  0  0  0
   20.4844  -18.3719  -16.2148 C   0  0  0  0  0  0  0  0  0  0  0  0
   21.0913  -18.8765  -15.0929 C   0  0  0  0  0  0  0  0  0  0  0  0
   21.4938  -20.2073  -15.0099 C   0  0  0  0  0  0  0  0  0  0  0  0
   24.6967  -19.3915  -13.3379 C   0  0  0  0  0  0  0  0  0  0  0  0
   24.6273  -18.1486  -13.0270 O   0  0  0  0  0  0  0  0  0  0  0  0
   28.1833  -18.7011  -14.1743 C   0  0  0  0  0  0  0  0  0  0  0  0
   27.4694  -18.8085  -15.4832 C   0  0  1  0  0  0  0  0  0  0  0  0
   27.6506  -20.1021  -15.9700 O   0  0  0  0  0  0  0  0  0  0  0  0
   25.9740  -18.6079  -15.3442 C   0  0  2  0  0  0  0  0  0  0  0  0
   25.4537  -19.6690  -14.5075 N   0  0  0  0  0  0  0  0  0  0  0  0
   25.3382  -18.5008  -16.6575 C   0  0  0  0  0  0  0  0  0  0  0  0
   25.6471  -17.5218  -17.3820 O   0  0  0  0  0  0  0  0  0  0  0  0
   24.4149  -19.3913  -17.1815 O   0  0  0  0  0  0  0  0  0  0  0  0
  2  1  1  6
  3  2  1  0
  4  2  1  0
  5  4  1  0
  5  6  1  1
  7  9  1  0
  7  5  1  0
  8  7  2  0
 10  9  1  0
 10 11  1  6
 12 13  2  0
 12 11  1  0
 14 13  1  0
 15 20  2  0
 15 14  1  0
 16 15  1  0
 17 18  1  0
 17 16  2  0
 18 19  2  0
 19 20  1  0
 20 12  1  0
 21 10  1  0
 22 21  2  0
 24 23  1  1
 24 25  1  0
 24 26  1  0
 26 27  1  6
 26 28  1  0
 27 21  1  0
 28 30  1  0
 29 28  2  0
M  END
$$$$
