LWT.pdb
     RDKit          3D

 30 31  0  0  1  0  0  0  0  0999 V2000
   28.9662  -20.6955  -13.0225 C   0  0  0  0  0  0  0  0  0  0  0  0
   27.4682  -20.4819  -12.9601 C   0  0  1  0  0  0  0  0  0  0  0  0
   26.8849  -20.8724  -14.2808 C   0  0  0  0  0  0  0  0  0  0  0  0
   26.8966  -21.2740  -11.8038 C   0  0  0  0  0  0  0  0  0  0  0  0
   25.4008  -21.1114  -11.6939 C   0  0  2  0  0  0  0  0  0  0  0  0
   25.0907  -19.7012  -11.7893 N   0  0  0  0  0  0  0  0  0  0  0  0
   25.0148  -21.5658  -10.3312 C   0  0  0  0  0  0  0  0  0  0  0  0
   25.4295  -22.6837   -9.8817 O   0  0  0  0  0  0  0  0  0  0  0  0
   24.1852  -20.8014   -9.4761 N   0  0  0  0  0  0  0  0  0  0  0  0
   23.7769  -21.2883   -8.1461 C   0  0  1  0  0  0  0  0  0  0  0  0
   24.2012  -20.2633   -7.1452 C   0  0  0  0  0  0  0  0  0  0  0  0
   25.6278  -19.9938   -7.0499 C   0  0  0  0  0  0  0  0  0  0  0  0
   26.4554  -19.6550   -8.0974 C   0  0  0  0  0  0  0  0  0  0  0  0
   27.7092  -19.5086   -7.5834 N   0  0  0  0  0  0  0  0  0  0  0  0
   27.7145  -19.7370   -6.2698 C   0  0  0  0  0  0  0  0  0  0  0  0
   28.7432  -19.7026   -5.3557 C   0  0  0  0  0  0  0  0  0  0  0  0
   28.4772  -19.9872   -4.0116 C   0  0  0  0  0  0  0  0  0  0  0  0
   27.1767  -20.2964   -3.6434 C   0  0  0  0  0  0  0  0  0  0  0  0
   26.1754  -20.3216   -4.5805 C   0  0  0  0  0  0  0  0  0  0  0  0
   26.4173  -20.0418   -5.9233 C   0  0  0  0  0  0  0  0  0  0  0  0
   22.3175  -21.5173   -8.2142 C   0  0  0  0  0  0  0  0  0  0  0  0
   21.5339  -20.6468   -8.7381 O   0  0  0  0  0  0  0  0  0  0  0  0
   18.3368  -24.2845   -8.3353 C   0  0  0  0  0  0  0  0  0  0  0  0
   19.8192  -24.0932   -8.3154 C   0  0  1  0  0  0  0  0  0  0  0  0
   20.2667  -24.0426   -9.6346 O   0  0  0  0  0  0  0  0  0  0  0  0
   20.2242  -22.7813   -7.6744 C   0  0  2  0  0  0  0  0  0  0  0  0
   21.6679  -22.6824   -7.7257 N   0  0  0  0  0  0  0  0  0  0  0  0
   19.6527  -22.6581   -6.3333 C   0  0  0  0  0  0  0  0  0  0  0  0
   20.3724  -22.9821   -5.3557 O   0  0  0  0  0  0  0  0  0  0  0  0
   18.3744  -22.2113   -6.0393 O   0  0  0  0  0  0  0  0  0  0  0  0
  2  1  1  6
  3  2  1  0
  4  2  1  0
  5  4  1  0
  5  6  1  1
  7  9  1  0
  7  5  1  0
  8  7  2  0
 10  9  1  0
 10 11  1  1
 12 13  2  0
 12 11  1  0
 14 13  1  0
 15 20  2  0
 15 14  1  0
 16 15  1  0
 17 18  1  0
 17 16  2  0
 18 19  2  0
 19 20  1  0
 20 12  1  0
 21 10  1  0
 22 21  2  0
 24 23  1  6
 24 25  1  0
 24 26  1  0
 26 27  1  1
 26 28  1  0
 27 21  1  0
 28 30  1  0
 29 28  2  0
M  END
$$$$
