LWT.pdb
     RDKit          3D

 30 31  0  0  1  0  0  0  0  0999 V2000
   26.9230  -18.0119  -16.8612 C   0  0  0  0  0  0  0  0  0  0  0  0
   27.8394  -19.0143  -16.1913 C   0  0  1  0  0  0  0  0  0  0  0  0
   28.7957  -18.2639  -15.3199 C   0  0  0  0  0  0  0  0  0  0  0  0
   27.0073  -20.0208  -15.4260 C   0  0  0  0  0  0  0  0  0  0  0  0
   27.8624  -20.9365  -14.5855 C   0  0  2  0  0  0  0  0  0  0  0  0
   28.0030  -22.1944  -15.2868 N   0  0  0  0  0  0  0  0  0  0  0  0
   27.1085  -21.2025  -13.3311 C   0  0  0  0  0  0  0  0  0  0  0  0
   26.1502  -22.0422  -13.3195 O   0  0  0  0  0  0  0  0  0  0  0  0
   27.4050  -20.5543  -12.1081 N   0  0  0  0  0  0  0  0  0  0  0  0
   26.6424  -20.8264  -10.8765 C   0  0  1  0  0  0  0  0  0  0  0  0
   27.4568  -20.3282   -9.7272 C   0  0  0  0  0  0  0  0  0  0  0  0
   26.8956  -20.5160   -8.3980 C   0  0  0  0  0  0  0  0  0  0  0  0
   25.6475  -21.0249   -8.1151 C   0  0  0  0  0  0  0  0  0  0  0  0
   25.5111  -21.0151   -6.7591 N   0  0  0  0  0  0  0  0  0  0  0  0
   26.6058  -20.5276   -6.1744 C   0  0  0  0  0  0  0  0  0  0  0  0
   26.9052  -20.3368   -4.8444 C   0  0  0  0  0  0  0  0  0  0  0  0
   28.1477  -19.7991   -4.4905 C   0  0  0  0  0  0  0  0  0  0  0  0
   29.0419  -19.4743   -5.4992 C   0  0  0  0  0  0  0  0  0  0  0  0
   28.7109  -19.6776   -6.8147 C   0  0  0  0  0  0  0  0  0  0  0  0
   27.4803  -20.2114   -7.1896 C   0  0  0  0  0  0  0  0  0  0  0  0
   25.3325  -20.1597  -11.0395 C   0  0  0  0  0  0  0  0  0  0  0  0
   25.2450  -18.9875  -11.5539 O   0  0  0  0  0  0  0  0  0  0  0  0
   23.9409  -19.3867  -13.1535 C   0  0  0  0  0  0  0  0  0  0  0  0
   22.7689  -20.0964  -12.5559 C   0  0  1  0  0  0  0  0  0  0  0  0
   22.7989  -21.4212  -12.9883 O   0  0  0  0  0  0  0  0  0  0  0  0
   22.8284  -20.1376  -11.0424 C   0  0  2  0  0  0  0  0  0  0  0  0
   24.0905  -20.7342  -10.6580 N   0  0  0  0  0  0  0  0  0  0  0  0
   21.6475  -20.8035  -10.4923 C   0  0  0  0  0  0  0  0  0  0  0  0
   21.8105  -21.9087   -9.9172 O   0  0  0  0  0  0  0  0  0  0  0  0
   20.3499  -20.3207  -10.5486 O   0  0  0  0  0  0  0  0  0  0  0  0
  2  1  1  1
  3  2  1  0
  4  2  1  0
  5  4  1  0
  5  6  1  6
  7  9  1  0
  7  5  1  0
  8  7  2  0
 10  9  1  0
 10 11  1  1
 12 13  2  0
 12 11  1  0
 14 13  1  0
 15 20  2  0
 15 14  1  0
 16 15  1  0
 17 18  1  0
 17 16  2  0
 18 19  2  0
 19 20  1  0
 20 12  1  0
 21 10  1  0
 22 21  2  0
 24 23  1  6
 24 25  1  0
 24 26  1  0
 26 27  1  6
 26 28  1  0
 27 21  1  0
 28 30  1  0
 29 28  2  0
M  END
$$$$
