LWT.pdb
     RDKit          3D

 30 31  0  0  1  0  0  0  0  0999 V2000
   29.7890  -21.1487  -17.3347 C   0  0  0  0  0  0  0  0  0  0  0  0
   28.7865  -20.1606  -16.7759 C   0  0  1  0  0  0  0  0  0  0  0  0
   27.9543  -19.6483  -17.9081 C   0  0  0  0  0  0  0  0  0  0  0  0
   27.9664  -20.8346  -15.6970 C   0  0  0  0  0  0  0  0  0  0  0  0
   26.8899  -19.9260  -15.1568 C   0  0  2  0  0  0  0  0  0  0  0  0
   27.5298  -18.7914  -14.5264 N   0  0  0  0  0  0  0  0  0  0  0  0
   26.1741  -20.6852  -14.0967 C   0  0  0  0  0  0  0  0  0  0  0  0
   25.9973  -21.9419  -14.2102 O   0  0  0  0  0  0  0  0  0  0  0  0
   25.6611  -20.0706  -12.9293 N   0  0  0  0  0  0  0  0  0  0  0  0
   24.8750  -20.8215  -11.9339 C   0  0  1  0  0  0  0  0  0  0  0  0
   25.2981  -20.3486  -10.5812 C   0  0  0  0  0  0  0  0  0  0  0  0
   26.6542  -20.6768  -10.1685 C   0  0  0  0  0  0  0  0  0  0  0  0
   27.5722  -21.3873  -10.9096 C   0  0  0  0  0  0  0  0  0  0  0  0
   28.7027  -21.4863  -10.1549 N   0  0  0  0  0  0  0  0  0  0  0  0
   28.5451  -20.8767   -8.9796 C   0  0  0  0  0  0  0  0  0  0  0  0
   29.4118  -20.7287   -7.9204 C   0  0  0  0  0  0  0  0  0  0  0  0
   28.9921  -20.0316   -6.7820 C   0  0  0  0  0  0  0  0  0  0  0  0
   27.7078  -19.5095   -6.7593 C   0  0  0  0  0  0  0  0  0  0  0  0
   26.8700  -19.6756   -7.8326 C   0  0  0  0  0  0  0  0  0  0  0  0
   27.2666  -20.3657   -8.9755 C   0  0  0  0  0  0  0  0  0  0  0  0
   23.4520  -20.5791  -12.2551 C   0  0  0  0  0  0  0  0  0  0  0  0
   23.0411  -19.4159  -12.6081 O   0  0  0  0  0  0  0  0  0  0  0  0
   22.0082  -19.6646  -14.3131 C   0  0  0  0  0  0  0  0  0  0  0  0
   21.1680  -20.8857  -14.1204 C   0  0  1  0  0  0  0  0  0  0  0  0
   21.7681  -21.9372  -14.8113 O   0  0  0  0  0  0  0  0  0  0  0  0
   21.0938  -21.3132  -12.6687 C   0  0  2  0  0  0  0  0  0  0  0  0
   22.4411  -21.5761  -12.2078 N   0  0  0  0  0  0  0  0  0  0  0  0
   20.1642  -22.4305  -12.5012 C   0  0  0  0  0  0  0  0  0  0  0  0
   18.9369  -22.1998  -12.6400 O   0  0  0  0  0  0  0  0  0  0  0  0
   20.5181  -23.7358  -12.1996 O   0  0  0  0  0  0  0  0  0  0  0  0
  2  1  1  6
  3  2  1  0
  4  2  1  0
  5  4  1  0
  5  6  1  1
  7  9  1  0
  7  5  1  0
  8  7  2  0
 10  9  1  0
 10 11  1  1
 12 13  2  0
 12 11  1  0
 14 13  1  0
 15 20  2  0
 15 14  1  0
 16 15  1  0
 17 18  1  0
 17 16  2  0
 18 19  2  0
 19 20  1  0
 20 12  1  0
 21 10  1  0
 22 21  2  0
 24 23  1  1
 24 25  1  0
 24 26  1  0
 26 27  1  6
 26 28  1  0
 27 21  1  0
 28 30  1  0
 29 28  2  0
M  END
$$$$
