LWT.pdb
     RDKit          3D

 30 31  0  0  1  0  0  0  0  0999 V2000
   26.9788  -20.1962  -19.7104 C   0  0  0  0  0  0  0  0  0  0  0  0
   27.9456  -20.8595  -18.7519 C   0  0  1  0  0  0  0  0  0  0  0  0
   29.1073  -19.9397  -18.5487 C   0  0  0  0  0  0  0  0  0  0  0  0
   27.2242  -21.1943  -17.4639 C   0  0  0  0  0  0  0  0  0  0  0  0
   28.1580  -21.7696  -16.4280 C   0  0  2  0  0  0  0  0  0  0  0  0
   28.5436  -23.0977  -16.8541 N   0  0  0  0  0  0  0  0  0  0  0  0
   27.3760  -21.9099  -15.1704 C   0  0  0  0  0  0  0  0  0  0  0  0
   26.5744  -22.8880  -15.0143 O   0  0  0  0  0  0  0  0  0  0  0  0
   27.4750  -20.9879  -14.1010 N   0  0  0  0  0  0  0  0  0  0  0  0
   26.6763  -21.1321  -12.8706 C   0  0  1  0  0  0  0  0  0  0  0  0
   27.3567  -20.3415  -11.8008 C   0  0  0  0  0  0  0  0  0  0  0  0
   26.6840  -20.2699  -10.5127 C   0  0  0  0  0  0  0  0  0  0  0  0
   25.3274  -20.1329  -10.3188 C   0  0  0  0  0  0  0  0  0  0  0  0
   25.1197  -20.0892   -8.9725 N   0  0  0  0  0  0  0  0  0  0  0  0
   26.2721  -20.1913   -8.3097 C   0  0  0  0  0  0  0  0  0  0  0  0
   26.5346  -20.1941   -6.9584 C   0  0  0  0  0  0  0  0  0  0  0  0
   27.8564  -20.3170   -6.5160 C   0  0  0  0  0  0  0  0  0  0  0  0
   28.8646  -20.4328   -7.4608 C   0  0  0  0  0  0  0  0  0  0  0  0
   28.5675  -20.4263   -8.7999 C   0  0  0  0  0  0  0  0  0  0  0  0
   27.2594  -20.3050   -9.2626 C   0  0  0  0  0  0  0  0  0  0  0  0
   25.3101  -20.6737  -13.2023 C   0  0  0  0  0  0  0  0  0  0  0  0
   25.0968  -19.4847  -13.6350 O   0  0  0  0  0  0  0  0  0  0  0  0
   23.0358  -21.4256  -15.7745 C   0  0  0  0  0  0  0  0  0  0  0  0
   22.2426  -21.6616  -14.5297 C   0  0  1  0  0  0  0  0  0  0  0  0
   22.2927  -23.0234  -14.2364 O   0  0  0  0  0  0  0  0  0  0  0  0
   22.8236  -20.9425  -13.3291 C   0  0  2  0  0  0  0  0  0  0  0  0
   24.1457  -21.4782  -13.0803 N   0  0  0  0  0  0  0  0  0  0  0  0
   21.9123  -21.0152  -12.1868 C   0  0  0  0  0  0  0  0  0  0  0  0
   22.2886  -21.6577  -11.1747 O   0  0  0  0  0  0  0  0  0  0  0  0
   20.6567  -20.4330  -12.1186 O   0  0  0  0  0  0  0  0  0  0  0  0
  2  1  1  6
  3  2  1  0
  4  2  1  0
  5  4  1  0
  5  6  1  6
  7  9  1  0
  7  5  1  0
  8  7  2  0
 10  9  1  0
 10 11  1  1
 12 13  2  0
 12 11  1  0
 14 13  1  0
 15 20  2  0
 15 14  1  0
 16 15  1  0
 17 18  1  0
 17 16  2  0
 18 19  2  0
 19 20  1  0
 20 12  1  0
 21 10  1  0
 22 21  2  0
 24 23  1  6
 24 25  1  0
 24 26  1  0
 26 27  1  1
 26 28  1  0
 27 21  1  0
 28 30  1  0
 29 28  2  0
M  END
$$$$
