LWT.pdb
     RDKit          3D

 30 31  0  0  1  0  0  0  0  0999 V2000
   27.8226  -22.2706  -19.9802 C   0  0  0  0  0  0  0  0  0  0  0  0
   27.3636  -21.0938  -19.1448 C   0  0  1  0  0  0  0  0  0  0  0  0
   26.2765  -20.3871  -19.8902 C   0  0  0  0  0  0  0  0  0  0  0  0
   26.9229  -21.5871  -17.7833 C   0  0  0  0  0  0  0  0  0  0  0  0
   26.4118  -20.4641  -16.9151 C   0  0  2  0  0  0  0  0  0  0  0  0
   27.3926  -19.4002  -16.9278 N   0  0  0  0  0  0  0  0  0  0  0  0
   26.3370  -20.9905  -15.5258 C   0  0  0  0  0  0  0  0  0  0  0  0
   25.6846  -22.0554  -15.2732 O   0  0  0  0  0  0  0  0  0  0  0  0
   26.9709  -20.3546  -14.4315 N   0  0  0  0  0  0  0  0  0  0  0  0
   26.8101  -20.8385  -13.0485 C   0  0  1  0  0  0  0  0  0  0  0  0
   27.9800  -20.3425  -12.2626 C   0  0  0  0  0  0  0  0  0  0  0  0
   28.1095  -20.8369  -10.9003 C   0  0  0  0  0  0  0  0  0  0  0  0
   28.6365  -22.0549  -10.5321 C   0  0  0  0  0  0  0  0  0  0  0  0
   28.5554  -22.1298   -9.1736 N   0  0  0  0  0  0  0  0  0  0  0  0
   28.0061  -21.0251   -8.6682 C   0  0  0  0  0  0  0  0  0  0  0  0
   27.7337  -20.6716   -7.3659 C   0  0  0  0  0  0  0  0  0  0  0  0
   27.1428  -19.4312   -7.1004 C   0  0  0  0  0  0  0  0  0  0  0  0
   26.8497  -18.5939   -8.1660 C   0  0  0  0  0  0  0  0  0  0  0  0
   27.1346  -18.9779   -9.4516 C   0  0  0  0  0  0  0  0  0  0  0  0
   27.7223  -20.2075   -9.7389 C   0  0  0  0  0  0  0  0  0  0  0  0
   25.4977  -20.3422  -12.5814 C   0  0  0  0  0  0  0  0  0  0  0  0
   24.9676  -19.2905  -13.0905 O   0  0  0  0  0  0  0  0  0  0  0  0
   22.3335  -22.0670  -12.8012 C   0  0  0  0  0  0  0  0  0  0  0  0
   22.5028  -20.6358  -12.4047 C   0  0  1  0  0  0  0  0  0  0  0  0
   21.2556  -20.1411  -12.0268 O   0  0  0  0  0  0  0  0  0  0  0  0
   23.4111  -20.4725  -11.2029 C   0  0  2  0  0  0  0  0  0  0  0  0
   24.7256  -20.9620  -11.5628 N   0  0  0  0  0  0  0  0  0  0  0  0
   22.8287  -21.1053  -10.0194 C   0  0  0  0  0  0  0  0  0  0  0  0
   23.5255  -21.9480   -9.4006 O   0  0  0  0  0  0  0  0  0  0  0  0
   21.5631  -20.8571   -9.5127 O   0  0  0  0  0  0  0  0  0  0  0  0
  2  1  1  6
  3  2  1  0
  4  2  1  0
  5  4  1  0
  5  6  1  1
  7  9  1  0
  7  5  1  0
  8  7  2  0
 10  9  1  0
 10 11  1  1
 12 13  2  0
 12 11  1  0
 14 13  1  0
 15 20  2  0
 15 14  1  0
 16 15  1  0
 17 18  1  0
 17 16  2  0
 18 19  2  0
 19 20  1  0
 20 12  1  0
 21 10  1  0
 22 21  2  0
 24 23  1  1
 24 25  1  0
 24 26  1  0
 26 27  1  6
 26 28  1  0
 27 21  1  0
 28 30  1  0
 29 28  2  0
M  END
$$$$
