LWT.pdb
     RDKit          3D

 30 31  0  0  1  0  0  0  0  0999 V2000
   27.4868  -17.9042  -17.1007 C   0  0  0  0  0  0  0  0  0  0  0  0
   28.2554  -18.8018  -16.1536 C   0  0  1  0  0  0  0  0  0  0  0  0
   29.1084  -17.9382  -15.2798 C   0  0  0  0  0  0  0  0  0  0  0  0
   27.2812  -19.6557  -15.3707 C   0  0  0  0  0  0  0  0  0  0  0  0
   27.9510  -20.3629  -14.2186 C   0  0  2  0  0  0  0  0  0  0  0  0
   28.6910  -21.4885  -14.7473 N   0  0  0  0  0  0  0  0  0  0  0  0
   26.8682  -20.9027  -13.3534 C   0  0  0  0  0  0  0  0  0  0  0  0
   26.2398  -21.9591  -13.6888 O   0  0  0  0  0  0  0  0  0  0  0  0
   26.4830  -20.2890  -12.1373 N   0  0  0  0  0  0  0  0  0  0  0  0
   25.4502  -20.8724  -11.2624 C   0  0  1  0  0  0  0  0  0  0  0  0
   25.6911  -20.3565   -9.8810 C   0  0  0  0  0  0  0  0  0  0  0  0
   26.9912  -20.6426   -9.2937 C   0  0  0  0  0  0  0  0  0  0  0  0
   27.9978  -21.3750   -9.8829 C   0  0  0  0  0  0  0  0  0  0  0  0
   29.0310  -21.4185   -8.9951 N   0  0  0  0  0  0  0  0  0  0  0  0
   28.7284  -20.7533   -7.8800 C   0  0  0  0  0  0  0  0  0  0  0  0
   29.4610  -20.5390   -6.7344 C   0  0  0  0  0  0  0  0  0  0  0  0
   28.9018  -19.7922   -5.6914 C   0  0  0  0  0  0  0  0  0  0  0  0
   27.6192  -19.2896   -5.8484 C   0  0  0  0  0  0  0  0  0  0  0  0
   26.9171  -19.5222   -7.0036 C   0  0  0  0  0  0  0  0  0  0  0  0
   27.4539  -20.2625   -8.0541 C   0  0  0  0  0  0  0  0  0  0  0  0
   24.1450  -20.4919  -11.8443 C   0  0  0  0  0  0  0  0  0  0  0  0
   23.8764  -19.2695  -12.1268 O   0  0  0  0  0  0  0  0  0  0  0  0
   22.7835  -21.1971  -15.0082 C   0  0  0  0  0  0  0  0  0  0  0  0
   21.6943  -21.6071  -14.0702 C   0  0  1  0  0  0  0  0  0  0  0  0
   21.7830  -22.9852  -13.8802 O   0  0  0  0  0  0  0  0  0  0  0  0
   21.8420  -20.9749  -12.7011 C   0  0  2  0  0  0  0  0  0  0  0  0
   23.1025  -21.4113  -12.1378 N   0  0  0  0  0  0  0  0  0  0  0  0
   20.6727  -21.2565  -11.8681 C   0  0  0  0  0  0  0  0  0  0  0  0
   20.8374  -21.9670  -10.8449 O   0  0  0  0  0  0  0  0  0  0  0  0
   19.3845  -20.8057  -12.1076 O   0  0  0  0  0  0  0  0  0  0  0  0
  2  1  1  6
  3  2  1  0
  4  2  1  0
  5  4  1  0
  5  6  1  6
  7  9  1  0
  7  5  1  0
  8  7  2  0
 10  9  1  0
 10 11  1  1
 12 13  2  0
 12 11  1  0
 14 13  1  0
 15 20  2  0
 15 14  1  0
 16 15  1  0
 17 18  1  0
 17 16  2  0
 18 19  2  0
 19 20  1  0
 20 12  1  0
 21 10  1  0
 22 21  2  0
 24 23  1  6
 24 25  1  0
 24 26  1  0
 26 27  1  1
 26 28  1  0
 27 21  1  0
 28 30  1  0
 29 28  2  0
M  END
$$$$
