LWT.pdb
     RDKit          3D

 30 31  0  0  1  0  0  0  0  0999 V2000
   27.6533  -17.8851  -16.6069 C   0  0  0  0  0  0  0  0  0  0  0  0
   28.4437  -18.7507  -15.6480 C   0  0  1  0  0  0  0  0  0  0  0  0
   29.3871  -17.8699  -14.8924 C   0  0  0  0  0  0  0  0  0  0  0  0
   27.4876  -19.5032  -14.7475 C   0  0  0  0  0  0  0  0  0  0  0  0
   28.2148  -20.2893  -13.6848 C   0  0  2  0  0  0  0  0  0  0  0  0
   28.8850  -21.4014  -14.3236 N   0  0  0  0  0  0  0  0  0  0  0  0
   27.1792  -20.8498  -12.7760 C   0  0  0  0  0  0  0  0  0  0  0  0
   26.6645  -21.9916  -13.0101 O   0  0  0  0  0  0  0  0  0  0  0  0
   26.7173  -20.1641  -11.6271 N   0  0  0  0  0  0  0  0  0  0  0  0
   25.6701  -20.7235  -10.7535 C   0  0  1  0  0  0  0  0  0  0  0  0
   25.8846  -20.1649   -9.3844 C   0  0  0  0  0  0  0  0  0  0  0  0
   27.0501  -20.6449   -8.6577 C   0  0  0  0  0  0  0  0  0  0  0  0
   27.9952  -21.5228   -9.1403 C   0  0  0  0  0  0  0  0  0  0  0  0
   28.9008  -21.7221   -8.1414 N   0  0  0  0  0  0  0  0  0  0  0  0
   28.5761  -21.0173   -7.0572 C   0  0  0  0  0  0  0  0  0  0  0  0
   29.1959  -20.9158   -5.8322 C   0  0  0  0  0  0  0  0  0  0  0  0
   28.6399  -20.0914   -4.8476 C   0  0  0  0  0  0  0  0  0  0  0  0
   27.4749  -19.3995   -5.1415 C   0  0  0  0  0  0  0  0  0  0  0  0
   26.8834  -19.5238   -6.3728 C   0  0  0  0  0  0  0  0  0  0  0  0
   27.4192  -20.3384   -7.3673 C   0  0  0  0  0  0  0  0  0  0  0  0
   24.3748  -20.3648  -11.3703 C   0  0  0  0  0  0  0  0  0  0  0  0
   24.0904  -19.1460  -11.6531 O   0  0  0  0  0  0  0  0  0  0  0  0
   23.0408  -21.2359  -14.5603 C   0  0  0  0  0  0  0  0  0  0  0  0
   21.9357  -21.5715  -13.6113 C   0  0  1  0  0  0  0  0  0  0  0  0
   21.9823  -22.9419  -13.3603 O   0  0  0  0  0  0  0  0  0  0  0  0
   22.0964  -20.8842  -12.2705 C   0  0  2  0  0  0  0  0  0  0  0  0
   23.3595  -21.3024  -11.6992 N   0  0  0  0  0  0  0  0  0  0  0  0
   20.9325  -21.1263  -11.4178 C   0  0  0  0  0  0  0  0  0  0  0  0
   21.1014  -21.7984  -10.3698 O   0  0  0  0  0  0  0  0  0  0  0  0
   19.6452  -20.6766  -11.6638 O   0  0  0  0  0  0  0  0  0  0  0  0
  2  1  1  6
  3  2  1  0
  4  2  1  0
  5  4  1  0
  5  6  1  6
  7  9  1  0
  7  5  1  0
  8  7  2  0
 10  9  1  0
 10 11  1  1
 12 13  2  0
 12 11  1  0
 14 13  1  0
 15 20  2  0
 15 14  1  0
 16 15  1  0
 17 18  1  0
 17 16  2  0
 18 19  2  0
 19 20  1  0
 20 12  1  0
 21 10  1  0
 22 21  2  0
 24 23  1  6
 24 25  1  0
 24 26  1  0
 26 27  1  1
 26 28  1  0
 27 21  1  0
 28 30  1  0
 29 28  2  0
M  END
$$$$
