AFN.pdb
     RDKit          3D

 25 25  0  0  1  0  0  0  0  0999 V2000
   22.0830  -13.7548  -19.0387 C   0  0  0  0  0  0  0  0  0  0  0  0
   22.8495  -14.1963  -17.8251 C   0  0  2  0  0  0  0  0  0  0  0  0
   22.5377  -15.5243  -17.3882 N   0  0  0  0  0  0  0  0  0  0  0  0
   22.7392  -13.1799  -16.7523 C   0  0  0  0  0  0  0  0  0  0  0  0
   21.6319  -13.0252  -16.1904 O   0  0  0  0  0  0  0  0  0  0  0  0
   23.8531  -12.3935  -16.3612 N   0  0  0  0  0  0  0  0  0  0  0  0
   23.7434  -11.3854  -15.3028 C   0  0  1  0  0  0  0  0  0  0  0  0
   24.9606  -11.3970  -14.4268 C   0  0  0  0  0  0  0  0  0  0  0  0
   26.2325  -11.4621  -15.1758 C   0  0  0  0  0  0  0  0  0  0  0  0
   26.8015  -10.3589  -15.7562 C   0  0  0  0  0  0  0  0  0  0  0  0
   28.0044  -10.4868  -16.4441 C   0  0  0  0  0  0  0  0  0  0  0  0
   28.6392  -11.6949  -16.5577 C   0  0  0  0  0  0  0  0  0  0  0  0
   28.0759  -12.8252  -15.9751 C   0  0  0  0  0  0  0  0  0  0  0  0
   26.8867  -12.6823  -15.2984 C   0  0  0  0  0  0  0  0  0  0  0  0
   23.4752  -10.0857  -15.9530 C   0  0  0  0  0  0  0  0  0  0  0  0
   23.7444   -9.9069  -17.1829 O   0  0  0  0  0  0  0  0  0  0  0  0
   20.8272   -5.8984  -17.1004 N   0  0  0  0  0  0  0  0  0  0  0  0
   20.4397   -7.2120  -17.4045 C   0  0  0  0  0  0  0  0  0  0  0  0
   19.5165   -7.4364  -18.2254 O   0  0  0  0  0  0  0  0  0  0  0  0
   21.1231   -8.3515  -16.7539 C   0  0  0  0  0  0  0  0  0  0  0  0
   22.2671   -7.8609  -15.8765 C   0  0  2  0  0  0  0  0  0  0  0  0
   22.9143   -8.9938  -15.2481 N   0  0  0  0  0  0  0  0  0  0  0  0
   21.7678   -6.8923  -14.8686 C   0  0  0  0  0  0  0  0  0  0  0  0
   21.9129   -5.5273  -15.0247 O   0  0  0  0  0  0  0  0  0  0  0  0
   21.1954   -7.3334  -13.8418 O   0  0  0  0  0  0  0  0  0  0  0  0
  2  1  1  6
  2  4  1  0
  2  3  1  0
  4  5  2  0
  6  7  1  0
  6  4  1  0
  7  8  1  6
  9  8  1  0
  9 10  2  0
 11 10  1  0
 12 11  2  0
 13 14  2  0
 13 12  1  0
 14  9  1  0
 15 22  1  0
 15  7  1  0
 16 15  2  0
 18 19  2  0
 18 17  1  0
 21 20  1  1
 20 18  1  0
 21 23  1  0
 21 22  1  0
 23 24  1  0
 25 23  2  0
M  END
$$$$
