AFN.pdb
     RDKit          3D

 25 25  0  0  1  0  0  0  0  0999 V2000
   23.6836  -12.6975  -18.7567 C   0  0  0  0  0  0  0  0  0  0  0  0
   23.2216  -11.3149  -19.1179 C   0  0  2  0  0  0  0  0  0  0  0  0
   24.0251  -10.6720  -20.1143 N   0  0  0  0  0  0  0  0  0  0  0  0
   23.0354  -10.5013  -17.8934 C   0  0  0  0  0  0  0  0  0  0  0  0
   22.3887  -10.9956  -16.9429 O   0  0  0  0  0  0  0  0  0  0  0  0
   23.5711   -9.1922  -17.7866 N   0  0  0  0  0  0  0  0  0  0  0  0
   23.4390   -8.4102  -16.5539 C   0  0  1  0  0  0  0  0  0  0  0  0
   24.7700   -7.8748  -16.1168 C   0  0  0  0  0  0  0  0  0  0  0  0
   25.8017   -8.9171  -15.9385 C   0  0  0  0  0  0  0  0  0  0  0  0
   25.7812   -9.8005  -14.8911 C   0  0  0  0  0  0  0  0  0  0  0  0
   26.7809  -10.7626  -14.7831 C   0  0  0  0  0  0  0  0  0  0  0  0
   27.7921  -10.8506  -15.7023 C   0  0  0  0  0  0  0  0  0  0  0  0
   27.8288   -9.9620  -16.7715 C   0  0  0  0  0  0  0  0  0  0  0  0
   26.8334   -9.0169  -16.8644 C   0  0  0  0  0  0  0  0  0  0  0  0
   22.4154   -7.3717  -16.7939 C   0  0  0  0  0  0  0  0  0  0  0  0
   22.4384   -6.6697  -17.8539 O   0  0  0  0  0  0  0  0  0  0  0  0
   17.9394   -8.9049  -15.4197 N   0  0  0  0  0  0  0  0  0  0  0  0
   18.4889   -7.8323  -16.1379 C   0  0  0  0  0  0  0  0  0  0  0  0
   18.5240   -7.8495  -17.3929 O   0  0  0  0  0  0  0  0  0  0  0  0
   19.0350   -6.6633  -15.4142 C   0  0  0  0  0  0  0  0  0  0  0  0
   20.3058   -6.1616  -16.0868 C   0  0  2  0  0  0  0  0  0  0  0  0
   21.3759   -7.1126  -15.8687 N   0  0  0  0  0  0  0  0  0  0  0  0
   20.6638   -4.8142  -15.5771 C   0  0  0  0  0  0  0  0  0  0  0  0
   19.8359   -3.7206  -15.7431 O   0  0  0  0  0  0  0  0  0  0  0  0
   21.7566   -4.6688  -14.9761 O   0  0  0  0  0  0  0  0  0  0  0  0
  2  1  1  1
  2  4  1  0
  2  3  1  0
  4  5  2  0
  6  7  1  0
  6  4  1  0
  7  8  1  6
  9  8  1  0
  9 10  2  0
 11 10  1  0
 12 11  2  0
 13 14  2  0
 13 12  1  0
 14  9  1  0
 15 22  1  0
 15  7  1  0
 16 15  2  0
 18 19  2  0
 18 17  1  0
 21 20  1  1
 20 18  1  0
 21 23  1  0
 21 22  1  0
 23 24  1  0
 25 23  2  0
M  END
$$$$
