AFN.pdb
     RDKit          3D

 25 25  0  0  1  0  0  0  0  0999 V2000
   17.6073  -11.6483  -19.2895 C   0  0  0  0  0  0  0  0  0  0  0  0
   18.6280  -12.0043  -18.2469 C   0  0  2  0  0  0  0  0  0  0  0  0
   18.4355  -13.2956  -17.6577 N   0  0  0  0  0  0  0  0  0  0  0  0
   18.7457  -10.9122  -17.2522 C   0  0  0  0  0  0  0  0  0  0  0  0
   17.7375  -10.6137  -16.5737 O   0  0  0  0  0  0  0  0  0  0  0  0
   19.9652  -10.2128  -17.0625 N   0  0  0  0  0  0  0  0  0  0  0  0
   20.0554   -9.0656  -16.1546 C   0  0  1  0  0  0  0  0  0  0  0  0
   21.3911   -9.0281  -15.4737 C   0  0  0  0  0  0  0  0  0  0  0  0
   21.6139   -7.8109  -14.6664 C   0  0  0  0  0  0  0  0  0  0  0  0
   21.2141   -7.7119  -13.3595 C   0  0  0  0  0  0  0  0  0  0  0  0
   21.4586   -6.5385  -12.6524 C   0  0  0  0  0  0  0  0  0  0  0  0
   22.0925   -5.4721  -13.2323 C   0  0  0  0  0  0  0  0  0  0  0  0
   22.5049   -5.5549  -14.5580 C   0  0  0  0  0  0  0  0  0  0  0  0
   22.2560   -6.7216  -15.2433 C   0  0  0  0  0  0  0  0  0  0  0  0
   19.7383   -7.8531  -16.9376 C   0  0  0  0  0  0  0  0  0  0  0  0
   20.1785   -7.7113  -18.1222 O   0  0  0  0  0  0  0  0  0  0  0  0
   15.9044   -4.0152  -18.9685 N   0  0  0  0  0  0  0  0  0  0  0  0
   16.9044   -4.1019  -17.9885 C   0  0  0  0  0  0  0  0  0  0  0  0
   17.5594   -3.0867  -17.6466 O   0  0  0  0  0  0  0  0  0  0  0  0
   17.1958   -5.4020  -17.3456 C   0  0  0  0  0  0  0  0  0  0  0  0
   18.6901   -5.5526  -17.0927 C   0  0  2  0  0  0  0  0  0  0  0  0
   18.9414   -6.8069  -16.4140 N   0  0  0  0  0  0  0  0  0  0  0  0
   19.2014   -4.3993  -16.3106 C   0  0  0  0  0  0  0  0  0  0  0  0
   18.9956   -4.2840  -14.9493 O   0  0  0  0  0  0  0  0  0  0  0  0
   19.8414   -3.5013  -16.9110 O   0  0  0  0  0  0  0  0  0  0  0  0
  2  1  1  6
  2  4  1  0
  2  3  1  0
  4  5  2  0
  6  7  1  0
  6  4  1  0
  7  8  1  6
  9  8  1  0
  9 10  2  0
 11 10  1  0
 12 11  2  0
 13 14  2  0
 13 12  1  0
 14  9  1  0
 15 22  1  0
 15  7  1  0
 16 15  2  0
 18 19  2  0
 18 17  1  0
 21 20  1  1
 20 18  1  0
 21 23  1  0
 21 22  1  0
 23 24  1  0
 25 23  2  0
M  END
$$$$
