AFN.pdb
     RDKit          3D

 25 25  0  0  1  0  0  0  0  0999 V2000
   19.3452   -8.6163  -18.8193 C   0  0  0  0  0  0  0  0  0  0  0  0
   20.3558   -8.8914  -17.7430 C   0  0  2  0  0  0  0  0  0  0  0  0
   20.4968  -10.2784  -17.4144 N   0  0  0  0  0  0  0  0  0  0  0  0
   20.0979   -8.0284  -16.5662 C   0  0  0  0  0  0  0  0  0  0  0  0
   19.0719   -8.2442  -15.8832 O   0  0  0  0  0  0  0  0  0  0  0  0
   20.9835   -6.9789  -16.2103 N   0  0  0  0  0  0  0  0  0  0  0  0
   20.7894   -6.1969  -14.9859 C   0  0  1  0  0  0  0  0  0  0  0  0
   21.9990   -6.2792  -14.1031 C   0  0  0  0  0  0  0  0  0  0  0  0
   22.1314   -7.5680  -13.3931 C   0  0  0  0  0  0  0  0  0  0  0  0
   22.9149   -8.5894  -13.8628 C   0  0  0  0  0  0  0  0  0  0  0  0
   23.0007   -9.7774  -13.1431 C   0  0  0  0  0  0  0  0  0  0  0  0
   22.3176   -9.9544  -11.9696 C   0  0  0  0  0  0  0  0  0  0  0  0
   21.5173   -8.9286  -11.4781 C   0  0  0  0  0  0  0  0  0  0  0  0
   21.4431   -7.7603  -12.2009 C   0  0  0  0  0  0  0  0  0  0  0  0
   20.4239   -4.8230  -15.3892 C   0  0  0  0  0  0  0  0  0  0  0  0
   20.9509   -4.2849  -16.4137 O   0  0  0  0  0  0  0  0  0  0  0  0
   16.3226   -1.7887  -17.4464 N   0  0  0  0  0  0  0  0  0  0  0  0
   17.6596   -1.8009  -17.0217 C   0  0  0  0  0  0  0  0  0  0  0  0
   18.3605   -0.7604  -17.0741 O   0  0  0  0  0  0  0  0  0  0  0  0
   18.2573   -3.0514  -16.5044 C   0  0  0  0  0  0  0  0  0  0  0  0
   18.8979   -2.8166  -15.1428 C   0  0  2  0  0  0  0  0  0  0  0  0
   19.4836   -4.0518  -14.6648 N   0  0  0  0  0  0  0  0  0  0  0  0
   17.8972   -2.2831  -14.1851 C   0  0  0  0  0  0  0  0  0  0  0  0
   17.0458   -3.1075  -13.4749 O   0  0  0  0  0  0  0  0  0  0  0  0
   17.8260   -1.0407  -14.0187 O   0  0  0  0  0  0  0  0  0  0  0  0
  2  1  1  6
  2  4  1  0
  2  3  1  0
  4  5  2  0
  6  7  1  0
  6  4  1  0
  7  8  1  6
  9  8  1  0
  9 10  2  0
 11 10  1  0
 12 11  2  0
 13 14  2  0
 13 12  1  0
 14  9  1  0
 15 22  1  0
 15  7  1  0
 16 15  2  0
 18 19  2  0
 18 17  1  0
 21 20  1  6
 20 18  1  0
 21 23  1  0
 21 22  1  0
 23 24  1  0
 25 23  2  0
M  END
$$$$
