AFN.pdb
     RDKit          3D

 25 25  0  0  1  0  0  0  0  0999 V2000
   18.0749  -10.6258  -20.0587 C   0  0  0  0  0  0  0  0  0  0  0  0
   19.1559  -11.1340  -19.1486 C   0  0  2  0  0  0  0  0  0  0  0  0
   19.1235  -12.5503  -18.9367 N   0  0  0  0  0  0  0  0  0  0  0  0
   19.1782  -10.3488  -17.8920 C   0  0  0  0  0  0  0  0  0  0  0  0
   18.3648  -10.6471  -16.9891 O   0  0  0  0  0  0  0  0  0  0  0  0
   20.0935   -9.2817  -17.7028 N   0  0  0  0  0  0  0  0  0  0  0  0
   20.0948   -8.4845  -16.4728 C   0  0  1  0  0  0  0  0  0  0  0  0
   21.4587   -8.4680  -15.8494 C   0  0  0  0  0  0  0  0  0  0  0  0
   21.5627   -7.5871  -14.6679 C   0  0  0  0  0  0  0  0  0  0  0  0
   21.2734   -8.0197  -13.4003 C   0  0  0  0  0  0  0  0  0  0  0  0
   21.3964   -7.1405  -12.3286 C   0  0  0  0  0  0  0  0  0  0  0  0
   21.8015   -5.8448  -12.5084 C   0  0  0  0  0  0  0  0  0  0  0  0
   22.0990   -5.3886  -13.7881 C   0  0  0  0  0  0  0  0  0  0  0  0
   21.9727   -6.2698  -14.8370 C   0  0  0  0  0  0  0  0  0  0  0  0
   19.5645   -7.1469  -16.8096 C   0  0  0  0  0  0  0  0  0  0  0  0
   19.9094   -6.5633  -17.8855 O   0  0  0  0  0  0  0  0  0  0  0  0
   14.8619   -6.4957  -16.2680 N   0  0  0  0  0  0  0  0  0  0  0  0
   15.8848   -5.6531  -16.7281 C   0  0  0  0  0  0  0  0  0  0  0  0
   16.0670   -5.4748  -17.9575 O   0  0  0  0  0  0  0  0  0  0  0  0
   16.7632   -4.9627  -15.7583 C   0  0  0  0  0  0  0  0  0  0  0  0
   18.2239   -5.0960  -16.1680 C   0  0  2  0  0  0  0  0  0  0  0  0
   18.6608   -6.4613  -15.9628 N   0  0  0  0  0  0  0  0  0  0  0  0
   19.0641   -4.1365  -15.4085 C   0  0  0  0  0  0  0  0  0  0  0  0
   19.4760   -2.9325  -15.9467 O   0  0  0  0  0  0  0  0  0  0  0  0
   19.4094   -4.4338  -14.2385 O   0  0  0  0  0  0  0  0  0  0  0  0
  2  1  1  1
  2  4  1  0
  2  3  1  0
  4  5  2  0
  6  7  1  0
  6  4  1  0
  7  8  1  6
  9  8  1  0
  9 10  2  0
 11 10  1  0
 12 11  2  0
 13 14  2  0
 13 12  1  0
 14  9  1  0
 15 22  1  0
 15  7  1  0
 16 15  2  0
 18 19  2  0
 18 17  1  0
 21 20  1  1
 20 18  1  0
 21 23  1  0
 21 22  1  0
 23 24  1  0
 25 23  2  0
M  END
$$$$
