AFN.pdb
     RDKit          3D

 25 25  0  0  1  0  0  0  0  0999 V2000
   32.9075  -30.0741  -21.6302 C   0  0  0  0  0  0  0  0  0  0  0  0
   33.0861  -29.6117  -20.2126 C   0  0  2  0  0  0  0  0  0  0  0  0
   33.9644  -30.4344  -19.4358 N   0  0  0  0  0  0  0  0  0  0  0  0
   31.7662  -29.3908  -19.5762 C   0  0  0  0  0  0  0  0  0  0  0  0
   31.0835  -30.3904  -19.2589 O   0  0  0  0  0  0  0  0  0  0  0  0
   31.2748  -28.0837  -19.3266 N   0  0  0  0  0  0  0  0  0  0  0  0
   30.0090  -27.8645  -18.6208 C   0  0  1  0  0  0  0  0  0  0  0  0
   30.0756  -26.6256  -17.7783 C   0  0  0  0  0  0  0  0  0  0  0  0
   28.7719  -26.2170  -17.2161 C   0  0  0  0  0  0  0  0  0  0  0  0
   28.0978  -26.9757  -16.2953 C   0  0  0  0  0  0  0  0  0  0  0  0
   26.8752  -26.5316  -15.8008 C   0  0  0  0  0  0  0  0  0  0  0  0
   26.3235  -25.3480  -16.2131 C   0  0  0  0  0  0  0  0  0  0  0  0
   26.9936  -24.5654  -17.1473 C   0  0  0  0  0  0  0  0  0  0  0  0
   28.2012  -25.0180  -17.6264 C   0  0  0  0  0  0  0  0  0  0  0  0
   28.9320  -27.8540  -19.6327 C   0  0  0  0  0  0  0  0  0  0  0  0
   29.0609  -27.1934  -20.7116 O   0  0  0  0  0  0  0  0  0  0  0  0
   24.9516  -31.4358  -21.6990 N   0  0  0  0  0  0  0  0  0  0  0  0
   24.9985  -30.0774  -21.3518 C   0  0  0  0  0  0  0  0  0  0  0  0
   24.4900  -29.2050  -22.0979 O   0  0  0  0  0  0  0  0  0  0  0  0
   25.6535  -29.6608  -20.0923 C   0  0  0  0  0  0  0  0  0  0  0  0
   26.5797  -28.4766  -20.3355 C   0  0  2  0  0  0  0  0  0  0  0  0
   27.7232  -28.5680  -19.4517 N   0  0  0  0  0  0  0  0  0  0  0  0
   25.8474  -27.1994  -20.1466 C   0  0  0  0  0  0  0  0  0  0  0  0
   25.3949  -26.4459  -21.2126 O   0  0  0  0  0  0  0  0  0  0  0  0
   25.6349  -26.7947  -18.9773 O   0  0  0  0  0  0  0  0  0  0  0  0
  2  1  1  6
  2  4  1  0
  2  3  1  0
  4  5  2  0
  6  7  1  0
  6  4  1  0
  7  8  1  6
  9  8  1  0
  9 10  2  0
 11 10  1  0
 12 11  2  0
 13 14  2  0
 13 12  1  0
 14  9  1  0
 15 22  1  0
 15  7  1  0
 16 15  2  0
 18 19  2  0
 18 17  1  0
 21 20  1  1
 20 18  1  0
 21 23  1  0
 21 22  1  0
 23 24  1  0
 25 23  2  0
M  END
$$$$
