AFN.pdb
     RDKit          3D

 25 25  0  0  1  0  0  0  0  0999 V2000
   27.7255  -19.0757  -15.4148 C   0  0  0  0  0  0  0  0  0  0  0  0
   28.2677  -20.1416  -14.5065 C   0  0  2  0  0  0  0  0  0  0  0  0
   29.0361  -21.1465  -15.1783 N   0  0  0  0  0  0  0  0  0  0  0  0
   27.1832  -20.6938  -13.6609 C   0  0  0  0  0  0  0  0  0  0  0  0
   26.6687  -21.7859  -13.9906 O   0  0  0  0  0  0  0  0  0  0  0  0
   26.7283  -20.0123  -12.5030 N   0  0  0  0  0  0  0  0  0  0  0  0
   25.7172  -20.5986  -11.6185 C   0  0  1  0  0  0  0  0  0  0  0  0
   25.7038  -19.9039  -10.2894 C   0  0  0  0  0  0  0  0  0  0  0  0
   26.8841  -20.1992   -9.4513 C   0  0  0  0  0  0  0  0  0  0  0  0
   27.8699  -21.0644   -9.8481 C   0  0  0  0  0  0  0  0  0  0  0  0
   28.9591  -21.2957   -9.0133 C   0  0  0  0  0  0  0  0  0  0  0  0
   29.0727  -20.6773   -7.7967 C   0  0  0  0  0  0  0  0  0  0  0  0
   28.0814  -19.7963   -7.3778 C   0  0  0  0  0  0  0  0  0  0  0  0
   27.0112  -19.5782   -8.2144 C   0  0  0  0  0  0  0  0  0  0  0  0
   24.4254  -20.5636  -12.3354 C   0  0  0  0  0  0  0  0  0  0  0  0
   24.1107  -19.5660  -13.0584 O   0  0  0  0  0  0  0  0  0  0  0  0
   20.3445  -24.0243  -14.9535 N   0  0  0  0  0  0  0  0  0  0  0  0
   20.4947  -23.1993  -13.8288 C   0  0  0  0  0  0  0  0  0  0  0  0
   19.5309  -22.5213  -13.3953 O   0  0  0  0  0  0  0  0  0  0  0  0
   21.8018  -23.1228  -13.1400 C   0  0  0  0  0  0  0  0  0  0  0  0
   22.2447  -21.6736  -12.9891 C   0  0  2  0  0  0  0  0  0  0  0  0
   23.4904  -21.6231  -12.2524 N   0  0  0  0  0  0  0  0  0  0  0  0
   21.1858  -20.8756  -12.3217 C   0  0  0  0  0  0  0  0  0  0  0  0
   20.1894  -20.2344  -13.0323 O   0  0  0  0  0  0  0  0  0  0  0  0
   21.2008  -20.7832  -11.0696 O   0  0  0  0  0  0  0  0  0  0  0  0
  2  1  1  6
  2  4  1  0
  2  3  1  0
  4  5  2  0
  6  7  1  0
  6  4  1  0
  7  8  1  1
  9  8  1  0
  9 10  2  0
 11 10  1  0
 12 11  2  0
 13 14  2  0
 13 12  1  0
 14  9  1  0
 15 22  1  0
 15  7  1  0
 16 15  2  0
 18 19  2  0
 18 17  1  0
 21 20  1  1
 20 18  1  0
 21 23  1  0
 21 22  1  0
 23 24  1  0
 25 23  2  0
M  END
$$$$
