AFN.pdb
     RDKit          3D

 25 25  0  0  1  0  0  0  0  0999 V2000
   17.5953   -9.8785  -18.0720 C   0  0  0  0  0  0  0  0  0  0  0  0
   18.9345   -9.8467  -17.3931 C   0  0  2  0  0  0  0  0  0  0  0  0
   19.3604  -11.1148  -16.8811 N   0  0  0  0  0  0  0  0  0  0  0  0
   18.9722   -8.7599  -16.3863 C   0  0  0  0  0  0  0  0  0  0  0  0
   18.0878   -8.7373  -15.5014 O   0  0  0  0  0  0  0  0  0  0  0  0
   19.9801   -7.7621  -16.4124 N   0  0  0  0  0  0  0  0  0  0  0  0
   20.0803   -6.7487  -15.3581 C   0  0  1  0  0  0  0  0  0  0  0  0
   21.4842   -6.6563  -14.8389 C   0  0  0  0  0  0  0  0  0  0  0  0
   21.9144   -7.8430  -14.0711 C   0  0  0  0  0  0  0  0  0  0  0  0
   22.7826   -8.7731  -14.5799 C   0  0  0  0  0  0  0  0  0  0  0  0
   23.1522   -9.8666  -13.8026 C   0  0  0  0  0  0  0  0  0  0  0  0
   22.6677  -10.0394  -12.5336 C   0  0  0  0  0  0  0  0  0  0  0  0
   21.7853   -9.1055  -12.0012 C   0  0  0  0  0  0  0  0  0  0  0  0
   21.4297   -8.0300  -12.7819 C   0  0  0  0  0  0  0  0  0  0  0  0
   19.5508   -5.4828  -15.9068 C   0  0  0  0  0  0  0  0  0  0  0  0
   19.9663   -5.0339  -17.0216 O   0  0  0  0  0  0  0  0  0  0  0  0
   15.3254   -1.9154  -17.0357 N   0  0  0  0  0  0  0  0  0  0  0  0
   15.9771   -2.1004  -15.8073 C   0  0  0  0  0  0  0  0  0  0  0  0
   16.0987   -1.1512  -14.9945 O   0  0  0  0  0  0  0  0  0  0  0  0
   16.5301   -3.4276  -15.4587 C   0  0  0  0  0  0  0  0  0  0  0  0
   18.0318   -3.4657  -15.7091 C   0  0  2  0  0  0  0  0  0  0  0  0
   18.5704   -4.7207  -15.2272 N   0  0  0  0  0  0  0  0  0  0  0  0
   18.6940   -2.3057  -15.0617 C   0  0  0  0  0  0  0  0  0  0  0  0
   19.3880   -2.4235  -13.8728 O   0  0  0  0  0  0  0  0  0  0  0  0
   18.6178   -1.1822  -15.6170 O   0  0  0  0  0  0  0  0  0  0  0  0
  2  1  1  1
  2  4  1  0
  2  3  1  0
  4  5  2  0
  6  7  1  0
  6  4  1  0
  7  8  1  6
  9  8  1  0
  9 10  2  0
 11 10  1  0
 12 11  2  0
 13 14  2  0
 13 12  1  0
 14  9  1  0
 15 22  1  0
 15  7  1  0
 16 15  2  0
 18 19  2  0
 18 17  1  0
 21 20  1  1
 20 18  1  0
 21 23  1  0
 21 22  1  0
 23 24  1  0
 25 23  2  0
M  END
$$$$
