AFN.pdb
     RDKit          3D

 25 25  0  0  1  0  0  0  0  0999 V2000
   27.5410  -19.8303  -18.5232 C   0  0  0  0  0  0  0  0  0  0  0  0
   28.2843  -20.8379  -17.6941 C   0  0  2  0  0  0  0  0  0  0  0  0
   28.7314  -21.9834  -18.4287 N   0  0  0  0  0  0  0  0  0  0  0  0
   27.5025  -21.1808  -16.4828 C   0  0  0  0  0  0  0  0  0  0  0  0
   26.6710  -22.1131  -16.5551 O   0  0  0  0  0  0  0  0  0  0  0  0
   27.6811  -20.4779  -15.2637 N   0  0  0  0  0  0  0  0  0  0  0  0
   26.8722  -20.7825  -14.0799 C   0  0  1  0  0  0  0  0  0  0  0  0
   27.5211  -20.2472  -12.8383 C   0  0  0  0  0  0  0  0  0  0  0  0
   26.7271  -20.4627  -11.6112 C   0  0  0  0  0  0  0  0  0  0  0  0
   26.6566  -21.6795  -10.9850 C   0  0  0  0  0  0  0  0  0  0  0  0
   25.8943  -21.8149   -9.8286 C   0  0  0  0  0  0  0  0  0  0  0  0
   25.2073  -20.7567   -9.2961 C   0  0  0  0  0  0  0  0  0  0  0  0
   25.2671  -19.5145   -9.9187 C   0  0  0  0  0  0  0  0  0  0  0  0
   26.0251  -19.3968  -11.0607 C   0  0  0  0  0  0  0  0  0  0  0  0
   25.5108  -20.2631  -14.3262 C   0  0  0  0  0  0  0  0  0  0  0  0
   25.3376  -19.1229  -14.8618 O   0  0  0  0  0  0  0  0  0  0  0  0
   20.1076  -21.0648  -16.2125 N   0  0  0  0  0  0  0  0  0  0  0  0
   21.1570  -20.2495  -15.7628 C   0  0  0  0  0  0  0  0  0  0  0  0
   20.9732  -19.0268  -15.5444 O   0  0  0  0  0  0  0  0  0  0  0  0
   22.4991  -20.8311  -15.5408 C   0  0  0  0  0  0  0  0  0  0  0  0
   22.9972  -20.5107  -14.1377 C   0  0  2  0  0  0  0  0  0  0  0  0
   24.3516  -20.9992  -13.9824 N   0  0  0  0  0  0  0  0  0  0  0  0
   22.0885  -21.0951  -13.1199 C   0  0  0  0  0  0  0  0  0  0  0  0
   22.4371  -22.2028  -12.3713 O   0  0  0  0  0  0  0  0  0  0  0  0
   20.9667  -20.5616  -12.9373 O   0  0  0  0  0  0  0  0  0  0  0  0
  2  1  1  6
  2  4  1  0
  2  3  1  0
  4  5  2  0
  6  7  1  0
  6  4  1  0
  7  8  1  1
  9  8  1  0
  9 10  2  0
 11 10  1  0
 12 11  2  0
 13 14  2  0
 13 12  1  0
 14  9  1  0
 15 22  1  0
 15  7  1  0
 16 15  2  0
 18 19  2  0
 18 17  1  0
 21 20  1  6
 20 18  1  0
 21 23  1  0
 21 22  1  0
 23 24  1  0
 25 23  2  0
M  END
$$$$
