AFN.pdb
     RDKit          3D

 25 25  0  0  1  0  0  0  0  0999 V2000
   29.4209  -22.6721  -17.7190 C   0  0  0  0  0  0  0  0  0  0  0  0
   28.1445  -21.8895  -17.6025 C   0  0  2  0  0  0  0  0  0  0  0  0
   28.2720  -20.5075  -17.9568 N   0  0  0  0  0  0  0  0  0  0  0  0
   27.5324  -22.1040  -16.2700 C   0  0  0  0  0  0  0  0  0  0  0  0
   27.2733  -23.2758  -15.9157 O   0  0  0  0  0  0  0  0  0  0  0  0
   27.2412  -21.0171  -15.4062 N   0  0  0  0  0  0  0  0  0  0  0  0
   26.5475  -21.2188  -14.1309 C   0  0  1  0  0  0  0  0  0  0  0  0
   27.0340  -20.2449  -13.0993 C   0  0  0  0  0  0  0  0  0  0  0  0
   26.3379  -20.3557  -11.8008 C   0  0  0  0  0  0  0  0  0  0  0  0
   25.1558  -19.7123  -11.5429 C   0  0  0  0  0  0  0  0  0  0  0  0
   24.5482  -19.8621  -10.2999 C   0  0  0  0  0  0  0  0  0  0  0  0
   25.1043  -20.6408   -9.3203 C   0  0  0  0  0  0  0  0  0  0  0  0
   26.3039  -21.3008   -9.5646 C   0  0  0  0  0  0  0  0  0  0  0  0
   26.8920  -21.1429  -10.7983 C   0  0  0  0  0  0  0  0  0  0  0  0
   25.0959  -21.1460  -14.3982 C   0  0  0  0  0  0  0  0  0  0  0  0
   24.6238  -20.2668  -15.1863 O   0  0  0  0  0  0  0  0  0  0  0  0
   23.6041  -25.4614  -14.8274 N   0  0  0  0  0  0  0  0  0  0  0  0
   22.8686  -24.3067  -15.1335 C   0  0  0  0  0  0  0  0  0  0  0  0
   22.7170  -23.9376  -16.3240 O   0  0  0  0  0  0  0  0  0  0  0  0
   22.2612  -23.5095  -14.0453 C   0  0  0  0  0  0  0  0  0  0  0  0
   22.7577  -22.0705  -14.0928 C   0  0  2  0  0  0  0  0  0  0  0  0
   24.1752  -22.0384  -13.7984 N   0  0  0  0  0  0  0  0  0  0  0  0
   21.9867  -21.2255  -13.1470 C   0  0  0  0  0  0  0  0  0  0  0  0
   20.8860  -20.4914  -13.5450 O   0  0  0  0  0  0  0  0  0  0  0  0
   22.3513  -21.1794  -11.9464 O   0  0  0  0  0  0  0  0  0  0  0  0
  2  1  1  1
  2  4  1  0
  2  3  1  0
  4  5  2  0
  6  7  1  0
  6  4  1  0
  7  8  1  1
  9  8  1  0
  9 10  2  0
 11 10  1  0
 12 11  2  0
 13 14  2  0
 13 12  1  0
 14  9  1  0
 15 22  1  0
 15  7  1  0
 16 15  2  0
 18 19  2  0
 18 17  1  0
 21 20  1  1
 20 18  1  0
 21 23  1  0
 21 22  1  0
 23 24  1  0
 25 23  2  0
M  END
$$$$
