EHE.pdb
     RDKit          3D

 29 29  0  0  1  0  0  0  0  0999 V2000
   10.8993  -17.9566   14.2296 N   0  0  0  0  0  0  0  0  0  0  0  0
   12.0852  -17.2570   14.5338 C   0  0  1  0  0  0  0  0  0  0  0  0
   12.8193  -16.5989   13.4287 C   0  0  0  0  0  0  0  0  0  0  0  0
   12.7925  -17.3053   12.1122 C   0  0  0  0  0  0  0  0  0  0  0  0
   13.5298  -16.6700   11.0123 C   0  0  0  0  0  0  0  0  0  0  0  0
   13.0601  -16.1414    9.9912 O   0  0  0  0  0  0  0  0  0  0  0  0
   11.8674  -16.3091   15.6924 C   0  0  0  0  0  0  0  0  0  0  0  0
   12.8083  -15.6728   16.2033 O   0  0  0  0  0  0  0  0  0  0  0  0
   14.9265  -16.6675   11.1441 O   0  0  0  0  0  0  0  0  0  0  0  0
   10.5679  -16.1051   16.2511 N   0  0  0  0  0  0  0  0  0  0  0  0
   10.3229  -15.3018   17.4262 C   0  0  1  0  0  0  0  0  0  0  0  0
    9.0490  -14.5029   17.3135 C   0  0  0  0  0  0  0  0  0  0  0  0
    8.6483  -13.9258   18.6368 C   0  0  0  0  0  0  0  0  0  0  0  0
    9.2905  -14.1357   19.8150 C   0  0  0  0  0  0  0  0  0  0  0  0
    8.6516  -13.4682   20.7786 N   0  0  0  0  0  0  0  0  0  0  0  0
    7.6192  -12.8503   20.1909 C   0  0  0  0  0  0  0  0  0  0  0  0
    7.6088  -13.1245   18.8806 N   0  0  0  0  0  0  0  0  0  0  0  0
   10.4576  -16.0293   18.6888 C   0  0  0  0  0  0  0  0  0  0  0  0
    9.8973  -17.1132   18.9693 O   0  0  0  0  0  0  0  0  0  0  0  0
   11.3023  -15.4926   19.7330 N   0  0  0  0  0  0  0  0  0  0  0  0
   11.7422  -16.2628   20.8646 C   0  0  1  0  0  0  0  0  0  0  0  0
   12.6440  -17.3921   20.5310 C   0  0  0  0  0  0  0  0  0  0  0  0
   14.0088  -17.1165   20.0498 C   0  0  0  0  0  0  0  0  0  0  0  0
   14.8157  -18.2869   19.7527 C   0  0  0  0  0  0  0  0  0  0  0  0
   15.1396  -19.1285   20.6007 O   0  0  0  0  0  0  0  0  0  0  0  0
   12.4592  -15.4074   21.8457 C   0  0  0  0  0  0  0  0  0  0  0  0
   12.7283  -14.2314   21.5440 O   0  0  0  0  0  0  0  0  0  0  0  0
   15.2817  -18.5219   18.4324 O   0  0  0  0  0  0  0  0  0  0  0  0
   12.8453  -15.8737   23.0956 O   0  0  0  0  0  0  0  0  0  0  0  0
  2  1  1  6
  2  7  1  0
  2  3  1  0
  4  3  1  0
  4  5  1  0
  5  6  2  0
  5  9  1  0
  7  8  2  0
 10 11  1  0
 10  7  1  0
 11 12  1  6
 12 13  1  0
 13 14  2  0
 14 15  1  0
 16 15  1  0
 17 13  1  0
 17 16  2  0
 18 20  1  0
 18 11  1  0
 19 18  2  0
 21 22  1  6
 21 20  1  0
 22 23  1  0
 23 24  1  0
 24 28  1  0
 24 25  2  0
 26 21  1  0
 27 26  2  0
 29 26  1  0
M  END
$$$$
