EHE.pdb
     RDKit          3D

 29 29  0  0  1  0  0  0  0  0999 V2000
   10.6489  -18.0631   16.7776 N   0  0  0  0  0  0  0  0  0  0  0  0
   11.7893  -17.2387   16.6860 C   0  0  1  0  0  0  0  0  0  0  0  0
   12.0188  -16.4892   15.4295 C   0  0  0  0  0  0  0  0  0  0  0  0
   11.2499  -16.9580   14.2371 C   0  0  0  0  0  0  0  0  0  0  0  0
   11.4349  -16.1945   12.9961 C   0  0  0  0  0  0  0  0  0  0  0  0
   10.6255  -16.0558   12.0643 O   0  0  0  0  0  0  0  0  0  0  0  0
   11.8975  -16.3353   17.8945 C   0  0  0  0  0  0  0  0  0  0  0  0
   12.9046  -15.6314   18.0974 O   0  0  0  0  0  0  0  0  0  0  0  0
   12.6750  -15.5526   12.8617 O   0  0  0  0  0  0  0  0  0  0  0  0
   10.8444  -16.2532   18.8572 N   0  0  0  0  0  0  0  0  0  0  0  0
   10.8981  -15.4072   20.0266 C   0  0  1  0  0  0  0  0  0  0  0  0
    9.5486  -14.8309   20.3740 C   0  0  0  0  0  0  0  0  0  0  0  0
    8.9528  -14.0981   19.2109 C   0  0  0  0  0  0  0  0  0  0  0  0
    9.1323  -12.7806   18.9339 C   0  0  0  0  0  0  0  0  0  0  0  0
    8.4506  -12.4764   17.8271 N   0  0  0  0  0  0  0  0  0  0  0  0
    7.8542  -13.6066   17.4269 C   0  0  0  0  0  0  0  0  0  0  0  0
    8.1555  -14.6041   18.2674 N   0  0  0  0  0  0  0  0  0  0  0  0
   11.6008  -16.0008   21.1647 C   0  0  0  0  0  0  0  0  0  0  0  0
   11.3484  -17.1150   21.6771 O   0  0  0  0  0  0  0  0  0  0  0  0
   12.6907  -15.2790   21.7836 N   0  0  0  0  0  0  0  0  0  0  0  0
   13.7272  -15.9194   22.5471 C   0  0  1  0  0  0  0  0  0  0  0  0
   15.0624  -15.2840   22.4315 C   0  0  0  0  0  0  0  0  0  0  0  0
   16.2039  -15.8485   23.1722 C   0  0  0  0  0  0  0  0  0  0  0  0
   17.4697  -15.1601   22.9906 C   0  0  0  0  0  0  0  0  0  0  0  0
   18.0625  -14.5656   23.9003 O   0  0  0  0  0  0  0  0  0  0  0  0
   13.3828  -15.9511   23.9923 C   0  0  0  0  0  0  0  0  0  0  0  0
   14.1261  -16.5611   24.7808 O   0  0  0  0  0  0  0  0  0  0  0  0
   18.1007  -15.1403   21.7189 O   0  0  0  0  0  0  0  0  0  0  0  0
   12.2535  -15.3229   24.5010 O   0  0  0  0  0  0  0  0  0  0  0  0
  2  1  1  6
  2  7  1  0
  2  3  1  0
  4  3  1  0
  4  5  1  0
  5  6  2  0
  5  9  1  0
  7  8  2  0
 10 11  1  0
 10  7  1  0
 11 12  1  1
 12 13  1  0
 13 14  2  0
 14 15  1  0
 16 15  1  0
 17 13  1  0
 17 16  2  0
 18 20  1  0
 18 11  1  0
 19 18  2  0
 21 22  1  1
 21 20  1  0
 22 23  1  0
 23 24  1  0
 24 28  1  0
 24 25  2  0
 26 21  1  0
 27 26  2  0
 29 26  1  0
M  END
$$$$
