EHE.pdb
     RDKit          3D

 29 29  0  0  1  0  0  0  0  0999 V2000
    8.3930  -17.4259   21.3325 N   0  0  0  0  0  0  0  0  0  0  0  0
    9.5269  -18.0504   20.7732 C   0  0  1  0  0  0  0  0  0  0  0  0
    9.3391  -19.3154   20.0265 C   0  0  0  0  0  0  0  0  0  0  0  0
    7.9956  -19.5157   19.4038 C   0  0  0  0  0  0  0  0  0  0  0  0
    7.8183  -20.7356   18.6055 C   0  0  0  0  0  0  0  0  0  0  0  0
    8.1671  -20.9284   17.4291 O   0  0  0  0  0  0  0  0  0  0  0  0
   10.3497  -17.0591   19.9804 C   0  0  0  0  0  0  0  0  0  0  0  0
   11.3712  -17.4059   19.3581 O   0  0  0  0  0  0  0  0  0  0  0  0
    7.1790  -21.7984   19.2611 O   0  0  0  0  0  0  0  0  0  0  0  0
    9.9874  -15.6782   19.9137 N   0  0  0  0  0  0  0  0  0  0  0  0
   10.7302  -14.6951   19.1601 C   0  0  1  0  0  0  0  0  0  0  0  0
    9.8516  -13.5721   18.6693 C   0  0  0  0  0  0  0  0  0  0  0  0
    9.1071  -13.9642   17.4296 C   0  0  0  0  0  0  0  0  0  0  0  0
    9.2850  -15.1179   16.7352 C   0  0  0  0  0  0  0  0  0  0  0  0
    8.4549  -15.1235   15.6896 N   0  0  0  0  0  0  0  0  0  0  0  0
    7.7695  -13.9743   15.7438 C   0  0  0  0  0  0  0  0  0  0  0  0
    8.1619  -13.2584   16.8048 N   0  0  0  0  0  0  0  0  0  0  0  0
   11.9610  -14.2447   19.8111 C   0  0  0  0  0  0  0  0  0  0  0  0
   12.0382  -13.3559   20.6895 O   0  0  0  0  0  0  0  0  0  0  0  0
   13.2225  -14.8501   19.4452 N   0  0  0  0  0  0  0  0  0  0  0  0
   14.4904  -14.3950   19.9478 C   0  0  1  0  0  0  0  0  0  0  0  0
   15.1548  -15.3306   20.8875 C   0  0  0  0  0  0  0  0  0  0  0  0
   14.5517  -15.5882   22.2067 C   0  0  0  0  0  0  0  0  0  0  0  0
   15.2976  -16.4857   23.0711 C   0  0  0  0  0  0  0  0  0  0  0  0
   16.5337  -16.5045   23.1353 O   0  0  0  0  0  0  0  0  0  0  0  0
   15.4445  -14.1416   18.8371 C   0  0  0  0  0  0  0  0  0  0  0  0
   15.1776  -14.5640   17.6985 O   0  0  0  0  0  0  0  0  0  0  0  0
   14.6164  -17.4096   23.9066 O   0  0  0  0  0  0  0  0  0  0  0  0
   16.6331  -13.4476   19.0225 O   0  0  0  0  0  0  0  0  0  0  0  0
  2  1  1  6
  2  7  1  0
  2  3  1  0
  4  3  1  0
  4  5  1  0
  5  6  2  0
  5  9  1  0
  7  8  2  0
 10 11  1  0
 10  7  1  0
 11 12  1  1
 12 13  1  0
 13 14  2  0
 14 15  1  0
 16 15  1  0
 17 13  1  0
 17 16  2  0
 18 20  1  0
 18 11  1  0
 19 18  2  0
 21 22  1  1
 21 20  1  0
 22 23  1  0
 23 24  1  0
 24 28  1  0
 24 25  2  0
 26 21  1  0
 27 26  2  0
 29 26  1  0
M  END
$$$$
