EHE.pdb
     RDKit          3D

 29 29  0  0  1  0  0  0  0  0999 V2000
   10.1714  -19.1318   19.7728 N   0  0  0  0  0  0  0  0  0  0  0  0
   10.9091  -19.1455   20.9744 C   0  0  1  0  0  0  0  0  0  0  0  0
   12.2561  -18.5302   20.9822 C   0  0  0  0  0  0  0  0  0  0  0  0
   13.0290  -18.6289   19.7072 C   0  0  0  0  0  0  0  0  0  0  0  0
   14.3031  -17.9001   19.6549 C   0  0  0  0  0  0  0  0  0  0  0  0
   14.5020  -16.7024   19.9164 O   0  0  0  0  0  0  0  0  0  0  0  0
   10.0674  -18.6445   22.1272 C   0  0  0  0  0  0  0  0  0  0  0  0
    9.0426  -17.9617   21.9411 O   0  0  0  0  0  0  0  0  0  0  0  0
   15.4162  -18.6582   19.2621 O   0  0  0  0  0  0  0  0  0  0  0  0
   10.4158  -18.9348   23.4825 N   0  0  0  0  0  0  0  0  0  0  0  0
    9.4695  -18.9012   24.5732 C   0  0  1  0  0  0  0  0  0  0  0  0
    8.2572  -19.7555   24.3006 C   0  0  0  0  0  0  0  0  0  0  0  0
    7.3733  -19.8486   25.5069 C   0  0  0  0  0  0  0  0  0  0  0  0
    7.4154  -19.0179   26.5806 C   0  0  0  0  0  0  0  0  0  0  0  0
    6.4878  -19.4036   27.4600 N   0  0  0  0  0  0  0  0  0  0  0  0
    5.8786  -20.4693   26.9251 C   0  0  0  0  0  0  0  0  0  0  0  0
    6.4137  -20.7492   25.7303 N   0  0  0  0  0  0  0  0  0  0  0  0
   10.0658  -19.1201   25.8915 C   0  0  0  0  0  0  0  0  0  0  0  0
   10.6068  -20.1802   26.2803 O   0  0  0  0  0  0  0  0  0  0  0  0
   10.0575  -18.0490   26.8633 N   0  0  0  0  0  0  0  0  0  0  0  0
   10.7698  -18.1110   28.1107 C   0  0  1  0  0  0  0  0  0  0  0  0
   10.7698  -16.8466   28.8862 C   0  0  0  0  0  0  0  0  0  0  0  0
   10.0888  -15.6589   28.3423 C   0  0  0  0  0  0  0  0  0  0  0  0
   10.0751  -14.4938   29.2092 C   0  0  0  0  0  0  0  0  0  0  0  0
   10.5176  -14.4953   30.3653 O   0  0  0  0  0  0  0  0  0  0  0  0
   10.2068  -19.1646   28.9945 C   0  0  0  0  0  0  0  0  0  0  0  0
    9.1088  -19.6740   28.7095 O   0  0  0  0  0  0  0  0  0  0  0  0
    9.5353  -13.2634   28.7505 O   0  0  0  0  0  0  0  0  0  0  0  0
   10.8630  -19.6052   30.1365 O   0  0  0  0  0  0  0  0  0  0  0  0
  2  1  1  6
  2  7  1  0
  2  3  1  0
  4  3  1  0
  4  5  1  0
  5  6  2  0
  5  9  1  0
  7  8  2  0
 10 11  1  0
 10  7  1  0
 11 12  1  6
 12 13  1  0
 13 14  2  0
 14 15  1  0
 16 15  1  0
 17 13  1  0
 17 16  2  0
 18 20  1  0
 18 11  1  0
 19 18  2  0
 21 22  1  1
 21 20  1  0
 22 23  1  0
 23 24  1  0
 24 28  1  0
 24 25  2  0
 26 21  1  0
 27 26  2  0
 29 26  1  0
M  END
$$$$
