EHE.pdb
     RDKit          3D

 29 29  0  0  1  0  0  0  0  0999 V2000
   11.3072  -17.9090   19.1847 N   0  0  0  0  0  0  0  0  0  0  0  0
   12.0398  -16.7395   19.4744 C   0  0  1  0  0  0  0  0  0  0  0  0
   12.5814  -15.9485   18.3456 C   0  0  0  0  0  0  0  0  0  0  0  0
   13.5387  -14.8598   18.7080 C   0  0  0  0  0  0  0  0  0  0  0  0
   14.1195  -14.0997   17.5935 C   0  0  0  0  0  0  0  0  0  0  0  0
   14.1275  -12.8673   17.4400 O   0  0  0  0  0  0  0  0  0  0  0  0
   11.2878  -15.8628   20.4513 C   0  0  0  0  0  0  0  0  0  0  0  0
   11.8365  -14.9046   21.0273 O   0  0  0  0  0  0  0  0  0  0  0  0
   14.7332  -14.8688   16.5936 O   0  0  0  0  0  0  0  0  0  0  0  0
    9.9116  -16.1000   20.7550 N   0  0  0  0  0  0  0  0  0  0  0  0
    9.1691  -15.3401   21.7334 C   0  0  1  0  0  0  0  0  0  0  0  0
    7.8567  -14.8377   21.1866 C   0  0  0  0  0  0  0  0  0  0  0  0
    8.0374  -14.1824   19.8513 C   0  0  0  0  0  0  0  0  0  0  0  0
    8.1821  -12.8484   19.6413 C   0  0  0  0  0  0  0  0  0  0  0  0
    8.3158  -12.6309   18.3308 N   0  0  0  0  0  0  0  0  0  0  0  0
    8.2528  -13.8305   17.7392 C   0  0  0  0  0  0  0  0  0  0  0  0
    8.0824  -14.7858   18.6614 N   0  0  0  0  0  0  0  0  0  0  0  0
    9.0580  -15.9903   23.0397 C   0  0  0  0  0  0  0  0  0  0  0  0
    8.0234  -16.0418   23.7430 O   0  0  0  0  0  0  0  0  0  0  0  0
   10.2141  -16.6472   23.6086 N   0  0  0  0  0  0  0  0  0  0  0  0
   10.2499  -17.1550   24.9532 C   0  0  1  0  0  0  0  0  0  0  0  0
   11.6061  -17.4894   25.4520 C   0  0  0  0  0  0  0  0  0  0  0  0
   12.3836  -18.5518   24.7908 C   0  0  0  0  0  0  0  0  0  0  0  0
   13.0782  -19.4650   25.6811 C   0  0  0  0  0  0  0  0  0  0  0  0
   12.5003  -20.2307   26.4636 O   0  0  0  0  0  0  0  0  0  0  0  0
    9.6626  -16.1791   25.9076 C   0  0  0  0  0  0  0  0  0  0  0  0
    9.8257  -14.9623   25.7099 O   0  0  0  0  0  0  0  0  0  0  0  0
   14.4969  -19.5192   25.6906 O   0  0  0  0  0  0  0  0  0  0  0  0
    8.9345  -16.5756   27.0219 O   0  0  0  0  0  0  0  0  0  0  0  0
  2  1  1  6
  2  7  1  0
  2  3  1  0
  4  3  1  0
  4  5  1  0
  5  6  2  0
  5  9  1  0
  7  8  2  0
 10 11  1  0
 10  7  1  0
 11 12  1  6
 12 13  1  0
 13 14  2  0
 14 15  1  0
 16 15  1  0
 17 13  1  0
 17 16  2  0
 18 20  1  0
 18 11  1  0
 19 18  2  0
 21 22  1  1
 21 20  1  0
 22 23  1  0
 23 24  1  0
 24 28  1  0
 24 25  2  0
 26 21  1  0
 27 26  2  0
 29 26  1  0
M  END
$$$$
