EHE.pdb
     RDKit          3D

 29 29  0  0  1  0  0  0  0  0999 V2000
   11.6127  -17.5073   16.2770 N   0  0  0  0  0  0  0  0  0  0  0  0
   12.7624  -16.7958   16.6777 C   0  0  1  0  0  0  0  0  0  0  0  0
   13.4502  -15.9465   15.6783 C   0  0  0  0  0  0  0  0  0  0  0  0
   12.9752  -16.0790   14.2677 C   0  0  0  0  0  0  0  0  0  0  0  0
   13.5874  -15.1780   13.2825 C   0  0  0  0  0  0  0  0  0  0  0  0
   14.0154  -14.0275   13.4713 O   0  0  0  0  0  0  0  0  0  0  0  0
   12.5049  -16.0382   17.9614 C   0  0  0  0  0  0  0  0  0  0  0  0
   13.3594  -15.2790   18.4560 O   0  0  0  0  0  0  0  0  0  0  0  0
   13.6945  -15.6903   11.9809 O   0  0  0  0  0  0  0  0  0  0  0  0
   11.2659  -16.1639   18.6624 N   0  0  0  0  0  0  0  0  0  0  0  0
   11.0462  -15.6436   19.9918 C   0  0  1  0  0  0  0  0  0  0  0  0
    9.5907  -15.3486   20.2536 C   0  0  0  0  0  0  0  0  0  0  0  0
    9.0069  -14.4859   19.1766 C   0  0  0  0  0  0  0  0  0  0  0  0
    9.0930  -13.1316   19.1186 C   0  0  0  0  0  0  0  0  0  0  0  0
    8.4558  -12.7062   18.0252 N   0  0  0  0  0  0  0  0  0  0  0  0
    7.9801  -13.7989   17.4146 C   0  0  0  0  0  0  0  0  0  0  0  0
    8.3121  -14.8924   18.1118 N   0  0  0  0  0  0  0  0  0  0  0  0
   11.6957  -16.4145   21.0526 C   0  0  0  0  0  0  0  0  0  0  0  0
   12.4094  -17.4294   20.8841 O   0  0  0  0  0  0  0  0  0  0  0  0
   11.5325  -16.0071   22.4307 N   0  0  0  0  0  0  0  0  0  0  0  0
   12.4676  -16.3461   23.4689 C   0  0  1  0  0  0  0  0  0  0  0  0
   13.8560  -15.8846   23.2253 C   0  0  0  0  0  0  0  0  0  0  0  0
   14.8990  -16.8653   22.8778 C   0  0  0  0  0  0  0  0  0  0  0  0
   16.2598  -16.3580   22.8781 C   0  0  0  0  0  0  0  0  0  0  0  0
   17.1586  -16.8094   23.5997 O   0  0  0  0  0  0  0  0  0  0  0  0
   12.0426  -15.7798   24.7753 C   0  0  0  0  0  0  0  0  0  0  0  0
   11.1783  -14.8860   24.7978 O   0  0  0  0  0  0  0  0  0  0  0  0
   16.6275  -15.2873   22.0213 O   0  0  0  0  0  0  0  0  0  0  0  0
   12.5781  -16.2114   25.9818 O   0  0  0  0  0  0  0  0  0  0  0  0
  2  1  1  6
  2  7  1  0
  2  3  1  0
  4  3  1  0
  4  5  1  0
  5  6  2  0
  5  9  1  0
  7  8  2  0
 10 11  1  0
 10  7  1  0
 11 12  1  1
 12 13  1  0
 13 14  2  0
 14 15  1  0
 16 15  1  0
 17 13  1  0
 17 16  2  0
 18 20  1  0
 18 11  1  0
 19 18  2  0
 21 22  1  6
 21 20  1  0
 22 23  1  0
 23 24  1  0
 24 28  1  0
 24 25  2  0
 26 21  1  0
 27 26  2  0
 29 26  1  0
M  END
$$$$
