EHE.pdb
     RDKit          3D

 29 29  0  0  1  0  0  0  0  0999 V2000
   12.2537  -15.2679   14.6983 N   0  0  0  0  0  0  0  0  0  0  0  0
   11.5472  -16.1870   15.5010 C   0  0  1  0  0  0  0  0  0  0  0  0
   11.7759  -17.6341   15.2846 C   0  0  0  0  0  0  0  0  0  0  0  0
   13.0751  -18.1746   15.7875 C   0  0  0  0  0  0  0  0  0  0  0  0
   13.3418  -19.5941   15.5208 C   0  0  0  0  0  0  0  0  0  0  0  0
   12.9727  -20.2632   14.5418 O   0  0  0  0  0  0  0  0  0  0  0  0
   11.6646  -15.8231   16.9646 C   0  0  0  0  0  0  0  0  0  0  0  0
   12.7284  -15.3932   17.4489 O   0  0  0  0  0  0  0  0  0  0  0  0
   14.1032  -20.2583   16.4940 O   0  0  0  0  0  0  0  0  0  0  0  0
   10.5552  -15.9591   17.8552 N   0  0  0  0  0  0  0  0  0  0  0  0
   10.6155  -15.6276   19.2597 C   0  0  1  0  0  0  0  0  0  0  0  0
    9.2472  -15.5777   19.8914 C   0  0  0  0  0  0  0  0  0  0  0  0
    8.4827  -14.3701   19.4419 C   0  0  0  0  0  0  0  0  0  0  0  0
    8.9645  -13.3863   18.6389 C   0  0  0  0  0  0  0  0  0  0  0  0
    8.0073  -12.4742   18.4537 N   0  0  0  0  0  0  0  0  0  0  0  0
    6.9406  -12.8992   19.1427 C   0  0  0  0  0  0  0  0  0  0  0  0
    7.2220  -14.0582   19.7507 N   0  0  0  0  0  0  0  0  0  0  0  0
   11.5919  -16.4094   20.0192 C   0  0  0  0  0  0  0  0  0  0  0  0
   11.7355  -17.6519   19.9607 O   0  0  0  0  0  0  0  0  0  0  0  0
   12.4937  -15.7345   20.9263 N   0  0  0  0  0  0  0  0  0  0  0  0
   13.5125  -16.4164   21.6775 C   0  0  1  0  0  0  0  0  0  0  0  0
   14.8905  -15.9211   21.4414 C   0  0  0  0  0  0  0  0  0  0  0  0
   15.0961  -14.5507   20.9415 C   0  0  0  0  0  0  0  0  0  0  0  0
   16.4808  -14.1522   20.7595 C   0  0  0  0  0  0  0  0  0  0  0  0
   17.0611  -14.1727   19.6663 O   0  0  0  0  0  0  0  0  0  0  0  0
   13.2566  -16.3146   23.1377 C   0  0  0  0  0  0  0  0  0  0  0  0
   12.3238  -15.5990   23.5427 O   0  0  0  0  0  0  0  0  0  0  0  0
   17.2517  -13.7076   21.8657 O   0  0  0  0  0  0  0  0  0  0  0  0
   14.0257  -16.9910   24.0757 O   0  0  0  0  0  0  0  0  0  0  0  0
  2  1  1  6
  2  7  1  0
  2  3  1  0
  4  3  1  0
  4  5  1  0
  5  6  2  0
  5  9  1  0
  7  8  2  0
 10 11  1  0
 10  7  1  0
 11 12  1  1
 12 13  1  0
 13 14  2  0
 14 15  1  0
 16 15  1  0
 17 13  1  0
 17 16  2  0
 18 20  1  0
 18 11  1  0
 19 18  2  0
 21 22  1  1
 21 20  1  0
 22 23  1  0
 23 24  1  0
 24 28  1  0
 24 25  2  0
 26 21  1  0
 27 26  2  0
 29 26  1  0
M  END
$$$$
