PAN.pdb
     RDKit          3D

 21 21  0  0  1  0  0  0  0  0999 V2000
    8.4106  -14.8403   20.2573 N   0  0  0  0  0  0  0  0  0  0  0  0
    8.4748  -13.9352   19.1304 C   0  0  0  0  0  0  0  0  0  0  0  0
    7.7314  -12.6721   19.5079 C   0  0  0  0  0  0  0  0  0  0  0  0
    6.9532  -13.1310   20.7533 C   0  0  0  0  0  0  0  0  0  0  0  0
    7.9885  -14.0384   21.3547 C   0  0  1  0  0  0  0  0  0  0  0  0
    7.5617  -14.7831   22.5332 C   0  0  0  0  0  0  0  0  0  0  0  0
    7.2959  -14.1485   23.5888 O   0  0  0  0  0  0  0  0  0  0  0  0
    5.8029  -17.8625   23.2019 C   0  0  0  0  0  0  0  0  0  0  0  0
    6.8387  -16.8868   23.7178 C   0  0  2  0  0  0  0  0  0  0  0  0
    7.4163  -16.1931   22.5971 N   0  0  0  0  0  0  0  0  0  0  0  0
    7.8986  -17.5983   24.5192 C   0  0  0  0  0  0  0  0  0  0  0  0
    7.6403  -18.6290   25.1732 O   0  0  0  0  0  0  0  0  0  0  0  0
   11.7248  -16.0300   22.4825 N   0  0  0  0  0  0  0  0  0  0  0  0
   11.7091  -17.1606   23.3398 C   0  0  0  0  0  0  0  0  0  0  0  0
   11.7842  -18.3005   22.8183 O   0  0  0  0  0  0  0  0  0  0  0  0
   11.6086  -17.0392   24.8062 C   0  0  0  0  0  0  0  0  0  0  0  0
   10.3060  -17.6501   25.3220 C   0  0  2  0  0  0  0  0  0  0  0  0
    9.2243  -17.0954   24.5383 N   0  0  0  0  0  0  0  0  0  0  0  0
   10.1850  -17.3629   26.7533 C   0  0  0  0  0  0  0  0  0  0  0  0
    9.3756  -16.4844   27.1365 O   0  0  0  0  0  0  0  0  0  0  0  0
   10.9246  -18.0159   27.7209 O   0  0  0  0  0  0  0  0  0  0  0  0
  2  1  1  0
  3  4  1  0
  3  2  1  0
  4  5  1  0
  5  1  1  0
  6 10  1  0
  5  6  1  1
  7  6  2  0
  9  8  1  6
  9 10  1  0
  9 11  1  0
 11 12  2  0
 11 18  1  0
 14 13  1  0
 14 16  1  0
 15 14  2  0
 17 16  1  6
 17 19  1  0
 18 17  1  0
 19 21  1  0
 20 19  2  0
M  END
$$$$
