PAN.pdb
     RDKit          3D

 21 21  0  0  1  0  0  0  0  0999 V2000
    7.1699  -14.7376   20.9065 N   0  0  0  0  0  0  0  0  0  0  0  0
    7.1320  -14.5615   19.4710 C   0  0  0  0  0  0  0  0  0  0  0  0
    7.9358  -13.3239   19.1348 C   0  0  0  0  0  0  0  0  0  0  0  0
    8.0697  -12.6570   20.5149 C   0  0  0  0  0  0  0  0  0  0  0  0
    8.2218  -13.8916   21.3573 C   0  0  1  0  0  0  0  0  0  0  0  0
    8.2577  -13.6679   22.7976 C   0  0  0  0  0  0  0  0  0  0  0  0
    9.3730  -13.4903   23.3566 O   0  0  0  0  0  0  0  0  0  0  0  0
    5.8932  -12.6468   25.4558 C   0  0  0  0  0  0  0  0  0  0  0  0
    7.1803  -13.3327   25.0511 C   0  0  2  0  0  0  0  0  0  0  0  0
    7.1202  -13.6320   23.6448 N   0  0  0  0  0  0  0  0  0  0  0  0
    7.4036  -14.5835   25.8621 C   0  0  0  0  0  0  0  0  0  0  0  0
    7.4729  -14.5502   27.1074 O   0  0  0  0  0  0  0  0  0  0  0  0
    6.4137  -20.6176   25.2688 N   0  0  0  0  0  0  0  0  0  0  0  0
    6.8102  -19.4108   25.9012 C   0  0  0  0  0  0  0  0  0  0  0  0
    7.2068  -19.4684   27.0913 O   0  0  0  0  0  0  0  0  0  0  0  0
    6.7712  -18.1075   25.2120 C   0  0  0  0  0  0  0  0  0  0  0  0
    7.7107  -17.1031   25.8787 C   0  0  2  0  0  0  0  0  0  0  0  0
    7.5391  -15.8337   25.2068 N   0  0  0  0  0  0  0  0  0  0  0  0
    9.0809  -17.6148   25.7994 C   0  0  0  0  0  0  0  0  0  0  0  0
    9.5138  -18.3540   26.7159 O   0  0  0  0  0  0  0  0  0  0  0  0
    9.9375  -17.3242   24.7547 O   0  0  0  0  0  0  0  0  0  0  0  0
  2  1  1  0
  3  4  1  0
  3  2  1  0
  4  5  1  0
  5  1  1  0
  6 10  1  0
  5  6  1  1
  7  6  2  0
  9  8  1  1
  9 10  1  0
  9 11  1  0
 11 12  2  0
 11 18  1  0
 14 13  1  0
 14 16  1  0
 15 14  2  0
 17 16  1  6
 17 19  1  0
 18 17  1  0
 19 21  1  0
 20 19  2  0
M  END
$$$$
