PAN.pdb
     RDKit          3D

 21 21  0  0  1  0  0  0  0  0999 V2000
    9.1055  -14.3100   18.7575 N   0  0  0  0  0  0  0  0  0  0  0  0
    8.4131  -13.3625   17.9113 C   0  0  0  0  0  0  0  0  0  0  0  0
    7.5151  -12.5230   18.7942 C   0  0  0  0  0  0  0  0  0  0  0  0
    7.4981  -13.3482   20.0927 C   0  0  0  0  0  0  0  0  0  0  0  0
    8.9218  -13.8276   20.0837 C   0  0  1  0  0  0  0  0  0  0  0  0
    9.2722  -14.7730   21.1369 C   0  0  0  0  0  0  0  0  0  0  0  0
    9.1581  -14.4124   22.3389 O   0  0  0  0  0  0  0  0  0  0  0  0
    9.5365  -18.3796   21.6235 C   0  0  0  0  0  0  0  0  0  0  0  0
   10.0686  -17.0092   21.9836 C   0  0  2  0  0  0  0  0  0  0  0  0
    9.7416  -16.0946   20.9218 N   0  0  0  0  0  0  0  0  0  0  0  0
   11.5563  -17.0531   22.2217 C   0  0  0  0  0  0  0  0  0  0  0  0
   12.0885  -17.9867   22.8558 O   0  0  0  0  0  0  0  0  0  0  0  0
   13.3029  -14.3068   18.6541 N   0  0  0  0  0  0  0  0  0  0  0  0
   13.9405  -15.2475   19.5038 C   0  0  0  0  0  0  0  0  0  0  0  0
   14.1619  -16.3984   19.0527 O   0  0  0  0  0  0  0  0  0  0  0  0
   14.3462  -14.9188   20.8831 C   0  0  0  0  0  0  0  0  0  0  0  0
   13.8185  -15.9553   21.8747 C   0  0  2  0  0  0  0  0  0  0  0  0
   12.3818  -16.0159   21.7183 N   0  0  0  0  0  0  0  0  0  0  0  0
   14.2339  -15.5696   23.2254 C   0  0  0  0  0  0  0  0  0  0  0  0
   13.3637  -15.2197   24.0585 O   0  0  0  0  0  0  0  0  0  0  0  0
   15.5521  -15.5695   23.6401 O   0  0  0  0  0  0  0  0  0  0  0  0
  2  1  1  0
  3  4  1  0
  3  2  1  0
  4  5  1  0
  5  1  1  0
  6 10  1  0
  5  6  1  1
  7  6  2  0
  9  8  1  6
  9 10  1  0
  9 11  1  0
 11 12  2  0
 11 18  1  0
 14 13  1  0
 14 16  1  0
 15 14  2  0
 17 16  1  6
 17 19  1  0
 18 17  1  0
 19 21  1  0
 20 19  2  0
M  END
$$$$
