PAN.pdb
     RDKit          3D

 21 21  0  0  1  0  0  0  0  0999 V2000
    8.0307  -14.7321   19.2939 N   0  0  0  0  0  0  0  0  0  0  0  0
    7.5860  -13.4485   18.7958 C   0  0  0  0  0  0  0  0  0  0  0  0
    7.5987  -12.4731   19.9530 C   0  0  0  0  0  0  0  0  0  0  0  0
    7.7089  -13.4232   21.1581 C   0  0  0  0  0  0  0  0  0  0  0  0
    8.6210  -14.4558   20.5590 C   0  0  1  0  0  0  0  0  0  0  0  0
    8.8740  -15.6271   21.3895 C   0  0  0  0  0  0  0  0  0  0  0  0
    7.9256  -16.4242   21.6197 O   0  0  0  0  0  0  0  0  0  0  0  0
   11.8175  -17.3811   22.9002 C   0  0  0  0  0  0  0  0  0  0  0  0
   10.3324  -17.0982   22.8249 C   0  0  2  0  0  0  0  0  0  0  0  0
   10.1238  -15.9556   21.9753 N   0  0  0  0  0  0  0  0  0  0  0  0
    9.7571  -16.8642   24.1983 C   0  0  0  0  0  0  0  0  0  0  0  0
    9.8251  -15.7485   24.7529 O   0  0  0  0  0  0  0  0  0  0  0  0
    5.9492  -17.5477   24.7797 N   0  0  0  0  0  0  0  0  0  0  0  0
    6.5841  -18.7515   25.1815 C   0  0  0  0  0  0  0  0  0  0  0  0
    6.3859  -19.7837   24.4942 O   0  0  0  0  0  0  0  0  0  0  0  0
    7.4586  -18.8263   26.3667 C   0  0  0  0  0  0  0  0  0  0  0  0
    8.6338  -17.8564   26.2468 C   0  0  2  0  0  0  0  0  0  0  0  0
    9.1207  -17.9280   24.8867 N   0  0  0  0  0  0  0  0  0  0  0  0
    9.6474  -18.2189   27.2402 C   0  0  0  0  0  0  0  0  0  0  0  0
    9.3946  -18.0645   28.4592 O   0  0  0  0  0  0  0  0  0  0  0  0
   10.8867  -18.7297   26.9043 O   0  0  0  0  0  0  0  0  0  0  0  0
  2  1  1  0
  3  4  1  0
  3  2  1  0
  4  5  1  0
  5  1  1  0
  6 10  1  0
  5  6  1  1
  7  6  2  0
  9  8  1  1
  9 10  1  0
  9 11  1  0
 11 12  2  0
 11 18  1  0
 14 13  1  0
 14 16  1  0
 15 14  2  0
 17 16  1  6
 17 19  1  0
 18 17  1  0
 19 21  1  0
 20 19  2  0
M  END
$$$$
