PAN.pdb
     RDKit          3D

 21 21  0  0  1  0  0  0  0  0999 V2000
    7.3142  -15.3244   20.6402 N   0  0  0  0  0  0  0  0  0  0  0  0
    6.5900  -14.1655   20.1647 C   0  0  0  0  0  0  0  0  0  0  0  0
    7.5257  -13.3628   19.2868 C   0  0  0  0  0  0  0  0  0  0  0  0
    8.8905  -13.9746   19.6477 C   0  0  0  0  0  0  0  0  0  0  0  0
    8.4686  -15.4070   19.8120 C   0  0  1  0  0  0  0  0  0  0  0  0
    9.5045  -16.3156   20.2885 C   0  0  0  0  0  0  0  0  0  0  0  0
    9.3672  -17.5519   20.0869 O   0  0  0  0  0  0  0  0  0  0  0  0
   13.0620  -16.1053   21.2073 C   0  0  0  0  0  0  0  0  0  0  0  0
   11.7382  -16.8276   21.3373 C   0  0  2  0  0  0  0  0  0  0  0  0
   10.6812  -15.9204   20.9757 N   0  0  0  0  0  0  0  0  0  0  0  0
   11.5454  -17.3538   22.7365 C   0  0  0  0  0  0  0  0  0  0  0  0
   12.4038  -18.0723   23.2876 O   0  0  0  0  0  0  0  0  0  0  0  0
   10.3350  -14.6883   24.7739 N   0  0  0  0  0  0  0  0  0  0  0  0
    9.0785  -15.2342   25.1436 C   0  0  0  0  0  0  0  0  0  0  0  0
    8.1262  -14.4420   25.3504 O   0  0  0  0  0  0  0  0  0  0  0  0
    8.8595  -16.6853   25.2906 C   0  0  0  0  0  0  0  0  0  0  0  0
   10.0700  -17.4781   24.7982 C   0  0  2  0  0  0  0  0  0  0  0  0
   10.3658  -17.0318   23.4545 N   0  0  0  0  0  0  0  0  0  0  0  0
    9.7597  -18.9076   24.8739 C   0  0  0  0  0  0  0  0  0  0  0  0
    9.4063  -19.5147   23.8346 O   0  0  0  0  0  0  0  0  0  0  0  0
    9.8355  -19.6369   26.0453 O   0  0  0  0  0  0  0  0  0  0  0  0
  2  1  1  0
  3  4  1  0
  3  2  1  0
  4  5  1  0
  5  1  1  0
  6 10  1  0
  5  6  1  1
  7  6  2  0
  9  8  1  1
  9 10  1  0
  9 11  1  0
 11 12  2  0
 11 18  1  0
 14 13  1  0
 14 16  1  0
 15 14  2  0
 17 16  1  6
 17 19  1  0
 18 17  1  0
 19 21  1  0
 20 19  2  0
M  END
$$$$
