PAN.pdb
     RDKit          3D

 21 21  0  0  1  0  0  0  0  0999 V2000
    7.7801  -15.0757   18.8316 N   0  0  0  0  0  0  0  0  0  0  0  0
    7.1654  -13.8326   18.4191 C   0  0  0  0  0  0  0  0  0  0  0  0
    7.7204  -12.7289   19.2934 C   0  0  0  0  0  0  0  0  0  0  0  0
    8.3689  -13.5332   20.4335 C   0  0  0  0  0  0  0  0  0  0  0  0
    8.8915  -14.6927   19.6338 C   0  0  1  0  0  0  0  0  0  0  0  0
    9.4911  -15.7711   20.4103 C   0  0  0  0  0  0  0  0  0  0  0  0
    8.8699  -16.8625   20.5140 O   0  0  0  0  0  0  0  0  0  0  0  0
   12.8799  -16.6166   21.6602 C   0  0  0  0  0  0  0  0  0  0  0  0
   11.3812  -16.8240   21.7029 C   0  0  2  0  0  0  0  0  0  0  0  0
   10.7423  -15.6975   21.0754 N   0  0  0  0  0  0  0  0  0  0  0  0
   10.9005  -16.9988   23.1208 C   0  0  0  0  0  0  0  0  0  0  0  0
   11.3387  -17.9109   23.8507 O   0  0  0  0  0  0  0  0  0  0  0  0
    9.4492  -13.7191   26.2646 N   0  0  0  0  0  0  0  0  0  0  0  0
    8.2289  -14.1071   25.6533 C   0  0  0  0  0  0  0  0  0  0  0  0
    7.2651  -13.3029   25.6918 O   0  0  0  0  0  0  0  0  0  0  0  0
    8.0601  -15.4096   24.9824 C   0  0  0  0  0  0  0  0  0  0  0  0
    9.3671  -16.2020   24.9800 C   0  0  2  0  0  0  0  0  0  0  0  0
    9.9284  -16.1124   23.6499 N   0  0  0  0  0  0  0  0  0  0  0  0
    9.0845  -17.5786   25.3932 C   0  0  0  0  0  0  0  0  0  0  0  0
    9.4089  -17.9520   26.5460 O   0  0  0  0  0  0  0  0  0  0  0  0
    8.4708  -18.5042   24.5708 O   0  0  0  0  0  0  0  0  0  0  0  0
  2  1  1  0
  3  4  1  0
  3  2  1  0
  4  5  1  0
  5  1  1  0
  6 10  1  0
  5  6  1  1
  7  6  2  0
  9  8  1  1
  9 10  1  0
  9 11  1  0
 11 12  2  0
 11 18  1  0
 14 13  1  0
 14 16  1  0
 15 14  2  0
 17 16  1  6
 17 19  1  0
 18 17  1  0
 19 21  1  0
 20 19  2  0
M  END
$$$$
