WMA.pdb
     RDKit          3D

 28 29  0  0  1  0  0  0  0  0999 V2000
    9.7729  -17.8749   21.5048 N   0  0  0  0  0  0  0  0  0  0  0  0
    9.4153  -16.8006   22.3641 C   0  0  1  0  0  0  0  0  0  0  0  0
    7.9506  -16.5261   22.4528 C   0  0  0  0  0  0  0  0  0  0  0  0
    7.7446  -15.1214   22.8607 C   0  0  0  0  0  0  0  0  0  0  0  0
    7.9384  -13.9917   22.0607 C   0  0  0  0  0  0  0  0  0  0  0  0
    7.6304  -12.8939   22.7564 N   0  0  0  0  0  0  0  0  0  0  0  0
    7.2415  -13.2504   23.9828 C   0  0  0  0  0  0  0  0  0  0  0  0
    6.8266  -12.5077   25.0833 C   0  0  0  0  0  0  0  0  0  0  0  0
    6.4741  -13.1081   26.2703 C   0  0  0  0  0  0  0  0  0  0  0  0
    6.5420  -14.4852   26.3475 C   0  0  0  0  0  0  0  0  0  0  0  0
    6.9530  -15.2238   25.2571 C   0  0  0  0  0  0  0  0  0  0  0  0
    7.3053  -14.6371   24.0713 C   0  0  0  0  0  0  0  0  0  0  0  0
   10.0518  -16.9446   23.7047 C   0  0  0  0  0  0  0  0  0  0  0  0
   10.9838  -17.7815   23.8069 O   0  0  0  0  0  0  0  0  0  0  0  0
    9.1779  -12.7515   28.6128 C   0  0  0  0  0  0  0  0  0  0  0  0
   10.8436  -13.4466   28.8852 S   0  0  0  0  0  0  0  0  0  0  0  0
   10.7822  -15.1991   28.3409 C   0  0  0  0  0  0  0  0  0  0  0  0
    9.9940  -15.2006   27.0559 C   0  0  0  0  0  0  0  0  0  0  0  0
   10.4969  -16.2194   26.0523 C   0  0  2  0  0  0  0  0  0  0  0  0
    9.6893  -16.2197   24.8494 N   0  0  0  0  0  0  0  0  0  0  0  0
   10.6279  -17.5595   26.6262 C   0  0  0  0  0  0  0  0  0  0  0  0
   11.3345  -17.7596   27.6476 O   0  0  0  0  0  0  0  0  0  0  0  0
    9.4688  -21.0870   25.8015 C   0  0  0  0  0  0  0  0  0  0  0  0
   10.1191  -19.9926   26.6204 C   0  0  2  0  0  0  0  0  0  0  0  0
    9.9713  -18.6867   26.0640 N   0  0  0  0  0  0  0  0  0  0  0  0
   11.5526  -20.3628   26.8188 C   0  0  0  0  0  0  0  0  0  0  0  0
   12.4281  -19.5452   26.4264 O   0  0  0  0  0  0  0  0  0  0  0  0
   11.9581  -21.5398   27.4028 O   0  0  0  0  0  0  0  0  0  0  0  0
  2  1  1  6
  2  3  1  0
  2 13  1  0
  4  3  1  0
  4  5  2  0
  6  5  1  0
  7  6  1  0
  8  7  2  0
  9  8  1  0
 10  9  2  0
 10 11  1  0
 11 12  2  0
 12  7  1  0
 12  4  1  0
 13 14  2  0
 16 15  1  0
 17 18  1  0
 17 16  1  0
 19 18  1  1
 19 21  1  0
 20 19  1  0
 20 13  1  0
 21 22  2  0
 24 23  1  6
 24 26  1  0
 25 21  1  0
 25 24  1  0
 26 27  2  0
 26 28  1  0
M  END
$$$$
