WMA.pdb
     RDKit          3D

 28 29  0  0  1  0  0  0  0  0999 V2000
    7.6379  -18.5068   22.0967 N   0  0  0  0  0  0  0  0  0  0  0  0
    7.9783  -17.2372   21.5557 C   0  0  1  0  0  0  0  0  0  0  0  0
    6.8956  -16.5780   20.7671 C   0  0  0  0  0  0  0  0  0  0  0  0
    7.4688  -15.4489   20.0065 C   0  0  0  0  0  0  0  0  0  0  0  0
    7.9276  -15.4897   18.6867 C   0  0  0  0  0  0  0  0  0  0  0  0
    8.3535  -14.2767   18.3245 N   0  0  0  0  0  0  0  0  0  0  0  0
    8.1959  -13.4358   19.3494 C   0  0  0  0  0  0  0  0  0  0  0  0
    8.4804  -12.0824   19.4988 C   0  0  0  0  0  0  0  0  0  0  0  0
    8.2324  -11.4165   20.6772 C   0  0  0  0  0  0  0  0  0  0  0  0
    7.6867  -12.1312   21.7253 C   0  0  0  0  0  0  0  0  0  0  0  0
    7.4034  -13.4736   21.5792 C   0  0  0  0  0  0  0  0  0  0  0  0
    7.6453  -14.1459   20.4113 C   0  0  0  0  0  0  0  0  0  0  0  0
    8.5520  -16.3401   22.5993 C   0  0  0  0  0  0  0  0  0  0  0  0
    8.5298  -15.1055   22.3653 O   0  0  0  0  0  0  0  0  0  0  0  0
    7.9016  -12.1558   27.0410 C   0  0  0  0  0  0  0  0  0  0  0  0
    6.7976  -13.1980   26.0278 S   0  0  0  0  0  0  0  0  0  0  0  0
    7.1380  -14.9409   26.4947 C   0  0  0  0  0  0  0  0  0  0  0  0
    7.4242  -15.6619   25.2020 C   0  0  0  0  0  0  0  0  0  0  0  0
    8.8765  -16.0730   25.0607 C   0  0  2  0  0  0  0  0  0  0  0  0
    9.1093  -16.7704   23.8123 N   0  0  0  0  0  0  0  0  0  0  0  0
    9.3623  -16.8331   26.2133 C   0  0  0  0  0  0  0  0  0  0  0  0
    9.4897  -16.2885   27.3402 O   0  0  0  0  0  0  0  0  0  0  0  0
   12.1528  -18.4347   25.8636 C   0  0  0  0  0  0  0  0  0  0  0  0
   10.9150  -18.7153   26.6883 C   0  0  2  0  0  0  0  0  0  0  0  0
    9.7101  -18.2070   26.1168 N   0  0  0  0  0  0  0  0  0  0  0  0
   11.1545  -18.1855   28.0643 C   0  0  0  0  0  0  0  0  0  0  0  0
   12.1202  -18.6658   28.7167 O   0  0  0  0  0  0  0  0  0  0  0  0
   10.3803  -17.2096   28.6466 O   0  0  0  0  0  0  0  0  0  0  0  0
  2  1  1  1
  2  3  1  0
  2 13  1  0
  4  3  1  0
  4  5  2  0
  6  5  1  0
  7  6  1  0
  8  7  2  0
  9  8  1  0
 10  9  2  0
 10 11  1  0
 11 12  2  0
 12  7  1  0
 12  4  1  0
 13 14  2  0
 16 15  1  0
 17 18  1  0
 17 16  1  0
 19 18  1  1
 19 21  1  0
 20 19  1  0
 20 13  1  0
 21 22  2  0
 24 23  1  6
 24 26  1  0
 25 21  1  0
 25 24  1  0
 26 27  2  0
 26 28  1  0
M  END
$$$$
