WMA.pdb
     RDKit          3D

 28 29  0  0  1  0  0  0  0  0999 V2000
    8.2114  -17.7321   22.8520 N   0  0  0  0  0  0  0  0  0  0  0  0
    8.5104  -16.3561   22.6583 C   0  0  1  0  0  0  0  0  0  0  0  0
    7.3382  -15.5002   22.3088 C   0  0  0  0  0  0  0  0  0  0  0  0
    7.3347  -15.2547   20.8522 C   0  0  0  0  0  0  0  0  0  0  0  0
    6.9005  -16.1443   19.8652 C   0  0  0  0  0  0  0  0  0  0  0  0
    7.0210  -15.5721   18.6643 N   0  0  0  0  0  0  0  0  0  0  0  0
    7.5169  -14.3419   18.8159 C   0  0  0  0  0  0  0  0  0  0  0  0
    7.8348  -13.3442   17.9001 C   0  0  0  0  0  0  0  0  0  0  0  0
    8.3515  -12.1330   18.2998 C   0  0  0  0  0  0  0  0  0  0  0  0
    8.5514  -11.9254   19.6503 C   0  0  0  0  0  0  0  0  0  0  0  0
    8.2365  -12.9135   20.5604 C   0  0  0  0  0  0  0  0  0  0  0  0
    7.7213  -14.1217   20.1741 C   0  0  0  0  0  0  0  0  0  0  0  0
    9.2985  -15.8073   23.7989 C   0  0  0  0  0  0  0  0  0  0  0  0
   10.2750  -15.0689   23.5147 O   0  0  0  0  0  0  0  0  0  0  0  0
    5.5299  -12.2778   26.8793 C   0  0  0  0  0  0  0  0  0  0  0  0
    7.3029  -12.5058   27.2485 S   0  0  0  0  0  0  0  0  0  0  0  0
    7.7978  -14.1090   26.5026 C   0  0  0  0  0  0  0  0  0  0  0  0
    9.2625  -14.2724   26.8197 C   0  0  0  0  0  0  0  0  0  0  0  0
    9.8647  -15.5250   26.2144 C   0  0  2  0  0  0  0  0  0  0  0  0
    9.0311  -16.0529   25.1536 N   0  0  0  0  0  0  0  0  0  0  0  0
   10.1834  -16.5403   27.2194 C   0  0  0  0  0  0  0  0  0  0  0  0
   10.7566  -16.2284   28.2949 O   0  0  0  0  0  0  0  0  0  0  0  0
    9.5763  -20.2461   27.7733 C   0  0  0  0  0  0  0  0  0  0  0  0
   10.2475  -18.9055   27.9815 C   0  0  2  0  0  0  0  0  0  0  0  0
    9.8647  -17.9117   27.0314 N   0  0  0  0  0  0  0  0  0  0  0  0
   11.7238  -19.1327   27.9970 C   0  0  0  0  0  0  0  0  0  0  0  0
   12.4265  -18.4719   27.1853 O   0  0  0  0  0  0  0  0  0  0  0  0
   12.3461  -20.0183   28.8451 O   0  0  0  0  0  0  0  0  0  0  0  0
  2  1  1  1
  2  3  1  0
  2 13  1  0
  4  3  1  0
  4  5  2  0
  6  5  1  0
  7  6  1  0
  8  7  2  0
  9  8  1  0
 10  9  2  0
 10 11  1  0
 11 12  2  0
 12  7  1  0
 12  4  1  0
 13 14  2  0
 16 15  1  0
 17 18  1  0
 17 16  1  0
 19 18  1  1
 19 21  1  0
 20 19  1  0
 20 13  1  0
 21 22  2  0
 24 23  1  6
 24 26  1  0
 25 21  1  0
 25 24  1  0
 26 27  2  0
 26 28  1  0
M  END
$$$$
