WMA.pdb
     RDKit          3D

 28 29  0  0  1  0  0  0  0  0999 V2000
    6.1484  -17.8780   23.6808 N   0  0  0  0  0  0  0  0  0  0  0  0
    6.9418  -16.7010   23.7559 C   0  0  1  0  0  0  0  0  0  0  0  0
    7.6063  -16.4727   25.0731 C   0  0  0  0  0  0  0  0  0  0  0  0
    6.8839  -15.4107   25.8028 C   0  0  0  0  0  0  0  0  0  0  0  0
    5.7439  -15.5802   26.5939 C   0  0  0  0  0  0  0  0  0  0  0  0
    5.3839  -14.4046   27.1157 N   0  0  0  0  0  0  0  0  0  0  0  0
    6.2377  -13.4650   26.7026 C   0  0  0  0  0  0  0  0  0  0  0  0
    6.3100  -12.0973   26.9459 C   0  0  0  0  0  0  0  0  0  0  0  0
    7.2978  -11.3151   26.3925 C   0  0  0  0  0  0  0  0  0  0  0  0
    8.2304  -11.9258   25.5776 C   0  0  0  0  0  0  0  0  0  0  0  0
    8.1608  -13.2822   25.3351 C   0  0  0  0  0  0  0  0  0  0  0  0
    7.1831  -14.0701   25.8809 C   0  0  0  0  0  0  0  0  0  0  0  0
    7.8953  -16.6167   22.6128 C   0  0  0  0  0  0  0  0  0  0  0  0
    8.2499  -17.7005   22.0845 O   0  0  0  0  0  0  0  0  0  0  0  0
    7.6667  -13.7430   17.9129 C   0  0  0  0  0  0  0  0  0  0  0  0
    6.9185  -13.3432   19.5291 S   0  0  0  0  0  0  0  0  0  0  0  0
    8.3008  -13.1737   20.7258 C   0  0  0  0  0  0  0  0  0  0  0  0
    9.3728  -14.1201   20.2487 C   0  0  0  0  0  0  0  0  0  0  0  0
    9.4115  -15.4170   21.0327 C   0  0  2  0  0  0  0  0  0  0  0  0
    8.4198  -15.4261   22.0888 N   0  0  0  0  0  0  0  0  0  0  0  0
   10.7500  -15.7337   21.5335 C   0  0  0  0  0  0  0  0  0  0  0  0
   11.7329  -15.8058   20.7516 O   0  0  0  0  0  0  0  0  0  0  0  0
   12.5450  -16.0103   24.8341 C   0  0  0  0  0  0  0  0  0  0  0  0
   12.2950  -16.3504   23.3805 C   0  0  2  0  0  0  0  0  0  0  0  0
   11.0013  -15.9728   22.9109 N   0  0  0  0  0  0  0  0  0  0  0  0
   12.5561  -17.8104   23.2028 C   0  0  0  0  0  0  0  0  0  0  0  0
   11.6192  -18.5219   22.7500 O   0  0  0  0  0  0  0  0  0  0  0  0
   13.7565  -18.4087   23.5062 O   0  0  0  0  0  0  0  0  0  0  0  0
  2  1  1  1
  2  3  1  0
  2 13  1  0
  4  3  1  0
  4  5  2  0
  6  5  1  0
  7  6  1  0
  8  7  2  0
  9  8  1  0
 10  9  2  0
 10 11  1  0
 11 12  2  0
 12  7  1  0
 12  4  1  0
 13 14  2  0
 16 15  1  0
 17 18  1  0
 17 16  1  0
 19 18  1  1
 19 21  1  0
 20 19  1  0
 20 13  1  0
 21 22  2  0
 24 23  1  1
 24 26  1  0
 25 21  1  0
 25 24  1  0
 26 27  2  0
 26 28  1  0
M  END
$$$$
