WMA.pdb
     RDKit          3D

 28 29  0  0  1  0  0  0  0  0999 V2000
    6.4553  -18.1223   24.6808 N   0  0  0  0  0  0  0  0  0  0  0  0
    7.1432  -16.9629   24.2304 C   0  0  1  0  0  0  0  0  0  0  0  0
    7.9335  -16.2526   25.2791 C   0  0  0  0  0  0  0  0  0  0  0  0
    7.1013  -15.1874   25.8747 C   0  0  0  0  0  0  0  0  0  0  0  0
    5.8386  -15.3505   26.4518 C   0  0  0  0  0  0  0  0  0  0  0  0
    5.4006  -14.1737   26.9072 N   0  0  0  0  0  0  0  0  0  0  0  0
    6.3205  -13.2395   26.6551 C   0  0  0  0  0  0  0  0  0  0  0  0
    6.3584  -11.8732   26.9134 C   0  0  0  0  0  0  0  0  0  0  0  0
    7.4337  -11.0970   26.5462 C   0  0  0  0  0  0  0  0  0  0  0  0
    8.4911  -11.7123   25.9057 C   0  0  0  0  0  0  0  0  0  0  0  0
    8.4556  -13.0674   25.6488 C   0  0  0  0  0  0  0  0  0  0  0  0
    7.3915  -13.8494   26.0102 C   0  0  0  0  0  0  0  0  0  0  0  0
    7.9455  -17.2503   23.0071 C   0  0  0  0  0  0  0  0  0  0  0  0
    8.6107  -18.3166   22.9985 O   0  0  0  0  0  0  0  0  0  0  0  0
    8.1007  -11.6677   19.8633 C   0  0  0  0  0  0  0  0  0  0  0  0
    7.5623  -13.3540   19.4176 S   0  0  0  0  0  0  0  0  0  0  0  0
    8.9923  -14.4649   19.7222 C   0  0  0  0  0  0  0  0  0  0  0  0
    8.4685  -15.8660   19.5347 C   0  0  0  0  0  0  0  0  0  0  0  0
    8.7844  -16.7791   20.7029 C   0  0  2  0  0  0  0  0  0  0  0  0
    8.0107  -16.4244   21.8753 N   0  0  0  0  0  0  0  0  0  0  0  0
   10.2175  -16.8505   20.9916 C   0  0  0  0  0  0  0  0  0  0  0  0
   10.8027  -15.9164   21.5979 O   0  0  0  0  0  0  0  0  0  0  0  0
   13.0350  -19.3713   20.5996 C   0  0  0  0  0  0  0  0  0  0  0  0
   12.4055  -18.0259   20.8912 C   0  0  2  0  0  0  0  0  0  0  0  0
   11.0086  -17.9653   20.6052 N   0  0  0  0  0  0  0  0  0  0  0  0
   13.1801  -16.9893   20.1450 C   0  0  0  0  0  0  0  0  0  0  0  0
   12.7801  -16.6774   18.9910 O   0  0  0  0  0  0  0  0  0  0  0  0
   14.2961  -16.3657   20.6515 O   0  0  0  0  0  0  0  0  0  0  0  0
  2  1  1  1
  2  3  1  0
  2 13  1  0
  4  3  1  0
  4  5  2  0
  6  5  1  0
  7  6  1  0
  8  7  2  0
  9  8  1  0
 10  9  2  0
 10 11  1  0
 11 12  2  0
 12  7  1  0
 12  4  1  0
 13 14  2  0
 16 15  1  0
 17 18  1  0
 17 16  1  0
 19 18  1  6
 19 21  1  0
 20 19  1  0
 20 13  1  0
 21 22  2  0
 24 23  1  6
 24 26  1  0
 25 21  1  0
 25 24  1  0
 26 27  2  0
 26 28  1  0
M  END
$$$$
