WMA.pdb
     RDKit          3D

 28 29  0  0  1  0  0  0  0  0999 V2000
    7.5716  -18.1681   23.0818 N   0  0  0  0  0  0  0  0  0  0  0  0
    8.2159  -16.9579   22.7066 C   0  0  1  0  0  0  0  0  0  0  0  0
    7.2999  -15.8009   22.4803 C   0  0  0  0  0  0  0  0  0  0  0  0
    6.7865  -15.3275   23.7819 C   0  0  0  0  0  0  0  0  0  0  0  0
    6.1617  -16.1094   24.7578 C   0  0  0  0  0  0  0  0  0  0  0  0
    5.8549  -15.3476   25.8111 N   0  0  0  0  0  0  0  0  0  0  0  0
    6.2503  -14.0949   25.5725 C   0  0  0  0  0  0  0  0  0  0  0  0
    6.1660  -12.9296   26.3274 C   0  0  0  0  0  0  0  0  0  0  0  0
    6.6471  -11.7281   25.8599 C   0  0  0  0  0  0  0  0  0  0  0  0
    7.2242  -11.7027   24.6056 C   0  0  0  0  0  0  0  0  0  0  0  0
    7.3090  -12.8574   23.8552 C   0  0  0  0  0  0  0  0  0  0  0  0
    6.8345  -14.0582   24.3106 C   0  0  0  0  0  0  0  0  0  0  0  0
    9.3335  -16.6283   23.6369 C   0  0  0  0  0  0  0  0  0  0  0  0
   10.1692  -15.7754   23.2451 O   0  0  0  0  0  0  0  0  0  0  0  0
   11.4748  -13.1456   28.3284 C   0  0  0  0  0  0  0  0  0  0  0  0
   10.6686  -14.6465   28.9834 S   0  0  0  0  0  0  0  0  0  0  0  0
   11.3443  -16.0674   28.0367 C   0  0  0  0  0  0  0  0  0  0  0  0
   10.2141  -16.5518   27.1645 C   0  0  0  0  0  0  0  0  0  0  0  0
   10.6498  -16.8613   25.7459 C   0  0  2  0  0  0  0  0  0  0  0  0
    9.5176  -17.1958   24.9062 N   0  0  0  0  0  0  0  0  0  0  0  0
   11.6974  -17.8819   25.6875 C   0  0  0  0  0  0  0  0  0  0  0  0
   11.5377  -19.0048   26.2317 O   0  0  0  0  0  0  0  0  0  0  0  0
   15.0224  -18.3596   23.9181 C   0  0  0  0  0  0  0  0  0  0  0  0
   13.9102  -18.6872   24.8911 C   0  0  2  0  0  0  0  0  0  0  0  0
   12.9316  -17.6565   25.0213 N   0  0  0  0  0  0  0  0  0  0  0  0
   14.5385  -19.0378   26.2001 C   0  0  0  0  0  0  0  0  0  0  0  0
   14.2272  -18.3419   27.2040 O   0  0  0  0  0  0  0  0  0  0  0  0
   15.4303  -20.0721   26.3605 O   0  0  0  0  0  0  0  0  0  0  0  0
  2  1  1  1
  2  3  1  0
  2 13  1  0
  4  3  1  0
  4  5  2  0
  6  5  1  0
  7  6  1  0
  8  7  2  0
  9  8  1  0
 10  9  2  0
 10 11  1  0
 11 12  2  0
 12  7  1  0
 12  4  1  0
 13 14  2  0
 16 15  1  0
 17 18  1  0
 17 16  1  0
 19 18  1  1
 19 21  1  0
 20 19  1  0
 20 13  1  0
 21 22  2  0
 24 23  1  6
 24 26  1  0
 25 21  1  0
 25 24  1  0
 26 27  2  0
 26 28  1  0
M  END
$$$$
