WMA.pdb
     RDKit          3D

 28 29  0  0  1  0  0  0  0  0999 V2000
    6.3334  -18.4363   24.3470 N   0  0  0  0  0  0  0  0  0  0  0  0
    6.9921  -17.1803   24.2522 C   0  0  1  0  0  0  0  0  0  0  0  0
    7.6102  -16.6962   25.5220 C   0  0  0  0  0  0  0  0  0  0  0  0
    6.9788  -15.4191   25.9122 C   0  0  0  0  0  0  0  0  0  0  0  0
    5.6187  -15.2109   26.1583 C   0  0  0  0  0  0  0  0  0  0  0  0
    5.4187  -13.9383   26.5114 N   0  0  0  0  0  0  0  0  0  0  0  0
    6.5893  -13.2965   26.5087 C   0  0  0  0  0  0  0  0  0  0  0  0
    6.9317  -11.9782   26.7910 C   0  0  0  0  0  0  0  0  0  0  0  0
    8.2324  -11.5356   26.7123 C   0  0  0  0  0  0  0  0  0  0  0  0
    9.2061  -12.4418   26.3414 C   0  0  0  0  0  0  0  0  0  0  0  0
    8.8687  -13.7500   26.0613 C   0  0  0  0  0  0  0  0  0  0  0  0
    7.5783  -14.2013   26.1370 C   0  0  0  0  0  0  0  0  0  0  0  0
    7.9457  -17.1539   23.1063 C   0  0  0  0  0  0  0  0  0  0  0  0
    8.4093  -18.2579   22.7244 O   0  0  0  0  0  0  0  0  0  0  0  0
    6.4625  -12.6860   18.3220 C   0  0  0  0  0  0  0  0  0  0  0  0
    8.1336  -13.0444   18.9628 S   0  0  0  0  0  0  0  0  0  0  0  0
    7.9906  -14.5506   20.0032 C   0  0  0  0  0  0  0  0  0  0  0  0
    9.3739  -14.8054   20.5457 C   0  0  0  0  0  0  0  0  0  0  0  0
    9.4387  -16.0096   21.4643 C   0  0  2  0  0  0  0  0  0  0  0  0
    8.3585  -15.9968   22.4296 N   0  0  0  0  0  0  0  0  0  0  0  0
   10.7460  -16.1606   22.1051 C   0  0  0  0  0  0  0  0  0  0  0  0
   11.7954  -16.2600   21.4184 O   0  0  0  0  0  0  0  0  0  0  0  0
   12.1350  -15.9390   25.6313 C   0  0  0  0  0  0  0  0  0  0  0  0
   12.1772  -16.1794   24.1375 C   0  0  2  0  0  0  0  0  0  0  0  0
   10.8919  -16.2021   23.5174 N   0  0  0  0  0  0  0  0  0  0  0  0
   12.9407  -17.4411   23.9004 C   0  0  0  0  0  0  0  0  0  0  0  0
   14.1253  -17.4977   24.3276 O   0  0  0  0  0  0  0  0  0  0  0  0
   12.4187  -18.5319   23.2457 O   0  0  0  0  0  0  0  0  0  0  0  0
  2  1  1  1
  2  3  1  0
  2 13  1  0
  4  3  1  0
  4  5  2  0
  6  5  1  0
  7  6  1  0
  8  7  2  0
  9  8  1  0
 10  9  2  0
 10 11  1  0
 11 12  2  0
 12  7  1  0
 12  4  1  0
 13 14  2  0
 16 15  1  0
 17 18  1  0
 17 16  1  0
 19 18  1  1
 19 21  1  0
 20 19  1  0
 20 13  1  0
 21 22  2  0
 24 23  1  1
 24 26  1  0
 25 21  1  0
 25 24  1  0
 26 27  2  0
 26 28  1  0
M  END
$$$$
