WMA.pdb
     RDKit          3D

 28 29  0  0  1  0  0  0  0  0999 V2000
    6.9747  -18.6177   25.0686 N   0  0  0  0  0  0  0  0  0  0  0  0
    7.2525  -17.3318   24.5303 C   0  0  1  0  0  0  0  0  0  0  0  0
    7.9968  -16.4146   25.4432 C   0  0  0  0  0  0  0  0  0  0  0  0
    7.0726  -15.3790   25.9488 C   0  0  0  0  0  0  0  0  0  0  0  0
    5.7776  -15.5911   26.4306 C   0  0  0  0  0  0  0  0  0  0  0  0
    5.2518  -14.4281   26.8241 N   0  0  0  0  0  0  0  0  0  0  0  0
    6.1446  -13.4561   26.6225 C   0  0  0  0  0  0  0  0  0  0  0  0
    6.0994  -12.0848   26.8519 C   0  0  0  0  0  0  0  0  0  0  0  0
    7.1631  -11.2654   26.5510 C   0  0  0  0  0  0  0  0  0  0  0  0
    8.2944  -11.8417   26.0078 C   0  0  0  0  0  0  0  0  0  0  0  0
    8.3414  -13.2016   25.7797 C   0  0  0  0  0  0  0  0  0  0  0  0
    7.2895  -14.0263   26.0758 C   0  0  0  0  0  0  0  0  0  0  0  0
    7.8837  -17.4334   23.1834 C   0  0  0  0  0  0  0  0  0  0  0  0
    8.3870  -18.5419   22.8713 O   0  0  0  0  0  0  0  0  0  0  0  0
    8.2430  -11.1547   20.2038 C   0  0  0  0  0  0  0  0  0  0  0  0
    7.7691  -12.8204   19.6271 S   0  0  0  0  0  0  0  0  0  0  0  0
    8.7986  -14.0184   20.5633 C   0  0  0  0  0  0  0  0  0  0  0  0
    8.3983  -15.3819   20.0602 C   0  0  0  0  0  0  0  0  0  0  0  0
    8.7357  -16.4957   21.0317 C   0  0  2  0  0  0  0  0  0  0  0  0
    7.9553  -16.3909   22.2478 N   0  0  0  0  0  0  0  0  0  0  0  0
   10.1704  -16.5894   21.3061 C   0  0  0  0  0  0  0  0  0  0  0  0
   10.9955  -16.7843   20.3766 O   0  0  0  0  0  0  0  0  0  0  0  0
   12.5259  -15.8372   24.1483 C   0  0  0  0  0  0  0  0  0  0  0  0
   12.0977  -16.5348   22.8751 C   0  0  2  0  0  0  0  0  0  0  0  0
   10.6951  -16.4668   22.6205 N   0  0  0  0  0  0  0  0  0  0  0  0
   12.5922  -17.9429   22.9386 C   0  0  0  0  0  0  0  0  0  0  0  0
   11.7376  -18.8672   22.8726 O   0  0  0  0  0  0  0  0  0  0  0  0
   13.9207  -18.2752   23.0641 O   0  0  0  0  0  0  0  0  0  0  0  0
  2  1  1  1
  2  3  1  0
  2 13  1  0
  4  3  1  0
  4  5  2  0
  6  5  1  0
  7  6  1  0
  8  7  2  0
  9  8  1  0
 10  9  2  0
 10 11  1  0
 11 12  2  0
 12  7  1  0
 12  4  1  0
 13 14  2  0
 16 15  1  0
 17 18  1  0
 17 16  1  0
 19 18  1  6
 19 21  1  0
 20 19  1  0
 20 13  1  0
 21 22  2  0
 24 23  1  1
 24 26  1  0
 25 21  1  0
 25 24  1  0
 26 27  2  0
 26 28  1  0
M  END
$$$$
