VIY.pdb
     RDKit          3D

 28 28  0  0  1  0  0  0  0  0999 V2000
   22.9323  -34.0708  -11.8660 C   0  0  0  0  0  0  0  0  0  0  0  0
   23.8650  -34.1940  -10.6950 C   0  0  1  0  0  0  0  0  0  0  0  0
   23.7415  -35.5998  -10.1228 C   0  0  0  0  0  0  0  0  0  0  0  0
   25.3265  -34.0094  -11.0847 C   0  0  2  0  0  0  0  0  0  0  0  0
   25.5852  -34.9667  -12.1401 N   0  0  0  0  0  0  0  0  0  0  0  0
   26.1269  -34.3179   -9.8711 C   0  0  0  0  0  0  0  0  0  0  0  0
   26.5785  -35.4855   -9.7368 O   0  0  0  0  0  0  0  0  0  0  0  0
   29.9536  -31.3166   -9.1651 C   0  0  0  0  0  0  0  0  0  0  0  0
   29.1723  -32.5595   -8.9512 C   0  0  0  0  0  0  0  0  0  0  0  0
   28.3453  -32.5756   -7.7019 C   0  0  2  0  0  0  0  0  0  0  0  0
   29.1501  -32.5548   -6.4447 C   0  0  0  0  0  0  0  0  0  0  0  0
   27.2987  -33.6761   -7.7252 C   0  0  2  0  0  0  0  0  0  0  0  0
   26.4131  -33.3874   -8.8608 N   0  0  0  0  0  0  0  0  0  0  0  0
   26.4759  -33.6656   -6.4939 C   0  0  0  0  0  0  0  0  0  0  0  0
   25.8318  -32.6235   -6.2237 O   0  0  0  0  0  0  0  0  0  0  0  0
   21.9307  -34.8766    0.7932 O   0  0  0  0  0  0  0  0  0  0  0  0
   22.5336  -35.0280   -0.4491 C   0  0  0  0  0  0  0  0  0  0  0  0
   23.5342  -35.9577   -0.6390 C   0  0  0  0  0  0  0  0  0  0  0  0
   24.1727  -36.1616   -1.8357 C   0  0  0  0  0  0  0  0  0  0  0  0
   23.8090  -35.3953   -2.9494 C   0  0  0  0  0  0  0  0  0  0  0  0
   24.5070  -35.5744   -4.2430 C   0  0  0  0  0  0  0  0  0  0  0  0
   25.6098  -34.5921   -4.3669 C   0  0  2  0  0  0  0  0  0  0  0  0
   26.3666  -34.7510   -5.6014 N   0  0  0  0  0  0  0  0  0  0  0  0
   26.5042  -34.5693   -3.1965 C   0  0  0  0  0  0  0  0  0  0  0  0
   26.2495  -33.8677   -2.2048 O   0  0  0  0  0  0  0  0  0  0  0  0
   22.8078  -34.4619   -2.7661 C   0  0  0  0  0  0  0  0  0  0  0  0
   22.1843  -34.2799   -1.5510 C   0  0  0  0  0  0  0  0  0  0  0  0
   27.6530  -35.3400   -3.1904 O   0  0  0  0  0  0  0  0  0  0  0  0
  2  1  1  6
  2  4  1  0
  3  2  1  0
  4  5  1  6
  6  4  1  0
  6 13  1  0
  7  6  2  0
  9  8  1  0
 10  9  1  0
 10 12  1  0
 10 11  1  1
 12 14  1  0
 12 13  1  6
 14 23  1  0
 15 14  2  0
 16 17  1  0
 17 18  2  0
 18 19  1  0
 20 21  1  0
 20 19  2  0
 22 21  1  1
 22 24  1  0
 23 22  1  0
 24 25  2  0
 24 28  1  0
 26 20  1  0
 27 26  2  0
 27 17  1  0
M  END
$$$$
