VIY.pdb
     RDKit          3D

 28 28  0  0  1  0  0  0  0  0999 V2000
   27.0138  -11.2561  -22.3552 C   0  0  0  0  0  0  0  0  0  0  0  0
   28.2325  -11.8423  -23.0090 C   0  0  1  0  0  0  0  0  0  0  0  0
   28.8195  -10.8059  -23.9578 C   0  0  0  0  0  0  0  0  0  0  0  0
   29.3289  -12.1871  -22.0086 C   0  0  2  0  0  0  0  0  0  0  0  0
   30.3766  -12.8368  -22.7684 N   0  0  0  0  0  0  0  0  0  0  0  0
   28.7212  -13.1202  -21.0244 C   0  0  0  0  0  0  0  0  0  0  0  0
   28.5068  -14.3076  -21.3837 O   0  0  0  0  0  0  0  0  0  0  0  0
   30.3567  -12.9971  -15.9902 C   0  0  0  0  0  0  0  0  0  0  0  0
   29.7823  -13.3787  -17.3037 C   0  0  0  0  0  0  0  0  0  0  0  0
   28.2881  -13.3025  -17.3830 C   0  0  2  0  0  0  0  0  0  0  0  0
   27.5876  -14.0011  -16.2650 C   0  0  0  0  0  0  0  0  0  0  0  0
   27.7691  -13.6971  -18.7549 C   0  0  2  0  0  0  0  0  0  0  0  0
   28.3693  -12.7611  -19.7145 N   0  0  0  0  0  0  0  0  0  0  0  0
   26.2978  -13.5515  -18.8386 C   0  0  0  0  0  0  0  0  0  0  0  0
   25.7963  -12.4430  -18.5325 O   0  0  0  0  0  0  0  0  0  0  0  0
   17.7614  -13.3484  -20.2340 O   0  0  0  0  0  0  0  0  0  0  0  0
   19.1354  -13.5416  -20.3021 C   0  0  0  0  0  0  0  0  0  0  0  0
   20.0057  -12.4867  -20.1252 C   0  0  0  0  0  0  0  0  0  0  0  0
   21.3713  -12.6036  -20.1785 C   0  0  0  0  0  0  0  0  0  0  0  0
   21.9459  -13.8560  -20.4256 C   0  0  0  0  0  0  0  0  0  0  0  0
   23.4165  -14.0005  -20.5208 C   0  0  0  0  0  0  0  0  0  0  0  0
   23.9807  -14.3495  -19.1955 C   0  0  2  0  0  0  0  0  0  0  0  0
   25.4188  -14.5775  -19.2404 N   0  0  0  0  0  0  0  0  0  0  0  0
   23.2863  -15.4737  -18.5441 C   0  0  0  0  0  0  0  0  0  0  0  0
   23.7869  -16.6091  -18.5131 O   0  0  0  0  0  0  0  0  0  0  0  0
   21.0800  -14.9169  -20.6042 C   0  0  0  0  0  0  0  0  0  0  0  0
   19.7115  -14.7684  -20.5447 C   0  0  0  0  0  0  0  0  0  0  0  0
   22.0522  -15.2730  -17.9521 O   0  0  0  0  0  0  0  0  0  0  0  0
  2  1  1  1
  2  4  1  0
  3  2  1  0
  4  5  1  6
  6  4  1  0
  6 13  1  0
  7  6  2  0
  9  8  1  0
 10  9  1  0
 10 12  1  0
 10 11  1  1
 12 14  1  0
 12 13  1  6
 14 23  1  0
 15 14  2  0
 16 17  1  0
 17 18  2  0
 18 19  1  0
 20 21  1  0
 20 19  2  0
 22 21  1  6
 22 24  1  0
 23 22  1  0
 24 25  2  0
 24 28  1  0
 26 20  1  0
 27 26  2  0
 27 17  1  0
M  END
$$$$
