VIY.pdb
     RDKit          3D

 28 28  0  0  1  0  0  0  0  0999 V2000
   35.6052  -28.7908  -21.2507 C   0  0  0  0  0  0  0  0  0  0  0  0
   34.3490  -29.2987  -20.6024 C   0  0  1  0  0  0  0  0  0  0  0  0
   33.1564  -28.8408  -21.4313 C   0  0  0  0  0  0  0  0  0  0  0  0
   34.2861  -30.8205  -20.5528 C   0  0  2  0  0  0  0  0  0  0  0  0
   34.4736  -31.2752  -21.9149 N   0  0  0  0  0  0  0  0  0  0  0  0
   32.9311  -31.1687  -20.0515 C   0  0  0  0  0  0  0  0  0  0  0  0
   32.0256  -31.3999  -20.8952 O   0  0  0  0  0  0  0  0  0  0  0  0
   32.4915  -34.9561  -16.5868 C   0  0  0  0  0  0  0  0  0  0  0  0
   32.2560  -33.9054  -17.6073 C   0  0  0  0  0  0  0  0  0  0  0  0
   31.5211  -32.6983  -17.1096 C   0  0  2  0  0  0  0  0  0  0  0  0
   30.2953  -33.0205  -16.3206 C   0  0  0  0  0  0  0  0  0  0  0  0
   31.2736  -31.6858  -18.2144 C   0  0  2  0  0  0  0  0  0  0  0  0
   32.5945  -31.2568  -18.6924 N   0  0  0  0  0  0  0  0  0  0  0  0
   30.5657  -30.4898  -17.7028 C   0  0  0  0  0  0  0  0  0  0  0  0
   31.1673  -29.7534  -16.8844 O   0  0  0  0  0  0  0  0  0  0  0  0
   25.7302  -23.5056  -15.9857 O   0  0  0  0  0  0  0  0  0  0  0  0
   26.3477  -24.5784  -16.6163 C   0  0  0  0  0  0  0  0  0  0  0  0
   25.6442  -25.7299  -16.8999 C   0  0  0  0  0  0  0  0  0  0  0  0
   26.1879  -26.8262  -17.5196 C   0  0  0  0  0  0  0  0  0  0  0  0
   27.5353  -26.8049  -17.8988 C   0  0  0  0  0  0  0  0  0  0  0  0
   28.1528  -27.9888  -18.5389 C   0  0  0  0  0  0  0  0  0  0  0  0
   28.6603  -28.9206  -17.5041 C   0  0  2  0  0  0  0  0  0  0  0  0
   29.2571  -30.1210  -18.0742 N   0  0  0  0  0  0  0  0  0  0  0  0
   27.6541  -29.2625  -16.4838 C   0  0  0  0  0  0  0  0  0  0  0  0
   26.7873  -30.1249  -16.6976 O   0  0  0  0  0  0  0  0  0  0  0  0
   28.2460  -25.6547  -17.6173 C   0  0  0  0  0  0  0  0  0  0  0  0
   27.6719  -24.5686  -16.9934 C   0  0  0  0  0  0  0  0  0  0  0  0
   27.6649  -28.6173  -15.2602 O   0  0  0  0  0  0  0  0  0  0  0  0
  2  1  1  6
  2  4  1  0
  3  2  1  0
  4  5  1  6
  6  4  1  0
  6 13  1  0
  7  6  2  0
  9  8  1  0
 10  9  1  0
 10 12  1  0
 10 11  1  6
 12 14  1  0
 12 13  1  1
 14 23  1  0
 15 14  2  0
 16 17  1  0
 17 18  2  0
 18 19  1  0
 20 21  1  0
 20 19  2  0
 22 21  1  6
 22 24  1  0
 23 22  1  0
 24 25  2  0
 24 28  1  0
 26 20  1  0
 27 26  2  0
 27 17  1  0
M  END
$$$$
