VIY.pdb
     RDKit          3D

 28 28  0  0  1  0  0  0  0  0999 V2000
   25.0685  -13.3966  -18.7802 C   0  0  0  0  0  0  0  0  0  0  0  0
   23.8984  -12.4809  -18.5592 C   0  0  1  0  0  0  0  0  0  0  0  0
   22.6169  -13.2954  -18.6744 C   0  0  0  0  0  0  0  0  0  0  0  0
   23.8940  -11.8565  -17.1692 C   0  0  2  0  0  0  0  0  0  0  0  0
   23.8264  -12.9596  -16.2333 N   0  0  0  0  0  0  0  0  0  0  0  0
   22.6743  -11.0110  -17.0925 C   0  0  0  0  0  0  0  0  0  0  0  0
   22.5881  -10.0191  -17.8632 O   0  0  0  0  0  0  0  0  0  0  0  0
   17.8057  -13.0203  -16.8864 C   0  0  0  0  0  0  0  0  0  0  0  0
   18.9168  -12.0543  -17.0692 C   0  0  0  0  0  0  0  0  0  0  0  0
   19.2389  -11.2298  -15.8603 C   0  0  2  0  0  0  0  0  0  0  0  0
   18.0674  -10.4904  -15.3041 C   0  0  0  0  0  0  0  0  0  0  0  0
   20.4553  -10.3470  -16.0799 C   0  0  2  0  0  0  0  0  0  0  0  0
   21.6078  -11.2480  -16.2123 N   0  0  0  0  0  0  0  0  0  0  0  0
   20.7002   -9.4650  -14.9158 C   0  0  0  0  0  0  0  0  0  0  0  0
   20.8196   -9.9982  -13.7865 O   0  0  0  0  0  0  0  0  0  0  0  0
   22.6406   -1.5575  -15.9692 O   0  0  0  0  0  0  0  0  0  0  0  0
   22.5849   -2.8153  -15.3824 C   0  0  0  0  0  0  0  0  0  0  0  0
   22.9915   -3.9358  -16.0756 C   0  0  0  0  0  0  0  0  0  0  0  0
   22.9647   -5.2066  -15.5601 C   0  0  0  0  0  0  0  0  0  0  0  0
   22.5019   -5.4104  -14.2547 C   0  0  0  0  0  0  0  0  0  0  0  0
   22.4325   -6.7769  -13.6886 C   0  0  0  0  0  0  0  0  0  0  0  0
   21.0464   -7.2942  -13.7753 C   0  0  2  0  0  0  0  0  0  0  0  0
   20.8090   -8.0617  -14.9905 N   0  0  0  0  0  0  0  0  0  0  0  0
   20.0224   -6.2497  -13.6000 C   0  0  0  0  0  0  0  0  0  0  0  0
   19.8075   -5.7383  -12.4897 O   0  0  0  0  0  0  0  0  0  0  0  0
   22.0926   -4.2924  -13.5548 C   0  0  0  0  0  0  0  0  0  0  0  0
   22.1315   -3.0275  -14.0997 C   0  0  0  0  0  0  0  0  0  0  0  0
   19.2796   -5.8220  -14.6859 O   0  0  0  0  0  0  0  0  0  0  0  0
  2  1  1  1
  2  4  1  0
  3  2  1  0
  4  5  1  1
  6  4  1  0
  6 13  1  0
  7  6  2  0
  9  8  1  0
 10  9  1  0
 10 12  1  0
 10 11  1  6
 12 14  1  0
 12 13  1  1
 14 23  1  0
 15 14  2  0
 16 17  1  0
 17 18  2  0
 18 19  1  0
 20 21  1  0
 20 19  2  0
 22 21  1  6
 22 24  1  0
 23 22  1  0
 24 25  2  0
 24 28  1  0
 26 20  1  0
 27 26  2  0
 27 17  1  0
M  END
$$$$
