VIY.pdb
     RDKit          3D

 28 28  0  0  1  0  0  0  0  0999 V2000
   26.3498  -25.8969  -18.1188 C   0  0  0  0  0  0  0  0  0  0  0  0
   26.3906  -24.7424  -17.1586 C   0  0  1  0  0  0  0  0  0  0  0  0
   26.1706  -25.2760  -15.7494 C   0  0  0  0  0  0  0  0  0  0  0  0
   27.7385  -24.0318  -17.1495 C   0  0  2  0  0  0  0  0  0  0  0  0
   28.7133  -25.0239  -16.7462 N   0  0  0  0  0  0  0  0  0  0  0  0
   27.6324  -22.9427  -16.1440 C   0  0  0  0  0  0  0  0  0  0  0  0
   28.0462  -23.1681  -14.9764 O   0  0  0  0  0  0  0  0  0  0  0  0
   28.8023  -17.9911  -17.4966 C   0  0  0  0  0  0  0  0  0  0  0  0
   28.5617  -19.1930  -16.6608 C   0  0  0  0  0  0  0  0  0  0  0  0
   27.1775  -19.3009  -16.0977 C   0  0  2  0  0  0  0  0  0  0  0  0
   26.7643  -18.1218  -15.2806 C   0  0  0  0  0  0  0  0  0  0  0  0
   26.9503  -20.6273  -15.3932 C   0  0  2  0  0  0  0  0  0  0  0  0
   27.0982  -21.6736  -16.4133 N   0  0  0  0  0  0  0  0  0  0  0  0
   25.5782  -20.7195  -14.8440 C   0  0  0  0  0  0  0  0  0  0  0  0
   24.6305  -20.8858  -15.6491 O   0  0  0  0  0  0  0  0  0  0  0  0
   18.2314  -19.7546  -10.1914 O   0  0  0  0  0  0  0  0  0  0  0  0
   19.5688  -19.8958  -10.5396 C   0  0  0  0  0  0  0  0  0  0  0  0
   20.1180  -21.1451  -10.7377 C   0  0  0  0  0  0  0  0  0  0  0  0
   21.4282  -21.3594  -11.0827 C   0  0  0  0  0  0  0  0  0  0  0  0
   22.2838  -20.2643  -11.2509 C   0  0  0  0  0  0  0  0  0  0  0  0
   23.7100  -20.4724  -11.5905 C   0  0  0  0  0  0  0  0  0  0  0  0
   23.8672  -20.6272  -13.0560 C   0  0  2  0  0  0  0  0  0  0  0  0
   25.2630  -20.6331  -13.4730 N   0  0  0  0  0  0  0  0  0  0  0  0
   23.0865  -19.6485  -13.8326 C   0  0  0  0  0  0  0  0  0  0  0  0
   21.9710  -19.9357  -14.2949 O   0  0  0  0  0  0  0  0  0  0  0  0
   21.7403  -19.0101  -11.0535 C   0  0  0  0  0  0  0  0  0  0  0  0
   20.4194  -18.8262  -10.7074 C   0  0  0  0  0  0  0  0  0  0  0  0
   23.5955  -18.3820  -14.0577 O   0  0  0  0  0  0  0  0  0  0  0  0
  2  1  1  6
  2  4  1  0
  3  2  1  0
  4  5  1  1
  6  4  1  0
  6 13  1  0
  7  6  2  0
  9  8  1  0
 10  9  1  0
 10 12  1  0
 10 11  1  1
 12 14  1  0
 12 13  1  6
 14 23  1  0
 15 14  2  0
 16 17  1  0
 17 18  2  0
 18 19  1  0
 20 21  1  0
 20 19  2  0
 22 21  1  1
 22 24  1  0
 23 22  1  0
 24 25  2  0
 24 28  1  0
 26 20  1  0
 27 26  2  0
 27 17  1  0
M  END
$$$$
