VIY.pdb
     RDKit          3D

 28 28  0  0  1  0  0  0  0  0999 V2000
   33.5655  -28.3908  -18.1844 C   0  0  0  0  0  0  0  0  0  0  0  0
   34.7420  -27.9712  -19.0188 C   0  0  1  0  0  0  0  0  0  0  0  0
   35.6821  -27.1455  -18.1508 C   0  0  0  0  0  0  0  0  0  0  0  0
   35.5515  -29.1557  -19.5326 C   0  0  2  0  0  0  0  0  0  0  0  0
   36.4190  -28.6313  -20.5669 N   0  0  0  0  0  0  0  0  0  0  0  0
   34.5717  -30.1229  -20.0921 C   0  0  0  0  0  0  0  0  0  0  0  0
   34.0717  -29.8778  -21.2213 O   0  0  0  0  0  0  0  0  0  0  0  0
   35.6715  -34.8014  -21.3529 C   0  0  0  0  0  0  0  0  0  0  0  0
   34.9630  -33.5148  -21.1448 C   0  0  0  0  0  0  0  0  0  0  0  0
   33.8498  -33.5644  -20.1431 C   0  0  2  0  0  0  0  0  0  0  0  0
   32.8952  -34.6921  -20.3566 C   0  0  0  0  0  0  0  0  0  0  0  0
   33.1625  -32.2189  -19.9874 C   0  0  2  0  0  0  0  0  0  0  0  0
   34.1664  -31.2971  -19.4398 N   0  0  0  0  0  0  0  0  0  0  0  0
   32.0409  -32.2932  -19.0233 C   0  0  0  0  0  0  0  0  0  0  0  0
   32.2521  -32.8389  -17.9136 O   0  0  0  0  0  0  0  0  0  0  0  0
   24.3591  -32.3665  -14.7997 O   0  0  0  0  0  0  0  0  0  0  0  0
   25.3697  -32.0825  -15.7095 C   0  0  0  0  0  0  0  0  0  0  0  0
   26.4192  -31.2578  -15.3634 C   0  0  0  0  0  0  0  0  0  0  0  0
   27.4500  -30.9347  -16.2087 C   0  0  0  0  0  0  0  0  0  0  0  0
   27.4654  -31.4580  -17.5070 C   0  0  0  0  0  0  0  0  0  0  0  0
   28.5500  -31.0967  -18.4481 C   0  0  0  0  0  0  0  0  0  0  0  0
   29.6857  -32.0375  -18.3017 C   0  0  2  0  0  0  0  0  0  0  0  0
   30.7471  -31.7906  -19.2684 N   0  0  0  0  0  0  0  0  0  0  0  0
   29.2759  -33.4525  -18.3149 C   0  0  0  0  0  0  0  0  0  0  0  0
   29.1414  -34.0742  -19.3807 O   0  0  0  0  0  0  0  0  0  0  0  0
   26.4169  -32.2845  -17.8605 C   0  0  0  0  0  0  0  0  0  0  0  0
   25.3950  -32.5912  -16.9887 C   0  0  0  0  0  0  0  0  0  0  0  0
   29.0333  -34.1121  -17.1233 O   0  0  0  0  0  0  0  0  0  0  0  0
  2  1  1  1
  2  4  1  0
  3  2  1  0
  4  5  1  6
  6  4  1  0
  6 13  1  0
  7  6  2  0
  9  8  1  0
 10  9  1  0
 10 12  1  0
 10 11  1  6
 12 14  1  0
 12 13  1  1
 14 23  1  0
 15 14  2  0
 16 17  1  0
 17 18  2  0
 18 19  1  0
 20 21  1  0
 20 19  2  0
 22 21  1  6
 22 24  1  0
 23 22  1  0
 24 25  2  0
 24 28  1  0
 26 20  1  0
 27 26  2  0
 27 17  1  0
M  END
$$$$
