VIY.pdb
     RDKit          3D

 28 28  0  0  1  0  0  0  0  0999 V2000
   27.8336  -18.9789  -16.9609 C   0  0  0  0  0  0  0  0  0  0  0  0
   26.7616  -19.5475  -16.0755 C   0  0  1  0  0  0  0  0  0  0  0  0
   25.6618  -20.1256  -16.9560 C   0  0  0  0  0  0  0  0  0  0  0  0
   27.2647  -20.6896  -15.2012 C   0  0  2  0  0  0  0  0  0  0  0  0
   27.7536  -21.7060  -16.1096 N   0  0  0  0  0  0  0  0  0  0  0  0
   26.0912  -21.1769  -14.4305 C   0  0  0  0  0  0  0  0  0  0  0  0
   25.4301  -22.1407  -14.8987 O   0  0  0  0  0  0  0  0  0  0  0  0
   26.5483  -21.1304   -9.1494 C   0  0  0  0  0  0  0  0  0  0  0  0
   26.1241  -21.4937  -10.5238 C   0  0  0  0  0  0  0  0  0  0  0  0
   24.8421  -20.8624  -10.9742 C   0  0  2  0  0  0  0  0  0  0  0  0
   23.6860  -21.1308  -10.0685 C   0  0  0  0  0  0  0  0  0  0  0  0
   24.5419  -21.1597  -12.4331 C   0  0  2  0  0  0  0  0  0  0  0  0
   25.6708  -20.6295  -13.2090 N   0  0  0  0  0  0  0  0  0  0  0  0
   23.3147  -20.4649  -12.8849 C   0  0  0  0  0  0  0  0  0  0  0  0
   23.2706  -19.2157  -12.7777 O   0  0  0  0  0  0  0  0  0  0  0  0
   20.5229  -25.1506  -17.9567 O   0  0  0  0  0  0  0  0  0  0  0  0
   20.6192  -23.9145  -17.3303 C   0  0  0  0  0  0  0  0  0  0  0  0
   21.8419  -23.4227  -16.9245 C   0  0  0  0  0  0  0  0  0  0  0  0
   22.0118  -22.2125  -16.3016 C   0  0  0  0  0  0  0  0  0  0  0  0
   20.8961  -21.4057  -16.0488 C   0  0  0  0  0  0  0  0  0  0  0  0
   21.0507  -20.1105  -15.3478 C   0  0  0  0  0  0  0  0  0  0  0  0
   21.0519  -20.3223  -13.8810 C   0  0  2  0  0  0  0  0  0  0  0  0
   22.1882  -21.1139  -13.4293 N   0  0  0  0  0  0  0  0  0  0  0  0
   19.7851  -20.8748  -13.3709 C   0  0  0  0  0  0  0  0  0  0  0  0
   19.7456  -21.9784  -12.8043 O   0  0  0  0  0  0  0  0  0  0  0  0
   19.6682  -21.8925  -16.4521 C   0  0  0  0  0  0  0  0  0  0  0  0
   19.5289  -23.1129  -17.0763 C   0  0  0  0  0  0  0  0  0  0  0  0
   18.6103  -20.1597  -13.5201 O   0  0  0  0  0  0  0  0  0  0  0  0
  2  1  1  6
  2  4  1  0
  3  2  1  0
  4  5  1  6
  6  4  1  0
  6 13  1  0
  7  6  2  0
  9  8  1  0
 10  9  1  0
 10 12  1  0
 10 11  1  1
 12 14  1  0
 12 13  1  6
 14 23  1  0
 15 14  2  0
 16 17  1  0
 17 18  2  0
 18 19  1  0
 20 21  1  0
 20 19  2  0
 22 21  1  6
 22 24  1  0
 23 22  1  0
 24 25  2  0
 24 28  1  0
 26 20  1  0
 27 26  2  0
 27 17  1  0
M  END
$$$$
