VIY.pdb
     RDKit          3D

 28 28  0  0  1  0  0  0  0  0999 V2000
   17.9336  -12.4228  -15.0312 C   0  0  0  0  0  0  0  0  0  0  0  0
   18.6591  -13.4786  -15.8157 C   0  0  1  0  0  0  0  0  0  0  0  0
   17.9246  -14.8013  -15.6428 C   0  0  0  0  0  0  0  0  0  0  0  0
   18.6850  -13.1871  -17.3111 C   0  0  2  0  0  0  0  0  0  0  0  0
   19.4948  -14.2279  -17.9096 N   0  0  0  0  0  0  0  0  0  0  0  0
   19.3217  -11.8535  -17.4682 C   0  0  0  0  0  0  0  0  0  0  0  0
   20.5791  -11.7902  -17.4653 O   0  0  0  0  0  0  0  0  0  0  0  0
   17.5512   -8.7650  -21.2651 C   0  0  0  0  0  0  0  0  0  0  0  0
   18.4417   -9.3462  -20.2306 C   0  0  0  0  0  0  0  0  0  0  0  0
   18.4096   -8.6450  -18.9069 C   0  0  2  0  0  0  0  0  0  0  0  0
   18.6913   -7.1814  -18.9919 C   0  0  0  0  0  0  0  0  0  0  0  0
   19.2527   -9.3577  -17.8636 C   0  0  2  0  0  0  0  0  0  0  0  0
   18.6083  -10.6550  -17.6200 N   0  0  0  0  0  0  0  0  0  0  0  0
   19.2720   -8.6132  -16.5837 C   0  0  0  0  0  0  0  0  0  0  0  0
   18.2252   -8.6011  -15.8923 O   0  0  0  0  0  0  0  0  0  0  0  0
   25.9450   -5.0149  -16.7567 O   0  0  0  0  0  0  0  0  0  0  0  0
   24.8855   -5.6364  -16.1079 C   0  0  0  0  0  0  0  0  0  0  0  0
   24.0961   -4.9386  -15.2182 C   0  0  0  0  0  0  0  0  0  0  0  0
   23.0353   -5.4866  -14.5430 C   0  0  0  0  0  0  0  0  0  0  0  0
   22.7098   -6.8326  -14.7483 C   0  0  0  0  0  0  0  0  0  0  0  0
   21.5899   -7.4547  -14.0057 C   0  0  0  0  0  0  0  0  0  0  0  0
   20.3273   -7.3025  -14.7667 C   0  0  2  0  0  0  0  0  0  0  0  0
   20.3909   -7.9144  -16.0872 N   0  0  0  0  0  0  0  0  0  0  0  0
   19.8625   -5.9071  -14.8514 C   0  0  0  0  0  0  0  0  0  0  0  0
   19.8177   -5.3079  -15.9374 O   0  0  0  0  0  0  0  0  0  0  0  0
   23.4966   -7.5375  -15.6378 C   0  0  0  0  0  0  0  0  0  0  0  0
   24.5564   -6.9593  -16.3018 C   0  0  0  0  0  0  0  0  0  0  0  0
   19.4656   -5.2410  -13.7057 O   0  0  0  0  0  0  0  0  0  0  0  0
  2  1  1  1
  2  4  1  0
  3  2  1  0
  4  5  1  6
  6  4  1  0
  6 13  1  0
  7  6  2  0
  9  8  1  0
 10  9  1  0
 10 12  1  0
 10 11  1  6
 12 14  1  0
 12 13  1  1
 14 23  1  0
 15 14  2  0
 16 17  1  0
 17 18  2  0
 18 19  1  0
 20 21  1  0
 20 19  2  0
 22 21  1  6
 22 24  1  0
 23 22  1  0
 24 25  2  0
 24 28  1  0
 26 20  1  0
 27 26  2  0
 27 17  1  0
M  END
$$$$
