KWS.pdb
     RDKit          3D

 30 31  0  0  1  0  0  0  0  0999 V2000
    7.3826  -15.9028   20.9468 N   0  0  0  0  0  0  0  0  0  0  0  0
    8.4092  -14.9055   20.8582 C   0  0  1  0  0  0  0  0  0  0  0  0
    7.8451  -13.5740   20.3983 C   0  0  0  0  0  0  0  0  0  0  0  0
    7.1920  -13.8319   19.0647 C   0  0  0  0  0  0  0  0  0  0  0  0
    8.1475  -13.6108   17.9303 C   0  0  0  0  0  0  0  0  0  0  0  0
    7.4759  -13.9042   16.6296 C   0  0  0  0  0  0  0  0  0  0  0  0
    8.4944  -13.8065   15.5888 N   0  0  0  0  0  0  0  0  0  0  0  0
    9.1404  -14.8159   22.1330 C   0  0  0  0  0  0  0  0  0  0  0  0
    9.9158  -13.8665   22.3307 O   0  0  0  0  0  0  0  0  0  0  0  0
    8.9417  -15.8260   23.1141 N   0  0  0  0  0  0  0  0  0  0  0  0
    9.6291  -15.8182   24.3774 C   0  0  1  0  0  0  0  0  0  0  0  0
    8.7990  -15.8984   25.5906 C   0  0  0  0  0  0  0  0  0  0  0  0
    7.5549  -15.1245   25.6147 C   0  0  0  0  0  0  0  0  0  0  0  0
    6.2394  -15.4257   25.4283 C   0  0  0  0  0  0  0  0  0  0  0  0
    5.4407  -14.3506   25.5655 N   0  0  0  0  0  0  0  0  0  0  0  0
    6.2576  -13.3124   25.8507 C   0  0  0  0  0  0  0  0  0  0  0  0
    5.9321  -11.9943   26.0828 C   0  0  0  0  0  0  0  0  0  0  0  0
    6.9675  -11.1260   26.3564 C   0  0  0  0  0  0  0  0  0  0  0  0
    8.2803  -11.5385   26.4007 C   0  0  0  0  0  0  0  0  0  0  0  0
    8.5861  -12.8641   26.1647 C   0  0  0  0  0  0  0  0  0  0  0  0
    7.5639  -13.7497   25.8891 C   0  0  0  0  0  0  0  0  0  0  0  0
   10.6426  -16.9241   24.3679 C   0  0  0  0  0  0  0  0  0  0  0  0
   10.2507  -18.1106   24.2769 O   0  0  0  0  0  0  0  0  0  0  0  0
   14.5677  -16.0215   24.8563 O   0  0  0  0  0  0  0  0  0  0  0  0
   14.3245  -17.1775   24.0914 C   0  0  0  0  0  0  0  0  0  0  0  0
   13.0110  -17.7995   24.5383 C   0  0  2  0  0  0  0  0  0  0  0  0
   12.0329  -16.7044   24.4560 N   0  0  0  0  0  0  0  0  0  0  0  0
   13.1721  -18.2780   25.9115 C   0  0  0  0  0  0  0  0  0  0  0  0
   14.0691  -19.2773   26.1948 O   0  0  0  0  0  0  0  0  0  0  0  0
   12.4888  -17.7728   26.8312 O   0  0  0  0  0  0  0  0  0  0  0  0
  2  1  1  1
  3  4  1  0
  3  2  1  0
  5  6  1  0
  5  4  1  0
  7  6  1  0
  8  2  1  0
  8  9  2  0
 10  8  1  0
 11 10  1  0
 11 12  1  1
 13 12  1  0
 14 13  2  0
 15 14  1  0
 16 21  2  0
 16 15  1  0
 17 16  1  0
 18 17  2  0
 18 19  1  0
 19 20  2  0
 20 21  1  0
 21 13  1  0
 22 11  1  0
 23 22  2  0
 25 24  1  0
 26 25  1  1
 26 28  1  0
 26 27  1  0
 27 22  1  0
 28 29  1  0
 30 28  2  0
M  END
$$$$
