KWS.pdb
     RDKit          3D

 30 31  0  0  1  0  0  0  0  0999 V2000
    6.9678  -16.6209   21.2000 N   0  0  0  0  0  0  0  0  0  0  0  0
    8.0214  -15.7542   20.7582 C   0  0  1  0  0  0  0  0  0  0  0  0
    7.4670  -14.5126   20.0846 C   0  0  0  0  0  0  0  0  0  0  0  0
    7.6472  -14.7219   18.6030 C   0  0  0  0  0  0  0  0  0  0  0  0
    7.8938  -13.4268   17.8886 C   0  0  0  0  0  0  0  0  0  0  0  0
    7.9603  -13.6584   16.4152 C   0  0  0  0  0  0  0  0  0  0  0  0
    8.2239  -12.3667   15.7889 N   0  0  0  0  0  0  0  0  0  0  0  0
    8.9302  -15.4504   21.8760 C   0  0  0  0  0  0  0  0  0  0  0  0
    9.8437  -14.6245   21.7176 O   0  0  0  0  0  0  0  0  0  0  0  0
    8.7405  -16.1150   23.1189 N   0  0  0  0  0  0  0  0  0  0  0  0
    9.6262  -15.9259   24.2362 C   0  0  1  0  0  0  0  0  0  0  0  0
    9.0150  -15.8890   25.5749 C   0  0  0  0  0  0  0  0  0  0  0  0
    7.6898  -15.2761   25.6998 C   0  0  0  0  0  0  0  0  0  0  0  0
    6.4116  -15.7364   25.5983 C   0  0  0  0  0  0  0  0  0  0  0  0
    5.4982  -14.7707   25.8113 N   0  0  0  0  0  0  0  0  0  0  0  0
    6.1989  -13.6422   26.0603 C   0  0  0  0  0  0  0  0  0  0  0  0
    5.7307  -12.3775   26.3404 C   0  0  0  0  0  0  0  0  0  0  0  0
    6.6679  -11.3903   26.5594 C   0  0  0  0  0  0  0  0  0  0  0  0
    8.0213  -11.6368   26.5052 C   0  0  0  0  0  0  0  0  0  0  0  0
    8.4708  -12.9113   26.2225 C   0  0  0  0  0  0  0  0  0  0  0  0
    7.5486  -13.9140   26.0002 C   0  0  0  0  0  0  0  0  0  0  0  0
   10.6874  -16.9847   24.1791 C   0  0  0  0  0  0  0  0  0  0  0  0
   10.3789  -18.1725   24.4313 O   0  0  0  0  0  0  0  0  0  0  0  0
   14.4496  -15.8552   23.4079 O   0  0  0  0  0  0  0  0  0  0  0  0
   14.2024  -17.1868   23.0254 C   0  0  0  0  0  0  0  0  0  0  0  0
   13.0820  -17.7492   23.8859 C   0  0  2  0  0  0  0  0  0  0  0  0
   12.0334  -16.7187   23.8527 N   0  0  0  0  0  0  0  0  0  0  0  0
   13.5987  -17.9509   25.2398 C   0  0  0  0  0  0  0  0  0  0  0  0
   14.5986  -18.8624   25.4696 O   0  0  0  0  0  0  0  0  0  0  0  0
   13.1264  -17.2885   26.1917 O   0  0  0  0  0  0  0  0  0  0  0  0
  2  1  1  1
  3  4  1  0
  3  2  1  0
  5  6  1  0
  5  4  1  0
  7  6  1  0
  8  2  1  0
  8  9  2  0
 10  8  1  0
 11 10  1  0
 11 12  1  1
 13 12  1  0
 14 13  2  0
 15 14  1  0
 16 21  2  0
 16 15  1  0
 17 16  1  0
 18 17  2  0
 18 19  1  0
 19 20  2  0
 20 21  1  0
 21 13  1  0
 22 11  1  0
 23 22  2  0
 25 24  1  0
 26 25  1  6
 26 28  1  0
 26 27  1  0
 27 22  1  0
 28 29  1  0
 30 28  2  0
M  END
$$$$
