KWS.pdb
     RDKit          3D

 30 31  0  0  1  0  0  0  0  0999 V2000
    6.8554  -16.6593   21.3203 N   0  0  0  0  0  0  0  0  0  0  0  0
    7.9933  -15.8927   20.9032 C   0  0  1  0  0  0  0  0  0  0  0  0
    7.5697  -14.6219   20.1902 C   0  0  0  0  0  0  0  0  0  0  0  0
    7.7097  -14.9003   18.7156 C   0  0  0  0  0  0  0  0  0  0  0  0
    8.0067  -13.6496   17.9436 C   0  0  0  0  0  0  0  0  0  0  0  0
    8.0763  -13.9527   16.4833 C   0  0  0  0  0  0  0  0  0  0  0  0
    8.4198  -12.7082   15.8024 N   0  0  0  0  0  0  0  0  0  0  0  0
    8.8851  -15.6451   22.0482 C   0  0  0  0  0  0  0  0  0  0  0  0
    9.8681  -14.8992   21.9108 O   0  0  0  0  0  0  0  0  0  0  0  0
    8.5991  -16.2711   23.2926 N   0  0  0  0  0  0  0  0  0  0  0  0
    9.4532  -16.1277   24.4410 C   0  0  1  0  0  0  0  0  0  0  0  0
    8.7949  -15.9937   25.7509 C   0  0  0  0  0  0  0  0  0  0  0  0
    7.5619  -15.2044   25.8140 C   0  0  0  0  0  0  0  0  0  0  0  0
    6.2339  -15.5012   25.7478 C   0  0  0  0  0  0  0  0  0  0  0  0
    5.4558  -14.4093   25.8690 N   0  0  0  0  0  0  0  0  0  0  0  0
    6.2994  -13.3642   26.0193 C   0  0  0  0  0  0  0  0  0  0  0  0
    6.0021  -12.0293   26.1827 C   0  0  0  0  0  0  0  0  0  0  0  0
    7.0615  -11.1572   26.3171 C   0  0  0  0  0  0  0  0  0  0  0  0
    8.3708  -11.5822   26.2918 C   0  0  0  0  0  0  0  0  0  0  0  0
    8.6482  -12.9245   26.1266 C   0  0  0  0  0  0  0  0  0  0  0  0
    7.6017  -13.8142   25.9904 C   0  0  0  0  0  0  0  0  0  0  0  0
   10.4146  -17.2790   24.4585 C   0  0  0  0  0  0  0  0  0  0  0  0
    9.9670  -18.4472   24.5267 O   0  0  0  0  0  0  0  0  0  0  0  0
   14.2891  -16.5952   23.7402 O   0  0  0  0  0  0  0  0  0  0  0  0
   13.8602  -17.9154   23.5084 C   0  0  0  0  0  0  0  0  0  0  0  0
   12.7495  -18.2547   24.4898 C   0  0  2  0  0  0  0  0  0  0  0  0
   11.8151  -17.1226   24.4010 N   0  0  0  0  0  0  0  0  0  0  0  0
   13.3350  -18.3685   25.8259 C   0  0  0  0  0  0  0  0  0  0  0  0
   12.9605  -17.5009   26.8211 O   0  0  0  0  0  0  0  0  0  0  0  0
   14.1805  -19.2617   26.0612 O   0  0  0  0  0  0  0  0  0  0  0  0
  2  1  1  1
  3  4  1  0
  3  2  1  0
  5  6  1  0
  5  4  1  0
  7  6  1  0
  8  2  1  0
  8  9  2  0
 10  8  1  0
 11 10  1  0
 11 12  1  1
 13 12  1  0
 14 13  2  0
 15 14  1  0
 16 21  2  0
 16 15  1  0
 17 16  1  0
 18 17  2  0
 18 19  1  0
 19 20  2  0
 20 21  1  0
 21 13  1  0
 22 11  1  0
 23 22  2  0
 25 24  1  0
 26 25  1  6
 26 28  1  0
 26 27  1  0
 27 22  1  0
 28 29  1  0
 30 28  2  0
M  END
$$$$
