KWS.pdb
     RDKit          3D

 30 31  0  0  1  0  0  0  0  0999 V2000
    6.8294  -18.1348   20.0688 N   0  0  0  0  0  0  0  0  0  0  0  0
    8.2154  -18.4958   19.9980 C   0  0  1  0  0  0  0  0  0  0  0  0
    8.6568  -18.7067   18.5616 C   0  0  0  0  0  0  0  0  0  0  0  0
    8.0820  -17.5589   17.7720 C   0  0  0  0  0  0  0  0  0  0  0  0
    8.5005  -17.6144   16.3331 C   0  0  0  0  0  0  0  0  0  0  0  0
    7.9373  -16.4485   15.5898 C   0  0  0  0  0  0  0  0  0  0  0  0
    9.0126  -15.9037   14.7670 N   0  0  0  0  0  0  0  0  0  0  0  0
    9.0346  -17.5058   20.7167 C   0  0  0  0  0  0  0  0  0  0  0  0
   10.1128  -17.1305   20.2287 O   0  0  0  0  0  0  0  0  0  0  0  0
    8.5696  -17.0000   21.9618 N   0  0  0  0  0  0  0  0  0  0  0  0
    9.3114  -16.0327   22.7252 C   0  0  1  0  0  0  0  0  0  0  0  0
    8.6269  -14.7704   23.0501 C   0  0  0  0  0  0  0  0  0  0  0  0
    7.7098  -14.7697   24.1929 C   0  0  0  0  0  0  0  0  0  0  0  0
    6.8909  -15.6988   24.7607 C   0  0  0  0  0  0  0  0  0  0  0  0
    6.2336  -15.2189   25.8331 N   0  0  0  0  0  0  0  0  0  0  0  0
    6.6336  -13.9356   25.9730 C   0  0  0  0  0  0  0  0  0  0  0  0
    6.2545  -13.0100   26.9199 C   0  0  0  0  0  0  0  0  0  0  0  0
    6.8195  -11.7549   26.8391 C   0  0  0  0  0  0  0  0  0  0  0  0
    7.7277  -11.4195   25.8601 C   0  0  0  0  0  0  0  0  0  0  0  0
    8.0946  -12.3615   24.9197 C   0  0  0  0  0  0  0  0  0  0  0  0
    7.5404  -13.6241   24.9831 C   0  0  0  0  0  0  0  0  0  0  0  0
    9.7985  -16.6967   23.9791 C   0  0  0  0  0  0  0  0  0  0  0  0
    9.0303  -17.4679   24.5994 O   0  0  0  0  0  0  0  0  0  0  0  0
   13.7552  -17.7375   26.6250 O   0  0  0  0  0  0  0  0  0  0  0  0
   13.1389  -17.0411   25.5687 C   0  0  0  0  0  0  0  0  0  0  0  0
   11.6480  -17.3392   25.5825 C   0  0  2  0  0  0  0  0  0  0  0  0
   11.0906  -16.5021   24.5096 N   0  0  0  0  0  0  0  0  0  0  0  0
   11.1157  -16.9636   26.8926 C   0  0  0  0  0  0  0  0  0  0  0  0
   11.3176  -17.7764   27.9798 O   0  0  0  0  0  0  0  0  0  0  0  0
   10.4741  -15.8960   27.0213 O   0  0  0  0  0  0  0  0  0  0  0  0
  2  1  1  6
  3  4  1  0
  3  2  1  0
  5  6  1  0
  5  4  1  0
  7  6  1  0
  8  2  1  0
  8  9  2  0
 10  8  1  0
 11 10  1  0
 11 12  1  1
 13 12  1  0
 14 13  2  0
 15 14  1  0
 16 21  2  0
 16 15  1  0
 17 16  1  0
 18 17  2  0
 18 19  1  0
 19 20  2  0
 20 21  1  0
 21 13  1  0
 22 11  1  0
 23 22  2  0
 25 24  1  0
 26 25  1  1
 26 28  1  0
 26 27  1  0
 27 22  1  0
 28 29  1  0
 30 28  2  0
M  END
$$$$
