KWS.pdb
     RDKit          3D

 30 31  0  0  1  0  0  0  0  0999 V2000
    6.0389  -15.4932   20.9097 N   0  0  0  0  0  0  0  0  0  0  0  0
    7.2478  -16.2637   20.9426 C   0  0  1  0  0  0  0  0  0  0  0  0
    7.8810  -16.3537   19.5665 C   0  0  0  0  0  0  0  0  0  0  0  0
    8.3508  -17.7774   19.4118 C   0  0  0  0  0  0  0  0  0  0  0  0
    9.1105  -17.9721   18.1337 C   0  0  0  0  0  0  0  0  0  0  0  0
    9.6515  -19.3620   18.0654 C   0  0  0  0  0  0  0  0  0  0  0  0
   10.2804  -19.5141   16.7571 N   0  0  0  0  0  0  0  0  0  0  0  0
    8.1611  -15.7307   21.9671 C   0  0  0  0  0  0  0  0  0  0  0  0
    8.6652  -14.6063   21.8152 O   0  0  0  0  0  0  0  0  0  0  0  0
    8.4477  -16.5218   23.1136 N   0  0  0  0  0  0  0  0  0  0  0  0
    9.3382  -16.0780   24.1522 C   0  0  1  0  0  0  0  0  0  0  0  0
    8.7782  -15.9629   25.5088 C   0  0  0  0  0  0  0  0  0  0  0  0
    7.5777  -15.1404   25.6805 C   0  0  0  0  0  0  0  0  0  0  0  0
    6.2387  -15.3917   25.6706 C   0  0  0  0  0  0  0  0  0  0  0  0
    5.5055  -14.2846   25.8919 N   0  0  0  0  0  0  0  0  0  0  0  0
    6.3908  -13.2760   26.0518 C   0  0  0  0  0  0  0  0  0  0  0  0
    6.1479  -11.9436   26.3020 C   0  0  0  0  0  0  0  0  0  0  0  0
    7.2418  -11.1135   26.4251 C   0  0  0  0  0  0  0  0  0  0  0  0
    8.5329  -11.5768   26.3063 C   0  0  0  0  0  0  0  0  0  0  0  0
    8.7556  -12.9160   26.0550 C   0  0  0  0  0  0  0  0  0  0  0  0
    7.6738  -13.7639   25.9284 C   0  0  0  0  0  0  0  0  0  0  0  0
   10.5372  -16.9795   24.1603 C   0  0  0  0  0  0  0  0  0  0  0  0
   10.4533  -18.1020   24.7105 O   0  0  0  0  0  0  0  0  0  0  0  0
   13.9271  -15.7022   22.4132 O   0  0  0  0  0  0  0  0  0  0  0  0
   13.7785  -17.1016   22.4060 C   0  0  0  0  0  0  0  0  0  0  0  0
   12.9481  -17.5174   23.6101 C   0  0  2  0  0  0  0  0  0  0  0  0
   11.7731  -16.6338   23.5755 N   0  0  0  0  0  0  0  0  0  0  0  0
   13.7485  -17.3053   24.8163 C   0  0  0  0  0  0  0  0  0  0  0  0
   13.3525  -16.3869   25.7562 O   0  0  0  0  0  0  0  0  0  0  0  0
   14.7983  -17.9650   24.9911 O   0  0  0  0  0  0  0  0  0  0  0  0
  2  1  1  6
  3  4  1  0
  3  2  1  0
  5  6  1  0
  5  4  1  0
  7  6  1  0
  8  2  1  0
  8  9  2  0
 10  8  1  0
 11 10  1  0
 11 12  1  1
 13 12  1  0
 14 13  2  0
 15 14  1  0
 16 21  2  0
 16 15  1  0
 17 16  1  0
 18 17  2  0
 18 19  1  0
 19 20  2  0
 20 21  1  0
 21 13  1  0
 22 11  1  0
 23 22  2  0
 25 24  1  0
 26 25  1  6
 26 28  1  0
 26 27  1  0
 27 22  1  0
 28 29  1  0
 30 28  2  0
M  END
$$$$
