KWS.pdb
     RDKit          3D

 30 31  0  0  1  0  0  0  0  0999 V2000
    7.2789  -16.0250   20.9580 N   0  0  0  0  0  0  0  0  0  0  0  0
    8.3116  -15.0420   20.8041 C   0  0  1  0  0  0  0  0  0  0  0  0
    7.7424  -13.7131   20.3429 C   0  0  0  0  0  0  0  0  0  0  0  0
    7.2225  -13.9400   18.9467 C   0  0  0  0  0  0  0  0  0  0  0  0
    8.1193  -13.3211   17.9165 C   0  0  0  0  0  0  0  0  0  0  0  0
    7.5971  -13.6025   16.5464 C   0  0  0  0  0  0  0  0  0  0  0  0
    8.5591  -13.0496   15.5982 N   0  0  0  0  0  0  0  0  0  0  0  0
    9.0997  -14.9363   22.0432 C   0  0  0  0  0  0  0  0  0  0  0  0
    9.9497  -14.0383   22.1556 O   0  0  0  0  0  0  0  0  0  0  0  0
    8.8687  -15.8720   23.0890 N   0  0  0  0  0  0  0  0  0  0  0  0
    9.6412  -15.8770   24.3022 C   0  0  1  0  0  0  0  0  0  0  0  0
    8.8943  -15.9230   25.5700 C   0  0  0  0  0  0  0  0  0  0  0  0
    7.6199  -15.2025   25.6341 C   0  0  0  0  0  0  0  0  0  0  0  0
    6.3157  -15.5513   25.4512 C   0  0  0  0  0  0  0  0  0  0  0  0
    5.4753  -14.5155   25.6340 N   0  0  0  0  0  0  0  0  0  0  0  0
    6.2523  -13.4548   25.9464 C   0  0  0  0  0  0  0  0  0  0  0  0
    5.8759  -12.1600   26.2275 C   0  0  0  0  0  0  0  0  0  0  0  0
    6.8780  -11.2595   26.5202 C   0  0  0  0  0  0  0  0  0  0  0  0
    8.2071  -11.6186   26.5363 C   0  0  0  0  0  0  0  0  0  0  0  0
    8.5641  -12.9215   26.2513 C   0  0  0  0  0  0  0  0  0  0  0  0
    7.5759  -13.8387   25.9558 C   0  0  0  0  0  0  0  0  0  0  0  0
   10.6173  -17.0139   24.2332 C   0  0  0  0  0  0  0  0  0  0  0  0
   10.1955  -18.1883   24.3451 O   0  0  0  0  0  0  0  0  0  0  0  0
   14.2376  -16.0030   23.5686 O   0  0  0  0  0  0  0  0  0  0  0  0
   14.2202  -17.4036   23.4336 C   0  0  0  0  0  0  0  0  0  0  0  0
   12.9649  -17.9492   24.0959 C   0  0  2  0  0  0  0  0  0  0  0  0
   12.0039  -16.8371   24.0462 N   0  0  0  0  0  0  0  0  0  0  0  0
   13.2942  -18.3177   25.4729 C   0  0  0  0  0  0  0  0  0  0  0  0
   14.1607  -19.3520   25.7236 O   0  0  0  0  0  0  0  0  0  0  0  0
   12.7833  -17.6860   26.4258 O   0  0  0  0  0  0  0  0  0  0  0  0
  2  1  1  1
  3  4  1  0
  3  2  1  0
  5  6  1  0
  5  4  1  0
  7  6  1  0
  8  2  1  0
  8  9  2  0
 10  8  1  0
 11 10  1  0
 11 12  1  1
 13 12  1  0
 14 13  2  0
 15 14  1  0
 16 21  2  0
 16 15  1  0
 17 16  1  0
 18 17  2  0
 18 19  1  0
 19 20  2  0
 20 21  1  0
 21 13  1  0
 22 11  1  0
 23 22  2  0
 25 24  1  0
 26 25  1  6
 26 28  1  0
 26 27  1  0
 27 22  1  0
 28 29  1  0
 30 28  2  0
M  END
$$$$
