KWS.pdb
     RDKit          3D

 30 31  0  0  1  0  0  0  0  0999 V2000
    7.6860  -16.4413   20.8309 N   0  0  0  0  0  0  0  0  0  0  0  0
    8.3632  -15.1850   20.9707 C   0  0  1  0  0  0  0  0  0  0  0  0
    7.4211  -14.0212   20.7242 C   0  0  0  0  0  0  0  0  0  0  0  0
    7.9569  -13.2946   19.5174 C   0  0  0  0  0  0  0  0  0  0  0  0
    7.3874  -13.8449   18.2440 C   0  0  0  0  0  0  0  0  0  0  0  0
    8.0174  -13.1738   17.0685 C   0  0  0  0  0  0  0  0  0  0  0  0
    7.5331  -13.8575   15.8734 N   0  0  0  0  0  0  0  0  0  0  0  0
    9.0400  -15.1163   22.2764 C   0  0  0  0  0  0  0  0  0  0  0  0
    9.7135  -14.1145   22.5670 O   0  0  0  0  0  0  0  0  0  0  0  0
    8.9071  -16.2065   23.1799 N   0  0  0  0  0  0  0  0  0  0  0  0
    9.5591  -16.2281   24.4617 C   0  0  1  0  0  0  0  0  0  0  0  0
    8.6930  -16.2408   25.6520 C   0  0  0  0  0  0  0  0  0  0  0  0
    7.4984  -15.3924   25.6319 C   0  0  0  0  0  0  0  0  0  0  0  0
    6.1807  -15.6052   25.3592 C   0  0  0  0  0  0  0  0  0  0  0  0
    5.4412  -14.4876   25.4883 N   0  0  0  0  0  0  0  0  0  0  0  0
    6.3005  -13.5117   25.8570 C   0  0  0  0  0  0  0  0  0  0  0  0
    6.0414  -12.1841   26.1167 C   0  0  0  0  0  0  0  0  0  0  0  0
    7.1089  -11.3909   26.4804 C   0  0  0  0  0  0  0  0  0  0  0  0
    8.3896  -11.8853   26.5856 C   0  0  0  0  0  0  0  0  0  0  0  0
    8.6288  -13.2190   26.3207 C   0  0  0  0  0  0  0  0  0  0  0  0
    7.5736  -14.0302   25.9551 C   0  0  0  0  0  0  0  0  0  0  0  0
   10.4991  -17.3968   24.4912 C   0  0  0  0  0  0  0  0  0  0  0  0
   10.0776  -18.5095   24.8838 O   0  0  0  0  0  0  0  0  0  0  0  0
   14.2785  -16.7639   23.4444 O   0  0  0  0  0  0  0  0  0  0  0  0
   13.8917  -18.0905   23.1779 C   0  0  0  0  0  0  0  0  0  0  0  0
   12.7584  -18.4737   24.1164 C   0  0  2  0  0  0  0  0  0  0  0  0
   11.8507  -17.3169   24.0965 N   0  0  0  0  0  0  0  0  0  0  0  0
   13.3200  -18.6971   25.4488 C   0  0  0  0  0  0  0  0  0  0  0  0
   14.1578  -19.7599   25.6768 O   0  0  0  0  0  0  0  0  0  0  0  0
   13.0348  -17.9146   26.3839 O   0  0  0  0  0  0  0  0  0  0  0  0
  2  1  1  1
  3  4  1  0
  3  2  1  0
  5  6  1  0
  5  4  1  0
  7  6  1  0
  8  2  1  0
  8  9  2  0
 10  8  1  0
 11 10  1  0
 11 12  1  1
 13 12  1  0
 14 13  2  0
 15 14  1  0
 16 21  2  0
 16 15  1  0
 17 16  1  0
 18 17  2  0
 18 19  1  0
 19 20  2  0
 20 21  1  0
 21 13  1  0
 22 11  1  0
 23 22  2  0
 25 24  1  0
 26 25  1  6
 26 28  1  0
 26 27  1  0
 27 22  1  0
 28 29  1  0
 30 28  2  0
M  END
$$$$
