TCD.pdb
     RDKit          3D

 22 21  0  0  1  0  0  0  0  0999 V2000
    8.6931  -19.2826   19.0951 C   0  0  0  0  0  0  0  0  0  0  0  0
    9.3154  -18.4515   18.0028 C   0  0  1  0  0  0  0  0  0  0  0  0
    9.5402  -19.2523   16.9029 O   0  0  0  0  0  0  0  0  0  0  0  0
    8.3958  -17.2813   17.6317 C   0  0  2  0  0  0  0  0  0  0  0  0
    8.6997  -16.7901   16.3161 N   0  0  0  0  0  0  0  0  0  0  0  0
    8.5069  -16.2085   18.6427 C   0  0  0  0  0  0  0  0  0  0  0  0
    9.4404  -15.3524   18.5456 O   0  0  0  0  0  0  0  0  0  0  0  0
    7.6275  -16.0565   19.7429 N   0  0  0  0  0  0  0  0  0  0  0  0
    7.8294  -15.0397   20.7735 C   0  0  1  0  0  0  0  0  0  0  0  0
    6.5401  -14.8271   21.5555 C   0  0  0  0  0  0  0  0  0  0  0  0
    6.8087  -13.8660   23.0582 S   0  0  0  0  0  0  0  0  0  0  0  0
    8.9275  -15.3860   21.6803 C   0  0  0  0  0  0  0  0  0  0  0  0
    9.3348  -14.6284   22.6020 O   0  0  0  0  0  0  0  0  0  0  0  0
    9.5714  -16.6330   21.5216 N   0  0  0  0  0  0  0  0  0  0  0  0
   10.6875  -17.0062   22.3887 C   0  0  1  0  0  0  0  0  0  0  0  0
   10.2755  -17.9959   23.4264 C   0  0  0  0  0  0  0  0  0  0  0  0
   11.4507  -18.4000   24.2254 C   0  0  0  0  0  0  0  0  0  0  0  0
   12.6204  -17.9589   23.9924 O   0  0  0  0  0  0  0  0  0  0  0  0
   11.7244  -17.5888   21.5282 C   0  0  0  0  0  0  0  0  0  0  0  0
   11.4207  -18.0675   20.2756 O   0  0  0  0  0  0  0  0  0  0  0  0
   11.3713  -19.2933   25.2946 O   0  0  0  0  0  0  0  0  0  0  0  0
   12.8984  -17.6551   21.9297 O   0  0  0  0  0  0  0  0  0  0  0  0
  2  1  1  1
  2  4  1  0
  3  2  1  0
  4  5  1  6
  6  8  1  0
  6  4  1  0
  7  6  2  0
  9  8  1  0
  9 12  1  0
  9 10  1  1
 11 10  1  0
 12 14  1  0
 12 13  2  0
 14 15  1  0
 15 19  1  0
 15 16  1  1
 16 17  1  0
 17 21  1  0
 18 17  2  0
 19 20  1  0
 22 19  2  0
M  END
$$$$
