TCD.pdb
     RDKit          3D

 22 21  0  0  1  0  0  0  0  0999 V2000
   12.8116  -20.5674   17.1756 C   0  0  0  0  0  0  0  0  0  0  0  0
   13.2300  -19.5139   18.1687 C   0  0  1  0  0  0  0  0  0  0  0  0
   14.2585  -18.7713   17.6279 O   0  0  0  0  0  0  0  0  0  0  0  0
   12.0434  -18.6068   18.5178 C   0  0  2  0  0  0  0  0  0  0  0  0
   11.5480  -17.9398   17.3457 N   0  0  0  0  0  0  0  0  0  0  0  0
   12.4369  -17.6356   19.5605 C   0  0  0  0  0  0  0  0  0  0  0  0
   12.4492  -16.3952   19.2866 O   0  0  0  0  0  0  0  0  0  0  0  0
   12.8119  -17.9911   20.8796 N   0  0  0  0  0  0  0  0  0  0  0  0
   13.1956  -16.9973   21.8805 C   0  0  1  0  0  0  0  0  0  0  0  0
   12.0113  -16.6847   22.7853 C   0  0  0  0  0  0  0  0  0  0  0  0
   12.4706  -15.6050   24.1554 S   0  0  0  0  0  0  0  0  0  0  0  0
   14.3469  -17.4336   22.6758 C   0  0  0  0  0  0  0  0  0  0  0  0
   14.3879  -18.5287   23.2991 O   0  0  0  0  0  0  0  0  0  0  0  0
   15.4762  -16.5892   22.7553 N   0  0  0  0  0  0  0  0  0  0  0  0
   16.6381  -16.9790   23.5522 C   0  0  1  0  0  0  0  0  0  0  0  0
   17.8449  -16.1748   23.2016 C   0  0  0  0  0  0  0  0  0  0  0  0
   18.2603  -16.4758   21.8161 C   0  0  0  0  0  0  0  0  0  0  0  0
   18.2673  -17.6574   21.3458 O   0  0  0  0  0  0  0  0  0  0  0  0
   16.2860  -16.7612   24.9606 C   0  0  0  0  0  0  0  0  0  0  0  0
   17.1518  -17.1088   25.9705 O   0  0  0  0  0  0  0  0  0  0  0  0
   18.6754  -15.4925   20.9171 O   0  0  0  0  0  0  0  0  0  0  0  0
   15.1898  -16.2556   25.2549 O   0  0  0  0  0  0  0  0  0  0  0  0
  2  1  1  6
  2  4  1  0
  3  2  1  0
  4  5  1  6
  6  8  1  0
  6  4  1  0
  7  6  2  0
  9  8  1  0
  9 12  1  0
  9 10  1  1
 11 10  1  0
 12 14  1  0
 12 13  2  0
 14 15  1  0
 15 19  1  0
 15 16  1  6
 16 17  1  0
 17 21  1  0
 18 17  2  0
 19 20  1  0
 22 19  2  0
M  END
$$$$
