TCD.pdb
     RDKit          3D

 22 21  0  0  1  0  0  0  0  0999 V2000
    7.3045  -19.0982   15.8380 C   0  0  0  0  0  0  0  0  0  0  0  0
    8.0093  -18.3335   16.9288 C   0  0  1  0  0  0  0  0  0  0  0  0
    9.1676  -19.0008   17.2677 O   0  0  0  0  0  0  0  0  0  0  0  0
    8.3319  -16.9090   16.4604 C   0  0  2  0  0  0  0  0  0  0  0  0
    9.1828  -16.9322   15.3029 N   0  0  0  0  0  0  0  0  0  0  0  0
    8.9479  -16.1399   17.5625 C   0  0  0  0  0  0  0  0  0  0  0  0
   10.2027  -15.9421   17.5614 O   0  0  0  0  0  0  0  0  0  0  0  0
    8.2264  -15.5903   18.6508 N   0  0  0  0  0  0  0  0  0  0  0  0
    8.8804  -14.8669   19.7397 C   0  0  1  0  0  0  0  0  0  0  0  0
    7.8466  -14.0908   20.5445 C   0  0  0  0  0  0  0  0  0  0  0  0
    6.8871  -12.9659   19.5110 S   0  0  0  0  0  0  0  0  0  0  0  0
    9.6441  -15.7617   20.6139 C   0  0  0  0  0  0  0  0  0  0  0  0
    9.3928  -16.9903   20.7434 O   0  0  0  0  0  0  0  0  0  0  0  0
   10.7212  -15.2292   21.3562 N   0  0  0  0  0  0  0  0  0  0  0  0
   11.5589  -16.1021   22.1766 C   0  0  1  0  0  0  0  0  0  0  0  0
   12.9528  -15.5829   22.2922 C   0  0  0  0  0  0  0  0  0  0  0  0
   13.7410  -16.4618   23.1804 C   0  0  0  0  0  0  0  0  0  0  0  0
   13.5358  -17.7143   23.2603 O   0  0  0  0  0  0  0  0  0  0  0  0
   10.9395  -16.1673   23.5058 C   0  0  0  0  0  0  0  0  0  0  0  0
   11.2437  -17.1826   24.3816 O   0  0  0  0  0  0  0  0  0  0  0  0
   14.7689  -15.9903   23.9982 O   0  0  0  0  0  0  0  0  0  0  0  0
   10.1255  -15.2955   23.8542 O   0  0  0  0  0  0  0  0  0  0  0  0
  2  1  1  6
  2  4  1  0
  3  2  1  0
  4  5  1  6
  6  8  1  0
  6  4  1  0
  7  6  2  0
  9  8  1  0
  9 12  1  0
  9 10  1  1
 11 10  1  0
 12 14  1  0
 12 13  2  0
 14 15  1  0
 15 19  1  0
 15 16  1  1
 16 17  1  0
 17 21  1  0
 18 17  2  0
 19 20  1  0
 22 19  2  0
M  END
$$$$
