TCD.pdb
     RDKit          3D

 22 21  0  0  1  0  0  0  0  0999 V2000
    7.2459  -16.0953   19.5163 C   0  0  0  0  0  0  0  0  0  0  0  0
    7.9443  -14.8775   18.9682 C   0  0  1  0  0  0  0  0  0  0  0  0
    7.6037  -14.7248   17.6407 O   0  0  0  0  0  0  0  0  0  0  0  0
    7.5491  -13.6294   19.7674 C   0  0  2  0  0  0  0  0  0  0  0  0
    7.8550  -12.4337   19.0319 N   0  0  0  0  0  0  0  0  0  0  0  0
    8.2224  -13.6355   21.0835 C   0  0  0  0  0  0  0  0  0  0  0  0
    9.4902  -13.5752   21.1372 O   0  0  0  0  0  0  0  0  0  0  0  0
    7.5439  -13.7051   22.3252 N   0  0  0  0  0  0  0  0  0  0  0  0
    8.2030  -14.1388   23.5557 C   0  0  1  0  0  0  0  0  0  0  0  0
    7.1998  -14.1706   24.7009 C   0  0  0  0  0  0  0  0  0  0  0  0
    6.3958  -12.5741   24.9430 S   0  0  0  0  0  0  0  0  0  0  0  0
    8.8479  -15.4461   23.4029 C   0  0  0  0  0  0  0  0  0  0  0  0
    8.8840  -16.0820   22.3149 O   0  0  0  0  0  0  0  0  0  0  0  0
    9.4648  -16.0345   24.5290 N   0  0  0  0  0  0  0  0  0  0  0  0
   10.5931  -16.9488   24.3624 C   0  0  1  0  0  0  0  0  0  0  0  0
   11.7095  -16.3175   23.6001 C   0  0  0  0  0  0  0  0  0  0  0  0
   12.8595  -17.2429   23.5407 C   0  0  0  0  0  0  0  0  0  0  0  0
   12.7188  -18.5038   23.4525 O   0  0  0  0  0  0  0  0  0  0  0  0
   11.0525  -17.3144   25.7079 C   0  0  0  0  0  0  0  0  0  0  0  0
   11.4931  -18.5867   25.9860 O   0  0  0  0  0  0  0  0  0  0  0  0
   14.1857  -16.8097   23.5758 O   0  0  0  0  0  0  0  0  0  0  0  0
   11.0463  -16.4673   26.6168 O   0  0  0  0  0  0  0  0  0  0  0  0
  2  1  1  1
  2  4  1  0
  3  2  1  0
  4  5  1  6
  6  8  1  0
  6  4  1  0
  7  6  2  0
  9  8  1  0
  9 12  1  0
  9 10  1  1
 11 10  1  0
 12 14  1  0
 12 13  2  0
 14 15  1  0
 15 19  1  0
 15 16  1  6
 16 17  1  0
 17 21  1  0
 18 17  2  0
 19 20  1  0
 22 19  2  0
M  END
$$$$
