TCD.pdb
     RDKit          3D

 22 21  0  0  1  0  0  0  0  0999 V2000
    6.6864  -19.4581   17.1710 C   0  0  0  0  0  0  0  0  0  0  0  0
    7.4961  -18.6717   18.1695 C   0  0  1  0  0  0  0  0  0  0  0  0
    8.6451  -19.3737   18.4673 O   0  0  0  0  0  0  0  0  0  0  0  0
    7.8468  -17.2898   17.6036 C   0  0  2  0  0  0  0  0  0  0  0  0
    8.6155  -17.4124   16.3960 N   0  0  0  0  0  0  0  0  0  0  0  0
    8.5685  -16.4941   18.6192 C   0  0  0  0  0  0  0  0  0  0  0  0
    9.8279  -16.6177   18.7309 O   0  0  0  0  0  0  0  0  0  0  0  0
    7.9466  -15.5777   19.5027 N   0  0  0  0  0  0  0  0  0  0  0  0
    8.6723  -14.9179   20.5865 C   0  0  1  0  0  0  0  0  0  0  0  0
    7.8194  -13.8071   21.1842 C   0  0  0  0  0  0  0  0  0  0  0  0
    7.3997  -12.5440   19.9666 S   0  0  0  0  0  0  0  0  0  0  0  0
    9.0853  -15.8634   21.6275 C   0  0  0  0  0  0  0  0  0  0  0  0
    8.3838  -16.8442   21.9955 O   0  0  0  0  0  0  0  0  0  0  0  0
   10.3343  -15.6746   22.2592 N   0  0  0  0  0  0  0  0  0  0  0  0
   10.9572  -16.7637   23.0093 C   0  0  1  0  0  0  0  0  0  0  0  0
   11.1662  -17.9724   22.1599 C   0  0  0  0  0  0  0  0  0  0  0  0
   11.8183  -19.0340   22.9539 C   0  0  0  0  0  0  0  0  0  0  0  0
   11.8135  -19.0374   24.2256 O   0  0  0  0  0  0  0  0  0  0  0  0
   12.2501  -16.2666   23.4953 C   0  0  0  0  0  0  0  0  0  0  0  0
   12.8713  -16.8440   24.5775 O   0  0  0  0  0  0  0  0  0  0  0  0
   12.4878  -20.1129   22.3747 O   0  0  0  0  0  0  0  0  0  0  0  0
   12.7998  -15.3085   22.9263 O   0  0  0  0  0  0  0  0  0  0  0  0
  2  1  1  6
  2  4  1  0
  3  2  1  0
  4  5  1  6
  6  8  1  0
  6  4  1  0
  7  6  2  0
  9  8  1  0
  9 12  1  0
  9 10  1  1
 11 10  1  0
 12 14  1  0
 12 13  2  0
 14 15  1  0
 15 19  1  0
 15 16  1  6
 16 17  1  0
 17 21  1  0
 18 17  2  0
 19 20  1  0
 22 19  2  0
M  END
$$$$
