TCD.pdb
     RDKit          3D

 22 21  0  0  1  0  0  0  0  0999 V2000
    7.6026  -16.3180   18.7788 C   0  0  0  0  0  0  0  0  0  0  0  0
    8.2387  -15.1198   18.1223 C   0  0  1  0  0  0  0  0  0  0  0  0
    7.8285  -15.0588   16.8071 O   0  0  0  0  0  0  0  0  0  0  0  0
    7.8488  -13.8345   18.8630 C   0  0  2  0  0  0  0  0  0  0  0  0
    8.2824  -12.6740   18.1354 N   0  0  0  0  0  0  0  0  0  0  0  0
    8.4077  -13.8483   20.2315 C   0  0  0  0  0  0  0  0  0  0  0  0
    9.6358  -13.5754   20.4078 O   0  0  0  0  0  0  0  0  0  0  0  0
    7.6583  -14.1505   21.3951 N   0  0  0  0  0  0  0  0  0  0  0  0
    8.2642  -14.2128   22.7239 C   0  0  1  0  0  0  0  0  0  0  0  0
    7.2149  -13.9249   23.7892 C   0  0  0  0  0  0  0  0  0  0  0  0
    7.8502  -14.1903   25.4565 S   0  0  0  0  0  0  0  0  0  0  0  0
    8.9081  -15.5053   22.9748 C   0  0  0  0  0  0  0  0  0  0  0  0
    8.3277  -16.6139   22.8215 O   0  0  0  0  0  0  0  0  0  0  0  0
   10.2508  -15.5212   23.4128 N   0  0  0  0  0  0  0  0  0  0  0  0
   10.9374  -16.7896   23.6510 C   0  0  1  0  0  0  0  0  0  0  0  0
   12.4204  -16.6265   23.6421 C   0  0  0  0  0  0  0  0  0  0  0  0
   12.9281  -16.7510   22.2603 C   0  0  0  0  0  0  0  0  0  0  0  0
   14.1606  -16.6296   21.9711 O   0  0  0  0  0  0  0  0  0  0  0  0
   10.4974  -17.2767   24.9640 C   0  0  0  0  0  0  0  0  0  0  0  0
   10.2865  -18.6164   25.1898 O   0  0  0  0  0  0  0  0  0  0  0  0
   12.1002  -17.0111   21.1674 O   0  0  0  0  0  0  0  0  0  0  0  0
   10.3095  -16.4728   25.8926 O   0  0  0  0  0  0  0  0  0  0  0  0
  2  1  1  1
  2  4  1  0
  3  2  1  0
  4  5  1  6
  6  8  1  0
  6  4  1  0
  7  6  2  0
  9  8  1  0
  9 12  1  0
  9 10  1  1
 11 10  1  0
 12 14  1  0
 12 13  2  0
 14 15  1  0
 15 19  1  0
 15 16  1  1
 16 17  1  0
 17 21  1  0
 18 17  2  0
 19 20  1  0
 22 19  2  0
M  END
$$$$
