TCD.pdb
     RDKit          3D

 22 21  0  0  1  0  0  0  0  0999 V2000
    6.1833  -16.5781   20.4310 C   0  0  0  0  0  0  0  0  0  0  0  0
    6.9725  -16.2838   21.6807 C   0  0  1  0  0  0  0  0  0  0  0  0
    7.8643  -17.3125   21.9003 O   0  0  0  0  0  0  0  0  0  0  0  0
    7.7191  -14.9514   21.5401 C   0  0  2  0  0  0  0  0  0  0  0  0
    8.6562  -15.0031   20.4522 N   0  0  0  0  0  0  0  0  0  0  0  0
    8.3927  -14.6107   22.8112 C   0  0  0  0  0  0  0  0  0  0  0  0
    9.6172  -14.9097   22.9694 O   0  0  0  0  0  0  0  0  0  0  0  0
    7.7603  -13.9577   23.8978 N   0  0  0  0  0  0  0  0  0  0  0  0
    8.4074  -13.7937   25.1982 C   0  0  1  0  0  0  0  0  0  0  0  0
    7.5506  -12.9149   26.0995 C   0  0  0  0  0  0  0  0  0  0  0  0
    8.2643  -12.7322   27.7461 S   0  0  0  0  0  0  0  0  0  0  0  0
    8.6775  -15.0812   25.8445 C   0  0  0  0  0  0  0  0  0  0  0  0
    7.8174  -15.9954   25.9621 O   0  0  0  0  0  0  0  0  0  0  0  0
    9.9673  -15.3209   26.3675 N   0  0  0  0  0  0  0  0  0  0  0  0
   10.2762  -16.5893   27.0251 C   0  0  1  0  0  0  0  0  0  0  0  0
   11.4214  -17.2873   26.3715 C   0  0  0  0  0  0  0  0  0  0  0  0
   11.7310  -18.5326   27.1038 C   0  0  0  0  0  0  0  0  0  0  0  0
   10.9895  -18.9806   28.0348 O   0  0  0  0  0  0  0  0  0  0  0  0
   10.6119  -16.2799   28.4202 C   0  0  0  0  0  0  0  0  0  0  0  0
   11.5242  -15.2990   28.7300 O   0  0  0  0  0  0  0  0  0  0  0  0
   12.8558  -19.3132   26.8333 O   0  0  0  0  0  0  0  0  0  0  0  0
   10.0682  -16.9095   29.3433 O   0  0  0  0  0  0  0  0  0  0  0  0
  2  1  1  6
  2  4  1  0
  3  2  1  0
  4  5  1  6
  6  8  1  0
  6  4  1  0
  7  6  2  0
  9  8  1  0
  9 12  1  0
  9 10  1  1
 11 10  1  0
 12 14  1  0
 12 13  2  0
 14 15  1  0
 15 19  1  0
 15 16  1  6
 16 17  1  0
 17 21  1  0
 18 17  2  0
 19 20  1  0
 22 19  2  0
M  END
$$$$
