TCD.pdb
     RDKit          3D

 22 21  0  0  1  0  0  0  0  0999 V2000
    6.5498  -13.9553   18.9882 C   0  0  0  0  0  0  0  0  0  0  0  0
    7.0578  -14.2201   20.3821 C   0  0  1  0  0  0  0  0  0  0  0  0
    8.0530  -15.1728   20.3231 O   0  0  0  0  0  0  0  0  0  0  0  0
    7.5932  -12.9275   21.0106 C   0  0  2  0  0  0  0  0  0  0  0  0
    8.6350  -12.3591   20.2007 N   0  0  0  0  0  0  0  0  0  0  0  0
    8.0673  -13.1906   22.3858 C   0  0  0  0  0  0  0  0  0  0  0  0
    9.2724  -13.5456   22.5742 O   0  0  0  0  0  0  0  0  0  0  0  0
    7.2589  -13.0738   23.5433 N   0  0  0  0  0  0  0  0  0  0  0  0
    7.6826  -13.5746   24.8496 C   0  0  1  0  0  0  0  0  0  0  0  0
    6.6226  -13.2609   25.8968 C   0  0  0  0  0  0  0  0  0  0  0  0
    6.6499  -11.5264   26.3915 S   0  0  0  0  0  0  0  0  0  0  0  0
    7.9661  -15.0123   24.8220 C   0  0  0  0  0  0  0  0  0  0  0  0
    7.4960  -15.7984   23.9557 O   0  0  0  0  0  0  0  0  0  0  0  0
    8.8098  -15.5570   25.8152 N   0  0  0  0  0  0  0  0  0  0  0  0
    9.5155  -16.8152   25.5792 C   0  0  1  0  0  0  0  0  0  0  0  0
   10.4423  -16.7200   24.4139 C   0  0  0  0  0  0  0  0  0  0  0  0
   11.2751  -17.9379   24.3375 C   0  0  0  0  0  0  0  0  0  0  0  0
   10.7899  -19.1069   24.4611 O   0  0  0  0  0  0  0  0  0  0  0  0
   10.2763  -17.1165   26.7978 C   0  0  0  0  0  0  0  0  0  0  0  0
   10.3780  -18.4034   27.2711 O   0  0  0  0  0  0  0  0  0  0  0  0
   12.6538  -17.9032   24.1241 O   0  0  0  0  0  0  0  0  0  0  0  0
   10.8409  -16.2003   27.4190 O   0  0  0  0  0  0  0  0  0  0  0  0
  2  1  1  6
  2  4  1  0
  3  2  1  0
  4  5  1  6
  6  8  1  0
  6  4  1  0
  7  6  2  0
  9  8  1  0
  9 12  1  0
  9 10  1  1
 11 10  1  0
 12 14  1  0
 12 13  2  0
 14 15  1  0
 15 19  1  0
 15 16  1  6
 16 17  1  0
 17 21  1  0
 18 17  2  0
 19 20  1  0
 22 19  2  0
M  END
$$$$
