MYM.pdb
     RDKit          3D

 29 29  0  0  1  0  0  0  0  0999 V2000
   36.5622  -30.1394  -21.1319 C   0  0  0  0  0  0  0  0  0  0  0  0
   34.8804  -30.7629  -21.0623 S   0  0  0  0  0  0  0  0  0  0  0  0
   33.9664  -29.9305  -19.7477 C   0  0  0  0  0  0  0  0  0  0  0  0
   32.4990  -30.2997  -19.8351 C   0  0  0  0  0  0  0  0  0  0  0  0
   31.6640  -29.4415  -18.9067 C   0  0  2  0  0  0  0  0  0  0  0  0
   32.5462  -28.4885  -18.2422 N   0  0  0  0  0  0  0  0  0  0  0  0
   30.9909  -30.2411  -17.8671 C   0  0  0  0  0  0  0  0  0  0  0  0
   31.2087  -30.0362  -16.6246 O   0  0  0  0  0  0  0  0  0  0  0  0
   25.0241  -33.1881  -12.5756 O   0  0  0  0  0  0  0  0  0  0  0  0
   25.8673  -32.6405  -13.5350 C   0  0  0  0  0  0  0  0  0  0  0  0
   27.1956  -32.4793  -13.2373 C   0  0  0  0  0  0  0  0  0  0  0  0
   28.0272  -31.9392  -14.1836 C   0  0  0  0  0  0  0  0  0  0  0  0
   27.5470  -31.5575  -15.4253 C   0  0  0  0  0  0  0  0  0  0  0  0
   28.5179  -30.9799  -16.3864 C   0  0  0  0  0  0  0  0  0  0  0  0
   29.3544  -32.0202  -17.0968 C   0  0  2  0  0  0  0  0  0  0  0  0
   30.0666  -31.2806  -18.1517 N   0  0  0  0  0  0  0  0  0  0  0  0
   28.5732  -33.1289  -17.6678 C   0  0  0  0  0  0  0  0  0  0  0  0
   28.2737  -33.0032  -18.9062 O   0  0  0  0  0  0  0  0  0  0  0  0
   26.2073  -31.7149  -15.7392 C   0  0  0  0  0  0  0  0  0  0  0  0
   25.3780  -32.2570  -14.7868 C   0  0  0  0  0  0  0  0  0  0  0  0
   27.8486  -37.1146  -22.7028 C   0  0  0  0  0  0  0  0  0  0  0  0
   28.7340  -36.9792  -21.1214 S   0  0  0  0  0  0  0  0  0  0  0  0
   27.6724  -36.0821  -19.9291 C   0  0  0  0  0  0  0  0  0  0  0  0
   28.3894  -35.9041  -18.6418 C   0  0  0  0  0  0  0  0  0  0  0  0
   27.4704  -35.3413  -17.5803 C   0  0  2  0  0  0  0  0  0  0  0  0
   28.1774  -34.2518  -16.9187 N   0  0  0  0  0  0  0  0  0  0  0  0
   27.2050  -36.3822  -16.5696 C   0  0  0  0  0  0  0  0  0  0  0  0
   27.5669  -36.1094  -15.2358 O   0  0  0  0  0  0  0  0  0  0  0  0
   26.6766  -37.4909  -16.8388 O   0  0  0  0  0  0  0  0  0  0  0  0
  1  2  1  0
  3  4  1  0
  3  2  1  0
  5  4  1  0
  5  6  1  1
  7  5  1  0
  8  7  2  0
  9 10  1  0
 10 11  2  0
 10 20  1  0
 11 12  1  0
 12 13  2  0
 13 14  1  0
 15 14  1  6
 15 16  1  0
 16  7  1  0
 17 15  1  0
 17 26  1  0
 18 17  2  0
 19 13  1  0
 20 19  2  0
 22 21  1  0
 23 22  1  0
 24 23  1  0
 25 24  1  6
 25 26  1  0
 27 25  1  0
 27 28  1  0
 29 27  2  0
M  END
$$$$
