MYM.pdb
     RDKit          3D

 29 29  0  0  1  0  0  0  0  0999 V2000
   35.4160  -28.6997  -23.7922 C   0  0  0  0  0  0  0  0  0  0  0  0
   34.1265  -27.4583  -23.9273 S   0  0  0  0  0  0  0  0  0  0  0  0
   33.7341  -26.7944  -22.2958 C   0  0  0  0  0  0  0  0  0  0  0  0
   33.3278  -27.9240  -21.3705 C   0  0  0  0  0  0  0  0  0  0  0  0
   32.4298  -27.4222  -20.2581 C   0  0  2  0  0  0  0  0  0  0  0  0
   33.2316  -26.6094  -19.3499 N   0  0  0  0  0  0  0  0  0  0  0  0
   31.8392  -28.5266  -19.4806 C   0  0  0  0  0  0  0  0  0  0  0  0
   32.2607  -28.8159  -18.3093 O   0  0  0  0  0  0  0  0  0  0  0  0
   27.6720  -25.3591  -16.2631 O   0  0  0  0  0  0  0  0  0  0  0  0
   27.9308  -26.5220  -16.9788 C   0  0  0  0  0  0  0  0  0  0  0  0
   28.1158  -27.6953  -16.2947 C   0  0  0  0  0  0  0  0  0  0  0  0
   28.3710  -28.8422  -17.0006 C   0  0  0  0  0  0  0  0  0  0  0  0
   28.4439  -28.8307  -18.3836 C   0  0  0  0  0  0  0  0  0  0  0  0
   28.7269  -30.1177  -19.0645 C   0  0  0  0  0  0  0  0  0  0  0  0
   30.2018  -30.4377  -19.1599 C   0  0  2  0  0  0  0  0  0  0  0  0
   30.7784  -29.3418  -19.9558 N   0  0  0  0  0  0  0  0  0  0  0  0
   30.4928  -31.7430  -19.7737 C   0  0  0  0  0  0  0  0  0  0  0  0
   30.6328  -31.7276  -21.0463 O   0  0  0  0  0  0  0  0  0  0  0  0
   28.2589  -27.6523  -19.0872 C   0  0  0  0  0  0  0  0  0  0  0  0
   28.0032  -26.5054  -18.3744 C   0  0  0  0  0  0  0  0  0  0  0  0
   34.5333  -36.5142  -22.9428 C   0  0  0  0  0  0  0  0  0  0  0  0
   33.9436  -34.9316  -22.2713 S   0  0  0  0  0  0  0  0  0  0  0  0
   32.8958  -35.2686  -20.8079 C   0  0  0  0  0  0  0  0  0  0  0  0
   32.3796  -33.9953  -20.2465 C   0  0  0  0  0  0  0  0  0  0  0  0
   30.9774  -34.1678  -19.7058 C   0  0  2  0  0  0  0  0  0  0  0  0
   30.6116  -32.9300  -19.0284 N   0  0  0  0  0  0  0  0  0  0  0  0
   30.9767  -35.2463  -18.6996 C   0  0  0  0  0  0  0  0  0  0  0  0
   31.2637  -36.5537  -19.1386 O   0  0  0  0  0  0  0  0  0  0  0  0
   30.7343  -35.0566  -17.4806 O   0  0  0  0  0  0  0  0  0  0  0  0
  1  2  1  0
  3  4  1  0
  3  2  1  0
  5  4  1  0
  5  6  1  1
  7  5  1  0
  8  7  2  0
  9 10  1  0
 10 11  2  0
 10 20  1  0
 11 12  1  0
 12 13  2  0
 13 14  1  0
 15 14  1  6
 15 16  1  0
 16  7  1  0
 17 15  1  0
 17 26  1  0
 18 17  2  0
 19 13  1  0
 20 19  2  0
 22 21  1  0
 23 22  1  0
 24 23  1  0
 25 24  1  1
 25 26  1  0
 27 25  1  0
 27 28  1  0
 29 27  2  0
M  END
$$$$
