MYM.pdb
     RDKit          3D

 29 29  0  0  1  0  0  0  0  0999 V2000
   30.1040  -20.3459   -8.9033 C   0  0  0  0  0  0  0  0  0  0  0  0
   29.9241  -21.7355  -10.0252 S   0  0  0  0  0  0  0  0  0  0  0  0
   29.7404  -21.1423  -11.7195 C   0  0  0  0  0  0  0  0  0  0  0  0
   28.4622  -20.3369  -11.8414 C   0  0  0  0  0  0  0  0  0  0  0  0
   27.3954  -21.1150  -12.5845 C   0  0  2  0  0  0  0  0  0  0  0  0
   27.9309  -21.5051  -13.8842 N   0  0  0  0  0  0  0  0  0  0  0  0
   26.1810  -20.3116  -12.8143 C   0  0  0  0  0  0  0  0  0  0  0  0
   25.5190  -19.8128  -11.8416 O   0  0  0  0  0  0  0  0  0  0  0  0
   19.8900  -15.9115  -17.2888 O   0  0  0  0  0  0  0  0  0  0  0  0
   20.9893  -16.6761  -16.9169 C   0  0  0  0  0  0  0  0  0  0  0  0
   22.1210  -16.0410  -16.4752 C   0  0  0  0  0  0  0  0  0  0  0  0
   23.2051  -16.7952  -16.1085 C   0  0  0  0  0  0  0  0  0  0  0  0
   23.1722  -18.1780  -16.1779 C   0  0  0  0  0  0  0  0  0  0  0  0
   24.3920  -18.9131  -15.7633 C   0  0  0  0  0  0  0  0  0  0  0  0
   24.3858  -19.3179  -14.3063 C   0  0  2  0  0  0  0  0  0  0  0  0
   25.6575  -20.0312  -14.1039 N   0  0  0  0  0  0  0  0  0  0  0  0
   23.2427  -20.1622  -13.9243 C   0  0  0  0  0  0  0  0  0  0  0  0
   23.3475  -21.3979  -14.2428 O   0  0  0  0  0  0  0  0  0  0  0  0
   22.0353  -18.8323  -16.6221 C   0  0  0  0  0  0  0  0  0  0  0  0
   20.9512  -18.0713  -16.9885 C   0  0  0  0  0  0  0  0  0  0  0  0
   21.6636  -21.1438   -8.4855 C   0  0  0  0  0  0  0  0  0  0  0  0
   20.0102  -21.6549   -9.0404 S   0  0  0  0  0  0  0  0  0  0  0  0
   19.9288  -21.5003  -10.8632 C   0  0  0  0  0  0  0  0  0  0  0  0
   21.0521  -20.6637  -11.3544 C   0  0  0  0  0  0  0  0  0  0  0  0
   21.0464  -20.5773  -12.8646 C   0  0  2  0  0  0  0  0  0  0  0  0
   22.1102  -19.6613  -13.2571 N   0  0  0  0  0  0  0  0  0  0  0  0
   19.7667  -19.9951  -13.3106 C   0  0  0  0  0  0  0  0  0  0  0  0
   18.7360  -20.8812  -13.6806 O   0  0  0  0  0  0  0  0  0  0  0  0
   19.5537  -18.7577  -13.3760 O   0  0  0  0  0  0  0  0  0  0  0  0
  1  2  1  0
  3  4  1  0
  3  2  1  0
  5  4  1  0
  5  6  1  6
  7  5  1  0
  8  7  2  0
  9 10  1  0
 10 11  2  0
 10 20  1  0
 11 12  1  0
 12 13  2  0
 13 14  1  0
 15 14  1  6
 15 16  1  0
 16  7  1  0
 17 15  1  0
 17 26  1  0
 18 17  2  0
 19 13  1  0
 20 19  2  0
 22 21  1  0
 23 22  1  0
 24 23  1  0
 25 24  1  1
 25 26  1  0
 27 25  1  0
 27 28  1  0
 29 27  2  0
M  END
$$$$
