MYM.pdb
     RDKit          3D

 29 29  0  0  1  0  0  0  0  0999 V2000
   29.9676  -22.1119  -15.3619 C   0  0  0  0  0  0  0  0  0  0  0  0
   29.5227  -21.6155  -17.0285 S   0  0  0  0  0  0  0  0  0  0  0  0
   27.7711  -21.1872  -17.0992 C   0  0  0  0  0  0  0  0  0  0  0  0
   27.3003  -20.7409  -15.7294 C   0  0  0  0  0  0  0  0  0  0  0  0
   25.8170  -20.4320  -15.7358 C   0  0  2  0  0  0  0  0  0  0  0  0
   25.5928  -19.2660  -16.5833 N   0  0  0  0  0  0  0  0  0  0  0  0
   25.3091  -20.1200  -14.3876 C   0  0  0  0  0  0  0  0  0  0  0  0
   25.3246  -18.9269  -13.9300 O   0  0  0  0  0  0  0  0  0  0  0  0
   18.7857  -18.6508  -14.7305 O   0  0  0  0  0  0  0  0  0  0  0  0
   19.8061  -19.3569  -14.1048 C   0  0  0  0  0  0  0  0  0  0  0  0
   20.0798  -19.1000  -12.7864 C   0  0  0  0  0  0  0  0  0  0  0  0
   21.0862  -19.7964  -12.1694 C   0  0  0  0  0  0  0  0  0  0  0  0
   21.8236  -20.7477  -12.8547 C   0  0  0  0  0  0  0  0  0  0  0  0
   22.8952  -21.4509  -12.1082 C   0  0  0  0  0  0  0  0  0  0  0  0
   24.2354  -20.7542  -12.1781 C   0  0  2  0  0  0  0  0  0  0  0  0
   24.7729  -21.0949  -13.5056 N   0  0  0  0  0  0  0  0  0  0  0  0
   25.1721  -21.1496  -11.1142 C   0  0  0  0  0  0  0  0  0  0  0  0
   25.5640  -22.3676  -11.1583 O   0  0  0  0  0  0  0  0  0  0  0  0
   21.5575  -21.0172  -14.1868 C   0  0  0  0  0  0  0  0  0  0  0  0
   20.5473  -20.3161  -14.8005 C   0  0  0  0  0  0  0  0  0  0  0  0
   28.6255  -19.2984   -4.2751 C   0  0  0  0  0  0  0  0  0  0  0  0
   28.0780  -18.7173   -5.9078 S   0  0  0  0  0  0  0  0  0  0  0  0
   27.1797  -20.0764   -6.7439 C   0  0  0  0  0  0  0  0  0  0  0  0
   26.7846  -19.6601   -8.1126 C   0  0  0  0  0  0  0  0  0  0  0  0
   26.1230  -20.7980   -8.8579 C   0  0  2  0  0  0  0  0  0  0  0  0
   25.6133  -20.2637  -10.1147 N   0  0  0  0  0  0  0  0  0  0  0  0
   24.9695  -21.2817   -8.0762 C   0  0  0  0  0  0  0  0  0  0  0  0
   23.6937  -20.7905   -8.4163 O   0  0  0  0  0  0  0  0  0  0  0  0
   25.0692  -22.1034   -7.1297 O   0  0  0  0  0  0  0  0  0  0  0  0
  1  2  1  0
  3  4  1  0
  3  2  1  0
  5  4  1  0
  5  6  1  6
  7  5  1  0
  8  7  2  0
  9 10  1  0
 10 11  2  0
 10 20  1  0
 11 12  1  0
 12 13  2  0
 13 14  1  0
 15 14  1  1
 15 16  1  0
 16  7  1  0
 17 15  1  0
 17 26  1  0
 18 17  2  0
 19 13  1  0
 20 19  2  0
 22 21  1  0
 23 22  1  0
 24 23  1  0
 25 24  1  1
 25 26  1  0
 27 25  1  0
 27 28  1  0
 29 27  2  0
M  END
$$$$
