MYM.pdb
     RDKit          3D

 29 29  0  0  1  0  0  0  0  0999 V2000
   30.7214  -18.3439  -18.4828 C   0  0  0  0  0  0  0  0  0  0  0  0
   29.6311  -18.7946  -17.1299 S   0  0  0  0  0  0  0  0  0  0  0  0
   29.2380  -20.5539  -17.2127 C   0  0  0  0  0  0  0  0  0  0  0  0
   28.3658  -20.9368  -16.0338 C   0  0  0  0  0  0  0  0  0  0  0  0
   26.8962  -20.8647  -16.3957 C   0  0  2  0  0  0  0  0  0  0  0  0
   26.5712  -19.4824  -16.7298 N   0  0  0  0  0  0  0  0  0  0  0  0
   26.0284  -21.2800  -15.2788 C   0  0  0  0  0  0  0  0  0  0  0  0
   26.0612  -22.4715  -14.8178 O   0  0  0  0  0  0  0  0  0  0  0  0
   29.2512  -21.3443   -9.3480 O   0  0  0  0  0  0  0  0  0  0  0  0
   28.1626  -20.9488  -10.1159 C   0  0  0  0  0  0  0  0  0  0  0  0
   26.8974  -21.1569   -9.6311 C   0  0  0  0  0  0  0  0  0  0  0  0
   25.8237  -20.7668  -10.3885 C   0  0  0  0  0  0  0  0  0  0  0  0
   25.9992  -20.1708  -11.6263 C   0  0  0  0  0  0  0  0  0  0  0  0
   24.7805  -19.7833  -12.3779 C   0  0  0  0  0  0  0  0  0  0  0  0
   24.3686  -20.7965  -13.4220 C   0  0  2  0  0  0  0  0  0  0  0  0
   25.1057  -20.4125  -14.6370 N   0  0  0  0  0  0  0  0  0  0  0  0
   22.9199  -20.8384  -13.6771 C   0  0  0  0  0  0  0  0  0  0  0  0
   22.4707  -19.8997  -14.4229 O   0  0  0  0  0  0  0  0  0  0  0  0
   27.2718  -19.9546  -12.1280 C   0  0  0  0  0  0  0  0  0  0  0  0
   28.3447  -20.3476  -11.3644 C   0  0  0  0  0  0  0  0  0  0  0  0
   16.6246  -25.2643  -14.6777 C   0  0  0  0  0  0  0  0  0  0  0  0
   18.2057  -25.1091  -13.7950 S   0  0  0  0  0  0  0  0  0  0  0  0
   18.7689  -23.3699  -13.9007 C   0  0  0  0  0  0  0  0  0  0  0  0
   20.2038  -23.2756  -13.5333 C   0  0  0  0  0  0  0  0  0  0  0  0
   20.6629  -21.8347  -13.4977 C   0  0  2  0  0  0  0  0  0  0  0  0
   22.0776  -21.8321  -13.1463 N   0  0  0  0  0  0  0  0  0  0  0  0
   19.9350  -21.1218  -12.4311 C   0  0  0  0  0  0  0  0  0  0  0  0
   20.5275  -21.0693  -11.1542 O   0  0  0  0  0  0  0  0  0  0  0  0
   18.8215  -20.5643  -12.6052 O   0  0  0  0  0  0  0  0  0  0  0  0
  1  2  1  0
  3  4  1  0
  3  2  1  0
  5  4  1  0
  5  6  1  1
  7  5  1  0
  8  7  2  0
  9 10  1  0
 10 11  2  0
 10 20  1  0
 11 12  1  0
 12 13  2  0
 13 14  1  0
 15 14  1  1
 15 16  1  0
 16  7  1  0
 17 15  1  0
 17 26  1  0
 18 17  2  0
 19 13  1  0
 20 19  2  0
 22 21  1  0
 23 22  1  0
 24 23  1  0
 25 24  1  1
 25 26  1  0
 27 25  1  0
 27 28  1  0
 29 27  2  0
M  END
$$$$
