MYM.pdb
     RDKit          3D

 29 29  0  0  1  0  0  0  0  0999 V2000
   28.7789  -26.4710   14.8271 C   0  0  0  0  0  0  0  0  0  0  0  0
   28.0028  -26.5621   13.2111 S   0  0  0  0  0  0  0  0  0  0  0  0
   29.2571  -26.4711   11.9170 C   0  0  0  0  0  0  0  0  0  0  0  0
   29.3720  -25.0443   11.4186 C   0  0  0  0  0  0  0  0  0  0  0  0
   30.4434  -24.9226   10.3541 C   0  0  2  0  0  0  0  0  0  0  0  0
   31.5476  -25.8077   10.7083 N   0  0  0  0  0  0  0  0  0  0  0  0
   30.9730  -23.5505   10.2540 C   0  0  0  0  0  0  0  0  0  0  0  0
   31.9627  -23.1655   10.9650 O   0  0  0  0  0  0  0  0  0  0  0  0
   32.0749  -15.3130    7.1513 O   0  0  0  0  0  0  0  0  0  0  0  0
   31.6829  -16.6305    7.3561 C   0  0  0  0  0  0  0  0  0  0  0  0
   32.6311  -17.6196    7.3136 C   0  0  0  0  0  0  0  0  0  0  0  0
   32.2444  -18.9190    7.5155 C   0  0  0  0  0  0  0  0  0  0  0  0
   30.9200  -19.2425    7.7595 C   0  0  0  0  0  0  0  0  0  0  0  0
   30.5921  -20.6745    7.9640 C   0  0  0  0  0  0  0  0  0  0  0  0
   30.9444  -21.1825    9.3441 C   0  0  2  0  0  0  0  0  0  0  0  0
   30.4414  -22.5655    9.3807 N   0  0  0  0  0  0  0  0  0  0  0  0
   30.3711  -20.3852   10.4401 C   0  0  0  0  0  0  0  0  0  0  0  0
   29.3411  -20.8954   11.0039 O   0  0  0  0  0  0  0  0  0  0  0  0
   29.9520  -18.2531    7.8053 C   0  0  0  0  0  0  0  0  0  0  0  0
   30.3452  -16.9520    7.6022 C   0  0  0  0  0  0  0  0  0  0  0  0
   31.2539  -21.5733   15.2118 C   0  0  0  0  0  0  0  0  0  0  0  0
   30.8676  -19.9368   15.9016 S   0  0  0  0  0  0  0  0  0  0  0  0
   30.4372  -18.8067   14.5265 C   0  0  0  0  0  0  0  0  0  0  0  0
   30.7728  -19.4366   13.2251 C   0  0  0  0  0  0  0  0  0  0  0  0
   30.4142  -18.5263   12.0714 C   0  0  2  0  0  0  0  0  0  0  0  0
   30.9059  -19.1502   10.8492 N   0  0  0  0  0  0  0  0  0  0  0  0
   31.1191  -17.2408   12.2330 C   0  0  0  0  0  0  0  0  0  0  0  0
   30.5912  -16.3138   13.1531 O   0  0  0  0  0  0  0  0  0  0  0  0
   32.1585  -16.9353   11.5948 O   0  0  0  0  0  0  0  0  0  0  0  0
  1  2  1  0
  3  4  1  0
  3  2  1  0
  5  4  1  0
  5  6  1  1
  7  5  1  0
  8  7  2  0
  9 10  1  0
 10 11  2  0
 10 20  1  0
 11 12  1  0
 12 13  2  0
 13 14  1  0
 15 14  1  6
 15 16  1  0
 16  7  1  0
 17 15  1  0
 17 26  1  0
 18 17  2  0
 19 13  1  0
 20 19  2  0
 22 21  1  0
 23 22  1  0
 24 23  1  0
 25 24  1  1
 25 26  1  0
 27 25  1  0
 27 28  1  0
 29 27  2  0
M  END
$$$$
