MYM.pdb
     RDKit          3D

 29 29  0  0  1  0  0  0  0  0999 V2000
   30.8821  -18.2785  -17.9453 C   0  0  0  0  0  0  0  0  0  0  0  0
   29.6911  -16.9746  -18.2668 S   0  0  0  0  0  0  0  0  0  0  0  0
   28.2602  -17.6454  -19.1380 C   0  0  0  0  0  0  0  0  0  0  0  0
   27.3477  -18.3483  -18.1528 C   0  0  0  0  0  0  0  0  0  0  0  0
   27.8845  -19.7188  -17.7935 C   0  0  2  0  0  0  0  0  0  0  0  0
   27.7500  -20.5864  -18.9586 N   0  0  0  0  0  0  0  0  0  0  0  0
   27.1391  -20.3326  -16.6796 C   0  0  0  0  0  0  0  0  0  0  0  0
   26.0627  -20.9912  -16.8820 O   0  0  0  0  0  0  0  0  0  0  0  0
   24.5028  -21.0594   -8.2638 O   0  0  0  0  0  0  0  0  0  0  0  0
   25.2613  -20.8978   -9.4170 C   0  0  0  0  0  0  0  0  0  0  0  0
   25.1507  -21.8257  -10.4199 C   0  0  0  0  0  0  0  0  0  0  0  0
   25.8988  -21.6663  -11.5572 C   0  0  0  0  0  0  0  0  0  0  0  0
   26.7575  -20.5897  -11.7047 C   0  0  0  0  0  0  0  0  0  0  0  0
   27.5298  -20.4985  -12.9677 C   0  0  0  0  0  0  0  0  0  0  0  0
   26.6805  -20.6690  -14.2072 C   0  0  2  0  0  0  0  0  0  0  0  0
   27.5442  -20.2458  -15.3217 N   0  0  0  0  0  0  0  0  0  0  0  0
   25.4298  -19.8940  -14.1874 C   0  0  0  0  0  0  0  0  0  0  0  0
   25.5761  -18.6225  -14.2209 O   0  0  0  0  0  0  0  0  0  0  0  0
   26.8788  -19.6449  -10.6993 C   0  0  0  0  0  0  0  0  0  0  0  0
   26.1263  -19.8095   -9.5612 C   0  0  0  0  0  0  0  0  0  0  0  0
   19.2602  -17.1037  -17.0738 C   0  0  0  0  0  0  0  0  0  0  0  0
   20.7449  -18.1504  -17.1329 S   0  0  0  0  0  0  0  0  0  0  0  0
   21.3112  -18.4632  -15.4198 C   0  0  0  0  0  0  0  0  0  0  0  0
   22.5514  -19.2785  -15.4339 C   0  0  0  0  0  0  0  0  0  0  0  0
   22.9731  -19.6519  -14.0300 C   0  0  2  0  0  0  0  0  0  0  0  0
   24.1584  -20.4937  -14.1357 N   0  0  0  0  0  0  0  0  0  0  0  0
   21.9072  -20.4558  -13.4029 C   0  0  0  0  0  0  0  0  0  0  0  0
   20.8571  -19.7686  -12.7629 O   0  0  0  0  0  0  0  0  0  0  0  0
   21.8911  -21.7130  -13.4119 O   0  0  0  0  0  0  0  0  0  0  0  0
  1  2  1  0
  3  4  1  0
  3  2  1  0
  5  4  1  0
  5  6  1  6
  7  5  1  0
  8  7  2  0
  9 10  1  0
 10 11  2  0
 10 20  1  0
 11 12  1  0
 12 13  2  0
 13 14  1  0
 15 14  1  1
 15 16  1  0
 16  7  1  0
 17 15  1  0
 17 26  1  0
 18 17  2  0
 19 13  1  0
 20 19  2  0
 22 21  1  0
 23 22  1  0
 24 23  1  0
 25 24  1  6
 25 26  1  0
 27 25  1  0
 27 28  1  0
 29 27  2  0
M  END
$$$$
