MYM.pdb
     RDKit          3D

 29 29  0  0  1  0  0  0  0  0999 V2000
   28.1287  -14.7530  -16.3970 C   0  0  0  0  0  0  0  0  0  0  0  0
   29.0488  -16.2173  -16.8779 S   0  0  0  0  0  0  0  0  0  0  0  0
   27.9664  -17.6611  -16.8603 C   0  0  0  0  0  0  0  0  0  0  0  0
   27.2416  -17.7380  -15.5314 C   0  0  0  0  0  0  0  0  0  0  0  0
   26.4031  -18.9966  -15.4390 C   0  0  2  0  0  0  0  0  0  0  0  0
   25.3383  -18.9150  -16.4328 N   0  0  0  0  0  0  0  0  0  0  0  0
   25.7781  -19.1512  -14.1128 C   0  0  0  0  0  0  0  0  0  0  0  0
   25.1534  -18.1860  -13.5549 O   0  0  0  0  0  0  0  0  0  0  0  0
   19.4880  -19.6934  -14.8913 O   0  0  0  0  0  0  0  0  0  0  0  0
   20.6164  -20.1508  -14.2214 C   0  0  0  0  0  0  0  0  0  0  0  0
   21.6753  -20.6248  -14.9514 C   0  0  0  0  0  0  0  0  0  0  0  0
   22.7882  -21.0760  -14.2907 C   0  0  0  0  0  0  0  0  0  0  0  0
   22.8558  -21.0595  -12.9075 C   0  0  0  0  0  0  0  0  0  0  0  0
   24.0979  -21.5694  -12.2770 C   0  0  0  0  0  0  0  0  0  0  0  0
   25.1460  -20.5012  -12.0600 C   0  0  2  0  0  0  0  0  0  0  0  0
   25.8167  -20.3557  -13.3623 N   0  0  0  0  0  0  0  0  0  0  0  0
   26.1168  -20.8211  -11.0013 C   0  0  0  0  0  0  0  0  0  0  0  0
   26.6633  -21.9752  -11.0939 O   0  0  0  0  0  0  0  0  0  0  0  0
   21.7932  -20.5833  -12.1577 C   0  0  0  0  0  0  0  0  0  0  0  0
   20.6799  -20.1320  -12.8253 C   0  0  0  0  0  0  0  0  0  0  0  0
   29.2366  -19.0331   -4.0038 C   0  0  0  0  0  0  0  0  0  0  0  0
   28.6929  -18.4198   -5.6260 S   0  0  0  0  0  0  0  0  0  0  0  0
   27.8592  -19.7833   -6.5198 C   0  0  0  0  0  0  0  0  0  0  0  0
   27.4889  -19.3443   -7.8884 C   0  0  0  0  0  0  0  0  0  0  0  0
   26.8248  -20.4644   -8.6582 C   0  0  2  0  0  0  0  0  0  0  0  0
   26.4312  -19.9327   -9.9571 N   0  0  0  0  0  0  0  0  0  0  0  0
   25.5970  -20.8748   -7.9514 C   0  0  0  0  0  0  0  0  0  0  0  0
   24.3604  -20.4985   -8.5114 O   0  0  0  0  0  0  0  0  0  0  0  0
   25.6011  -21.5379   -6.8832 O   0  0  0  0  0  0  0  0  0  0  0  0
  1  2  1  0
  3  4  1  0
  3  2  1  0
  5  4  1  0
  5  6  1  6
  7  5  1  0
  8  7  2  0
  9 10  1  0
 10 11  2  0
 10 20  1  0
 11 12  1  0
 12 13  2  0
 13 14  1  0
 15 14  1  6
 15 16  1  0
 16  7  1  0
 17 15  1  0
 17 26  1  0
 18 17  2  0
 19 13  1  0
 20 19  2  0
 22 21  1  0
 23 22  1  0
 24 23  1  0
 25 24  1  1
 25 26  1  0
 27 25  1  0
 27 28  1  0
 29 27  2  0
M  END
$$$$
