MYM.pdb
     RDKit          3D

 29 29  0  0  1  0  0  0  0  0999 V2000
   22.5086  -16.4826  -19.2031 C   0  0  0  0  0  0  0  0  0  0  0  0
   22.7291  -15.0950  -18.0860 S   0  0  0  0  0  0  0  0  0  0  0  0
   21.7753  -13.6770  -18.6658 C   0  0  0  0  0  0  0  0  0  0  0  0
   22.0830  -12.4693  -17.8033 C   0  0  0  0  0  0  0  0  0  0  0  0
   21.2805  -11.2630  -18.2468 C   0  0  2  0  0  0  0  0  0  0  0  0
   21.8226  -10.7903  -19.5160 N   0  0  0  0  0  0  0  0  0  0  0  0
   21.3600  -10.1561  -17.2765 C   0  0  0  0  0  0  0  0  0  0  0  0
   20.9594  -10.2974  -16.0712 O   0  0  0  0  0  0  0  0  0  0  0  0
   27.0580  -11.2645  -15.1361 O   0  0  0  0  0  0  0  0  0  0  0  0
   26.1631  -10.2810  -15.5401 C   0  0  0  0  0  0  0  0  0  0  0  0
   25.1761   -9.8856  -14.6750 C   0  0  0  0  0  0  0  0  0  0  0  0
   24.2934   -8.9156  -15.0734 C   0  0  0  0  0  0  0  0  0  0  0  0
   24.3852   -8.3353  -16.3276 C   0  0  0  0  0  0  0  0  0  0  0  0
   23.3861   -7.2954  -16.6750 C   0  0  0  0  0  0  0  0  0  0  0  0
   21.9570   -7.7843  -16.6024 C   0  0  2  0  0  0  0  0  0  0  0  0
   21.8757   -8.8714  -17.5916 N   0  0  0  0  0  0  0  0  0  0  0  0
   20.9535   -6.7444  -16.8801 C   0  0  0  0  0  0  0  0  0  0  0  0
   20.8416   -6.4102  -18.1110 O   0  0  0  0  0  0  0  0  0  0  0  0
   25.3776   -8.7253  -17.2114 C   0  0  0  0  0  0  0  0  0  0  0  0
   26.2598   -9.6982  -16.8067 C   0  0  0  0  0  0  0  0  0  0  0  0
   14.3507   -3.1551  -14.7654 C   0  0  0  0  0  0  0  0  0  0  0  0
   15.6502   -4.3461  -14.3225 S   0  0  0  0  0  0  0  0  0  0  0  0
   17.0244   -4.1890  -15.5224 C   0  0  0  0  0  0  0  0  0  0  0  0
   17.9949   -5.2960  -15.3338 C   0  0  0  0  0  0  0  0  0  0  0  0
   19.1959   -5.1267  -16.2376 C   0  0  2  0  0  0  0  0  0  0  0  0
   20.1671   -6.1517  -15.8757 N   0  0  0  0  0  0  0  0  0  0  0  0
   19.8140   -3.8127  -15.9789 C   0  0  0  0  0  0  0  0  0  0  0  0
   19.3553   -2.7123  -16.7295 O   0  0  0  0  0  0  0  0  0  0  0  0
   20.7223   -3.6293  -15.1290 O   0  0  0  0  0  0  0  0  0  0  0  0
  1  2  1  0
  3  4  1  0
  3  2  1  0
  5  4  1  0
  5  6  1  6
  7  5  1  0
  8  7  2  0
  9 10  1  0
 10 11  2  0
 10 20  1  0
 11 12  1  0
 12 13  2  0
 13 14  1  0
 15 14  1  6
 15 16  1  0
 16  7  1  0
 17 15  1  0
 17 26  1  0
 18 17  2  0
 19 13  1  0
 20 19  2  0
 22 21  1  0
 23 22  1  0
 24 23  1  0
 25 24  1  1
 25 26  1  0
 27 25  1  0
 27 28  1  0
 29 27  2  0
M  END
$$$$
