MYM.pdb
     RDKit          3D

 29 29  0  0  1  0  0  0  0  0999 V2000
   32.4186  -23.3238   -7.6024 C   0  0  0  0  0  0  0  0  0  0  0  0
   33.3701  -22.7717   -9.0208 S   0  0  0  0  0  0  0  0  0  0  0  0
   32.2671  -22.1039  -10.2832 C   0  0  0  0  0  0  0  0  0  0  0  0
   30.8274  -22.2611   -9.8364 C   0  0  0  0  0  0  0  0  0  0  0  0
   29.8718  -21.6827  -10.8601 C   0  0  2  0  0  0  0  0  0  0  0  0
   30.2497  -20.2963  -11.1116 N   0  0  0  0  0  0  0  0  0  0  0  0
   28.4759  -21.6961  -10.3864 C   0  0  0  0  0  0  0  0  0  0  0  0
   27.8486  -22.7928  -10.1945 O   0  0  0  0  0  0  0  0  0  0  0  0
   28.9324  -20.5535   -3.8294 O   0  0  0  0  0  0  0  0  0  0  0  0
   28.2430  -20.3065   -5.0106 C   0  0  0  0  0  0  0  0  0  0  0  0
   28.6656  -19.2886   -5.8256 C   0  0  0  0  0  0  0  0  0  0  0  0
   27.9856  -19.0450   -6.9904 C   0  0  0  0  0  0  0  0  0  0  0  0
   26.8868  -19.8070   -7.3512 C   0  0  0  0  0  0  0  0  0  0  0  0
   26.2105  -19.4711   -8.6278 C   0  0  0  0  0  0  0  0  0  0  0  0
   26.3238  -20.5570   -9.6740 C   0  0  2  0  0  0  0  0  0  0  0  0
   27.7293  -20.5205  -10.1102 N   0  0  0  0  0  0  0  0  0  0  0  0
   25.4137  -20.3843  -10.8174 C   0  0  0  0  0  0  0  0  0  0  0  0
   25.8057  -19.5483  -11.7043 O   0  0  0  0  0  0  0  0  0  0  0  0
   26.4493  -20.8385   -6.5371 C   0  0  0  0  0  0  0  0  0  0  0  0
   27.1348  -21.0784   -5.3704 C   0  0  0  0  0  0  0  0  0  0  0  0
   20.3346  -23.5101  -15.7460 C   0  0  0  0  0  0  0  0  0  0  0  0
   21.6515  -23.6991  -14.5078 S   0  0  0  0  0  0  0  0  0  0  0  0
   22.0561  -22.0492  -13.8244 C   0  0  0  0  0  0  0  0  0  0  0  0
   23.0697  -22.1779  -12.7479 C   0  0  0  0  0  0  0  0  0  0  0  0
   23.3479  -20.8399  -12.0995 C   0  0  2  0  0  0  0  0  0  0  0  0
   24.1978  -21.0809  -10.9401 N   0  0  0  0  0  0  0  0  0  0  0  0
   22.0794  -20.2654  -11.6134 C   0  0  0  0  0  0  0  0  0  0  0  0
   21.3038  -19.5218  -12.5245 O   0  0  0  0  0  0  0  0  0  0  0  0
   21.6611  -20.4058  -10.4360 O   0  0  0  0  0  0  0  0  0  0  0  0
  1  2  1  0
  3  4  1  0
  3  2  1  0
  5  4  1  0
  5  6  1  1
  7  5  1  0
  8  7  2  0
  9 10  1  0
 10 11  2  0
 10 20  1  0
 11 12  1  0
 12 13  2  0
 13 14  1  0
 15 14  1  1
 15 16  1  0
 16  7  1  0
 17 15  1  0
 17 26  1  0
 18 17  2  0
 19 13  1  0
 20 19  2  0
 22 21  1  0
 23 22  1  0
 24 23  1  0
 25 24  1  1
 25 26  1  0
 27 25  1  0
 27 28  1  0
 29 27  2  0
M  END
$$$$
