MYM.pdb
     RDKit          3D

 29 29  0  0  1  0  0  0  0  0999 V2000
   25.3141  -17.4811  -20.2632 C   0  0  0  0  0  0  0  0  0  0  0  0
   27.0311  -17.8669  -19.9096 S   0  0  0  0  0  0  0  0  0  0  0  0
   27.4333  -17.3989  -18.2138 C   0  0  0  0  0  0  0  0  0  0  0  0
   26.6313  -18.2475  -17.2475 C   0  0  0  0  0  0  0  0  0  0  0  0
   27.4416  -19.4302  -16.7573 C   0  0  2  0  0  0  0  0  0  0  0  0
   27.5976  -20.3711  -17.8612 N   0  0  0  0  0  0  0  0  0  0  0  0
   26.7773  -20.1364  -15.6468 C   0  0  0  0  0  0  0  0  0  0  0  0
   25.8488  -20.9882  -15.8603 O   0  0  0  0  0  0  0  0  0  0  0  0
   24.2200  -21.3882   -7.2460 O   0  0  0  0  0  0  0  0  0  0  0  0
   24.9304  -21.0664   -8.3962 C   0  0  0  0  0  0  0  0  0  0  0  0
   25.2582  -22.0656   -9.2755 C   0  0  0  0  0  0  0  0  0  0  0  0
   25.9589  -21.7481  -10.4099 C   0  0  0  0  0  0  0  0  0  0  0  0
   26.3366  -20.4426  -10.6767 C   0  0  0  0  0  0  0  0  0  0  0  0
   27.0945  -20.1915  -11.9267 C   0  0  0  0  0  0  0  0  0  0  0  0
   26.3101  -20.5057  -13.1807 C   0  0  2  0  0  0  0  0  0  0  0  0
   27.1049  -19.9345  -14.2803 N   0  0  0  0  0  0  0  0  0  0  0  0
   24.9424  -19.9626  -13.1833 C   0  0  0  0  0  0  0  0  0  0  0  0
   24.8540  -18.7100  -13.4331 O   0  0  0  0  0  0  0  0  0  0  0  0
   26.0118  -19.4235   -9.7970 C   0  0  0  0  0  0  0  0  0  0  0  0
   25.3091  -19.7474   -8.6612 C   0  0  0  0  0  0  0  0  0  0  0  0
   22.1072  -17.5738  -16.8226 C   0  0  0  0  0  0  0  0  0  0  0  0
   20.6808  -18.6020  -16.3625 S   0  0  0  0  0  0  0  0  0  0  0  0
   20.8972  -19.1665  -14.6340 C   0  0  0  0  0  0  0  0  0  0  0  0
   22.2721  -19.6896  -14.4370 C   0  0  0  0  0  0  0  0  0  0  0  0
   22.4816  -20.1455  -13.0099 C   0  0  2  0  0  0  0  0  0  0  0  0
   23.8052  -20.7512  -12.9312 N   0  0  0  0  0  0  0  0  0  0  0  0
   21.4913  -21.1893  -12.6857 C   0  0  0  0  0  0  0  0  0  0  0  0
   20.2893  -20.7858  -12.0717 O   0  0  0  0  0  0  0  0  0  0  0  0
   21.6668  -22.4105  -12.9284 O   0  0  0  0  0  0  0  0  0  0  0  0
  1  2  1  0
  3  4  1  0
  3  2  1  0
  5  4  1  0
  5  6  1  6
  7  5  1  0
  8  7  2  0
  9 10  1  0
 10 11  2  0
 10 20  1  0
 11 12  1  0
 12 13  2  0
 13 14  1  0
 15 14  1  1
 15 16  1  0
 16  7  1  0
 17 15  1  0
 17 26  1  0
 18 17  2  0
 19 13  1  0
 20 19  2  0
 22 21  1  0
 23 22  1  0
 24 23  1  0
 25 24  1  6
 25 26  1  0
 27 25  1  0
 27 28  1  0
 29 27  2  0
M  END
$$$$
