WEN.pdb
     RDKit          3D

 32 33  0  0  1  0  0  0  0  0999 V2000
    6.5597  -17.8128   24.7451 N   0  0  0  0  0  0  0  0  0  0  0  0
    7.5370  -16.9490   24.1355 C   0  0  1  0  0  0  0  0  0  0  0  0
    8.2376  -16.0476   25.1047 C   0  0  0  0  0  0  0  0  0  0  0  0
    7.3179  -15.0716   25.7386 C   0  0  0  0  0  0  0  0  0  0  0  0
    6.1503  -15.3477   26.4333 C   0  0  0  0  0  0  0  0  0  0  0  0
    5.5578  -14.2272   26.8449 N   0  0  0  0  0  0  0  0  0  0  0  0
    6.3157  -13.1789   26.4352 C   0  0  0  0  0  0  0  0  0  0  0  0
    6.1320  -11.8159   26.6149 C   0  0  0  0  0  0  0  0  0  0  0  0
    7.0662  -10.9470   26.0958 C   0  0  0  0  0  0  0  0  0  0  0  0
    8.1529  -11.4458   25.4154 C   0  0  0  0  0  0  0  0  0  0  0  0
    8.3250  -12.7938   25.2431 C   0  0  0  0  0  0  0  0  0  0  0  0
    7.4127  -13.6984   25.7463 C   0  0  0  0  0  0  0  0  0  0  0  0
    8.5417  -17.7157   23.3484 C   0  0  0  0  0  0  0  0  0  0  0  0
    8.8550  -18.8600   23.7759 O   0  0  0  0  0  0  0  0  0  0  0  0
    9.1298  -17.1868   22.1562 N   0  0  0  0  0  0  0  0  0  0  0  0
   10.4932  -17.5004   21.8772 C   0  0  1  0  0  0  0  0  0  0  0  0
   10.8931  -16.6786   20.6250 C   0  0  0  0  0  0  0  0  0  0  0  0
   12.3194  -17.0886   20.2771 C   0  0  0  0  0  0  0  0  0  0  0  0
   12.4593  -17.3698   18.8456 C   0  0  0  0  0  0  0  0  0  0  0  0
   13.3771  -18.0931   18.4114 O   0  0  0  0  0  0  0  0  0  0  0  0
   11.4447  -17.2716   22.9615 C   0  0  0  0  0  0  0  0  0  0  0  0
   11.7719  -16.0729   23.2743 O   0  0  0  0  0  0  0  0  0  0  0  0
   11.5601  -16.8274   17.9457 O   0  0  0  0  0  0  0  0  0  0  0  0
   10.7789  -19.9721   26.0930 N   0  0  0  0  0  0  0  0  0  0  0  0
   12.1825  -19.7544   26.1567 C   0  0  0  0  0  0  0  0  0  0  0  0
   12.9073  -20.7807   26.2242 O   0  0  0  0  0  0  0  0  0  0  0  0
   12.6761  -18.3624   26.1393 C   0  0  0  0  0  0  0  0  0  0  0  0
   13.0745  -17.9806   24.7743 C   0  0  2  0  0  0  0  0  0  0  0  0
   12.0865  -18.2560   23.7568 N   0  0  0  0  0  0  0  0  0  0  0  0
   14.4150  -18.4863   24.4226 C   0  0  0  0  0  0  0  0  0  0  0  0
   15.3793  -18.2302   25.1785 O   0  0  0  0  0  0  0  0  0  0  0  0
   14.6425  -19.2404   23.2741 O   0  0  0  0  0  0  0  0  0  0  0  0
  2  3  1  0
  2  1  1  1
  3  4  1  0
  4  5  2  0
  5  6  1  0
  7  6  1  0
  8  7  2  0
  9  8  1  0
 10 11  1  0
 10  9  2  0
 11 12  2  0
 12  4  1  0
 12  7  1  0
 13  2  1  0
 13 14  2  0
 15 13  1  0
 16 15  1  0
 16 17  1  6
 18 17  1  0
 19 20  2  0
 19 18  1  0
 21 16  1  0
 21 22  2  0
 23 19  1  0
 25 26  2  0
 25 24  1  0
 27 25  1  0
 28 29  1  0
 28 27  1  1
 29 21  1  0
 30 28  1  0
 31 30  2  0
 32 30  1  0
M  END
$$$$
