WEN.pdb
     RDKit          3D

 32 33  0  0  1  0  0  0  0  0999 V2000
    6.6070  -17.7892   24.8773 N   0  0  0  0  0  0  0  0  0  0  0  0
    7.6798  -17.0610   24.2514 C   0  0  1  0  0  0  0  0  0  0  0  0
    8.2762  -15.9959   25.1189 C   0  0  0  0  0  0  0  0  0  0  0  0
    7.2579  -15.0500   25.6371 C   0  0  0  0  0  0  0  0  0  0  0  0
    6.0271  -15.3635   26.1928 C   0  0  0  0  0  0  0  0  0  0  0  0
    5.3548  -14.2625   26.5277 N   0  0  0  0  0  0  0  0  0  0  0  0
    6.1208  -13.1904   26.2036 C   0  0  0  0  0  0  0  0  0  0  0  0
    5.8734  -11.8339   26.3544 C   0  0  0  0  0  0  0  0  0  0  0  0
    6.8329  -10.9355   25.9431 C   0  0  0  0  0  0  0  0  0  0  0  0
    8.0069  -11.3991   25.3958 C   0  0  0  0  0  0  0  0  0  0  0  0
    8.2414  -12.7409   25.2510 C   0  0  0  0  0  0  0  0  0  0  0  0
    7.3067  -13.6744   25.6493 C   0  0  0  0  0  0  0  0  0  0  0  0
    8.7543  -17.9675   23.7611 C   0  0  0  0  0  0  0  0  0  0  0  0
    8.9528  -19.0286   24.4130 O   0  0  0  0  0  0  0  0  0  0  0  0
    9.5313  -17.6582   22.6003 N   0  0  0  0  0  0  0  0  0  0  0  0
   10.9057  -18.0403   22.5841 C   0  0  1  0  0  0  0  0  0  0  0  0
   11.4926  -17.5388   21.2398 C   0  0  0  0  0  0  0  0  0  0  0  0
   10.3029  -17.2057   20.3469 C   0  0  0  0  0  0  0  0  0  0  0  0
   10.7394  -16.6606   19.0584 C   0  0  0  0  0  0  0  0  0  0  0  0
   11.7502  -17.0990   18.4754 O   0  0  0  0  0  0  0  0  0  0  0  0
   11.7207  -17.5716   23.7019 C   0  0  0  0  0  0  0  0  0  0  0  0
   11.4619  -16.4393   24.2430 O   0  0  0  0  0  0  0  0  0  0  0  0
   10.0230  -15.6372   18.4649 O   0  0  0  0  0  0  0  0  0  0  0  0
   11.9742  -21.1483   27.7095 N   0  0  0  0  0  0  0  0  0  0  0  0
   11.6469  -19.7808   27.4987 C   0  0  0  0  0  0  0  0  0  0  0  0
   11.4776  -19.0789   28.5292 O   0  0  0  0  0  0  0  0  0  0  0  0
   11.5322  -19.2951   26.1086 C   0  0  0  0  0  0  0  0  0  0  0  0
   12.8290  -18.7779   25.6414 C   0  0  2  0  0  0  0  0  0  0  0  0
   12.8186  -18.2432   24.2992 N   0  0  0  0  0  0  0  0  0  0  0  0
   13.9262  -19.7380   25.8668 C   0  0  0  0  0  0  0  0  0  0  0  0
   14.1286  -20.6396   25.0224 O   0  0  0  0  0  0  0  0  0  0  0  0
   14.7454  -19.6735   26.9912 O   0  0  0  0  0  0  0  0  0  0  0  0
  2  3  1  0
  2  1  1  1
  3  4  1  0
  4  5  2  0
  5  6  1  0
  7  6  1  0
  8  7  2  0
  9  8  1  0
 10 11  1  0
 10  9  2  0
 11 12  2  0
 12  4  1  0
 12  7  1  0
 13  2  1  0
 13 14  2  0
 15 13  1  0
 16 15  1  0
 16 17  1  6
 18 17  1  0
 19 20  2  0
 19 18  1  0
 21 16  1  0
 21 22  2  0
 23 19  1  0
 25 26  2  0
 25 24  1  0
 27 25  1  0
 28 29  1  0
 28 27  1  6
 29 21  1  0
 30 28  1  0
 31 30  2  0
 32 30  1  0
M  END
$$$$
