WEN.pdb
     RDKit          3D

 32 33  0  0  1  0  0  0  0  0999 V2000
    9.4413  -15.3339   22.1621 N   0  0  0  0  0  0  0  0  0  0  0  0
    9.1245  -15.6884   23.5211 C   0  0  1  0  0  0  0  0  0  0  0  0
    7.6666  -15.5904   23.8488 C   0  0  0  0  0  0  0  0  0  0  0  0
    7.1547  -14.2018   23.7490 C   0  0  0  0  0  0  0  0  0  0  0  0
    6.6327  -13.5785   22.6260 C   0  0  0  0  0  0  0  0  0  0  0  0
    6.2935  -12.3168   22.8887 N   0  0  0  0  0  0  0  0  0  0  0  0
    6.5808  -12.0694   24.1916 C   0  0  0  0  0  0  0  0  0  0  0  0
    6.4114  -10.9162   24.9433 C   0  0  0  0  0  0  0  0  0  0  0  0
    6.7847  -10.9283   26.2690 C   0  0  0  0  0  0  0  0  0  0  0  0
    7.3135  -12.0751   26.8149 C   0  0  0  0  0  0  0  0  0  0  0  0
    7.4770  -13.2089   26.0638 C   0  0  0  0  0  0  0  0  0  0  0  0
    7.1168  -13.2392   24.7322 C   0  0  0  0  0  0  0  0  0  0  0  0
    9.6267  -17.0453   23.8723 C   0  0  0  0  0  0  0  0  0  0  0  0
    9.3116  -17.4990   25.0060 O   0  0  0  0  0  0  0  0  0  0  0  0
   10.4302  -17.8100   22.9687 N   0  0  0  0  0  0  0  0  0  0  0  0
   10.8801  -19.0977   23.3866 C   0  0  1  0  0  0  0  0  0  0  0  0
   11.6943  -19.6903   22.2080 C   0  0  0  0  0  0  0  0  0  0  0  0
   13.1539  -19.3397   22.4723 C   0  0  0  0  0  0  0  0  0  0  0  0
   14.0189  -19.8013   21.3830 C   0  0  0  0  0  0  0  0  0  0  0  0
   15.1171  -19.2592   21.1500 O   0  0  0  0  0  0  0  0  0  0  0  0
   11.6631  -19.1410   24.6189 C   0  0  0  0  0  0  0  0  0  0  0  0
   12.4957  -18.2008   24.8733 O   0  0  0  0  0  0  0  0  0  0  0  0
   13.6205  -20.8609   20.5885 O   0  0  0  0  0  0  0  0  0  0  0  0
   11.4188  -21.0682   30.3105 N   0  0  0  0  0  0  0  0  0  0  0  0
   11.5097  -20.0152   29.3595 C   0  0  0  0  0  0  0  0  0  0  0  0
   12.0327  -18.9425   29.7580 O   0  0  0  0  0  0  0  0  0  0  0  0
   10.9915  -20.2560   27.9975 C   0  0  0  0  0  0  0  0  0  0  0  0
   12.0278  -19.9506   26.9973 C   0  0  2  0  0  0  0  0  0  0  0  0
   11.6181  -20.1406   25.6249 N   0  0  0  0  0  0  0  0  0  0  0  0
   13.3126  -20.6059   27.3074 C   0  0  0  0  0  0  0  0  0  0  0  0
   13.5850  -21.6990   26.7618 O   0  0  0  0  0  0  0  0  0  0  0  0
   14.2336  -20.0465   28.1896 O   0  0  0  0  0  0  0  0  0  0  0  0
  2  3  1  0
  2  1  1  6
  3  4  1  0
  4  5  2  0
  5  6  1  0
  7  6  1  0
  8  7  2  0
  9  8  1  0
 10 11  1  0
 10  9  2  0
 11 12  2  0
 12  4  1  0
 12  7  1  0
 13  2  1  0
 13 14  2  0
 15 13  1  0
 16 15  1  0
 16 17  1  6
 18 17  1  0
 19 20  2  0
 19 18  1  0
 21 16  1  0
 21 22  2  0
 23 19  1  0
 25 26  2  0
 25 24  1  0
 27 25  1  0
 28 29  1  0
 28 27  1  1
 29 21  1  0
 30 28  1  0
 31 30  2  0
 32 30  1  0
M  END
$$$$
