WEN.pdb
     RDKit          3D

 32 33  0  0  1  0  0  0  0  0999 V2000
    6.4434  -17.6540   24.7625 N   0  0  0  0  0  0  0  0  0  0  0  0
    7.4803  -16.7886   24.2636 C   0  0  1  0  0  0  0  0  0  0  0  0
    8.1192  -15.9382   25.3178 C   0  0  0  0  0  0  0  0  0  0  0  0
    7.2125  -14.8751   25.8157 C   0  0  0  0  0  0  0  0  0  0  0  0
    5.9686  -15.0411   26.4049 C   0  0  0  0  0  0  0  0  0  0  0  0
    5.4177  -13.8659   26.7075 N   0  0  0  0  0  0  0  0  0  0  0  0
    6.2805  -12.8898   26.3277 C   0  0  0  0  0  0  0  0  0  0  0  0
    6.1740  -11.5106   26.4288 C   0  0  0  0  0  0  0  0  0  0  0  0
    7.2099  -10.7301   25.9654 C   0  0  0  0  0  0  0  0  0  0  0  0
    8.3194  -11.3306   25.4165 C   0  0  0  0  0  0  0  0  0  0  0  0
    8.4147  -12.6937   25.3210 C   0  0  0  0  0  0  0  0  0  0  0  0
    7.3996  -13.5120   25.7724 C   0  0  0  0  0  0  0  0  0  0  0  0
    8.5295  -17.5464   23.5275 C   0  0  0  0  0  0  0  0  0  0  0  0
    8.7962  -18.7076   23.9407 O   0  0  0  0  0  0  0  0  0  0  0  0
    9.2091  -16.9908   22.3978 N   0  0  0  0  0  0  0  0  0  0  0  0
   10.4459  -17.5774   21.9960 C   0  0  1  0  0  0  0  0  0  0  0  0
   10.8287  -16.9282   20.6413 C   0  0  0  0  0  0  0  0  0  0  0  0
   12.0885  -17.6401   20.1623 C   0  0  0  0  0  0  0  0  0  0  0  0
   12.4634  -17.2099   18.8124 C   0  0  0  0  0  0  0  0  0  0  0  0
   13.6239  -16.8407   18.5461 O   0  0  0  0  0  0  0  0  0  0  0  0
   11.5519  -17.4679   22.9437 C   0  0  0  0  0  0  0  0  0  0  0  0
   11.9746  -16.3096   23.2922 O   0  0  0  0  0  0  0  0  0  0  0  0
   11.5188  -17.2090   17.8022 O   0  0  0  0  0  0  0  0  0  0  0  0
   11.3606  -20.6080   26.1083 N   0  0  0  0  0  0  0  0  0  0  0  0
   12.2623  -19.5301   26.3238 C   0  0  0  0  0  0  0  0  0  0  0  0
   11.9519  -18.7105   27.2267 O   0  0  0  0  0  0  0  0  0  0  0  0
   13.4759  -19.4548   25.4852 C   0  0  0  0  0  0  0  0  0  0  0  0
   13.3453  -18.3714   24.4970 C   0  0  2  0  0  0  0  0  0  0  0  0
   12.2553  -18.5335   23.5626 N   0  0  0  0  0  0  0  0  0  0  0  0
   14.6268  -18.0637   23.8341 C   0  0  0  0  0  0  0  0  0  0  0  0
   14.6645  -17.9963   22.5848 O   0  0  0  0  0  0  0  0  0  0  0  0
   15.7982  -17.8459   24.5551 O   0  0  0  0  0  0  0  0  0  0  0  0
  2  3  1  0
  2  1  1  1
  3  4  1  0
  4  5  2  0
  5  6  1  0
  7  6  1  0
  8  7  2  0
  9  8  1  0
 10 11  1  0
 10  9  2  0
 11 12  2  0
 12  4  1  0
 12  7  1  0
 13  2  1  0
 13 14  2  0
 15 13  1  0
 16 15  1  0
 16 17  1  6
 18 17  1  0
 19 20  2  0
 19 18  1  0
 21 16  1  0
 21 22  2  0
 23 19  1  0
 25 26  2  0
 25 24  1  0
 27 25  1  0
 28 29  1  0
 28 27  1  6
 29 21  1  0
 30 28  1  0
 31 30  2  0
 32 30  1  0
M  END
$$$$
