KHT.pdb
     RDKit          3D

 27 27  0  0  1  0  0  0  0  0999 V2000
   10.6997  -15.9086   18.8269 N   0  0  0  0  0  0  0  0  0  0  0  0
   10.9183  -14.6723   19.4921 C   0  0  1  0  0  0  0  0  0  0  0  0
   10.1126  -13.5865   18.8345 C   0  0  0  0  0  0  0  0  0  0  0  0
    8.8344  -14.0089   18.2180 C   0  0  0  0  0  0  0  0  0  0  0  0
    8.0793  -12.9865   17.4470 C   0  0  0  0  0  0  0  0  0  0  0  0
    8.4274  -13.0997   15.9479 C   0  0  0  0  0  0  0  0  0  0  0  0
    7.6782  -14.1503   15.3271 N   0  0  0  0  0  0  0  0  0  0  0  0
   10.5205  -14.7206   20.9386 C   0  0  0  0  0  0  0  0  0  0  0  0
   10.7102  -13.6761   21.6067 O   0  0  0  0  0  0  0  0  0  0  0  0
    9.9566  -15.8787   21.5410 N   0  0  0  0  0  0  0  0  0  0  0  0
    9.6098  -15.9384   22.9466 C   0  0  1  0  0  0  0  0  0  0  0  0
    8.2190  -16.5176   23.1419 C   0  0  0  0  0  0  0  0  0  0  0  0
    7.1955  -15.8429   22.2971 C   0  0  0  0  0  0  0  0  0  0  0  0
    7.2299  -14.5908   21.7369 C   0  0  0  0  0  0  0  0  0  0  0  0
    6.0768  -14.4305   21.0712 N   0  0  0  0  0  0  0  0  0  0  0  0
    5.3083  -15.5235   21.1812 C   0  0  0  0  0  0  0  0  0  0  0  0
    6.0044  -16.3872   21.9370 N   0  0  0  0  0  0  0  0  0  0  0  0
   10.6454  -16.6509   23.7356 C   0  0  0  0  0  0  0  0  0  0  0  0
   10.5766  -16.8288   24.9764 O   0  0  0  0  0  0  0  0  0  0  0  0
   11.6378  -20.0901   23.8653 C   0  0  0  0  0  0  0  0  0  0  0  0
   12.8844  -19.3607   23.4837 C   0  0  1  0  0  0  0  0  0  0  0  0
   12.9977  -19.4660   22.0816 O   0  0  0  0  0  0  0  0  0  0  0  0
   12.8300  -17.8913   23.8526 C   0  0  2  0  0  0  0  0  0  0  0  0
   11.8191  -17.1908   23.0907 N   0  0  0  0  0  0  0  0  0  0  0  0
   14.1604  -17.2487   23.7226 C   0  0  0  0  0  0  0  0  0  0  0  0
   15.1097  -17.5993   24.4625 O   0  0  0  0  0  0  0  0  0  0  0  0
   14.3994  -16.2506   22.7907 O   0  0  0  0  0  0  0  0  0  0  0  0
  2  1  1  6
  3  2  1  0
  4  3  1  0
  4  5  1  0
  5  6  1  0
  6  7  1  0
  8  9  2  0
  8  2  1  0
 10  8  1  0
 11 12  1  6
 11 10  1  0
 12 13  1  0
 13 17  1  0
 13 14  2  0
 14 15  1  0
 16 15  1  0
 17 16  2  0
 18 11  1  0
 19 18  2  0
 21 20  1  6
 21 23  1  0
 22 21  1  0
 23 24  1  6
 24 18  1  0
 25 27  1  0
 25 23  1  0
 26 25  2  0
M  END
$$$$
