KHT.pdb
     RDKit          3D

 27 27  0  0  1  0  0  0  0  0999 V2000
    8.7062  -16.7739   20.1300 N   0  0  0  0  0  0  0  0  0  0  0  0
    9.5676  -16.0032   20.9563 C   0  0  1  0  0  0  0  0  0  0  0  0
    9.0758  -14.5842   21.0275 C   0  0  0  0  0  0  0  0  0  0  0  0
    8.0479  -14.2023   20.0326 C   0  0  0  0  0  0  0  0  0  0  0  0
    8.4878  -13.3654   18.8855 C   0  0  0  0  0  0  0  0  0  0  0  0
    7.2874  -13.0724   17.9611 C   0  0  0  0  0  0  0  0  0  0  0  0
    7.7203  -12.4673   16.7377 N   0  0  0  0  0  0  0  0  0  0  0  0
    9.6396  -16.5302   22.3598 C   0  0  0  0  0  0  0  0  0  0  0  0
    8.5870  -17.0285   22.8256 O   0  0  0  0  0  0  0  0  0  0  0  0
   10.8279  -16.4778   23.1390 N   0  0  0  0  0  0  0  0  0  0  0  0
   10.8724  -16.8957   24.5257 C   0  0  1  0  0  0  0  0  0  0  0  0
   12.0305  -17.8473   24.7727 C   0  0  0  0  0  0  0  0  0  0  0  0
   11.8087  -19.1872   24.1627 C   0  0  0  0  0  0  0  0  0  0  0  0
   10.7358  -19.6354   23.4342 C   0  0  0  0  0  0  0  0  0  0  0  0
   10.9923  -20.9106   23.1080 N   0  0  0  0  0  0  0  0  0  0  0  0
   12.1802  -21.2964   23.5953 C   0  0  0  0  0  0  0  0  0  0  0  0
   12.6753  -20.2299   24.2426 N   0  0  0  0  0  0  0  0  0  0  0  0
   10.8776  -15.7324   25.4474 C   0  0  0  0  0  0  0  0  0  0  0  0
   11.7167  -14.8005   25.3890 O   0  0  0  0  0  0  0  0  0  0  0  0
    8.6133  -12.9082   26.0064 C   0  0  0  0  0  0  0  0  0  0  0  0
    8.6699  -13.6497   27.3020 C   0  0  1  0  0  0  0  0  0  0  0  0
    7.5387  -14.4918   27.3321 O   0  0  0  0  0  0  0  0  0  0  0  0
    9.9126  -14.5095   27.4218 C   0  0  2  0  0  0  0  0  0  0  0  0
    9.8843  -15.6149   26.4888 N   0  0  0  0  0  0  0  0  0  0  0  0
   10.1214  -14.9716   28.8157 C   0  0  0  0  0  0  0  0  0  0  0  0
   10.1562  -16.1966   29.0798 O   0  0  0  0  0  0  0  0  0  0  0  0
   10.2836  -14.0779   29.8629 O   0  0  0  0  0  0  0  0  0  0  0  0
  2  1  1  6
  3  2  1  0
  4  3  1  0
  4  5  1  0
  5  6  1  0
  6  7  1  0
  8  9  2  0
  8  2  1  0
 10  8  1  0
 11 12  1  6
 11 10  1  0
 12 13  1  0
 13 17  1  0
 13 14  2  0
 14 15  1  0
 16 15  1  0
 17 16  2  0
 18 11  1  0
 19 18  2  0
 21 20  1  6
 21 23  1  0
 22 21  1  0
 23 24  1  6
 24 18  1  0
 25 27  1  0
 25 23  1  0
 26 25  2  0
M  END
$$$$
