KHT.pdb
     RDKit          3D

 27 27  0  0  1  0  0  0  0  0999 V2000
    6.8544  -17.2085   19.6345 N   0  0  0  0  0  0  0  0  0  0  0  0
    8.0262  -16.4613   19.9299 C   0  0  1  0  0  0  0  0  0  0  0  0
    7.6547  -15.0576   20.3201 C   0  0  0  0  0  0  0  0  0  0  0  0
    7.2333  -14.1663   19.2154 C   0  0  0  0  0  0  0  0  0  0  0  0
    8.2085  -13.9340   18.1178 C   0  0  0  0  0  0  0  0  0  0  0  0
    7.6117  -12.9530   17.0869 C   0  0  0  0  0  0  0  0  0  0  0  0
    8.5337  -12.7109   16.0184 N   0  0  0  0  0  0  0  0  0  0  0  0
    8.8149  -17.0538   21.0611 C   0  0  0  0  0  0  0  0  0  0  0  0
    8.1598  -17.6540   21.9465 O   0  0  0  0  0  0  0  0  0  0  0  0
   10.2308  -16.9524   21.1451 N   0  0  0  0  0  0  0  0  0  0  0  0
   10.9944  -17.5467   22.2236 C   0  0  1  0  0  0  0  0  0  0  0  0
   12.4630  -17.6641   21.8530 C   0  0  0  0  0  0  0  0  0  0  0  0
   12.6980  -18.6380   20.7516 C   0  0  0  0  0  0  0  0  0  0  0  0
   11.9075  -19.6817   20.3410 C   0  0  0  0  0  0  0  0  0  0  0  0
   12.5437  -20.2732   19.3194 N   0  0  0  0  0  0  0  0  0  0  0  0
   13.7042  -19.6544   19.0596 C   0  0  0  0  0  0  0  0  0  0  0  0
   13.7910  -18.6497   19.9454 N   0  0  0  0  0  0  0  0  0  0  0  0
   10.7804  -16.8294   23.5051 C   0  0  0  0  0  0  0  0  0  0  0  0
   11.3968  -15.7853   23.8309 O   0  0  0  0  0  0  0  0  0  0  0  0
    7.9117  -15.0272   24.6948 C   0  0  0  0  0  0  0  0  0  0  0  0
    8.1651  -16.0494   25.7543 C   0  0  1  0  0  0  0  0  0  0  0  0
    7.2643  -17.1080   25.5142 O   0  0  0  0  0  0  0  0  0  0  0  0
    9.5772  -16.5986   25.7014 C   0  0  2  0  0  0  0  0  0  0  0  0
    9.8212  -17.3155   24.4687 N   0  0  0  0  0  0  0  0  0  0  0  0
    9.8817  -17.4305   26.8910 C   0  0  0  0  0  0  0  0  0  0  0  0
   10.1819  -18.6405   26.7593 O   0  0  0  0  0  0  0  0  0  0  0  0
    9.8459  -16.9074   28.1743 O   0  0  0  0  0  0  0  0  0  0  0  0
  2  1  1  1
  3  2  1  0
  4  3  1  0
  4  5  1  0
  5  6  1  0
  6  7  1  0
  8  9  2  0
  8  2  1  0
 10  8  1  0
 11 12  1  6
 11 10  1  0
 12 13  1  0
 13 17  1  0
 13 14  2  0
 14 15  1  0
 16 15  1  0
 17 16  2  0
 18 11  1  0
 19 18  2  0
 21 20  1  6
 21 23  1  0
 22 21  1  0
 23 24  1  6
 24 18  1  0
 25 27  1  0
 25 23  1  0
 26 25  2  0
M  END
$$$$
