KHT.pdb
     RDKit          3D

 27 27  0  0  1  0  0  0  0  0999 V2000
   11.6263  -18.6159   18.0430 N   0  0  0  0  0  0  0  0  0  0  0  0
   10.5875  -18.6889   19.0096 C   0  0  1  0  0  0  0  0  0  0  0  0
   10.6322  -20.0179   19.7114 C   0  0  0  0  0  0  0  0  0  0  0  0
   10.0607  -21.1641   18.9685 C   0  0  0  0  0  0  0  0  0  0  0  0
   10.0282  -22.4780   19.6631 C   0  0  0  0  0  0  0  0  0  0  0  0
    9.3497  -23.5300   18.7608 C   0  0  0  0  0  0  0  0  0  0  0  0
    9.4442  -24.8366   19.3389 N   0  0  0  0  0  0  0  0  0  0  0  0
   10.7006  -17.6185   20.0558 C   0  0  0  0  0  0  0  0  0  0  0  0
   11.8499  -17.3936   20.5048 O   0  0  0  0  0  0  0  0  0  0  0  0
    9.5774  -16.8855   20.5279 N   0  0  0  0  0  0  0  0  0  0  0  0
    9.6722  -15.9133   21.5982 C   0  0  1  0  0  0  0  0  0  0  0  0
    8.4827  -14.9685   21.5850 C   0  0  0  0  0  0  0  0  0  0  0  0
    8.4357  -14.1266   20.3579 C   0  0  0  0  0  0  0  0  0  0  0  0
    9.3448  -14.0453   19.3334 C   0  0  0  0  0  0  0  0  0  0  0  0
    8.8680  -13.1457   18.4606 N   0  0  0  0  0  0  0  0  0  0  0  0
    7.6960  -12.6493   18.8818 C   0  0  0  0  0  0  0  0  0  0  0  0
    7.4378  -13.2584   20.0497 N   0  0  0  0  0  0  0  0  0  0  0  0
    9.8720  -16.5677   22.9152 C   0  0  0  0  0  0  0  0  0  0  0  0
    8.9313  -16.9293   23.6638 O   0  0  0  0  0  0  0  0  0  0  0  0
   10.6898  -19.7442   23.9633 C   0  0  0  0  0  0  0  0  0  0  0  0
   11.7931  -18.9195   24.5414 C   0  0  1  0  0  0  0  0  0  0  0  0
   12.8715  -19.0004   23.6358 O   0  0  0  0  0  0  0  0  0  0  0  0
   11.4046  -17.4624   24.6972 C   0  0  2  0  0  0  0  0  0  0  0  0
   11.2023  -16.8276   23.4130 N   0  0  0  0  0  0  0  0  0  0  0  0
   12.3873  -16.7237   25.5271 C   0  0  0  0  0  0  0  0  0  0  0  0
   13.0102  -15.7447   25.0526 O   0  0  0  0  0  0  0  0  0  0  0  0
   12.6490  -17.0840   26.8399 O   0  0  0  0  0  0  0  0  0  0  0  0
  2  1  1  6
  3  2  1  0
  4  3  1  0
  4  5  1  0
  5  6  1  0
  6  7  1  0
  8  9  2  0
  8  2  1  0
 10  8  1  0
 11 12  1  1
 11 10  1  0
 12 13  1  0
 13 17  1  0
 13 14  2  0
 14 15  1  0
 16 15  1  0
 17 16  2  0
 18 11  1  0
 19 18  2  0
 21 20  1  6
 21 23  1  0
 22 21  1  0
 23 24  1  6
 24 18  1  0
 25 27  1  0
 25 23  1  0
 26 25  2  0
M  END
$$$$
