KHT.pdb
     RDKit          3D

 27 27  0  0  1  0  0  0  0  0999 V2000
   11.6154  -17.0995   16.7683 N   0  0  0  0  0  0  0  0  0  0  0  0
   10.6214  -17.5420   17.6820 C   0  0  1  0  0  0  0  0  0  0  0  0
   10.9395  -18.9344   18.1516 C   0  0  0  0  0  0  0  0  0  0  0  0
   12.3462  -19.1830   18.5409 C   0  0  0  0  0  0  0  0  0  0  0  0
   12.7379  -20.5900   18.8178 C   0  0  0  0  0  0  0  0  0  0  0  0
   14.2294  -20.6503   19.2093 C   0  0  0  0  0  0  0  0  0  0  0  0
   14.6257  -21.9937   19.5069 N   0  0  0  0  0  0  0  0  0  0  0  0
   10.5255  -16.6639   18.8955 C   0  0  0  0  0  0  0  0  0  0  0  0
   11.5233  -15.9472   19.1483 O   0  0  0  0  0  0  0  0  0  0  0  0
    9.3740  -16.6302   19.7291 N   0  0  0  0  0  0  0  0  0  0  0  0
    9.2828  -15.7844   20.9021 C   0  0  1  0  0  0  0  0  0  0  0  0
    8.0324  -14.9227   20.8583 C   0  0  0  0  0  0  0  0  0  0  0  0
    7.9491  -14.0996   19.6206 C   0  0  0  0  0  0  0  0  0  0  0  0
    8.3986  -12.8215   19.4039 C   0  0  0  0  0  0  0  0  0  0  0  0
    8.0881  -12.5092   18.1372 N   0  0  0  0  0  0  0  0  0  0  0  0
    7.4608  -13.5301   17.5359 C   0  0  0  0  0  0  0  0  0  0  0  0
    7.3796  -14.5042   18.4558 N   0  0  0  0  0  0  0  0  0  0  0  0
    9.3941  -16.5728   22.1547 C   0  0  0  0  0  0  0  0  0  0  0  0
    8.4665  -17.2810   22.6173 O   0  0  0  0  0  0  0  0  0  0  0  0
   11.7679  -19.2751   22.7725 C   0  0  0  0  0  0  0  0  0  0  0  0
   11.9314  -18.3593   23.9414 C   0  0  1  0  0  0  0  0  0  0  0  0
   13.1001  -17.6069   23.7013 O   0  0  0  0  0  0  0  0  0  0  0  0
   10.7659  -17.4018   24.0926 C   0  0  2  0  0  0  0  0  0  0  0  0
   10.6155  -16.5613   22.9247 N   0  0  0  0  0  0  0  0  0  0  0  0
   10.8785  -16.6007   25.3358 C   0  0  0  0  0  0  0  0  0  0  0  0
   10.9833  -15.3528   25.2795 O   0  0  0  0  0  0  0  0  0  0  0  0
   10.8718  -17.1948   26.5883 O   0  0  0  0  0  0  0  0  0  0  0  0
  2  1  1  6
  3  2  1  0
  4  3  1  0
  4  5  1  0
  5  6  1  0
  6  7  1  0
  8  9  2  0
  8  2  1  0
 10  8  1  0
 11 12  1  1
 11 10  1  0
 12 13  1  0
 13 17  1  0
 13 14  2  0
 14 15  1  0
 16 15  1  0
 17 16  2  0
 18 11  1  0
 19 18  2  0
 21 20  1  6
 21 23  1  0
 22 21  1  0
 23 24  1  6
 24 18  1  0
 25 27  1  0
 25 23  1  0
 26 25  2  0
M  END
$$$$
