KHT.pdb
     RDKit          3D

 27 27  0  0  1  0  0  0  0  0999 V2000
    9.4409  -14.9092   19.5581 N   0  0  0  0  0  0  0  0  0  0  0  0
    8.6328  -13.9838   20.2719 C   0  0  1  0  0  0  0  0  0  0  0  0
    7.3648  -13.7156   19.5099 C   0  0  0  0  0  0  0  0  0  0  0  0
    7.5320  -13.2374   18.1186 C   0  0  0  0  0  0  0  0  0  0  0  0
    7.7281  -14.2661   17.0636 C   0  0  0  0  0  0  0  0  0  0  0  0
    7.9854  -13.5801   15.7055 C   0  0  0  0  0  0  0  0  0  0  0  0
    8.1350  -14.5503   14.6630 N   0  0  0  0  0  0  0  0  0  0  0  0
    8.2476  -14.4882   21.6321 C   0  0  0  0  0  0  0  0  0  0  0  0
    7.3012  -13.8944   22.2022 O   0  0  0  0  0  0  0  0  0  0  0  0
    8.9069  -15.5801   22.2606 N   0  0  0  0  0  0  0  0  0  0  0  0
    8.4988  -16.1028   23.5489 C   0  0  1  0  0  0  0  0  0  0  0  0
    9.0248  -17.5127   23.7578 C   0  0  0  0  0  0  0  0  0  0  0  0
    8.4576  -18.4842   22.7826 C   0  0  0  0  0  0  0  0  0  0  0  0
    7.2646  -18.4299   22.1069 C   0  0  0  0  0  0  0  0  0  0  0  0
    7.1951  -19.5351   21.3506 N   0  0  0  0  0  0  0  0  0  0  0  0
    8.2896  -20.2922   21.5132 C   0  0  0  0  0  0  0  0  0  0  0  0
    9.0607  -19.6380   22.3957 N   0  0  0  0  0  0  0  0  0  0  0  0
    8.8664  -15.1825   24.6537 C   0  0  0  0  0  0  0  0  0  0  0  0
   10.0373  -14.7840   24.8686 O   0  0  0  0  0  0  0  0  0  0  0  0
    6.7342  -11.9488   25.6913 C   0  0  0  0  0  0  0  0  0  0  0  0
    7.0698  -12.7822   26.8848 C   0  0  1  0  0  0  0  0  0  0  0  0
    5.9110  -13.5244   27.1946 O   0  0  0  0  0  0  0  0  0  0  0  0
    8.2031  -13.7515   26.6126 C   0  0  2  0  0  0  0  0  0  0  0  0
    7.8603  -14.6862   25.5628 N   0  0  0  0  0  0  0  0  0  0  0  0
    8.6321  -14.4475   27.8501 C   0  0  0  0  0  0  0  0  0  0  0  0
    8.5557  -15.6959   27.9353 O   0  0  0  0  0  0  0  0  0  0  0  0
    9.1265  -13.7523   28.9428 O   0  0  0  0  0  0  0  0  0  0  0  0
  2  1  1  6
  3  2  1  0
  4  3  1  0
  4  5  1  0
  5  6  1  0
  6  7  1  0
  8  9  2  0
  8  2  1  0
 10  8  1  0
 11 12  1  1
 11 10  1  0
 12 13  1  0
 13 17  1  0
 13 14  2  0
 14 15  1  0
 16 15  1  0
 17 16  2  0
 18 11  1  0
 19 18  2  0
 21 20  1  6
 21 23  1  0
 22 21  1  0
 23 24  1  6
 24 18  1  0
 25 27  1  0
 25 23  1  0
 26 25  2  0
M  END
$$$$
