KHT.pdb
     RDKit          3D

 27 27  0  0  1  0  0  0  0  0999 V2000
    8.7130  -18.3924   16.4898 N   0  0  0  0  0  0  0  0  0  0  0  0
    9.6488  -17.4555   17.0050 C   0  0  1  0  0  0  0  0  0  0  0  0
    9.1306  -16.0567   16.8173 C   0  0  0  0  0  0  0  0  0  0  0  0
    8.8885  -15.6359   15.4184 C   0  0  0  0  0  0  0  0  0  0  0  0
    8.4016  -14.2487   15.1989 C   0  0  0  0  0  0  0  0  0  0  0  0
    8.1130  -14.0269   13.6993 C   0  0  0  0  0  0  0  0  0  0  0  0
    7.5978  -12.7112   13.4672 N   0  0  0  0  0  0  0  0  0  0  0  0
    9.9092  -17.6509   18.4702 C   0  0  0  0  0  0  0  0  0  0  0  0
    9.0165  -18.2418   19.1237 O   0  0  0  0  0  0  0  0  0  0  0  0
   11.0983  -17.1982   19.1051 N   0  0  0  0  0  0  0  0  0  0  0  0
   11.4235  -17.5242   20.4790 C   0  0  1  0  0  0  0  0  0  0  0  0
   12.8697  -17.9716   20.6066 C   0  0  0  0  0  0  0  0  0  0  0  0
   13.1397  -19.2446   19.8833 C   0  0  0  0  0  0  0  0  0  0  0  0
   13.0925  -20.5315   20.3570 C   0  0  0  0  0  0  0  0  0  0  0  0
   13.4209  -21.3347   19.3346 N   0  0  0  0  0  0  0  0  0  0  0  0
   13.6755  -20.6187   18.2301 C   0  0  0  0  0  0  0  0  0  0  0  0
   13.5001  -19.3340   18.5769 N   0  0  0  0  0  0  0  0  0  0  0  0
   11.0824  -16.4119   21.4004 C   0  0  0  0  0  0  0  0  0  0  0  0
   11.8182  -15.4124   21.5891 O   0  0  0  0  0  0  0  0  0  0  0  0
    7.8378  -14.3141   21.5291 C   0  0  0  0  0  0  0  0  0  0  0  0
    8.0836  -14.8959   22.8828 C   0  0  1  0  0  0  0  0  0  0  0  0
    7.2352  -16.0169   22.9979 O   0  0  0  0  0  0  0  0  0  0  0  0
    9.5165  -15.3572   23.0620 C   0  0  2  0  0  0  0  0  0  0  0  0
    9.8467  -16.4284   22.1473 N   0  0  0  0  0  0  0  0  0  0  0  0
    9.7952  -15.7307   24.4701 C   0  0  0  0  0  0  0  0  0  0  0  0
   10.1085  -16.9084   24.7642 O   0  0  0  0  0  0  0  0  0  0  0  0
    9.7205  -14.8038   25.4981 O   0  0  0  0  0  0  0  0  0  0  0  0
  2  1  1  1
  3  2  1  0
  4  3  1  0
  4  5  1  0
  5  6  1  0
  6  7  1  0
  8  9  2  0
  8  2  1  0
 10  8  1  0
 11 12  1  6
 11 10  1  0
 12 13  1  0
 13 17  1  0
 13 14  2  0
 14 15  1  0
 16 15  1  0
 17 16  2  0
 18 11  1  0
 19 18  2  0
 21 20  1  6
 21 23  1  0
 22 21  1  0
 23 24  1  6
 24 18  1  0
 25 27  1  0
 25 23  1  0
 26 25  2  0
M  END
$$$$
