KHT.pdb
     RDKit          3D

 27 27  0  0  1  0  0  0  0  0999 V2000
   10.9780  -17.8712   16.2762 N   0  0  0  0  0  0  0  0  0  0  0  0
   10.2850  -18.4333   17.3820 C   0  0  1  0  0  0  0  0  0  0  0  0
   10.7969  -19.8199   17.6570 C   0  0  0  0  0  0  0  0  0  0  0  0
   10.8066  -20.7492   16.5043 C   0  0  0  0  0  0  0  0  0  0  0  0
   11.2066  -22.1566   16.7673 C   0  0  0  0  0  0  0  0  0  0  0  0
   11.2186  -22.9525   15.4453 C   0  0  0  0  0  0  0  0  0  0  0  0
   11.6152  -24.3100   15.6697 N   0  0  0  0  0  0  0  0  0  0  0  0
   10.4573  -17.6280   18.6369 C   0  0  0  0  0  0  0  0  0  0  0  0
   11.5988  -17.1513   18.8441 O   0  0  0  0  0  0  0  0  0  0  0  0
    9.3962  -17.4044   19.5567 N   0  0  0  0  0  0  0  0  0  0  0  0
    9.5605  -16.6202   20.7640 C   0  0  1  0  0  0  0  0  0  0  0  0
    8.3231  -15.7850   21.0455 C   0  0  0  0  0  0  0  0  0  0  0  0
    8.1823  -14.6382   20.1067 C   0  0  0  0  0  0  0  0  0  0  0  0
    9.0265  -14.2390   19.1013 C   0  0  0  0  0  0  0  0  0  0  0  0
    8.4765  -13.1524   18.5398 N   0  0  0  0  0  0  0  0  0  0  0  0
    7.3198  -12.8402   19.1414 C   0  0  0  0  0  0  0  0  0  0  0  0
    7.1467  -13.7594   20.1039 N   0  0  0  0  0  0  0  0  0  0  0  0
    9.9570  -17.4671   21.9164 C   0  0  0  0  0  0  0  0  0  0  0  0
    9.2337  -18.3740   22.3964 O   0  0  0  0  0  0  0  0  0  0  0  0
   12.6911  -19.7906   22.0859 C   0  0  0  0  0  0  0  0  0  0  0  0
   12.8935  -18.9296   23.2898 C   0  0  1  0  0  0  0  0  0  0  0  0
   13.9241  -18.0226   22.9658 O   0  0  0  0  0  0  0  0  0  0  0  0
   11.6518  -18.1378   23.6493 C   0  0  2  0  0  0  0  0  0  0  0  0
   11.2359  -17.2809   22.5603 N   0  0  0  0  0  0  0  0  0  0  0  0
   11.8385  -17.3759   24.9081 C   0  0  0  0  0  0  0  0  0  0  0  0
   11.7808  -16.1236   24.9067 O   0  0  0  0  0  0  0  0  0  0  0  0
   12.0803  -18.0123   26.1157 O   0  0  0  0  0  0  0  0  0  0  0  0
  2  1  1  6
  3  2  1  0
  4  3  1  0
  4  5  1  0
  5  6  1  0
  6  7  1  0
  8  9  2  0
  8  2  1  0
 10  8  1  0
 11 12  1  1
 11 10  1  0
 12 13  1  0
 13 17  1  0
 13 14  2  0
 14 15  1  0
 16 15  1  0
 17 16  2  0
 18 11  1  0
 19 18  2  0
 21 20  1  6
 21 23  1  0
 22 21  1  0
 23 24  1  6
 24 18  1  0
 25 27  1  0
 25 23  1  0
 26 25  2  0
M  END
$$$$
