PHI.pdb
     RDKit          3D

 26 27  0  0  1  0  0  0  0  0999 V2000
    9.1591  -14.5506   18.9125 N   0  0  0  0  0  0  0  0  0  0  0  0
    9.0296  -13.7980   17.6785 C   0  0  0  0  0  0  0  0  0  0  0  0
    7.7233  -13.0582   17.7454 C   0  0  0  0  0  0  0  0  0  0  0  0
    7.1873  -13.3952   19.1403 C   0  0  0  0  0  0  0  0  0  0  0  0
    8.4418  -13.7613   19.8647 C   0  0  1  0  0  0  0  0  0  0  0  0
    8.2099  -14.4643   21.1436 C   0  0  0  0  0  0  0  0  0  0  0  0
    7.4225  -13.9619   21.9792 O   0  0  0  0  0  0  0  0  0  0  0  0
    8.8508  -15.7005   21.4677 N   0  0  0  0  0  0  0  0  0  0  0  0
    8.5144  -16.3814   22.6965 C   0  0  1  0  0  0  0  0  0  0  0  0
    8.8215  -17.8315   22.7106 C   0  0  0  0  0  0  0  0  0  0  0  0
    8.1596  -18.6613   21.6994 C   0  0  0  0  0  0  0  0  0  0  0  0
    6.8480  -18.7127   21.3259 C   0  0  0  0  0  0  0  0  0  0  0  0
    6.6861  -19.6124   20.3146 N   0  0  0  0  0  0  0  0  0  0  0  0
    7.8966  -20.1065   20.0730 C   0  0  0  0  0  0  0  0  0  0  0  0
    8.8001  -19.5580   20.8844 N   0  0  0  0  0  0  0  0  0  0  0  0
    9.0659  -15.6633   23.8803 C   0  0  0  0  0  0  0  0  0  0  0  0
   10.2921  -15.4348   23.9246 O   0  0  0  0  0  0  0  0  0  0  0  0
    5.9419  -11.9130   26.1449 C   0  0  0  0  0  0  0  0  0  0  0  0
    7.0750  -12.7488   25.6469 C   0  0  0  0  0  0  0  0  0  0  0  0
    7.6883  -13.6446   26.6688 C   0  0  2  0  0  0  0  0  0  0  0  0
    8.1913  -12.8239   27.8313 C   0  0  0  0  0  0  0  0  0  0  0  0
    8.7765  -14.5367   26.1264 C   0  0  2  0  0  0  0  0  0  0  0  0
    8.2474  -15.2343   24.9503 N   0  0  0  0  0  0  0  0  0  0  0  0
    9.1439  -15.5399   27.1573 C   0  0  0  0  0  0  0  0  0  0  0  0
    8.4996  -16.6134   27.2386 O   0  0  0  0  0  0  0  0  0  0  0  0
   10.1830  -15.3425   28.0491 O   0  0  0  0  0  0  0  0  0  0  0  0
  2  1  1  0
  3  2  1  0
  4  3  1  0
  4  5  1  0
  5  1  1  0
  5  6  1  1
  6  8  1  0
  7  6  2  0
  9  8  1  0
 10 11  1  0
  9 10  1  6
 11 12  2  0
 12 13  1  0
 14 13  1  0
 15 11  1  0
 15 14  2  0
 16  9  1  0
 17 16  2  0
 19 18  1  0
 19 20  1  0
 20 22  1  0
 20 21  1  1
 22 23  1  6
 22 24  1  0
 23 16  1  0
 24 25  2  0
 24 26  1  0
M  END
$$$$
