PHI.pdb
     RDKit          3D

 26 27  0  0  1  0  0  0  0  0999 V2000
    9.0368  -14.7694   18.5964 N   0  0  0  0  0  0  0  0  0  0  0  0
    9.0240  -14.0879   17.3153 C   0  0  0  0  0  0  0  0  0  0  0  0
    7.8732  -13.1219   17.3384 C   0  0  0  0  0  0  0  0  0  0  0  0
    7.3086  -13.2651   18.7552 C   0  0  0  0  0  0  0  0  0  0  0  0
    8.4889  -13.8033   19.4967 C   0  0  1  0  0  0  0  0  0  0  0  0
    8.1558  -14.3682   20.8210 C   0  0  0  0  0  0  0  0  0  0  0  0
    7.6318  -13.6256   21.6840 O   0  0  0  0  0  0  0  0  0  0  0  0
    8.4084  -15.7341   21.1590 N   0  0  0  0  0  0  0  0  0  0  0  0
    7.9656  -16.2506   22.4334 C   0  0  1  0  0  0  0  0  0  0  0  0
    7.9671  -17.7290   22.5420 C   0  0  0  0  0  0  0  0  0  0  0  0
    9.2561  -18.4068   22.3742 C   0  0  0  0  0  0  0  0  0  0  0  0
   10.1800  -18.3036   21.3751 C   0  0  0  0  0  0  0  0  0  0  0  0
   11.2535  -19.0979   21.6489 N   0  0  0  0  0  0  0  0  0  0  0  0
   10.9835  -19.6824   22.8121 C   0  0  0  0  0  0  0  0  0  0  0  0
    9.7962  -19.2899   23.2725 N   0  0  0  0  0  0  0  0  0  0  0  0
    8.6792  -15.5884   23.5619 C   0  0  0  0  0  0  0  0  0  0  0  0
    9.8533  -15.2039   23.3851 O   0  0  0  0  0  0  0  0  0  0  0  0
    5.8423  -12.0437   26.1099 C   0  0  0  0  0  0  0  0  0  0  0  0
    6.9922  -12.8154   25.5509 C   0  0  0  0  0  0  0  0  0  0  0  0
    7.6645  -13.7271   26.5204 C   0  0  2  0  0  0  0  0  0  0  0  0
    8.2476  -12.9233   27.6570 C   0  0  0  0  0  0  0  0  0  0  0  0
    8.7090  -14.6193   25.8982 C   0  0  2  0  0  0  0  0  0  0  0  0
    8.0706  -15.3828   24.8214 N   0  0  0  0  0  0  0  0  0  0  0  0
    9.2167  -15.5648   26.9241 C   0  0  0  0  0  0  0  0  0  0  0  0
   10.1142  -15.1967   27.7198 O   0  0  0  0  0  0  0  0  0  0  0  0
    8.7374  -16.8568   27.0457 O   0  0  0  0  0  0  0  0  0  0  0  0
  2  1  1  0
  3  2  1  0
  4  3  1  0
  4  5  1  0
  5  1  1  0
  5  6  1  1
  6  8  1  0
  7  6  2  0
  9  8  1  0
 10 11  1  0
  9 10  1  6
 11 12  2  0
 12 13  1  0
 14 13  1  0
 15 11  1  0
 15 14  2  0
 16  9  1  0
 17 16  2  0
 19 18  1  0
 19 20  1  0
 20 22  1  0
 20 21  1  1
 22 23  1  6
 22 24  1  0
 23 16  1  0
 24 25  2  0
 24 26  1  0
M  END
$$$$
