PHI.pdb
     RDKit          3D

 26 27  0  0  1  0  0  0  0  0999 V2000
    7.6375  -15.1228   17.9268 N   0  0  0  0  0  0  0  0  0  0  0  0
    8.0907  -14.1783   16.9226 C   0  0  0  0  0  0  0  0  0  0  0  0
    8.3770  -12.8833   17.6291 C   0  0  0  0  0  0  0  0  0  0  0  0
    8.1272  -13.2125   19.1041 C   0  0  0  0  0  0  0  0  0  0  0  0
    8.3065  -14.6959   19.1161 C   0  0  1  0  0  0  0  0  0  0  0  0
    7.7922  -15.3501   20.3373 C   0  0  0  0  0  0  0  0  0  0  0  0
    6.7743  -16.0765   20.2549 O   0  0  0  0  0  0  0  0  0  0  0  0
    8.4122  -15.1870   21.6151 N   0  0  0  0  0  0  0  0  0  0  0  0
    7.9426  -15.9579   22.7430 C   0  0  1  0  0  0  0  0  0  0  0  0
    7.9117  -17.4241   22.5272 C   0  0  0  0  0  0  0  0  0  0  0  0
    7.5255  -18.2566   23.6704 C   0  0  0  0  0  0  0  0  0  0  0  0
    6.5741  -18.0499   24.6267 C   0  0  0  0  0  0  0  0  0  0  0  0
    6.5361  -19.1096   25.4833 N   0  0  0  0  0  0  0  0  0  0  0  0
    7.4617  -19.9592   25.0488 C   0  0  0  0  0  0  0  0  0  0  0  0
    8.0715  -19.4786   23.9658 N   0  0  0  0  0  0  0  0  0  0  0  0
    8.6556  -15.5738   23.9941 C   0  0  0  0  0  0  0  0  0  0  0  0
    9.9032  -15.6048   24.0063 O   0  0  0  0  0  0  0  0  0  0  0  0
    5.9548  -11.7300   26.4009 C   0  0  0  0  0  0  0  0  0  0  0  0
    7.0272  -12.6207   25.8652 C   0  0  0  0  0  0  0  0  0  0  0  0
    7.6618  -13.5141   26.8763 C   0  0  2  0  0  0  0  0  0  0  0  0
    8.3261  -12.6830   27.9467 C   0  0  0  0  0  0  0  0  0  0  0  0
    8.6280  -14.5124   26.2900 C   0  0  2  0  0  0  0  0  0  0  0  0
    7.9661  -15.1769   25.1629 N   0  0  0  0  0  0  0  0  0  0  0  0
    8.9639  -15.5285   27.3191 C   0  0  0  0  0  0  0  0  0  0  0  0
    9.7995  -15.2553   28.2141 O   0  0  0  0  0  0  0  0  0  0  0  0
    8.3875  -16.7861   27.3372 O   0  0  0  0  0  0  0  0  0  0  0  0
  2  1  1  0
  3  2  1  0
  4  3  1  0
  4  5  1  0
  5  1  1  0
  5  6  1  1
  6  8  1  0
  7  6  2  0
  9  8  1  0
 10 11  1  0
  9 10  1  6
 11 12  2  0
 12 13  1  0
 14 13  1  0
 15 11  1  0
 15 14  2  0
 16  9  1  0
 17 16  2  0
 19 18  1  0
 19 20  1  0
 20 22  1  0
 20 21  1  1
 22 23  1  6
 22 24  1  0
 23 16  1  0
 24 25  2  0
 24 26  1  0
M  END
$$$$
