PHI.pdb
     RDKit          3D

 26 27  0  0  1  0  0  0  0  0999 V2000
    9.0399  -14.9590   18.8278 N   0  0  0  0  0  0  0  0  0  0  0  0
    9.2169  -14.2619   17.5674 C   0  0  0  0  0  0  0  0  0  0  0  0
    8.2566  -13.1062   17.5613 C   0  0  0  0  0  0  0  0  0  0  0  0
    7.6008  -13.1729   18.9441 C   0  0  0  0  0  0  0  0  0  0  0  0
    8.6253  -13.9278   19.7271 C   0  0  1  0  0  0  0  0  0  0  0  0
    8.1269  -14.4490   21.0170 C   0  0  0  0  0  0  0  0  0  0  0  0
    7.6540  -13.6460   21.8549 O   0  0  0  0  0  0  0  0  0  0  0  0
    8.1627  -15.8390   21.3490 N   0  0  0  0  0  0  0  0  0  0  0  0
    7.6043  -16.2909   22.6024 C   0  0  1  0  0  0  0  0  0  0  0  0
    7.3857  -17.7541   22.6966 C   0  0  0  0  0  0  0  0  0  0  0  0
    6.5507  -18.3697   21.6608 C   0  0  0  0  0  0  0  0  0  0  0  0
    5.2492  -18.1329   21.3252 C   0  0  0  0  0  0  0  0  0  0  0  0
    4.8897  -18.9176   20.2701 N   0  0  0  0  0  0  0  0  0  0  0  0
    5.9700  -19.6296   19.9642 C   0  0  0  0  0  0  0  0  0  0  0  0
    6.9809  -19.3253   20.7774 N   0  0  0  0  0  0  0  0  0  0  0  0
    8.3666  -15.7456   23.7611 C   0  0  0  0  0  0  0  0  0  0  0  0
    9.6137  -15.7806   23.7276 O   0  0  0  0  0  0  0  0  0  0  0  0
    5.8618  -11.7033   26.3218 C   0  0  0  0  0  0  0  0  0  0  0  0
    6.8854  -12.5994   25.7056 C   0  0  0  0  0  0  0  0  0  0  0  0
    7.5267  -13.5591   26.6495 C   0  0  2  0  0  0  0  0  0  0  0  0
    8.2356  -12.8010   27.7452 C   0  0  0  0  0  0  0  0  0  0  0  0
    8.4563  -14.5426   25.9844 C   0  0  2  0  0  0  0  0  0  0  0  0
    7.7243  -15.1921   24.8925 N   0  0  0  0  0  0  0  0  0  0  0  0
    8.8635  -15.5736   26.9721 C   0  0  0  0  0  0  0  0  0  0  0  0
    8.1251  -16.5675   27.1745 O   0  0  0  0  0  0  0  0  0  0  0  0
   10.0411  -15.4876   27.6931 O   0  0  0  0  0  0  0  0  0  0  0  0
  2  1  1  0
  3  2  1  0
  4  3  1  0
  4  5  1  0
  5  1  1  0
  5  6  1  1
  6  8  1  0
  7  6  2  0
  9  8  1  0
 10 11  1  0
  9 10  1  6
 11 12  2  0
 12 13  1  0
 14 13  1  0
 15 11  1  0
 15 14  2  0
 16  9  1  0
 17 16  2  0
 19 18  1  0
 19 20  1  0
 20 22  1  0
 20 21  1  1
 22 23  1  6
 22 24  1  0
 23 16  1  0
 24 25  2  0
 24 26  1  0
M  END
$$$$
