PHI.pdb
     RDKit          3D

 26 27  0  0  1  0  0  0  0  0999 V2000
    8.6924  -15.2088   18.8151 N   0  0  0  0  0  0  0  0  0  0  0  0
    8.8026  -14.5040   17.5515 C   0  0  0  0  0  0  0  0  0  0  0  0
    7.9144  -13.2951   17.6392 C   0  0  0  0  0  0  0  0  0  0  0  0
    7.3751  -13.3451   19.0721 C   0  0  0  0  0  0  0  0  0  0  0  0
    8.4163  -14.1693   19.7571 C   0  0  1  0  0  0  0  0  0  0  0  0
    7.9992  -14.6806   21.0793 C   0  0  0  0  0  0  0  0  0  0  0  0
    7.7045  -13.8625   21.9818 O   0  0  0  0  0  0  0  0  0  0  0  0
    7.9179  -16.0776   21.3719 N   0  0  0  0  0  0  0  0  0  0  0  0
    7.5036  -16.5115   22.6860 C   0  0  1  0  0  0  0  0  0  0  0  0
    7.4683  -17.9813   22.8754 C   0  0  0  0  0  0  0  0  0  0  0  0
    7.1030  -18.4716   24.2078 C   0  0  0  0  0  0  0  0  0  0  0  0
    6.7533  -17.7824   25.3326 C   0  0  0  0  0  0  0  0  0  0  0  0
    6.4594  -18.6524   26.3400 N   0  0  0  0  0  0  0  0  0  0  0  0
    6.6291  -19.8680   25.8290 C   0  0  0  0  0  0  0  0  0  0  0  0
    7.0139  -19.7944   24.5553 N   0  0  0  0  0  0  0  0  0  0  0  0
    8.2719  -15.8105   23.7534 C   0  0  0  0  0  0  0  0  0  0  0  0
    9.5156  -15.7606   23.6618 O   0  0  0  0  0  0  0  0  0  0  0  0
    5.8349  -11.6694   26.2925 C   0  0  0  0  0  0  0  0  0  0  0  0
    6.8162  -12.6041   25.6651 C   0  0  0  0  0  0  0  0  0  0  0  0
    7.4645  -13.5578   26.6103 C   0  0  2  0  0  0  0  0  0  0  0  0
    8.1880  -12.7925   27.6914 C   0  0  0  0  0  0  0  0  0  0  0  0
    8.3835  -14.5503   25.9438 C   0  0  2  0  0  0  0  0  0  0  0  0
    7.6391  -15.2027   24.8620 N   0  0  0  0  0  0  0  0  0  0  0  0
    8.7933  -15.5773   26.9345 C   0  0  0  0  0  0  0  0  0  0  0  0
    8.0374  -16.5503   27.1713 O   0  0  0  0  0  0  0  0  0  0  0  0
    9.9922  -15.5100   27.6216 O   0  0  0  0  0  0  0  0  0  0  0  0
  2  1  1  0
  3  2  1  0
  4  3  1  0
  4  5  1  0
  5  1  1  0
  5  6  1  1
  6  8  1  0
  7  6  2  0
  9  8  1  0
 10 11  1  0
  9 10  1  6
 11 12  2  0
 12 13  1  0
 14 13  1  0
 15 11  1  0
 15 14  2  0
 16  9  1  0
 17 16  2  0
 19 18  1  0
 19 20  1  0
 20 22  1  0
 20 21  1  1
 22 23  1  6
 22 24  1  0
 23 16  1  0
 24 25  2  0
 24 26  1  0
M  END
$$$$
