PHI.pdb
     RDKit          3D

 26 27  0  0  1  0  0  0  0  0999 V2000
   10.5581  -18.2538   20.1581 N   0  0  0  0  0  0  0  0  0  0  0  0
   11.2972  -19.0358   19.1845 C   0  0  0  0  0  0  0  0  0  0  0  0
   12.0223  -18.0658   18.2949 C   0  0  0  0  0  0  0  0  0  0  0  0
   11.6924  -16.6995   18.9041 C   0  0  0  0  0  0  0  0  0  0  0  0
   11.3480  -17.0718   20.3097 C   0  0  1  0  0  0  0  0  0  0  0  0
   10.6546  -16.0029   21.0581 C   0  0  0  0  0  0  0  0  0  0  0  0
   11.2396  -14.9092   21.2379 O   0  0  0  0  0  0  0  0  0  0  0  0
    9.3369  -16.1669   21.5880 N   0  0  0  0  0  0  0  0  0  0  0  0
    8.6370  -15.0270   22.1336 C   0  0  1  0  0  0  0  0  0  0  0  0
    7.3594  -14.6974   21.4579 C   0  0  0  0  0  0  0  0  0  0  0  0
    7.4088  -14.4879   20.0078 C   0  0  0  0  0  0  0  0  0  0  0  0
    7.9532  -13.4660   19.2853 C   0  0  0  0  0  0  0  0  0  0  0  0
    7.7960  -13.7023   17.9520 N   0  0  0  0  0  0  0  0  0  0  0  0
    7.1580  -14.8653   17.8636 C   0  0  0  0  0  0  0  0  0  0  0  0
    6.9119  -15.3613   19.0757 N   0  0  0  0  0  0  0  0  0  0  0  0
    8.4956  -15.1375   23.6131 C   0  0  0  0  0  0  0  0  0  0  0  0
    9.0312  -16.1026   24.1956 O   0  0  0  0  0  0  0  0  0  0  0  0
    6.2967  -10.6669   26.1237 C   0  0  0  0  0  0  0  0  0  0  0  0
    7.2381  -11.7895   25.8340 C   0  0  0  0  0  0  0  0  0  0  0  0
    6.7718  -13.1306   26.2892 C   0  0  2  0  0  0  0  0  0  0  0  0
    6.6175  -13.1351   27.7905 C   0  0  0  0  0  0  0  0  0  0  0  0
    7.6476  -14.2702   25.8327 C   0  0  2  0  0  0  0  0  0  0  0  0
    7.7768  -14.1875   24.3745 N   0  0  0  0  0  0  0  0  0  0  0  0
    6.9974  -15.5571   26.1869 C   0  0  0  0  0  0  0  0  0  0  0  0
    6.0602  -15.9967   25.4781 O   0  0  0  0  0  0  0  0  0  0  0  0
    7.3843  -16.3081   27.2825 O   0  0  0  0  0  0  0  0  0  0  0  0
  2  1  1  0
  3  2  1  0
  4  3  1  0
  4  5  1  0
  5  1  1  0
  5  6  1  6
  6  8  1  0
  7  6  2  0
  9  8  1  0
 10 11  1  0
  9 10  1  6
 11 12  2  0
 12 13  1  0
 14 13  1  0
 15 11  1  0
 15 14  2  0
 16  9  1  0
 17 16  2  0
 19 18  1  0
 19 20  1  0
 20 22  1  0
 20 21  1  1
 22 23  1  6
 22 24  1  0
 23 16  1  0
 24 25  2  0
 24 26  1  0
M  END
$$$$
