MWC.pdb
     RDKit          3D

 29 30  0  0  1  0  0  0  0  0999 V2000
    7.9442  -11.6864   19.8247 C   0  0  0  0  0  0  0  0  0  0  0  0
    7.3554  -12.9324   18.6466 S   0  0  0  0  0  0  0  0  0  0  0  0
    7.7337  -14.5838   19.3233 C   0  0  0  0  0  0  0  0  0  0  0  0
    8.4595  -14.4018   20.6520 C   0  0  0  0  0  0  0  0  0  0  0  0
    8.8144  -15.7957   21.1287 C   0  0  2  0  0  0  0  0  0  0  0  0
    7.6527  -16.6302   21.2187 N   0  0  0  0  0  0  0  0  0  0  0  0
    9.5230  -15.7054   22.4487 C   0  0  0  0  0  0  0  0  0  0  0  0
   10.5098  -14.9434   22.5953 O   0  0  0  0  0  0  0  0  0  0  0  0
    9.1190  -16.4611   23.5691 N   0  0  0  0  0  0  0  0  0  0  0  0
    9.7808  -16.3218   24.8848 C   0  0  1  0  0  0  0  0  0  0  0  0
    8.8039  -16.5595   25.9707 C   0  0  0  0  0  0  0  0  0  0  0  0
    7.6676  -15.6369   25.9334 C   0  0  0  0  0  0  0  0  0  0  0  0
    6.3483  -15.8848   25.5581 C   0  0  0  0  0  0  0  0  0  0  0  0
    5.6215  -14.7570   25.6264 N   0  0  0  0  0  0  0  0  0  0  0  0
    6.4023  -13.7486   26.0359 C   0  0  0  0  0  0  0  0  0  0  0  0
    6.0998  -12.4195   26.2504 C   0  0  0  0  0  0  0  0  0  0  0  0
    7.1204  -11.5983   26.6764 C   0  0  0  0  0  0  0  0  0  0  0  0
    8.3927  -12.0912   26.8788 C   0  0  0  0  0  0  0  0  0  0  0  0
    8.6634  -13.4265   26.6553 C   0  0  0  0  0  0  0  0  0  0  0  0
    7.6741  -14.2676   26.2328 C   0  0  0  0  0  0  0  0  0  0  0  0
   10.9827  -17.1805   24.8675 C   0  0  0  0  0  0  0  0  0  0  0  0
   10.9401  -18.3389   24.2999 O   0  0  0  0  0  0  0  0  0  0  0  0
   12.2501  -16.8794   25.4172 N   0  0  0  0  0  0  0  0  0  0  0  0
   13.3326  -17.7944   25.3443 C   0  0  1  0  0  0  0  0  0  0  0  0
   14.6841  -17.1451   25.1678 C   0  0  0  0  0  0  0  0  0  0  0  0
   14.5947  -15.7805   23.9825 S   0  0  0  0  0  0  0  0  0  0  0  0
   13.4098  -18.6196   26.5609 C   0  0  0  0  0  0  0  0  0  0  0  0
   14.3328  -19.6167   26.7893 O   0  0  0  0  0  0  0  0  0  0  0  0
   12.5746  -18.4419   27.5237 O   0  0  0  0  0  0  0  0  0  0  0  0
  2  1  1  0
  3  2  1  0
  4  3  1  0
  5  4  1  0
  5  6  1  1
  7  8  2  0
  7  5  1  0
  9  7  1  0
 10  9  1  0
 10 11  1  1
 12 11  1  0
 12 20  1  0
 13 14  1  0
 13 12  2  0
 14 15  1  0
 15 16  1  0
 15 20  2  0
 16 17  2  0
 17 18  1  0
 19 18  2  0
 20 19  1  0
 21 10  1  0
 22 21  2  0
 23 21  1  0
 24 23  1  0
 25 26  1  0
 24 25  1  1
 27 24  1  0
 27 28  1  0
 29 27  2  0
M  END
$$$$
