MWC.pdb
     RDKit          3D

 29 30  0  0  1  0  0  0  0  0999 V2000
    7.6665  -11.8744   19.4842 C   0  0  0  0  0  0  0  0  0  0  0  0
    7.3523  -13.2028   18.2911 S   0  0  0  0  0  0  0  0  0  0  0  0
    7.6298  -14.8004   19.1271 C   0  0  0  0  0  0  0  0  0  0  0  0
    8.4556  -14.5460   20.3836 C   0  0  0  0  0  0  0  0  0  0  0  0
    8.7293  -15.9088   20.9869 C   0  0  2  0  0  0  0  0  0  0  0  0
    7.5160  -16.6420   21.1971 N   0  0  0  0  0  0  0  0  0  0  0  0
    9.4933  -15.7421   22.2680 C   0  0  0  0  0  0  0  0  0  0  0  0
   10.5485  -15.0628   22.3010 O   0  0  0  0  0  0  0  0  0  0  0  0
    9.0675  -16.3321   23.4763 N   0  0  0  0  0  0  0  0  0  0  0  0
    9.8112  -16.1450   24.7414 C   0  0  1  0  0  0  0  0  0  0  0  0
    8.9208  -16.4023   25.8951 C   0  0  0  0  0  0  0  0  0  0  0  0
    7.7316  -15.5482   25.9048 C   0  0  0  0  0  0  0  0  0  0  0  0
    6.4085  -15.8837   25.6228 C   0  0  0  0  0  0  0  0  0  0  0  0
    5.6216  -14.7979   25.7055 N   0  0  0  0  0  0  0  0  0  0  0  0
    6.3652  -13.7336   26.0346 C   0  0  0  0  0  0  0  0  0  0  0  0
    5.9983  -12.4178   26.2300 C   0  0  0  0  0  0  0  0  0  0  0  0
    6.9930  -11.5258   26.5654 C   0  0  0  0  0  0  0  0  0  0  0  0
    8.3025  -11.9380   26.6993 C   0  0  0  0  0  0  0  0  0  0  0  0
    8.6376  -13.2620   26.4972 C   0  0  0  0  0  0  0  0  0  0  0  0
    7.6754  -14.1718   26.1637 C   0  0  0  0  0  0  0  0  0  0  0  0
   11.0426  -16.9561   24.6537 C   0  0  0  0  0  0  0  0  0  0  0  0
   10.9657  -18.2224   24.4162 O   0  0  0  0  0  0  0  0  0  0  0  0
   12.3730  -16.4994   24.7972 N   0  0  0  0  0  0  0  0  0  0  0  0
   13.4814  -17.3782   24.6804 C   0  0  1  0  0  0  0  0  0  0  0  0
   14.7463  -16.7202   24.1840 C   0  0  0  0  0  0  0  0  0  0  0  0
   14.4120  -15.6906   22.7338 S   0  0  0  0  0  0  0  0  0  0  0  0
   13.8020  -17.9995   25.9759 C   0  0  0  0  0  0  0  0  0  0  0  0
   14.8319  -18.8868   26.2000 O   0  0  0  0  0  0  0  0  0  0  0  0
   13.0991  -17.7309   27.0198 O   0  0  0  0  0  0  0  0  0  0  0  0
  2  1  1  0
  3  2  1  0
  4  3  1  0
  5  4  1  0
  5  6  1  1
  7  8  2  0
  7  5  1  0
  9  7  1  0
 10  9  1  0
 10 11  1  1
 12 11  1  0
 12 20  1  0
 13 14  1  0
 13 12  2  0
 14 15  1  0
 15 16  1  0
 15 20  2  0
 16 17  2  0
 17 18  1  0
 19 18  2  0
 20 19  1  0
 21 10  1  0
 22 21  2  0
 23 21  1  0
 24 23  1  0
 25 26  1  0
 24 25  1  1
 27 24  1  0
 27 28  1  0
 29 27  2  0
M  END
$$$$
