MWC.pdb
     RDKit          3D

 29 30  0  0  1  0  0  0  0  0999 V2000
    7.7574  -12.6961   18.2685 C   0  0  0  0  0  0  0  0  0  0  0  0
    8.3973  -13.9271   17.1013 S   0  0  0  0  0  0  0  0  0  0  0  0
    9.2878  -15.2062   18.0494 C   0  0  0  0  0  0  0  0  0  0  0  0
    9.9976  -14.5292   19.2171 C   0  0  0  0  0  0  0  0  0  0  0  0
   10.5687  -15.6481   20.0645 C   0  0  2  0  0  0  0  0  0  0  0  0
    9.9519  -16.9049   19.7577 N   0  0  0  0  0  0  0  0  0  0  0  0
   10.4097  -15.3041   21.5167 C   0  0  0  0  0  0  0  0  0  0  0  0
   10.9772  -14.2949   22.0020 O   0  0  0  0  0  0  0  0  0  0  0  0
    9.6269  -16.0869   22.3907 N   0  0  0  0  0  0  0  0  0  0  0  0
    9.1212  -15.5546   23.6750 C   0  0  1  0  0  0  0  0  0  0  0  0
    7.6558  -15.7426   23.7592 C   0  0  0  0  0  0  0  0  0  0  0  0
    7.0869  -15.2652   25.0211 C   0  0  0  0  0  0  0  0  0  0  0  0
    6.4234  -15.9860   26.0125 C   0  0  0  0  0  0  0  0  0  0  0  0
    6.0205  -15.1667   26.9979 N   0  0  0  0  0  0  0  0  0  0  0  0
    6.3876  -13.9110   26.7105 C   0  0  0  0  0  0  0  0  0  0  0  0
    6.1936  -12.7428   27.4189 C   0  0  0  0  0  0  0  0  0  0  0  0
    6.6871  -11.5797   26.8701 C   0  0  0  0  0  0  0  0  0  0  0  0
    7.3483  -11.5889   25.6596 C   0  0  0  0  0  0  0  0  0  0  0  0
    7.5264  -12.7746   24.9751 C   0  0  0  0  0  0  0  0  0  0  0  0
    7.0496  -13.9453   25.4914 C   0  0  0  0  0  0  0  0  0  0  0  0
    9.9349  -16.1541   24.7523 C   0  0  0  0  0  0  0  0  0  0  0  0
   10.5253  -17.2859   24.5615 O   0  0  0  0  0  0  0  0  0  0  0  0
   10.1714  -15.6160   26.0383 N   0  0  0  0  0  0  0  0  0  0  0  0
   11.0083  -16.2702   26.9796 C   0  0  1  0  0  0  0  0  0  0  0  0
   11.3066  -15.4570   28.2162 C   0  0  0  0  0  0  0  0  0  0  0  0
   10.6180  -13.7895   28.0738 S   0  0  0  0  0  0  0  0  0  0  0  0
   10.4058  -17.5343   27.4335 C   0  0  0  0  0  0  0  0  0  0  0  0
   11.0393  -18.4881   28.1998 O   0  0  0  0  0  0  0  0  0  0  0  0
    9.1925  -17.8279   27.1208 O   0  0  0  0  0  0  0  0  0  0  0  0
  2  1  1  0
  3  2  1  0
  4  3  1  0
  5  4  1  0
  5  6  1  1
  7  8  2  0
  7  5  1  0
  9  7  1  0
 10  9  1  0
 10 11  1  1
 12 11  1  0
 12 20  1  0
 13 14  1  0
 13 12  2  0
 14 15  1  0
 15 16  1  0
 15 20  2  0
 16 17  2  0
 17 18  1  0
 19 18  2  0
 20 19  1  0
 21 10  1  0
 22 21  2  0
 23 21  1  0
 24 23  1  0
 25 26  1  0
 24 25  1  1
 27 24  1  0
 27 28  1  0
 29 27  2  0
M  END
$$$$
