MWC.pdb
     RDKit          3D

 29 30  0  0  1  0  0  0  0  0999 V2000
    8.0323  -11.6025   19.3670 C   0  0  0  0  0  0  0  0  0  0  0  0
    6.7323  -12.8257   19.0494 S   0  0  0  0  0  0  0  0  0  0  0  0
    7.3584  -14.4671   19.5412 C   0  0  0  0  0  0  0  0  0  0  0  0
    8.1672  -14.3062   20.8239 C   0  0  0  0  0  0  0  0  0  0  0  0
    8.6553  -15.6941   21.1871 C   0  0  2  0  0  0  0  0  0  0  0  0
    7.5634  -16.6089   21.3445 N   0  0  0  0  0  0  0  0  0  0  0  0
    9.4865  -15.6193   22.4345 C   0  0  0  0  0  0  0  0  0  0  0  0
   10.4815  -14.8563   22.4965 O   0  0  0  0  0  0  0  0  0  0  0  0
    9.1929  -16.3912   23.5779 N   0  0  0  0  0  0  0  0  0  0  0  0
    9.9716  -16.2614   24.8289 C   0  0  1  0  0  0  0  0  0  0  0  0
    9.1076  -16.5489   25.9954 C   0  0  0  0  0  0  0  0  0  0  0  0
    7.9242  -15.6890   26.0598 C   0  0  0  0  0  0  0  0  0  0  0  0
    6.5900  -16.0138   25.8211 C   0  0  0  0  0  0  0  0  0  0  0  0
    5.8126  -14.9253   25.9470 N   0  0  0  0  0  0  0  0  0  0  0  0
    6.5735  -13.8694   26.2637 C   0  0  0  0  0  0  0  0  0  0  0  0
    6.2212  -12.5546   26.4902 C   0  0  0  0  0  0  0  0  0  0  0  0
    7.2323  -11.6725   26.8018 C   0  0  0  0  0  0  0  0  0  0  0  0
    8.5435  -12.0931   26.8827 C   0  0  0  0  0  0  0  0  0  0  0  0
    8.8637  -13.4159   26.6504 C   0  0  0  0  0  0  0  0  0  0  0  0
    7.8851  -14.3161   26.3394 C   0  0  0  0  0  0  0  0  0  0  0  0
   11.1882  -17.0858   24.6791 C   0  0  0  0  0  0  0  0  0  0  0  0
   11.0882  -18.3301   24.3512 O   0  0  0  0  0  0  0  0  0  0  0  0
   12.5268  -16.6643   24.8510 N   0  0  0  0  0  0  0  0  0  0  0  0
   13.6198  -17.5472   24.6505 C   0  0  1  0  0  0  0  0  0  0  0  0
   14.8585  -16.8864   24.0955 C   0  0  0  0  0  0  0  0  0  0  0  0
   14.7209  -15.0838   24.1786 S   0  0  0  0  0  0  0  0  0  0  0  0
   14.0106  -18.1992   25.9112 C   0  0  0  0  0  0  0  0  0  0  0  0
   13.4164  -17.9851   27.1356 O   0  0  0  0  0  0  0  0  0  0  0  0
   14.9785  -19.0469   25.9343 O   0  0  0  0  0  0  0  0  0  0  0  0
  2  1  1  0
  3  2  1  0
  4  3  1  0
  5  4  1  0
  5  6  1  1
  7  8  2  0
  7  5  1  0
  9  7  1  0
 10  9  1  0
 10 11  1  1
 12 11  1  0
 12 20  1  0
 13 14  1  0
 13 12  2  0
 14 15  1  0
 15 16  1  0
 15 20  2  0
 16 17  2  0
 17 18  1  0
 19 18  2  0
 20 19  1  0
 21 10  1  0
 22 21  2  0
 23 21  1  0
 24 23  1  0
 25 26  1  0
 24 25  1  1
 27 24  1  0
 27 28  1  0
 29 27  2  0
M  END
$$$$
