MWC.pdb
     RDKit          3D

 29 30  0  0  1  0  0  0  0  0999 V2000
    7.6797  -11.7947   18.4857 C   0  0  0  0  0  0  0  0  0  0  0  0
    7.3140  -13.1472   17.3350 S   0  0  0  0  0  0  0  0  0  0  0  0
    7.6954  -14.7253   18.1669 C   0  0  0  0  0  0  0  0  0  0  0  0
    9.1818  -14.7400   18.5073 C   0  0  0  0  0  0  0  0  0  0  0  0
    9.4123  -15.9982   19.3196 C   0  0  2  0  0  0  0  0  0  0  0  0
    8.4347  -17.0022   19.0191 N   0  0  0  0  0  0  0  0  0  0  0  0
    9.4087  -15.6555   20.7808 C   0  0  0  0  0  0  0  0  0  0  0  0
   10.3189  -14.9456   21.2746 O   0  0  0  0  0  0  0  0  0  0  0  0
    8.3978  -16.1082   21.6541 N   0  0  0  0  0  0  0  0  0  0  0  0
    8.4083  -15.7817   23.0968 C   0  0  1  0  0  0  0  0  0  0  0  0
    7.0325  -15.8383   23.6389 C   0  0  0  0  0  0  0  0  0  0  0  0
    6.9656  -15.5344   25.0697 C   0  0  0  0  0  0  0  0  0  0  0  0
    6.7597  -16.4010   26.1417 C   0  0  0  0  0  0  0  0  0  0  0  0
    6.7267  -15.7173   27.2977 N   0  0  0  0  0  0  0  0  0  0  0  0
    6.9033  -14.4131   27.0484 C   0  0  0  0  0  0  0  0  0  0  0  0
    6.9434  -13.3392   27.9140 C   0  0  0  0  0  0  0  0  0  0  0  0
    7.1415  -12.0909   27.3660 C   0  0  0  0  0  0  0  0  0  0  0  0
    7.2933  -11.9276   26.0047 C   0  0  0  0  0  0  0  0  0  0  0  0
    7.2483  -13.0226   25.1650 C   0  0  0  0  0  0  0  0  0  0  0  0
    7.0536  -14.2738   25.6761 C   0  0  0  0  0  0  0  0  0  0  0  0
    9.4157  -16.6506   23.7388 C   0  0  0  0  0  0  0  0  0  0  0  0
    9.5936  -17.8560   23.3131 O   0  0  0  0  0  0  0  0  0  0  0  0
   10.2657  -16.3131   24.8172 N   0  0  0  0  0  0  0  0  0  0  0  0
   11.2341  -17.2218   25.3180 C   0  0  1  0  0  0  0  0  0  0  0  0
   12.6638  -16.7916   25.0947 C   0  0  0  0  0  0  0  0  0  0  0  0
   13.8177  -18.0038   25.7833 S   0  0  0  0  0  0  0  0  0  0  0  0
   11.0692  -17.4244   26.7668 C   0  0  0  0  0  0  0  0  0  0  0  0
   11.7600  -18.3436   27.5258 O   0  0  0  0  0  0  0  0  0  0  0  0
   10.2267  -16.7153   27.4328 O   0  0  0  0  0  0  0  0  0  0  0  0
  2  1  1  0
  3  2  1  0
  4  3  1  0
  5  4  1  0
  5  6  1  1
  7  8  2  0
  7  5  1  0
  9  7  1  0
 10  9  1  0
 10 11  1  1
 12 11  1  0
 12 20  1  0
 13 14  1  0
 13 12  2  0
 14 15  1  0
 15 16  1  0
 15 20  2  0
 16 17  2  0
 17 18  1  0
 19 18  2  0
 20 19  1  0
 21 10  1  0
 22 21  2  0
 23 21  1  0
 24 23  1  0
 25 26  1  0
 24 25  1  1
 27 24  1  0
 27 28  1  0
 29 27  2  0
M  END
$$$$
