MWC.pdb
     RDKit          3D

 29 30  0  0  1  0  0  0  0  0999 V2000
    6.8718  -11.8487   20.1873 C   0  0  0  0  0  0  0  0  0  0  0  0
    7.5383  -12.8133   18.8044 S   0  0  0  0  0  0  0  0  0  0  0  0
    7.9222  -14.4910   19.4094 C   0  0  0  0  0  0  0  0  0  0  0  0
    8.5230  -14.3704   20.8058 C   0  0  0  0  0  0  0  0  0  0  0  0
    8.9799  -15.7643   21.1860 C   0  0  2  0  0  0  0  0  0  0  0  0
    7.9245  -16.7217   21.0324 N   0  0  0  0  0  0  0  0  0  0  0  0
    9.5018  -15.7510   22.5932 C   0  0  0  0  0  0  0  0  0  0  0  0
   10.3741  -14.9195   22.9451 O   0  0  0  0  0  0  0  0  0  0  0  0
    9.0434  -16.6583   23.5709 N   0  0  0  0  0  0  0  0  0  0  0  0
    9.5912  -16.6684   24.9450 C   0  0  1  0  0  0  0  0  0  0  0  0
    8.5008  -16.8778   25.9233 C   0  0  0  0  0  0  0  0  0  0  0  0
    7.5106  -15.7992   25.9199 C   0  0  0  0  0  0  0  0  0  0  0  0
    6.1727  -15.8380   25.5314 C   0  0  0  0  0  0  0  0  0  0  0  0
    5.6165  -14.6202   25.6427 N   0  0  0  0  0  0  0  0  0  0  0  0
    6.5317  -13.7527   26.0943 C   0  0  0  0  0  0  0  0  0  0  0  0
    6.4234  -12.4032   26.3609 C   0  0  0  0  0  0  0  0  0  0  0  0
    7.5487  -11.7562   26.8222 C   0  0  0  0  0  0  0  0  0  0  0  0
    8.7342  -12.4363   27.0082 C   0  0  0  0  0  0  0  0  0  0  0  0
    8.8103  -13.7869   26.7323 C   0  0  0  0  0  0  0  0  0  0  0  0
    7.7131  -14.4581   26.2737 C   0  0  0  0  0  0  0  0  0  0  0  0
   10.7056  -17.6376   24.9689 C   0  0  0  0  0  0  0  0  0  0  0  0
   10.4752  -18.8911   24.7649 O   0  0  0  0  0  0  0  0  0  0  0  0
   12.0730  -17.3550   25.1919 N   0  0  0  0  0  0  0  0  0  0  0  0
   13.0429  -18.3866   25.2896 C   0  0  1  0  0  0  0  0  0  0  0  0
   14.4678  -17.9178   25.1192 C   0  0  0  0  0  0  0  0  0  0  0  0
   14.6257  -16.8460   23.6696 S   0  0  0  0  0  0  0  0  0  0  0  0
   12.9674  -19.0610   26.5959 C   0  0  0  0  0  0  0  0  0  0  0  0
   12.0761  -18.7531   27.6004 O   0  0  0  0  0  0  0  0  0  0  0  0
   13.7729  -20.0234   26.8807 O   0  0  0  0  0  0  0  0  0  0  0  0
  2  1  1  0
  3  2  1  0
  4  3  1  0
  5  4  1  0
  5  6  1  1
  7  8  2  0
  7  5  1  0
  9  7  1  0
 10  9  1  0
 10 11  1  1
 12 11  1  0
 12 20  1  0
 13 14  1  0
 13 12  2  0
 14 15  1  0
 15 16  1  0
 15 20  2  0
 16 17  2  0
 17 18  1  0
 19 18  2  0
 20 19  1  0
 21 10  1  0
 22 21  2  0
 23 21  1  0
 24 23  1  0
 25 26  1  0
 24 25  1  1
 27 24  1  0
 27 28  1  0
 29 27  2  0
M  END
$$$$
