MWC.pdb
     RDKit          3D

 29 30  0  0  1  0  0  0  0  0999 V2000
   15.7654  -15.0864   19.5213 C   0  0  0  0  0  0  0  0  0  0  0  0
   14.1849  -14.1994   19.5670 S   0  0  0  0  0  0  0  0  0  0  0  0
   12.8809  -15.3783   20.0548 C   0  0  0  0  0  0  0  0  0  0  0  0
   11.5322  -14.6769   19.9345 C   0  0  0  0  0  0  0  0  0  0  0  0
   10.5011  -15.6633   20.4444 C   0  0  2  0  0  0  0  0  0  0  0  0
    9.4062  -15.7967   19.5295 N   0  0  0  0  0  0  0  0  0  0  0  0
   10.0268  -15.2314   21.8013 C   0  0  0  0  0  0  0  0  0  0  0  0
    9.8529  -14.0158   22.0623 O   0  0  0  0  0  0  0  0  0  0  0  0
    9.7583  -16.1573   22.8309 N   0  0  0  0  0  0  0  0  0  0  0  0
    9.3023  -15.7255   24.1702 C   0  0  1  0  0  0  0  0  0  0  0  0
    8.0363  -16.4080   24.5187 C   0  0  0  0  0  0  0  0  0  0  0  0
    7.0385  -15.5070   25.0986 C   0  0  0  0  0  0  0  0  0  0  0  0
    5.7381  -15.7889   25.5135 C   0  0  0  0  0  0  0  0  0  0  0  0
    5.1339  -14.6727   25.9536 N   0  0  0  0  0  0  0  0  0  0  0  0
    5.9800  -13.6393   25.8522 C   0  0  0  0  0  0  0  0  0  0  0  0
    5.8044  -12.3100   26.1784 C   0  0  0  0  0  0  0  0  0  0  0  0
    6.8657  -11.4590   25.9617 C   0  0  0  0  0  0  0  0  0  0  0  0
    8.0546  -11.9234   25.4388 C   0  0  0  0  0  0  0  0  0  0  0  0
    8.1989  -13.2596   25.1226 C   0  0  0  0  0  0  0  0  0  0  0  0
    7.1663  -14.1298   25.3253 C   0  0  0  0  0  0  0  0  0  0  0  0
   10.4355  -15.9034   25.1010 C   0  0  0  0  0  0  0  0  0  0  0  0
   11.3674  -16.7536   24.8281 O   0  0  0  0  0  0  0  0  0  0  0  0
   10.6495  -15.2194   26.3198 N   0  0  0  0  0  0  0  0  0  0  0  0
   11.6356  -15.6404   27.2498 C   0  0  1  0  0  0  0  0  0  0  0  0
   11.6218  -14.8829   28.5556 C   0  0  0  0  0  0  0  0  0  0  0  0
    9.9253  -14.5704   29.1027 S   0  0  0  0  0  0  0  0  0  0  0  0
   11.4758  -17.0661   27.5802 C   0  0  0  0  0  0  0  0  0  0  0  0
   10.3941  -17.8467   27.2355 O   0  0  0  0  0  0  0  0  0  0  0  0
   12.3868  -17.6881   28.2428 O   0  0  0  0  0  0  0  0  0  0  0  0
  2  1  1  0
  3  2  1  0
  4  3  1  0
  5  4  1  0
  5  6  1  6
  7  8  2  0
  7  5  1  0
  9  7  1  0
 10  9  1  0
 10 11  1  1
 12 11  1  0
 12 20  1  0
 13 14  1  0
 13 12  2  0
 14 15  1  0
 15 16  1  0
 15 20  2  0
 16 17  2  0
 17 18  1  0
 19 18  2  0
 20 19  1  0
 21 10  1  0
 22 21  2  0
 23 21  1  0
 24 23  1  0
 25 26  1  0
 24 25  1  1
 27 24  1  0
 27 28  1  0
 29 27  2  0
M  END
$$$$
