MWC.pdb
     RDKit          3D

 29 30  0  0  1  0  0  0  0  0999 V2000
   10.2999  -21.8380   20.4921 C   0  0  0  0  0  0  0  0  0  0  0  0
   10.1370  -21.5689   18.7066 S   0  0  0  0  0  0  0  0  0  0  0  0
    9.7383  -19.8108   18.4267 C   0  0  0  0  0  0  0  0  0  0  0  0
    9.7336  -19.1004   19.7761 C   0  0  0  0  0  0  0  0  0  0  0  0
    9.3250  -17.6689   19.4934 C   0  0  2  0  0  0  0  0  0  0  0  0
   10.1268  -17.0903   18.4559 N   0  0  0  0  0  0  0  0  0  0  0  0
    9.4114  -16.8669   20.7590 C   0  0  0  0  0  0  0  0  0  0  0  0
   10.4227  -16.1650   21.0050 O   0  0  0  0  0  0  0  0  0  0  0  0
    8.3758  -16.8646   21.7167 N   0  0  0  0  0  0  0  0  0  0  0  0
    8.4647  -16.0700   22.9612 C   0  0  1  0  0  0  0  0  0  0  0  0
    7.1145  -15.6332   23.3809 C   0  0  0  0  0  0  0  0  0  0  0  0
    7.0827  -15.0911   24.7407 C   0  0  0  0  0  0  0  0  0  0  0  0
    6.9020  -15.7626   25.9486 C   0  0  0  0  0  0  0  0  0  0  0  0
    6.8978  -14.8929   26.9725 N   0  0  0  0  0  0  0  0  0  0  0  0
    7.0696  -13.6506   26.5018 C   0  0  0  0  0  0  0  0  0  0  0  0
    7.1317  -12.4459   27.1718 C   0  0  0  0  0  0  0  0  0  0  0  0
    7.3177  -11.3095   26.4157 C   0  0  0  0  0  0  0  0  0  0  0  0
    7.4366  -11.3798   25.0432 C   0  0  0  0  0  0  0  0  0  0  0  0
    7.3702  -12.6008   24.4024 C   0  0  0  0  0  0  0  0  0  0  0  0
    7.1866  -13.7465   25.1225 C   0  0  0  0  0  0  0  0  0  0  0  0
    9.2439  -16.8612   23.9354 C   0  0  0  0  0  0  0  0  0  0  0  0
    9.1519  -18.1486   23.9419 O   0  0  0  0  0  0  0  0  0  0  0  0
   10.1350  -16.3648   24.9145 N   0  0  0  0  0  0  0  0  0  0  0  0
   10.9955  -17.2242   25.6462 C   0  0  1  0  0  0  0  0  0  0  0  0
   12.4454  -17.1511   25.2321 C   0  0  0  0  0  0  0  0  0  0  0  0
   13.5171  -16.9195   26.6719 S   0  0  0  0  0  0  0  0  0  0  0  0
   10.9456  -16.9211   27.0859 C   0  0  0  0  0  0  0  0  0  0  0  0
   11.5964  -17.6302   28.0718 O   0  0  0  0  0  0  0  0  0  0  0  0
   10.2549  -15.9256   27.5193 O   0  0  0  0  0  0  0  0  0  0  0  0
  2  1  1  0
  3  2  1  0
  4  3  1  0
  5  4  1  0
  5  6  1  6
  7  8  2  0
  7  5  1  0
  9  7  1  0
 10  9  1  0
 10 11  1  1
 12 11  1  0
 12 20  1  0
 13 14  1  0
 13 12  2  0
 14 15  1  0
 15 16  1  0
 15 20  2  0
 16 17  2  0
 17 18  1  0
 19 18  2  0
 20 19  1  0
 21 10  1  0
 22 21  2  0
 23 21  1  0
 24 23  1  0
 25 26  1  0
 24 25  1  6
 27 24  1  0
 27 28  1  0
 29 27  2  0
M  END
$$$$
