MWC.pdb
     RDKit          3D

 29 30  0  0  1  0  0  0  0  0999 V2000
   13.3485  -21.2641   18.5505 C   0  0  0  0  0  0  0  0  0  0  0  0
   11.8505  -21.2174   19.5707 S   0  0  0  0  0  0  0  0  0  0  0  0
   10.9646  -19.6626   19.2158 C   0  0  0  0  0  0  0  0  0  0  0  0
   11.0029  -18.7933   20.4682 C   0  0  0  0  0  0  0  0  0  0  0  0
   10.2968  -17.5032   20.1032 C   0  0  2  0  0  0  0  0  0  0  0  0
   10.9788  -16.8128   19.0487 N   0  0  0  0  0  0  0  0  0  0  0  0
   10.1708  -16.6413   21.3254 C   0  0  0  0  0  0  0  0  0  0  0  0
   11.1450  -15.9633   21.7345 O   0  0  0  0  0  0  0  0  0  0  0  0
    8.9700  -16.5543   22.0603 N   0  0  0  0  0  0  0  0  0  0  0  0
    8.8914  -15.8242   23.3445 C   0  0  1  0  0  0  0  0  0  0  0  0
    7.5118  -15.3373   23.5667 C   0  0  0  0  0  0  0  0  0  0  0  0
    7.3184  -14.7431   24.8909 C   0  0  0  0  0  0  0  0  0  0  0  0
    6.1316  -14.5167   25.5858 C   0  0  0  0  0  0  0  0  0  0  0  0
    6.3831  -13.9120   26.7588 N   0  0  0  0  0  0  0  0  0  0  0  0
    7.7025  -13.7191   26.8860 C   0  0  0  0  0  0  0  0  0  0  0  0
    8.4224  -13.1404   27.9111 C   0  0  0  0  0  0  0  0  0  0  0  0
    9.7909  -13.0757   27.7663 C   0  0  0  0  0  0  0  0  0  0  0  0
   10.4110  -13.5717   26.6385 C   0  0  0  0  0  0  0  0  0  0  0  0
    9.6624  -14.1451   25.6301 C   0  0  0  0  0  0  0  0  0  0  0  0
    8.3039  -14.2250   25.7424 C   0  0  0  0  0  0  0  0  0  0  0  0
    9.4669  -16.6997   24.3859 C   0  0  0  0  0  0  0  0  0  0  0  0
    9.1162  -17.9401   24.4523 O   0  0  0  0  0  0  0  0  0  0  0  0
   10.4122  -16.3379   25.3731 N   0  0  0  0  0  0  0  0  0  0  0  0
   11.0601  -17.3100   26.1792 C   0  0  1  0  0  0  0  0  0  0  0  0
   12.5674  -17.2275   26.1611 C   0  0  0  0  0  0  0  0  0  0  0  0
   13.2931  -18.7937   25.6178 S   0  0  0  0  0  0  0  0  0  0  0  0
   10.6417  -17.1938   27.5858 C   0  0  0  0  0  0  0  0  0  0  0  0
   10.5884  -18.2330   28.4889 O   0  0  0  0  0  0  0  0  0  0  0  0
   10.2859  -16.0553   28.0686 O   0  0  0  0  0  0  0  0  0  0  0  0
  2  1  1  0
  3  2  1  0
  4  3  1  0
  5  4  1  0
  5  6  1  6
  7  8  2  0
  7  5  1  0
  9  7  1  0
 10  9  1  0
 10 11  1  1
 12 11  1  0
 12 20  1  0
 13 14  1  0
 13 12  2  0
 14 15  1  0
 15 16  1  0
 15 20  2  0
 16 17  2  0
 17 18  1  0
 19 18  2  0
 20 19  1  0
 21 10  1  0
 22 21  2  0
 23 21  1  0
 24 23  1  0
 25 26  1  0
 24 25  1  1
 27 24  1  0
 27 28  1  0
 29 27  2  0
M  END
$$$$
