GFS.pdb
     RDKit          3D

 22 22  0  0  1  0  0  0  0  0999 V2000
   28.9823  -22.9935  -16.2668 N   0  0  0  0  0  0  0  0  0  0  0  0
   27.9130  -22.0710  -16.4997 C   0  0  0  0  0  0  0  0  0  0  0  0
   26.9907  -22.0868  -15.3360 C   0  0  0  0  0  0  0  0  0  0  0  0
   26.5362  -23.1815  -14.8796 O   0  0  0  0  0  0  0  0  0  0  0  0
   26.5793  -20.8779  -14.6862 N   0  0  0  0  0  0  0  0  0  0  0  0
   25.6752  -20.8682  -13.5882 C   0  0  1  0  0  0  0  0  0  0  0  0
   26.0269  -19.8605  -12.5221 C   0  0  0  0  0  0  0  0  0  0  0  0
   26.7887  -20.4277  -11.4030 C   0  0  0  0  0  0  0  0  0  0  0  0
   26.1704  -20.6272  -10.1968 C   0  0  0  0  0  0  0  0  0  0  0  0
   26.8286  -21.1533   -9.1069 C   0  0  0  0  0  0  0  0  0  0  0  0
   28.1545  -21.4799   -9.2682 C   0  0  0  0  0  0  0  0  0  0  0  0
   28.7834  -21.2822  -10.4784 C   0  0  0  0  0  0  0  0  0  0  0  0
   28.1047  -20.7552  -11.5524 C   0  0  0  0  0  0  0  0  0  0  0  0
   24.2538  -20.6668  -13.9612 C   0  0  0  0  0  0  0  0  0  0  0  0
   23.9930  -19.6522  -14.6563 O   0  0  0  0  0  0  0  0  0  0  0  0
   21.0886  -23.3612  -13.2247 O   0  0  0  0  0  0  0  0  0  0  0  0
   21.1056  -22.5466  -14.3500 C   0  0  0  0  0  0  0  0  0  0  0  0
   21.8528  -21.2427  -14.0637 C   0  0  2  0  0  0  0  0  0  0  0  0
   23.1949  -21.5184  -13.5969 N   0  0  0  0  0  0  0  0  0  0  0  0
   21.0941  -20.4106  -13.0956 C   0  0  0  0  0  0  0  0  0  0  0  0
   19.8548  -19.8960  -13.4430 O   0  0  0  0  0  0  0  0  0  0  0  0
   21.5270  -20.1400  -11.9454 O   0  0  0  0  0  0  0  0  0  0  0  0
  1  2  1  0
  3  2  1  0
  3  4  2  0
  5  3  1  0
  6  5  1  0
  6 14  1  0
  6  7  1  1
  8  7  1  0
  9  8  2  0
 10  9  1  0
 11 10  2  0
 11 12  1  0
 12 13  2  0
 13  8  1  0
 14 19  1  0
 15 14  2  0
 17 16  1  0
 18 17  1  1
 18 20  1  0
 19 18  1  0
 20 22  2  0
 20 21  1  0
M  END
$$$$
