GFS.pdb
     RDKit          3D

 22 22  0  0  1  0  0  0  0  0999 V2000
   29.1436  -20.5005  -14.8278 N   0  0  0  0  0  0  0  0  0  0  0  0
   28.4914  -19.7259  -13.8162 C   0  0  0  0  0  0  0  0  0  0  0  0
   27.3657  -20.5107  -13.2485 C   0  0  0  0  0  0  0  0  0  0  0  0
   26.9709  -21.5812  -13.8067 O   0  0  0  0  0  0  0  0  0  0  0  0
   26.6849  -20.0958  -12.0580 N   0  0  0  0  0  0  0  0  0  0  0  0
   25.6225  -20.8462  -11.4825 C   0  0  1  0  0  0  0  0  0  0  0  0
   25.4100  -20.5690  -10.0149 C   0  0  0  0  0  0  0  0  0  0  0  0
   26.6350  -20.6685   -9.2126 C   0  0  0  0  0  0  0  0  0  0  0  0
   27.6153  -21.5513   -9.5825 C   0  0  0  0  0  0  0  0  0  0  0  0
   28.7870  -21.6950   -8.8723 C   0  0  0  0  0  0  0  0  0  0  0  0
   28.9480  -20.9088   -7.7557 C   0  0  0  0  0  0  0  0  0  0  0  0
   27.9665  -20.0185   -7.3772 C   0  0  0  0  0  0  0  0  0  0  0  0
   26.8049  -19.8931   -8.1029 C   0  0  0  0  0  0  0  0  0  0  0  0
   24.3180  -20.6981  -12.1726 C   0  0  0  0  0  0  0  0  0  0  0  0
   23.9137  -19.5234  -12.3652 O   0  0  0  0  0  0  0  0  0  0  0  0
   22.1863  -23.8896  -13.6670 O   0  0  0  0  0  0  0  0  0  0  0  0
   22.1004  -22.7016  -14.3822 C   0  0  0  0  0  0  0  0  0  0  0  0
   22.3773  -21.5015  -13.4745 C   0  0  2  0  0  0  0  0  0  0  0  0
   23.5152  -21.7636  -12.6191 N   0  0  0  0  0  0  0  0  0  0  0  0
   21.1665  -21.1546  -12.6879 C   0  0  0  0  0  0  0  0  0  0  0  0
   19.9935  -20.8019  -13.3368 O   0  0  0  0  0  0  0  0  0  0  0  0
   21.1470  -21.1636  -11.4297 O   0  0  0  0  0  0  0  0  0  0  0  0
  1  2  1  0
  3  2  1  0
  3  4  2  0
  5  3  1  0
  6  5  1  0
  6 14  1  0
  6  7  1  1
  8  7  1  0
  9  8  2  0
 10  9  1  0
 11 10  2  0
 11 12  1  0
 12 13  2  0
 13  8  1  0
 14 19  1  0
 15 14  2  0
 17 16  1  0
 18 17  1  1
 18 20  1  0
 19 18  1  0
 20 22  2  0
 20 21  1  0
M  END
$$$$
