GFS.pdb
     RDKit          3D

 22 22  0  0  1  0  0  0  0  0999 V2000
   14.3298  -15.5915  -16.3518 N   0  0  0  0  0  0  0  0  0  0  0  0
   14.1393  -14.1858  -16.5430 C   0  0  0  0  0  0  0  0  0  0  0  0
   15.1866  -13.4439  -15.7960 C   0  0  0  0  0  0  0  0  0  0  0  0
   15.2828  -13.5466  -14.5336 O   0  0  0  0  0  0  0  0  0  0  0  0
   16.1233  -12.5893  -16.4631 N   0  0  0  0  0  0  0  0  0  0  0  0
   17.1222  -11.8557  -15.7653 C   0  0  1  0  0  0  0  0  0  0  0  0
   18.5312  -12.2281  -16.1549 C   0  0  0  0  0  0  0  0  0  0  0  0
   18.8544  -13.6402  -15.9189 C   0  0  0  0  0  0  0  0  0  0  0  0
   18.6132  -14.5624  -16.9030 C   0  0  0  0  0  0  0  0  0  0  0  0
   18.8915  -15.9023  -16.7448 C   0  0  0  0  0  0  0  0  0  0  0  0
   19.4309  -16.2966  -15.5430 C   0  0  0  0  0  0  0  0  0  0  0  0
   19.6764  -15.3751  -14.5483 C   0  0  0  0  0  0  0  0  0  0  0  0
   19.3899  -14.0422  -14.7301 C   0  0  0  0  0  0  0  0  0  0  0  0
   16.9904  -10.3819  -15.8684 C   0  0  0  0  0  0  0  0  0  0  0  0
   16.6386   -9.9254  -16.9857 O   0  0  0  0  0  0  0  0  0  0  0  0
   16.6545   -5.9546  -13.9685 O   0  0  0  0  0  0  0  0  0  0  0  0
   16.8317   -7.3137  -13.7411 C   0  0  0  0  0  0  0  0  0  0  0  0
   17.1031   -8.0517  -15.0535 C   0  0  2  0  0  0  0  0  0  0  0  0
   17.2277   -9.4747  -14.8197 N   0  0  0  0  0  0  0  0  0  0  0  0
   18.3075   -7.4969  -15.7222 C   0  0  0  0  0  0  0  0  0  0  0  0
   18.1927   -6.4012  -16.5634 O   0  0  0  0  0  0  0  0  0  0  0  0
   19.4580   -7.9809  -15.5622 O   0  0  0  0  0  0  0  0  0  0  0  0
  1  2  1  0
  3  2  1  0
  3  4  2  0
  5  3  1  0
  6  5  1  0
  6 14  1  0
  6  7  1  6
  8  7  1  0
  9  8  2  0
 10  9  1  0
 11 10  2  0
 11 12  1  0
 12 13  2  0
 13  8  1  0
 14 19  1  0
 15 14  2  0
 17 16  1  0
 18 17  1  1
 18 20  1  0
 19 18  1  0
 20 22  2  0
 20 21  1  0
M  END
$$$$
