GFS.pdb
     RDKit          3D

 22 22  0  0  1  0  0  0  0  0999 V2000
   28.9730  -22.4069  -17.0391 N   0  0  0  0  0  0  0  0  0  0  0  0
   28.0228  -21.3545  -16.8428 C   0  0  0  0  0  0  0  0  0  0  0  0
   27.2292  -21.6336  -15.6190 C   0  0  0  0  0  0  0  0  0  0  0  0
   27.0659  -22.8234  -15.2055 O   0  0  0  0  0  0  0  0  0  0  0  0
   26.6204  -20.5809  -14.8613 N   0  0  0  0  0  0  0  0  0  0  0  0
   25.8672  -20.8247  -13.6797 C   0  0  1  0  0  0  0  0  0  0  0  0
   26.2802  -19.9669  -12.5096 C   0  0  0  0  0  0  0  0  0  0  0  0
   27.4762  -20.4556  -11.8132 C   0  0  0  0  0  0  0  0  0  0  0  0
   27.3520  -21.0187  -10.5705 C   0  0  0  0  0  0  0  0  0  0  0  0
   28.4340  -21.4947   -9.8631 C   0  0  0  0  0  0  0  0  0  0  0  0
   29.6709  -21.3857  -10.4538 C   0  0  0  0  0  0  0  0  0  0  0  0
   29.8041  -20.8205  -11.7035 C   0  0  0  0  0  0  0  0  0  0  0  0
   28.7083  -20.3523  -12.3903 C   0  0  0  0  0  0  0  0  0  0  0  0
   24.3988  -20.6991  -13.8471 C   0  0  0  0  0  0  0  0  0  0  0  0
   23.9825  -19.6421  -14.3858 O   0  0  0  0  0  0  0  0  0  0  0  0
   21.9281  -23.6070  -14.8731 O   0  0  0  0  0  0  0  0  0  0  0  0
   21.3456  -22.8284  -13.8808 C   0  0  0  0  0  0  0  0  0  0  0  0
   22.0549  -21.4778  -13.7657 C   0  0  2  0  0  0  0  0  0  0  0  0
   23.4554  -21.6648  -13.4514 N   0  0  0  0  0  0  0  0  0  0  0  0
   21.3764  -20.6182  -12.7627 C   0  0  0  0  0  0  0  0  0  0  0  0
   20.1687  -20.0115  -13.0706 O   0  0  0  0  0  0  0  0  0  0  0  0
   21.8513  -20.4048  -11.6171 O   0  0  0  0  0  0  0  0  0  0  0  0
  1  2  1  0
  3  2  1  0
  3  4  2  0
  5  3  1  0
  6  5  1  0
  6 14  1  0
  6  7  1  1
  8  7  1  0
  9  8  2  0
 10  9  1  0
 11 10  2  0
 11 12  1  0
 12 13  2  0
 13  8  1  0
 14 19  1  0
 15 14  2  0
 17 16  1  0
 18 17  1  1
 18 20  1  0
 19 18  1  0
 20 22  2  0
 20 21  1  0
M  END
$$$$
