GFS.pdb
     RDKit          3D

 22 22  0  0  1  0  0  0  0  0999 V2000
   44.8699  -11.9681   -6.7450 N   0  0  0  0  0  0  0  0  0  0  0  0
   44.1586  -11.1545   -5.8064 C   0  0  0  0  0  0  0  0  0  0  0  0
   42.9962  -10.5270   -6.4849 C   0  0  0  0  0  0  0  0  0  0  0  0
   42.8634  -10.5947   -7.7463 O   0  0  0  0  0  0  0  0  0  0  0  0
   41.9856   -9.8255   -5.7503 N   0  0  0  0  0  0  0  0  0  0  0  0
   40.8776   -9.1961   -6.3821 C   0  0  1  0  0  0  0  0  0  0  0  0
   39.5767   -9.3695   -5.6384 C   0  0  0  0  0  0  0  0  0  0  0  0
   38.4576   -8.6235   -6.2260 C   0  0  0  0  0  0  0  0  0  0  0  0
   37.8055   -9.1323   -7.3183 C   0  0  0  0  0  0  0  0  0  0  0  0
   36.7498   -8.4816   -7.9183 C   0  0  0  0  0  0  0  0  0  0  0  0
   36.3605   -7.2791   -7.3770 C   0  0  0  0  0  0  0  0  0  0  0  0
   37.0114   -6.7608   -6.2785 C   0  0  0  0  0  0  0  0  0  0  0  0
   38.0632   -7.4294   -5.6968 C   0  0  0  0  0  0  0  0  0  0  0  0
   41.0627   -7.7499   -6.6551 C   0  0  0  0  0  0  0  0  0  0  0  0
   41.5233   -7.0545   -5.7144 O   0  0  0  0  0  0  0  0  0  0  0  0
   42.5624   -6.1520   -9.8883 O   0  0  0  0  0  0  0  0  0  0  0  0
   41.4414   -5.4240   -9.5094 C   0  0  0  0  0  0  0  0  0  0  0  0
   41.0761   -5.7114   -8.0518 C   0  0  2  0  0  0  0  0  0  0  0  0
   40.7635   -7.1134   -7.8734 N   0  0  0  0  0  0  0  0  0  0  0  0
   39.9569   -4.8387   -7.6147 C   0  0  0  0  0  0  0  0  0  0  0  0
   40.2135   -3.7053   -6.8590 O   0  0  0  0  0  0  0  0  0  0  0  0
   38.7553   -5.0787   -7.9010 O   0  0  0  0  0  0  0  0  0  0  0  0
  1  2  1  0
  3  2  1  0
  3  4  2  0
  5  3  1  0
  6  5  1  0
  6 14  1  0
  6  7  1  1
  8  7  1  0
  9  8  2  0
 10  9  1  0
 11 10  2  0
 11 12  1  0
 12 13  2  0
 13  8  1  0
 14 19  1  0
 15 14  2  0
 17 16  1  0
 18 17  1  6
 18 20  1  0
 19 18  1  0
 20 22  2  0
 20 21  1  0
M  END
$$$$
