GFS.pdb
     RDKit          3D

 22 22  0  0  1  0  0  0  0  0999 V2000
   21.2709  -21.6753  -11.4232 N   0  0  0  0  0  0  0  0  0  0  0  0
   21.9380  -21.0272  -10.3352 C   0  0  0  0  0  0  0  0  0  0  0  0
   23.1800  -20.3849  -10.8354 C   0  0  0  0  0  0  0  0  0  0  0  0
   23.1666  -19.1921  -11.2715 O   0  0  0  0  0  0  0  0  0  0  0  0
   24.4335  -21.0789  -10.8463 N   0  0  0  0  0  0  0  0  0  0  0  0
   25.6439  -20.4667  -11.2742 C   0  0  1  0  0  0  0  0  0  0  0  0
   26.8523  -20.8897  -10.4763 C   0  0  0  0  0  0  0  0  0  0  0  0
   26.8530  -20.3885   -9.0968 C   0  0  0  0  0  0  0  0  0  0  0  0
   26.9916  -19.0452   -8.8658 C   0  0  0  0  0  0  0  0  0  0  0  0
   27.0024  -18.5108   -7.5961 C   0  0  0  0  0  0  0  0  0  0  0  0
   26.8670  -19.3846   -6.5430 C   0  0  0  0  0  0  0  0  0  0  0  0
   26.7272  -20.7370   -6.7673 C   0  0  0  0  0  0  0  0  0  0  0  0
   26.7194  -21.2469   -8.0447 C   0  0  0  0  0  0  0  0  0  0  0  0
   25.9541  -20.6520  -12.7128 C   0  0  0  0  0  0  0  0  0  0  0  0
   25.8289  -21.8165  -13.1697 O   0  0  0  0  0  0  0  0  0  0  0  0
   27.3839  -17.6946  -15.3345 O   0  0  0  0  0  0  0  0  0  0  0  0
   26.4174  -18.5796  -15.7959 C   0  0  0  0  0  0  0  0  0  0  0  0
   26.4626  -19.8902  -15.0080 C   0  0  2  0  0  0  0  0  0  0  0  0
   26.3718  -19.6316  -13.5866 N   0  0  0  0  0  0  0  0  0  0  0  0
   27.6856  -20.6602  -15.3496 C   0  0  0  0  0  0  0  0  0  0  0  0
   27.8312  -21.2082  -16.6144 O   0  0  0  0  0  0  0  0  0  0  0  0
   28.6226  -20.8472  -14.5307 O   0  0  0  0  0  0  0  0  0  0  0  0
  1  2  1  0
  3  2  1  0
  3  4  2  0
  5  3  1  0
  6  5  1  0
  6 14  1  0
  6  7  1  1
  8  7  1  0
  9  8  2  0
 10  9  1  0
 11 10  2  0
 11 12  1  0
 12 13  2  0
 13  8  1  0
 14 19  1  0
 15 14  2  0
 17 16  1  0
 18 17  1  6
 18 20  1  0
 19 18  1  0
 20 22  2  0
 20 21  1  0
M  END
$$$$
