RLC.pdb
     RDKit          3D

 26 25  0  0  1  0  0  0  0  0999 V2000
    9.3075  -18.0291   18.5640 N   0  0  0  0  0  0  0  0  0  0  0  0
    8.4924  -19.0518   18.0033 C   0  0  0  0  0  0  0  0  0  0  0  0
    8.6471  -19.3722   16.7590 N   0  0  0  0  0  0  0  0  0  0  0  0
    7.5053  -19.7355   18.7781 N   0  0  0  0  0  0  0  0  0  0  0  0
    7.2977  -19.3640   20.1938 C   0  0  0  0  0  0  0  0  0  0  0  0
    7.4060  -17.8807   20.3530 C   0  0  0  0  0  0  0  0  0  0  0  0
    8.1541  -17.3791   21.5346 C   0  0  0  0  0  0  0  0  0  0  0  0
    8.0316  -15.9108   21.7099 C   0  0  2  0  0  0  0  0  0  0  0  0
    8.6079  -15.2108   20.6046 N   0  0  0  0  0  0  0  0  0  0  0  0
    8.5832  -15.4525   23.0188 C   0  0  0  0  0  0  0  0  0  0  0  0
    9.8342  -15.3173   23.1325 O   0  0  0  0  0  0  0  0  0  0  0  0
    8.0524  -20.0877   16.3015 C   0  0  0  0  0  0  0  0  0  0  0  0
    5.9721  -12.0873   26.6123 C   0  0  1  0  0  0  0  0  0  0  0  0
    7.0160  -12.7288   25.7454 C   0  0  0  0  0  0  0  0  0  0  0  0
    8.2757  -11.8433   25.8952 C   0  0  0  0  0  0  0  0  0  0  0  0
    7.3872  -14.0494   26.2868 C   0  0  2  0  0  0  0  0  0  0  0  0
    8.4224  -14.8197   25.4476 N   0  0  0  0  0  0  0  0  0  0  0  0
    7.8092  -15.1459   24.1665 C   0  0  0  0  0  0  0  0  0  0  0  0
    8.9578  -15.9804   26.1415 O   0  0  0  0  0  0  0  0  0  0  0  0
    8.2270  -16.9786   26.3734 N   0  0  0  0  0  0  0  0  0  0  0  0
   10.3202  -16.0892   26.6061 C   0  0  1  0  0  0  0  0  0  0  0  0
   10.7471  -17.3443   27.2153 C   0  0  0  0  0  0  0  0  0  0  0  0
   12.1316  -17.7382   26.7900 S   0  0  0  0  0  0  0  0  0  0  0  0
   12.3208  -17.7295   24.9736 C   0  0  0  0  0  0  0  0  0  0  0  0
   10.7695  -17.1788   28.6911 O   0  0  0  0  0  0  0  0  0  0  0  0
   11.1916  -18.1842   29.5464 O   0  0  0  0  0  0  0  0  0  0  0  0
  2  3  2  0
  2  1  1  0
  4  2  1  0
  5  4  1  0
  6  5  1  0
  7  6  1  0
  8  7  1  0
  8  9  1  6
 10 17  1  0
 10  8  1  0
 11 10  2  0
 13 12  1  6
 14 13  1  0
 15 13  1  0
 16 17  1  0
 16 15  1  6
 18 16  1  0
 19 18  2  0
 20 18  1  0
 21 24  1  0
 21 20  1  0
 21 22  1  1
 23 22  1  0
 24 25  1  0
 26 24  2  0
M  END
$$$$
