RLC.pdb
     RDKit          3D

 26 25  0  0  1  0  0  0  0  0999 V2000
    8.4865  -15.2149   16.5627 N   0  0  0  0  0  0  0  0  0  0  0  0
    8.3738  -13.7990   16.4781 C   0  0  0  0  0  0  0  0  0  0  0  0
    8.6723  -13.2064   15.3670 N   0  0  0  0  0  0  0  0  0  0  0  0
    7.9396  -13.0119   17.5891 N   0  0  0  0  0  0  0  0  0  0  0  0
    7.3356  -13.6736   18.7650 C   0  0  0  0  0  0  0  0  0  0  0  0
    8.3623  -14.5061   19.4651 C   0  0  0  0  0  0  0  0  0  0  0  0
    8.7206  -14.1143   20.8527 C   0  0  0  0  0  0  0  0  0  0  0  0
    8.6093  -15.2398   21.8131 C   0  0  2  0  0  0  0  0  0  0  0  0
    7.3244  -15.8610   21.7313 N   0  0  0  0  0  0  0  0  0  0  0  0
    8.9494  -14.8262   23.2063 C   0  0  0  0  0  0  0  0  0  0  0  0
   10.1425  -14.5008   23.4652 O   0  0  0  0  0  0  0  0  0  0  0  0
    8.9849  -13.7364   14.5325 C   0  0  0  0  0  0  0  0  0  0  0  0
    5.4267  -12.1826   26.1826 C   0  0  1  0  0  0  0  0  0  0  0  0
    6.6736  -12.6812   25.5121 C   0  0  0  0  0  0  0  0  0  0  0  0
    7.6398  -11.4731   25.4902 C   0  0  0  0  0  0  0  0  0  0  0  0
    7.3285  -13.7036   26.3491 C   0  0  2  0  0  0  0  0  0  0  0  0
    8.4582  -14.4798   25.6485 N   0  0  0  0  0  0  0  0  0  0  0  0
    8.0305  -14.7620   24.2842 C   0  0  0  0  0  0  0  0  0  0  0  0
    8.8630  -15.6687   26.3822 O   0  0  0  0  0  0  0  0  0  0  0  0
    9.1808  -15.5911   27.5976 N   0  0  0  0  0  0  0  0  0  0  0  0
    8.9321  -16.9910   25.8074 C   0  0  1  0  0  0  0  0  0  0  0  0
    9.2867  -18.1077   26.6768 C   0  0  0  0  0  0  0  0  0  0  0  0
    8.2663  -19.2073   26.6310 S   0  0  0  0  0  0  0  0  0  0  0  0
    6.6818  -18.7063   27.3885 C   0  0  0  0  0  0  0  0  0  0  0  0
   10.5764  -18.6834   26.2176 O   0  0  0  0  0  0  0  0  0  0  0  0
   11.1551  -19.7883   26.8213 O   0  0  0  0  0  0  0  0  0  0  0  0
  2  3  2  0
  2  1  1  0
  4  2  1  0
  5  4  1  0
  6  5  1  0
  7  6  1  0
  8  7  1  0
  8  9  1  1
 10 17  1  0
 10  8  1  0
 11 10  2  0
 13 12  1  6
 14 13  1  0
 15 13  1  0
 16 17  1  0
 16 15  1  6
 18 16  1  0
 19 18  2  0
 20 18  1  0
 21 24  1  0
 21 20  1  0
 21 22  1  1
 23 22  1  0
 24 25  1  0
 26 24  2  0
M  END
$$$$
