RLC.pdb
     RDKit          3D

 26 25  0  0  1  0  0  0  0  0999 V2000
    7.7369  -14.3020   15.7584 N   0  0  0  0  0  0  0  0  0  0  0  0
    8.8170  -14.7758   16.5544 C   0  0  0  0  0  0  0  0  0  0  0  0
    9.5183  -15.7795   16.1350 N   0  0  0  0  0  0  0  0  0  0  0  0
    9.1487  -14.1730   17.8068 N   0  0  0  0  0  0  0  0  0  0  0  0
    8.1914  -13.2500   18.4527 C   0  0  0  0  0  0  0  0  0  0  0  0
    7.4674  -13.9556   19.5551 C   0  0  0  0  0  0  0  0  0  0  0  0
    7.9042  -13.6673   20.9456 C   0  0  0  0  0  0  0  0  0  0  0  0
    8.1791  -14.8982   21.7271 C   0  0  2  0  0  0  0  0  0  0  0  0
    7.0775  -15.8068   21.6605 N   0  0  0  0  0  0  0  0  0  0  0  0
    8.5771  -14.5947   23.1333 C   0  0  0  0  0  0  0  0  0  0  0  0
    9.8031  -14.4325   23.3920 O   0  0  0  0  0  0  0  0  0  0  0  0
   10.2660  -16.2033   16.7149 C   0  0  0  0  0  0  0  0  0  0  0  0
    5.3805  -11.8532   26.6702 C   0  0  1  0  0  0  0  0  0  0  0  0
    6.6047  -12.3122   25.9329 C   0  0  0  0  0  0  0  0  0  0  0  0
    7.7327  -11.3472   26.3683 C   0  0  0  0  0  0  0  0  0  0  0  0
    7.0142  -13.6476   26.4062 C   0  0  2  0  0  0  0  0  0  0  0  0
    8.1488  -14.2969   25.5936 N   0  0  0  0  0  0  0  0  0  0  0  0
    7.6805  -14.4663   24.2240 C   0  0  0  0  0  0  0  0  0  0  0  0
    8.6351  -15.5301   26.1922 O   0  0  0  0  0  0  0  0  0  0  0  0
    8.9412  -15.5697   27.4125 N   0  0  0  0  0  0  0  0  0  0  0  0
    8.8018  -16.7697   25.4715 C   0  0  1  0  0  0  0  0  0  0  0  0
    9.3824  -17.9084   26.1750 C   0  0  0  0  0  0  0  0  0  0  0  0
    8.6064  -19.1722   25.9443 S   0  0  0  0  0  0  0  0  0  0  0  0
    9.3412  -20.5985   26.8168 C   0  0  0  0  0  0  0  0  0  0  0  0
   10.7588  -18.1367   25.6658 O   0  0  0  0  0  0  0  0  0  0  0  0
   11.6453  -19.0058   26.2813 O   0  0  0  0  0  0  0  0  0  0  0  0
  2  3  2  0
  2  1  1  0
  4  2  1  0
  5  4  1  0
  6  5  1  0
  7  6  1  0
  8  7  1  0
  8  9  1  1
 10 17  1  0
 10  8  1  0
 11 10  2  0
 13 12  1  6
 14 13  1  0
 15 13  1  0
 16 17  1  0
 16 15  1  6
 18 16  1  0
 19 18  2  0
 20 18  1  0
 21 24  1  0
 21 20  1  0
 21 22  1  6
 23 22  1  0
 24 25  1  0
 26 24  2  0
M  END
$$$$
