RLC.pdb
     RDKit          3D

 26 25  0  0  1  0  0  0  0  0999 V2000
   10.1723  -13.1547   17.7817 N   0  0  0  0  0  0  0  0  0  0  0  0
    8.8825  -13.6331   17.4183 C   0  0  0  0  0  0  0  0  0  0  0  0
    8.7073  -14.1490   16.2444 N   0  0  0  0  0  0  0  0  0  0  0  0
    7.7728  -13.5587   18.3158 N   0  0  0  0  0  0  0  0  0  0  0  0
    7.9054  -12.8131   19.5854 C   0  0  0  0  0  0  0  0  0  0  0  0
    7.5422  -13.6970   20.7362 C   0  0  0  0  0  0  0  0  0  0  0  0
    7.9772  -15.1158   20.6641 C   0  0  0  0  0  0  0  0  0  0  0  0
    7.4893  -15.9240   21.8089 C   0  0  2  0  0  0  0  0  0  0  0  0
    6.0621  -15.8980   21.8859 N   0  0  0  0  0  0  0  0  0  0  0  0
    8.1321  -15.5232   23.0949 C   0  0  0  0  0  0  0  0  0  0  0  0
    9.0905  -14.7007   23.0602 O   0  0  0  0  0  0  0  0  0  0  0  0
    7.7784  -14.4835   15.9281 C   0  0  0  0  0  0  0  0  0  0  0  0
    5.9488  -12.7593   26.6492 C   0  0  1  0  0  0  0  0  0  0  0  0
    7.0300  -13.4110   25.8373 C   0  0  0  0  0  0  0  0  0  0  0  0
    8.2823  -12.5240   26.0330 C   0  0  0  0  0  0  0  0  0  0  0  0
    7.3758  -14.7252   26.4101 C   0  0  2  0  0  0  0  0  0  0  0  0
    8.4038  -15.5305   25.5952 N   0  0  0  0  0  0  0  0  0  0  0  0
    7.7499  -15.9919   24.3773 C   0  0  0  0  0  0  0  0  0  0  0  0
    9.0137  -16.6046   26.3633 O   0  0  0  0  0  0  0  0  0  0  0  0
    8.3229  -17.5815   26.7541 N   0  0  0  0  0  0  0  0  0  0  0  0
   10.4092  -16.6469   26.7300 C   0  0  1  0  0  0  0  0  0  0  0  0
   10.9068  -17.8259   27.4308 C   0  0  0  0  0  0  0  0  0  0  0  0
   12.3807  -18.0247   27.2290 S   0  0  0  0  0  0  0  0  0  0  0  0
   12.8732  -17.7904   25.4860 C   0  0  0  0  0  0  0  0  0  0  0  0
   10.6810  -17.6495   28.8881 O   0  0  0  0  0  0  0  0  0  0  0  0
   10.1063  -16.5058   29.4190 O   0  0  0  0  0  0  0  0  0  0  0  0
  2  3  2  0
  2  1  1  0
  4  2  1  0
  5  4  1  0
  6  5  1  0
  7  6  1  0
  8  7  1  0
  8  9  1  1
 10 17  1  0
 10  8  1  0
 11 10  2  0
 13 12  1  6
 14 13  1  0
 15 13  1  0
 16 17  1  0
 16 15  1  6
 18 16  1  0
 19 18  2  0
 20 18  1  0
 21 24  1  0
 21 20  1  0
 21 22  1  1
 23 22  1  0
 24 25  1  0
 26 24  2  0
M  END
$$$$
