RLC.pdb
     RDKit          3D

 26 25  0  0  1  0  0  0  0  0999 V2000
    8.6092  -12.8362   17.6514 N   0  0  0  0  0  0  0  0  0  0  0  0
    8.1285  -13.8963   16.8331 C   0  0  0  0  0  0  0  0  0  0  0  0
    8.4468  -13.9208   15.5788 N   0  0  0  0  0  0  0  0  0  0  0  0
    7.3016  -14.9363   17.3592 N   0  0  0  0  0  0  0  0  0  0  0  0
    7.5535  -15.4555   18.7203 C   0  0  0  0  0  0  0  0  0  0  0  0
    8.8889  -16.1274   18.7707 C   0  0  0  0  0  0  0  0  0  0  0  0
    9.7613  -15.8142   19.9319 C   0  0  0  0  0  0  0  0  0  0  0  0
    9.3252  -16.4942   21.1765 C   0  0  2  0  0  0  0  0  0  0  0  0
    8.0115  -17.0393   21.0319 N   0  0  0  0  0  0  0  0  0  0  0  0
    9.4408  -15.6080   22.3719 C   0  0  0  0  0  0  0  0  0  0  0  0
   10.4854  -14.9102   22.5073 O   0  0  0  0  0  0  0  0  0  0  0  0
    8.0808  -14.6480   14.9369 C   0  0  0  0  0  0  0  0  0  0  0  0
    7.9026  -11.9524   25.8055 C   0  0  2  0  0  0  0  0  0  0  0  0
    7.4004  -13.2899   26.2655 C   0  0  0  0  0  0  0  0  0  0  0  0
    5.9373  -13.0501   26.7070 C   0  0  0  0  0  0  0  0  0  0  0  0
    7.3280  -14.2260   25.1283 C   0  0  2  0  0  0  0  0  0  0  0  0
    8.6935  -14.6914   24.5916 N   0  0  0  0  0  0  0  0  0  0  0  0
    8.4589  -15.4760   23.3862 C   0  0  0  0  0  0  0  0  0  0  0  0
    9.4812  -15.3947   25.5918 O   0  0  0  0  0  0  0  0  0  0  0  0
    9.5294  -16.6525   25.5974 N   0  0  0  0  0  0  0  0  0  0  0  0
   10.2489  -14.7411   26.6248 C   0  0  2  0  0  0  0  0  0  0  0  0
   11.0945  -15.5618   27.4850 C   0  0  0  0  0  0  0  0  0  0  0  0
   11.7411  -14.7591   28.5759 S   0  0  0  0  0  0  0  0  0  0  0  0
   10.5244  -13.7769   29.5195 C   0  0  0  0  0  0  0  0  0  0  0  0
   10.2538  -16.5972   28.1384 O   0  0  0  0  0  0  0  0  0  0  0  0
   10.7959  -17.6592   28.8445 O   0  0  0  0  0  0  0  0  0  0  0  0
  2  3  2  0
  2  1  1  0
  4  2  1  0
  5  4  1  0
  6  5  1  0
  7  6  1  0
  8  7  1  0
  8  9  1  6
 10 17  1  0
 10  8  1  0
 11 10  2  0
 13 12  1  1
 14 13  1  0
 15 13  1  0
 16 17  1  0
 16 15  1  6
 18 16  1  0
 19 18  2  0
 20 18  1  0
 21 24  1  0
 21 20  1  0
 21 22  1  6
 23 22  1  0
 24 25  1  0
 26 24  2  0
M  END
$$$$
