RLC.pdb
     RDKit          3D

 26 25  0  0  1  0  0  0  0  0999 V2000
    7.6712  -14.8947   14.6628 N   0  0  0  0  0  0  0  0  0  0  0  0
    8.3205  -13.6658   14.9673 C   0  0  0  0  0  0  0  0  0  0  0  0
    8.8258  -12.9627   14.0054 N   0  0  0  0  0  0  0  0  0  0  0  0
    8.4306  -13.1861   16.3089 N   0  0  0  0  0  0  0  0  0  0  0  0
    8.9790  -14.0686   17.3604 C   0  0  0  0  0  0  0  0  0  0  0  0
    7.9029  -14.4321   18.3337 C   0  0  0  0  0  0  0  0  0  0  0  0
    8.1194  -14.0560   19.7546 C   0  0  0  0  0  0  0  0  0  0  0  0
    8.1932  -15.2334   20.6545 C   0  0  2  0  0  0  0  0  0  0  0  0
    6.9928  -16.0070   20.5891 N   0  0  0  0  0  0  0  0  0  0  0  0
    8.5435  -14.8508   22.0540 C   0  0  0  0  0  0  0  0  0  0  0  0
    9.7483  -14.5818   22.3227 O   0  0  0  0  0  0  0  0  0  0  0  0
    9.3097  -12.0632   14.1826 C   0  0  0  0  0  0  0  0  0  0  0  0
    8.3731  -12.2666   26.6476 C   0  0  2  0  0  0  0  0  0  0  0  0
    7.2186  -13.2205   26.5460 C   0  0  0  0  0  0  0  0  0  0  0  0
    5.9802  -12.4179   27.0103 C   0  0  0  0  0  0  0  0  0  0  0  0
    6.9663  -13.5670   25.1349 C   0  0  1  0  0  0  0  0  0  0  0  0
    8.0483  -14.4494   24.4869 N   0  0  0  0  0  0  0  0  0  0  0  0
    7.6223  -14.7575   23.1278 C   0  0  0  0  0  0  0  0  0  0  0  0
    8.3566  -15.6320   25.2755 O   0  0  0  0  0  0  0  0  0  0  0  0
    7.4638  -16.4837   25.5241 N   0  0  0  0  0  0  0  0  0  0  0  0
    9.6608  -15.9251   25.8202 C   0  0  1  0  0  0  0  0  0  0  0  0
    9.8578  -17.2008   26.5003 C   0  0  0  0  0  0  0  0  0  0  0  0
   10.9815  -17.9947   25.9006 S   0  0  0  0  0  0  0  0  0  0  0  0
   10.3755  -19.3146   24.7933 C   0  0  0  0  0  0  0  0  0  0  0  0
   10.2107  -16.9393   27.9191 O   0  0  0  0  0  0  0  0  0  0  0  0
   10.3584  -17.9563   28.8488 O   0  0  0  0  0  0  0  0  0  0  0  0
  2  3  2  0
  2  1  1  0
  4  2  1  0
  5  4  1  0
  6  5  1  0
  7  6  1  0
  8  7  1  0
  8  9  1  1
 10 17  1  0
 10  8  1  0
 11 10  2  0
 13 12  1  1
 14 13  1  0
 15 13  1  0
 16 17  1  0
 16 15  1  6
 18 16  1  0
 19 18  2  0
 20 18  1  0
 21 24  1  0
 21 20  1  0
 21 22  1  1
 23 22  1  0
 24 25  1  0
 26 24  2  0
M  END
$$$$
