RLC.pdb
     RDKit          3D

 26 25  0  0  1  0  0  0  0  0999 V2000
    9.5141  -15.5754   16.5857 N   0  0  0  0  0  0  0  0  0  0  0  0
    8.3264  -14.9311   16.1398 C   0  0  0  0  0  0  0  0  0  0  0  0
    8.0717  -14.8827   14.8718 N   0  0  0  0  0  0  0  0  0  0  0  0
    7.4058  -14.3344   17.0555 N   0  0  0  0  0  0  0  0  0  0  0  0
    7.8943  -13.3654   18.0594 C   0  0  0  0  0  0  0  0  0  0  0  0
    9.1437  -13.8810   18.7001 C   0  0  0  0  0  0  0  0  0  0  0  0
    9.3464  -13.5679   20.1382 C   0  0  0  0  0  0  0  0  0  0  0  0
    8.8838  -14.6575   21.0330 C   0  0  2  0  0  0  0  0  0  0  0  0
    7.5823  -15.1142   20.6572 N   0  0  0  0  0  0  0  0  0  0  0  0
    8.9531  -14.2706   22.4728 C   0  0  0  0  0  0  0  0  0  0  0  0
   10.0742  -13.9482   22.9580 O   0  0  0  0  0  0  0  0  0  0  0  0
    7.1826  -14.4926   14.5081 C   0  0  0  0  0  0  0  0  0  0  0  0
    7.4338  -11.5940   26.8561 C   0  0  2  0  0  0  0  0  0  0  0  0
    6.6517  -12.8604   26.6624 C   0  0  0  0  0  0  0  0  0  0  0  0
    5.1833  -12.4889   26.9771 C   0  0  0  0  0  0  0  0  0  0  0  0
    6.6694  -13.2585   25.2426 C   0  0  1  0  0  0  0  0  0  0  0  0
    7.9965  -13.8749   24.7649 N   0  0  0  0  0  0  0  0  0  0  0  0
    7.8473  -14.2291   23.3592 C   0  0  0  0  0  0  0  0  0  0  0  0
    8.4316  -14.9868   25.5955 O   0  0  0  0  0  0  0  0  0  0  0  0
    8.5488  -14.8455   26.8408 N   0  0  0  0  0  0  0  0  0  0  0  0
    8.7530  -16.2996   25.0884 C   0  0  1  0  0  0  0  0  0  0  0  0
    9.2462  -17.3034   26.0252 C   0  0  0  0  0  0  0  0  0  0  0  0
    8.1763  -18.2753   26.4291 S   0  0  0  0  0  0  0  0  0  0  0  0
    8.8212  -19.5955   27.5138 C   0  0  0  0  0  0  0  0  0  0  0  0
   10.3259  -18.0839   25.3686 O   0  0  0  0  0  0  0  0  0  0  0  0
   11.3728  -18.6493   26.0789 O   0  0  0  0  0  0  0  0  0  0  0  0
  2  3  2  0
  2  1  1  0
  4  2  1  0
  5  4  1  0
  6  5  1  0
  7  6  1  0
  8  7  1  0
  8  9  1  6
 10 17  1  0
 10  8  1  0
 11 10  2  0
 13 12  1  1
 14 13  1  0
 15 13  1  0
 16 17  1  0
 16 15  1  6
 18 16  1  0
 19 18  2  0
 20 18  1  0
 21 24  1  0
 21 20  1  0
 21 22  1  1
 23 22  1  0
 24 25  1  0
 26 24  2  0
M  END
$$$$
