RLC.pdb
     RDKit          3D

 26 25  0  0  1  0  0  0  0  0999 V2000
    7.9471  -14.3585   17.7267 N   0  0  0  0  0  0  0  0  0  0  0  0
    7.9130  -13.1412   18.4625 C   0  0  0  0  0  0  0  0  0  0  0  0
    7.2462  -12.1367   17.9920 N   0  0  0  0  0  0  0  0  0  0  0  0
    8.5968  -12.9970   19.7090 N   0  0  0  0  0  0  0  0  0  0  0  0
    9.6780  -13.9399   20.0656 C   0  0  0  0  0  0  0  0  0  0  0  0
    9.0920  -15.2312   20.5418 C   0  0  0  0  0  0  0  0  0  0  0  0
    9.9555  -16.0961   21.3866 C   0  0  0  0  0  0  0  0  0  0  0  0
    9.2119  -16.7360   22.4998 C   0  0  2  0  0  0  0  0  0  0  0  0
    7.8336  -16.9121   22.1638 N   0  0  0  0  0  0  0  0  0  0  0  0
    9.3905  -16.0054   23.7890 C   0  0  0  0  0  0  0  0  0  0  0  0
   10.5624  -15.7136   24.1601 O   0  0  0  0  0  0  0  0  0  0  0  0
    7.2136  -11.2246   18.4837 C   0  0  0  0  0  0  0  0  0  0  0  0
    5.4219  -12.8442   25.9168 C   0  0  1  0  0  0  0  0  0  0  0  0
    6.7428  -13.3692   25.4347 C   0  0  0  0  0  0  0  0  0  0  0  0
    7.6910  -12.1468   25.4216 C   0  0  0  0  0  0  0  0  0  0  0  0
    7.3100  -14.3063   26.4220 C   0  0  2  0  0  0  0  0  0  0  0  0
    8.5913  -15.0252   25.9629 N   0  0  0  0  0  0  0  0  0  0  0  0
    8.3379  -15.5990   24.6475 C   0  0  0  0  0  0  0  0  0  0  0  0
    9.0691  -15.9980   26.9329 O   0  0  0  0  0  0  0  0  0  0  0  0
    9.2369  -15.6696   28.1364 N   0  0  0  0  0  0  0  0  0  0  0  0
    9.3792  -17.3719   26.6169 C   0  0  1  0  0  0  0  0  0  0  0  0
    9.9394  -18.2157   27.6670 C   0  0  0  0  0  0  0  0  0  0  0  0
    9.4459  -19.6305   27.5803 S   0  0  0  0  0  0  0  0  0  0  0  0
    9.5821  -20.3032   25.8879 C   0  0  0  0  0  0  0  0  0  0  0  0
   11.4164  -18.2538   27.5158 O   0  0  0  0  0  0  0  0  0  0  0  0
   12.2455  -18.8462   28.4549 O   0  0  0  0  0  0  0  0  0  0  0  0
  2  3  2  0
  2  1  1  0
  4  2  1  0
  5  4  1  0
  6  5  1  0
  7  6  1  0
  8  7  1  0
  8  9  1  6
 10 17  1  0
 10  8  1  0
 11 10  2  0
 13 12  1  6
 14 13  1  0
 15 13  1  0
 16 17  1  0
 16 15  1  6
 18 16  1  0
 19 18  2  0
 20 18  1  0
 21 24  1  0
 21 20  1  0
 21 22  1  1
 23 22  1  0
 24 25  1  0
 26 24  2  0
M  END
$$$$
