RLC.pdb
     RDKit          3D

 26 25  0  0  1  0  0  0  0  0999 V2000
    8.7444  -14.0850   15.1933 N   0  0  0  0  0  0  0  0  0  0  0  0
    8.6407  -13.7153   16.5633 C   0  0  0  0  0  0  0  0  0  0  0  0
    9.3555  -12.7324   17.0085 N   0  0  0  0  0  0  0  0  0  0  0  0
    7.7677  -14.4012   17.4630 N   0  0  0  0  0  0  0  0  0  0  0  0
    7.7879  -15.8783   17.5210 C   0  0  0  0  0  0  0  0  0  0  0  0
    8.4977  -16.3304   18.7577 C   0  0  0  0  0  0  0  0  0  0  0  0
    8.2123  -15.5876   20.0123 C   0  0  0  0  0  0  0  0  0  0  0  0
    8.2549  -16.4556   21.2149 C   0  0  2  0  0  0  0  0  0  0  0  0
    7.0223  -17.1593   21.3854 N   0  0  0  0  0  0  0  0  0  0  0  0
    8.6486  -15.7002   22.4405 C   0  0  0  0  0  0  0  0  0  0  0  0
    9.8298  -15.2597   22.5246 O   0  0  0  0  0  0  0  0  0  0  0  0
    9.2843  -12.4064   17.9901 C   0  0  0  0  0  0  0  0  0  0  0  0
    8.2167  -11.8543   26.0205 C   0  0  2  0  0  0  0  0  0  0  0  0
    7.2907  -12.9840   26.3657 C   0  0  0  0  0  0  0  0  0  0  0  0
    5.9423  -12.3155   26.7238 C   0  0  0  0  0  0  0  0  0  0  0  0
    7.0253  -13.8084   25.1721 C   0  0  1  0  0  0  0  0  0  0  0  0
    8.2303  -14.6280   24.6767 N   0  0  0  0  0  0  0  0  0  0  0  0
    7.7938  -15.4254   23.5377 C   0  0  0  0  0  0  0  0  0  0  0  0
    8.8446  -15.4190   25.7315 O   0  0  0  0  0  0  0  0  0  0  0  0
    8.2136  -16.3666   26.2683 N   0  0  0  0  0  0  0  0  0  0  0  0
   10.1792  -15.1996   26.2359 C   0  0  1  0  0  0  0  0  0  0  0  0
   10.7034  -16.1236   27.2359 C   0  0  0  0  0  0  0  0  0  0  0  0
   12.2008  -16.0721   27.3248 S   0  0  0  0  0  0  0  0  0  0  0  0
   12.8403  -17.0571   28.7234 C   0  0  0  0  0  0  0  0  0  0  0  0
   10.1692  -15.7432   28.5684 O   0  0  0  0  0  0  0  0  0  0  0  0
    9.7940  -16.6826   29.5156 O   0  0  0  0  0  0  0  0  0  0  0  0
  2  3  2  0
  2  1  1  0
  4  2  1  0
  5  4  1  0
  6  5  1  0
  7  6  1  0
  8  7  1  0
  8  9  1  1
 10 17  1  0
 10  8  1  0
 11 10  2  0
 13 12  1  1
 14 13  1  0
 15 13  1  0
 16 17  1  0
 16 15  1  6
 18 16  1  0
 19 18  2  0
 20 18  1  0
 21 24  1  0
 21 20  1  0
 21 22  1  1
 23 22  1  0
 24 25  1  0
 26 24  2  0
M  END
$$$$
