KEQ.pdb
     RDKit          3D

 28 27  0  0  1  0  0  0  0  0999 V2000
    9.7956  -14.0344   19.0195 N   0  0  0  0  0  0  0  0  0  0  0  0
    8.8355  -13.5467   19.9274 C   0  0  1  0  0  0  0  0  0  0  0  0
    7.5157  -13.1635   19.4133 C   0  0  0  0  0  0  0  0  0  0  0  0
    7.0852  -13.6366   18.1055 C   0  0  0  0  0  0  0  0  0  0  0  0
    7.9338  -13.9231   16.9579 C   0  0  0  0  0  0  0  0  0  0  0  0
    7.4080  -14.3933   15.6720 C   0  0  0  0  0  0  0  0  0  0  0  0
    8.3891  -14.8316   14.7045 N   0  0  0  0  0  0  0  0  0  0  0  0
    8.7269  -14.5498   21.0546 C   0  0  0  0  0  0  0  0  0  0  0  0
    7.7860  -14.4193   21.8571 O   0  0  0  0  0  0  0  0  0  0  0  0
    9.6446  -15.5825   21.1914 N   0  0  0  0  0  0  0  0  0  0  0  0
    9.6167  -16.5683   22.2814 C   0  0  1  0  0  0  0  0  0  0  0  0
   10.5531  -17.6800   22.0257 C   0  0  0  0  0  0  0  0  0  0  0  0
   10.6455  -18.6569   23.1534 C   0  0  0  0  0  0  0  0  0  0  0  0
   11.5340  -19.8035   22.9196 C   0  0  0  0  0  0  0  0  0  0  0  0
   10.9932  -20.8926   22.5982 O   0  0  0  0  0  0  0  0  0  0  0  0
    9.9484  -15.8584   23.5458 C   0  0  0  0  0  0  0  0  0  0  0  0
   10.8518  -15.0007   23.5804 O   0  0  0  0  0  0  0  0  0  0  0  0
   12.9130  -19.7966   23.0209 O   0  0  0  0  0  0  0  0  0  0  0  0
    6.1065  -12.3247   25.4297 N   0  0  0  0  0  0  0  0  0  0  0  0
    6.7491  -12.9929   26.5166 C   0  0  0  0  0  0  0  0  0  0  0  0
    6.7035  -12.4255   27.6551 O   0  0  0  0  0  0  0  0  0  0  0  0
    7.4375  -14.2791   26.3811 C   0  0  0  0  0  0  0  0  0  0  0  0
    8.8555  -14.1435   26.0053 C   0  0  0  0  0  0  0  0  0  0  0  0
    9.6289  -15.4064   25.9987 C   0  0  2  0  0  0  0  0  0  0  0  0
    9.2589  -16.1258   24.7460 N   0  0  0  0  0  0  0  0  0  0  0  0
    9.5168  -16.3182   27.1080 C   0  0  0  0  0  0  0  0  0  0  0  0
   10.0107  -16.0301   28.3916 O   0  0  0  0  0  0  0  0  0  0  0  0
    8.9590  -17.4415   26.9403 O   0  0  0  0  0  0  0  0  0  0  0  0
  2  1  1  6
  2  3  1  0
  4  3  1  0
  4  5  1  0
  6  5  1  0
  7  6  1  0
  8  2  1  0
  8  9  2  0
 10  8  1  0
 11 10  1  0
 11 12  1  6
 13 12  1  0
 13 14  1  0
 14 15  2  0
 16 11  1  0
 17 16  2  0
 18 14  1  0
 19 20  1  0
 20 21  2  0
 22 20  1  0
 22 23  1  0
 24 23  1  1
 24 25  1  0
 24 26  1  0
 25 16  1  0
 26 27  1  0
 28 26  2  0
M  END
$$$$
