KEQ.pdb
     RDKit          3D

 28 27  0  0  1  0  0  0  0  0999 V2000
    7.1642  -16.8963   20.9211 N   0  0  0  0  0  0  0  0  0  0  0  0
    8.2337  -16.0386   21.2442 C   0  0  1  0  0  0  0  0  0  0  0  0
    7.9478  -14.6181   21.4753 C   0  0  0  0  0  0  0  0  0  0  0  0
    7.6390  -13.7510   20.3472 C   0  0  0  0  0  0  0  0  0  0  0  0
    8.0213  -13.9566   18.9577 C   0  0  0  0  0  0  0  0  0  0  0  0
    7.6576  -13.0280   17.8824 C   0  0  0  0  0  0  0  0  0  0  0  0
    8.0727  -13.4031   16.5491 N   0  0  0  0  0  0  0  0  0  0  0  0
    8.9743  -16.6568   22.4095 C   0  0  0  0  0  0  0  0  0  0  0  0
    8.2980  -17.1498   23.3292 O   0  0  0  0  0  0  0  0  0  0  0  0
   10.3618  -16.6751   22.4537 N   0  0  0  0  0  0  0  0  0  0  0  0
   11.1415  -17.1713   23.5968 C   0  0  1  0  0  0  0  0  0  0  0  0
   12.5573  -17.3762   23.2342 C   0  0  0  0  0  0  0  0  0  0  0  0
   12.7614  -18.4174   22.1812 C   0  0  0  0  0  0  0  0  0  0  0  0
   13.9612  -18.2440   21.3510 C   0  0  0  0  0  0  0  0  0  0  0  0
   13.8597  -18.5259   20.1295 O   0  0  0  0  0  0  0  0  0  0  0  0
   11.0011  -16.1884   24.7045 C   0  0  0  0  0  0  0  0  0  0  0  0
   11.3461  -15.0004   24.5539 O   0  0  0  0  0  0  0  0  0  0  0  0
   15.1950  -17.7992   21.7891 O   0  0  0  0  0  0  0  0  0  0  0  0
    6.8554  -13.1677   25.5483 N   0  0  0  0  0  0  0  0  0  0  0  0
    7.4498  -12.8925   26.8178 C   0  0  0  0  0  0  0  0  0  0  0  0
    6.9829  -11.9081   27.4760 O   0  0  0  0  0  0  0  0  0  0  0  0
    8.5454  -13.6823   27.3854 C   0  0  0  0  0  0  0  0  0  0  0  0
    9.0567  -14.7135   26.4658 C   0  0  0  0  0  0  0  0  0  0  0  0
   10.1854  -15.5184   26.9868 C   0  0  2  0  0  0  0  0  0  0  0  0
   10.4761  -16.5592   25.9592 N   0  0  0  0  0  0  0  0  0  0  0  0
   10.0740  -16.1553   28.2739 C   0  0  0  0  0  0  0  0  0  0  0  0
   10.1628  -15.4534   29.4880 O   0  0  0  0  0  0  0  0  0  0  0  0
    9.8966  -17.4064   28.3394 O   0  0  0  0  0  0  0  0  0  0  0  0
  2  1  1  1
  2  3  1  0
  4  3  1  0
  4  5  1  0
  6  5  1  0
  7  6  1  0
  8  2  1  0
  8  9  2  0
 10  8  1  0
 11 10  1  0
 11 12  1  6
 13 12  1  0
 13 14  1  0
 14 15  2  0
 16 11  1  0
 17 16  2  0
 18 14  1  0
 19 20  1  0
 20 21  2  0
 22 20  1  0
 22 23  1  0
 24 23  1  6
 24 25  1  0
 24 26  1  0
 25 16  1  0
 26 27  1  0
 28 26  2  0
M  END
$$$$
