KEQ.pdb
     RDKit          3D

 28 27  0  0  1  0  0  0  0  0999 V2000
    9.8700  -13.5783   19.2002 N   0  0  0  0  0  0  0  0  0  0  0  0
    8.6362  -13.4661   19.8704 C   0  0  1  0  0  0  0  0  0  0  0  0
    7.4074  -13.4055   19.0709 C   0  0  0  0  0  0  0  0  0  0  0  0
    7.3249  -14.1406   17.8169 C   0  0  0  0  0  0  0  0  0  0  0  0
    7.7326  -13.6705   16.5009 C   0  0  0  0  0  0  0  0  0  0  0  0
    7.5834  -14.4740   15.2831 C   0  0  0  0  0  0  0  0  0  0  0  0
    8.1923  -13.9366   14.0867 N   0  0  0  0  0  0  0  0  0  0  0  0
    8.5785  -14.5713   20.9018 C   0  0  0  0  0  0  0  0  0  0  0  0
    7.5353  -14.6868   21.5686 O   0  0  0  0  0  0  0  0  0  0  0  0
    9.6517  -15.4294   21.0995 N   0  0  0  0  0  0  0  0  0  0  0  0
    9.6459  -16.5468   22.0546 C   0  0  1  0  0  0  0  0  0  0  0  0
   10.6750  -17.5492   21.7165 C   0  0  0  0  0  0  0  0  0  0  0  0
   12.0679  -17.1073   22.0310 C   0  0  0  0  0  0  0  0  0  0  0  0
   13.1250  -18.0649   21.6784 C   0  0  0  0  0  0  0  0  0  0  0  0
   14.3136  -17.7108   21.8883 O   0  0  0  0  0  0  0  0  0  0  0  0
    9.8616  -15.9842   23.4146 C   0  0  0  0  0  0  0  0  0  0  0  0
   10.3407  -14.8439   23.5672 O   0  0  0  0  0  0  0  0  0  0  0  0
   12.9343  -19.3222   21.1354 O   0  0  0  0  0  0  0  0  0  0  0  0
    7.5007  -12.4499   24.7921 N   0  0  0  0  0  0  0  0  0  0  0  0
    6.9097  -13.0691   25.9358 C   0  0  0  0  0  0  0  0  0  0  0  0
    6.2943  -12.3115   26.7528 O   0  0  0  0  0  0  0  0  0  0  0  0
    6.9744  -14.5089   26.1991 C   0  0  0  0  0  0  0  0  0  0  0  0
    7.7600  -15.2492   25.1964 C   0  0  0  0  0  0  0  0  0  0  0  0
    8.8985  -16.0268   25.7371 C   0  0  2  0  0  0  0  0  0  0  0  0
    9.5347  -16.7132   24.5762 N   0  0  0  0  0  0  0  0  0  0  0  0
    8.6716  -16.9934   26.7805 C   0  0  0  0  0  0  0  0  0  0  0  0
    8.5901  -18.3758   26.5420 O   0  0  0  0  0  0  0  0  0  0  0  0
    8.5269  -16.6019   27.9750 O   0  0  0  0  0  0  0  0  0  0  0  0
  2  1  1  6
  2  3  1  0
  4  3  1  0
  4  5  1  0
  6  5  1  0
  7  6  1  0
  8  2  1  0
  8  9  2  0
 10  8  1  0
 11 10  1  0
 11 12  1  6
 13 12  1  0
 13 14  1  0
 14 15  2  0
 16 11  1  0
 17 16  2  0
 18 14  1  0
 19 20  1  0
 20 21  2  0
 22 20  1  0
 22 23  1  0
 24 23  1  6
 24 25  1  0
 24 26  1  0
 25 16  1  0
 26 27  1  0
 28 26  2  0
M  END
$$$$
