KEQ.pdb
     RDKit          3D

 28 27  0  0  1  0  0  0  0  0999 V2000
    9.3314  -12.7385   19.2021 N   0  0  0  0  0  0  0  0  0  0  0  0
    8.1565  -13.4919   19.3918 C   0  0  1  0  0  0  0  0  0  0  0  0
    7.3586  -13.8541   18.2150 C   0  0  0  0  0  0  0  0  0  0  0  0
    8.0198  -14.0934   16.9401 C   0  0  0  0  0  0  0  0  0  0  0  0
    7.3839  -14.4514   15.6805 C   0  0  0  0  0  0  0  0  0  0  0  0
    8.1236  -14.5864   14.4213 C   0  0  0  0  0  0  0  0  0  0  0  0
    7.3463  -14.9691   13.2637 N   0  0  0  0  0  0  0  0  0  0  0  0
    8.5253  -14.7077   20.2131 C   0  0  0  0  0  0  0  0  0  0  0  0
    7.6320  -15.5402   20.4481 O   0  0  0  0  0  0  0  0  0  0  0  0
    9.8163  -14.8911   20.6896 N   0  0  0  0  0  0  0  0  0  0  0  0
   10.2701  -16.1011   21.3901 C   0  0  1  0  0  0  0  0  0  0  0  0
   11.5997  -16.5311   20.9154 C   0  0  0  0  0  0  0  0  0  0  0  0
   12.1173  -17.7507   21.6075 C   0  0  0  0  0  0  0  0  0  0  0  0
   13.4517  -18.1951   21.1822 C   0  0  0  0  0  0  0  0  0  0  0  0
   13.8403  -19.3187   21.5927 O   0  0  0  0  0  0  0  0  0  0  0  0
   10.2830  -15.8053   22.8478 C   0  0  0  0  0  0  0  0  0  0  0  0
   10.8061  -14.7620   23.2848 O   0  0  0  0  0  0  0  0  0  0  0  0
   14.3223  -17.4909   20.3710 O   0  0  0  0  0  0  0  0  0  0  0  0
    7.5566  -12.5793   25.6971 N   0  0  0  0  0  0  0  0  0  0  0  0
    6.8488  -13.8202   25.7008 C   0  0  0  0  0  0  0  0  0  0  0  0
    5.5921  -13.7709   25.8968 O   0  0  0  0  0  0  0  0  0  0  0  0
    7.4929  -15.1186   25.4865 C   0  0  0  0  0  0  0  0  0  0  0  0
    8.9529  -15.0227   25.3145 C   0  0  0  0  0  0  0  0  0  0  0  0
    9.6637  -16.3191   25.2302 C   0  0  2  0  0  0  0  0  0  0  0  0
    9.7083  -16.6871   23.7858 N   0  0  0  0  0  0  0  0  0  0  0  0
    9.1806  -17.4486   25.9822 C   0  0  0  0  0  0  0  0  0  0  0  0
    9.2068  -17.5041   27.3861 O   0  0  0  0  0  0  0  0  0  0  0  0
    8.7145  -18.4536   25.3710 O   0  0  0  0  0  0  0  0  0  0  0  0
  2  1  1  6
  2  3  1  0
  4  3  1  0
  4  5  1  0
  6  5  1  0
  7  6  1  0
  8  2  1  0
  8  9  2  0
 10  8  1  0
 11 10  1  0
 11 12  1  6
 13 12  1  0
 13 14  1  0
 14 15  2  0
 16 11  1  0
 17 16  2  0
 18 14  1  0
 19 20  1  0
 20 21  2  0
 22 20  1  0
 22 23  1  0
 24 23  1  6
 24 25  1  0
 24 26  1  0
 25 16  1  0
 26 27  1  0
 28 26  2  0
M  END
$$$$
