KEQ.pdb
     RDKit          3D

 28 27  0  0  1  0  0  0  0  0999 V2000
    5.1996  -17.2401   21.4683 N   0  0  0  0  0  0  0  0  0  0  0  0
    6.4724  -16.7292   21.7894 C   0  0  1  0  0  0  0  0  0  0  0  0
    6.7379  -15.3066   21.5476 C   0  0  0  0  0  0  0  0  0  0  0  0
    6.8116  -14.8079   20.1818 C   0  0  0  0  0  0  0  0  0  0  0  0
    7.8697  -13.9899   19.6069 C   0  0  0  0  0  0  0  0  0  0  0  0
    7.8139  -13.4528   18.2433 C   0  0  0  0  0  0  0  0  0  0  0  0
    8.9751  -12.7128   17.8021 N   0  0  0  0  0  0  0  0  0  0  0  0
    6.7689  -17.1181   23.2210 C   0  0  0  0  0  0  0  0  0  0  0  0
    5.8905  -16.9004   24.0738 O   0  0  0  0  0  0  0  0  0  0  0  0
    7.9794  -17.6988   23.5742 N   0  0  0  0  0  0  0  0  0  0  0  0
    8.4398  -17.8615   24.9607 C   0  0  1  0  0  0  0  0  0  0  0  0
    9.2564  -19.0808   25.1170 C   0  0  0  0  0  0  0  0  0  0  0  0
    8.9615  -19.8429   26.3687 C   0  0  0  0  0  0  0  0  0  0  0  0
    9.7423  -21.0739   26.5529 C   0  0  0  0  0  0  0  0  0  0  0  0
    9.2418  -22.1418   26.1160 O   0  0  0  0  0  0  0  0  0  0  0  0
    9.2072  -16.6423   25.3314 C   0  0  0  0  0  0  0  0  0  0  0  0
    9.6331  -15.8633   24.4569 O   0  0  0  0  0  0  0  0  0  0  0  0
   10.9791  -21.1677   27.1641 O   0  0  0  0  0  0  0  0  0  0  0  0
    6.1266  -11.1972   27.1590 N   0  0  0  0  0  0  0  0  0  0  0  0
    6.7766  -12.3240   26.5685 C   0  0  0  0  0  0  0  0  0  0  0  0
    6.2277  -12.8381   25.5416 O   0  0  0  0  0  0  0  0  0  0  0  0
    8.0247  -12.8964   27.0794 C   0  0  0  0  0  0  0  0  0  0  0  0
    8.2683  -14.2721   26.6122 C   0  0  0  0  0  0  0  0  0  0  0  0
    9.5123  -14.8977   27.1165 C   0  0  2  0  0  0  0  0  0  0  0  0
    9.4809  -16.3223   26.6768 N   0  0  0  0  0  0  0  0  0  0  0  0
    9.8143  -14.8528   28.5241 C   0  0  0  0  0  0  0  0  0  0  0  0
    9.9667  -16.0051   29.3137 O   0  0  0  0  0  0  0  0  0  0  0  0
    9.9441  -13.7339   29.1005 O   0  0  0  0  0  0  0  0  0  0  0  0
  2  1  1  1
  2  3  1  0
  4  3  1  0
  4  5  1  0
  6  5  1  0
  7  6  1  0
  8  2  1  0
  8  9  2  0
 10  8  1  0
 11 10  1  0
 11 12  1  6
 13 12  1  0
 13 14  1  0
 14 15  2  0
 16 11  1  0
 17 16  2  0
 18 14  1  0
 19 20  1  0
 20 21  2  0
 22 20  1  0
 22 23  1  0
 24 23  1  1
 24 25  1  0
 24 26  1  0
 25 16  1  0
 26 27  1  0
 28 26  2  0
M  END
$$$$
