KEQ.pdb
     RDKit          3D

 28 27  0  0  1  0  0  0  0  0999 V2000
    7.7799  -17.5846   20.9421 N   0  0  0  0  0  0  0  0  0  0  0  0
    9.0563  -17.0889   21.2725 C   0  0  1  0  0  0  0  0  0  0  0  0
    9.3735  -15.6947   20.9433 C   0  0  0  0  0  0  0  0  0  0  0  0
    8.2970  -14.7586   20.6527 C   0  0  0  0  0  0  0  0  0  0  0  0
    8.4345  -13.3562   20.2872 C   0  0  0  0  0  0  0  0  0  0  0  0
    7.2910  -12.4462   20.1638 C   0  0  0  0  0  0  0  0  0  0  0  0
    7.6013  -11.0760   19.8215 N   0  0  0  0  0  0  0  0  0  0  0  0
    9.2924  -17.3853   22.7371 C   0  0  0  0  0  0  0  0  0  0  0  0
    8.3048  -17.3923   23.4928 O   0  0  0  0  0  0  0  0  0  0  0  0
   10.5668  -17.6417   23.2243 N   0  0  0  0  0  0  0  0  0  0  0  0
   10.8593  -17.9790   24.6249 C   0  0  1  0  0  0  0  0  0  0  0  0
   12.1411  -18.6999   24.7485 C   0  0  0  0  0  0  0  0  0  0  0  0
   13.2599  -17.8496   25.2582 C   0  0  0  0  0  0  0  0  0  0  0  0
   14.5809  -18.4926   25.2722 C   0  0  0  0  0  0  0  0  0  0  0  0
   14.9819  -19.0040   24.1954 O   0  0  0  0  0  0  0  0  0  0  0  0
   10.8706  -16.7126   25.4052 C   0  0  0  0  0  0  0  0  0  0  0  0
   11.0758  -15.6179   24.8461 O   0  0  0  0  0  0  0  0  0  0  0  0
   15.4263  -18.5884   26.3623 O   0  0  0  0  0  0  0  0  0  0  0  0
    7.4185  -13.3408   25.1412 N   0  0  0  0  0  0  0  0  0  0  0  0
    7.5845  -13.0020   26.5190 C   0  0  0  0  0  0  0  0  0  0  0  0
    7.0046  -11.9464   26.9309 O   0  0  0  0  0  0  0  0  0  0  0  0
    8.3709  -13.8041   27.4595 C   0  0  0  0  0  0  0  0  0  0  0  0
    9.0068  -14.9768   26.8342 C   0  0  0  0  0  0  0  0  0  0  0  0
   10.2559  -15.4368   27.4831 C   0  0  2  0  0  0  0  0  0  0  0  0
   10.6512  -16.7009   26.7977 N   0  0  0  0  0  0  0  0  0  0  0  0
   10.2834  -15.6527   28.9069 C   0  0  0  0  0  0  0  0  0  0  0  0
   10.3242  -14.6043   29.8417 O   0  0  0  0  0  0  0  0  0  0  0  0
   10.2802  -16.8339   29.3605 O   0  0  0  0  0  0  0  0  0  0  0  0
  2  1  1  1
  2  3  1  0
  4  3  1  0
  4  5  1  0
  6  5  1  0
  7  6  1  0
  8  2  1  0
  8  9  2  0
 10  8  1  0
 11 10  1  0
 11 12  1  6
 13 12  1  0
 13 14  1  0
 14 15  2  0
 16 11  1  0
 17 16  2  0
 18 14  1  0
 19 20  1  0
 20 21  2  0
 22 20  1  0
 22 23  1  0
 24 23  1  6
 24 25  1  0
 24 26  1  0
 25 16  1  0
 26 27  1  0
 28 26  2  0
M  END
$$$$
