GQT.pdb
     RDKit          3D

 21 20  0  0  1  0  0  0  0  0999 V2000
   17.8979  -13.5587  -15.5770 N   0  0  0  0  0  0  0  0  0  0  0  0
   17.1777  -12.3068  -15.6367 C   0  0  0  0  0  0  0  0  0  0  0  0
   18.1040  -11.2502  -16.1317 C   0  0  0  0  0  0  0  0  0  0  0  0
   19.3142  -11.4811  -16.3605 O   0  0  0  0  0  0  0  0  0  0  0  0
   17.0326   -8.2652  -21.4157 N   0  0  0  0  0  0  0  0  0  0  0  0
   16.8116   -8.7107  -20.1004 C   0  0  0  0  0  0  0  0  0  0  0  0
   15.6559   -8.9387  -19.6715 O   0  0  0  0  0  0  0  0  0  0  0  0
   17.9553   -8.9191  -19.1934 C   0  0  0  0  0  0  0  0  0  0  0  0
   17.7929   -8.1178  -17.9131 C   0  0  0  0  0  0  0  0  0  0  0  0
   18.5367   -8.8900  -16.8148 C   0  0  2  0  0  0  0  0  0  0  0  0
   17.6623   -9.9235  -16.3704 N   0  0  0  0  0  0  0  0  0  0  0  0
   18.9727   -7.9634  -15.7667 C   0  0  0  0  0  0  0  0  0  0  0  0
   18.2367   -7.7046  -14.7869 O   0  0  0  0  0  0  0  0  0  0  0  0
   22.3556   -5.3505  -13.3620 C   0  0  0  0  0  0  0  0  0  0  0  0
   21.9929   -6.3888  -14.3659 C   0  0  1  0  0  0  0  0  0  0  0  0
   22.1743   -7.6796  -13.8226 O   0  0  0  0  0  0  0  0  0  0  0  0
   20.5558   -6.3214  -14.8227 C   0  0  2  0  0  0  0  0  0  0  0  0
   20.2262   -7.3176  -15.7969 N   0  0  0  0  0  0  0  0  0  0  0  0
   20.2501   -4.9456  -15.2832 C   0  0  0  0  0  0  0  0  0  0  0  0
   19.7381   -4.1052  -14.4964 O   0  0  0  0  0  0  0  0  0  0  0  0
   20.5060   -4.5199  -16.5764 O   0  0  0  0  0  0  0  0  0  0  0  0
  2  1  1  0
  2  3  1  0
  3  4  2  0
  3 11  1  0
  6  5  1  0
  7  6  2  0
  8  6  1  0
  9  8  1  0
 10 12  1  0
 10  9  1  6
 11 10  1  0
 12 18  1  0
 13 12  2  0
 15 14  1  1
 15 16  1  0
 17 19  1  0
 17 15  1  0
 17 18  1  6
 19 21  1  0
 20 19  2  0
M  END
$$$$
