GQT.pdb
     RDKit          3D

 21 20  0  0  1  0  0  0  0  0999 V2000
   17.4840  -10.9911  -16.3503 N   0  0  0  0  0  0  0  0  0  0  0  0
   17.4683   -9.5682  -16.6044 C   0  0  0  0  0  0  0  0  0  0  0  0
   18.4643   -8.9158  -15.7090 C   0  0  0  0  0  0  0  0  0  0  0  0
   18.2381   -8.7237  -14.4916 O   0  0  0  0  0  0  0  0  0  0  0  0
   24.2208  -10.2180  -15.9986 N   0  0  0  0  0  0  0  0  0  0  0  0
   23.1057  -10.8298  -15.3990 C   0  0  0  0  0  0  0  0  0  0  0  0
   23.1258  -12.0353  -15.0554 O   0  0  0  0  0  0  0  0  0  0  0  0
   21.8777  -10.0485  -15.1626 C   0  0  0  0  0  0  0  0  0  0  0  0
   22.0361   -8.6178  -15.6479 C   0  0  0  0  0  0  0  0  0  0  0  0
   20.7138   -7.9014  -15.3412 C   0  0  2  0  0  0  0  0  0  0  0  0
   19.7245   -8.4768  -16.1900 N   0  0  0  0  0  0  0  0  0  0  0  0
   20.8872   -6.4546  -15.4954 C   0  0  0  0  0  0  0  0  0  0  0  0
   21.0251   -5.9381  -16.6280 O   0  0  0  0  0  0  0  0  0  0  0  0
   18.8268   -3.6335  -15.4672 C   0  0  0  0  0  0  0  0  0  0  0  0
   19.8643   -3.3485  -14.4376 C   0  0  1  0  0  0  0  0  0  0  0  0
   19.3652   -3.6331  -13.1476 O   0  0  0  0  0  0  0  0  0  0  0  0
   21.1218   -4.1687  -14.5939 C   0  0  2  0  0  0  0  0  0  0  0  0
   20.9090   -5.5707  -14.3965 N   0  0  0  0  0  0  0  0  0  0  0  0
   22.1799   -3.6195  -13.7123 C   0  0  0  0  0  0  0  0  0  0  0  0
   22.6194   -4.2929  -12.7423 O   0  0  0  0  0  0  0  0  0  0  0  0
   22.7301   -2.3627  -13.9044 O   0  0  0  0  0  0  0  0  0  0  0  0
  2  1  1  0
  2  3  1  0
  3  4  2  0
  3 11  1  0
  6  5  1  0
  7  6  2  0
  8  6  1  0
  9  8  1  0
 10 12  1  0
 10  9  1  6
 11 10  1  0
 12 18  1  0
 13 12  2  0
 15 14  1  6
 15 16  1  0
 17 19  1  0
 17 15  1  0
 17 18  1  1
 19 21  1  0
 20 19  2  0
M  END
$$$$
