GQT.pdb
     RDKit          3D

 21 20  0  0  1  0  0  0  0  0999 V2000
   13.0387  -10.1626  -10.4666 N   0  0  0  0  0  0  0  0  0  0  0  0
   13.6044   -8.9436  -10.9991 C   0  0  0  0  0  0  0  0  0  0  0  0
   14.7545   -9.2986  -11.8769 C   0  0  0  0  0  0  0  0  0  0  0  0
   15.4284  -10.3403  -11.7008 O   0  0  0  0  0  0  0  0  0  0  0  0
   14.7819   -9.1945  -17.7136 N   0  0  0  0  0  0  0  0  0  0  0  0
   14.4146  -10.1362  -16.7360 C   0  0  0  0  0  0  0  0  0  0  0  0
   13.6521  -11.0947  -17.0035 O   0  0  0  0  0  0  0  0  0  0  0  0
   14.9300  -10.0065  -15.3606 C   0  0  0  0  0  0  0  0  0  0  0  0
   15.8198   -8.7831  -15.2215 C   0  0  0  0  0  0  0  0  0  0  0  0
   16.2935   -8.7486  -13.7620 C   0  0  2  0  0  0  0  0  0  0  0  0
   15.1477   -8.4728  -12.9612 N   0  0  0  0  0  0  0  0  0  0  0  0
   17.3875   -7.7843  -13.6192 C   0  0  0  0  0  0  0  0  0  0  0  0
   17.1865   -6.6475  -13.1334 O   0  0  0  0  0  0  0  0  0  0  0  0
   22.2047   -6.6221  -13.8706 C   0  0  0  0  0  0  0  0  0  0  0  0
   21.1290   -7.6461  -13.9801 C   0  0  1  0  0  0  0  0  0  0  0  0
   21.2255   -8.5730  -12.9192 O   0  0  0  0  0  0  0  0  0  0  0  0
   19.7331   -7.0751  -13.9160 C   0  0  2  0  0  0  0  0  0  0  0  0
   18.7106   -8.0727  -14.0134 N   0  0  0  0  0  0  0  0  0  0  0  0
   19.5913   -6.0072  -14.9347 C   0  0  0  0  0  0  0  0  0  0  0  0
   19.2732   -6.2906  -16.1204 O   0  0  0  0  0  0  0  0  0  0  0  0
   19.7968   -4.6687  -14.6428 O   0  0  0  0  0  0  0  0  0  0  0  0
  2  1  1  0
  2  3  1  0
  3  4  2  0
  3 11  1  0
  6  5  1  0
  7  6  2  0
  8  6  1  0
  9  8  1  0
 10 12  1  0
 10  9  1  6
 11 10  1  0
 12 18  1  0
 13 12  2  0
 15 14  1  1
 15 16  1  0
 17 19  1  0
 17 15  1  0
 17 18  1  6
 19 21  1  0
 20 19  2  0
M  END
$$$$
