GQT.pdb
     RDKit          3D

 21 20  0  0  1  0  0  0  0  0999 V2000
   18.7602  -21.5618  -11.9003 N   0  0  0  0  0  0  0  0  0  0  0  0
   19.9354  -22.2685  -12.3573 C   0  0  0  0  0  0  0  0  0  0  0  0
   20.9591  -21.2683  -12.7711 C   0  0  0  0  0  0  0  0  0  0  0  0
   20.6548  -20.0893  -13.0669 O   0  0  0  0  0  0  0  0  0  0  0  0
   26.7841  -21.5648  -10.8986 N   0  0  0  0  0  0  0  0  0  0  0  0
   25.6769  -20.9745  -10.2638 C   0  0  0  0  0  0  0  0  0  0  0  0
   25.6900  -20.7063   -9.0392 O   0  0  0  0  0  0  0  0  0  0  0  0
   24.4658  -20.6581  -11.0431 C   0  0  0  0  0  0  0  0  0  0  0  0
   24.6267  -21.0676  -12.4970 C   0  0  0  0  0  0  0  0  0  0  0  0
   23.3355  -20.6521  -13.2154 C   0  0  2  0  0  0  0  0  0  0  0  0
   22.3359  -21.6002  -12.8520 N   0  0  0  0  0  0  0  0  0  0  0  0
   23.5830  -20.5442  -14.6556 C   0  0  0  0  0  0  0  0  0  0  0  0
   23.9095  -21.5469  -15.3313 O   0  0  0  0  0  0  0  0  0  0  0  0
   21.2609  -19.4592  -17.5144 C   0  0  0  0  0  0  0  0  0  0  0  0
   22.5035  -18.6384  -17.5070 C   0  0  1  0  0  0  0  0  0  0  0  0
   22.2698  -17.4021  -16.8658 O   0  0  0  0  0  0  0  0  0  0  0  0
   23.6565  -19.2819  -16.7756 C   0  0  2  0  0  0  0  0  0  0  0  0
   23.4704  -19.3255  -15.3566 N   0  0  0  0  0  0  0  0  0  0  0  0
   24.9213  -18.6151  -17.1679 C   0  0  0  0  0  0  0  0  0  0  0  0
   25.6027  -17.9821  -16.3178 O   0  0  0  0  0  0  0  0  0  0  0  0
   25.4110  -18.6519  -18.4632 O   0  0  0  0  0  0  0  0  0  0  0  0
  2  1  1  0
  2  3  1  0
  3  4  2  0
  3 11  1  0
  6  5  1  0
  7  6  2  0
  8  6  1  0
  9  8  1  0
 10 12  1  0
 10  9  1  1
 11 10  1  0
 12 18  1  0
 13 12  2  0
 15 14  1  1
 15 16  1  0
 17 19  1  0
 17 15  1  0
 17 18  1  1
 19 21  1  0
 20 19  2  0
M  END
$$$$
