GQT.pdb
     RDKit          3D

 21 20  0  0  1  0  0  0  0  0999 V2000
   10.4026  -12.2431  -10.2177 N   0  0  0  0  0  0  0  0  0  0  0  0
   10.6112  -11.2018  -11.1983 C   0  0  0  0  0  0  0  0  0  0  0  0
   12.0166  -10.7205  -11.0870 C   0  0  0  0  0  0  0  0  0  0  0  0
   12.5674  -10.5278   -9.9781 O   0  0  0  0  0  0  0  0  0  0  0  0
   16.4423  -12.2922  -14.1602 N   0  0  0  0  0  0  0  0  0  0  0  0
   17.0756  -11.1253  -13.6969 C   0  0  0  0  0  0  0  0  0  0  0  0
   18.3193  -11.0694  -13.5496 O   0  0  0  0  0  0  0  0  0  0  0  0
   16.2718   -9.9323  -13.3729 C   0  0  0  0  0  0  0  0  0  0  0  0
   14.7871  -10.2123  -13.5298 C   0  0  0  0  0  0  0  0  0  0  0  0
   14.1497   -9.9855  -12.1521 C   0  0  2  0  0  0  0  0  0  0  0  0
   12.8068  -10.4544  -12.2347 N   0  0  0  0  0  0  0  0  0  0  0  0
   14.2847   -8.5774  -11.7699 C   0  0  0  0  0  0  0  0  0  0  0  0
   13.5978   -7.6893  -12.3250 O   0  0  0  0  0  0  0  0  0  0  0  0
   16.1042   -7.4074   -8.0556 C   0  0  0  0  0  0  0  0  0  0  0  0
   15.0248   -6.6951   -8.7939 C   0  0  1  0  0  0  0  0  0  0  0  0
   15.0479   -5.3171   -8.4859 O   0  0  0  0  0  0  0  0  0  0  0  0
   15.1438   -6.7938  -10.2955 C   0  0  2  0  0  0  0  0  0  0  0  0
   15.1810   -8.1438  -10.7709 N   0  0  0  0  0  0  0  0  0  0  0  0
   16.3061   -5.9935  -10.7504 C   0  0  0  0  0  0  0  0  0  0  0  0
   17.3006   -6.5536  -11.2840 O   0  0  0  0  0  0  0  0  0  0  0  0
   16.3593   -4.6158  -10.6157 O   0  0  0  0  0  0  0  0  0  0  0  0
  2  1  1  0
  2  3  1  0
  3  4  2  0
  3 11  1  0
  6  5  1  0
  7  6  2  0
  8  6  1  0
  9  8  1  0
 10 12  1  0
 10  9  1  6
 11 10  1  0
 12 18  1  0
 13 12  2  0
 15 14  1  1
 15 16  1  0
 17 19  1  0
 17 15  1  0
 17 18  1  1
 19 21  1  0
 20 19  2  0
M  END
$$$$
