GQT.pdb
     RDKit          3D

 21 20  0  0  1  0  0  0  0  0999 V2000
   20.7854  -13.2706  -17.8996 N   0  0  0  0  0  0  0  0  0  0  0  0
   20.4596  -12.6678  -16.6268 C   0  0  0  0  0  0  0  0  0  0  0  0
   20.0505  -11.2547  -16.8624 C   0  0  0  0  0  0  0  0  0  0  0  0
   19.7336  -10.8354  -17.9999 O   0  0  0  0  0  0  0  0  0  0  0  0
   15.5045   -8.2873  -15.0680 N   0  0  0  0  0  0  0  0  0  0  0  0
   16.2170   -7.2887  -15.7554 C   0  0  0  0  0  0  0  0  0  0  0  0
   15.6606   -6.2322  -16.1373 O   0  0  0  0  0  0  0  0  0  0  0  0
   17.6517   -7.4741  -16.0405 C   0  0  0  0  0  0  0  0  0  0  0  0
   18.1147   -8.8650  -15.6423 C   0  0  0  0  0  0  0  0  0  0  0  0
   19.6026   -8.9538  -16.0082 C   0  0  2  0  0  0  0  0  0  0  0  0
   19.9985  -10.3077  -15.8076 N   0  0  0  0  0  0  0  0  0  0  0  0
   20.3631   -7.9715  -15.2311 C   0  0  0  0  0  0  0  0  0  0  0  0
   20.6227   -8.1666  -14.0215 O   0  0  0  0  0  0  0  0  0  0  0  0
   22.7238   -4.8481  -17.0894 C   0  0  0  0  0  0  0  0  0  0  0  0
   22.9819   -5.5644  -15.8096 C   0  0  1  0  0  0  0  0  0  0  0  0
   23.7530   -4.7580  -14.9440 O   0  0  0  0  0  0  0  0  0  0  0  0
   21.7296   -5.9240  -15.0474 C   0  0  2  0  0  0  0  0  0  0  0  0
   20.8407   -6.7671  -15.7885 N   0  0  0  0  0  0  0  0  0  0  0  0
   21.0749   -4.6845  -14.5643 C   0  0  0  0  0  0  0  0  0  0  0  0
   19.9170   -4.3772  -14.9546 O   0  0  0  0  0  0  0  0  0  0  0  0
   21.6889   -3.8164  -13.6763 O   0  0  0  0  0  0  0  0  0  0  0  0
  2  1  1  0
  2  3  1  0
  3  4  2  0
  3 11  1  0
  6  5  1  0
  7  6  2  0
  8  6  1  0
  9  8  1  0
 10 12  1  0
 10  9  1  1
 11 10  1  0
 12 18  1  0
 13 12  2  0
 15 14  1  6
 15 16  1  0
 17 19  1  0
 17 15  1  0
 17 18  1  6
 19 21  1  0
 20 19  2  0
M  END
$$$$
