GQT.pdb
     RDKit          3D

 21 20  0  0  1  0  0  0  0  0999 V2000
   19.2021  -14.7121  -16.6614 N   0  0  0  0  0  0  0  0  0  0  0  0
   18.3423  -14.0286  -15.7217 C   0  0  0  0  0  0  0  0  0  0  0  0
   18.3553  -12.5731  -16.0392 C   0  0  0  0  0  0  0  0  0  0  0  0
   19.0758  -12.0973  -16.9473 O   0  0  0  0  0  0  0  0  0  0  0  0
   14.1650  -10.8462  -13.7585 N   0  0  0  0  0  0  0  0  0  0  0  0
   14.0945  -10.9756  -15.1570 C   0  0  0  0  0  0  0  0  0  0  0  0
   13.1403  -11.5692  -15.7126 O   0  0  0  0  0  0  0  0  0  0  0  0
   15.1597  -10.4055  -16.0022 C   0  0  0  0  0  0  0  0  0  0  0  0
   16.2048   -9.6928  -15.1610 C   0  0  0  0  0  0  0  0  0  0  0  0
   17.5690  -10.2477  -15.5932 C   0  0  2  0  0  0  0  0  0  0  0  0
   17.5498  -11.6475  -15.3274 N   0  0  0  0  0  0  0  0  0  0  0  0
   18.6400   -9.5104  -14.9176 C   0  0  0  0  0  0  0  0  0  0  0  0
   18.8159   -9.6153  -13.6820 O   0  0  0  0  0  0  0  0  0  0  0  0
   22.3806   -9.7711  -15.3592 C   0  0  0  0  0  0  0  0  0  0  0  0
   21.9595   -8.3537  -15.5359 C   0  0  1  0  0  0  0  0  0  0  0  0
   21.8492   -8.0433  -16.9091 O   0  0  0  0  0  0  0  0  0  0  0  0
   20.6181   -8.0338  -14.9220 C   0  0  2  0  0  0  0  0  0  0  0  0
   19.5228   -8.6523  -15.6059 N   0  0  0  0  0  0  0  0  0  0  0  0
   20.4669   -6.5632  -14.8093 C   0  0  0  0  0  0  0  0  0  0  0  0
   21.2457   -5.8927  -14.0803 O   0  0  0  0  0  0  0  0  0  0  0  0
   19.4817   -5.8626  -15.4857 O   0  0  0  0  0  0  0  0  0  0  0  0
  2  1  1  0
  2  3  1  0
  3  4  2  0
  3 11  1  0
  6  5  1  0
  7  6  2  0
  8  6  1  0
  9  8  1  0
 10 12  1  0
 10  9  1  1
 11 10  1  0
 12 18  1  0
 13 12  2  0
 15 14  1  6
 15 16  1  0
 17 19  1  0
 17 15  1  0
 17 18  1  6
 19 21  1  0
 20 19  2  0
M  END
$$$$
