MDY.pdb
     RDKit          3D

 29 29  0  0  1  0  0  0  0  0999 V2000
   20.5932  -15.2899  -20.6857 C   0  0  0  0  0  0  0  0  0  0  0  0
   20.0819  -15.3301  -18.9902 S   0  0  0  0  0  0  0  0  0  0  0  0
   18.8133  -14.2361  -18.4596 C   0  0  0  0  0  0  0  0  0  0  0  0
   19.0904  -12.7875  -18.4953 C   0  0  0  0  0  0  0  0  0  0  0  0
   19.9122  -12.2612  -17.3957 C   0  0  2  0  0  0  0  0  0  0  0  0
   19.9095  -13.0269  -16.1816 N   0  0  0  0  0  0  0  0  0  0  0  0
   19.6149  -10.8114  -17.1038 C   0  0  0  0  0  0  0  0  0  0  0  0
   19.7239  -10.0111  -18.0592 O   0  0  0  0  0  0  0  0  0  0  0  0
   19.2342  -10.3508  -15.8442 N   0  0  0  0  0  0  0  0  0  0  0  0
   18.9343   -8.9284  -15.5505 C   0  0  1  0  0  0  0  0  0  0  0  0
   17.8366   -8.9893  -14.5178 C   0  0  0  0  0  0  0  0  0  0  0  0
   17.4332   -7.6914  -14.0233 C   0  0  0  0  0  0  0  0  0  0  0  0
   17.1796   -6.7291  -14.7636 O   0  0  0  0  0  0  0  0  0  0  0  0
   20.1749   -8.2734  -15.0732 C   0  0  0  0  0  0  0  0  0  0  0  0
   21.1939   -8.9459  -14.8260 O   0  0  0  0  0  0  0  0  0  0  0  0
   17.3133   -7.4768  -12.6495 O   0  0  0  0  0  0  0  0  0  0  0  0
   26.7926   -3.4662  -17.4860 O   0  0  0  0  0  0  0  0  0  0  0  0
   25.6460   -4.2085  -17.2333 C   0  0  0  0  0  0  0  0  0  0  0  0
   25.4330   -4.6989  -15.9832 C   0  0  0  0  0  0  0  0  0  0  0  0
   24.2823   -5.4486  -15.7126 C   0  0  0  0  0  0  0  0  0  0  0  0
   23.3513   -5.7042  -16.6926 C   0  0  0  0  0  0  0  0  0  0  0  0
   22.1640   -6.4931  -16.3578 C   0  0  0  0  0  0  0  0  0  0  0  0
   21.4912   -6.1045  -15.0651 C   0  0  2  0  0  0  0  0  0  0  0  0
   20.2697   -6.8530  -14.8731 N   0  0  0  0  0  0  0  0  0  0  0  0
   21.2383   -4.6748  -14.9102 C   0  0  0  0  0  0  0  0  0  0  0  0
   20.2908   -4.0785  -15.4998 O   0  0  0  0  0  0  0  0  0  0  0  0
   23.5632   -5.2093  -17.9602 C   0  0  0  0  0  0  0  0  0  0  0  0
   24.7075   -4.4698  -18.2084 C   0  0  0  0  0  0  0  0  0  0  0  0
   22.0318   -3.8638  -14.0945 O   0  0  0  0  0  0  0  0  0  0  0  0
  2  1  1  0
  3  2  1  0
  4  5  1  0
  4  3  1  0
  5  6  1  1
  7  8  2  0
  7  5  1  0
  9  7  1  0
 10  9  1  0
 10 11  1  1
 12 13  2  0
 12 11  1  0
 14 24  1  0
 14 10  1  0
 15 14  2  0
 16 12  1  0
 18 19  2  0
 18 17  1  0
 20 19  1  0
 21 20  2  0
 22 21  1  0
 23 22  1  6
 23 24  1  0
 25 23  1  0
 26 25  2  0
 27 21  1  0
 27 28  2  0
 28 18  1  0
 29 25  1  0
M  END
$$$$
