MDY.pdb
     RDKit          3D

 29 29  0  0  1  0  0  0  0  0999 V2000
   23.9781  -15.3635  -20.0528 C   0  0  0  0  0  0  0  0  0  0  0  0
   24.3085  -13.8585  -19.1790 S   0  0  0  0  0  0  0  0  0  0  0  0
   25.5817  -12.7985  -19.7644 C   0  0  0  0  0  0  0  0  0  0  0  0
   25.8619  -11.5677  -19.0009 C   0  0  0  0  0  0  0  0  0  0  0  0
   25.6332  -10.3016  -19.7125 C   0  0  2  0  0  0  0  0  0  0  0  0
   26.3126  -10.1500  -20.9678 N   0  0  0  0  0  0  0  0  0  0  0  0
   25.8776   -9.1003  -18.8336 C   0  0  0  0  0  0  0  0  0  0  0  0
   25.2627   -9.0651  -17.7447 O   0  0  0  0  0  0  0  0  0  0  0  0
   26.7397   -8.0624  -19.1852 N   0  0  0  0  0  0  0  0  0  0  0  0
   26.9462   -6.8537  -18.3510 C   0  0  1  0  0  0  0  0  0  0  0  0
   28.1742   -6.2056  -18.9399 C   0  0  0  0  0  0  0  0  0  0  0  0
   28.5480   -4.9708  -18.2862 C   0  0  0  0  0  0  0  0  0  0  0  0
   27.9066   -4.4760  -17.3471 O   0  0  0  0  0  0  0  0  0  0  0  0
   25.7271   -6.0145  -18.4263 C   0  0  0  0  0  0  0  0  0  0  0  0
   25.3352   -5.5598  -19.5178 O   0  0  0  0  0  0  0  0  0  0  0  0
   29.6821   -4.2756  -18.7087 O   0  0  0  0  0  0  0  0  0  0  0  0
   20.1167   -9.1475  -14.0724 O   0  0  0  0  0  0  0  0  0  0  0  0
   20.7367   -8.3469  -15.0233 C   0  0  0  0  0  0  0  0  0  0  0  0
   20.5673   -6.9989  -14.9708 C   0  0  0  0  0  0  0  0  0  0  0  0
   21.1857   -6.1787  -15.9217 C   0  0  0  0  0  0  0  0  0  0  0  0
   21.9696   -6.7100  -16.9195 C   0  0  0  0  0  0  0  0  0  0  0  0
   22.5949   -5.8086  -17.8893 C   0  0  0  0  0  0  0  0  0  0  0  0
   23.7017   -4.9495  -17.3309 C   0  0  2  0  0  0  0  0  0  0  0  0
   24.9443   -5.6851  -17.2666 N   0  0  0  0  0  0  0  0  0  0  0  0
   23.4096   -4.3354  -16.0388 C   0  0  0  0  0  0  0  0  0  0  0  0
   24.0875   -4.5743  -14.9974 O   0  0  0  0  0  0  0  0  0  0  0  0
   22.1437   -8.0750  -16.9763 C   0  0  0  0  0  0  0  0  0  0  0  0
   21.5239   -8.8699  -16.0267 C   0  0  0  0  0  0  0  0  0  0  0  0
   22.3543   -3.4361  -15.8649 O   0  0  0  0  0  0  0  0  0  0  0  0
  2  1  1  0
  3  2  1  0
  4  5  1  0
  4  3  1  0
  5  6  1  6
  7  8  2  0
  7  5  1  0
  9  7  1  0
 10  9  1  0
 10 11  1  6
 12 13  2  0
 12 11  1  0
 14 24  1  0
 14 10  1  0
 15 14  2  0
 16 12  1  0
 18 19  2  0
 18 17  1  0
 20 19  1  0
 21 20  2  0
 22 21  1  0
 23 22  1  1
 23 24  1  0
 25 23  1  0
 26 25  2  0
 27 21  1  0
 27 28  2  0
 28 18  1  0
 29 25  1  0
M  END
$$$$
