MDY.pdb
     RDKit          3D

 29 29  0  0  1  0  0  0  0  0999 V2000
   24.9334  -15.7736  -23.7772 C   0  0  0  0  0  0  0  0  0  0  0  0
   25.1609  -16.3152  -22.1061 S   0  0  0  0  0  0  0  0  0  0  0  0
   23.8115  -16.2039  -20.9862 C   0  0  0  0  0  0  0  0  0  0  0  0
   24.0509  -16.5693  -19.5770 C   0  0  0  0  0  0  0  0  0  0  0  0
   22.8870  -16.4857  -18.6827 C   0  0  2  0  0  0  0  0  0  0  0  0
   22.2604  -15.1984  -18.5789 N   0  0  0  0  0  0  0  0  0  0  0  0
   23.1798  -17.0404  -17.3109 C   0  0  0  0  0  0  0  0  0  0  0  0
   23.7428  -16.2708  -16.5010 O   0  0  0  0  0  0  0  0  0  0  0  0
   22.8526  -18.3410  -16.9297 N   0  0  0  0  0  0  0  0  0  0  0  0
   23.1257  -18.8899  -15.5793 C   0  0  1  0  0  0  0  0  0  0  0  0
   21.9363  -19.7721  -15.2931 C   0  0  0  0  0  0  0  0  0  0  0  0
   21.9929  -20.4208  -14.0017 C   0  0  0  0  0  0  0  0  0  0  0  0
   21.1049  -21.1767  -13.5796 O   0  0  0  0  0  0  0  0  0  0  0  0
   24.4180  -19.6143  -15.6169 C   0  0  0  0  0  0  0  0  0  0  0  0
   24.6009  -20.5459  -16.4232 O   0  0  0  0  0  0  0  0  0  0  0  0
   23.0880  -20.2071  -13.1633 O   0  0  0  0  0  0  0  0  0  0  0  0
   25.0809  -20.7581   -8.4989 O   0  0  0  0  0  0  0  0  0  0  0  0
   25.6744  -20.4695   -9.7212 C   0  0  0  0  0  0  0  0  0  0  0  0
   26.5432  -21.3622  -10.2662 C   0  0  0  0  0  0  0  0  0  0  0  0
   27.1493  -21.0860  -11.4974 C   0  0  0  0  0  0  0  0  0  0  0  0
   26.8840  -19.9196  -12.1768 C   0  0  0  0  0  0  0  0  0  0  0  0
   27.5435  -19.6788  -13.4617 C   0  0  0  0  0  0  0  0  0  0  0  0
   26.7292  -20.0632  -14.6716 C   0  0  2  0  0  0  0  0  0  0  0  0
   25.5110  -19.2883  -14.7420 N   0  0  0  0  0  0  0  0  0  0  0  0
   26.4298  -21.4880  -14.7827 C   0  0  0  0  0  0  0  0  0  0  0  0
   25.2637  -21.9568  -14.6368 O   0  0  0  0  0  0  0  0  0  0  0  0
   26.0045  -19.0128  -11.6283 C   0  0  0  0  0  0  0  0  0  0  0  0
   25.4149  -19.3038  -10.4094 C   0  0  0  0  0  0  0  0  0  0  0  0
   27.4187  -22.4357  -15.0599 O   0  0  0  0  0  0  0  0  0  0  0  0
  2  1  1  0
  3  2  1  0
  4  5  1  0
  4  3  1  0
  5  6  1  1
  7  8  2  0
  7  5  1  0
  9  7  1  0
 10  9  1  0
 10 11  1  6
 12 13  2  0
 12 11  1  0
 14 24  1  0
 14 10  1  0
 15 14  2  0
 16 12  1  0
 18 19  2  0
 18 17  1  0
 20 19  1  0
 21 20  2  0
 22 21  1  0
 23 22  1  1
 23 24  1  0
 25 23  1  0
 26 25  2  0
 27 21  1  0
 27 28  2  0
 28 18  1  0
 29 25  1  0
M  END
$$$$
