MDY.pdb
     RDKit          3D

 29 29  0  0  1  0  0  0  0  0999 V2000
   29.4051  -14.1561  -18.5476 C   0  0  0  0  0  0  0  0  0  0  0  0
   30.0388  -15.7200  -19.0863 S   0  0  0  0  0  0  0  0  0  0  0  0
   29.1314  -17.1778  -18.7138 C   0  0  0  0  0  0  0  0  0  0  0  0
   28.0896  -17.0963  -17.6723 C   0  0  0  0  0  0  0  0  0  0  0  0
   27.3421  -18.3348  -17.4100 C   0  0  2  0  0  0  0  0  0  0  0  0
   27.1995  -19.2344  -18.5195 N   0  0  0  0  0  0  0  0  0  0  0  0
   26.0010  -18.0683  -16.7731 C   0  0  0  0  0  0  0  0  0  0  0  0
   25.9956  -17.3387  -15.7568 O   0  0  0  0  0  0  0  0  0  0  0  0
   24.8065  -18.5921  -17.2658 N   0  0  0  0  0  0  0  0  0  0  0  0
   23.4944  -18.3993  -16.6020 C   0  0  1  0  0  0  0  0  0  0  0  0
   22.5094  -18.3434  -17.7429 C   0  0  0  0  0  0  0  0  0  0  0  0
   22.3686  -17.0261  -18.3232 C   0  0  0  0  0  0  0  0  0  0  0  0
   22.5132  -15.9778  -17.6764 O   0  0  0  0  0  0  0  0  0  0  0  0
   23.2690  -19.5259  -15.6660 C   0  0  0  0  0  0  0  0  0  0  0  0
   24.0986  -20.4504  -15.5731 O   0  0  0  0  0  0  0  0  0  0  0  0
   22.0547  -16.8920  -19.6765 O   0  0  0  0  0  0  0  0  0  0  0  0
   23.4088  -21.4615   -7.3554 O   0  0  0  0  0  0  0  0  0  0  0  0
   23.3683  -20.9808   -8.6579 C   0  0  0  0  0  0  0  0  0  0  0  0
   22.2151  -20.4379   -9.1313 C   0  0  0  0  0  0  0  0  0  0  0  0
   22.1585  -19.9488  -10.4416 C   0  0  0  0  0  0  0  0  0  0  0  0
   23.2542  -20.0052  -11.2715 C   0  0  0  0  0  0  0  0  0  0  0  0
   23.1432  -19.4791  -12.6334 C   0  0  0  0  0  0  0  0  0  0  0  0
   22.1221  -20.1750  -13.4981 C   0  0  2  0  0  0  0  0  0  0  0  0
   22.1031  -19.6126  -14.8295 N   0  0  0  0  0  0  0  0  0  0  0  0
   20.7713  -20.2111  -12.9447 C   0  0  0  0  0  0  0  0  0  0  0  0
   20.0260  -19.1901  -12.8887 O   0  0  0  0  0  0  0  0  0  0  0  0
   24.4243  -20.5543  -10.7959 C   0  0  0  0  0  0  0  0  0  0  0  0
   24.4608  -21.0327   -9.4968 C   0  0  0  0  0  0  0  0  0  0  0  0
   20.2076  -21.3843  -12.4363 O   0  0  0  0  0  0  0  0  0  0  0  0
  2  1  1  0
  3  2  1  0
  4  5  1  0
  4  3  1  0
  5  6  1  6
  7  8  2  0
  7  5  1  0
  9  7  1  0
 10  9  1  0
 10 11  1  6
 12 13  2  0
 12 11  1  0
 14 24  1  0
 14 10  1  0
 15 14  2  0
 16 12  1  0
 18 19  2  0
 18 17  1  0
 20 19  1  0
 21 20  2  0
 22 21  1  0
 23 22  1  1
 23 24  1  0
 25 23  1  0
 26 25  2  0
 27 21  1  0
 27 28  2  0
 28 18  1  0
 29 25  1  0
M  END
$$$$
