MDY.pdb
     RDKit          3D

 29 29  0  0  1  0  0  0  0  0999 V2000
   22.3104  -16.9415  -18.1612 C   0  0  0  0  0  0  0  0  0  0  0  0
   22.1131  -15.1963  -17.9310 S   0  0  0  0  0  0  0  0  0  0  0  0
   21.1879  -14.2830  -19.1132 C   0  0  0  0  0  0  0  0  0  0  0  0
   21.0260  -12.8332  -18.8937 C   0  0  0  0  0  0  0  0  0  0  0  0
   20.5573  -12.4317  -17.5593 C   0  0  2  0  0  0  0  0  0  0  0  0
   19.3969  -13.1164  -17.0641 N   0  0  0  0  0  0  0  0  0  0  0  0
   20.3768  -10.9387  -17.4426 C   0  0  0  0  0  0  0  0  0  0  0  0
   21.3400  -10.2256  -17.8017 O   0  0  0  0  0  0  0  0  0  0  0  0
   19.2082  -10.3481  -16.9637 N   0  0  0  0  0  0  0  0  0  0  0  0
   19.0033   -8.8809  -16.8940 C   0  0  1  0  0  0  0  0  0  0  0  0
   17.5159   -8.7079  -17.0746 C   0  0  0  0  0  0  0  0  0  0  0  0
   17.0703   -7.3391  -16.9351 C   0  0  0  0  0  0  0  0  0  0  0  0
   17.6556   -6.3760  -17.4530 O   0  0  0  0  0  0  0  0  0  0  0  0
   19.5125   -8.3948  -15.5899 C   0  0  0  0  0  0  0  0  0  0  0  0
   19.0996   -8.8875  -14.5230 O   0  0  0  0  0  0  0  0  0  0  0  0
   15.9277   -7.0523  -16.1869 O   0  0  0  0  0  0  0  0  0  0  0  0
   26.2275   -6.4243  -17.8646 O   0  0  0  0  0  0  0  0  0  0  0  0
   25.2677   -6.6812  -16.8938 C   0  0  0  0  0  0  0  0  0  0  0  0
   24.8463   -5.6686  -16.0903 C   0  0  0  0  0  0  0  0  0  0  0  0
   23.8796   -5.9114  -15.1076 C   0  0  0  0  0  0  0  0  0  0  0  0
   23.3396   -7.1646  -14.9332 C   0  0  0  0  0  0  0  0  0  0  0  0
   22.3307   -7.3661  -13.8914 C   0  0  0  0  0  0  0  0  0  0  0  0
   20.9628   -6.8245  -14.2234 C   0  0  2  0  0  0  0  0  0  0  0  0
   20.4922   -7.3480  -15.4858 N   0  0  0  0  0  0  0  0  0  0  0  0
   20.8592   -5.3681  -14.2093 C   0  0  0  0  0  0  0  0  0  0  0  0
   21.1298   -4.6714  -13.1883 O   0  0  0  0  0  0  0  0  0  0  0  0
   23.7637   -8.1932  -15.7450 C   0  0  0  0  0  0  0  0  0  0  0  0
   24.7208   -7.9332  -16.7116 C   0  0  0  0  0  0  0  0  0  0  0  0
   20.4512   -4.6412  -15.3309 O   0  0  0  0  0  0  0  0  0  0  0  0
  2  1  1  0
  3  2  1  0
  4  5  1  0
  4  3  1  0
  5  6  1  6
  7  8  2  0
  7  5  1  0
  9  7  1  0
 10  9  1  0
 10 11  1  1
 12 13  2  0
 12 11  1  0
 14 24  1  0
 14 10  1  0
 15 14  2  0
 16 12  1  0
 18 19  2  0
 18 17  1  0
 20 19  1  0
 21 20  2  0
 22 21  1  0
 23 22  1  6
 23 24  1  0
 25 23  1  0
 26 25  2  0
 27 21  1  0
 27 28  2  0
 28 18  1  0
 29 25  1  0
M  END
$$$$
