MDY.pdb
     RDKit          3D

 29 29  0  0  1  0  0  0  0  0999 V2000
   16.1849  -14.9621  -18.8551 C   0  0  0  0  0  0  0  0  0  0  0  0
   16.7087  -13.8997  -17.5381 S   0  0  0  0  0  0  0  0  0  0  0  0
   18.3471  -14.0549  -16.9223 C   0  0  0  0  0  0  0  0  0  0  0  0
   18.7859  -13.1084  -15.8791 C   0  0  0  0  0  0  0  0  0  0  0  0
   19.5798  -11.9611  -16.3425 C   0  0  2  0  0  0  0  0  0  0  0  0
   20.8303  -12.2715  -16.9753 N   0  0  0  0  0  0  0  0  0  0  0  0
   19.7799  -10.9304  -15.2595 C   0  0  0  0  0  0  0  0  0  0  0  0
   20.6539  -11.1798  -14.3998 O   0  0  0  0  0  0  0  0  0  0  0  0
   19.0459   -9.7471  -15.1895 N   0  0  0  0  0  0  0  0  0  0  0  0
   19.2799   -8.6997  -14.1659 C   0  0  1  0  0  0  0  0  0  0  0  0
   19.8203   -7.5312  -14.9517 C   0  0  0  0  0  0  0  0  0  0  0  0
   20.0260   -6.3420  -14.1547 C   0  0  0  0  0  0  0  0  0  0  0  0
   20.9080   -6.2472  -13.2878 O   0  0  0  0  0  0  0  0  0  0  0  0
   17.9989   -8.4205  -13.4751 C   0  0  0  0  0  0  0  0  0  0  0  0
   16.9531   -8.2359  -14.1261 O   0  0  0  0  0  0  0  0  0  0  0  0
   19.2087   -5.2270  -14.3450 O   0  0  0  0  0  0  0  0  0  0  0  0
   12.2758   -6.9614   -6.7744 O   0  0  0  0  0  0  0  0  0  0  0  0
   13.3580   -7.3453   -7.5560 C   0  0  0  0  0  0  0  0  0  0  0  0
   14.5198   -6.6437   -7.4744 C   0  0  0  0  0  0  0  0  0  0  0  0
   15.6194   -7.0182   -8.2553 C   0  0  0  0  0  0  0  0  0  0  0  0
   15.5520   -8.0914   -9.1133 C   0  0  0  0  0  0  0  0  0  0  0  0
   16.7307   -8.4425   -9.9077 C   0  0  0  0  0  0  0  0  0  0  0  0
   16.6681   -8.0167  -11.3532 C   0  0  2  0  0  0  0  0  0  0  0  0
   17.8940   -8.3488  -12.0433 N   0  0  0  0  0  0  0  0  0  0  0  0
   16.3328   -6.6115  -11.5652 C   0  0  0  0  0  0  0  0  0  0  0  0
   15.1735   -6.2255  -11.8940 O   0  0  0  0  0  0  0  0  0  0  0  0
   14.3771   -8.8048   -9.1990 C   0  0  0  0  0  0  0  0  0  0  0  0
   13.3001   -8.4190   -8.4183 C   0  0  0  0  0  0  0  0  0  0  0  0
   17.2769   -5.5917  -11.4181 O   0  0  0  0  0  0  0  0  0  0  0  0
  2  1  1  0
  3  2  1  0
  4  5  1  0
  4  3  1  0
  5  6  1  1
  7  8  2  0
  7  5  1  0
  9  7  1  0
 10  9  1  0
 10 11  1  6
 12 13  2  0
 12 11  1  0
 14 24  1  0
 14 10  1  0
 15 14  2  0
 16 12  1  0
 18 19  2  0
 18 17  1  0
 20 19  1  0
 21 20  2  0
 22 21  1  0
 23 22  1  1
 23 24  1  0
 25 23  1  0
 26 25  2  0
 27 21  1  0
 27 28  2  0
 28 18  1  0
 29 25  1  0
M  END
$$$$
