MDY.pdb
     RDKit          3D

 29 29  0  0  1  0  0  0  0  0999 V2000
   19.2417  -13.5112  -15.2198 C   0  0  0  0  0  0  0  0  0  0  0  0
   18.8535  -13.4760  -16.9477 S   0  0  0  0  0  0  0  0  0  0  0  0
   19.0445  -11.9687  -17.8305 C   0  0  0  0  0  0  0  0  0  0  0  0
   18.5303  -10.7337  -17.2086 C   0  0  0  0  0  0  0  0  0  0  0  0
   18.8597   -9.4786  -17.8998 C   0  0  2  0  0  0  0  0  0  0  0  0
   19.9508   -9.5367  -18.8307 N   0  0  0  0  0  0  0  0  0  0  0  0
   19.0478   -8.3303  -16.9399 C   0  0  0  0  0  0  0  0  0  0  0  0
   18.1174   -8.1139  -16.1320 O   0  0  0  0  0  0  0  0  0  0  0  0
   20.1890   -7.5295  -16.9250 N   0  0  0  0  0  0  0  0  0  0  0  0
   20.3979   -6.4225  -15.9604 C   0  0  1  0  0  0  0  0  0  0  0  0
   21.6959   -6.7708  -15.2758 C   0  0  0  0  0  0  0  0  0  0  0  0
   21.5564   -7.7763  -14.2457 C   0  0  0  0  0  0  0  0  0  0  0  0
   20.8687   -7.6161  -13.2261 O   0  0  0  0  0  0  0  0  0  0  0  0
   20.4359   -5.1445  -16.7098 C   0  0  0  0  0  0  0  0  0  0  0  0
   20.8210   -5.1136  -17.8941 O   0  0  0  0  0  0  0  0  0  0  0  0
   22.2153   -8.9999  -14.3741 O   0  0  0  0  0  0  0  0  0  0  0  0
   19.0450    1.9171  -21.2437 O   0  0  0  0  0  0  0  0  0  0  0  0
   19.0934    0.7485  -20.4944 C   0  0  0  0  0  0  0  0  0  0  0  0
   20.3010    0.2432  -20.1270 C   0  0  0  0  0  0  0  0  0  0  0  0
   20.3664   -0.9335  -19.3716 C   0  0  0  0  0  0  0  0  0  0  0  0
   19.2249   -1.5985  -18.9878 C   0  0  0  0  0  0  0  0  0  0  0  0
   19.3476   -2.8250  -18.1975 C   0  0  0  0  0  0  0  0  0  0  0  0
   20.0109   -2.6475  -16.8547 C   0  0  2  0  0  0  0  0  0  0  0  0
   20.0382   -3.8939  -16.1232 N   0  0  0  0  0  0  0  0  0  0  0  0
   19.4454   -1.5867  -16.0260 C   0  0  0  0  0  0  0  0  0  0  0  0
   18.5661   -1.8024  -15.1420 O   0  0  0  0  0  0  0  0  0  0  0  0
   17.9996   -1.0900  -19.3578 C   0  0  0  0  0  0  0  0  0  0  0  0
   17.9554    0.0752  -20.1050 C   0  0  0  0  0  0  0  0  0  0  0  0
   19.8405   -0.2525  -16.1549 O   0  0  0  0  0  0  0  0  0  0  0  0
  2  1  1  0
  3  2  1  0
  4  5  1  0
  4  3  1  0
  5  6  1  1
  7  8  2  0
  7  5  1  0
  9  7  1  0
 10  9  1  0
 10 11  1  6
 12 13  2  0
 12 11  1  0
 14 24  1  0
 14 10  1  0
 15 14  2  0
 16 12  1  0
 18 19  2  0
 18 17  1  0
 20 19  1  0
 21 20  2  0
 22 21  1  0
 23 22  1  6
 23 24  1  0
 25 23  1  0
 26 25  2  0
 27 21  1  0
 27 28  2  0
 28 18  1  0
 29 25  1  0
M  END
$$$$
