MDY.pdb
     RDKit          3D

 29 29  0  0  1  0  0  0  0  0999 V2000
   19.6756   -9.5338  -25.1129 C   0  0  0  0  0  0  0  0  0  0  0  0
   20.1401   -8.8983  -23.5261 S   0  0  0  0  0  0  0  0  0  0  0  0
   19.5552   -9.7102  -22.0817 C   0  0  0  0  0  0  0  0  0  0  0  0
   19.8661   -9.1029  -20.7736 C   0  0  0  0  0  0  0  0  0  0  0  0
   19.3881   -9.8363  -19.5925 C   0  0  2  0  0  0  0  0  0  0  0  0
   18.0317  -10.3032  -19.6441 N   0  0  0  0  0  0  0  0  0  0  0  0
   19.6355   -9.0794  -18.3115 C   0  0  0  0  0  0  0  0  0  0  0  0
   18.7402   -8.2864  -17.9444 O   0  0  0  0  0  0  0  0  0  0  0  0
   20.7925   -9.2314  -17.5485 N   0  0  0  0  0  0  0  0  0  0  0  0
   21.0570   -8.4689  -16.3043 C   0  0  1  0  0  0  0  0  0  0  0  0
   21.6885   -9.4798  -15.3802 C   0  0  0  0  0  0  0  0  0  0  0  0
   20.7593  -10.4697  -14.8818 C   0  0  0  0  0  0  0  0  0  0  0  0
   19.7780  -10.1890  -14.1771 O   0  0  0  0  0  0  0  0  0  0  0  0
   21.9351   -7.3210  -16.6321 C   0  0  0  0  0  0  0  0  0  0  0  0
   22.7506   -7.3926  -17.5709 O   0  0  0  0  0  0  0  0  0  0  0  0
   20.9468  -11.8177  -15.1907 O   0  0  0  0  0  0  0  0  0  0  0  0
   17.1250   -2.1811  -18.3470 O   0  0  0  0  0  0  0  0  0  0  0  0
   18.3695   -2.7836  -18.2142 C   0  0  0  0  0  0  0  0  0  0  0  0
   19.3676   -2.1156  -17.5770 C   0  0  0  0  0  0  0  0  0  0  0  0
   20.6272   -2.7095  -17.4350 C   0  0  0  0  0  0  0  0  0  0  0  0
   20.8822   -3.9672  -17.9305 C   0  0  0  0  0  0  0  0  0  0  0  0
   22.2165   -4.5441  -17.7551 C   0  0  0  0  0  0  0  0  0  0  0  0
   22.5752   -4.8846  -16.3303 C   0  0  2  0  0  0  0  0  0  0  0  0
   21.8952   -6.0850  -15.8992 N   0  0  0  0  0  0  0  0  0  0  0  0
   22.3592   -3.8074  -15.3686 C   0  0  0  0  0  0  0  0  0  0  0  0
   22.8948   -2.6670  -15.4850 O   0  0  0  0  0  0  0  0  0  0  0  0
   19.8739   -4.6473  -18.5767 C   0  0  0  0  0  0  0  0  0  0  0  0
   18.6346   -4.0432  -18.7073 C   0  0  0  0  0  0  0  0  0  0  0  0
   21.5404   -3.9654  -14.2473 O   0  0  0  0  0  0  0  0  0  0  0  0
  2  1  1  0
  3  2  1  0
  4  5  1  0
  4  3  1  0
  5  6  1  6
  7  8  2  0
  7  5  1  0
  9  7  1  0
 10  9  1  0
 10 11  1  1
 12 13  2  0
 12 11  1  0
 14 24  1  0
 14 10  1  0
 15 14  2  0
 16 12  1  0
 18 19  2  0
 18 17  1  0
 20 19  1  0
 21 20  2  0
 22 21  1  0
 23 22  1  6
 23 24  1  0
 25 23  1  0
 26 25  2  0
 27 21  1  0
 27 28  2  0
 28 18  1  0
 29 25  1  0
M  END
$$$$
