MDY.pdb
     RDKit          3D

 29 29  0  0  1  0  0  0  0  0999 V2000
   24.7025  -20.3565   -7.9386 C   0  0  0  0  0  0  0  0  0  0  0  0
   26.3431  -20.5308   -8.5833 S   0  0  0  0  0  0  0  0  0  0  0  0
   26.5546  -20.7870  -10.3088 C   0  0  0  0  0  0  0  0  0  0  0  0
   25.3495  -21.0309  -11.1241 C   0  0  0  0  0  0  0  0  0  0  0  0
   25.5798  -21.2927  -12.5524 C   0  0  2  0  0  0  0  0  0  0  0  0
   26.5836  -20.4882  -13.1891 N   0  0  0  0  0  0  0  0  0  0  0  0
   24.3005  -21.2671  -13.3512 C   0  0  0  0  0  0  0  0  0  0  0  0
   23.8915  -20.1448  -13.7230 O   0  0  0  0  0  0  0  0  0  0  0  0
   23.5836  -22.4174  -13.6779 N   0  0  0  0  0  0  0  0  0  0  0  0
   22.3301  -22.4016  -14.4703 C   0  0  1  0  0  0  0  0  0  0  0  0
   22.3923  -23.6707  -15.2829 C   0  0  0  0  0  0  0  0  0  0  0  0
   23.5512  -23.7513  -16.1444 C   0  0  0  0  0  0  0  0  0  0  0  0
   23.7594  -22.9659  -17.0814 O   0  0  0  0  0  0  0  0  0  0  0  0
   21.1817  -22.3403  -13.5356 C   0  0  0  0  0  0  0  0  0  0  0  0
   21.2591  -22.8462  -12.4000 O   0  0  0  0  0  0  0  0  0  0  0  0
   24.5029  -24.7512  -15.9385 O   0  0  0  0  0  0  0  0  0  0  0  0
   19.6025  -15.1373  -13.4033 O   0  0  0  0  0  0  0  0  0  0  0  0
   19.5458  -16.4736  -13.0285 C   0  0  0  0  0  0  0  0  0  0  0  0
   18.4227  -16.9491  -12.4275 C   0  0  0  0  0  0  0  0  0  0  0  0
   18.3501  -18.2933  -12.0441 C   0  0  0  0  0  0  0  0  0  0  0  0
   19.4001  -19.1548  -12.2632 C   0  0  0  0  0  0  0  0  0  0  0  0
   19.2736  -20.5520  -11.8440 C   0  0  0  0  0  0  0  0  0  0  0  0
   18.8618  -21.5050  -12.9380 C   0  0  2  0  0  0  0  0  0  0  0  0
   19.9389  -21.7057  -13.8809 N   0  0  0  0  0  0  0  0  0  0  0  0
   17.6354  -21.1396  -13.6411 C   0  0  0  0  0  0  0  0  0  0  0  0
   17.6198  -20.7951  -14.8585 O   0  0  0  0  0  0  0  0  0  0  0  0
   20.5396  -18.6772  -12.8717 C   0  0  0  0  0  0  0  0  0  0  0  0
   20.5924  -17.3443  -13.2438 C   0  0  0  0  0  0  0  0  0  0  0  0
   16.3878  -21.1461  -13.0115 O   0  0  0  0  0  0  0  0  0  0  0  0
  2  1  1  0
  3  2  1  0
  4  5  1  0
  4  3  1  0
  5  6  1  6
  7  8  2  0
  7  5  1  0
  9  7  1  0
 10  9  1  0
 10 11  1  1
 12 13  2  0
 12 11  1  0
 14 24  1  0
 14 10  1  0
 15 14  2  0
 16 12  1  0
 18 19  2  0
 18 17  1  0
 20 19  1  0
 21 20  2  0
 22 21  1  0
 23 22  1  1
 23 24  1  0
 25 23  1  0
 26 25  2  0
 27 21  1  0
 27 28  2  0
 28 18  1  0
 29 25  1  0
M  END
$$$$
