MDY.pdb
     RDKit          3D

 29 29  0  0  1  0  0  0  0  0999 V2000
   19.6183  -15.4733  -19.2861 C   0  0  0  0  0  0  0  0  0  0  0  0
   20.6742  -14.1149  -18.8646 S   0  0  0  0  0  0  0  0  0  0  0  0
   20.0309  -12.8153  -17.8723 C   0  0  0  0  0  0  0  0  0  0  0  0
   20.8736  -11.6224  -17.6646 C   0  0  0  0  0  0  0  0  0  0  0  0
   20.2842  -10.5510  -16.8483 C   0  0  2  0  0  0  0  0  0  0  0  0
   18.8533  -10.5567  -16.7350 N   0  0  0  0  0  0  0  0  0  0  0  0
   20.7739   -9.1848  -17.2593 C   0  0  0  0  0  0  0  0  0  0  0  0
   22.0128   -9.0329  -17.3437 O   0  0  0  0  0  0  0  0  0  0  0  0
   19.9170   -8.1212  -17.5395 N   0  0  0  0  0  0  0  0  0  0  0  0
   20.3907   -6.7714  -17.9307 C   0  0  1  0  0  0  0  0  0  0  0  0
   19.4665   -6.3677  -19.0522 C   0  0  0  0  0  0  0  0  0  0  0  0
   19.8203   -5.1090  -19.6704 C   0  0  0  0  0  0  0  0  0  0  0  0
   20.8386   -4.4664  -19.3728 O   0  0  0  0  0  0  0  0  0  0  0  0
   20.3222   -5.8853  -16.7449 C   0  0  0  0  0  0  0  0  0  0  0  0
   19.2698   -5.7858  -16.0860 O   0  0  0  0  0  0  0  0  0  0  0  0
   18.9964   -4.5616  -20.6549 O   0  0  0  0  0  0  0  0  0  0  0  0
   18.8520   -8.7639  -11.4115 O   0  0  0  0  0  0  0  0  0  0  0  0
   19.6528   -7.8216  -12.0442 C   0  0  0  0  0  0  0  0  0  0  0  0
   19.2902   -6.5116  -12.0129 C   0  0  0  0  0  0  0  0  0  0  0  0
   20.0867   -5.5501  -12.6455 C   0  0  0  0  0  0  0  0  0  0  0  0
   21.2408   -5.9029  -13.3059 C   0  0  0  0  0  0  0  0  0  0  0  0
   22.0393   -4.8587  -13.9509 C   0  0  0  0  0  0  0  0  0  0  0  0
   21.3923   -4.2223  -15.1555 C   0  0  2  0  0  0  0  0  0  0  0  0
   21.4447   -5.1065  -16.2978 N   0  0  0  0  0  0  0  0  0  0  0  0
   21.9158   -2.9061  -15.5100 C   0  0  0  0  0  0  0  0  0  0  0  0
   22.3895   -2.6419  -16.6532 O   0  0  0  0  0  0  0  0  0  0  0  0
   21.6118   -7.2288  -13.3400 C   0  0  0  0  0  0  0  0  0  0  0  0
   20.8108   -8.1654  -12.7082 C   0  0  0  0  0  0  0  0  0  0  0  0
   21.9285   -1.8426  -14.6036 O   0  0  0  0  0  0  0  0  0  0  0  0
  2  1  1  0
  3  2  1  0
  4  5  1  0
  4  3  1  0
  5  6  1  6
  7  8  2  0
  7  5  1  0
  9  7  1  0
 10  9  1  0
 10 11  1  6
 12 13  2  0
 12 11  1  0
 14 24  1  0
 14 10  1  0
 15 14  2  0
 16 12  1  0
 18 19  2  0
 18 17  1  0
 20 19  1  0
 21 20  2  0
 22 21  1  0
 23 22  1  1
 23 24  1  0
 25 23  1  0
 26 25  2  0
 27 21  1  0
 27 28  2  0
 28 18  1  0
 29 25  1  0
M  END
$$$$
