MDY.pdb
     RDKit          3D

 29 29  0  0  1  0  0  0  0  0999 V2000
   34.1119  -37.8838  -12.5207 C   0  0  0  0  0  0  0  0  0  0  0  0
   35.1701  -36.9373  -11.4615 S   0  0  0  0  0  0  0  0  0  0  0  0
   35.3290  -37.4109   -9.7769 C   0  0  0  0  0  0  0  0  0  0  0  0
   34.1082  -37.8171   -9.0550 C   0  0  0  0  0  0  0  0  0  0  0  0
   33.2876  -36.7252   -8.5110 C   0  0  2  0  0  0  0  0  0  0  0  0
   33.9863  -35.7263   -7.7531 N   0  0  0  0  0  0  0  0  0  0  0  0
   32.0978  -37.2359   -7.7373 C   0  0  0  0  0  0  0  0  0  0  0  0
   31.3846  -38.0941   -8.3031 O   0  0  0  0  0  0  0  0  0  0  0  0
   31.7789  -36.7965   -6.4531 N   0  0  0  0  0  0  0  0  0  0  0  0
   30.5327  -37.1773   -5.7450 C   0  0  1  0  0  0  0  0  0  0  0  0
   30.9646  -37.3582   -4.3113 C   0  0  0  0  0  0  0  0  0  0  0  0
   29.8745  -37.6655   -3.4118 C   0  0  0  0  0  0  0  0  0  0  0  0
   29.4519  -38.8160   -3.2218 O   0  0  0  0  0  0  0  0  0  0  0  0
   29.5311  -36.1029   -5.9416 C   0  0  0  0  0  0  0  0  0  0  0  0
   29.8702  -34.9047   -5.9099 O   0  0  0  0  0  0  0  0  0  0  0  0
   29.2443  -36.6394   -2.7065 O   0  0  0  0  0  0  0  0  0  0  0  0
   23.4886  -31.2031   -9.7514 O   0  0  0  0  0  0  0  0  0  0  0  0
   24.4520  -32.0936   -9.2948 C   0  0  0  0  0  0  0  0  0  0  0  0
   24.3065  -33.4207   -9.5517 C   0  0  0  0  0  0  0  0  0  0  0  0
   25.2688  -34.3306   -9.0986 C   0  0  0  0  0  0  0  0  0  0  0  0
   26.3710  -33.9092   -8.3913 C   0  0  0  0  0  0  0  0  0  0  0  0
   27.3490  -34.9011   -7.9403 C   0  0  0  0  0  0  0  0  0  0  0  0
   27.1746  -35.3568   -6.5132 C   0  0  2  0  0  0  0  0  0  0  0  0
   28.1398  -36.3784   -6.1754 N   0  0  0  0  0  0  0  0  0  0  0  0
   25.8265  -35.8013   -6.1711 C   0  0  0  0  0  0  0  0  0  0  0  0
   24.9462  -35.0225   -5.7025 O   0  0  0  0  0  0  0  0  0  0  0  0
   26.5222  -32.5657   -8.1289 C   0  0  0  0  0  0  0  0  0  0  0  0
   25.5595  -31.6810   -8.5856 C   0  0  0  0  0  0  0  0  0  0  0  0
   25.4157  -37.1263   -6.3397 O   0  0  0  0  0  0  0  0  0  0  0  0
  2  1  1  0
  3  2  1  0
  4  5  1  0
  4  3  1  0
  5  6  1  1
  7  8  2  0
  7  5  1  0
  9  7  1  0
 10  9  1  0
 10 11  1  1
 12 13  2  0
 12 11  1  0
 14 24  1  0
 14 10  1  0
 15 14  2  0
 16 12  1  0
 18 19  2  0
 18 17  1  0
 20 19  1  0
 21 20  2  0
 22 21  1  0
 23 22  1  6
 23 24  1  0
 25 23  1  0
 26 25  2  0
 27 21  1  0
 27 28  2  0
 28 18  1  0
 29 25  1  0
M  END
$$$$
