MDY.pdb
     RDKit          3D

 29 29  0  0  1  0  0  0  0  0999 V2000
   28.7770  -12.0961  -15.6271 C   0  0  0  0  0  0  0  0  0  0  0  0
   27.2407  -11.3611  -16.1138 S   0  0  0  0  0  0  0  0  0  0  0  0
   26.4140  -10.2961  -14.9868 C   0  0  0  0  0  0  0  0  0  0  0  0
   25.1568   -9.6635  -15.4293 C   0  0  0  0  0  0  0  0  0  0  0  0
   23.9747  -10.5368  -15.4683 C   0  0  2  0  0  0  0  0  0  0  0  0
   24.0950  -11.7289  -16.2587 N   0  0  0  0  0  0  0  0  0  0  0  0
   22.7209   -9.7844  -15.8386 C   0  0  0  0  0  0  0  0  0  0  0  0
   22.2219  -10.0383  -16.9574 O   0  0  0  0  0  0  0  0  0  0  0  0
   22.1201   -8.8463  -15.0002 N   0  0  0  0  0  0  0  0  0  0  0  0
   20.8580   -8.1424  -15.3333 C   0  0  1  0  0  0  0  0  0  0  0  0
   20.0854   -8.1391  -14.0379 C   0  0  0  0  0  0  0  0  0  0  0  0
   19.3368   -9.3547  -13.8063 C   0  0  0  0  0  0  0  0  0  0  0  0
   19.2101  -10.2490  -14.6562 O   0  0  0  0  0  0  0  0  0  0  0  0
   21.1914   -6.7900  -15.8395 C   0  0  0  0  0  0  0  0  0  0  0  0
   22.0311   -6.0812  -15.2529 O   0  0  0  0  0  0  0  0  0  0  0  0
   18.7131   -9.5637  -12.5755 O   0  0  0  0  0  0  0  0  0  0  0  0
   26.1553   -7.3753  -20.1749 O   0  0  0  0  0  0  0  0  0  0  0  0
   24.9271   -6.7972  -19.8804 C   0  0  0  0  0  0  0  0  0  0  0  0
   24.8644   -5.4643  -19.6198 C   0  0  0  0  0  0  0  0  0  0  0  0
   23.6342   -4.8669  -19.3216 C   0  0  0  0  0  0  0  0  0  0  0  0
   22.4736   -5.6047  -19.2855 C   0  0  0  0  0  0  0  0  0  0  0  0
   21.2122   -4.9319  -18.9692 C   0  0  0  0  0  0  0  0  0  0  0  0
   20.8623   -4.9025  -17.5025 C   0  0  2  0  0  0  0  0  0  0  0  0
   20.5763   -6.2321  -17.0128 N   0  0  0  0  0  0  0  0  0  0  0  0
   19.7801   -3.9888  -17.1477 C   0  0  0  0  0  0  0  0  0  0  0  0
   18.6713   -4.3862  -16.6853 O   0  0  0  0  0  0  0  0  0  0  0  0
   22.5327   -6.9552  -19.5490 C   0  0  0  0  0  0  0  0  0  0  0  0
   23.7590   -7.5280  -19.8419 C   0  0  0  0  0  0  0  0  0  0  0  0
   19.8976   -2.6043  -17.2962 O   0  0  0  0  0  0  0  0  0  0  0  0
  2  1  1  0
  3  2  1  0
  4  5  1  0
  4  3  1  0
  5  6  1  6
  7  8  2  0
  7  5  1  0
  9  7  1  0
 10  9  1  0
 10 11  1  1
 12 13  2  0
 12 11  1  0
 14 24  1  0
 14 10  1  0
 15 14  2  0
 16 12  1  0
 18 19  2  0
 18 17  1  0
 20 19  1  0
 21 20  2  0
 22 21  1  0
 23 22  1  6
 23 24  1  0
 25 23  1  0
 26 25  2  0
 27 21  1  0
 27 28  2  0
 28 18  1  0
 29 25  1  0
M  END
$$$$
