PYK.pdb
     RDKit          3D

 29 30  0  0  1  0  0  0  0  0999 V2000
   28.1383  -19.9087  -17.8768 N   0  0  0  0  0  0  0  0  0  0  0  0
   29.4647  -19.6378  -18.3396 C   0  0  0  0  0  0  0  0  0  0  0  0
   30.1098  -20.9757  -18.6587 C   0  0  0  0  0  0  0  0  0  0  0  0
   29.4339  -21.8690  -17.6284 C   0  0  0  0  0  0  0  0  0  0  0  0
   28.0117  -21.3272  -17.6745 C   0  0  1  0  0  0  0  0  0  0  0  0
   27.2349  -21.6827  -16.4861 C   0  0  0  0  0  0  0  0  0  0  0  0
   26.7603  -22.8387  -16.3734 O   0  0  0  0  0  0  0  0  0  0  0  0
   24.5367  -20.3420   -8.0044 O   0  0  0  0  0  0  0  0  0  0  0  0
   25.1439  -20.3906   -9.2767 C   0  0  0  0  0  0  0  0  0  0  0  0
   25.5821  -19.2424   -9.8935 C   0  0  0  0  0  0  0  0  0  0  0  0
   26.1771  -19.3039  -11.1440 C   0  0  0  0  0  0  0  0  0  0  0  0
   26.3551  -20.4859  -11.8137 C   0  0  0  0  0  0  0  0  0  0  0  0
   26.9936  -20.5469  -13.1296 C   0  0  0  0  0  0  0  0  0  0  0  0
   26.1787  -20.9911  -14.2824 C   0  0  2  0  0  0  0  0  0  0  0  0
   27.0217  -20.7297  -15.4735 N   0  0  0  0  0  0  0  0  0  0  0  0
   24.9221  -20.2712  -14.5002 C   0  0  0  0  0  0  0  0  0  0  0  0
   24.9282  -19.0291  -14.8620 O   0  0  0  0  0  0  0  0  0  0  0  0
   25.9077  -21.6291  -11.1769 C   0  0  0  0  0  0  0  0  0  0  0  0
   25.3138  -21.5870   -9.9341 C   0  0  0  0  0  0  0  0  0  0  0  0
   23.6172  -20.8108  -14.3597 N   0  0  0  0  0  0  0  0  0  0  0  0
   22.4252  -19.9570  -14.4434 C   0  0  1  0  0  0  0  0  0  0  0  0
   21.8759  -20.0777  -15.8536 C   0  0  0  0  0  0  0  0  0  0  0  0
   20.6234  -19.3069  -16.0916 C   0  0  0  0  0  0  0  0  0  0  0  0
   20.1084  -19.4813  -17.5189 C   0  0  0  0  0  0  0  0  0  0  0  0
   18.8815  -18.6258  -17.7191 C   0  0  0  0  0  0  0  0  0  0  0  0
   19.3400  -17.2711  -18.0311 N   0  0  0  0  0  0  0  0  0  0  0  0
   21.4430  -20.3042  -13.4222 C   0  0  0  0  0  0  0  0  0  0  0  0
   21.3978  -21.4708  -12.6849 O   0  0  0  0  0  0  0  0  0  0  0  0
   20.4984  -19.4796  -13.1360 O   0  0  0  0  0  0  0  0  0  0  0  0
  1  5  1  0
  2  1  1  0
  3  2  1  0
  3  4  1  0
  4  5  1  0
  6  7  2  0
  5  6  1  1
  8  9  1  0
  9 19  2  0
  9 10  1  0
 10 11  2  0
 12 11  1  0
 12 13  1  0
 14 13  1  1
 14 16  1  0
 14 15  1  0
 15  6  1  0
 16 17  2  0
 18 12  2  0
 19 18  1  0
 20 16  1  0
 20 21  1  0
 21 27  1  0
 22 23  1  0
 21 22  1  6
 24 23  1  0
 25 24  1  0
 26 25  1  0
 27 29  2  0
 27 28  1  0
M  END
$$$$
