PYK.pdb
     RDKit          3D

 29 30  0  0  1  0  0  0  0  0999 V2000
   24.8440  -23.1198  -14.2326 N   0  0  0  0  0  0  0  0  0  0  0  0
   25.7629  -23.4830  -15.2674 C   0  0  0  0  0  0  0  0  0  0  0  0
   26.8381  -22.4105  -15.3085 C   0  0  0  0  0  0  0  0  0  0  0  0
   26.0345  -21.1875  -14.8904 C   0  0  0  0  0  0  0  0  0  0  0  0
   25.1587  -21.7853  -13.7976 C   0  0  1  0  0  0  0  0  0  0  0  0
   23.9784  -20.9683  -13.5122 C   0  0  0  0  0  0  0  0  0  0  0  0
   24.1176  -19.8106  -13.0490 O   0  0  0  0  0  0  0  0  0  0  0  0
   17.2340  -15.9862  -15.1874 O   0  0  0  0  0  0  0  0  0  0  0  0
   18.2104  -17.0012  -15.1077 C   0  0  0  0  0  0  0  0  0  0  0  0
   17.8598  -18.3268  -15.2094 C   0  0  0  0  0  0  0  0  0  0  0  0
   18.8290  -19.3146  -15.1294 C   0  0  0  0  0  0  0  0  0  0  0  0
   20.1564  -19.0260  -14.9493 C   0  0  0  0  0  0  0  0  0  0  0  0
   21.1776  -20.0723  -14.8760 C   0  0  0  0  0  0  0  0  0  0  0  0
   21.4546  -20.6883  -13.5590 C   0  0  2  0  0  0  0  0  0  0  0  0
   22.6914  -21.4811  -13.7571 N   0  0  0  0  0  0  0  0  0  0  0  0
   20.4428  -21.6205  -13.0571 C   0  0  0  0  0  0  0  0  0  0  0  0
   20.7315  -22.8673  -12.8676 O   0  0  0  0  0  0  0  0  0  0  0  0
   20.4886  -17.6873  -14.8492 C   0  0  0  0  0  0  0  0  0  0  0  0
   19.5385  -16.6921  -14.9262 C   0  0  0  0  0  0  0  0  0  0  0  0
   19.1015  -21.2961  -12.7262 N   0  0  0  0  0  0  0  0  0  0  0  0
   18.2717  -22.2054  -11.9254 C   0  0  1  0  0  0  0  0  0  0  0  0
   18.7733  -22.1390  -10.4940 C   0  0  0  0  0  0  0  0  0  0  0  0
   18.0232  -23.0041   -9.5408 C   0  0  0  0  0  0  0  0  0  0  0  0
   18.7615  -24.3097   -9.2526 C   0  0  0  0  0  0  0  0  0  0  0  0
   17.9562  -25.1396   -8.2830 C   0  0  0  0  0  0  0  0  0  0  0  0
   18.7621  -26.3117   -7.9375 N   0  0  0  0  0  0  0  0  0  0  0  0
   16.8538  -21.8830  -12.0433 C   0  0  0  0  0  0  0  0  0  0  0  0
   16.2901  -20.6229  -12.0156 O   0  0  0  0  0  0  0  0  0  0  0  0
   15.9928  -22.8271  -12.1895 O   0  0  0  0  0  0  0  0  0  0  0  0
  1  5  1  0
  2  1  1  0
  3  2  1  0
  3  4  1  0
  4  5  1  0
  6  7  2  0
  5  6  1  6
  8  9  1  0
  9 19  2  0
  9 10  1  0
 10 11  2  0
 12 11  1  0
 12 13  1  0
 14 13  1  6
 14 16  1  0
 14 15  1  0
 15  6  1  0
 16 17  2  0
 18 12  2  0
 19 18  1  0
 20 16  1  0
 20 21  1  0
 21 27  1  0
 22 23  1  0
 21 22  1  1
 24 23  1  0
 25 24  1  0
 26 25  1  0
 27 29  2  0
 27 28  1  0
M  END
$$$$
