PYK.pdb
     RDKit          3D

 29 30  0  0  1  0  0  0  0  0999 V2000
   26.7670  -18.5213  -14.4805 N   0  0  0  0  0  0  0  0  0  0  0  0
   28.0117  -17.8220  -14.3863 C   0  0  0  0  0  0  0  0  0  0  0  0
   29.1138  -18.8292  -14.6670 C   0  0  0  0  0  0  0  0  0  0  0  0
   28.4868  -20.0983  -14.1081 C   0  0  0  0  0  0  0  0  0  0  0  0
   27.0463  -19.9294  -14.5717 C   0  0  1  0  0  0  0  0  0  0  0  0
   26.1102  -20.7628  -13.8159 C   0  0  0  0  0  0  0  0  0  0  0  0
   26.2809  -22.0047  -13.7648 O   0  0  0  0  0  0  0  0  0  0  0  0
   28.7637  -21.0843   -7.6942 O   0  0  0  0  0  0  0  0  0  0  0  0
   27.6255  -20.8718   -8.4999 C   0  0  0  0  0  0  0  0  0  0  0  0
   26.6221  -20.0239   -8.0938 C   0  0  0  0  0  0  0  0  0  0  0  0
   25.5087  -19.8238   -8.8949 C   0  0  0  0  0  0  0  0  0  0  0  0
   25.3554  -20.4468  -10.1057 C   0  0  0  0  0  0  0  0  0  0  0  0
   24.1827  -20.2241  -10.9530 C   0  0  0  0  0  0  0  0  0  0  0  0
   24.1151  -20.9283  -12.2530 C   0  0  2  0  0  0  0  0  0  0  0  0
   25.0219  -20.1713  -13.1487 N   0  0  0  0  0  0  0  0  0  0  0  0
   22.8064  -20.9461  -12.9101 C   0  0  0  0  0  0  0  0  0  0  0  0
   22.3625  -19.8972  -13.5235 O   0  0  0  0  0  0  0  0  0  0  0  0
   26.3751  -21.2955  -10.4961 C   0  0  0  0  0  0  0  0  0  0  0  0
   27.4889  -21.5067   -9.7126 C   0  0  0  0  0  0  0  0  0  0  0  0
   21.9153  -22.0493  -12.9632 N   0  0  0  0  0  0  0  0  0  0  0  0
   20.6519  -21.9746  -13.7082 C   0  0  1  0  0  0  0  0  0  0  0  0
   20.3863  -23.3497  -14.2944 C   0  0  0  0  0  0  0  0  0  0  0  0
   19.1284  -23.4458  -15.0868 C   0  0  0  0  0  0  0  0  0  0  0  0
   18.8552  -24.8742  -15.5532 C   0  0  0  0  0  0  0  0  0  0  0  0
   17.6588  -24.8831  -16.4729 C   0  0  0  0  0  0  0  0  0  0  0  0
   17.3339  -26.2826  -16.7531 N   0  0  0  0  0  0  0  0  0  0  0  0
   19.5596  -21.4978  -12.8670 C   0  0  0  0  0  0  0  0  0  0  0  0
   18.4025  -20.8761  -13.2926 O   0  0  0  0  0  0  0  0  0  0  0  0
   19.6243  -21.6430  -11.5908 O   0  0  0  0  0  0  0  0  0  0  0  0
  1  5  1  0
  2  1  1  0
  3  2  1  0
  3  4  1  0
  4  5  1  0
  6  7  2  0
  5  6  1  1
  8  9  1  0
  9 19  2  0
  9 10  1  0
 10 11  2  0
 12 11  1  0
 12 13  1  0
 14 13  1  1
 14 16  1  0
 14 15  1  0
 15  6  1  0
 16 17  2  0
 18 12  2  0
 19 18  1  0
 20 16  1  0
 20 21  1  0
 21 27  1  0
 22 23  1  0
 21 22  1  1
 24 23  1  0
 25 24  1  0
 26 25  1  0
 27 29  2  0
 27 28  1  0
M  END
$$$$
