VIE.pdb
     RDKit          3D

 25 24  0  0  1  0  0  0  0  0999 V2000
    6.9044  -18.7043   22.5602 C   0  0  0  0  0  0  0  0  0  0  0  0
    5.5553  -18.0669   22.9465 C   0  0  2  0  0  0  0  0  0  0  0  0
    4.5378  -18.7757   22.0823 C   0  0  0  0  0  0  0  0  0  0  0  0
    5.6592  -16.6252   22.5235 C   0  0  2  0  0  0  0  0  0  0  0  0
    6.0530  -16.6622   21.0953 N   0  0  0  0  0  0  0  0  0  0  0  0
    6.7053  -15.8545   23.2177 C   0  0  0  0  0  0  0  0  0  0  0  0
    7.8974  -15.9023   22.7762 O   0  0  0  0  0  0  0  0  0  0  0  0
    5.4474  -11.7186   26.6711 C   0  0  0  0  0  0  0  0  0  0  0  0
    6.1906  -12.3998   25.5416 C   0  0  0  0  0  0  0  0  0  0  0  0
    6.9875  -13.5219   26.1614 C   0  0  2  0  0  0  0  0  0  0  0  0
    8.1263  -12.9881   26.9914 C   0  0  0  0  0  0  0  0  0  0  0  0
    7.6051  -14.4300   25.0848 C   0  0  2  0  0  0  0  0  0  0  0  0
    6.5217  -15.0330   24.3648 N   0  0  0  0  0  0  0  0  0  0  0  0
    8.5002  -15.3679   25.7815 C   0  0  0  0  0  0  0  0  0  0  0  0
    8.0312  -16.2675   26.5660 O   0  0  0  0  0  0  0  0  0  0  0  0
    9.9179  -15.3965   25.6813 N   0  0  0  0  0  0  0  0  0  0  0  0
   10.7285  -16.5242   26.0850 C   0  0  1  0  0  0  0  0  0  0  0  0
   12.0689  -16.5669   25.3993 C   0  0  0  0  0  0  0  0  0  0  0  0
   12.9432  -17.6968   25.8118 C   0  0  0  0  0  0  0  0  0  0  0  0
   14.2127  -17.5871   25.0342 C   0  0  0  0  0  0  0  0  0  0  0  0
   15.1826  -18.3073   25.3795 O   0  0  0  0  0  0  0  0  0  0  0  0
   11.0060  -16.3888   27.5325 C   0  0  0  0  0  0  0  0  0  0  0  0
   11.4895  -17.4820   28.2225 O   0  0  0  0  0  0  0  0  0  0  0  0
   14.3855  -16.7476   23.9648 O   0  0  0  0  0  0  0  0  0  0  0  0
   10.8172  -15.3148   28.1551 O   0  0  0  0  0  0  0  0  0  0  0  0
  2  3  1  6
  2  1  1  0
  4  2  1  0
  4  5  1  6
  6  4  1  0
  7  6  2  0
  9  8  1  0
 10  9  1  0
 10 11  1  6
 12 10  1  0
 12 13  1  1
 13  6  1  0
 14 12  1  0
 15 14  2  0
 16 14  1  0
 17 16  1  0
 18 19  1  0
 17 18  1  6
 19 20  1  0
 20 21  2  0
 20 24  1  0
 22 17  1  0
 22 23  1  0
 25 22  2  0
M  END
$$$$
