VIE.pdb
     RDKit          3D

 25 24  0  0  1  0  0  0  0  0999 V2000
    7.7383  -16.9937   20.6160 C   0  0  0  0  0  0  0  0  0  0  0  0
    6.4618  -16.1656   20.8614 C   0  0  2  0  0  0  0  0  0  0  0  0
    5.6809  -16.2786   19.5722 C   0  0  0  0  0  0  0  0  0  0  0  0
    6.9346  -14.7471   21.0417 C   0  0  2  0  0  0  0  0  0  0  0  0
    7.8055  -14.4719   19.8747 N   0  0  0  0  0  0  0  0  0  0  0  0
    7.7667  -14.5234   22.2365 C   0  0  0  0  0  0  0  0  0  0  0  0
    9.0233  -14.7027   22.1513 O   0  0  0  0  0  0  0  0  0  0  0  0
    6.0001  -11.4236   26.4299 C   0  0  0  0  0  0  0  0  0  0  0  0
    6.9188  -11.9530   25.3493 C   0  0  0  0  0  0  0  0  0  0  0  0
    7.3446  -13.3353   25.7809 C   0  0  2  0  0  0  0  0  0  0  0  0
    8.2313  -13.2775   26.9979 C   0  0  0  0  0  0  0  0  0  0  0  0
    8.1461  -14.0438   24.6760 C   0  0  2  0  0  0  0  0  0  0  0  0
    7.3038  -14.1128   23.5178 N   0  0  0  0  0  0  0  0  0  0  0  0
    8.5725  -15.3412   25.2251 C   0  0  0  0  0  0  0  0  0  0  0  0
    7.7115  -16.2301   25.5614 O   0  0  0  0  0  0  0  0  0  0  0  0
    9.9158  -15.7530   25.4414 N   0  0  0  0  0  0  0  0  0  0  0  0
   10.2967  -17.1094   25.7683 C   0  0  1  0  0  0  0  0  0  0  0  0
   11.6401  -17.4993   25.2099 C   0  0  0  0  0  0  0  0  0  0  0  0
   12.1342  -18.8310   25.6497 C   0  0  0  0  0  0  0  0  0  0  0  0
   13.4791  -19.0347   25.0347 C   0  0  0  0  0  0  0  0  0  0  0  0
   14.0091  -18.0659   24.4356 O   0  0  0  0  0  0  0  0  0  0  0  0
   10.4146  -17.2054   27.2406 C   0  0  0  0  0  0  0  0  0  0  0  0
   10.5044  -18.4545   27.8209 O   0  0  0  0  0  0  0  0  0  0  0  0
   14.1723  -20.2159   25.0835 O   0  0  0  0  0  0  0  0  0  0  0  0
   10.4359  -16.1910   27.9804 O   0  0  0  0  0  0  0  0  0  0  0  0
  2  3  1  6
  2  1  1  0
  4  2  1  0
  4  5  1  6
  6  4  1  0
  7  6  2  0
  9  8  1  0
 10  9  1  0
 10 11  1  1
 12 10  1  0
 12 13  1  6
 13  6  1  0
 14 12  1  0
 15 14  2  0
 16 14  1  0
 17 16  1  0
 18 19  1  0
 17 18  1  6
 19 20  1  0
 20 21  2  0
 20 24  1  0
 22 17  1  0
 22 23  1  0
 25 22  2  0
M  END
$$$$
