VIE.pdb
     RDKit          3D

 25 24  0  0  1  0  0  0  0  0999 V2000
    6.1548  -18.6747   21.1923 C   0  0  0  0  0  0  0  0  0  0  0  0
    7.2072  -17.9130   22.0216 C   0  0  2  0  0  0  0  0  0  0  0  0
    7.0851  -18.4891   23.4136 C   0  0  0  0  0  0  0  0  0  0  0  0
    6.7485  -16.4784   22.0277 C   0  0  2  0  0  0  0  0  0  0  0  0
    6.7895  -16.0468   20.6106 N   0  0  0  0  0  0  0  0  0  0  0  0
    7.6288  -15.5544   22.7637 C   0  0  0  0  0  0  0  0  0  0  0  0
    8.7515  -15.2404   22.2546 O   0  0  0  0  0  0  0  0  0  0  0  0
    5.7208  -11.7497   26.2599 C   0  0  0  0  0  0  0  0  0  0  0  0
    6.5109  -12.3872   25.1368 C   0  0  0  0  0  0  0  0  0  0  0  0
    7.4928  -13.3356   25.7811 C   0  0  2  0  0  0  0  0  0  0  0  0
    8.4990  -12.5914   26.6204 C   0  0  0  0  0  0  0  0  0  0  0  0
    8.2855  -14.1227   24.7242 C   0  0  2  0  0  0  0  0  0  0  0  0
    7.3504  -14.9529   24.0227 N   0  0  0  0  0  0  0  0  0  0  0  0
    9.3535  -14.8394   25.4399 C   0  0  0  0  0  0  0  0  0  0  0  0
   10.2457  -14.2010   26.1041 O   0  0  0  0  0  0  0  0  0  0  0  0
    9.5245  -16.2499   25.4851 N   0  0  0  0  0  0  0  0  0  0  0  0
   10.5842  -16.9069   26.2181 C   0  0  1  0  0  0  0  0  0  0  0  0
   10.0853  -17.9874   27.1412 C   0  0  0  0  0  0  0  0  0  0  0  0
   11.1531  -18.7914   27.7926 C   0  0  0  0  0  0  0  0  0  0  0  0
   10.4837  -19.8039   28.6617 C   0  0  0  0  0  0  0  0  0  0  0  0
   11.1977  -20.6858   29.2012 O   0  0  0  0  0  0  0  0  0  0  0  0
   11.4689  -17.5740   25.2368 C   0  0  0  0  0  0  0  0  0  0  0  0
   10.9955  -17.8006   23.9603 O   0  0  0  0  0  0  0  0  0  0  0  0
    9.1358  -19.8305   28.9075 O   0  0  0  0  0  0  0  0  0  0  0  0
   12.6348  -17.9411   25.5244 O   0  0  0  0  0  0  0  0  0  0  0  0
  2  3  1  1
  2  1  1  0
  4  2  1  0
  4  5  1  6
  6  4  1  0
  7  6  2  0
  9  8  1  0
 10  9  1  0
 10 11  1  6
 12 10  1  0
 12 13  1  1
 13  6  1  0
 14 12  1  0
 15 14  2  0
 16 14  1  0
 17 16  1  0
 18 19  1  0
 17 18  1  1
 19 20  1  0
 20 21  2  0
 20 24  1  0
 22 17  1  0
 22 23  1  0
 25 22  2  0
M  END
$$$$
