VIE.pdb
     RDKit          3D

 25 24  0  0  1  0  0  0  0  0999 V2000
    6.6886  -16.5353   19.2725 C   0  0  0  0  0  0  0  0  0  0  0  0
    7.4461  -16.4183   20.6097 C   0  0  2  0  0  0  0  0  0  0  0  0
    6.6426  -17.2565   21.5773 C   0  0  0  0  0  0  0  0  0  0  0  0
    7.3480  -14.9666   20.9984 C   0  0  2  0  0  0  0  0  0  0  0  0
    8.1055  -14.2297   19.9595 N   0  0  0  0  0  0  0  0  0  0  0  0
    7.9821  -14.6300   22.2848 C   0  0  0  0  0  0  0  0  0  0  0  0
    9.2521  -14.6053   22.3548 O   0  0  0  0  0  0  0  0  0  0  0  0
    5.5895  -11.5793   26.2171 C   0  0  0  0  0  0  0  0  0  0  0  0
    6.6351  -12.1068   25.2577 C   0  0  0  0  0  0  0  0  0  0  0  0
    6.9889  -13.4982   25.7238 C   0  0  2  0  0  0  0  0  0  0  0  0
    7.6502  -13.4680   27.0775 C   0  0  0  0  0  0  0  0  0  0  0  0
    7.9749  -14.1774   24.7586 C   0  0  2  0  0  0  0  0  0  0  0  0
    7.3071  -14.3169   23.4975 N   0  0  0  0  0  0  0  0  0  0  0  0
    8.3934  -15.4370   25.3946 C   0  0  0  0  0  0  0  0  0  0  0  0
    7.5346  -16.3399   25.6977 O   0  0  0  0  0  0  0  0  0  0  0  0
    9.7261  -15.7952   25.7357 N   0  0  0  0  0  0  0  0  0  0  0  0
   10.1126  -17.1143   26.1858 C   0  0  1  0  0  0  0  0  0  0  0  0
   11.4128  -17.5869   25.5904 C   0  0  0  0  0  0  0  0  0  0  0  0
   11.8682  -18.9193   26.0683 C   0  0  0  0  0  0  0  0  0  0  0  0
   13.1698  -19.2139   25.3992 C   0  0  0  0  0  0  0  0  0  0  0  0
   13.2895  -18.9225   24.1829 O   0  0  0  0  0  0  0  0  0  0  0  0
   10.3242  -17.0506   27.6493 C   0  0  0  0  0  0  0  0  0  0  0  0
   10.3121  -18.2245   28.3751 O   0  0  0  0  0  0  0  0  0  0  0  0
   14.2440  -19.7836   26.0314 O   0  0  0  0  0  0  0  0  0  0  0  0
   10.5142  -15.9667   28.2541 O   0  0  0  0  0  0  0  0  0  0  0  0
  2  3  1  1
  2  1  1  0
  4  2  1  0
  4  5  1  6
  6  4  1  0
  7  6  2  0
  9  8  1  0
 10  9  1  0
 10 11  1  1
 12 10  1  0
 12 13  1  6
 13  6  1  0
 14 12  1  0
 15 14  2  0
 16 14  1  0
 17 16  1  0
 18 19  1  0
 17 18  1  6
 19 20  1  0
 20 21  2  0
 20 24  1  0
 22 17  1  0
 22 23  1  0
 25 22  2  0
M  END
$$$$
