VIE.pdb
     RDKit          3D

 25 24  0  0  1  0  0  0  0  0999 V2000
    8.1414  -17.6041   21.0086 C   0  0  0  0  0  0  0  0  0  0  0  0
    6.7661  -16.9110   21.0689 C   0  0  2  0  0  0  0  0  0  0  0  0
    6.0639  -17.3474   19.8036 C   0  0  0  0  0  0  0  0  0  0  0  0
    7.0594  -15.4354   20.9994 C   0  0  2  0  0  0  0  0  0  0  0  0
    7.9610  -15.2684   19.8352 N   0  0  0  0  0  0  0  0  0  0  0  0
    7.7867  -14.8975   22.1621 C   0  0  0  0  0  0  0  0  0  0  0  0
    9.0583  -14.9349   22.1613 O   0  0  0  0  0  0  0  0  0  0  0  0
    6.7880  -11.6033   27.2733 C   0  0  0  0  0  0  0  0  0  0  0  0
    7.7706  -12.4890   26.5370 C   0  0  0  0  0  0  0  0  0  0  0  0
    7.0272  -13.0796   25.3635 C   0  0  2  0  0  0  0  0  0  0  0  0
    5.9310  -14.0059   25.8227 C   0  0  0  0  0  0  0  0  0  0  0  0
    7.9645  -13.9049   24.4661 C   0  0  2  0  0  0  0  0  0  0  0  0
    7.2032  -14.3192   23.3238 N   0  0  0  0  0  0  0  0  0  0  0  0
    8.4991  -14.9951   25.2980 C   0  0  0  0  0  0  0  0  0  0  0  0
    7.7755  -16.0098   25.6002 O   0  0  0  0  0  0  0  0  0  0  0  0
    9.8105  -15.0607   25.8428 N   0  0  0  0  0  0  0  0  0  0  0  0
   10.4559  -16.2941   26.2350 C   0  0  1  0  0  0  0  0  0  0  0  0
   11.8736  -16.4056   25.7385 C   0  0  0  0  0  0  0  0  0  0  0  0
   12.6334  -17.5633   26.2803 C   0  0  0  0  0  0  0  0  0  0  0  0
   13.9931  -17.5337   25.6646 C   0  0  0  0  0  0  0  0  0  0  0  0
   14.3537  -18.5222   24.9780 O   0  0  0  0  0  0  0  0  0  0  0  0
   10.5299  -16.3177   27.7131 C   0  0  0  0  0  0  0  0  0  0  0  0
   10.9048  -17.4877   28.3420 O   0  0  0  0  0  0  0  0  0  0  0  0
   14.8736  -16.4927   25.8027 O   0  0  0  0  0  0  0  0  0  0  0  0
   10.2638  -15.3113   28.4152 O   0  0  0  0  0  0  0  0  0  0  0  0
  2  3  1  6
  2  1  1  0
  4  2  1  0
  4  5  1  6
  6  4  1  0
  7  6  2  0
  9  8  1  0
 10  9  1  0
 10 11  1  1
 12 10  1  0
 12 13  1  6
 13  6  1  0
 14 12  1  0
 15 14  2  0
 16 14  1  0
 17 16  1  0
 18 19  1  0
 17 18  1  6
 19 20  1  0
 20 21  2  0
 20 24  1  0
 22 17  1  0
 22 23  1  0
 25 22  2  0
M  END
$$$$
