VIE.pdb
     RDKit          3D

 25 24  0  0  1  0  0  0  0  0999 V2000
    5.3489  -17.9109   20.8453 C   0  0  0  0  0  0  0  0  0  0  0  0
    6.4098  -17.4391   21.8590 C   0  0  2  0  0  0  0  0  0  0  0  0
    6.0301  -18.1216   23.1531 C   0  0  0  0  0  0  0  0  0  0  0  0
    6.2014  -15.9535   21.9926 C   0  0  2  0  0  0  0  0  0  0  0  0
    6.4805  -15.3952   20.6485 N   0  0  0  0  0  0  0  0  0  0  0  0
    7.1318  -15.2825   22.9169 C   0  0  0  0  0  0  0  0  0  0  0  0
    8.3544  -15.1719   22.5836 O   0  0  0  0  0  0  0  0  0  0  0  0
    5.5159  -11.6795   26.7654 C   0  0  0  0  0  0  0  0  0  0  0  0
    6.3300  -12.2857   25.6421 C   0  0  0  0  0  0  0  0  0  0  0  0
    7.0372  -13.4881   26.2189 C   0  0  2  0  0  0  0  0  0  0  0  0
    8.0643  -13.0776   27.2422 C   0  0  0  0  0  0  0  0  0  0  0  0
    7.7819  -14.2754   25.1277 C   0  0  2  0  0  0  0  0  0  0  0  0
    6.8011  -14.7239   24.1830 N   0  0  0  0  0  0  0  0  0  0  0  0
    8.5349  -15.3401   25.8102 C   0  0  0  0  0  0  0  0  0  0  0  0
    7.9445  -16.1692   26.5904 O   0  0  0  0  0  0  0  0  0  0  0  0
    9.9327  -15.5738   25.6997 N   0  0  0  0  0  0  0  0  0  0  0  0
   10.5902  -16.7605   26.2009 C   0  0  1  0  0  0  0  0  0  0  0  0
   11.8495  -17.1033   25.4489 C   0  0  0  0  0  0  0  0  0  0  0  0
   12.8750  -16.0268   25.4289 C   0  0  0  0  0  0  0  0  0  0  0  0
   13.9353  -16.4368   24.4614 C   0  0  0  0  0  0  0  0  0  0  0  0
   15.1218  -16.4908   24.8710 O   0  0  0  0  0  0  0  0  0  0  0  0
   10.9993  -16.4967   27.5986 C   0  0  0  0  0  0  0  0  0  0  0  0
   11.4896  -17.5408   28.3567 O   0  0  0  0  0  0  0  0  0  0  0  0
   13.6935  -16.7584   23.1513 O   0  0  0  0  0  0  0  0  0  0  0  0
   10.9162  -15.3572   28.1192 O   0  0  0  0  0  0  0  0  0  0  0  0
  2  3  1  1
  2  1  1  0
  4  2  1  0
  4  5  1  6
  6  4  1  0
  7  6  2  0
  9  8  1  0
 10  9  1  0
 10 11  1  1
 12 10  1  0
 12 13  1  6
 13  6  1  0
 14 12  1  0
 15 14  2  0
 16 14  1  0
 17 16  1  0
 18 19  1  0
 17 18  1  6
 19 20  1  0
 20 21  2  0
 20 24  1  0
 22 17  1  0
 22 23  1  0
 25 22  2  0
M  END
$$$$
