CFF.pdb
     RDKit          3D

 29 30  0  0  1  0  0  0  0  0999 V2000
    3.9440  -18.7621   21.4580 N   0  0  0  0  0  0  0  0  0  0  0  0
    4.7158  -18.9699   22.6664 C   0  0  1  0  0  0  0  0  0  0  0  0
    5.7224  -20.0600   22.3783 C   0  0  0  0  0  0  0  0  0  0  0  0
    6.9951  -19.4038   21.2651 S   0  0  0  0  0  0  0  0  0  0  0  0
    5.3594  -17.6924   23.0276 C   0  0  0  0  0  0  0  0  0  0  0  0
    5.4578  -16.7196   22.2312 O   0  0  0  0  0  0  0  0  0  0  0  0
    5.9111  -17.4952   24.3210 N   0  0  0  0  0  0  0  0  0  0  0  0
    6.6818  -16.3037   24.6515 C   0  0  1  0  0  0  0  0  0  0  0  0
    6.4800  -15.8839   26.0631 C   0  0  0  0  0  0  0  0  0  0  0  0
    6.9216  -14.5007   26.3345 C   0  0  0  0  0  0  0  0  0  0  0  0
    7.4054  -13.7213   25.2764 C   0  0  0  0  0  0  0  0  0  0  0  0
    7.8157  -12.4189   25.4470 C   0  0  0  0  0  0  0  0  0  0  0  0
    7.7549  -11.8445   26.6993 C   0  0  0  0  0  0  0  0  0  0  0  0
    7.2764  -12.6146   27.7470 C   0  0  0  0  0  0  0  0  0  0  0  0
    6.8674  -13.9109   27.5805 C   0  0  0  0  0  0  0  0  0  0  0  0
    8.1041  -16.4691   24.3127 C   0  0  0  0  0  0  0  0  0  0  0  0
    8.6417  -17.5886   24.4917 O   0  0  0  0  0  0  0  0  0  0  0  0
    8.8625  -15.3818   23.7903 N   0  0  0  0  0  0  0  0  0  0  0  0
   10.1359  -15.6226   23.1522 C   0  0  1  0  0  0  0  0  0  0  0  0
   10.4138  -14.5120   22.1909 C   0  0  0  0  0  0  0  0  0  0  0  0
    9.2541  -14.1521   21.3760 C   0  0  0  0  0  0  0  0  0  0  0  0
    8.7301  -14.9504   20.4068 C   0  0  0  0  0  0  0  0  0  0  0  0
    7.6251  -14.5539   19.6694 C   0  0  0  0  0  0  0  0  0  0  0  0
    7.0121  -13.3390   19.8852 C   0  0  0  0  0  0  0  0  0  0  0  0
    7.5520  -12.5301   20.8751 C   0  0  0  0  0  0  0  0  0  0  0  0
    8.6439  -12.9204   21.6047 C   0  0  0  0  0  0  0  0  0  0  0  0
   11.2129  -15.8089   24.1298 C   0  0  0  0  0  0  0  0  0  0  0  0
   11.0749  -15.7243   25.3715 O   0  0  0  0  0  0  0  0  0  0  0  0
   12.5018  -16.1048   23.6556 O   0  0  0  0  0  0  0  0  0  0  0  0
  2  1  1  6
  3  2  1  0
  4  3  1  0
  5  2  1  0
  5  6  2  0
  7  5  1  0
  8  7  1  0
  8  9  1  1
 10 11  2  0
 10  9  1  0
 12 11  1  0
 13 12  2  0
 14 13  1  0
 14 15  2  0
 15 10  1  0
 16  8  1  0
 17 16  2  0
 18 16  1  0
 19 20  1  6
 19 18  1  0
 21 20  1  0
 22 21  2  0
 23 22  1  0
 24 25  1  0
 24 23  2  0
 25 26  2  0
 26 21  1  0
 27 29  1  0
 27 19  1  0
 28 27  2  0
M  END
$$$$
