CFF.pdb
     RDKit          3D

 29 30  0  0  1  0  0  0  0  0999 V2000
   11.0614  -16.5701   18.4455 N   0  0  0  0  0  0  0  0  0  0  0  0
   10.1798  -17.3100   19.3255 C   0  0  1  0  0  0  0  0  0  0  0  0
   10.7708  -18.6900   19.5017 C   0  0  0  0  0  0  0  0  0  0  0  0
    9.6642  -19.6723   20.5506 S   0  0  0  0  0  0  0  0  0  0  0  0
   10.0788  -16.5752   20.6009 C   0  0  0  0  0  0  0  0  0  0  0  0
   11.0806  -16.1175   21.2151 O   0  0  0  0  0  0  0  0  0  0  0  0
    8.8172  -16.3442   21.2101 N   0  0  0  0  0  0  0  0  0  0  0  0
    8.6995  -15.6686   22.4957 C   0  0  1  0  0  0  0  0  0  0  0  0
    7.3418  -15.1007   22.7040 C   0  0  0  0  0  0  0  0  0  0  0  0
    7.1912  -14.3929   23.9916 C   0  0  0  0  0  0  0  0  0  0  0  0
    7.6957  -13.0924   24.1159 C   0  0  0  0  0  0  0  0  0  0  0  0
    7.5756  -12.3622   25.2761 C   0  0  0  0  0  0  0  0  0  0  0  0
    6.9379  -12.9163   26.3662 C   0  0  0  0  0  0  0  0  0  0  0  0
    6.4384  -14.2028   26.2445 C   0  0  0  0  0  0  0  0  0  0  0  0
    6.5562  -14.9320   25.0914 C   0  0  0  0  0  0  0  0  0  0  0  0
    9.1200  -16.5400   23.6043 C   0  0  0  0  0  0  0  0  0  0  0  0
    8.7520  -17.7396   23.6031 O   0  0  0  0  0  0  0  0  0  0  0  0
    9.9301  -16.0368   24.6630 N   0  0  0  0  0  0  0  0  0  0  0  0
   10.5973  -16.9470   25.5647 C   0  0  1  0  0  0  0  0  0  0  0  0
   11.6110  -16.1868   26.3581 C   0  0  0  0  0  0  0  0  0  0  0  0
   11.0144  -15.3098   27.3648 C   0  0  0  0  0  0  0  0  0  0  0  0
   10.5437  -14.0608   27.1005 C   0  0  0  0  0  0  0  0  0  0  0  0
    9.9848  -13.2778   28.0988 C   0  0  0  0  0  0  0  0  0  0  0  0
    9.8822  -13.7288   29.3967 C   0  0  0  0  0  0  0  0  0  0  0  0
   10.3644  -15.0033   29.6588 C   0  0  0  0  0  0  0  0  0  0  0  0
   10.9170  -15.7783   28.6735 C   0  0  0  0  0  0  0  0  0  0  0  0
    9.6471  -17.6768   26.4102 C   0  0  0  0  0  0  0  0  0  0  0  0
    9.9641  -18.5194   27.2805 O   0  0  0  0  0  0  0  0  0  0  0  0
    8.2750  -17.4242   26.2448 O   0  0  0  0  0  0  0  0  0  0  0  0
  2  1  1  6
  3  2  1  0
  4  3  1  0
  5  2  1  0
  5  6  2  0
  7  5  1  0
  8  7  1  0
  8  9  1  1
 10 11  2  0
 10  9  1  0
 12 11  1  0
 13 12  2  0
 14 13  1  0
 14 15  2  0
 15 10  1  0
 16  8  1  0
 17 16  2  0
 18 16  1  0
 19 20  1  1
 19 18  1  0
 21 20  1  0
 22 21  2  0
 23 22  1  0
 24 25  1  0
 24 23  2  0
 25 26  2  0
 26 21  1  0
 27 29  1  0
 27 19  1  0
 28 27  2  0
M  END
$$$$
