CFF.pdb
     RDKit          3D

 29 30  0  0  1  0  0  0  0  0999 V2000
   11.0293  -16.6330   18.4786 N   0  0  0  0  0  0  0  0  0  0  0  0
   10.2492  -17.4519   19.3841 C   0  0  1  0  0  0  0  0  0  0  0  0
   11.0157  -18.7353   19.6073 C   0  0  0  0  0  0  0  0  0  0  0  0
   10.5905  -19.9088   18.2913 S   0  0  0  0  0  0  0  0  0  0  0  0
   10.0476  -16.6936   20.6336 C   0  0  0  0  0  0  0  0  0  0  0  0
   10.9807  -16.0985   21.2381 O   0  0  0  0  0  0  0  0  0  0  0  0
    8.7614  -16.5971   21.2272 N   0  0  0  0  0  0  0  0  0  0  0  0
    8.5487  -15.8913   22.4839 C   0  0  1  0  0  0  0  0  0  0  0  0
    7.1504  -15.4060   22.6203 C   0  0  0  0  0  0  0  0  0  0  0  0
    6.9195  -14.6130   23.8448 C   0  0  0  0  0  0  0  0  0  0  0  0
    6.2847  -15.2176   24.9369 C   0  0  0  0  0  0  0  0  0  0  0  0
    6.0532  -14.5501   26.1179 C   0  0  0  0  0  0  0  0  0  0  0  0
    6.4545  -13.2371   26.2477 C   0  0  0  0  0  0  0  0  0  0  0  0
    7.0827  -12.6378   25.1679 C   0  0  0  0  0  0  0  0  0  0  0  0
    7.3145  -13.2993   23.9915 C   0  0  0  0  0  0  0  0  0  0  0  0
    8.9777  -16.6992   23.6365 C   0  0  0  0  0  0  0  0  0  0  0  0
    8.5880  -17.8890   23.7190 O   0  0  0  0  0  0  0  0  0  0  0  0
    9.8201  -16.1463   24.6440 N   0  0  0  0  0  0  0  0  0  0  0  0
   10.4474  -17.0060   25.6207 C   0  0  1  0  0  0  0  0  0  0  0  0
   11.5876  -16.2724   26.2506 C   0  0  0  0  0  0  0  0  0  0  0  0
   11.1582  -15.2520   27.2060 C   0  0  0  0  0  0  0  0  0  0  0  0
   10.8407  -13.9747   26.8610 C   0  0  0  0  0  0  0  0  0  0  0  0
   10.4360  -13.0528   27.8142 C   0  0  0  0  0  0  0  0  0  0  0  0
   10.3383  -13.3889   29.1468 C   0  0  0  0  0  0  0  0  0  0  0  0
   10.6638  -14.6932   29.4912 C   0  0  0  0  0  0  0  0  0  0  0  0
   11.0638  -15.6053   28.5506 C   0  0  0  0  0  0  0  0  0  0  0  0
    9.4853  -17.5110   26.6054 C   0  0  0  0  0  0  0  0  0  0  0  0
    8.3084  -17.1020   26.7311 O   0  0  0  0  0  0  0  0  0  0  0  0
    9.8976  -18.5294   27.4809 O   0  0  0  0  0  0  0  0  0  0  0  0
  2  1  1  6
  3  2  1  0
  4  3  1  0
  5  2  1  0
  5  6  2  0
  7  5  1  0
  8  7  1  0
  8  9  1  1
 10 11  2  0
 10  9  1  0
 12 11  1  0
 13 12  2  0
 14 13  1  0
 14 15  2  0
 15 10  1  0
 16  8  1  0
 17 16  2  0
 18 16  1  0
 19 20  1  1
 19 18  1  0
 21 20  1  0
 22 21  2  0
 23 22  1  0
 24 25  1  0
 24 23  2  0
 25 26  2  0
 26 21  1  0
 27 29  1  0
 27 19  1  0
 28 27  2  0
M  END
$$$$
