CFF.pdb
     RDKit          3D

 29 30  0  0  1  0  0  0  0  0999 V2000
   10.8176  -17.1707   18.3096 N   0  0  0  0  0  0  0  0  0  0  0  0
    9.8378  -17.7207   19.2244 C   0  0  1  0  0  0  0  0  0  0  0  0
   10.2109  -19.1642   19.4724 C   0  0  0  0  0  0  0  0  0  0  0  0
   10.5538  -19.9632   17.8807 S   0  0  0  0  0  0  0  0  0  0  0  0
    9.8580  -16.9150   20.4602 C   0  0  0  0  0  0  0  0  0  0  0  0
   10.9100  -16.4094   20.9375 O   0  0  0  0  0  0  0  0  0  0  0  0
    8.6637  -16.6661   21.1866 N   0  0  0  0  0  0  0  0  0  0  0  0
    8.6639  -15.8855   22.4169 C   0  0  1  0  0  0  0  0  0  0  0  0
    7.3490  -15.2388   22.6663 C   0  0  0  0  0  0  0  0  0  0  0  0
    7.3116  -14.4415   23.9091 C   0  0  0  0  0  0  0  0  0  0  0  0
    6.7787  -15.0159   25.0698 C   0  0  0  0  0  0  0  0  0  0  0  0
    6.7284  -14.3436   26.2695 C   0  0  0  0  0  0  0  0  0  0  0  0
    7.2163  -13.0562   26.3493 C   0  0  0  0  0  0  0  0  0  0  0  0
    7.7438  -12.4868   25.2017 C   0  0  0  0  0  0  0  0  0  0  0  0
    7.7954  -13.1531   24.0064 C   0  0  0  0  0  0  0  0  0  0  0  0
    9.1231  -16.6849   23.5638 C   0  0  0  0  0  0  0  0  0  0  0  0
    8.8377  -17.9061   23.6021 O   0  0  0  0  0  0  0  0  0  0  0  0
    9.8784  -16.0890   24.6148 N   0  0  0  0  0  0  0  0  0  0  0  0
   10.6495  -16.9143   25.5154 C   0  0  1  0  0  0  0  0  0  0  0  0
   11.5420  -16.0365   26.3326 C   0  0  0  0  0  0  0  0  0  0  0  0
   10.8188  -15.2505   27.3314 C   0  0  0  0  0  0  0  0  0  0  0  0
   10.6499  -15.6373   28.6250 C   0  0  0  0  0  0  0  0  0  0  0  0
    9.9562  -14.8450   29.5267 C   0  0  0  0  0  0  0  0  0  0  0  0
    9.4100  -13.6364   29.1534 C   0  0  0  0  0  0  0  0  0  0  0  0
    9.5862  -13.2485   27.8328 C   0  0  0  0  0  0  0  0  0  0  0  0
   10.2714  -14.0303   26.9405 C   0  0  0  0  0  0  0  0  0  0  0  0
    9.7944  -17.7759   26.3380 C   0  0  0  0  0  0  0  0  0  0  0  0
   10.2115  -18.6115   27.1722 O   0  0  0  0  0  0  0  0  0  0  0  0
    8.4011  -17.6692   26.1924 O   0  0  0  0  0  0  0  0  0  0  0  0
  2  1  1  6
  3  2  1  0
  4  3  1  0
  5  2  1  0
  5  6  2  0
  7  5  1  0
  8  7  1  0
  8  9  1  1
 10 11  2  0
 10  9  1  0
 12 11  1  0
 13 12  2  0
 14 13  1  0
 14 15  2  0
 15 10  1  0
 16  8  1  0
 17 16  2  0
 18 16  1  0
 19 20  1  1
 19 18  1  0
 21 20  1  0
 22 21  2  0
 23 22  1  0
 24 25  1  0
 24 23  2  0
 25 26  2  0
 26 21  1  0
 27 29  1  0
 27 19  1  0
 28 27  2  0
M  END
$$$$
