CFF.pdb
     RDKit          3D

 29 30  0  0  1  0  0  0  0  0999 V2000
    7.3972  -21.2323   21.9464 N   0  0  0  0  0  0  0  0  0  0  0  0
    6.8399  -20.2274   22.8288 C   0  0  1  0  0  0  0  0  0  0  0  0
    7.0897  -20.6832   24.2481 C   0  0  0  0  0  0  0  0  0  0  0  0
    6.1996  -19.5831   25.3826 S   0  0  0  0  0  0  0  0  0  0  0  0
    7.4925  -18.9384   22.5298 C   0  0  0  0  0  0  0  0  0  0  0  0
    8.7107  -18.8370   22.2200 O   0  0  0  0  0  0  0  0  0  0  0  0
    6.7602  -17.7230   22.5784 N   0  0  0  0  0  0  0  0  0  0  0  0
    7.3903  -16.4375   22.3076 C   0  0  1  0  0  0  0  0  0  0  0  0
    6.4063  -15.4191   21.8562 C   0  0  0  0  0  0  0  0  0  0  0  0
    7.0307  -14.1692   21.3770 C   0  0  0  0  0  0  0  0  0  0  0  0
    7.3731  -14.0554   20.0238 C   0  0  0  0  0  0  0  0  0  0  0  0
    7.9389  -12.9159   19.4993 C   0  0  0  0  0  0  0  0  0  0  0  0
    8.1847  -11.8371   20.3224 C   0  0  0  0  0  0  0  0  0  0  0  0
    7.8464  -11.9484   21.6613 C   0  0  0  0  0  0  0  0  0  0  0  0
    7.2832  -13.0808   22.1863 C   0  0  0  0  0  0  0  0  0  0  0  0
    8.1906  -15.9762   23.4530 C   0  0  0  0  0  0  0  0  0  0  0  0
    8.6094  -14.7935   23.4603 O   0  0  0  0  0  0  0  0  0  0  0  0
    8.4880  -16.8517   24.5372 N   0  0  0  0  0  0  0  0  0  0  0  0
    9.0313  -16.3271   25.7685 C   0  0  1  0  0  0  0  0  0  0  0  0
    7.9057  -15.8598   26.6344 C   0  0  0  0  0  0  0  0  0  0  0  0
    7.5658  -14.4527   26.4270 C   0  0  0  0  0  0  0  0  0  0  0  0
    6.3006  -14.0014   26.2101 C   0  0  0  0  0  0  0  0  0  0  0  0
    6.0414  -12.6522   26.0238 C   0  0  0  0  0  0  0  0  0  0  0  0
    7.0499  -11.7137   26.0500 C   0  0  0  0  0  0  0  0  0  0  0  0
    8.3375  -12.1813   26.2716 C   0  0  0  0  0  0  0  0  0  0  0  0
    8.5952  -13.5141   26.4560 C   0  0  0  0  0  0  0  0  0  0  0  0
    9.8996  -17.2977   26.4425 C   0  0  0  0  0  0  0  0  0  0  0  0
   10.1114  -18.4659   26.0445 O   0  0  0  0  0  0  0  0  0  0  0  0
   10.5500  -16.9047   27.6241 O   0  0  0  0  0  0  0  0  0  0  0  0
  2  1  1  6
  3  2  1  0
  4  3  1  0
  5  2  1  0
  5  6  2  0
  7  5  1  0
  8  7  1  0
  8  9  1  1
 10 11  2  0
 10  9  1  0
 12 11  1  0
 13 12  2  0
 14 13  1  0
 14 15  2  0
 15 10  1  0
 16  8  1  0
 17 16  2  0
 18 16  1  0
 19 20  1  1
 19 18  1  0
 21 20  1  0
 22 21  2  0
 23 22  1  0
 24 25  1  0
 24 23  2  0
 25 26  2  0
 26 21  1  0
 27 29  1  0
 27 19  1  0
 28 27  2  0
M  END
$$$$
