CFF.pdb
     RDKit          3D

 29 30  0  0  1  0  0  0  0  0999 V2000
   11.3165  -16.5976   18.5124 N   0  0  0  0  0  0  0  0  0  0  0  0
   10.3512  -17.3126   19.3225 C   0  0  1  0  0  0  0  0  0  0  0  0
   10.9013  -18.6998   19.5624 C   0  0  0  0  0  0  0  0  0  0  0  0
   10.1174  -19.8507   18.4002 S   0  0  0  0  0  0  0  0  0  0  0  0
   10.1557  -16.5613   20.5770 C   0  0  0  0  0  0  0  0  0  0  0  0
   11.1002  -16.0136   21.2080 O   0  0  0  0  0  0  0  0  0  0  0  0
    8.8625  -16.4170   21.1453 N   0  0  0  0  0  0  0  0  0  0  0  0
    8.6564  -15.7391   22.4184 C   0  0  1  0  0  0  0  0  0  0  0  0
    7.2814  -15.1877   22.5395 C   0  0  0  0  0  0  0  0  0  0  0  0
    7.0391  -14.4860   23.8165 C   0  0  0  0  0  0  0  0  0  0  0  0
    7.4134  -13.1418   23.9355 C   0  0  0  0  0  0  0  0  0  0  0  0
    7.2017  -12.4160   25.0854 C   0  0  0  0  0  0  0  0  0  0  0  0
    6.6001  -13.0192   26.1699 C   0  0  0  0  0  0  0  0  0  0  0  0
    6.2293  -14.3490   26.0535 C   0  0  0  0  0  0  0  0  0  0  0  0
    6.4385  -15.0739   24.9106 C   0  0  0  0  0  0  0  0  0  0  0  0
    9.0177  -16.6017   23.5545 C   0  0  0  0  0  0  0  0  0  0  0  0
    8.6531  -17.8022   23.5416 O   0  0  0  0  0  0  0  0  0  0  0  0
    9.7678  -16.0891   24.6522 N   0  0  0  0  0  0  0  0  0  0  0  0
   10.5330  -16.9820   25.4911 C   0  0  1  0  0  0  0  0  0  0  0  0
   11.6106  -16.2017   26.1728 C   0  0  0  0  0  0  0  0  0  0  0  0
   11.1218  -15.4078   27.2994 C   0  0  0  0  0  0  0  0  0  0  0  0
   11.0013  -15.8842   28.5682 C   0  0  0  0  0  0  0  0  0  0  0  0
   10.5341  -15.0796   29.5961 C   0  0  0  0  0  0  0  0  0  0  0  0
   10.1729  -13.7681   29.3781 C   0  0  0  0  0  0  0  0  0  0  0  0
   10.2982  -13.2892   28.0817 C   0  0  0  0  0  0  0  0  0  0  0  0
   10.7598  -14.0828   27.0649 C   0  0  0  0  0  0  0  0  0  0  0  0
    9.6810  -17.7144   26.4334 C   0  0  0  0  0  0  0  0  0  0  0  0
   10.0910  -18.5625   27.2586 O   0  0  0  0  0  0  0  0  0  0  0  0
    8.2998  -17.4582   26.4234 O   0  0  0  0  0  0  0  0  0  0  0  0
  2  1  1  6
  3  2  1  0
  4  3  1  0
  5  2  1  0
  5  6  2  0
  7  5  1  0
  8  7  1  0
  8  9  1  1
 10 11  2  0
 10  9  1  0
 12 11  1  0
 13 12  2  0
 14 13  1  0
 14 15  2  0
 15 10  1  0
 16  8  1  0
 17 16  2  0
 18 16  1  0
 19 20  1  1
 19 18  1  0
 21 20  1  0
 22 21  2  0
 23 22  1  0
 24 25  1  0
 24 23  2  0
 25 26  2  0
 26 21  1  0
 27 29  1  0
 27 19  1  0
 28 27  2  0
M  END
$$$$
