CFF.pdb
     RDKit          3D

 29 30  0  0  1  0  0  0  0  0999 V2000
    9.2217  -16.3919   18.2305 N   0  0  0  0  0  0  0  0  0  0  0  0
    9.1160  -17.2026   19.4266 C   0  0  1  0  0  0  0  0  0  0  0  0
   10.1958  -18.2577   19.3548 C   0  0  0  0  0  0  0  0  0  0  0  0
   10.1231  -19.2745   20.8549 S   0  0  0  0  0  0  0  0  0  0  0  0
    9.2713  -16.3187   20.5977 C   0  0  0  0  0  0  0  0  0  0  0  0
   10.1593  -15.4268   20.6764 O   0  0  0  0  0  0  0  0  0  0  0  0
    8.4063  -16.4352   21.7176 N   0  0  0  0  0  0  0  0  0  0  0  0
    8.5136  -15.5430   22.8645 C   0  0  1  0  0  0  0  0  0  0  0  0
    7.1819  -15.0852   23.3404 C   0  0  0  0  0  0  0  0  0  0  0  0
    7.2564  -14.0428   24.3842 C   0  0  0  0  0  0  0  0  0  0  0  0
    6.0871  -13.3676   24.7556 C   0  0  0  0  0  0  0  0  0  0  0  0
    6.0731  -12.3994   25.7334 C   0  0  0  0  0  0  0  0  0  0  0  0
    7.2450  -12.0696   26.3814 C   0  0  0  0  0  0  0  0  0  0  0  0
    8.4025  -12.7369   26.0149 C   0  0  0  0  0  0  0  0  0  0  0  0
    8.4196  -13.7008   25.0424 C   0  0  0  0  0  0  0  0  0  0  0  0
    9.3194  -16.1411   23.9407 C   0  0  0  0  0  0  0  0  0  0  0  0
    9.1223  -17.3417   24.2473 O   0  0  0  0  0  0  0  0  0  0  0  0
   10.3070  -15.3761   24.6261 N   0  0  0  0  0  0  0  0  0  0  0  0
   10.8242  -15.8269   25.8972 C   0  0  1  0  0  0  0  0  0  0  0  0
   11.2130  -14.6354   26.7122 C   0  0  0  0  0  0  0  0  0  0  0  0
   11.2754  -14.9143   28.1463 C   0  0  0  0  0  0  0  0  0  0  0  0
   12.2643  -15.6391   28.7364 C   0  0  0  0  0  0  0  0  0  0  0  0
   12.2699  -15.8663   30.1041 C   0  0  0  0  0  0  0  0  0  0  0  0
   11.2780  -15.3702   30.9216 C   0  0  0  0  0  0  0  0  0  0  0  0
   10.2728  -14.6322   30.3129 C   0  0  0  0  0  0  0  0  0  0  0  0
   10.2659  -14.4067   28.9616 C   0  0  0  0  0  0  0  0  0  0  0  0
    9.8792  -16.7059   26.5935 C   0  0  0  0  0  0  0  0  0  0  0  0
   10.1945  -17.7453   27.2166 O   0  0  0  0  0  0  0  0  0  0  0  0
    8.5148  -16.3722   26.5700 O   0  0  0  0  0  0  0  0  0  0  0  0
  2  1  1  6
  3  2  1  0
  4  3  1  0
  5  2  1  0
  5  6  2  0
  7  5  1  0
  8  7  1  0
  8  9  1  1
 10 11  2  0
 10  9  1  0
 12 11  1  0
 13 12  2  0
 14 13  1  0
 14 15  2  0
 15 10  1  0
 16  8  1  0
 17 16  2  0
 18 16  1  0
 19 20  1  1
 19 18  1  0
 21 20  1  0
 22 21  2  0
 23 22  1  0
 24 25  1  0
 24 23  2  0
 25 26  2  0
 26 21  1  0
 27 29  1  0
 27 19  1  0
 28 27  2  0
M  END
$$$$
