CFF.pdb
     RDKit          3D

 29 30  0  0  1  0  0  0  0  0999 V2000
   11.1763  -16.7066   18.3214 N   0  0  0  0  0  0  0  0  0  0  0  0
   10.0040  -17.2384   18.9862 C   0  0  1  0  0  0  0  0  0  0  0  0
   10.1937  -18.7327   19.1109 C   0  0  0  0  0  0  0  0  0  0  0  0
   11.6559  -19.0549   20.1345 S   0  0  0  0  0  0  0  0  0  0  0  0
    9.8787  -16.5767   20.2989 C   0  0  0  0  0  0  0  0  0  0  0  0
   10.8529  -16.0506   20.9026 O   0  0  0  0  0  0  0  0  0  0  0  0
    8.6238  -16.5001   20.9588 N   0  0  0  0  0  0  0  0  0  0  0  0
    8.4750  -15.8359   22.2470 C   0  0  1  0  0  0  0  0  0  0  0  0
    7.0916  -15.3351   22.4587 C   0  0  0  0  0  0  0  0  0  0  0  0
    6.9012  -14.6652   23.7613 C   0  0  0  0  0  0  0  0  0  0  0  0
    7.3246  -13.3389   23.9123 C   0  0  0  0  0  0  0  0  0  0  0  0
    7.1629  -12.6421   25.0879 C   0  0  0  0  0  0  0  0  0  0  0  0
    6.5639  -13.2574   26.1670 C   0  0  0  0  0  0  0  0  0  0  0  0
    6.1445  -14.5696   26.0189 C   0  0  0  0  0  0  0  0  0  0  0  0
    6.3039  -15.2656   24.8504 C   0  0  0  0  0  0  0  0  0  0  0  0
    8.9382  -16.6901   23.3519 C   0  0  0  0  0  0  0  0  0  0  0  0
    8.6929  -17.9199   23.3088 O   0  0  0  0  0  0  0  0  0  0  0  0
    9.6528  -16.1371   24.4537 N   0  0  0  0  0  0  0  0  0  0  0  0
   10.4371  -16.9911   25.3151 C   0  0  1  0  0  0  0  0  0  0  0  0
   11.5534  -16.1905   25.9049 C   0  0  0  0  0  0  0  0  0  0  0  0
   11.1060  -15.2430   26.9250 C   0  0  0  0  0  0  0  0  0  0  0  0
   10.7319  -13.9620   26.6594 C   0  0  0  0  0  0  0  0  0  0  0  0
   10.3128  -13.1118   27.6711 C   0  0  0  0  0  0  0  0  0  0  0  0
   10.2575  -13.5255   28.9842 C   0  0  0  0  0  0  0  0  0  0  0  0
   10.6406  -14.8330   29.2475 C   0  0  0  0  0  0  0  0  0  0  0  0
   11.0548  -15.6744   28.2489 C   0  0  0  0  0  0  0  0  0  0  0  0
    9.6123  -17.6494   26.3333 C   0  0  0  0  0  0  0  0  0  0  0  0
   10.0332  -18.4872   27.1634 O   0  0  0  0  0  0  0  0  0  0  0  0
    8.2461  -17.3281   26.3966 O   0  0  0  0  0  0  0  0  0  0  0  0
  2  1  1  1
  3  2  1  0
  4  3  1  0
  5  2  1  0
  5  6  2  0
  7  5  1  0
  8  7  1  0
  8  9  1  1
 10 11  2  0
 10  9  1  0
 12 11  1  0
 13 12  2  0
 14 13  1  0
 14 15  2  0
 15 10  1  0
 16  8  1  0
 17 16  2  0
 18 16  1  0
 19 20  1  1
 19 18  1  0
 21 20  1  0
 22 21  2  0
 23 22  1  0
 24 25  1  0
 24 23  2  0
 25 26  2  0
 26 21  1  0
 27 29  1  0
 27 19  1  0
 28 27  2  0
M  END
$$$$
