CFF.pdb
     RDKit          3D

 29 30  0  0  1  0  0  0  0  0999 V2000
    9.7513  -17.2208   17.9789 N   0  0  0  0  0  0  0  0  0  0  0  0
    9.4752  -17.9631   19.1921 C   0  0  1  0  0  0  0  0  0  0  0  0
   10.5192  -19.0503   19.3046 C   0  0  0  0  0  0  0  0  0  0  0  0
   10.2176  -19.9986   20.8209 S   0  0  0  0  0  0  0  0  0  0  0  0
    9.5192  -17.0226   20.3280 C   0  0  0  0  0  0  0  0  0  0  0  0
   10.4844  -16.2387   20.5382 O   0  0  0  0  0  0  0  0  0  0  0  0
    8.4497  -16.9556   21.2596 N   0  0  0  0  0  0  0  0  0  0  0  0
    8.4317  -15.9738   22.3360 C   0  0  1  0  0  0  0  0  0  0  0  0
    7.0478  -15.5713   22.6994 C   0  0  0  0  0  0  0  0  0  0  0  0
    6.9928  -14.5469   23.7621 C   0  0  0  0  0  0  0  0  0  0  0  0
    6.4375  -14.8832   25.0029 C   0  0  0  0  0  0  0  0  0  0  0  0
    6.3697  -13.9898   26.0474 C   0  0  0  0  0  0  0  0  0  0  0  0
    6.8620  -12.7121   25.8832 C   0  0  0  0  0  0  0  0  0  0  0  0
    7.4116  -12.3780   24.6561 C   0  0  0  0  0  0  0  0  0  0  0  0
    7.4806  -13.2647   23.6148 C   0  0  0  0  0  0  0  0  0  0  0  0
    9.2068  -16.4333   23.4993 C   0  0  0  0  0  0  0  0  0  0  0  0
    8.9702  -17.5713   23.9718 O   0  0  0  0  0  0  0  0  0  0  0  0
   10.2091  -15.6058   24.0832 N   0  0  0  0  0  0  0  0  0  0  0  0
   10.8215  -15.9790   25.3371 C   0  0  1  0  0  0  0  0  0  0  0  0
   11.2118  -14.7381   26.0740 C   0  0  0  0  0  0  0  0  0  0  0  0
   10.9349  -14.8090   27.5081 C   0  0  0  0  0  0  0  0  0  0  0  0
   11.3639  -15.8170   28.3152 C   0  0  0  0  0  0  0  0  0  0  0  0
   11.0715  -15.8257   29.6704 C   0  0  0  0  0  0  0  0  0  0  0  0
   10.3366  -14.8182   30.2562 C   0  0  0  0  0  0  0  0  0  0  0  0
    9.9024  -13.7938   29.4270 C   0  0  0  0  0  0  0  0  0  0  0  0
   10.1905  -13.7836   28.0877 C   0  0  0  0  0  0  0  0  0  0  0  0
    9.9574  -16.8602   26.1289 C   0  0  0  0  0  0  0  0  0  0  0  0
   10.3414  -17.8927   26.7244 O   0  0  0  0  0  0  0  0  0  0  0  0
    8.5945  -16.5372   26.2384 O   0  0  0  0  0  0  0  0  0  0  0  0
  2  1  1  6
  3  2  1  0
  4  3  1  0
  5  2  1  0
  5  6  2  0
  7  5  1  0
  8  7  1  0
  8  9  1  1
 10 11  2  0
 10  9  1  0
 12 11  1  0
 13 12  2  0
 14 13  1  0
 14 15  2  0
 15 10  1  0
 16  8  1  0
 17 16  2  0
 18 16  1  0
 19 20  1  1
 19 18  1  0
 21 20  1  0
 22 21  2  0
 23 22  1  0
 24 25  1  0
 24 23  2  0
 25 26  2  0
 26 21  1  0
 27 29  1  0
 27 19  1  0
 28 27  2  0
M  END
$$$$
