CFF.pdb
     RDKit          3D

 29 30  0  0  1  0  0  0  0  0999 V2000
   10.0825  -17.5267   18.4583 N   0  0  0  0  0  0  0  0  0  0  0  0
    9.1765  -17.8897   19.5291 C   0  0  1  0  0  0  0  0  0  0  0  0
    9.5911  -19.2544   20.0292 C   0  0  0  0  0  0  0  0  0  0  0  0
   11.3140  -19.1748   20.5905 S   0  0  0  0  0  0  0  0  0  0  0  0
    9.2655  -16.8561   20.5782 C   0  0  0  0  0  0  0  0  0  0  0  0
   10.1581  -15.9656   20.5961 O   0  0  0  0  0  0  0  0  0  0  0  0
    8.3263  -16.8162   21.6424 N   0  0  0  0  0  0  0  0  0  0  0  0
    8.3820  -15.7901   22.6752 C   0  0  1  0  0  0  0  0  0  0  0  0
    7.1299  -15.7359   23.4744 C   0  0  0  0  0  0  0  0  0  0  0  0
    7.1406  -14.6872   24.5146 C   0  0  0  0  0  0  0  0  0  0  0  0
    7.6890  -13.4347   24.2120 C   0  0  0  0  0  0  0  0  0  0  0  0
    7.7166  -12.4022   25.1213 C   0  0  0  0  0  0  0  0  0  0  0  0
    7.1891  -12.5907   26.3815 C   0  0  0  0  0  0  0  0  0  0  0  0
    6.6462  -13.8295   26.6821 C   0  0  0  0  0  0  0  0  0  0  0  0
    6.6172  -14.8589   25.7795 C   0  0  0  0  0  0  0  0  0  0  0  0
    9.5799  -15.9356   23.5173 C   0  0  0  0  0  0  0  0  0  0  0  0
   10.6340  -15.3471   23.1755 O   0  0  0  0  0  0  0  0  0  0  0  0
    9.5498  -16.7290   24.7005 N   0  0  0  0  0  0  0  0  0  0  0  0
   10.7505  -16.9175   25.4811 C   0  0  1  0  0  0  0  0  0  0  0  0
   11.2908  -15.5789   25.8700 C   0  0  0  0  0  0  0  0  0  0  0  0
   10.6424  -15.0184   27.0549 C   0  0  0  0  0  0  0  0  0  0  0  0
   10.4543  -15.7058   28.2140 C   0  0  0  0  0  0  0  0  0  0  0  0
    9.8349  -15.1169   29.3057 C   0  0  0  0  0  0  0  0  0  0  0  0
    9.3847  -13.8154   29.2642 C   0  0  0  0  0  0  0  0  0  0  0  0
    9.5799  -13.1207   28.0788 C   0  0  0  0  0  0  0  0  0  0  0  0
   10.1917  -13.7011   26.9992 C   0  0  0  0  0  0  0  0  0  0  0  0
   10.5229  -17.7938   26.6347 C   0  0  0  0  0  0  0  0  0  0  0  0
   11.4061  -18.1509   27.4475 O   0  0  0  0  0  0  0  0  0  0  0  0
    9.2235  -18.2778   26.8601 O   0  0  0  0  0  0  0  0  0  0  0  0
  2  1  1  6
  3  2  1  0
  4  3  1  0
  5  2  1  0
  5  6  2  0
  7  5  1  0
  8  7  1  0
  8  9  1  1
 10 11  2  0
 10  9  1  0
 12 11  1  0
 13 12  2  0
 14 13  1  0
 14 15  2  0
 15 10  1  0
 16  8  1  0
 17 16  2  0
 18 16  1  0
 19 20  1  1
 19 18  1  0
 21 20  1  0
 22 21  2  0
 23 22  1  0
 24 25  1  0
 24 23  2  0
 25 26  2  0
 26 21  1  0
 27 29  1  0
 27 19  1  0
 28 27  2  0
M  END
$$$$
