QNY.pdb
     RDKit          3D

 30 30  0  0  1  0  0  0  0  0999 V2000
   29.9066  -22.7738  -19.8222 N   0  0  0  0  0  0  0  0  0  0  0  0
   31.0019  -23.3247  -19.1234 C   0  0  0  0  0  0  0  0  0  0  0  0
   32.1538  -22.9066  -19.3962 O   0  0  0  0  0  0  0  0  0  0  0  0
   30.8347  -24.3641  -18.0974 C   0  0  0  0  0  0  0  0  0  0  0  0
   29.3933  -24.8007  -18.0307 C   0  0  0  0  0  0  0  0  0  0  0  0
   28.6536  -24.0624  -16.9162 C   0  0  2  0  0  0  0  0  0  0  0  0
   28.5723  -24.9046  -15.7488 N   0  0  0  0  0  0  0  0  0  0  0  0
   27.2826  -23.7491  -17.4420 C   0  0  0  0  0  0  0  0  0  0  0  0
   27.1316  -23.2505  -18.5853 O   0  0  0  0  0  0  0  0  0  0  0  0
   24.1940  -25.9796  -18.3279 N   0  0  0  0  0  0  0  0  0  0  0  0
   23.5696  -25.7628  -17.0754 C   0  0  0  0  0  0  0  0  0  0  0  0
   22.8472  -26.6764  -16.6100 O   0  0  0  0  0  0  0  0  0  0  0  0
   23.7438  -24.5234  -16.3275 C   0  0  0  0  0  0  0  0  0  0  0  0
   24.7743  -23.6766  -17.0537 C   0  0  2  0  0  0  0  0  0  0  0  0
   26.1142  -23.9979  -16.6880 N   0  0  0  0  0  0  0  0  0  0  0  0
   24.4292  -22.2562  -16.7888 C   0  0  0  0  0  0  0  0  0  0  0  0
   23.2335  -21.8450  -16.7910 O   0  0  0  0  0  0  0  0  0  0  0  0
   26.3412  -13.5146  -15.8907 O   0  0  0  0  0  0  0  0  0  0  0  0
   26.3702  -14.9217  -15.9279 C   0  0  0  0  0  0  0  0  0  0  0  0
   26.6259  -15.6847  -14.8122 C   0  0  0  0  0  0  0  0  0  0  0  0
   26.6442  -17.0620  -14.8954 C   0  0  0  0  0  0  0  0  0  0  0  0
   26.4127  -17.7260  -16.0809 C   0  0  0  0  0  0  0  0  0  0  0  0
   26.4442  -19.1915  -16.1307 C   0  0  0  0  0  0  0  0  0  0  0  0
   25.0885  -19.8399  -16.3619 C   0  0  2  0  0  0  0  0  0  0  0  0
   25.4054  -21.2597  -16.5146 N   0  0  0  0  0  0  0  0  0  0  0  0
   24.5057  -19.2860  -17.6019 C   0  0  0  0  0  0  0  0  0  0  0  0
   23.4740  -18.3571  -17.4730 O   0  0  0  0  0  0  0  0  0  0  0  0
   26.1570  -16.9522  -17.1999 C   0  0  0  0  0  0  0  0  0  0  0  0
   26.1369  -15.5578  -17.1156 C   0  0  0  0  0  0  0  0  0  0  0  0
   24.8661  -19.5866  -18.7441 O   0  0  0  0  0  0  0  0  0  0  0  0
  2  1  1  0
  2  3  2  0
  4  5  1  0
  4  2  1  0
  6  5  1  0
  6  7  1  1
  8 15  1  0
  8  6  1  0
  9  8  2  0
 10 11  1  0
 11 13  1  0
 12 11  2  0
 14 13  1  1
 14 16  1  0
 14 15  1  0
 16 17  2  0
 19 18  1  0
 19 20  2  0
 21 20  1  0
 22 21  2  0
 23 22  1  0
 24 23  1  6
 24 26  1  0
 25 24  1  0
 25 16  1  0
 26 27  1  0
 28 29  2  0
 28 22  1  0
 29 19  1  0
 30 26  2  0
M  END
$$$$
