QNY.pdb
     RDKit          3D

 30 30  0  0  1  0  0  0  0  0999 V2000
   33.7903  -24.6194  -18.6289 N   0  0  0  0  0  0  0  0  0  0  0  0
   33.2995  -25.9359  -18.4969 C   0  0  0  0  0  0  0  0  0  0  0  0
   34.0540  -26.8876  -18.8149 O   0  0  0  0  0  0  0  0  0  0  0  0
   31.9441  -26.2216  -18.0047 C   0  0  0  0  0  0  0  0  0  0  0  0
   31.2593  -24.9421  -17.5968 C   0  0  0  0  0  0  0  0  0  0  0  0
   29.8497  -25.2222  -17.0784 C   0  0  2  0  0  0  0  0  0  0  0  0
   29.0441  -25.7726  -18.1400 N   0  0  0  0  0  0  0  0  0  0  0  0
   29.2914  -23.9081  -16.6143 C   0  0  0  0  0  0  0  0  0  0  0  0
   29.8942  -23.2232  -15.7505 O   0  0  0  0  0  0  0  0  0  0  0  0
   29.8809  -20.5981  -18.5679 N   0  0  0  0  0  0  0  0  0  0  0  0
   28.7988  -20.3965  -17.6768 C   0  0  0  0  0  0  0  0  0  0  0  0
   28.9538  -19.5835  -16.7344 O   0  0  0  0  0  0  0  0  0  0  0  0
   27.5307  -21.1003  -17.8268 C   0  0  0  0  0  0  0  0  0  0  0  0
   27.4515  -22.1629  -16.7446 C   0  0  2  0  0  0  0  0  0  0  0  0
   28.0803  -23.3859  -17.1205 N   0  0  0  0  0  0  0  0  0  0  0  0
   26.0138  -22.3324  -16.4113 C   0  0  0  0  0  0  0  0  0  0  0  0
   25.1890  -22.8267  -17.2323 O   0  0  0  0  0  0  0  0  0  0  0  0
   18.7532  -21.9578  -11.1263 O   0  0  0  0  0  0  0  0  0  0  0  0
   20.0478  -21.9488  -11.6795 C   0  0  0  0  0  0  0  0  0  0  0  0
   20.6191  -23.0677  -12.2399 C   0  0  0  0  0  0  0  0  0  0  0  0
   21.8915  -23.0126  -12.7709 C   0  0  0  0  0  0  0  0  0  0  0  0
   22.6374  -21.8535  -12.7631 C   0  0  0  0  0  0  0  0  0  0  0  0
   23.9884  -21.8348  -13.3338 C   0  0  0  0  0  0  0  0  0  0  0  0
   24.0384  -22.0793  -14.8337 C   0  0  2  0  0  0  0  0  0  0  0  0
   25.4596  -21.9569  -15.1571 N   0  0  0  0  0  0  0  0  0  0  0  0
   23.2445  -21.0318  -15.5093 C   0  0  0  0  0  0  0  0  0  0  0  0
   21.9680  -21.3736  -15.9542 O   0  0  0  0  0  0  0  0  0  0  0  0
   22.0569  -20.7315  -12.1969 C   0  0  0  0  0  0  0  0  0  0  0  0
   20.7681  -20.7867  -11.6605 C   0  0  0  0  0  0  0  0  0  0  0  0
   23.6298  -19.8757  -15.7089 O   0  0  0  0  0  0  0  0  0  0  0  0
  2  1  1  0
  2  3  2  0
  4  5  1  0
  4  2  1  0
  6  5  1  0
  6  7  1  6
  8 15  1  0
  8  6  1  0
  9  8  2  0
 10 11  1  0
 11 13  1  0
 12 11  2  0
 14 13  1  6
 14 16  1  0
 14 15  1  0
 16 17  2  0
 19 18  1  0
 19 20  2  0
 21 20  1  0
 22 21  2  0
 23 22  1  0
 24 23  1  1
 24 26  1  0
 25 24  1  0
 25 16  1  0
 26 27  1  0
 28 29  2  0
 28 22  1  0
 29 19  1  0
 30 26  2  0
M  END
$$$$
