QNY.pdb
     RDKit          3D

 30 30  0  0  1  0  0  0  0  0999 V2000
   16.4007  -13.5194  -17.6744 N   0  0  0  0  0  0  0  0  0  0  0  0
   17.0940  -14.7361  -17.8486 C   0  0  0  0  0  0  0  0  0  0  0  0
   16.5796  -15.6150  -18.5828 O   0  0  0  0  0  0  0  0  0  0  0  0
   18.3865  -15.0017  -17.2007 C   0  0  0  0  0  0  0  0  0  0  0  0
   18.7924  -13.8252  -16.3500 C   0  0  0  0  0  0  0  0  0  0  0  0
   19.9028  -13.0233  -17.0271 C   0  0  2  0  0  0  0  0  0  0  0  0
   21.1036  -13.8186  -17.0918 N   0  0  0  0  0  0  0  0  0  0  0  0
   20.1221  -11.7970  -16.1890 C   0  0  0  0  0  0  0  0  0  0  0  0
   19.3788  -11.5488  -15.2069 O   0  0  0  0  0  0  0  0  0  0  0  0
   22.6263  -11.6739  -14.3669 N   0  0  0  0  0  0  0  0  0  0  0  0
   23.4192  -10.5408  -14.6719 C   0  0  0  0  0  0  0  0  0  0  0  0
   24.5738  -10.4802  -14.1858 O   0  0  0  0  0  0  0  0  0  0  0  0
   22.9326   -9.4616  -15.5230 C   0  0  0  0  0  0  0  0  0  0  0  0
   21.4463   -9.6753  -15.7501 C   0  0  2  0  0  0  0  0  0  0  0  0
   21.1605  -10.8783  -16.4598 N   0  0  0  0  0  0  0  0  0  0  0  0
   20.9371   -8.4631  -16.4417 C   0  0  0  0  0  0  0  0  0  0  0  0
   21.1618   -8.2461  -17.6669 O   0  0  0  0  0  0  0  0  0  0  0  0
   15.2711   -1.9694  -18.4464 O   0  0  0  0  0  0  0  0  0  0  0  0
   15.9925   -3.0671  -17.9396 C   0  0  0  0  0  0  0  0  0  0  0  0
   16.6881   -3.9321  -18.7523 C   0  0  0  0  0  0  0  0  0  0  0  0
   17.3819   -4.9953  -18.2116 C   0  0  0  0  0  0  0  0  0  0  0  0
   17.4083   -5.2370  -16.8547 C   0  0  0  0  0  0  0  0  0  0  0  0
   18.1541   -6.3799  -16.3175 C   0  0  0  0  0  0  0  0  0  0  0  0
   19.6637   -6.2646  -16.4573 C   0  0  2  0  0  0  0  0  0  0  0  0
   20.1659   -7.4641  -15.7874 N   0  0  0  0  0  0  0  0  0  0  0  0
   20.1097   -5.0386  -15.7632 C   0  0  0  0  0  0  0  0  0  0  0  0
   20.3557   -3.9079  -16.5412 O   0  0  0  0  0  0  0  0  0  0  0  0
   16.7054   -4.3633  -16.0428 C   0  0  0  0  0  0  0  0  0  0  0  0
   16.0042   -3.2859  -16.5900 C   0  0  0  0  0  0  0  0  0  0  0  0
   20.2808   -4.9428  -14.5440 O   0  0  0  0  0  0  0  0  0  0  0  0
  2  1  1  0
  2  3  2  0
  4  5  1  0
  4  2  1  0
  6  5  1  0
  6  7  1  1
  8 15  1  0
  8  6  1  0
  9  8  2  0
 10 11  1  0
 11 13  1  0
 12 11  2  0
 14 13  1  6
 14 16  1  0
 14 15  1  0
 16 17  2  0
 19 18  1  0
 19 20  2  0
 21 20  1  0
 22 21  2  0
 23 22  1  0
 24 23  1  1
 24 26  1  0
 25 24  1  0
 25 16  1  0
 26 27  1  0
 28 29  2  0
 28 22  1  0
 29 19  1  0
 30 26  2  0
M  END
$$$$
