QNY.pdb
     RDKit          3D

 30 30  0  0  1  0  0  0  0  0999 V2000
   28.0875  -11.5918  -16.1070 N   0  0  0  0  0  0  0  0  0  0  0  0
   27.5608  -12.8516  -15.7505 C   0  0  0  0  0  0  0  0  0  0  0  0
   28.3579  -13.7457  -15.3746 O   0  0  0  0  0  0  0  0  0  0  0  0
   26.1214  -13.1442  -15.8076 C   0  0  0  0  0  0  0  0  0  0  0  0
   25.3515  -11.8969  -16.1598 C   0  0  0  0  0  0  0  0  0  0  0  0
   23.8612  -12.2013  -16.3032 C   0  0  2  0  0  0  0  0  0  0  0  0
   23.6581  -13.1234  -17.3928 N   0  0  0  0  0  0  0  0  0  0  0  0
   23.1781  -10.8931  -16.5796 C   0  0  0  0  0  0  0  0  0  0  0  0
   23.4667  -10.2211  -17.6013 O   0  0  0  0  0  0  0  0  0  0  0  0
   19.8495  -10.2610  -17.6996 N   0  0  0  0  0  0  0  0  0  0  0  0
   19.2617   -9.8547  -16.4769 C   0  0  0  0  0  0  0  0  0  0  0  0
   18.0329  -10.0501  -16.3189 O   0  0  0  0  0  0  0  0  0  0  0  0
   20.0385   -9.2249  -15.4159 C   0  0  0  0  0  0  0  0  0  0  0  0
   21.4825   -9.1379  -15.8783 C   0  0  2  0  0  0  0  0  0  0  0  0
   22.1917  -10.3642  -15.7178 N   0  0  0  0  0  0  0  0  0  0  0  0
   22.1052   -8.0106  -15.1377 C   0  0  0  0  0  0  0  0  0  0  0  0
   22.4460   -8.1125  -13.9244 O   0  0  0  0  0  0  0  0  0  0  0  0
   20.2779   -2.5858  -20.0470 O   0  0  0  0  0  0  0  0  0  0  0  0
   21.1147   -3.1225  -19.0500 C   0  0  0  0  0  0  0  0  0  0  0  0
   21.4210   -2.4386  -17.8964 C   0  0  0  0  0  0  0  0  0  0  0  0
   22.2459   -3.0041  -16.9456 C   0  0  0  0  0  0  0  0  0  0  0  0
   22.7935   -4.2589  -17.1059 C   0  0  0  0  0  0  0  0  0  0  0  0
   23.6691   -4.8253  -16.0746 C   0  0  0  0  0  0  0  0  0  0  0  0
   22.9407   -5.6153  -14.9989 C   0  0  2  0  0  0  0  0  0  0  0  0
   22.3641   -6.7440  -15.7289 N   0  0  0  0  0  0  0  0  0  0  0  0
   21.8853   -4.7593  -14.4179 C   0  0  0  0  0  0  0  0  0  0  0  0
   22.2809   -3.7487  -13.5426 O   0  0  0  0  0  0  0  0  0  0  0  0
   22.4819   -4.9412  -18.2695 C   0  0  0  0  0  0  0  0  0  0  0  0
   21.6456   -4.3694  -19.2315 C   0  0  0  0  0  0  0  0  0  0  0  0
   20.6781   -4.8746  -14.6510 O   0  0  0  0  0  0  0  0  0  0  0  0
  2  1  1  0
  2  3  2  0
  4  5  1  0
  4  2  1  0
  6  5  1  0
  6  7  1  6
  8 15  1  0
  8  6  1  0
  9  8  2  0
 10 11  1  0
 11 13  1  0
 12 11  2  0
 14 13  1  1
 14 16  1  0
 14 15  1  0
 16 17  2  0
 19 18  1  0
 19 20  2  0
 21 20  1  0
 22 21  2  0
 23 22  1  0
 24 23  1  6
 24 26  1  0
 25 24  1  0
 25 16  1  0
 26 27  1  0
 28 29  2  0
 28 22  1  0
 29 19  1  0
 30 26  2  0
M  END
$$$$
