QNY.pdb
     RDKit          3D

 30 30  0  0  1  0  0  0  0  0999 V2000
   39.7068  -30.0903  -18.0927 N   0  0  0  0  0  0  0  0  0  0  0  0
   38.8363  -29.1171  -18.6280 C   0  0  0  0  0  0  0  0  0  0  0  0
   38.5764  -29.1611  -19.8555 O   0  0  0  0  0  0  0  0  0  0  0  0
   38.2329  -28.0639  -17.7990 C   0  0  0  0  0  0  0  0  0  0  0  0
   37.2261  -28.6628  -16.8501 C   0  0  0  0  0  0  0  0  0  0  0  0
   35.8249  -28.6379  -17.4588 C   0  0  2  0  0  0  0  0  0  0  0  0
   35.3104  -27.2912  -17.4342 N   0  0  0  0  0  0  0  0  0  0  0  0
   34.9739  -29.5473  -16.6204 C   0  0  0  0  0  0  0  0  0  0  0  0
   34.5382  -29.1707  -15.5038 O   0  0  0  0  0  0  0  0  0  0  0  0
   30.7401  -32.2887  -16.0820 N   0  0  0  0  0  0  0  0  0  0  0  0
   31.7960  -31.9904  -16.9773 C   0  0  0  0  0  0  0  0  0  0  0  0
   31.6284  -31.0562  -17.7973 O   0  0  0  0  0  0  0  0  0  0  0  0
   33.0515  -32.7316  -16.9684 C   0  0  0  0  0  0  0  0  0  0  0  0
   34.0864  -31.8952  -16.2363 C   0  0  2  0  0  0  0  0  0  0  0  0
   34.6263  -30.8501  -17.0417 N   0  0  0  0  0  0  0  0  0  0  0  0
   35.1245  -32.8335  -15.7375 C   0  0  0  0  0  0  0  0  0  0  0  0
   36.2997  -32.8428  -16.2040 O   0  0  0  0  0  0  0  0  0  0  0  0
   40.2454  -37.1864  -10.1487 O   0  0  0  0  0  0  0  0  0  0  0  0
   39.3425  -36.3998  -10.8889 C   0  0  0  0  0  0  0  0  0  0  0  0
   39.6515  -35.8908  -12.1291 C   0  0  0  0  0  0  0  0  0  0  0  0
   38.7348  -35.1244  -12.8192 C   0  0  0  0  0  0  0  0  0  0  0  0
   37.4883  -34.8366  -12.3060 C   0  0  0  0  0  0  0  0  0  0  0  0
   36.5419  -34.0151  -13.0679 C   0  0  0  0  0  0  0  0  0  0  0  0
   35.8844  -34.7356  -14.2342 C   0  0  2  0  0  0  0  0  0  0  0  0
   34.8805  -33.7831  -14.7080 N   0  0  0  0  0  0  0  0  0  0  0  0
   35.2515  -35.9718  -13.7289 C   0  0  0  0  0  0  0  0  0  0  0  0
   33.9851  -35.8625  -13.1558 O   0  0  0  0  0  0  0  0  0  0  0  0
   37.1842  -35.3512  -11.0572 C   0  0  0  0  0  0  0  0  0  0  0  0
   38.1116  -36.1284  -10.3589 C   0  0  0  0  0  0  0  0  0  0  0  0
   35.7631  -37.0946  -13.7770 O   0  0  0  0  0  0  0  0  0  0  0  0
  2  1  1  0
  2  3  2  0
  4  5  1  0
  4  2  1  0
  6  5  1  0
  6  7  1  1
  8 15  1  0
  8  6  1  0
  9  8  2  0
 10 11  1  0
 11 13  1  0
 12 11  2  0
 14 13  1  6
 14 16  1  0
 14 15  1  0
 16 17  2  0
 19 18  1  0
 19 20  2  0
 21 20  1  0
 22 21  2  0
 23 22  1  0
 24 23  1  1
 24 26  1  0
 25 24  1  0
 25 16  1  0
 26 27  1  0
 28 29  2  0
 28 22  1  0
 29 19  1  0
 30 26  2  0
M  END
$$$$
