QNY.pdb
     RDKit          3D

 30 30  0  0  1  0  0  0  0  0999 V2000
   28.3941  -30.1795  -16.3754 N   0  0  0  0  0  0  0  0  0  0  0  0
   29.0260  -29.8514  -17.5938 C   0  0  0  0  0  0  0  0  0  0  0  0
   29.5124  -30.7820  -18.2820 O   0  0  0  0  0  0  0  0  0  0  0  0
   29.1315  -28.4661  -18.0742 C   0  0  0  0  0  0  0  0  0  0  0  0
   28.5090  -27.5220  -17.0773 C   0  0  0  0  0  0  0  0  0  0  0  0
   28.5982  -26.0780  -17.5683 C   0  0  2  0  0  0  0  0  0  0  0  0
   29.7974  -25.4650  -17.0537 N   0  0  0  0  0  0  0  0  0  0  0  0
   27.3773  -25.3712  -17.0544 C   0  0  0  0  0  0  0  0  0  0  0  0
   26.6078  -25.9318  -16.2346 O   0  0  0  0  0  0  0  0  0  0  0  0
   23.9368  -21.8967  -15.8726 N   0  0  0  0  0  0  0  0  0  0  0  0
   25.0466  -21.1668  -16.3638 C   0  0  0  0  0  0  0  0  0  0  0  0
   25.0759  -19.9294  -16.1609 O   0  0  0  0  0  0  0  0  0  0  0  0
   26.1370  -21.8094  -17.0877 C   0  0  0  0  0  0  0  0  0  0  0  0
   25.8960  -23.3088  -17.0671 C   0  0  2  0  0  0  0  0  0  0  0  0
   27.0416  -24.0606  -17.4609 N   0  0  0  0  0  0  0  0  0  0  0  0
   24.7131  -23.5672  -17.9278 C   0  0  0  0  0  0  0  0  0  0  0  0
   24.7023  -23.2751  -19.1579 O   0  0  0  0  0  0  0  0  0  0  0  0
   17.8445  -27.7007  -21.5056 O   0  0  0  0  0  0  0  0  0  0  0  0
   18.9249  -27.2415  -20.7285 C   0  0  0  0  0  0  0  0  0  0  0  0
   20.0669  -26.7171  -21.2883 C   0  0  0  0  0  0  0  0  0  0  0  0
   21.1014  -26.2788  -20.4873 C   0  0  0  0  0  0  0  0  0  0  0  0
   21.0404  -26.3464  -19.1119 C   0  0  0  0  0  0  0  0  0  0  0  0
   22.1621  -25.8738  -18.2937 C   0  0  0  0  0  0  0  0  0  0  0  0
   22.3236  -24.3622  -18.2650 C   0  0  2  0  0  0  0  0  0  0  0  0
   23.5146  -24.1569  -17.4410 N   0  0  0  0  0  0  0  0  0  0  0  0
   21.1266  -23.7716  -17.6307 C   0  0  0  0  0  0  0  0  0  0  0  0
   20.0404  -23.4724  -18.4520 O   0  0  0  0  0  0  0  0  0  0  0  0
   19.8888  -26.8760  -18.5551 C   0  0  0  0  0  0  0  0  0  0  0  0
   18.8407  -27.3185  -19.3659 C   0  0  0  0  0  0  0  0  0  0  0  0
   21.0189  -23.5233  -16.4258 O   0  0  0  0  0  0  0  0  0  0  0  0
  2  1  1  0
  2  3  2  0
  4  5  1  0
  4  2  1  0
  6  5  1  0
  6  7  1  1
  8 15  1  0
  8  6  1  0
  9  8  2  0
 10 11  1  0
 11 13  1  0
 12 11  2  0
 14 13  1  6
 14 16  1  0
 14 15  1  0
 16 17  2  0
 19 18  1  0
 19 20  2  0
 21 20  1  0
 22 21  2  0
 23 22  1  0
 24 23  1  1
 24 26  1  0
 25 24  1  0
 25 16  1  0
 26 27  1  0
 28 29  2  0
 28 22  1  0
 29 19  1  0
 30 26  2  0
M  END
$$$$
