WFI.pdb
     RDKit          3D

 34 36  0  0  1  0  0  0  0  0999 V2000
    9.2026  -17.6689   20.6418 N   0  0  0  0  0  0  0  0  0  0  0  0
    8.9943  -16.4768   21.3982 C   0  0  1  0  0  0  0  0  0  0  0  0
    7.5670  -16.0193   21.5098 C   0  0  0  0  0  0  0  0  0  0  0  0
    7.5039  -14.6863   22.1068 C   0  0  0  0  0  0  0  0  0  0  0  0
    7.8807  -13.5352   21.4521 C   0  0  0  0  0  0  0  0  0  0  0  0
    7.6502  -12.5215   22.2920 N   0  0  0  0  0  0  0  0  0  0  0  0
    7.1450  -12.9659   23.4502 C   0  0  0  0  0  0  0  0  0  0  0  0
    6.7550  -12.3142   24.6187 C   0  0  0  0  0  0  0  0  0  0  0  0
    6.2671  -13.0793   25.6767 C   0  0  0  0  0  0  0  0  0  0  0  0
    6.1768  -14.4395   25.5596 C   0  0  0  0  0  0  0  0  0  0  0  0
    6.5527  -15.0954   24.4268 C   0  0  0  0  0  0  0  0  0  0  0  0
    7.0444  -14.3461   23.3534 C   0  0  0  0  0  0  0  0  0  0  0  0
    9.5049  -16.7169   22.7949 C   0  0  0  0  0  0  0  0  0  0  0  0
    9.7426  -17.8921   23.2071 O   0  0  0  0  0  0  0  0  0  0  0  0
    9.7310  -15.6279   23.6750 N   0  0  0  0  0  0  0  0  0  0  0  0
   10.3402  -15.7989   24.9684 C   0  0  1  0  0  0  0  0  0  0  0  0
   10.2764  -14.5932   25.8264 C   0  0  0  0  0  0  0  0  0  0  0  0
   10.5392  -14.7878   27.2559 C   0  0  0  0  0  0  0  0  0  0  0  0
    9.6989  -14.4694   28.2865 C   0  0  0  0  0  0  0  0  0  0  0  0
    9.9803  -14.6426   29.6228 C   0  0  0  0  0  0  0  0  0  0  0  0
   11.2007  -15.1770   29.9933 C   0  0  0  0  0  0  0  0  0  0  0  0
   12.0753  -15.5121   28.9885 C   0  0  0  0  0  0  0  0  0  0  0  0
   11.7810  -15.3344   27.6556 C   0  0  0  0  0  0  0  0  0  0  0  0
    9.7876  -17.0410   25.6192 C   0  0  0  0  0  0  0  0  0  0  0  0
    8.5480  -17.1576   25.7824 O   0  0  0  0  0  0  0  0  0  0  0  0
   10.6169  -21.7095   23.7379 C   0  0  0  0  0  0  0  0  0  0  0  0
   10.1822  -20.4668   24.5123 C   0  0  0  0  0  0  0  0  0  0  0  0
   10.7688  -20.4495   25.8880 C   0  0  2  0  0  0  0  0  0  0  0  0
   10.4704  -21.7814   26.5685 C   0  0  0  0  0  0  0  0  0  0  0  0
   10.4618  -19.2672   26.7464 C   0  0  2  0  0  0  0  0  0  0  0  0
   10.6543  -18.0327   26.0254 N   0  0  0  0  0  0  0  0  0  0  0  0
   11.0336  -19.3762   28.0847 C   0  0  0  0  0  0  0  0  0  0  0  0
   10.0885  -19.7416   29.0899 O   0  0  0  0  0  0  0  0  0  0  0  0
   12.1751  -19.2101   28.5256 O   0  0  0  0  0  0  0  0  0  0  0  0
  2  1  1  6
  3  2  1  0
  4  3  1  0
  5  4  2  0
  6  5  1  0
  7  6  1  0
  7 12  2  0
  8  7  1  0
  9  8  2  0
  9 10  1  0
 10 11  2  0
 11 12  1  0
 12  4  1  0
 13 14  2  0
 13  2  1  0
 15 13  1  0
 16 15  1  0
 17 18  1  0
 16 17  1  1
 18 23  1  0
 19 18  2  0
 19 20  1  0
 20 21  2  0
 21 22  1  0
 23 22  2  0
 24 16  1  0
 25 24  2  0
 26 27  1  0
 27 28  1  0
 28 29  1  1
 28 30  1  0
 30 31  1  6
 30 32  1  0
 31 24  1  0
 32 33  1  0
 34 32  2  0
M  END
$$$$
