WFI.pdb
     RDKit          3D

 34 36  0  0  1  0  0  0  0  0999 V2000
    8.2362  -18.9738   20.6315 N   0  0  0  0  0  0  0  0  0  0  0  0
    8.2550  -17.5529   20.4997 C   0  0  1  0  0  0  0  0  0  0  0  0
    7.2574  -16.9767   19.5345 C   0  0  0  0  0  0  0  0  0  0  0  0
    7.7746  -15.7447   18.9411 C   0  0  0  0  0  0  0  0  0  0  0  0
    8.2554  -15.6577   17.6539 C   0  0  0  0  0  0  0  0  0  0  0  0
    8.6009  -14.3817   17.4574 N   0  0  0  0  0  0  0  0  0  0  0  0
    8.3652  -13.6486   18.5534 C   0  0  0  0  0  0  0  0  0  0  0  0
    8.5598  -12.2994   18.8431 C   0  0  0  0  0  0  0  0  0  0  0  0
    8.2148  -11.8341   20.1108 C   0  0  0  0  0  0  0  0  0  0  0  0
    7.6969  -12.6917   21.0426 C   0  0  0  0  0  0  0  0  0  0  0  0
    7.4991  -14.0132   20.7797 C   0  0  0  0  0  0  0  0  0  0  0  0
    7.8382  -14.5000   19.5134 C   0  0  0  0  0  0  0  0  0  0  0  0
    7.9737  -16.9563   21.8540 C   0  0  0  0  0  0  0  0  0  0  0  0
    6.7981  -16.6124   22.1813 O   0  0  0  0  0  0  0  0  0  0  0  0
    9.0229  -16.7705   22.7899 N   0  0  0  0  0  0  0  0  0  0  0  0
    8.8068  -16.1582   24.0751 C   0  0  1  0  0  0  0  0  0  0  0  0
    7.3800  -15.9248   24.3969 C   0  0  0  0  0  0  0  0  0  0  0  0
    7.0426  -14.6268   24.9898 C   0  0  0  0  0  0  0  0  0  0  0  0
    6.1724  -14.4069   26.0212 C   0  0  0  0  0  0  0  0  0  0  0  0
    5.8567  -13.1735   26.5446 C   0  0  0  0  0  0  0  0  0  0  0  0
    6.4448  -12.0416   26.0106 C   0  0  0  0  0  0  0  0  0  0  0  0
    7.3271  -12.2174   24.9725 C   0  0  0  0  0  0  0  0  0  0  0  0
    7.6346  -13.4570   24.4589 C   0  0  0  0  0  0  0  0  0  0  0  0
    9.5507  -16.9371   25.1296 C   0  0  0  0  0  0  0  0  0  0  0  0
    9.2957  -18.1552   25.2974 O   0  0  0  0  0  0  0  0  0  0  0  0
   10.3358  -12.9287   28.5594 C   0  0  0  0  0  0  0  0  0  0  0  0
   10.8369  -13.9909   27.5829 C   0  0  0  0  0  0  0  0  0  0  0  0
   10.6388  -15.3692   28.1288 C   0  0  2  0  0  0  0  0  0  0  0  0
   11.2959  -15.4551   29.5025 C   0  0  0  0  0  0  0  0  0  0  0  0
   10.9876  -16.5139   27.2360 C   0  0  2  0  0  0  0  0  0  0  0  0
   10.5026  -16.2983   25.8946 N   0  0  0  0  0  0  0  0  0  0  0  0
   10.7371  -17.8112   27.8557 C   0  0  0  0  0  0  0  0  0  0  0  0
    9.4771  -18.3849   27.5086 O   0  0  0  0  0  0  0  0  0  0  0  0
   11.3970  -18.5138   28.6277 O   0  0  0  0  0  0  0  0  0  0  0  0
  2  1  1  1
  3  2  1  0
  4  3  1  0
  5  4  2  0
  6  5  1  0
  7  6  1  0
  7 12  2  0
  8  7  1  0
  9  8  2  0
  9 10  1  0
 10 11  2  0
 11 12  1  0
 12  4  1  0
 13 14  2  0
 13  2  1  0
 15 13  1  0
 16 15  1  0
 17 18  1  0
 16 17  1  1
 18 23  1  0
 19 18  2  0
 19 20  1  0
 20 21  2  0
 21 22  1  0
 23 22  2  0
 24 16  1  0
 25 24  2  0
 26 27  1  0
 27 28  1  0
 28 29  1  1
 28 30  1  0
 30 31  1  6
 30 32  1  0
 31 24  1  0
 32 33  1  0
 34 32  2  0
M  END
$$$$
