WFI.pdb
     RDKit          3D

 34 36  0  0  1  0  0  0  0  0999 V2000
   11.9848  -17.1080   20.0652 N   0  0  0  0  0  0  0  0  0  0  0  0
   10.7203  -16.5574   20.4321 C   0  0  1  0  0  0  0  0  0  0  0  0
    9.5244  -17.1735   19.7621 C   0  0  0  0  0  0  0  0  0  0  0  0
    8.8897  -16.2098   18.8645 C   0  0  0  0  0  0  0  0  0  0  0  0
    8.6025  -16.4680   17.5429 C   0  0  0  0  0  0  0  0  0  0  0  0
    7.9987  -15.3779   17.0600 N   0  0  0  0  0  0  0  0  0  0  0  0
    7.8850  -14.4361   18.0056 C   0  0  0  0  0  0  0  0  0  0  0  0
    7.3479  -13.1502   17.9936 C   0  0  0  0  0  0  0  0  0  0  0  0
    7.3931  -12.3987   19.1666 C   0  0  0  0  0  0  0  0  0  0  0  0
    7.9543  -12.9220   20.2994 C   0  0  0  0  0  0  0  0  0  0  0  0
    8.4846  -14.1760   20.3320 C   0  0  0  0  0  0  0  0  0  0  0  0
    8.4488  -14.9466   19.1657 C   0  0  0  0  0  0  0  0  0  0  0  0
   10.5496  -16.7341   21.9184 C   0  0  0  0  0  0  0  0  0  0  0  0
   11.5436  -16.9977   22.6600 O   0  0  0  0  0  0  0  0  0  0  0  0
    9.2695  -16.6060   22.5153 N   0  0  0  0  0  0  0  0  0  0  0  0
    9.0232  -15.7189   23.6225 C   0  0  1  0  0  0  0  0  0  0  0  0
    7.7617  -14.9513   23.5079 C   0  0  0  0  0  0  0  0  0  0  0  0
    7.4140  -14.0837   24.6377 C   0  0  0  0  0  0  0  0  0  0  0  0
    7.7377  -12.7626   24.7766 C   0  0  0  0  0  0  0  0  0  0  0  0
    7.4170  -11.9761   25.8600 C   0  0  0  0  0  0  0  0  0  0  0  0
    6.7129  -12.5301   26.9132 C   0  0  0  0  0  0  0  0  0  0  0  0
    6.3662  -13.8556   26.8141 C   0  0  0  0  0  0  0  0  0  0  0  0
    6.6926  -14.6309   25.7245 C   0  0  0  0  0  0  0  0  0  0  0  0
    9.1565  -16.4848   24.9138 C   0  0  0  0  0  0  0  0  0  0  0  0
    8.6037  -17.6063   25.0305 O   0  0  0  0  0  0  0  0  0  0  0  0
   10.3313  -13.0173   29.0275 C   0  0  0  0  0  0  0  0  0  0  0  0
   10.5429  -13.9972   27.8751 C   0  0  0  0  0  0  0  0  0  0  0  0
   10.2241  -15.3991   28.2868 C   0  0  2  0  0  0  0  0  0  0  0  0
   11.0270  -15.7409   29.5377 C   0  0  0  0  0  0  0  0  0  0  0  0
   10.2978  -16.4539   27.2327 C   0  0  2  0  0  0  0  0  0  0  0  0
    9.8858  -15.9408   25.9489 N   0  0  0  0  0  0  0  0  0  0  0  0
    9.7439  -17.7310   27.6707 C   0  0  0  0  0  0  0  0  0  0  0  0
   10.6820  -18.5674   28.3471 O   0  0  0  0  0  0  0  0  0  0  0  0
    8.6226  -18.2384   27.5691 O   0  0  0  0  0  0  0  0  0  0  0  0
  2  1  1  6
  3  2  1  0
  4  3  1  0
  5  4  2  0
  6  5  1  0
  7  6  1  0
  7 12  2  0
  8  7  1  0
  9  8  2  0
  9 10  1  0
 10 11  2  0
 11 12  1  0
 12  4  1  0
 13 14  2  0
 13  2  1  0
 15 13  1  0
 16 15  1  0
 17 18  1  0
 16 17  1  6
 18 23  1  0
 19 18  2  0
 19 20  1  0
 20 21  2  0
 21 22  1  0
 23 22  2  0
 24 16  1  0
 25 24  2  0
 26 27  1  0
 27 28  1  0
 28 29  1  1
 28 30  1  0
 30 31  1  6
 30 32  1  0
 31 24  1  0
 32 33  1  0
 34 32  2  0
M  END
$$$$
