WFI.pdb
     RDKit          3D

 34 36  0  0  1  0  0  0  0  0999 V2000
    5.6248  -20.4675   23.0269 N   0  0  0  0  0  0  0  0  0  0  0  0
    6.1997  -20.0446   24.2627 C   0  0  1  0  0  0  0  0  0  0  0  0
    7.3830  -20.8416   24.7353 C   0  0  0  0  0  0  0  0  0  0  0  0
    6.9411  -22.0741   25.3857 C   0  0  0  0  0  0  0  0  0  0  0  0
    7.1401  -23.3311   24.8604 C   0  0  0  0  0  0  0  0  0  0  0  0
    6.6395  -24.2009   25.7429 N   0  0  0  0  0  0  0  0  0  0  0  0
    6.1309  -23.5640   26.8058 C   0  0  0  0  0  0  0  0  0  0  0  0
    5.5040  -24.0187   27.9645 C   0  0  0  0  0  0  0  0  0  0  0  0
    5.0679  -23.0798   28.8979 C   0  0  0  0  0  0  0  0  0  0  0  0
    5.2568  -21.7438   28.6717 C   0  0  0  0  0  0  0  0  0  0  0  0
    5.8668  -21.2789   27.5463 C   0  0  0  0  0  0  0  0  0  0  0  0
    6.3122  -22.2046   26.5975 C   0  0  0  0  0  0  0  0  0  0  0  0
    6.6492  -18.6158   24.1019 C   0  0  0  0  0  0  0  0  0  0  0  0
    7.1913  -18.2222   23.0254 O   0  0  0  0  0  0  0  0  0  0  0  0
    6.4711  -17.6830   25.1552 N   0  0  0  0  0  0  0  0  0  0  0  0
    7.1194  -16.3973   25.1609 C   0  0  1  0  0  0  0  0  0  0  0  0
    6.4290  -15.3802   25.9872 C   0  0  0  0  0  0  0  0  0  0  0  0
    7.0663  -14.0628   26.0783 C   0  0  0  0  0  0  0  0  0  0  0  0
    7.8145  -13.5933   27.1220 C   0  0  0  0  0  0  0  0  0  0  0  0
    8.3838  -12.3419   27.1912 C   0  0  0  0  0  0  0  0  0  0  0  0
    8.2064  -11.4591   26.1417 C   0  0  0  0  0  0  0  0  0  0  0  0
    7.4614  -11.8910   25.0714 C   0  0  0  0  0  0  0  0  0  0  0  0
    6.8981  -13.1458   25.0146 C   0  0  0  0  0  0  0  0  0  0  0  0
    8.5763  -16.5754   25.5035 C   0  0  0  0  0  0  0  0  0  0  0  0
    8.9065  -17.3702   26.4181 O   0  0  0  0  0  0  0  0  0  0  0  0
   11.2128  -16.1157   20.8856 C   0  0  0  0  0  0  0  0  0  0  0  0
   10.5786  -16.3215   22.2598 C   0  0  0  0  0  0  0  0  0  0  0  0
   11.4638  -15.8081   23.3505 C   0  0  2  0  0  0  0  0  0  0  0  0
   12.8664  -16.3744   23.1554 C   0  0  0  0  0  0  0  0  0  0  0  0
   10.9656  -15.9374   24.7520 C   0  0  2  0  0  0  0  0  0  0  0  0
    9.5261  -15.8617   24.8050 N   0  0  0  0  0  0  0  0  0  0  0  0
   11.7300  -15.1336   25.7004 C   0  0  0  0  0  0  0  0  0  0  0  0
   13.0996  -15.5191   25.8140 O   0  0  0  0  0  0  0  0  0  0  0  0
   11.4278  -14.1855   26.4318 O   0  0  0  0  0  0  0  0  0  0  0  0
  2  1  1  6
  3  2  1  0
  4  3  1  0
  5  4  2  0
  6  5  1  0
  7  6  1  0
  7 12  2  0
  8  7  1  0
  9  8  2  0
  9 10  1  0
 10 11  2  0
 11 12  1  0
 12  4  1  0
 13 14  2  0
 13  2  1  0
 15 13  1  0
 16 15  1  0
 17 18  1  0
 16 17  1  1
 18 23  1  0
 19 18  2  0
 19 20  1  0
 20 21  2  0
 21 22  1  0
 23 22  2  0
 24 16  1  0
 25 24  2  0
 26 27  1  0
 27 28  1  0
 28 29  1  1
 28 30  1  0
 30 31  1  6
 30 32  1  0
 31 24  1  0
 32 33  1  0
 34 32  2  0
M  END
$$$$
