WFI.pdb
     RDKit          3D

 34 36  0  0  1  0  0  0  0  0999 V2000
    7.9989  -17.6131   21.6747 N   0  0  0  0  0  0  0  0  0  0  0  0
    9.3659  -17.2707   21.9003 C   0  0  1  0  0  0  0  0  0  0  0  0
    9.9236  -16.1999   21.0053 C   0  0  0  0  0  0  0  0  0  0  0  0
    8.8450  -15.5190   20.2910 C   0  0  0  0  0  0  0  0  0  0  0  0
    8.0783  -16.1138   19.3142 C   0  0  0  0  0  0  0  0  0  0  0  0
    7.1805  -15.2047   18.9226 N   0  0  0  0  0  0  0  0  0  0  0  0
    7.3339  -14.0590   19.5995 C   0  0  0  0  0  0  0  0  0  0  0  0
    6.6623  -12.8390   19.5493 C   0  0  0  0  0  0  0  0  0  0  0  0
    7.0796  -11.8139   20.3965 C   0  0  0  0  0  0  0  0  0  0  0  0
    8.1264  -12.0121   21.2550 C   0  0  0  0  0  0  0  0  0  0  0  0
    8.7958  -13.1964   21.3194 C   0  0  0  0  0  0  0  0  0  0  0  0
    8.3924  -14.2379   20.4780 C   0  0  0  0  0  0  0  0  0  0  0  0
    9.4963  -16.7885   23.3215 C   0  0  0  0  0  0  0  0  0  0  0  0
   10.5586  -16.2235   23.7213 O   0  0  0  0  0  0  0  0  0  0  0  0
    8.4281  -16.9575   24.2390 N   0  0  0  0  0  0  0  0  0  0  0  0
    8.5871  -16.7356   25.6528 C   0  0  1  0  0  0  0  0  0  0  0  0
    7.4296  -16.0661   26.2897 C   0  0  0  0  0  0  0  0  0  0  0  0
    7.3235  -14.6155   26.1033 C   0  0  0  0  0  0  0  0  0  0  0  0
    6.3647  -13.9572   25.3843 C   0  0  0  0  0  0  0  0  0  0  0  0
    6.3015  -12.5936   25.2071 C   0  0  0  0  0  0  0  0  0  0  0  0
    7.2677  -11.7909   25.7853 C   0  0  0  0  0  0  0  0  0  0  0  0
    8.2499  -12.4118   26.5178 C   0  0  0  0  0  0  0  0  0  0  0  0
    8.3011  -13.7768   26.6879 C   0  0  0  0  0  0  0  0  0  0  0  0
    8.9869  -18.0276   26.3181 C   0  0  0  0  0  0  0  0  0  0  0  0
    8.6911  -19.1219   25.7775 O   0  0  0  0  0  0  0  0  0  0  0  0
   13.8194  -20.4661   26.6323 C   0  0  0  0  0  0  0  0  0  0  0  0
   12.7617  -20.1920   27.6996 C   0  0  0  0  0  0  0  0  0  0  0  0
   11.7612  -19.1850   27.2290 C   0  0  2  0  0  0  0  0  0  0  0  0
   12.5005  -17.9331   26.7678 C   0  0  0  0  0  0  0  0  0  0  0  0
   10.6111  -18.8904   28.1342 C   0  0  2  0  0  0  0  0  0  0  0  0
    9.6733  -17.9876   27.5125 N   0  0  0  0  0  0  0  0  0  0  0  0
   11.0273  -18.6101   29.5047 C   0  0  0  0  0  0  0  0  0  0  0  0
   10.7504  -17.2769   29.9325 O   0  0  0  0  0  0  0  0  0  0  0  0
   11.5781  -19.2961   30.3713 O   0  0  0  0  0  0  0  0  0  0  0  0
  2  1  1  6
  3  2  1  0
  4  3  1  0
  5  4  2  0
  6  5  1  0
  7  6  1  0
  7 12  2  0
  8  7  1  0
  9  8  2  0
  9 10  1  0
 10 11  2  0
 11 12  1  0
 12  4  1  0
 13 14  2  0
 13  2  1  0
 15 13  1  0
 16 15  1  0
 17 18  1  0
 16 17  1  1
 18 23  1  0
 19 18  2  0
 19 20  1  0
 20 21  2  0
 21 22  1  0
 23 22  2  0
 24 16  1  0
 25 24  2  0
 26 27  1  0
 27 28  1  0
 28 29  1  1
 28 30  1  0
 30 31  1  6
 30 32  1  0
 31 24  1  0
 32 33  1  0
 34 32  2  0
M  END
$$$$
