WFI.pdb
     RDKit          3D

 34 36  0  0  1  0  0  0  0  0999 V2000
    4.4508  -20.4165   22.7641 N   0  0  0  0  0  0  0  0  0  0  0  0
    5.6130  -20.1477   23.5474 C   0  0  1  0  0  0  0  0  0  0  0  0
    6.8956  -20.7358   23.0300 C   0  0  0  0  0  0  0  0  0  0  0  0
    6.9704  -22.1599   23.3522 C   0  0  0  0  0  0  0  0  0  0  0  0
    6.8440  -23.1640   22.4187 C   0  0  0  0  0  0  0  0  0  0  0  0
    7.0031  -24.3191   23.0718 N   0  0  0  0  0  0  0  0  0  0  0  0
    7.2250  -24.1045   24.3752 C   0  0  0  0  0  0  0  0  0  0  0  0
    7.4398  -24.9677   25.4480 C   0  0  0  0  0  0  0  0  0  0  0  0
    7.6331  -24.4199   26.7150 C   0  0  0  0  0  0  0  0  0  0  0  0
    7.6111  -23.0632   26.8902 C   0  0  0  0  0  0  0  0  0  0  0  0
    7.4028  -22.2027   25.8553 C   0  0  0  0  0  0  0  0  0  0  0  0
    7.2072  -22.7320   24.5759 C   0  0  0  0  0  0  0  0  0  0  0  0
    5.7931  -18.6535   23.6150 C   0  0  0  0  0  0  0  0  0  0  0  0
    5.4795  -17.9160   22.6326 O   0  0  0  0  0  0  0  0  0  0  0  0
    6.3167  -18.0446   24.7839 N   0  0  0  0  0  0  0  0  0  0  0  0
    6.6540  -16.6457   24.8363 C   0  0  1  0  0  0  0  0  0  0  0  0
    6.6650  -16.0814   26.2058 C   0  0  0  0  0  0  0  0  0  0  0  0
    6.9493  -14.6478   26.3249 C   0  0  0  0  0  0  0  0  0  0  0  0
    8.1859  -14.0664   26.3710 C   0  0  0  0  0  0  0  0  0  0  0  0
    8.4246  -12.7174   26.5058 C   0  0  0  0  0  0  0  0  0  0  0  0
    7.3541  -11.8480   26.6073 C   0  0  0  0  0  0  0  0  0  0  0  0
    6.0928  -12.3905   26.5644 C   0  0  0  0  0  0  0  0  0  0  0  0
    5.8681  -13.7418   26.4285 C   0  0  0  0  0  0  0  0  0  0  0  0
    7.9304  -16.4117   24.0695 C   0  0  0  0  0  0  0  0  0  0  0  0
    8.9036  -17.1885   24.2320 O   0  0  0  0  0  0  0  0  0  0  0  0
    7.0367  -11.9277   20.7940 C   0  0  0  0  0  0  0  0  0  0  0  0
    7.2540  -13.3647   21.2637 C   0  0  0  0  0  0  0  0  0  0  0  0
    8.6775  -13.5994   21.6579 C   0  0  2  0  0  0  0  0  0  0  0  0
    9.5823  -13.2147   20.4919 C   0  0  0  0  0  0  0  0  0  0  0  0
    9.0119  -14.9287   22.2498 C   0  0  2  0  0  0  0  0  0  0  0  0
    8.0091  -15.3463   23.1989 N   0  0  0  0  0  0  0  0  0  0  0  0
   10.4137  -15.0372   22.6408 C   0  0  0  0  0  0  0  0  0  0  0  0
   11.3092  -15.2104   21.5429 O   0  0  0  0  0  0  0  0  0  0  0  0
   10.9836  -15.0142   23.7361 O   0  0  0  0  0  0  0  0  0  0  0  0
  2  1  1  6
  3  2  1  0
  4  3  1  0
  5  4  2  0
  6  5  1  0
  7  6  1  0
  7 12  2  0
  8  7  1  0
  9  8  2  0
  9 10  1  0
 10 11  2  0
 11 12  1  0
 12  4  1  0
 13 14  2  0
 13  2  1  0
 15 13  1  0
 16 15  1  0
 17 18  1  0
 16 17  1  1
 18 23  1  0
 19 18  2  0
 19 20  1  0
 20 21  2  0
 21 22  1  0
 23 22  2  0
 24 16  1  0
 25 24  2  0
 26 27  1  0
 27 28  1  0
 28 29  1  6
 28 30  1  0
 30 31  1  1
 30 32  1  0
 31 24  1  0
 32 33  1  0
 34 32  2  0
M  END
$$$$
