NLR.pdb
     RDKit          3D

 28 27  0  0  1  0  0  0  0  0999 V2000
   19.8245  -23.6117   -7.9327 N   0  0  0  0  0  0  0  0  0  0  0  0
   19.8474  -23.2868   -9.3031 C   0  0  0  0  0  0  0  0  0  0  0  0
   19.0041  -23.8023  -10.0892 O   0  0  0  0  0  0  0  0  0  0  0  0
   20.8429  -22.3448   -9.8684 C   0  0  0  0  0  0  0  0  0  0  0  0
   21.7305  -21.7738   -8.7955 C   0  0  2  0  0  0  0  0  0  0  0  0
   20.9688  -20.8723   -7.9766 N   0  0  0  0  0  0  0  0  0  0  0  0
   22.8479  -21.0232   -9.4062 C   0  0  0  0  0  0  0  0  0  0  0  0
   22.6626  -20.0074  -10.1483 O   0  0  0  0  0  0  0  0  0  0  0  0
   26.2887  -18.8848   -7.8529 C   0  0  0  0  0  0  0  0  0  0  0  0
   26.6110  -20.3791   -7.7189 C   0  0  2  0  0  0  0  0  0  0  0  0
   27.8549  -20.5158   -6.9290 C   0  0  0  0  0  0  0  0  0  0  0  0
   26.6056  -20.9454   -9.0893 C   0  0  0  0  0  0  0  0  0  0  0  0
   25.3171  -20.7817   -9.8464 C   0  0  2  0  0  0  0  0  0  0  0  0
   24.2026  -21.3993   -9.1955 N   0  0  0  0  0  0  0  0  0  0  0  0
   25.4743  -21.1479  -11.2717 C   0  0  0  0  0  0  0  0  0  0  0  0
   25.7045  -22.3589  -11.5373 O   0  0  0  0  0  0  0  0  0  0  0  0
   23.6881  -17.0660  -18.9670 N   0  0  0  0  0  0  0  0  0  0  0  0
   24.0988  -18.4004  -19.2992 C   0  0  0  0  0  0  0  0  0  0  0  0
   24.0625  -18.8355  -20.5099 N   0  0  0  0  0  0  0  0  0  0  0  0
   24.5656  -19.2986  -18.2892 N   0  0  0  0  0  0  0  0  0  0  0  0
   24.5595  -18.8703  -16.9059 C   0  0  0  0  0  0  0  0  0  0  0  0
   25.0320  -20.0521  -16.0629 C   0  0  0  0  0  0  0  0  0  0  0  0
   24.9606  -19.6079  -14.6296 C   0  0  0  0  0  0  0  0  0  0  0  0
   25.4890  -20.7086  -13.7367 C   0  0  2  0  0  0  0  0  0  0  0  0
   25.3802  -20.2335  -12.3337 N   0  0  0  0  0  0  0  0  0  0  0  0
   26.9249  -20.9790  -13.9492 C   0  0  0  0  0  0  0  0  0  0  0  0
   27.8510  -20.2695  -13.4246 O   0  0  0  0  0  0  0  0  0  0  0  0
   27.3551  -22.0322  -14.7372 O   0  0  0  0  0  0  0  0  0  0  0  0
  1  2  1  0
  2  4  1  0
  3  2  2  0
  4  5  1  0
  5  6  1  1
  7  5  1  0
  8  7  2  0
 10  9  1  6
 10 12  1  0
 11 10  1  0
 13 12  1  1
 13 14  1  0
 14  7  1  0
 15 25  1  0
 15 13  1  0
 16 15  2  0
 18 17  1  0
 18 19  2  0
 20 18  1  0
 21 20  1  0
 22 21  1  0
 23 22  1  0
 24 23  1  6
 24 25  1  0
 26 28  1  0
 26 24  1  0
 27 26  2  0
M  END
$$$$
