NLR.pdb
     RDKit          3D

 28 27  0  0  1  0  0  0  0  0999 V2000
   29.8770  -18.0149  -17.6896 N   0  0  0  0  0  0  0  0  0  0  0  0
   28.6274  -17.7698  -17.0873 C   0  0  0  0  0  0  0  0  0  0  0  0
   27.9538  -16.7546  -17.4197 O   0  0  0  0  0  0  0  0  0  0  0  0
   28.0623  -18.6754  -16.0586 C   0  0  0  0  0  0  0  0  0  0  0  0
   29.0120  -19.7963  -15.7316 C   0  0  2  0  0  0  0  0  0  0  0  0
   29.0914  -20.6950  -16.8494 N   0  0  0  0  0  0  0  0  0  0  0  0
   28.5240  -20.5497  -14.5571 C   0  0  0  0  0  0  0  0  0  0  0  0
   27.5862  -21.4047  -14.6364 O   0  0  0  0  0  0  0  0  0  0  0  0
   30.8009  -22.8460  -11.3481 C   0  0  0  0  0  0  0  0  0  0  0  0
   30.8831  -21.3252  -11.1595 C   0  0  2  0  0  0  0  0  0  0  0  0
   31.9064  -21.0408  -10.1289 C   0  0  0  0  0  0  0  0  0  0  0  0
   29.5029  -20.8479  -10.9026 C   0  0  0  0  0  0  0  0  0  0  0  0
   28.5608  -20.9502  -12.0697 C   0  0  2  0  0  0  0  0  0  0  0  0
   29.0815  -20.3578  -13.2635 N   0  0  0  0  0  0  0  0  0  0  0  0
   27.1973  -20.5027  -11.7079 C   0  0  0  0  0  0  0  0  0  0  0  0
   27.0120  -19.2633  -11.5674 O   0  0  0  0  0  0  0  0  0  0  0  0
   23.3604  -24.0031  -16.0174 N   0  0  0  0  0  0  0  0  0  0  0  0
   23.2056  -24.3401  -14.6309 C   0  0  0  0  0  0  0  0  0  0  0  0
   23.3408  -25.5493  -14.2117 N   0  0  0  0  0  0  0  0  0  0  0  0
   22.8937  -23.3366  -13.6611 N   0  0  0  0  0  0  0  0  0  0  0  0
   22.6972  -21.9699  -14.0974 C   0  0  0  0  0  0  0  0  0  0  0  0
   23.7151  -21.1063  -13.3568 C   0  0  0  0  0  0  0  0  0  0  0  0
   23.7415  -21.6013  -11.9387 C   0  0  0  0  0  0  0  0  0  0  0  0
   24.7764  -20.8241  -11.1556 C   0  0  2  0  0  0  0  0  0  0  0  0
   26.1095  -21.3703  -11.5167 N   0  0  0  0  0  0  0  0  0  0  0  0
   24.6551  -21.0174   -9.6968 C   0  0  0  0  0  0  0  0  0  0  0  0
   25.4203  -21.7987   -9.0332 O   0  0  0  0  0  0  0  0  0  0  0  0
   23.6946  -20.3524   -8.9550 O   0  0  0  0  0  0  0  0  0  0  0  0
  1  2  1  0
  2  4  1  0
  3  2  2  0
  4  5  1  0
  5  6  1  6
  7  5  1  0
  8  7  2  0
 10  9  1  1
 10 12  1  0
 11 10  1  0
 13 12  1  1
 13 14  1  0
 14  7  1  0
 15 25  1  0
 15 13  1  0
 16 15  2  0
 18 17  1  0
 18 19  2  0
 20 18  1  0
 21 20  1  0
 22 21  1  0
 23 22  1  0
 24 23  1  6
 24 25  1  0
 26 28  1  0
 26 24  1  0
 27 26  2  0
M  END
$$$$
