NLR.pdb
     RDKit          3D

 28 27  0  0  1  0  0  0  0  0999 V2000
   29.2595  -20.7486  -17.1597 N   0  0  0  0  0  0  0  0  0  0  0  0
   29.2327  -22.0161  -16.5457 C   0  0  0  0  0  0  0  0  0  0  0  0
   30.1115  -22.8763  -16.8329 O   0  0  0  0  0  0  0  0  0  0  0  0
   28.1921  -22.3855  -15.5564 C   0  0  0  0  0  0  0  0  0  0  0  0
   27.2519  -21.2400  -15.2939 C   0  0  2  0  0  0  0  0  0  0  0  0
   27.9846  -20.1424  -14.7266 N   0  0  0  0  0  0  0  0  0  0  0  0
   26.2049  -21.6513  -14.3349 C   0  0  0  0  0  0  0  0  0  0  0  0
   25.5200  -22.7120  -14.4858 O   0  0  0  0  0  0  0  0  0  0  0  0
   25.7293  -21.9910   -9.7358 C   0  0  0  0  0  0  0  0  0  0  0  0
   25.8995  -20.5437  -10.2168 C   0  0  2  0  0  0  0  0  0  0  0  0
   26.0757  -19.6784   -9.0292 C   0  0  0  0  0  0  0  0  0  0  0  0
   24.7551  -20.2502  -11.1128 C   0  0  0  0  0  0  0  0  0  0  0  0
   24.7220  -21.0400  -12.3915 C   0  0  2  0  0  0  0  0  0  0  0  0
   25.9038  -20.8766  -13.1815 N   0  0  0  0  0  0  0  0  0  0  0  0
   23.4571  -20.8261  -13.1295 C   0  0  0  0  0  0  0  0  0  0  0  0
   23.3057  -19.7177  -13.7115 O   0  0  0  0  0  0  0  0  0  0  0  0
   20.2481  -26.1987  -15.7183 N   0  0  0  0  0  0  0  0  0  0  0  0
   18.9122  -25.7395  -15.9716 C   0  0  0  0  0  0  0  0  0  0  0  0
   17.8893  -26.4911  -15.7598 N   0  0  0  0  0  0  0  0  0  0  0  0
   18.6704  -24.4218  -16.4716 N   0  0  0  0  0  0  0  0  0  0  0  0
   19.7956  -23.5941  -16.8535 C   0  0  0  0  0  0  0  0  0  0  0  0
   19.8568  -22.4291  -15.8689 C   0  0  0  0  0  0  0  0  0  0  0  0
   21.1024  -22.6268  -15.0526 C   0  0  0  0  0  0  0  0  0  0  0  0
   21.2287  -21.5011  -14.0502 C   0  0  2  0  0  0  0  0  0  0  0  0
   22.4284  -21.7781  -13.2197 N   0  0  0  0  0  0  0  0  0  0  0  0
   20.0983  -21.4490  -13.1017 C   0  0  0  0  0  0  0  0  0  0  0  0
   20.1628  -21.9260  -11.9165 O   0  0  0  0  0  0  0  0  0  0  0  0
   18.8893  -20.8704  -13.4462 O   0  0  0  0  0  0  0  0  0  0  0  0
  1  2  1  0
  2  4  1  0
  3  2  2  0
  4  5  1  0
  5  6  1  1
  7  5  1  0
  8  7  2  0
 10  9  1  1
 10 12  1  0
 11 10  1  0
 13 12  1  1
 13 14  1  0
 14  7  1  0
 15 25  1  0
 15 13  1  0
 16 15  2  0
 18 17  1  0
 18 19  2  0
 20 18  1  0
 21 20  1  0
 22 21  1  0
 23 22  1  0
 24 23  1  6
 24 25  1  0
 26 28  1  0
 26 24  1  0
 27 26  2  0
M  END
$$$$
