NLR.pdb
     RDKit          3D

 28 27  0  0  1  0  0  0  0  0999 V2000
   19.6532  -20.4933  -14.6722 N   0  0  0  0  0  0  0  0  0  0  0  0
   20.3766  -19.2884  -14.7685 C   0  0  0  0  0  0  0  0  0  0  0  0
   19.8946  -18.3110  -15.4067 O   0  0  0  0  0  0  0  0  0  0  0  0
   21.7074  -19.1210  -14.1371 C   0  0  0  0  0  0  0  0  0  0  0  0
   22.6260  -20.2628  -14.4798 C   0  0  2  0  0  0  0  0  0  0  0  0
   22.1285  -21.4705  -13.8820 N   0  0  0  0  0  0  0  0  0  0  0  0
   23.9815  -20.0011  -13.9513 C   0  0  0  0  0  0  0  0  0  0  0  0
   24.6586  -18.9781  -14.2861 O   0  0  0  0  0  0  0  0  0  0  0  0
   24.9728  -19.2651  -10.1280 C   0  0  0  0  0  0  0  0  0  0  0  0
   25.0000  -20.7958  -10.2339 C   0  0  2  0  0  0  0  0  0  0  0  0
   25.0192  -21.3549   -8.8638 C   0  0  0  0  0  0  0  0  0  0  0  0
   26.1277  -21.1455  -11.1310 C   0  0  0  0  0  0  0  0  0  0  0  0
   25.9535  -20.7414  -12.5685 C   0  0  2  0  0  0  0  0  0  0  0  0
   24.6074  -20.8864  -13.0319 N   0  0  0  0  0  0  0  0  0  0  0  0
   26.9720  -21.3725  -13.4373 C   0  0  0  0  0  0  0  0  0  0  0  0
   27.2972  -22.5631  -13.1790 O   0  0  0  0  0  0  0  0  0  0  0  0
   23.3850  -24.3353  -19.4078 N   0  0  0  0  0  0  0  0  0  0  0  0
   23.8504  -22.9778  -19.4190 C   0  0  0  0  0  0  0  0  0  0  0  0
   23.2358  -22.0597  -20.0790 N   0  0  0  0  0  0  0  0  0  0  0  0
   25.0212  -22.5961  -18.6921 N   0  0  0  0  0  0  0  0  0  0  0  0
   25.7563  -23.6047  -17.9577 C   0  0  0  0  0  0  0  0  0  0  0  0
   27.0590  -22.9634  -17.4862 C   0  0  0  0  0  0  0  0  0  0  0  0
   26.7320  -22.2118  -16.2273 C   0  0  0  0  0  0  0  0  0  0  0  0
   27.9732  -21.5056  -15.7284 C   0  0  2  0  0  0  0  0  0  0  0  0
   27.5880  -20.7283  -14.5228 N   0  0  0  0  0  0  0  0  0  0  0  0
   28.4908  -20.5101  -16.6882 C   0  0  0  0  0  0  0  0  0  0  0  0
   27.9274  -19.3793  -16.8886 O   0  0  0  0  0  0  0  0  0  0  0  0
   29.6326  -20.7474  -17.4334 O   0  0  0  0  0  0  0  0  0  0  0  0
  1  2  1  0
  2  4  1  0
  3  2  2  0
  4  5  1  0
  5  6  1  1
  7  5  1  0
  8  7  2  0
 10  9  1  1
 10 12  1  0
 11 10  1  0
 13 12  1  1
 13 14  1  0
 14  7  1  0
 15 25  1  0
 15 13  1  0
 16 15  2  0
 18 17  1  0
 18 19  2  0
 20 18  1  0
 21 20  1  0
 22 21  1  0
 23 22  1  0
 24 23  1  6
 24 25  1  0
 26 28  1  0
 26 24  1  0
 27 26  2  0
M  END
$$$$
