NLR.pdb
     RDKit          3D

 28 27  0  0  1  0  0  0  0  0999 V2000
   21.7143  -21.0919   -7.7355 N   0  0  0  0  0  0  0  0  0  0  0  0
   23.0020  -21.5259   -8.1070 C   0  0  0  0  0  0  0  0  0  0  0  0
   23.6549  -22.2925   -7.3450 O   0  0  0  0  0  0  0  0  0  0  0  0
   23.6316  -21.1089   -9.3827 C   0  0  0  0  0  0  0  0  0  0  0  0
   25.1099  -20.8801   -9.2172 C   0  0  2  0  0  0  0  0  0  0  0  0
   25.3289  -19.9128   -8.1781 N   0  0  0  0  0  0  0  0  0  0  0  0
   25.6874  -20.3583  -10.4738 C   0  0  0  0  0  0  0  0  0  0  0  0
   25.4308  -19.1917  -10.9100 O   0  0  0  0  0  0  0  0  0  0  0  0
   29.7374  -19.3693  -11.8321 C   0  0  0  0  0  0  0  0  0  0  0  0
   29.5143  -20.8846  -11.7357 C   0  0  2  0  0  0  0  0  0  0  0  0
   30.8324  -21.5529  -11.8149 C   0  0  0  0  0  0  0  0  0  0  0  0
   28.5058  -21.2377  -12.7638 C   0  0  0  0  0  0  0  0  0  0  0  0
   27.1225  -20.7038  -12.5160 C   0  0  2  0  0  0  0  0  0  0  0  0
   26.5690  -21.1390  -11.2703 N   0  0  0  0  0  0  0  0  0  0  0  0
   26.2409  -20.9157  -13.6857 C   0  0  0  0  0  0  0  0  0  0  0  0
   25.9782  -22.1069  -14.0056 O   0  0  0  0  0  0  0  0  0  0  0  0
   18.2520  -19.5468  -16.3704 N   0  0  0  0  0  0  0  0  0  0  0  0
   18.8531  -20.5320  -15.5172 C   0  0  0  0  0  0  0  0  0  0  0  0
   18.1627  -21.4860  -14.9982 N   0  0  0  0  0  0  0  0  0  0  0  0
   20.2495  -20.4870  -15.2126 N   0  0  0  0  0  0  0  0  0  0  0  0
   21.0310  -19.3488  -15.6493 C   0  0  0  0  0  0  0  0  0  0  0  0
   22.3597  -19.8856  -16.1754 C   0  0  0  0  0  0  0  0  0  0  0  0
   23.3472  -19.7537  -15.0510 C   0  0  0  0  0  0  0  0  0  0  0  0
   24.7149  -20.1857  -15.5316 C   0  0  2  0  0  0  0  0  0  0  0  0
   25.6842  -19.8768  -14.4495 N   0  0  0  0  0  0  0  0  0  0  0  0
   25.1786  -19.4183  -16.7047 C   0  0  0  0  0  0  0  0  0  0  0  0
   24.6516  -19.5351  -17.8644 O   0  0  0  0  0  0  0  0  0  0  0  0
   26.2227  -18.5146  -16.6130 O   0  0  0  0  0  0  0  0  0  0  0  0
  1  2  1  0
  2  4  1  0
  3  2  2  0
  4  5  1  0
  5  6  1  1
  7  5  1  0
  8  7  2  0
 10  9  1  6
 10 12  1  0
 11 10  1  0
 13 12  1  6
 13 14  1  0
 14  7  1  0
 15 25  1  0
 15 13  1  0
 16 15  2  0
 18 17  1  0
 18 19  2  0
 20 18  1  0
 21 20  1  0
 22 21  1  0
 23 22  1  0
 24 23  1  1
 24 25  1  0
 26 28  1  0
 26 24  1  0
 27 26  2  0
M  END
$$$$
