NLR.pdb
     RDKit          3D

 28 27  0  0  1  0  0  0  0  0999 V2000
   23.3060  -19.6800  -18.5790 N   0  0  0  0  0  0  0  0  0  0  0  0
   23.3480  -18.9884  -17.3525 C   0  0  0  0  0  0  0  0  0  0  0  0
   23.9936  -17.9071  -17.2583 O   0  0  0  0  0  0  0  0  0  0  0  0
   22.6498  -19.4913  -16.1452 C   0  0  0  0  0  0  0  0  0  0  0  0
   22.1459  -20.8951  -16.3463 C   0  0  2  0  0  0  0  0  0  0  0  0
   21.0456  -20.8787  -17.2695 N   0  0  0  0  0  0  0  0  0  0  0  0
   21.6733  -21.4544  -15.0623 C   0  0  0  0  0  0  0  0  0  0  0  0
   22.2029  -22.4799  -14.5285 O   0  0  0  0  0  0  0  0  0  0  0  0
   21.8493  -19.5021  -11.2903 C   0  0  0  0  0  0  0  0  0  0  0  0
   20.6224  -18.9295  -12.0126 C   0  0  2  0  0  0  0  0  0  0  0  0
   20.1298  -17.7677  -11.2395 C   0  0  0  0  0  0  0  0  0  0  0  0
   19.6831  -20.0569  -12.2257 C   0  0  0  0  0  0  0  0  0  0  0  0
   20.2383  -21.2165  -13.0048 C   0  0  2  0  0  0  0  0  0  0  0  0
   20.5915  -20.8713  -14.3477 N   0  0  0  0  0  0  0  0  0  0  0  0
   19.3758  -22.4133  -12.8863 C   0  0  0  0  0  0  0  0  0  0  0  0
   18.4157  -22.5187  -13.6970 O   0  0  0  0  0  0  0  0  0  0  0  0
   21.8634  -28.5624  -10.6993 N   0  0  0  0  0  0  0  0  0  0  0  0
   20.8030  -29.2958  -11.3296 C   0  0  0  0  0  0  0  0  0  0  0  0
   21.0432  -30.2703  -12.1351 N   0  0  0  0  0  0  0  0  0  0  0  0
   19.4336  -28.9666  -11.0823 N   0  0  0  0  0  0  0  0  0  0  0  0
   19.1202  -27.9059  -10.1476 C   0  0  0  0  0  0  0  0  0  0  0  0
   18.3596  -26.8307  -10.9197 C   0  0  0  0  0  0  0  0  0  0  0  0
   19.2881  -25.6559  -11.0400 C   0  0  0  0  0  0  0  0  0  0  0  0
   18.6335  -24.5837  -11.8826 C   0  0  2  0  0  0  0  0  0  0  0  0
   19.5653  -23.4284  -11.9342 N   0  0  0  0  0  0  0  0  0  0  0  0
   17.3918  -24.0598  -11.2796 C   0  0  0  0  0  0  0  0  0  0  0  0
   16.2262  -24.4163  -11.6677 O   0  0  0  0  0  0  0  0  0  0  0  0
   17.4202  -23.1424  -10.2438 O   0  0  0  0  0  0  0  0  0  0  0  0
  1  2  1  0
  2  4  1  0
  3  2  2  0
  4  5  1  0
  5  6  1  6
  7  5  1  0
  8  7  2  0
 10  9  1  1
 10 12  1  0
 11 10  1  0
 13 12  1  6
 13 14  1  0
 14  7  1  0
 15 25  1  0
 15 13  1  0
 16 15  2  0
 18 17  1  0
 18 19  2  0
 20 18  1  0
 21 20  1  0
 22 21  1  0
 23 22  1  0
 24 23  1  1
 24 25  1  0
 26 28  1  0
 26 24  1  0
 27 26  2  0
M  END
$$$$
