NLR.pdb
     RDKit          3D

 28 27  0  0  1  0  0  0  0  0999 V2000
   28.6645  -20.2025  -17.1740 N   0  0  0  0  0  0  0  0  0  0  0  0
   28.8263  -21.4149  -16.4753 C   0  0  0  0  0  0  0  0  0  0  0  0
   29.8134  -22.1618  -16.7256 O   0  0  0  0  0  0  0  0  0  0  0  0
   27.8635  -21.8557  -15.4377 C   0  0  0  0  0  0  0  0  0  0  0  0
   26.7535  -20.8555  -15.2574 C   0  0  2  0  0  0  0  0  0  0  0  0
   27.2907  -19.6408  -14.7102 N   0  0  0  0  0  0  0  0  0  0  0  0
   25.7398  -21.3844  -14.3206 C   0  0  0  0  0  0  0  0  0  0  0  0
   25.1469  -22.4931  -14.5114 O   0  0  0  0  0  0  0  0  0  0  0  0
   26.3296  -21.9223  -10.0524 C   0  0  0  0  0  0  0  0  0  0  0  0
   25.9140  -20.4685  -10.3150 C   0  0  2  0  0  0  0  0  0  0  0  0
   26.1453  -19.6898   -9.0780 C   0  0  0  0  0  0  0  0  0  0  0  0
   24.5319  -20.5059  -10.8510 C   0  0  0  0  0  0  0  0  0  0  0  0
   24.3871  -21.1330  -12.2096 C   0  0  2  0  0  0  0  0  0  0  0  0
   25.3691  -20.6764  -13.1448 N   0  0  0  0  0  0  0  0  0  0  0  0
   22.9923  -21.0544  -12.6983 C   0  0  0  0  0  0  0  0  0  0  0  0
   22.6631  -20.0259  -13.3494 O   0  0  0  0  0  0  0  0  0  0  0  0
   16.5158  -26.9516  -14.0886 N   0  0  0  0  0  0  0  0  0  0  0  0
   15.9959  -25.6754  -14.4896 C   0  0  0  0  0  0  0  0  0  0  0  0
   14.8529  -25.5654  -15.0708 N   0  0  0  0  0  0  0  0  0  0  0  0
   16.7352  -24.4740  -14.2554 N   0  0  0  0  0  0  0  0  0  0  0  0
   18.0779  -24.5643  -13.7206 C   0  0  0  0  0  0  0  0  0  0  0  0
   18.6365  -23.1450  -13.6548 C   0  0  0  0  0  0  0  0  0  0  0  0
   20.0382  -23.2634  -13.1276 C   0  0  0  0  0  0  0  0  0  0  0  0
   20.6529  -21.8852  -13.0240 C   0  0  2  0  0  0  0  0  0  0  0  0
   22.0260  -22.0505  -12.4824 N   0  0  0  0  0  0  0  0  0  0  0  0
   19.9519  -21.0164  -12.0576 C   0  0  0  0  0  0  0  0  0  0  0  0
   20.2828  -20.9399  -10.8243 O   0  0  0  0  0  0  0  0  0  0  0  0
   18.8840  -20.2228  -12.4383 O   0  0  0  0  0  0  0  0  0  0  0  0
  1  2  1  0
  2  4  1  0
  3  2  2  0
  4  5  1  0
  5  6  1  1
  7  5  1  0
  8  7  2  0
 10  9  1  1
 10 12  1  0
 11 10  1  0
 13 12  1  1
 13 14  1  0
 14  7  1  0
 15 25  1  0
 15 13  1  0
 16 15  2  0
 18 17  1  0
 18 19  2  0
 20 18  1  0
 21 20  1  0
 22 21  1  0
 23 22  1  0
 24 23  1  1
 24 25  1  0
 26 28  1  0
 26 24  1  0
 27 26  2  0
M  END
$$$$
