NLR.pdb
     RDKit          3D

 28 27  0  0  1  0  0  0  0  0999 V2000
   29.0355  -20.0439  -17.5066 N   0  0  0  0  0  0  0  0  0  0  0  0
   29.1602  -21.2732  -16.8303 C   0  0  0  0  0  0  0  0  0  0  0  0
   30.1473  -22.0256  -17.0632 O   0  0  0  0  0  0  0  0  0  0  0  0
   28.1575  -21.7258  -15.8365 C   0  0  0  0  0  0  0  0  0  0  0  0
   27.0620  -20.7093  -15.6588 C   0  0  2  0  0  0  0  0  0  0  0  0
   27.6137  -19.5069  -15.0994 N   0  0  0  0  0  0  0  0  0  0  0  0
   26.0322  -21.2281  -14.7339 C   0  0  0  0  0  0  0  0  0  0  0  0
   25.5009  -22.3744  -14.8778 O   0  0  0  0  0  0  0  0  0  0  0  0
   25.9591  -22.0495  -10.3891 C   0  0  0  0  0  0  0  0  0  0  0  0
   25.9061  -20.5391  -10.6554 C   0  0  2  0  0  0  0  0  0  0  0  0
   26.1276  -19.8344   -9.3731 C   0  0  0  0  0  0  0  0  0  0  0  0
   24.6354  -20.2723  -11.3716 C   0  0  0  0  0  0  0  0  0  0  0  0
   24.5295  -20.8844  -12.7406 C   0  0  2  0  0  0  0  0  0  0  0  0
   25.5757  -20.4672  -13.6232 N   0  0  0  0  0  0  0  0  0  0  0  0
   23.1653  -20.7402  -13.2960 C   0  0  0  0  0  0  0  0  0  0  0  0
   22.8626  -19.6288  -13.8091 O   0  0  0  0  0  0  0  0  0  0  0  0
   17.5060  -26.6346  -15.8206 N   0  0  0  0  0  0  0  0  0  0  0  0
   18.1921  -25.6859  -16.6505 C   0  0  0  0  0  0  0  0  0  0  0  0
   18.4905  -25.9517  -17.8739 N   0  0  0  0  0  0  0  0  0  0  0  0
   18.5705  -24.4037  -16.1429 N   0  0  0  0  0  0  0  0  0  0  0  0
   18.2162  -24.0497  -14.7842 C   0  0  0  0  0  0  0  0  0  0  0  0
   18.7802  -22.6565  -14.5164 C   0  0  0  0  0  0  0  0  0  0  0  0
   20.2309  -22.8433  -14.1741 C   0  0  0  0  0  0  0  0  0  0  0  0
   20.8400  -21.5036  -13.8246 C   0  0  2  0  0  0  0  0  0  0  0  0
   22.2003  -21.7606  -13.2864 N   0  0  0  0  0  0  0  0  0  0  0  0
   20.1145  -20.8093  -12.7422 C   0  0  0  0  0  0  0  0  0  0  0  0
   20.3441  -21.0242  -11.5022 O   0  0  0  0  0  0  0  0  0  0  0  0
   19.1332  -19.8717  -13.0127 O   0  0  0  0  0  0  0  0  0  0  0  0
  1  2  1  0
  2  4  1  0
  3  2  2  0
  4  5  1  0
  5  6  1  1
  7  5  1  0
  8  7  2  0
 10  9  1  1
 10 12  1  0
 11 10  1  0
 13 12  1  1
 13 14  1  0
 14  7  1  0
 15 25  1  0
 15 13  1  0
 16 15  2  0
 18 17  1  0
 18 19  2  0
 20 18  1  0
 21 20  1  0
 22 21  1  0
 23 22  1  0
 24 23  1  1
 24 25  1  0
 26 28  1  0
 26 24  1  0
 27 26  2  0
M  END
$$$$
