QQV.pdb
     RDKit          3D

 26 25  0  0  1  0  0  0  0  0999 V2000
   10.3064  -13.5709   19.7454 N   0  0  0  0  0  0  0  0  0  0  0  0
    9.5906  -13.5213   18.5004 C   0  0  0  0  0  0  0  0  0  0  0  0
   10.2798  -13.4677   17.4595 O   0  0  0  0  0  0  0  0  0  0  0  0
    8.1163  -13.5364   18.5561 C   0  0  0  0  0  0  0  0  0  0  0  0
    7.5748  -13.6974   19.9389 C   0  0  0  0  0  0  0  0  0  0  0  0
    7.7267  -15.1246   20.3760 C   0  0  2  0  0  0  0  0  0  0  0  0
    6.9527  -15.9390   19.4406 N   0  0  0  0  0  0  0  0  0  0  0  0
    7.1241  -15.3255   21.7376 C   0  0  0  0  0  0  0  0  0  0  0  0
    6.0240  -14.8291   22.0188 O   0  0  0  0  0  0  0  0  0  0  0  0
    7.8785  -20.0754   25.4350 N   0  0  0  0  0  0  0  0  0  0  0  0
    6.8614  -19.9737   24.4741 C   0  0  0  0  0  0  0  0  0  0  0  0
    6.2033  -20.9516   24.1178 O   0  0  0  0  0  0  0  0  0  0  0  0
    6.5697  -18.6392   23.8650 C   0  0  0  0  0  0  0  0  0  0  0  0
    7.4307  -17.5855   24.4981 C   0  0  0  0  0  0  0  0  0  0  0  0
    7.1759  -16.1905   24.0643 C   0  0  2  0  0  0  0  0  0  0  0  0
    7.7977  -16.0814   22.7234 N   0  0  0  0  0  0  0  0  0  0  0  0
    7.9189  -15.1996   24.9040 C   0  0  0  0  0  0  0  0  0  0  0  0
    9.1452  -14.9750   24.7078 O   0  0  0  0  0  0  0  0  0  0  0  0
    5.8722  -12.8760   27.7822 C   0  0  0  0  0  0  0  0  0  0  0  0
    7.1567  -12.3844   27.1512 C   0  0  2  0  0  0  0  0  0  0  0  0
    6.8396  -11.6232   25.8616 C   0  0  0  0  0  0  0  0  0  0  0  0
    8.0523  -13.5818   26.8018 C   0  0  2  0  0  0  0  0  0  0  0  0
    7.2774  -14.4786   25.9363 N   0  0  0  0  0  0  0  0  0  0  0  0
    8.4885  -14.2425   28.0478 C   0  0  0  0  0  0  0  0  0  0  0  0
    9.2818  -13.6454   28.8060 O   0  0  0  0  0  0  0  0  0  0  0  0
    8.0348  -15.4948   28.3776 O   0  0  0  0  0  0  0  0  0  0  0  0
  1  2  1  0
  2  4  1  0
  2  3  2  0
  4  5  1  0
  5  6  1  0
  6  7  1  6
  6  8  1  0
  8  9  2  0
 11 12  2  0
 11 10  1  0
 13 11  1  0
 15 14  1  1
 14 13  1  0
 15 17  1  0
 16  8  1  0
 16 15  1  0
 17 18  2  0
 20 19  1  6
 20 22  1  0
 21 20  1  0
 22 24  1  0
 22 23  1  6
 23 17  1  0
 24 26  1  0
 25 24  2  0
M  END
$$$$
