QQV.pdb
     RDKit          3D

 26 25  0  0  1  0  0  0  0  0999 V2000
    8.0467  -13.6790   16.3225 N   0  0  0  0  0  0  0  0  0  0  0  0
    8.7771  -13.6911   17.5600 C   0  0  0  0  0  0  0  0  0  0  0  0
    9.9043  -14.2299   17.5400 O   0  0  0  0  0  0  0  0  0  0  0  0
    8.1397  -13.0734   18.7384 C   0  0  0  0  0  0  0  0  0  0  0  0
    7.1490  -13.9640   19.4142 C   0  0  0  0  0  0  0  0  0  0  0  0
    7.8218  -15.2370   19.8357 C   0  0  2  0  0  0  0  0  0  0  0  0
    7.3484  -16.2855   18.9337 N   0  0  0  0  0  0  0  0  0  0  0  0
    7.3947  -15.6242   21.2233 C   0  0  0  0  0  0  0  0  0  0  0  0
    6.1928  -15.6789   21.5199 O   0  0  0  0  0  0  0  0  0  0  0  0
    7.1960  -19.8893   24.1700 N   0  0  0  0  0  0  0  0  0  0  0  0
    7.6618  -19.3127   25.3612 C   0  0  0  0  0  0  0  0  0  0  0  0
    7.4080  -19.8011   26.4626 O   0  0  0  0  0  0  0  0  0  0  0  0
    8.4889  -18.0686   25.2899 C   0  0  0  0  0  0  0  0  0  0  0  0
    8.5822  -17.5936   23.8692 C   0  0  0  0  0  0  0  0  0  0  0  0
    7.8622  -16.3357   23.5556 C   0  0  2  0  0  0  0  0  0  0  0  0
    8.3518  -15.9318   22.2163 N   0  0  0  0  0  0  0  0  0  0  0  0
    8.2737  -15.2160   24.4589 C   0  0  0  0  0  0  0  0  0  0  0  0
    9.3923  -14.6486   24.3185 O   0  0  0  0  0  0  0  0  0  0  0  0
    6.1533  -12.1378   25.6259 C   0  0  0  0  0  0  0  0  0  0  0  0
    6.6894  -12.8736   26.8346 C   0  0  2  0  0  0  0  0  0  0  0  0
    7.1394  -11.8652   27.8947 C   0  0  0  0  0  0  0  0  0  0  0  0
    7.9009  -13.7241   26.4266 C   0  0  2  0  0  0  0  0  0  0  0  0
    7.4279  -14.7512   25.4911 N   0  0  0  0  0  0  0  0  0  0  0  0
    8.5154  -14.3065   27.6359 C   0  0  0  0  0  0  0  0  0  0  0  0
    8.2592  -15.4917   27.9365 O   0  0  0  0  0  0  0  0  0  0  0  0
    9.3576  -13.5646   28.4256 O   0  0  0  0  0  0  0  0  0  0  0  0
  1  2  1  0
  2  4  1  0
  2  3  2  0
  4  5  1  0
  5  6  1  0
  6  7  1  6
  6  8  1  0
  8  9  2  0
 11 12  2  0
 11 10  1  0
 13 11  1  0
 15 14  1  1
 14 13  1  0
 15 17  1  0
 16  8  1  0
 16 15  1  0
 17 18  2  0
 20 19  1  6
 20 22  1  0
 21 20  1  0
 22 24  1  0
 22 23  1  6
 23 17  1  0
 24 26  1  0
 25 24  2  0
M  END
$$$$
