QQV.pdb
     RDKit          3D

 26 25  0  0  1  0  0  0  0  0999 V2000
    7.1966  -15.5248   16.6938 N   0  0  0  0  0  0  0  0  0  0  0  0
    8.2197  -14.5183   16.7664 C   0  0  0  0  0  0  0  0  0  0  0  0
    9.2064  -14.6671   16.0144 O   0  0  0  0  0  0  0  0  0  0  0  0
    8.0209  -13.4057   17.7147 C   0  0  0  0  0  0  0  0  0  0  0  0
    7.3847  -13.8255   18.9994 C   0  0  0  0  0  0  0  0  0  0  0  0
    8.4353  -13.9560   20.0624 C   0  0  2  0  0  0  0  0  0  0  0  0
    9.2704  -15.0984   19.6950 N   0  0  0  0  0  0  0  0  0  0  0  0
    7.8062  -14.2791   21.3881 C   0  0  0  0  0  0  0  0  0  0  0  0
    7.0107  -13.4894   21.9167 O   0  0  0  0  0  0  0  0  0  0  0  0
    8.0572  -19.8618   23.9200 N   0  0  0  0  0  0  0  0  0  0  0  0
    7.3600  -19.2298   24.9605 C   0  0  0  0  0  0  0  0  0  0  0  0
    6.9706  -19.8480   25.9517 O   0  0  0  0  0  0  0  0  0  0  0  0
    7.0812  -17.7637   24.8615 C   0  0  0  0  0  0  0  0  0  0  0  0
    7.6000  -17.2284   23.5588 C   0  0  0  0  0  0  0  0  0  0  0  0
    7.3939  -15.7788   23.3233 C   0  0  2  0  0  0  0  0  0  0  0  0
    8.1086  -15.4857   22.0585 N   0  0  0  0  0  0  0  0  0  0  0  0
    8.0893  -14.9413   24.3499 C   0  0  0  0  0  0  0  0  0  0  0  0
    9.3402  -15.0102   24.5026 O   0  0  0  0  0  0  0  0  0  0  0  0
    5.8538  -12.2936   26.7525 C   0  0  0  0  0  0  0  0  0  0  0  0
    7.3238  -12.0236   26.5155 C   0  0  2  0  0  0  0  0  0  0  0  0
    7.4930  -11.1415   25.2761 C   0  0  0  0  0  0  0  0  0  0  0  0
    8.0603  -13.3491   26.2736 C   0  0  2  0  0  0  0  0  0  0  0  0
    7.3766  -14.0434   25.1762 N   0  0  0  0  0  0  0  0  0  0  0  0
    8.0638  -14.1380   27.5213 C   0  0  0  0  0  0  0  0  0  0  0  0
    7.2972  -15.1193   27.6214 O   0  0  0  0  0  0  0  0  0  0  0  0
    8.8938  -13.8063   28.5626 O   0  0  0  0  0  0  0  0  0  0  0  0
  1  2  1  0
  2  4  1  0
  2  3  2  0
  4  5  1  0
  5  6  1  0
  6  7  1  6
  6  8  1  0
  8  9  2  0
 11 12  2  0
 11 10  1  0
 13 11  1  0
 15 14  1  1
 14 13  1  0
 15 17  1  0
 16  8  1  0
 16 15  1  0
 17 18  2  0
 20 19  1  6
 20 22  1  0
 21 20  1  0
 22 24  1  0
 22 23  1  6
 23 17  1  0
 24 26  1  0
 25 24  2  0
M  END
$$$$
