QQV.pdb
     RDKit          3D

 26 25  0  0  1  0  0  0  0  0999 V2000
   14.8674  -14.6128   20.2201 N   0  0  0  0  0  0  0  0  0  0  0  0
   13.7979  -14.6952   19.2639 C   0  0  0  0  0  0  0  0  0  0  0  0
   13.7922  -13.8384   18.3544 O   0  0  0  0  0  0  0  0  0  0  0  0
   12.8058  -15.7735   19.4361 C   0  0  0  0  0  0  0  0  0  0  0  0
   11.8394  -15.5210   20.5467 C   0  0  0  0  0  0  0  0  0  0  0  0
   10.8667  -16.6597   20.6362 C   0  0  2  0  0  0  0  0  0  0  0  0
   10.0520  -16.6178   19.4230 N   0  0  0  0  0  0  0  0  0  0  0  0
    9.9348  -16.4664   21.7989 C   0  0  0  0  0  0  0  0  0  0  0  0
    8.8062  -15.9842   21.6279 O   0  0  0  0  0  0  0  0  0  0  0  0
    7.8200  -20.6364   24.4786 N   0  0  0  0  0  0  0  0  0  0  0  0
    7.3437  -19.7577   25.4630 C   0  0  0  0  0  0  0  0  0  0  0  0
    6.5263  -20.1139   26.3122 O   0  0  0  0  0  0  0  0  0  0  0  0
    7.8427  -18.3478   25.4798 C   0  0  0  0  0  0  0  0  0  0  0  0
    8.7922  -18.1246   24.3391 C   0  0  0  0  0  0  0  0  0  0  0  0
    9.3120  -16.7442   24.1863 C   0  0  2  0  0  0  0  0  0  0  0  0
   10.3253  -16.8281   23.1079 N   0  0  0  0  0  0  0  0  0  0  0  0
   10.0815  -16.3002   25.3903 C   0  0  0  0  0  0  0  0  0  0  0  0
   11.2502  -16.7255   25.6049 O   0  0  0  0  0  0  0  0  0  0  0  0
    8.1945  -14.1354   28.5187 C   0  0  0  0  0  0  0  0  0  0  0  0
    9.6094  -13.7711   28.1250 C   0  0  2  0  0  0  0  0  0  0  0  0
    9.5827  -12.6491   27.0842 C   0  0  0  0  0  0  0  0  0  0  0  0
   10.3045  -14.9925   27.5062 C   0  0  2  0  0  0  0  0  0  0  0  0
    9.5341  -15.3892   26.3217 N   0  0  0  0  0  0  0  0  0  0  0  0
   10.3815  -16.0697   28.5125 C   0  0  0  0  0  0  0  0  0  0  0  0
    9.6148  -17.0509   28.4115 O   0  0  0  0  0  0  0  0  0  0  0  0
   11.2792  -16.0038   29.5483 O   0  0  0  0  0  0  0  0  0  0  0  0
  1  2  1  0
  2  4  1  0
  2  3  2  0
  4  5  1  0
  5  6  1  0
  6  7  1  6
  6  8  1  0
  8  9  2  0
 11 12  2  0
 11 10  1  0
 13 11  1  0
 15 14  1  1
 14 13  1  0
 15 17  1  0
 16  8  1  0
 16 15  1  0
 17 18  2  0
 20 19  1  6
 20 22  1  0
 21 20  1  0
 22 24  1  0
 22 23  1  6
 23 17  1  0
 24 26  1  0
 25 24  2  0
M  END
$$$$
