QQV.pdb
     RDKit          3D

 26 25  0  0  1  0  0  0  0  0999 V2000
    8.2557  -12.5515   18.1212 N   0  0  0  0  0  0  0  0  0  0  0  0
    7.9942  -13.6947   17.2907 C   0  0  0  0  0  0  0  0  0  0  0  0
    8.3517  -13.6131   16.0962 O   0  0  0  0  0  0  0  0  0  0  0  0
    7.3306  -14.8564   17.9125 C   0  0  0  0  0  0  0  0  0  0  0  0
    6.9696  -14.6387   19.3456 C   0  0  0  0  0  0  0  0  0  0  0  0
    8.2167  -14.6022   20.1789 C   0  0  2  0  0  0  0  0  0  0  0  0
    9.1677  -15.5236   19.5592 N   0  0  0  0  0  0  0  0  0  0  0  0
    7.9412  -15.1190   21.5626 C   0  0  0  0  0  0  0  0  0  0  0  0
    6.9268  -14.7610   22.1780 O   0  0  0  0  0  0  0  0  0  0  0  0
   11.6101  -19.1149   25.7697 N   0  0  0  0  0  0  0  0  0  0  0  0
   10.3050  -19.3494   25.3114 C   0  0  0  0  0  0  0  0  0  0  0  0
    9.9198  -20.4750   24.9939 O   0  0  0  0  0  0  0  0  0  0  0  0
    9.3558  -18.1985   25.2047 C   0  0  0  0  0  0  0  0  0  0  0  0
    9.4000  -17.6219   23.8198 C   0  0  0  0  0  0  0  0  0  0  0  0
    8.5289  -16.4467   23.5766 C   0  0  2  0  0  0  0  0  0  0  0  0
    8.8308  -16.0201   22.1897 N   0  0  0  0  0  0  0  0  0  0  0  0
    8.9202  -15.2762   24.4227 C   0  0  0  0  0  0  0  0  0  0  0  0
   10.0722  -14.7686   24.3327 O   0  0  0  0  0  0  0  0  0  0  0  0
    6.0814  -13.2608   26.8319 C   0  0  0  0  0  0  0  0  0  0  0  0
    7.3652  -12.6023   26.3756 C   0  0  2  0  0  0  0  0  0  0  0  0
    7.1602  -11.9739   24.9949 C   0  0  0  0  0  0  0  0  0  0  0  0
    8.4775  -13.6557   26.2705 C   0  0  2  0  0  0  0  0  0  0  0  0
    8.0181  -14.6958   25.3426 N   0  0  0  0  0  0  0  0  0  0  0  0
    8.7682  -14.1914   27.6150 C   0  0  0  0  0  0  0  0  0  0  0  0
    8.3912  -15.3472   27.9026 O   0  0  0  0  0  0  0  0  0  0  0  0
    9.4425  -13.4383   28.5431 O   0  0  0  0  0  0  0  0  0  0  0  0
  1  2  1  0
  2  4  1  0
  2  3  2  0
  4  5  1  0
  5  6  1  0
  6  7  1  6
  6  8  1  0
  8  9  2  0
 11 12  2  0
 11 10  1  0
 13 11  1  0
 15 14  1  1
 14 13  1  0
 15 17  1  0
 16  8  1  0
 16 15  1  0
 17 18  2  0
 20 19  1  6
 20 22  1  0
 21 20  1  0
 22 24  1  0
 22 23  1  6
 23 17  1  0
 24 26  1  0
 25 24  2  0
M  END
$$$$
