QQV.pdb
     RDKit          3D

 26 25  0  0  1  0  0  0  0  0999 V2000
    8.1218  -12.9364   20.3154 N   0  0  0  0  0  0  0  0  0  0  0  0
    7.8169  -14.1205   19.5605 C   0  0  0  0  0  0  0  0  0  0  0  0
    8.4043  -14.2539   18.4658 O   0  0  0  0  0  0  0  0  0  0  0  0
    6.8440  -15.0688   20.1358 C   0  0  0  0  0  0  0  0  0  0  0  0
    7.2641  -16.4974   20.0171 C   0  0  0  0  0  0  0  0  0  0  0  0
    6.2915  -17.3709   20.7533 C   0  0  2  0  0  0  0  0  0  0  0  0
    4.9724  -17.1162   20.1768 N   0  0  0  0  0  0  0  0  0  0  0  0
    6.2222  -16.9777   22.2018 C   0  0  0  0  0  0  0  0  0  0  0  0
    5.3049  -16.2539   22.6146 O   0  0  0  0  0  0  0  0  0  0  0  0
    7.4165  -20.8390   26.4404 N   0  0  0  0  0  0  0  0  0  0  0  0
    7.5406  -19.7389   27.3021 C   0  0  0  0  0  0  0  0  0  0  0  0
    7.5578  -19.8705   28.5263 O   0  0  0  0  0  0  0  0  0  0  0  0
    7.6538  -18.3675   26.7161 C   0  0  0  0  0  0  0  0  0  0  0  0
    7.5259  -18.4343   25.2222 C   0  0  0  0  0  0  0  0  0  0  0  0
    6.9284  -17.2457   24.5669 C   0  0  2  0  0  0  0  0  0  0  0  0
    7.1993  -17.4226   23.1206 N   0  0  0  0  0  0  0  0  0  0  0  0
    7.6480  -15.9855   24.9319 C   0  0  0  0  0  0  0  0  0  0  0  0
    8.7430  -15.6827   24.3823 O   0  0  0  0  0  0  0  0  0  0  0  0
    5.7163  -12.5833   25.9346 C   0  0  0  0  0  0  0  0  0  0  0  0
    6.8485  -12.8975   26.8882 C   0  0  2  0  0  0  0  0  0  0  0  0
    7.5849  -11.6075   27.2576 C   0  0  0  0  0  0  0  0  0  0  0  0
    7.8449  -13.8500   26.2116 C   0  0  2  0  0  0  0  0  0  0  0  0
    7.1280  -15.0906   25.8941 N   0  0  0  0  0  0  0  0  0  0  0  0
    8.9893  -14.0786   27.1157 C   0  0  0  0  0  0  0  0  0  0  0  0
    9.0025  -15.1023   27.8316 O   0  0  0  0  0  0  0  0  0  0  0  0
   10.0290  -13.1851   27.1762 O   0  0  0  0  0  0  0  0  0  0  0  0
  1  2  1  0
  2  4  1  0
  2  3  2  0
  4  5  1  0
  5  6  1  0
  6  7  1  6
  6  8  1  0
  8  9  2  0
 11 12  2  0
 11 10  1  0
 13 11  1  0
 15 14  1  1
 14 13  1  0
 15 17  1  0
 16  8  1  0
 16 15  1  0
 17 18  2  0
 20 19  1  6
 20 22  1  0
 21 20  1  0
 22 24  1  0
 22 23  1  1
 23 17  1  0
 24 26  1  0
 25 24  2  0
M  END
$$$$
