QQV.pdb
     RDKit          3D

 26 25  0  0  1  0  0  0  0  0999 V2000
    8.6118  -12.6239   18.0881 N   0  0  0  0  0  0  0  0  0  0  0  0
    8.1116  -13.7308   17.3202 C   0  0  0  0  0  0  0  0  0  0  0  0
    8.4335  -13.7666   16.1134 O   0  0  0  0  0  0  0  0  0  0  0  0
    7.2671  -14.7211   18.0150 C   0  0  0  0  0  0  0  0  0  0  0  0
    7.0004  -14.3775   19.4440 C   0  0  0  0  0  0  0  0  0  0  0  0
    8.1255  -14.8784   20.3007 C   0  0  2  0  0  0  0  0  0  0  0  0
    8.6269  -16.0988   19.6710 N   0  0  0  0  0  0  0  0  0  0  0  0
    7.6203  -15.2615   21.6629 C   0  0  0  0  0  0  0  0  0  0  0  0
    6.8327  -14.5243   22.2727 O   0  0  0  0  0  0  0  0  0  0  0  0
    6.3901  -20.0916   24.3050 N   0  0  0  0  0  0  0  0  0  0  0  0
    6.9565  -19.6112   25.4953 C   0  0  0  0  0  0  0  0  0  0  0  0
    6.6497  -20.0738   26.5944 O   0  0  0  0  0  0  0  0  0  0  0  0
    7.9606  -18.5049   25.4260 C   0  0  0  0  0  0  0  0  0  0  0  0
    8.1423  -18.0635   24.0031 C   0  0  0  0  0  0  0  0  0  0  0  0
    7.5548  -16.7484   23.6502 C   0  0  2  0  0  0  0  0  0  0  0  0
    8.0326  -16.4661   22.2759 N   0  0  0  0  0  0  0  0  0  0  0  0
    8.1241  -15.6411   24.4801 C   0  0  0  0  0  0  0  0  0  0  0  0
    9.3221  -15.2721   24.3334 O   0  0  0  0  0  0  0  0  0  0  0  0
    5.8626  -12.5220   25.7091 C   0  0  0  0  0  0  0  0  0  0  0  0
    6.7475  -13.0567   26.8140 C   0  0  2  0  0  0  0  0  0  0  0  0
    7.3214  -11.8919   27.6246 C   0  0  0  0  0  0  0  0  0  0  0  0
    7.9145  -13.8472   26.2049 C   0  0  2  0  0  0  0  0  0  0  0  0
    7.3446  -14.9678   25.4475 N   0  0  0  0  0  0  0  0  0  0  0  0
    8.8122  -14.2992   27.2860 C   0  0  0  0  0  0  0  0  0  0  0  0
    8.6910  -15.4606   27.7301 O   0  0  0  0  0  0  0  0  0  0  0  0
    9.7698  -13.4631   27.8028 O   0  0  0  0  0  0  0  0  0  0  0  0
  1  2  1  0
  2  4  1  0
  2  3  2  0
  4  5  1  0
  5  6  1  0
  6  7  1  6
  6  8  1  0
  8  9  2  0
 11 12  2  0
 11 10  1  0
 13 11  1  0
 15 14  1  1
 14 13  1  0
 15 17  1  0
 16  8  1  0
 16 15  1  0
 17 18  2  0
 20 19  1  6
 20 22  1  0
 21 20  1  0
 22 24  1  0
 22 23  1  1
 23 17  1  0
 24 26  1  0
 25 24  2  0
M  END
$$$$
