QQV.pdb
     RDKit          3D

 26 25  0  0  1  0  0  0  0  0999 V2000
    8.5887  -12.7566   17.5338 N   0  0  0  0  0  0  0  0  0  0  0  0
    8.1566  -14.0608   17.1127 C   0  0  0  0  0  0  0  0  0  0  0  0
    8.3966  -14.3750   15.9274 O   0  0  0  0  0  0  0  0  0  0  0  0
    7.4712  -14.9098   18.1058 C   0  0  0  0  0  0  0  0  0  0  0  0
    7.3414  -14.2683   19.4485 C   0  0  0  0  0  0  0  0  0  0  0  0
    8.2906  -14.9190   20.4111 C   0  0  2  0  0  0  0  0  0  0  0  0
    8.5238  -16.2774   19.9236 N   0  0  0  0  0  0  0  0  0  0  0  0
    7.6614  -15.0410   21.7701 C   0  0  0  0  0  0  0  0  0  0  0  0
    7.0540  -14.0841   22.2711 O   0  0  0  0  0  0  0  0  0  0  0  0
    7.4947  -20.3036   24.9671 N   0  0  0  0  0  0  0  0  0  0  0  0
    6.9258  -19.4776   25.9482 C   0  0  0  0  0  0  0  0  0  0  0  0
    6.5788  -19.9154   27.0455 O   0  0  0  0  0  0  0  0  0  0  0  0
    6.7346  -18.0243   25.6511 C   0  0  0  0  0  0  0  0  0  0  0  0
    7.2021  -17.7182   24.2582 C   0  0  0  0  0  0  0  0  0  0  0  0
    7.1023  -16.3002   23.8356 C   0  0  2  0  0  0  0  0  0  0  0  0
    7.7501  -16.2455   22.5038 N   0  0  0  0  0  0  0  0  0  0  0  0
    7.9344  -15.4010   24.6948 C   0  0  0  0  0  0  0  0  0  0  0  0
    9.1923  -15.5031   24.7109 O   0  0  0  0  0  0  0  0  0  0  0  0
    6.0422  -12.7438   27.3742 C   0  0  0  0  0  0  0  0  0  0  0  0
    7.3920  -12.3604   26.8078 C   0  0  2  0  0  0  0  0  0  0  0  0
    7.2009  -11.5202   25.5427 C   0  0  0  0  0  0  0  0  0  0  0  0
    8.1757  -13.6277   26.4365 C   0  0  2  0  0  0  0  0  0  0  0  0
    7.3469  -14.4068   25.5092 N   0  0  0  0  0  0  0  0  0  0  0  0
    8.4984  -14.3774   27.6665 C   0  0  0  0  0  0  0  0  0  0  0  0
    7.8547  -15.4147   27.9318 O   0  0  0  0  0  0  0  0  0  0  0  0
    9.4899  -13.9494   28.5132 O   0  0  0  0  0  0  0  0  0  0  0  0
  1  2  1  0
  2  4  1  0
  2  3  2  0
  4  5  1  0
  5  6  1  0
  6  7  1  6
  6  8  1  0
  8  9  2  0
 11 12  2  0
 11 10  1  0
 13 11  1  0
 15 14  1  1
 14 13  1  0
 15 17  1  0
 16  8  1  0
 16 15  1  0
 17 18  2  0
 20 19  1  6
 20 22  1  0
 21 20  1  0
 22 24  1  0
 22 23  1  6
 23 17  1  0
 24 26  1  0
 25 24  2  0
M  END
$$$$
