QQV.pdb
     RDKit          3D

 26 25  0  0  1  0  0  0  0  0999 V2000
    9.7805  -13.9887   18.9762 N   0  0  0  0  0  0  0  0  0  0  0  0
    8.3558  -13.8115   19.0366 C   0  0  0  0  0  0  0  0  0  0  0  0
    7.9112  -12.7101   18.6486 O   0  0  0  0  0  0  0  0  0  0  0  0
    7.5463  -14.9339   19.5481 C   0  0  0  0  0  0  0  0  0  0  0  0
    8.3623  -16.1110   19.9724 C   0  0  0  0  0  0  0  0  0  0  0  0
    7.4555  -17.2048   20.4542 C   0  0  2  0  0  0  0  0  0  0  0  0
    6.3081  -17.2339   19.5487 N   0  0  0  0  0  0  0  0  0  0  0  0
    6.9270  -16.8859   21.8241 C   0  0  0  0  0  0  0  0  0  0  0  0
    5.8342  -16.3178   21.9609 O   0  0  0  0  0  0  0  0  0  0  0  0
    7.3499  -20.3488   26.9748 N   0  0  0  0  0  0  0  0  0  0  0  0
    6.8069  -20.5908   25.7040 C   0  0  0  0  0  0  0  0  0  0  0  0
    6.6724  -21.7317   25.2609 O   0  0  0  0  0  0  0  0  0  0  0  0
    6.3808  -19.4290   24.8640 C   0  0  0  0  0  0  0  0  0  0  0  0
    7.3246  -18.2787   25.0602 C   0  0  0  0  0  0  0  0  0  0  0  0
    7.0120  -17.0441   24.3004 C   0  0  2  0  0  0  0  0  0  0  0  0
    7.6634  -17.2247   22.9815 N   0  0  0  0  0  0  0  0  0  0  0  0
    7.6812  -15.8417   24.8879 C   0  0  0  0  0  0  0  0  0  0  0  0
    8.8847  -15.5738   24.6179 O   0  0  0  0  0  0  0  0  0  0  0  0
    5.6826  -12.4101   26.0494 C   0  0  0  0  0  0  0  0  0  0  0  0
    6.6497  -12.9598   27.0753 C   0  0  2  0  0  0  0  0  0  0  0  0
    7.3709  -11.8051   27.7750 C   0  0  0  0  0  0  0  0  0  0  0  0
    7.6989  -13.8378   26.3782 C   0  0  2  0  0  0  0  0  0  0  0  0
    6.9931  -14.9639   25.7556 N   0  0  0  0  0  0  0  0  0  0  0  0
    8.6984  -14.2809   27.3700 C   0  0  0  0  0  0  0  0  0  0  0  0
    8.5052  -15.3471   27.9920 O   0  0  0  0  0  0  0  0  0  0  0  0
    9.8272  -13.5394   27.6128 O   0  0  0  0  0  0  0  0  0  0  0  0
  1  2  1  0
  2  4  1  0
  2  3  2  0
  4  5  1  0
  5  6  1  0
  6  7  1  6
  6  8  1  0
  8  9  2  0
 11 12  2  0
 11 10  1  0
 13 11  1  0
 15 14  1  1
 14 13  1  0
 15 17  1  0
 16  8  1  0
 16 15  1  0
 17 18  2  0
 20 19  1  6
 20 22  1  0
 21 20  1  0
 22 24  1  0
 22 23  1  1
 23 17  1  0
 24 26  1  0
 25 24  2  0
M  END
$$$$
