QQV.pdb
     RDKit          3D

 26 25  0  0  1  0  0  0  0  0999 V2000
    9.0203  -14.4666   17.3807 N   0  0  0  0  0  0  0  0  0  0  0  0
    8.4181  -13.6343   18.3855 C   0  0  0  0  0  0  0  0  0  0  0  0
    8.1087  -12.4740   18.0404 O   0  0  0  0  0  0  0  0  0  0  0  0
    8.2192  -14.2145   19.7273 C   0  0  0  0  0  0  0  0  0  0  0  0
    8.7836  -15.5902   19.8703 C   0  0  0  0  0  0  0  0  0  0  0  0
    7.6758  -16.5620   20.1519 C   0  0  2  0  0  0  0  0  0  0  0  0
    6.5907  -16.2485   19.2237 N   0  0  0  0  0  0  0  0  0  0  0  0
    7.1389  -16.3609   21.5407 C   0  0  0  0  0  0  0  0  0  0  0  0
    6.1583  -15.6290   21.7369 O   0  0  0  0  0  0  0  0  0  0  0  0
    7.6289  -20.6880   25.6526 N   0  0  0  0  0  0  0  0  0  0  0  0
    6.9975  -19.7644   26.4991 C   0  0  0  0  0  0  0  0  0  0  0  0
    6.6339  -20.0671   27.6359 O   0  0  0  0  0  0  0  0  0  0  0  0
    6.7585  -18.3730   26.0050 C   0  0  0  0  0  0  0  0  0  0  0  0
    7.2890  -18.2247   24.6089 C   0  0  0  0  0  0  0  0  0  0  0  0
    7.0543  -16.9120   23.9601 C   0  0  2  0  0  0  0  0  0  0  0  0
    7.7399  -16.9989   22.6491 N   0  0  0  0  0  0  0  0  0  0  0  0
    7.7549  -15.8011   24.6770 C   0  0  0  0  0  0  0  0  0  0  0  0
    8.9871  -15.5922   24.5006 O   0  0  0  0  0  0  0  0  0  0  0  0
    5.7659  -12.4126   25.6537 C   0  0  0  0  0  0  0  0  0  0  0  0
    6.6909  -12.8701   26.7604 C   0  0  2  0  0  0  0  0  0  0  0  0
    7.3929  -11.6590   27.3797 C   0  0  0  0  0  0  0  0  0  0  0  0
    7.7598  -13.8104   26.1850 C   0  0  2  0  0  0  0  0  0  0  0  0
    7.0660  -14.9463   25.5667 N   0  0  0  0  0  0  0  0  0  0  0  0
    8.6710  -14.2310   27.2676 C   0  0  0  0  0  0  0  0  0  0  0  0
    8.4782  -15.3291   27.8312 O   0  0  0  0  0  0  0  0  0  0  0  0
    9.7181  -13.4340   27.6569 O   0  0  0  0  0  0  0  0  0  0  0  0
  1  2  1  0
  2  4  1  0
  2  3  2  0
  4  5  1  0
  5  6  1  0
  6  7  1  6
  6  8  1  0
  8  9  2  0
 11 12  2  0
 11 10  1  0
 13 11  1  0
 15 14  1  1
 14 13  1  0
 15 17  1  0
 16  8  1  0
 16 15  1  0
 17 18  2  0
 20 19  1  6
 20 22  1  0
 21 20  1  0
 22 24  1  0
 22 23  1  1
 23 17  1  0
 24 26  1  0
 25 24  2  0
M  END
$$$$
