GQK.pdb
     RDKit          3D

 23 22  0  0  1  0  0  0  0  0999 V2000
   27.7463  -23.6982  -16.5520 N   0  0  0  0  0  0  0  0  0  0  0  0
   27.5263  -22.4337  -15.9253 C   0  0  0  0  0  0  0  0  0  0  0  0
   26.4087  -22.4351  -14.9564 C   0  0  0  0  0  0  0  0  0  0  0  0
   25.5001  -23.2924  -15.1371 O   0  0  0  0  0  0  0  0  0  0  0  0
   26.2132  -20.1467   -9.1783 N   0  0  0  0  0  0  0  0  0  0  0  0
   24.9433  -20.7386   -9.2881 C   0  0  0  0  0  0  0  0  0  0  0  0
   24.1866  -20.8379   -8.2971 O   0  0  0  0  0  0  0  0  0  0  0  0
   24.4794  -21.2599  -10.5994 C   0  0  0  0  0  0  0  0  0  0  0  0
   25.5540  -21.1229  -11.6520 C   0  0  0  0  0  0  0  0  0  0  0  0
   25.1266  -21.6422  -12.9985 C   0  0  2  0  0  0  0  0  0  0  0  0
   26.2758  -21.5677  -13.8599 N   0  0  0  0  0  0  0  0  0  0  0  0
   23.9801  -20.8328  -13.4684 C   0  0  0  0  0  0  0  0  0  0  0  0
   24.2922  -19.6292  -13.7041 O   0  0  0  0  0  0  0  0  0  0  0  0
   22.6862  -21.2822  -13.6481 N   0  0  0  0  0  0  0  0  0  0  0  0
   21.5998  -20.4464  -14.1101 C   0  0  1  0  0  0  0  0  0  0  0  0
   20.9982  -21.1635  -15.2887 C   0  0  0  0  0  0  0  0  0  0  0  0
   20.2214  -22.4007  -14.9656 C   0  0  0  0  0  0  0  0  0  0  0  0
   19.8062  -22.9947  -16.3093 C   0  0  0  0  0  0  0  0  0  0  0  0
   19.0888  -24.3068  -16.1280 C   0  0  0  0  0  0  0  0  0  0  0  0
   18.7620  -24.8653  -17.4276 N   0  0  0  0  0  0  0  0  0  0  0  0
   20.6043  -20.1649  -13.0509 C   0  0  0  0  0  0  0  0  0  0  0  0
   19.7013  -19.3077  -13.1152 O   0  0  0  0  0  0  0  0  0  0  0  0
   20.6263  -20.8963  -11.8457 O   0  0  0  0  0  0  0  0  0  0  0  0
  2  1  1  0
  3 11  1  0
  3  2  1  0
  4  3  2  0
  6  5  1  0
  7  6  2  0
  8  6  1  0
 10  9  1  1
  9  8  1  0
 10 12  1  0
 10 11  1  0
 12 14  1  0
 13 12  2  0
 14 15  1  0
 15 21  1  0
 15 16  1  6
 16 17  1  0
 18 19  1  0
 18 17  1  0
 19 20  1  0
 21 23  1  0
 22 21  2  0
M  END
$$$$
