GQK.pdb
     RDKit          3D

 23 22  0  0  1  0  0  0  0  0999 V2000
   24.2183  -32.4739   -8.6614 N   0  0  0  0  0  0  0  0  0  0  0  0
   25.4385  -32.0186   -8.0751 C   0  0  0  0  0  0  0  0  0  0  0  0
   26.1172  -33.0373   -7.2447 C   0  0  0  0  0  0  0  0  0  0  0  0
   25.5771  -34.1767   -7.1874 O   0  0  0  0  0  0  0  0  0  0  0  0
   30.0025  -36.4152   -5.5865 N   0  0  0  0  0  0  0  0  0  0  0  0
   30.2612  -35.8358   -6.8404 C   0  0  0  0  0  0  0  0  0  0  0  0
   30.7439  -36.5085   -7.7780 O   0  0  0  0  0  0  0  0  0  0  0  0
   29.9604  -34.3993   -7.0694 C   0  0  0  0  0  0  0  0  0  0  0  0
   29.3730  -33.7611   -5.8329 C   0  0  0  0  0  0  0  0  0  0  0  0
   27.8779  -33.9123   -5.7479 C   0  0  2  0  0  0  0  0  0  0  0  0
   27.3044  -32.8431   -6.5200 N   0  0  0  0  0  0  0  0  0  0  0  0
   27.4868  -33.8889   -4.3207 C   0  0  0  0  0  0  0  0  0  0  0  0
   27.5500  -32.7314   -3.8131 O   0  0  0  0  0  0  0  0  0  0  0  0
   27.0895  -34.9770   -3.5679 N   0  0  0  0  0  0  0  0  0  0  0  0
   26.6206  -34.8843   -2.2027 C   0  0  1  0  0  0  0  0  0  0  0  0
   25.1773  -35.3100   -2.2310 C   0  0  0  0  0  0  0  0  0  0  0  0
   24.3125  -34.7369   -1.1529 C   0  0  0  0  0  0  0  0  0  0  0  0
   22.9219  -35.3259   -1.3772 C   0  0  0  0  0  0  0  0  0  0  0  0
   21.9386  -34.8067   -0.3609 C   0  0  0  0  0  0  0  0  0  0  0  0
   20.6288  -35.3783   -0.6163 N   0  0  0  0  0  0  0  0  0  0  0  0
   27.4306  -35.6929   -1.2635 C   0  0  0  0  0  0  0  0  0  0  0  0
   27.8815  -36.8325   -1.4921 O   0  0  0  0  0  0  0  0  0  0  0  0
   27.7548  -35.1847    0.0110 O   0  0  0  0  0  0  0  0  0  0  0  0
  2  1  1  0
  3 11  1  0
  3  2  1  0
  4  3  2  0
  6  5  1  0
  7  6  2  0
  8  6  1  0
 10  9  1  1
  9  8  1  0
 10 12  1  0
 10 11  1  0
 12 14  1  0
 13 12  2  0
 14 15  1  0
 15 21  1  0
 15 16  1  6
 16 17  1  0
 18 19  1  0
 18 17  1  0
 19 20  1  0
 21 23  1  0
 22 21  2  0
M  END
$$$$
