GQK.pdb
     RDKit          3D

 23 22  0  0  1  0  0  0  0  0999 V2000
   28.3259  -21.5471  -16.9115 N   0  0  0  0  0  0  0  0  0  0  0  0
   27.8988  -20.5607  -15.9710 C   0  0  0  0  0  0  0  0  0  0  0  0
   27.0330  -21.0958  -14.8977 C   0  0  0  0  0  0  0  0  0  0  0  0
   26.2761  -22.0583  -15.2040 O   0  0  0  0  0  0  0  0  0  0  0  0
   24.7701  -19.5407   -9.8743 N   0  0  0  0  0  0  0  0  0  0  0  0
   24.9406  -20.8727   -9.4599 C   0  0  0  0  0  0  0  0  0  0  0  0
   24.3453  -21.3200   -8.4548 O   0  0  0  0  0  0  0  0  0  0  0  0
   25.8415  -21.7761  -10.2206 C   0  0  0  0  0  0  0  0  0  0  0  0
   26.6147  -21.0162  -11.2723 C   0  0  0  0  0  0  0  0  0  0  0  0
   26.0143  -21.1406  -12.6469 C   0  0  2  0  0  0  0  0  0  0  0  0
   26.9839  -20.6249  -13.5755 N   0  0  0  0  0  0  0  0  0  0  0  0
   24.7293  -20.4065  -12.6630 C   0  0  0  0  0  0  0  0  0  0  0  0
   24.8718  -19.1718  -12.9015 O   0  0  0  0  0  0  0  0  0  0  0  0
   23.4783  -20.9511  -12.4461 N   0  0  0  0  0  0  0  0  0  0  0  0
   22.2657  -20.4534  -13.0579 C   0  0  1  0  0  0  0  0  0  0  0  0
   22.5178  -20.4602  -14.5417 C   0  0  0  0  0  0  0  0  0  0  0  0
   21.9629  -19.2942  -15.2975 C   0  0  0  0  0  0  0  0  0  0  0  0
   22.3572  -19.5173  -16.7555 C   0  0  0  0  0  0  0  0  0  0  0  0
   21.7628  -18.4606  -17.6496 C   0  0  0  0  0  0  0  0  0  0  0  0
   22.2885  -18.6105  -18.9946 N   0  0  0  0  0  0  0  0  0  0  0  0
   21.0704  -21.2428  -12.6835 C   0  0  0  0  0  0  0  0  0  0  0  0
   20.9874  -22.4865  -12.7076 O   0  0  0  0  0  0  0  0  0  0  0  0
   19.8971  -20.5903  -12.2529 O   0  0  0  0  0  0  0  0  0  0  0  0
  2  1  1  0
  3 11  1  0
  3  2  1  0
  4  3  2  0
  6  5  1  0
  7  6  2  0
  8  6  1  0
 10  9  1  1
  9  8  1  0
 10 12  1  0
 10 11  1  0
 12 14  1  0
 13 12  2  0
 14 15  1  0
 15 21  1  0
 15 16  1  6
 16 17  1  0
 18 19  1  0
 18 17  1  0
 19 20  1  0
 21 23  1  0
 22 21  2  0
M  END
$$$$
