GQK.pdb
     RDKit          3D

 23 22  0  0  1  0  0  0  0  0999 V2000
   15.8438  -11.3736  -13.7048 N   0  0  0  0  0  0  0  0  0  0  0  0
   15.4826  -11.1691  -12.3381 C   0  0  0  0  0  0  0  0  0  0  0  0
   16.1737  -10.0255  -11.7037 C   0  0  0  0  0  0  0  0  0  0  0  0
   16.0398   -9.9016  -10.4547 O   0  0  0  0  0  0  0  0  0  0  0  0
   20.6233   -7.5557  -14.4753 N   0  0  0  0  0  0  0  0  0  0  0  0
   20.9274   -8.3781  -13.3772 C   0  0  0  0  0  0  0  0  0  0  0  0
   21.9971   -9.0246  -13.3283 O   0  0  0  0  0  0  0  0  0  0  0  0
   19.9695   -8.4905  -12.2475 C   0  0  0  0  0  0  0  0  0  0  0  0
   18.7868   -7.5714  -12.4418 C   0  0  0  0  0  0  0  0  0  0  0  0
   17.5788   -7.9935  -11.6493 C   0  0  2  0  0  0  0  0  0  0  0  0
   16.9607   -9.0729  -12.3713 N   0  0  0  0  0  0  0  0  0  0  0  0
   16.6993   -6.8159  -11.4763 C   0  0  0  0  0  0  0  0  0  0  0  0
   15.9360   -6.6229  -12.4671 O   0  0  0  0  0  0  0  0  0  0  0  0
   16.6687   -5.9774  -10.3788 N   0  0  0  0  0  0  0  0  0  0  0  0
   15.7048   -4.9131  -10.2045 C   0  0  1  0  0  0  0  0  0  0  0  0
   14.3595   -5.5826  -10.1201 C   0  0  0  0  0  0  0  0  0  0  0  0
   13.7186   -5.5786   -8.7681 C   0  0  0  0  0  0  0  0  0  0  0  0
   12.3505   -6.2303   -8.9538 C   0  0  0  0  0  0  0  0  0  0  0  0
   11.6068   -6.3205   -7.6469 C   0  0  0  0  0  0  0  0  0  0  0  0
   10.3378   -6.9940   -7.8556 N   0  0  0  0  0  0  0  0  0  0  0  0
   15.9919   -4.0692   -9.0223 C   0  0  0  0  0  0  0  0  0  0  0  0
   16.8525   -4.3097   -8.1529 O   0  0  0  0  0  0  0  0  0  0  0  0
   15.2661   -2.8796   -8.8081 O   0  0  0  0  0  0  0  0  0  0  0  0
  2  1  1  0
  3 11  1  0
  3  2  1  0
  4  3  2  0
  6  5  1  0
  7  6  2  0
  8  6  1  0
 10  9  1  6
  9  8  1  0
 10 12  1  0
 10 11  1  0
 12 14  1  0
 13 12  2  0
 14 15  1  0
 15 21  1  0
 15 16  1  1
 16 17  1  0
 18 19  1  0
 18 17  1  0
 19 20  1  0
 21 23  1  0
 22 21  2  0
M  END
$$$$
