GQK.pdb
     RDKit          3D

 23 22  0  0  1  0  0  0  0  0999 V2000
   26.5910  -13.7516  -16.7307 N   0  0  0  0  0  0  0  0  0  0  0  0
   26.3534  -14.3932  -15.4770 C   0  0  0  0  0  0  0  0  0  0  0  0
   26.1483  -15.8541  -15.5845 C   0  0  0  0  0  0  0  0  0  0  0  0
   25.6509  -16.2810  -16.6632 O   0  0  0  0  0  0  0  0  0  0  0  0
   27.7643  -20.1169  -16.2485 N   0  0  0  0  0  0  0  0  0  0  0  0
   27.2310  -20.9966  -15.2910 C   0  0  0  0  0  0  0  0  0  0  0  0
   27.1392  -22.2233  -15.5180 O   0  0  0  0  0  0  0  0  0  0  0  0
   26.7644  -20.4728  -13.9817 C   0  0  0  0  0  0  0  0  0  0  0  0
   27.0026  -18.9852  -13.8732 C   0  0  0  0  0  0  0  0  0  0  0  0
   26.0801  -18.1777  -14.7462 C   0  0  2  0  0  0  0  0  0  0  0  0
   26.4589  -16.7988  -14.5928 N   0  0  0  0  0  0  0  0  0  0  0  0
   24.6858  -18.4584  -14.3372 C   0  0  0  0  0  0  0  0  0  0  0  0
   24.4620  -18.1710  -13.1253 O   0  0  0  0  0  0  0  0  0  0  0  0
   23.6910  -18.9794  -15.1419 N   0  0  0  0  0  0  0  0  0  0  0  0
   22.3333  -19.2083  -14.6986 C   0  0  1  0  0  0  0  0  0  0  0  0
   21.4518  -18.8587  -15.8674 C   0  0  0  0  0  0  0  0  0  0  0  0
   19.9808  -18.9994  -15.6331 C   0  0  0  0  0  0  0  0  0  0  0  0
   19.3090  -18.5766  -16.9373 C   0  0  0  0  0  0  0  0  0  0  0  0
   17.8081  -18.6366  -16.8228 C   0  0  0  0  0  0  0  0  0  0  0  0
   17.2077  -18.1739  -18.0609 N   0  0  0  0  0  0  0  0  0  0  0  0
   22.1139  -20.5915  -14.2183 C   0  0  0  0  0  0  0  0  0  0  0  0
   21.3718  -20.9202  -13.2720 O   0  0  0  0  0  0  0  0  0  0  0  0
   22.7692  -21.6712  -14.8450 O   0  0  0  0  0  0  0  0  0  0  0  0
  2  1  1  0
  3 11  1  0
  3  2  1  0
  4  3  2  0
  6  5  1  0
  7  6  2  0
  8  6  1  0
 10  9  1  1
  9  8  1  0
 10 12  1  0
 10 11  1  0
 12 14  1  0
 13 12  2  0
 14 15  1  0
 15 21  1  0
 15 16  1  6
 16 17  1  0
 18 19  1  0
 18 17  1  0
 19 20  1  0
 21 23  1  0
 22 21  2  0
M  END
$$$$
