GQK.pdb
     RDKit          3D

 23 22  0  0  1  0  0  0  0  0999 V2000
   19.4788  -24.2684   -7.0082 N   0  0  0  0  0  0  0  0  0  0  0  0
   18.3885  -25.1610   -6.7749 C   0  0  0  0  0  0  0  0  0  0  0  0
   18.2567  -25.5848   -5.3639 C   0  0  0  0  0  0  0  0  0  0  0  0
   19.3202  -25.6476   -4.6869 O   0  0  0  0  0  0  0  0  0  0  0  0
   16.0508  -25.4619   -0.1390 N   0  0  0  0  0  0  0  0  0  0  0  0
   15.7904  -24.3639   -0.9765 C   0  0  0  0  0  0  0  0  0  0  0  0
   15.7806  -23.1957   -0.5295 O   0  0  0  0  0  0  0  0  0  0  0  0
   15.5204  -24.5811   -2.4209 C   0  0  0  0  0  0  0  0  0  0  0  0
   15.6861  -26.0353   -2.7942 C   0  0  0  0  0  0  0  0  0  0  0  0
   17.0510  -26.3478   -3.3465 C   0  0  2  0  0  0  0  0  0  0  0  0
   17.0548  -25.9207   -4.7198 N   0  0  0  0  0  0  0  0  0  0  0  0
   17.3032  -27.7961   -3.1754 C   0  0  0  0  0  0  0  0  0  0  0  0
   17.0101  -28.4707   -4.2052 O   0  0  0  0  0  0  0  0  0  0  0  0
   17.8003  -28.4070   -2.0404 N   0  0  0  0  0  0  0  0  0  0  0  0
   18.0026  -29.8338   -1.9162 C   0  0  1  0  0  0  0  0  0  0  0  0
   18.8236  -30.0285   -0.6700 C   0  0  0  0  0  0  0  0  0  0  0  0
   19.0854  -31.4500   -0.2833 C   0  0  0  0  0  0  0  0  0  0  0  0
   20.0308  -31.3886    0.9140 C   0  0  0  0  0  0  0  0  0  0  0  0
   20.4481  -32.7684    1.3515 C   0  0  0  0  0  0  0  0  0  0  0  0
   21.2874  -32.6705    2.5320 N   0  0  0  0  0  0  0  0  0  0  0  0
   16.7307  -30.5908   -1.8798 C   0  0  0  0  0  0  0  0  0  0  0  0
   16.5553  -31.7347   -2.3435 O   0  0  0  0  0  0  0  0  0  0  0  0
   15.5864  -30.0247   -1.2813 O   0  0  0  0  0  0  0  0  0  0  0  0
  2  1  1  0
  3 11  1  0
  3  2  1  0
  4  3  2  0
  6  5  1  0
  7  6  2  0
  8  6  1  0
 10  9  1  6
  9  8  1  0
 10 12  1  0
 10 11  1  0
 12 14  1  0
 13 12  2  0
 14 15  1  0
 15 21  1  0
 15 16  1  1
 16 17  1  0
 18 19  1  0
 18 17  1  0
 19 20  1  0
 21 23  1  0
 22 21  2  0
M  END
$$$$
