SNL.pdb
     RDKit          3D

 23 22  0  0  1  0  0  0  0  0999 V2000
    5.9363  -14.9895   20.4692 O   0  0  0  0  0  0  0  0  0  0  0  0
    7.1592  -14.8463   19.8156 C   0  0  0  0  0  0  0  0  0  0  0  0
    7.8959  -16.1621   19.7139 C   0  0  2  0  0  0  0  0  0  0  0  0
    6.9995  -17.1434   19.1397 N   0  0  0  0  0  0  0  0  0  0  0  0
    8.3595  -16.6193   21.0717 C   0  0  0  0  0  0  0  0  0  0  0  0
    7.6234  -17.3280   21.7911 O   0  0  0  0  0  0  0  0  0  0  0  0
   12.6649  -18.5220   24.2014 N   0  0  0  0  0  0  0  0  0  0  0  0
   12.4654  -17.1765   23.8676 C   0  0  0  0  0  0  0  0  0  0  0  0
   12.8723  -16.2916   24.6810 O   0  0  0  0  0  0  0  0  0  0  0  0
   11.8052  -16.7228   22.6172 C   0  0  0  0  0  0  0  0  0  0  0  0
   10.2936  -16.6157   22.7601 C   0  0  2  0  0  0  0  0  0  0  0  0
    9.6273  -16.2447   21.5285 N   0  0  0  0  0  0  0  0  0  0  0  0
    9.9215  -15.6820   23.8474 C   0  0  0  0  0  0  0  0  0  0  0  0
    9.8046  -14.4258   23.6170 O   0  0  0  0  0  0  0  0  0  0  0  0
    6.2358  -12.8992   26.2763 C   0  0  0  0  0  0  0  0  0  0  0  0
    7.6948  -13.1441   25.7587 C   0  0  1  0  0  0  0  0  0  0  0  0
    8.5451  -12.5045   26.8611 C   0  0  0  0  0  0  0  0  0  0  0  0
    7.9079  -14.6050   25.6254 C   0  0  0  0  0  0  0  0  0  0  0  0
    9.1580  -15.1714   26.1624 C   0  0  2  0  0  0  0  0  0  0  0  0
    9.6879  -16.1544   25.1589 N   0  0  0  0  0  0  0  0  0  0  0  0
    9.1562  -15.8394   27.4593 C   0  0  0  0  0  0  0  0  0  0  0  0
    8.7667  -17.0706   27.4864 O   0  0  0  0  0  0  0  0  0  0  0  0
    9.5396  -15.2942   28.6801 O   0  0  0  0  0  0  0  0  0  0  0  0
  2  3  1  0
  2  1  1  0
  3  5  1  0
  3  4  1  1
  5  6  2  0
  7  8  1  0
  8 10  1  0
  9  8  2  0
 11 10  1  6
 11 13  1  0
 12 11  1  0
 12  5  1  0
 13 20  1  0
 14 13  2  0
 16 17  1  1
 16 15  1  0
 18 16  1  0
 19 18  1  6
 20 19  1  0
 21 23  1  0
 21 19  1  0
 22 21  2  0
M  END
$$$$
