SNL.pdb
     RDKit          3D

 23 22  0  0  1  0  0  0  0  0999 V2000
    8.2578  -19.1249   19.7328 O   0  0  0  0  0  0  0  0  0  0  0  0
    7.2802  -19.3551   20.6995 C   0  0  0  0  0  0  0  0  0  0  0  0
    7.2320  -18.2426   21.7215 C   0  0  2  0  0  0  0  0  0  0  0  0
    6.8817  -17.0134   21.0412 N   0  0  0  0  0  0  0  0  0  0  0  0
    8.5641  -18.0909   22.4069 C   0  0  0  0  0  0  0  0  0  0  0  0
    9.0842  -19.0544   23.0093 O   0  0  0  0  0  0  0  0  0  0  0  0
   11.8175  -17.3262   20.2781 N   0  0  0  0  0  0  0  0  0  0  0  0
   11.3896  -16.0450   20.6482 C   0  0  0  0  0  0  0  0  0  0  0  0
   11.0405  -15.2422   19.7294 O   0  0  0  0  0  0  0  0  0  0  0  0
   11.3199  -15.5690   22.0530 C   0  0  0  0  0  0  0  0  0  0  0  0
   10.5005  -16.4927   22.9431 C   0  0  2  0  0  0  0  0  0  0  0  0
    9.2226  -16.8576   22.3667 N   0  0  0  0  0  0  0  0  0  0  0  0
   10.3090  -15.9095   24.2907 C   0  0  0  0  0  0  0  0  0  0  0  0
   11.3164  -15.5196   24.9819 O   0  0  0  0  0  0  0  0  0  0  0  0
    6.1984  -12.6245   25.9591 C   0  0  0  0  0  0  0  0  0  0  0  0
    7.6453  -13.2053   25.7973 C   0  0  1  0  0  0  0  0  0  0  0  0
    8.5001  -12.1621   26.5242 C   0  0  0  0  0  0  0  0  0  0  0  0
    7.6882  -14.5448   26.4306 C   0  0  0  0  0  0  0  0  0  0  0  0
    8.9189  -15.3409   26.2774 C   0  0  2  0  0  0  0  0  0  0  0  0
    9.0150  -15.7708   24.8421 N   0  0  0  0  0  0  0  0  0  0  0  0
    9.1231  -16.5302   27.0972 C   0  0  0  0  0  0  0  0  0  0  0  0
    9.1877  -16.3594   28.3758 O   0  0  0  0  0  0  0  0  0  0  0  0
    9.2482  -17.8413   26.6500 O   0  0  0  0  0  0  0  0  0  0  0  0
  2  3  1  0
  2  1  1  0
  3  5  1  0
  3  4  1  6
  5  6  2  0
  7  8  1  0
  8 10  1  0
  9  8  2  0
 11 10  1  6
 11 13  1  0
 12 11  1  0
 12  5  1  0
 13 20  1  0
 14 13  2  0
 16 17  1  1
 16 15  1  0
 18 16  1  0
 19 18  1  6
 20 19  1  0
 21 23  1  0
 21 19  1  0
 22 21  2  0
M  END
$$$$
