SNL.pdb
     RDKit          3D

 23 22  0  0  1  0  0  0  0  0999 V2000
   10.3613  -13.1248   20.3842 O   0  0  0  0  0  0  0  0  0  0  0  0
    9.9418  -14.0843   19.4640 C   0  0  0  0  0  0  0  0  0  0  0  0
    8.4345  -14.1629   19.3865 C   0  0  2  0  0  0  0  0  0  0  0  0
    7.9335  -12.8809   18.9372 N   0  0  0  0  0  0  0  0  0  0  0  0
    7.8490  -14.5025   20.7317 C   0  0  0  0  0  0  0  0  0  0  0  0
    7.2252  -13.6431   21.3905 O   0  0  0  0  0  0  0  0  0  0  0  0
    5.9599  -17.6996   24.4952 N   0  0  0  0  0  0  0  0  0  0  0  0
    6.7578  -18.4565   23.6279 C   0  0  0  0  0  0  0  0  0  0  0  0
    6.8077  -19.7123   23.8038 O   0  0  0  0  0  0  0  0  0  0  0  0
    7.5499  -17.8769   22.5137 C   0  0  0  0  0  0  0  0  0  0  0  0
    7.4639  -16.3581   22.4637 C   0  0  2  0  0  0  0  0  0  0  0  0
    8.0072  -15.7939   21.2451 N   0  0  0  0  0  0  0  0  0  0  0  0
    8.1091  -15.7442   23.6468 C   0  0  0  0  0  0  0  0  0  0  0  0
    9.3775  -15.5572   23.6744 O   0  0  0  0  0  0  0  0  0  0  0  0
    7.2225  -11.9496   24.9528 C   0  0  0  0  0  0  0  0  0  0  0  0
    7.1648  -12.3288   26.4726 C   0  0  1  0  0  0  0  0  0  0  0  0
    5.9075  -11.5926   26.9464 C   0  0  0  0  0  0  0  0  0  0  0  0
    7.0603  -13.8031   26.5861 C   0  0  0  0  0  0  0  0  0  0  0  0
    8.0541  -14.6221   25.8695 C   0  0  2  0  0  0  0  0  0  0  0  0
    7.3423  -15.3523   24.7676 N   0  0  0  0  0  0  0  0  0  0  0  0
    8.8458  -15.6077   26.5974 C   0  0  0  0  0  0  0  0  0  0  0  0
    9.5716  -15.1743   27.5740 O   0  0  0  0  0  0  0  0  0  0  0  0
    8.8990  -16.9770   26.3591 O   0  0  0  0  0  0  0  0  0  0  0  0
  2  3  1  0
  2  1  1  0
  3  5  1  0
  3  4  1  1
  5  6  2  0
  7  8  1  0
  8 10  1  0
  9  8  2  0
 11 10  1  6
 11 13  1  0
 12 11  1  0
 12  5  1  0
 13 20  1  0
 14 13  2  0
 16 17  1  6
 16 15  1  0
 18 16  1  0
 19 18  1  1
 20 19  1  0
 21 23  1  0
 21 19  1  0
 22 21  2  0
M  END
$$$$
