SNL.pdb
     RDKit          3D

 23 22  0  0  1  0  0  0  0  0999 V2000
    7.3679  -19.7481   18.7092 O   0  0  0  0  0  0  0  0  0  0  0  0
    7.4795  -18.4188   18.3044 C   0  0  0  0  0  0  0  0  0  0  0  0
    8.3228  -17.6114   19.2642 C   0  0  2  0  0  0  0  0  0  0  0  0
    9.4417  -18.4279   19.6860 N   0  0  0  0  0  0  0  0  0  0  0  0
    7.5119  -17.1900   20.4610 C   0  0  0  0  0  0  0  0  0  0  0  0
    6.4490  -16.5488   20.3168 O   0  0  0  0  0  0  0  0  0  0  0  0
    5.8805  -20.3474   22.6628 N   0  0  0  0  0  0  0  0  0  0  0  0
    5.7945  -19.0819   23.2568 C   0  0  0  0  0  0  0  0  0  0  0  0
    4.6611  -18.5122   23.2896 O   0  0  0  0  0  0  0  0  0  0  0  0
    6.9517  -18.3659   23.8511 C   0  0  0  0  0  0  0  0  0  0  0  0
    7.3810  -17.1618   23.0249 C   0  0  2  0  0  0  0  0  0  0  0  0
    7.9564  -17.5216   21.7450 N   0  0  0  0  0  0  0  0  0  0  0  0
    8.3128  -16.2952   23.7821 C   0  0  0  0  0  0  0  0  0  0  0  0
    9.3067  -16.8020   24.4146 O   0  0  0  0  0  0  0  0  0  0  0  0
    7.8111  -11.7505   26.9524 C   0  0  0  0  0  0  0  0  0  0  0  0
    6.7672  -12.9017   26.7480 C   0  0  1  0  0  0  0  0  0  0  0  0
    5.4326  -12.1615   26.8835 C   0  0  0  0  0  0  0  0  0  0  0  0
    6.9768  -13.4942   25.4055 C   0  0  0  0  0  0  0  0  0  0  0  0
    8.2341  -14.2236   25.1624 C   0  0  2  0  0  0  0  0  0  0  0  0
    8.1270  -14.8947   23.8236 N   0  0  0  0  0  0  0  0  0  0  0  0
    8.6859  -15.2325   26.1143 C   0  0  0  0  0  0  0  0  0  0  0  0
    9.7817  -14.9893   26.7535 O   0  0  0  0  0  0  0  0  0  0  0  0
    8.0563  -16.4347   26.4189 O   0  0  0  0  0  0  0  0  0  0  0  0
  2  3  1  0
  2  1  1  0
  3  5  1  0
  3  4  1  1
  5  6  2  0
  7  8  1  0
  8 10  1  0
  9  8  2  0
 11 10  1  1
 11 13  1  0
 12 11  1  0
 12  5  1  0
 13 20  1  0
 14 13  2  0
 16 17  1  6
 16 15  1  0
 18 16  1  0
 19 18  1  1
 20 19  1  0
 21 23  1  0
 21 19  1  0
 22 21  2  0
M  END
$$$$
