SNL.pdb
     RDKit          3D

 23 22  0  0  1  0  0  0  0  0999 V2000
    3.5702  -17.6084   22.6513 O   0  0  0  0  0  0  0  0  0  0  0  0
    4.9563  -17.4820   22.7281 C   0  0  0  0  0  0  0  0  0  0  0  0
    5.5816  -17.3451   21.3589 C   0  0  2  0  0  0  0  0  0  0  0  0
    5.4984  -18.6263   20.6894 N   0  0  0  0  0  0  0  0  0  0  0  0
    7.0202  -16.9145   21.4710 C   0  0  0  0  0  0  0  0  0  0  0  0
    7.9358  -17.7624   21.5383 O   0  0  0  0  0  0  0  0  0  0  0  0
    7.3065  -12.8157   19.0342 N   0  0  0  0  0  0  0  0  0  0  0  0
    8.3482  -13.5697   19.5891 C   0  0  0  0  0  0  0  0  0  0  0  0
    9.0213  -14.3191   18.8173 O   0  0  0  0  0  0  0  0  0  0  0  0
    8.7126  -13.5448   21.0284 C   0  0  0  0  0  0  0  0  0  0  0  0
    8.6212  -14.9182   21.6782 C   0  0  2  0  0  0  0  0  0  0  0  0
    7.3304  -15.5510   21.4999 N   0  0  0  0  0  0  0  0  0  0  0  0
    8.9693  -14.8564   23.1162 C   0  0  0  0  0  0  0  0  0  0  0  0
   10.1391  -14.4860   23.4888 O   0  0  0  0  0  0  0  0  0  0  0  0
    5.6424  -12.6342   26.6470 C   0  0  0  0  0  0  0  0  0  0  0  0
    6.9647  -13.0206   25.8993 C   0  0  1  0  0  0  0  0  0  0  0  0
    7.9555  -11.9774   26.4258 C   0  0  0  0  0  0  0  0  0  0  0  0
    7.3242  -14.4108   26.2673 C   0  0  0  0  0  0  0  0  0  0  0  0
    8.4354  -15.0509   25.5410 C   0  0  2  0  0  0  0  0  0  0  0  0
    8.0218  -15.2035   24.1059 N   0  0  0  0  0  0  0  0  0  0  0  0
    8.9432  -16.3453   25.9822 C   0  0  0  0  0  0  0  0  0  0  0  0
    8.6340  -17.3742   25.2650 O   0  0  0  0  0  0  0  0  0  0  0  0
    9.7385  -16.5951   27.0957 O   0  0  0  0  0  0  0  0  0  0  0  0
  2  3  1  0
  2  1  1  0
  3  5  1  0
  3  4  1  1
  5  6  2  0
  7  8  1  0
  8 10  1  0
  9  8  2  0
 11 10  1  1
 11 13  1  0
 12 11  1  0
 12  5  1  0
 13 20  1  0
 14 13  2  0
 16 17  1  1
 16 15  1  0
 18 16  1  0
 19 18  1  1
 20 19  1  0
 21 23  1  0
 21 19  1  0
 22 21  2  0
M  END
$$$$
