SNL.pdb
     RDKit          3D

 23 22  0  0  1  0  0  0  0  0999 V2000
    6.2034  -17.6293   24.3700 O   0  0  0  0  0  0  0  0  0  0  0  0
    5.3280  -18.1296   23.4074 C   0  0  0  0  0  0  0  0  0  0  0  0
    5.8152  -17.8421   22.0058 C   0  0  2  0  0  0  0  0  0  0  0  0
    5.7803  -19.0759   21.2489 N   0  0  0  0  0  0  0  0  0  0  0  0
    7.2169  -17.2924   22.0315 C   0  0  0  0  0  0  0  0  0  0  0  0
    8.2009  -18.0593   22.1045 O   0  0  0  0  0  0  0  0  0  0  0  0
    6.9947  -13.4012   19.4107 N   0  0  0  0  0  0  0  0  0  0  0  0
    8.1729  -13.9605   19.9213 C   0  0  0  0  0  0  0  0  0  0  0  0
    8.9142  -14.6196   19.1299 O   0  0  0  0  0  0  0  0  0  0  0  0
    8.6071  -13.8283   21.3352 C   0  0  0  0  0  0  0  0  0  0  0  0
    8.6557  -15.1663   22.0592 C   0  0  2  0  0  0  0  0  0  0  0  0
    7.4150  -15.9091   21.9729 N   0  0  0  0  0  0  0  0  0  0  0  0
    9.0562  -14.9970   23.4747 C   0  0  0  0  0  0  0  0  0  0  0  0
   10.2205  -14.5505   23.7742 O   0  0  0  0  0  0  0  0  0  0  0  0
    5.7899  -12.6934   26.8825 C   0  0  0  0  0  0  0  0  0  0  0  0
    7.1289  -13.0773   26.1638 C   0  0  1  0  0  0  0  0  0  0  0  0
    8.0613  -11.9335   26.5757 C   0  0  0  0  0  0  0  0  0  0  0  0
    7.5680  -14.4021   26.6632 C   0  0  0  0  0  0  0  0  0  0  0  0
    8.6414  -15.0948   25.9285 C   0  0  2  0  0  0  0  0  0  0  0  0
    8.1659  -15.3231   24.5229 N   0  0  0  0  0  0  0  0  0  0  0  0
    9.1556  -16.3682   26.4207 C   0  0  0  0  0  0  0  0  0  0  0  0
    8.8991  -17.4188   25.7145 O   0  0  0  0  0  0  0  0  0  0  0  0
    9.9064  -16.5764   27.5729 O   0  0  0  0  0  0  0  0  0  0  0  0
  2  3  1  0
  2  1  1  0
  3  5  1  0
  3  4  1  6
  5  6  2  0
  7  8  1  0
  8 10  1  0
  9  8  2  0
 11 10  1  1
 11 13  1  0
 12 11  1  0
 12  5  1  0
 13 20  1  0
 14 13  2  0
 16 17  1  1
 16 15  1  0
 18 16  1  0
 19 18  1  1
 20 19  1  0
 21 23  1  0
 21 19  1  0
 22 21  2  0
M  END
$$$$
