SNL.pdb
     RDKit          3D

 23 22  0  0  1  0  0  0  0  0999 V2000
    8.7682  -12.8748   20.7223 O   0  0  0  0  0  0  0  0  0  0  0  0
    7.7052  -13.4066   19.9939 C   0  0  0  0  0  0  0  0  0  0  0  0
    7.7833  -14.9138   19.9110 C   0  0  2  0  0  0  0  0  0  0  0  0
    6.6628  -15.3858   19.1249 N   0  0  0  0  0  0  0  0  0  0  0  0
    7.7424  -15.5256   21.2864 C   0  0  0  0  0  0  0  0  0  0  0  0
    6.6506  -15.7552   21.8495 O   0  0  0  0  0  0  0  0  0  0  0  0
    9.6838  -19.3617   24.8838 N   0  0  0  0  0  0  0  0  0  0  0  0
   10.4074  -18.2278   24.4937 C   0  0  0  0  0  0  0  0  0  0  0  0
   11.2595  -17.7533   25.3056 O   0  0  0  0  0  0  0  0  0  0  0  0
   10.2369  -17.5466   23.1853 C   0  0  0  0  0  0  0  0  0  0  0  0
    9.1350  -16.4968   23.2122 C   0  0  2  0  0  0  0  0  0  0  0  0
    8.9406  -15.8384   21.9365 N   0  0  0  0  0  0  0  0  0  0  0  0
    9.3730  -15.4952   24.2766 C   0  0  0  0  0  0  0  0  0  0  0  0
   10.3836  -14.7080   24.2174 O   0  0  0  0  0  0  0  0  0  0  0  0
    5.6626  -12.2065   26.3012 C   0  0  0  0  0  0  0  0  0  0  0  0
    7.0068  -12.7894   25.7444 C   0  0  1  0  0  0  0  0  0  0  0  0
    7.8162  -11.5223   25.4499 C   0  0  0  0  0  0  0  0  0  0  0  0
    7.6164  -13.6466   26.7889 C   0  0  0  0  0  0  0  0  0  0  0  0
    8.8423  -14.3880   26.4434 C   0  0  2  0  0  0  0  0  0  0  0  0
    8.4934  -15.3861   25.3776 N   0  0  0  0  0  0  0  0  0  0  0  0
    9.5756  -15.1052   27.4807 C   0  0  0  0  0  0  0  0  0  0  0  0
    9.4949  -16.3943   27.4740 O   0  0  0  0  0  0  0  0  0  0  0  0
   10.3669  -14.5491   28.4804 O   0  0  0  0  0  0  0  0  0  0  0  0
  2  3  1  0
  2  1  1  0
  3  5  1  0
  3  4  1  6
  5  6  2  0
  7  8  1  0
  8 10  1  0
  9  8  2  0
 11 10  1  6
 11 13  1  0
 12 11  1  0
 12  5  1  0
 13 20  1  0
 14 13  2  0
 16 17  1  1
 16 15  1  0
 18 16  1  0
 19 18  1  1
 20 19  1  0
 21 23  1  0
 21 19  1  0
 22 21  2  0
M  END
$$$$
