SNL.pdb
     RDKit          3D

 23 22  0  0  1  0  0  0  0  0999 V2000
    9.1670  -11.9626   20.7172 O   0  0  0  0  0  0  0  0  0  0  0  0
    8.1782  -12.2400   19.7746 C   0  0  0  0  0  0  0  0  0  0  0  0
    8.2475  -13.6723   19.2971 C   0  0  2  0  0  0  0  0  0  0  0  0
    7.2272  -13.8666   18.2883 N   0  0  0  0  0  0  0  0  0  0  0  0
    8.0294  -14.6264   20.4415 C   0  0  0  0  0  0  0  0  0  0  0  0
    6.8756  -14.8777   20.8506 O   0  0  0  0  0  0  0  0  0  0  0  0
    9.5188  -19.7113   21.3898 N   0  0  0  0  0  0  0  0  0  0  0  0
    9.7347  -18.6589   22.2884 C   0  0  0  0  0  0  0  0  0  0  0  0
    9.5141  -18.8693   23.5203 O   0  0  0  0  0  0  0  0  0  0  0  0
   10.2067  -17.3099   21.8855 C   0  0  0  0  0  0  0  0  0  0  0  0
    9.1518  -16.2336   22.0993 C   0  0  2  0  0  0  0  0  0  0  0  0
    9.1319  -15.2353   21.0498 N   0  0  0  0  0  0  0  0  0  0  0  0
    9.3055  -15.5860   23.4221 C   0  0  0  0  0  0  0  0  0  0  0  0
   10.3519  -14.8959   23.6929 O   0  0  0  0  0  0  0  0  0  0  0  0
    5.6504  -12.5068   25.9440 C   0  0  0  0  0  0  0  0  0  0  0  0
    7.0566  -13.0155   25.4743 C   0  0  1  0  0  0  0  0  0  0  0  0
    7.9884  -11.9031   25.9660 C   0  0  0  0  0  0  0  0  0  0  0  0
    7.3198  -14.3273   26.1125 C   0  0  0  0  0  0  0  0  0  0  0  0
    8.5498  -15.0446   25.7327 C   0  0  2  0  0  0  0  0  0  0  0  0
    8.3044  -15.7144   24.4116 N   0  0  0  0  0  0  0  0  0  0  0  0
    9.1112  -16.0508   26.6273 C   0  0  0  0  0  0  0  0  0  0  0  0
    9.4819  -15.6547   27.7996 O   0  0  0  0  0  0  0  0  0  0  0  0
    9.2849  -17.4043   26.3580 O   0  0  0  0  0  0  0  0  0  0  0  0
  2  3  1  0
  2  1  1  0
  3  5  1  0
  3  4  1  6
  5  6  2  0
  7  8  1  0
  8 10  1  0
  9  8  2  0
 11 10  1  6
 11 13  1  0
 12 11  1  0
 12  5  1  0
 13 20  1  0
 14 13  2  0
 16 17  1  1
 16 15  1  0
 18 16  1  0
 19 18  1  1
 20 19  1  0
 21 23  1  0
 21 19  1  0
 22 21  2  0
M  END
$$$$
