SNL.pdb
     RDKit          3D

 23 22  0  0  1  0  0  0  0  0999 V2000
    8.3685  -11.9422   20.1298 O   0  0  0  0  0  0  0  0  0  0  0  0
    9.0671  -12.7395   19.2245 C   0  0  0  0  0  0  0  0  0  0  0  0
    8.3861  -14.0719   19.0121 C   0  0  2  0  0  0  0  0  0  0  0  0
    7.0633  -13.8277   18.4762 N   0  0  0  0  0  0  0  0  0  0  0  0
    8.2850  -14.8311   20.3086 C   0  0  0  0  0  0  0  0  0  0  0  0
    7.2222  -14.8311   20.9660 O   0  0  0  0  0  0  0  0  0  0  0  0
    9.9824  -19.2837   23.3249 N   0  0  0  0  0  0  0  0  0  0  0  0
   10.7979  -18.1604   23.1386 C   0  0  0  0  0  0  0  0  0  0  0  0
   11.6459  -17.8805   24.0403 O   0  0  0  0  0  0  0  0  0  0  0  0
   10.7297  -17.2760   21.9476 C   0  0  0  0  0  0  0  0  0  0  0  0
    9.5052  -16.3720   21.9604 C   0  0  2  0  0  0  0  0  0  0  0  0
    9.3942  -15.5421   20.7783 N   0  0  0  0  0  0  0  0  0  0  0  0
    9.4678  -15.5352   23.1815 C   0  0  0  0  0  0  0  0  0  0  0  0
   10.2613  -14.5362   23.3121 O   0  0  0  0  0  0  0  0  0  0  0  0
    8.1796  -11.9089   26.3818 C   0  0  0  0  0  0  0  0  0  0  0  0
    7.2425  -13.1494   26.5815 C   0  0  1  0  0  0  0  0  0  0  0  0
    5.8521  -12.5069   26.6187 C   0  0  0  0  0  0  0  0  0  0  0  0
    7.4330  -14.0721   25.4371 C   0  0  0  0  0  0  0  0  0  0  0  0
    8.6178  -14.9484   25.4477 C   0  0  2  0  0  0  0  0  0  0  0  0
    8.5590  -15.8191   24.2261 N   0  0  0  0  0  0  0  0  0  0  0  0
    8.8654  -15.8236   26.5882 C   0  0  0  0  0  0  0  0  0  0  0  0
    8.2734  -16.9717   26.5883 O   0  0  0  0  0  0  0  0  0  0  0  0
    9.6833  -15.5593   27.6817 O   0  0  0  0  0  0  0  0  0  0  0  0
  2  3  1  0
  2  1  1  0
  3  5  1  0
  3  4  1  1
  5  6  2  0
  7  8  1  0
  8 10  1  0
  9  8  2  0
 11 10  1  6
 11 13  1  0
 12 11  1  0
 12  5  1  0
 13 20  1  0
 14 13  2  0
 16 17  1  6
 16 15  1  0
 18 16  1  0
 19 18  1  1
 20 19  1  0
 21 23  1  0
 21 19  1  0
 22 21  2  0
M  END
$$$$
