SNL.pdb
     RDKit          3D

 23 22  0  0  1  0  0  0  0  0999 V2000
    9.2779  -11.9695   18.2586 O   0  0  0  0  0  0  0  0  0  0  0  0
    8.7525  -12.6663   19.3457 C   0  0  0  0  0  0  0  0  0  0  0  0
    8.5689  -14.1335   19.0330 C   0  0  2  0  0  0  0  0  0  0  0  0
    7.4278  -14.2729   18.1527 N   0  0  0  0  0  0  0  0  0  0  0  0
    8.3456  -14.9233   20.2955 C   0  0  0  0  0  0  0  0  0  0  0  0
    7.2023  -15.0251   20.7897 O   0  0  0  0  0  0  0  0  0  0  0  0
    9.6578  -19.5181   21.1785 N   0  0  0  0  0  0  0  0  0  0  0  0
   10.4667  -18.3781   21.0909 C   0  0  0  0  0  0  0  0  0  0  0  0
   11.1431  -18.2044   20.0313 O   0  0  0  0  0  0  0  0  0  0  0  0
   10.5804  -17.3592   22.1651 C   0  0  0  0  0  0  0  0  0  0  0  0
    9.4481  -16.3428   22.1288 C   0  0  2  0  0  0  0  0  0  0  0  0
    9.4314  -15.5475   20.9181 N   0  0  0  0  0  0  0  0  0  0  0  0
    9.4762  -15.4643   23.3206 C   0  0  0  0  0  0  0  0  0  0  0  0
   10.3665  -14.5485   23.4350 O   0  0  0  0  0  0  0  0  0  0  0  0
    5.9001  -11.7705   25.7364 C   0  0  0  0  0  0  0  0  0  0  0  0
    7.1813  -12.5642   26.1671 C   0  0  1  0  0  0  0  0  0  0  0  0
    6.8408  -12.9822   27.6013 C   0  0  0  0  0  0  0  0  0  0  0  0
    7.3553  -13.7125   25.2460 C   0  0  0  0  0  0  0  0  0  0  0  0
    8.5235  -14.5879   25.4482 C   0  0  2  0  0  0  0  0  0  0  0  0
    8.5246  -15.6164   24.3546 N   0  0  0  0  0  0  0  0  0  0  0  0
    8.6884  -15.3014   26.7099 C   0  0  0  0  0  0  0  0  0  0  0  0
    8.1637  -16.4788   26.7928 O   0  0  0  0  0  0  0  0  0  0  0  0
    9.3623  -14.8532   27.8410 O   0  0  0  0  0  0  0  0  0  0  0  0
  2  3  1  0
  2  1  1  0
  3  5  1  0
  3  4  1  6
  5  6  2  0
  7  8  1  0
  8 10  1  0
  9  8  2  0
 11 10  1  6
 11 13  1  0
 12 11  1  0
 12  5  1  0
 13 20  1  0
 14 13  2  0
 16 17  1  1
 16 15  1  0
 18 16  1  0
 19 18  1  1
 20 19  1  0
 21 23  1  0
 21 19  1  0
 22 21  2  0
M  END
$$$$
