MSR.pdb
     RDKit          3D

 26 25  0  0  1  0  0  0  0  0999 V2000
    9.1049  -14.9586   16.2637 C   0  0  0  0  0  0  0  0  0  0  0  0
    7.3931  -14.4676   16.6868 S   0  0  0  0  0  0  0  0  0  0  0  0
    7.4759  -13.2780   18.0784 C   0  0  0  0  0  0  0  0  0  0  0  0
    8.1440  -13.9776   19.2283 C   0  0  0  0  0  0  0  0  0  0  0  0
    7.2194  -14.5704   20.2366 C   0  0  2  0  0  0  0  0  0  0  0  0
    6.4854  -13.5215   20.9545 N   0  0  0  0  0  0  0  0  0  0  0  0
    7.9576  -15.3514   21.2492 C   0  0  0  0  0  0  0  0  0  0  0  0
    8.5089  -14.7590   22.2361 O   0  0  0  0  0  0  0  0  0  0  0  0
    8.2652  -19.5207   21.1943 O   0  0  0  0  0  0  0  0  0  0  0  0
    8.3707  -18.8342   22.3839 C   0  0  0  0  0  0  0  0  0  0  0  0
    8.9390  -17.4540   22.0970 C   0  0  2  0  0  0  0  0  0  0  0  0
    8.0757  -16.7416   21.1633 N   0  0  0  0  0  0  0  0  0  0  0  0
   10.3316  -17.4816   21.6202 C   0  0  0  0  0  0  0  0  0  0  0  0
   10.5179  -17.7762   20.4006 O   0  0  0  0  0  0  0  0  0  0  0  0
   16.6730  -15.1136   17.3689 N   0  0  0  0  0  0  0  0  0  0  0  0
   16.6986  -14.0265   18.2782 C   0  0  0  0  0  0  0  0  0  0  0  0
   17.3161  -12.9566   17.9063 N   0  0  0  0  0  0  0  0  0  0  0  0
   16.0555  -14.1532   19.5405 N   0  0  0  0  0  0  0  0  0  0  0  0
   14.6978  -14.5834   19.6082 C   0  0  0  0  0  0  0  0  0  0  0  0
   14.4340  -15.8189   20.3902 C   0  0  0  0  0  0  0  0  0  0  0  0
   13.0933  -15.9860   20.9846 C   0  0  0  0  0  0  0  0  0  0  0  0
   12.8443  -17.1871   21.8170 C   0  0  2  0  0  0  0  0  0  0  0  0
   11.4902  -17.2146   22.3737 N   0  0  0  0  0  0  0  0  0  0  0  0
   13.8709  -17.5279   22.8145 C   0  0  0  0  0  0  0  0  0  0  0  0
   15.0473  -17.7130   22.4211 O   0  0  0  0  0  0  0  0  0  0  0  0
   13.6286  -17.6580   24.1678 O   0  0  0  0  0  0  0  0  0  0  0  0
  2  1  1  0
  3  2  1  0
  3  4  1  0
  4  5  1  0
  5  7  1  0
  5  6  1  1
  7  8  2  0
  9 10  1  0
 11 10  1  6
 12 11  1  0
 12  7  1  0
 13 11  1  0
 14 13  2  0
 16 15  1  0
 17 16  2  0
 18 16  1  0
 19 20  1  0
 19 18  1  0
 20 21  1  0
 22 21  1  1
 22 23  1  0
 23 13  1  0
 24 26  1  0
 24 22  1  0
 25 24  2  0
M  END
$$$$
