MSR.pdb
     RDKit          3D

 26 25  0  0  1  0  0  0  0  0999 V2000
    7.7152  -12.7341   21.2696 C   0  0  0  0  0  0  0  0  0  0  0  0
    7.7412  -11.9457   19.6178 S   0  0  0  0  0  0  0  0  0  0  0  0
    7.5815  -13.2685   18.3595 C   0  0  0  0  0  0  0  0  0  0  0  0
    7.8261  -14.5793   19.0523 C   0  0  0  0  0  0  0  0  0  0  0  0
    9.1465  -15.2117   18.7701 C   0  0  2  0  0  0  0  0  0  0  0  0
    9.2322  -15.6424   17.3696 N   0  0  0  0  0  0  0  0  0  0  0  0
    9.3572  -16.4115   19.6046 C   0  0  0  0  0  0  0  0  0  0  0  0
    8.9883  -16.4130   20.8264 O   0  0  0  0  0  0  0  0  0  0  0  0
   12.1997  -19.3194   18.8748 O   0  0  0  0  0  0  0  0  0  0  0  0
   10.9520  -19.7913   19.2190 C   0  0  0  0  0  0  0  0  0  0  0  0
   10.2136  -18.6989   19.9751 C   0  0  2  0  0  0  0  0  0  0  0  0
    9.9571  -17.5663   19.0942 N   0  0  0  0  0  0  0  0  0  0  0  0
   10.8995  -18.2721   21.2057 C   0  0  0  0  0  0  0  0  0  0  0  0
   11.7747  -17.3610   21.0919 O   0  0  0  0  0  0  0  0  0  0  0  0
    9.0521  -13.7614   27.9721 N   0  0  0  0  0  0  0  0  0  0  0  0
   10.1675  -14.4267   28.5401 C   0  0  0  0  0  0  0  0  0  0  0  0
   10.5524  -14.0455   29.7109 N   0  0  0  0  0  0  0  0  0  0  0  0
   10.8071  -15.4686   27.8131 N   0  0  0  0  0  0  0  0  0  0  0  0
   10.2603  -15.9113   26.5730 C   0  0  0  0  0  0  0  0  0  0  0  0
   11.0788  -16.8788   25.7973 C   0  0  0  0  0  0  0  0  0  0  0  0
   10.5295  -17.3812   24.5227 C   0  0  0  0  0  0  0  0  0  0  0  0
   11.3831  -18.2682   23.6969 C   0  0  2  0  0  0  0  0  0  0  0  0
   10.6904  -18.7668   22.5070 N   0  0  0  0  0  0  0  0  0  0  0  0
   12.1209  -19.3265   24.4045 C   0  0  0  0  0  0  0  0  0  0  0  0
   13.0543  -18.9921   25.1726 O   0  0  0  0  0  0  0  0  0  0  0  0
   11.8542  -20.6759   24.2830 O   0  0  0  0  0  0  0  0  0  0  0  0
  2  1  1  0
  3  2  1  0
  3  4  1  0
  4  5  1  0
  5  7  1  0
  5  6  1  6
  7  8  2  0
  9 10  1  0
 11 10  1  6
 12 11  1  0
 12  7  1  0
 13 11  1  0
 14 13  2  0
 16 15  1  0
 17 16  2  0
 18 16  1  0
 19 20  1  0
 19 18  1  0
 20 21  1  0
 22 21  1  1
 22 23  1  0
 23 13  1  0
 24 26  1  0
 24 22  1  0
 25 24  2  0
M  END
$$$$
