MSR.pdb
     RDKit          3D

 26 25  0  0  1  0  0  0  0  0999 V2000
    5.8202  -23.9379   26.5713 C   0  0  0  0  0  0  0  0  0  0  0  0
    6.3053  -22.3080   25.8941 S   0  0  0  0  0  0  0  0  0  0  0  0
    5.9106  -22.3014   24.1044 C   0  0  0  0  0  0  0  0  0  0  0  0
    6.3305  -20.9666   23.5567 C   0  0  0  0  0  0  0  0  0  0  0  0
    5.4396  -19.8246   23.9105 C   0  0  2  0  0  0  0  0  0  0  0  0
    4.3178  -19.7246   22.9694 N   0  0  0  0  0  0  0  0  0  0  0  0
    6.1653  -18.5398   23.8556 C   0  0  0  0  0  0  0  0  0  0  0  0
    6.0932  -17.8091   22.8118 O   0  0  0  0  0  0  0  0  0  0  0  0
    8.2776  -16.9597   27.0870 O   0  0  0  0  0  0  0  0  0  0  0  0
    7.6676  -16.1227   26.1786 C   0  0  0  0  0  0  0  0  0  0  0  0
    7.6431  -16.8138   24.8251 C   0  0  2  0  0  0  0  0  0  0  0  0
    6.9422  -18.0877   24.9262 N   0  0  0  0  0  0  0  0  0  0  0  0
    8.9792  -16.9864   24.2314 C   0  0  0  0  0  0  0  0  0  0  0  0
    9.5358  -18.1162   24.3823 O   0  0  0  0  0  0  0  0  0  0  0  0
    8.8774  -11.7242   18.7991 N   0  0  0  0  0  0  0  0  0  0  0  0
    8.1174  -12.9160   18.6921 C   0  0  0  0  0  0  0  0  0  0  0  0
    6.9443  -12.8259   18.1630 N   0  0  0  0  0  0  0  0  0  0  0  0
    8.6656  -14.1414   19.1622 N   0  0  0  0  0  0  0  0  0  0  0  0
    9.6362  -14.1333   20.2066 C   0  0  0  0  0  0  0  0  0  0  0  0
   10.1489  -15.4578   20.6430 C   0  0  0  0  0  0  0  0  0  0  0  0
   11.2234  -15.4825   21.6548 C   0  0  0  0  0  0  0  0  0  0  0  0
   11.0105  -16.2914   22.8786 C   0  0  2  0  0  0  0  0  0  0  0  0
    9.7146  -16.0287   23.5079 N   0  0  0  0  0  0  0  0  0  0  0  0
   12.1133  -16.3256   23.8521 C   0  0  0  0  0  0  0  0  0  0  0  0
   11.8936  -15.9178   25.0175 O   0  0  0  0  0  0  0  0  0  0  0  0
   13.3861  -16.7816   23.5708 O   0  0  0  0  0  0  0  0  0  0  0  0
  2  1  1  0
  3  2  1  0
  3  4  1  0
  4  5  1  0
  5  7  1  0
  5  6  1  6
  7  8  2  0
  9 10  1  0
 11 10  1  1
 12 11  1  0
 12  7  1  0
 13 11  1  0
 14 13  2  0
 16 15  1  0
 17 16  2  0
 18 16  1  0
 19 20  1  0
 19 18  1  0
 20 21  1  0
 22 21  1  6
 22 23  1  0
 23 13  1  0
 24 26  1  0
 24 22  1  0
 25 24  2  0
M  END
$$$$
