MSR.pdb
     RDKit          3D

 26 25  0  0  1  0  0  0  0  0999 V2000
    7.4267  -11.4247   25.6178 C   0  0  0  0  0  0  0  0  0  0  0  0
    6.4532  -12.3071   26.8923 S   0  0  0  0  0  0  0  0  0  0  0  0
    5.9006  -13.9009   26.1759 C   0  0  0  0  0  0  0  0  0  0  0  0
    7.0827  -14.5143   25.4799 C   0  0  0  0  0  0  0  0  0  0  0  0
    6.8077  -15.7950   24.7675 C   0  0  2  0  0  0  0  0  0  0  0  0
    6.1804  -16.7704   25.6671 N   0  0  0  0  0  0  0  0  0  0  0  0
    8.0531  -16.4089   24.2654 C   0  0  0  0  0  0  0  0  0  0  0  0
    8.6404  -17.3132   24.9482 O   0  0  0  0  0  0  0  0  0  0  0  0
   10.1846  -14.9720   21.0108 O   0  0  0  0  0  0  0  0  0  0  0  0
   10.0719  -16.3414   21.1090 C   0  0  0  0  0  0  0  0  0  0  0  0
    9.8197  -16.7028   22.5637 C   0  0  2  0  0  0  0  0  0  0  0  0
    8.6216  -16.0277   23.0465 N   0  0  0  0  0  0  0  0  0  0  0  0
   10.9714  -16.4369   23.4413 C   0  0  0  0  0  0  0  0  0  0  0  0
   10.7848  -15.6436   24.4133 O   0  0  0  0  0  0  0  0  0  0  0  0
   13.1532  -19.6074   31.0807 N   0  0  0  0  0  0  0  0  0  0  0  0
   12.3193  -19.9747   29.9949 C   0  0  0  0  0  0  0  0  0  0  0  0
   11.0979  -20.2899   30.2652 N   0  0  0  0  0  0  0  0  0  0  0  0
   12.8495  -19.9814   28.6750 N   0  0  0  0  0  0  0  0  0  0  0  0
   12.2451  -19.1823   27.6606 C   0  0  0  0  0  0  0  0  0  0  0  0
   12.8364  -19.2812   26.3010 C   0  0  0  0  0  0  0  0  0  0  0  0
   12.1848  -18.5316   25.2091 C   0  0  0  0  0  0  0  0  0  0  0  0
   13.0107  -17.5827   24.4251 C   0  0  2  0  0  0  0  0  0  0  0  0
   12.2686  -16.9702   23.3213 N   0  0  0  0  0  0  0  0  0  0  0  0
   14.3470  -18.0449   24.0180 C   0  0  0  0  0  0  0  0  0  0  0  0
   15.3370  -17.6804   24.6962 O   0  0  0  0  0  0  0  0  0  0  0  0
   14.5906  -18.8620   22.9317 O   0  0  0  0  0  0  0  0  0  0  0  0
  2  1  1  0
  3  2  1  0
  3  4  1  0
  4  5  1  0
  5  7  1  0
  5  6  1  1
  7  8  2  0
  9 10  1  0
 11 10  1  6
 12 11  1  0
 12  7  1  0
 13 11  1  0
 14 13  2  0
 16 15  1  0
 17 16  2  0
 18 16  1  0
 19 20  1  0
 19 18  1  0
 20 21  1  0
 22 21  1  6
 22 23  1  0
 23 13  1  0
 24 26  1  0
 24 22  1  0
 25 24  2  0
M  END
$$$$
