MSR.pdb
     RDKit          3D

 26 25  0  0  1  0  0  0  0  0999 V2000
    5.9792  -11.9518   28.1579 C   0  0  0  0  0  0  0  0  0  0  0  0
    6.4025  -11.0666   26.6127 S   0  0  0  0  0  0  0  0  0  0  0  0
    7.0221  -12.3009   25.4080 C   0  0  0  0  0  0  0  0  0  0  0  0
    6.5504  -13.6520   25.8663 C   0  0  0  0  0  0  0  0  0  0  0  0
    6.8854  -14.7853   24.9571 C   0  0  2  0  0  0  0  0  0  0  0  0
    6.3064  -16.0407   25.4499 N   0  0  0  0  0  0  0  0  0  0  0  0
    8.3451  -14.9888   24.8672 C   0  0  0  0  0  0  0  0  0  0  0  0
    9.0925  -14.0623   24.4070 O   0  0  0  0  0  0  0  0  0  0  0  0
   10.1836  -17.9269   26.8504 O   0  0  0  0  0  0  0  0  0  0  0  0
   10.9975  -16.9226   26.3742 C   0  0  0  0  0  0  0  0  0  0  0  0
   10.3832  -16.3653   25.1005 C   0  0  2  0  0  0  0  0  0  0  0  0
    8.9479  -16.1820   25.2759 N   0  0  0  0  0  0  0  0  0  0  0  0
   10.6749  -17.1755   23.9065 C   0  0  0  0  0  0  0  0  0  0  0  0
   11.6242  -18.0121   23.9950 O   0  0  0  0  0  0  0  0  0  0  0  0
    8.5652  -15.4853   17.5385 N   0  0  0  0  0  0  0  0  0  0  0  0
    8.2772  -14.0975   17.5601 C   0  0  0  0  0  0  0  0  0  0  0  0
    8.2290  -13.4840   16.4263 N   0  0  0  0  0  0  0  0  0  0  0  0
    8.0565  -13.4467   18.8055 N   0  0  0  0  0  0  0  0  0  0  0  0
    9.1367  -13.2731   19.7198 C   0  0  0  0  0  0  0  0  0  0  0  0
    9.9869  -14.4652   19.9726 C   0  0  0  0  0  0  0  0  0  0  0  0
    9.9272  -15.0838   21.3115 C   0  0  0  0  0  0  0  0  0  0  0  0
   10.5270  -16.4280   21.4860 C   0  0  2  0  0  0  0  0  0  0  0  0
   10.0114  -17.1251   22.6660 N   0  0  0  0  0  0  0  0  0  0  0  0
   11.9910  -16.5219   21.3707 C   0  0  0  0  0  0  0  0  0  0  0  0
   12.4737  -17.3186   20.5310 O   0  0  0  0  0  0  0  0  0  0  0  0
   12.8802  -15.7856   22.1283 O   0  0  0  0  0  0  0  0  0  0  0  0
  2  1  1  0
  3  2  1  0
  3  4  1  0
  4  5  1  0
  5  7  1  0
  5  6  1  1
  7  8  2  0
  9 10  1  0
 11 10  1  1
 12 11  1  0
 12  7  1  0
 13 11  1  0
 14 13  2  0
 16 15  1  0
 17 16  2  0
 18 16  1  0
 19 20  1  0
 19 18  1  0
 20 21  1  0
 22 21  1  1
 22 23  1  0
 23 13  1  0
 24 26  1  0
 24 22  1  0
 25 24  2  0
M  END
$$$$
