MSR.pdb
     RDKit          3D

 26 25  0  0  1  0  0  0  0  0999 V2000
    5.5376  -12.6658   17.1008 C   0  0  0  0  0  0  0  0  0  0  0  0
    7.2887  -12.4154   17.5718 S   0  0  0  0  0  0  0  0  0  0  0  0
    8.0289  -14.0624   17.8849 C   0  0  0  0  0  0  0  0  0  0  0  0
    8.4101  -14.1149   19.3374 C   0  0  0  0  0  0  0  0  0  0  0  0
    7.8234  -15.2479   20.1089 C   0  0  2  0  0  0  0  0  0  0  0  0
    6.3667  -15.1073   20.2196 N   0  0  0  0  0  0  0  0  0  0  0  0
    8.3586  -15.2958   21.4843 C   0  0  0  0  0  0  0  0  0  0  0  0
    8.0372  -14.3929   22.3270 O   0  0  0  0  0  0  0  0  0  0  0  0
    8.4390  -17.9339   23.9838 O   0  0  0  0  0  0  0  0  0  0  0  0
    8.8980  -16.6730   24.2954 C   0  0  0  0  0  0  0  0  0  0  0  0
    9.8626  -16.2272   23.2086 C   0  0  2  0  0  0  0  0  0  0  0  0
    9.2202  -16.3138   21.9031 N   0  0  0  0  0  0  0  0  0  0  0  0
   11.1401  -16.9587   23.2234 C   0  0  0  0  0  0  0  0  0  0  0  0
   11.3672  -17.7426   22.2523 O   0  0  0  0  0  0  0  0  0  0  0  0
   18.4614  -12.9870   20.3034 N   0  0  0  0  0  0  0  0  0  0  0  0
   17.2792  -13.7632   20.2072 C   0  0  0  0  0  0  0  0  0  0  0  0
   16.6781  -13.7896   19.0661 N   0  0  0  0  0  0  0  0  0  0  0  0
   16.8097  -14.4696   21.3490 N   0  0  0  0  0  0  0  0  0  0  0  0
   15.8896  -15.5473   21.1912 C   0  0  0  0  0  0  0  0  0  0  0  0
   15.4637  -16.2405   22.4345 C   0  0  0  0  0  0  0  0  0  0  0  0
   14.0269  -16.2307   22.7724 C   0  0  0  0  0  0  0  0  0  0  0  0
   13.5766  -17.0433   23.9275 C   0  0  2  0  0  0  0  0  0  0  0  0
   12.1474  -16.8843   24.2039 N   0  0  0  0  0  0  0  0  0  0  0  0
   14.3974  -16.9759   25.1469 C   0  0  0  0  0  0  0  0  0  0  0  0
   13.9536  -16.3370   26.1306 O   0  0  0  0  0  0  0  0  0  0  0  0
   15.6341  -17.5743   25.2869 O   0  0  0  0  0  0  0  0  0  0  0  0
  2  1  1  0
  3  2  1  0
  3  4  1  0
  4  5  1  0
  5  7  1  0
  5  6  1  1
  7  8  2  0
  9 10  1  0
 11 10  1  1
 12 11  1  0
 12  7  1  0
 13 11  1  0
 14 13  2  0
 16 15  1  0
 17 16  2  0
 18 16  1  0
 19 20  1  0
 19 18  1  0
 20 21  1  0
 22 21  1  6
 22 23  1  0
 23 13  1  0
 24 26  1  0
 24 22  1  0
 25 24  2  0
M  END
$$$$
