MSR.pdb
     RDKit          3D

 26 25  0  0  1  0  0  0  0  0999 V2000
    8.7236  -12.1375   26.8124 C   0  0  0  0  0  0  0  0  0  0  0  0
    6.8996  -11.9984   26.7462 S   0  0  0  0  0  0  0  0  0  0  0  0
    6.2784  -13.2797   25.5924 C   0  0  0  0  0  0  0  0  0  0  0  0
    7.3309  -14.3481   25.4987 C   0  0  0  0  0  0  0  0  0  0  0  0
    7.0618  -15.4206   24.4985 C   0  0  2  0  0  0  0  0  0  0  0  0
    5.8063  -16.1174   24.8028 N   0  0  0  0  0  0  0  0  0  0  0  0
    8.1319  -16.4379   24.5002 C   0  0  0  0  0  0  0  0  0  0  0  0
    8.1124  -17.3846   25.3560 O   0  0  0  0  0  0  0  0  0  0  0  0
   11.8005  -16.1827   22.4894 O   0  0  0  0  0  0  0  0  0  0  0  0
   11.0623  -17.3355   22.3345 C   0  0  0  0  0  0  0  0  0  0  0  0
   10.1498  -17.4910   23.5401 C   0  0  2  0  0  0  0  0  0  0  0  0
    9.1843  -16.3999   23.5809 N   0  0  0  0  0  0  0  0  0  0  0  0
   10.8778  -17.6063   24.8145 C   0  0  0  0  0  0  0  0  0  0  0  0
   11.0958  -16.5324   25.4534 O   0  0  0  0  0  0  0  0  0  0  0  0
   13.6438  -22.7971   30.8044 N   0  0  0  0  0  0  0  0  0  0  0  0
   13.4919  -21.5121   31.3834 C   0  0  0  0  0  0  0  0  0  0  0  0
   14.5040  -21.0237   32.0169 N   0  0  0  0  0  0  0  0  0  0  0  0
   12.2549  -20.8234   31.2468 N   0  0  0  0  0  0  0  0  0  0  0  0
   11.6086  -20.7651   29.9773 C   0  0  0  0  0  0  0  0  0  0  0  0
   12.1882  -19.8255   28.9828 C   0  0  0  0  0  0  0  0  0  0  0  0
   11.5785  -19.7802   27.6393 C   0  0  0  0  0  0  0  0  0  0  0  0
   12.1340  -18.8229   26.6533 C   0  0  2  0  0  0  0  0  0  0  0  0
   11.3630  -18.7864   25.4089 N   0  0  0  0  0  0  0  0  0  0  0  0
   13.5850  -18.8812   26.4160 C   0  0  0  0  0  0  0  0  0  0  0  0
   14.0012  -19.5108   25.4144 O   0  0  0  0  0  0  0  0  0  0  0  0
   14.5308  -18.2837   27.2256 O   0  0  0  0  0  0  0  0  0  0  0  0
  2  1  1  0
  3  2  1  0
  3  4  1  0
  4  5  1  0
  5  7  1  0
  5  6  1  1
  7  8  2  0
  9 10  1  0
 11 10  1  6
 12 11  1  0
 12  7  1  0
 13 11  1  0
 14 13  2  0
 16 15  1  0
 17 16  2  0
 18 16  1  0
 19 20  1  0
 19 18  1  0
 20 21  1  0
 22 21  1  6
 22 23  1  0
 23 13  1  0
 24 26  1  0
 24 22  1  0
 25 24  2  0
M  END
$$$$
