MSR.pdb
     RDKit          3D

 26 25  0  0  1  0  0  0  0  0999 V2000
    8.0049  -11.6223   19.7482 C   0  0  0  0  0  0  0  0  0  0  0  0
    7.6290  -12.9944   18.5965 S   0  0  0  0  0  0  0  0  0  0  0  0
    7.4142  -14.5201   19.5889 C   0  0  0  0  0  0  0  0  0  0  0  0
    8.6275  -14.6612   20.4642 C   0  0  0  0  0  0  0  0  0  0  0  0
    8.5951  -15.8075   21.4171 C   0  0  2  0  0  0  0  0  0  0  0  0
    7.3040  -16.5029   21.3560 N   0  0  0  0  0  0  0  0  0  0  0  0
    8.7757  -15.3534   22.8105 C   0  0  0  0  0  0  0  0  0  0  0  0
    9.8752  -14.8141   23.1696 O   0  0  0  0  0  0  0  0  0  0  0  0
    5.7487  -15.3155   25.7702 O   0  0  0  0  0  0  0  0  0  0  0  0
    6.7596  -14.3829   25.6915 C   0  0  0  0  0  0  0  0  0  0  0  0
    8.0019  -15.0618   25.1384 C   0  0  2  0  0  0  0  0  0  0  0  0
    7.7663  -15.4959   23.7670 N   0  0  0  0  0  0  0  0  0  0  0  0
    8.4827  -16.1742   25.9743 C   0  0  0  0  0  0  0  0  0  0  0  0
    7.6195  -16.7824   26.6771 O   0  0  0  0  0  0  0  0  0  0  0  0
    5.2148  -20.6329   23.1489 N   0  0  0  0  0  0  0  0  0  0  0  0
    5.9276  -21.6585   23.8192 C   0  0  0  0  0  0  0  0  0  0  0  0
    5.2376  -22.6088   24.3532 N   0  0  0  0  0  0  0  0  0  0  0  0
    7.3477  -21.6029   23.8765 N   0  0  0  0  0  0  0  0  0  0  0  0
    8.0196  -20.3584   23.6963 C   0  0  0  0  0  0  0  0  0  0  0  0
    8.9572  -19.9510   24.7746 C   0  0  0  0  0  0  0  0  0  0  0  0
    9.6077  -18.6309   24.6610 C   0  0  0  0  0  0  0  0  0  0  0  0
   10.2017  -18.0386   25.8832 C   0  0  2  0  0  0  0  0  0  0  0  0
    9.8057  -16.6428   26.0813 N   0  0  0  0  0  0  0  0  0  0  0  0
   11.6429  -18.2506   26.0907 C   0  0  0  0  0  0  0  0  0  0  0  0
   12.4489  -17.6427   25.3466 O   0  0  0  0  0  0  0  0  0  0  0  0
   12.1765  -19.0788   27.0584 O   0  0  0  0  0  0  0  0  0  0  0  0
  2  1  1  0
  3  2  1  0
  3  4  1  0
  4  5  1  0
  5  7  1  0
  5  6  1  1
  7  8  2  0
  9 10  1  0
 11 10  1  1
 12 11  1  0
 12  7  1  0
 13 11  1  0
 14 13  2  0
 16 15  1  0
 17 16  2  0
 18 16  1  0
 19 20  1  0
 19 18  1  0
 20 21  1  0
 22 21  1  6
 22 23  1  0
 23 13  1  0
 24 26  1  0
 24 22  1  0
 25 24  2  0
M  END
$$$$
