TME.pdb
     RDKit          3D

 25 24  0  0  1  0  0  0  0  0999 V2000
    7.9173  -14.7056   18.6695 C   0  0  0  0  0  0  0  0  0  0  0  0
    8.1161  -14.4244   20.1170 C   0  0  1  0  0  0  0  0  0  0  0  0
    7.0409  -13.7874   20.6717 O   0  0  0  0  0  0  0  0  0  0  0  0
    8.5324  -15.6634   20.8973 C   0  0  2  0  0  0  0  0  0  0  0  0
    7.4774  -16.6597   20.7477 N   0  0  0  0  0  0  0  0  0  0  0  0
    8.8439  -15.3648   22.2932 C   0  0  0  0  0  0  0  0  0  0  0  0
    9.9080  -14.6949   22.5366 O   0  0  0  0  0  0  0  0  0  0  0  0
    6.0479  -10.7489   26.1855 C   0  0  0  0  0  0  0  0  0  0  0  0
    6.2130  -12.5077   26.4719 S   0  0  0  0  0  0  0  0  0  0  0  0
    7.0322  -13.3884   25.1462 C   0  0  0  0  0  0  0  0  0  0  0  0
    7.2795  -14.8294   25.5796 C   0  0  0  0  0  0  0  0  0  0  0  0
    8.4166  -15.4392   24.7980 C   0  0  2  0  0  0  0  0  0  0  0  0
    8.1187  -15.7183   23.4365 N   0  0  0  0  0  0  0  0  0  0  0  0
    8.9178  -16.5875   25.5863 C   0  0  0  0  0  0  0  0  0  0  0  0
    8.7892  -16.5449   26.8391 O   0  0  0  0  0  0  0  0  0  0  0  0
    9.5259  -17.7170   24.9849 N   0  0  0  0  0  0  0  0  0  0  0  0
   10.9493  -18.0009   25.2993 C   0  0  1  0  0  0  0  0  0  0  0  0
   11.8053  -17.0195   24.5678 C   0  0  0  0  0  0  0  0  0  0  0  0
   13.2555  -17.2149   24.9120 C   0  0  0  0  0  0  0  0  0  0  0  0
   14.1143  -17.0829   23.7027 C   0  0  0  0  0  0  0  0  0  0  0  0
   14.4829  -18.0917   23.0934 O   0  0  0  0  0  0  0  0  0  0  0  0
   11.0823  -17.9967   26.7676 C   0  0  0  0  0  0  0  0  0  0  0  0
   10.4899  -17.1157   27.4869 O   0  0  0  0  0  0  0  0  0  0  0  0
   14.4943  -15.8293   23.2724 O   0  0  0  0  0  0  0  0  0  0  0  0
   11.8299  -18.9092   27.4921 O   0  0  0  0  0  0  0  0  0  0  0  0
  2  1  1  6
  2  3  1  0
  4  2  1  0
  4  6  1  0
  4  5  1  1
  6 13  1  0
  6  7  2  0
  9  8  1  0
 10  9  1  0
 11 10  1  0
 12 11  1  1
 13 12  1  0
 14 12  1  0
 14 15  2  0
 16 14  1  0
 17 16  1  0
 17 18  1  6
 19 18  1  0
 19 20  1  0
 20 24  1  0
 20 21  2  0
 22 17  1  0
 23 22  2  0
 25 22  1  0
M  END
$$$$
