TME.pdb
     RDKit          3D

 25 24  0  0  1  0  0  0  0  0999 V2000
   10.8573  -16.3551   19.8313 C   0  0  0  0  0  0  0  0  0  0  0  0
    9.4224  -15.9615   19.8300 C   0  0  1  0  0  0  0  0  0  0  0  0
    8.7619  -16.4208   18.7243 O   0  0  0  0  0  0  0  0  0  0  0  0
    8.7188  -16.3274   21.1295 C   0  0  2  0  0  0  0  0  0  0  0  0
    7.2970  -16.0486   20.9603 N   0  0  0  0  0  0  0  0  0  0  0  0
    9.3006  -15.6528   22.2875 C   0  0  0  0  0  0  0  0  0  0  0  0
   10.5457  -15.8390   22.5228 O   0  0  0  0  0  0  0  0  0  0  0  0
    7.0168  -11.0452   26.5925 C   0  0  0  0  0  0  0  0  0  0  0  0
    7.3909  -12.7769   26.3394 S   0  0  0  0  0  0  0  0  0  0  0  0
    6.4054  -13.5568   25.0647 C   0  0  0  0  0  0  0  0  0  0  0  0
    6.8709  -14.9975   24.8825 C   0  0  0  0  0  0  0  0  0  0  0  0
    8.3447  -15.0512   24.5650 C   0  0  2  0  0  0  0  0  0  0  0  0
    8.6679  -14.8045   23.2030 N   0  0  0  0  0  0  0  0  0  0  0  0
    8.8617  -16.3225   25.1198 C   0  0  0  0  0  0  0  0  0  0  0  0
    8.2202  -17.3787   24.8731 O   0  0  0  0  0  0  0  0  0  0  0  0
   10.0389  -16.3879   25.9054 N   0  0  0  0  0  0  0  0  0  0  0  0
   10.4958  -17.7193   26.3791 C   0  0  1  0  0  0  0  0  0  0  0  0
   11.7514  -18.0792   25.6549 C   0  0  0  0  0  0  0  0  0  0  0  0
   12.2914  -19.3944   26.1432 C   0  0  0  0  0  0  0  0  0  0  0  0
   13.5561  -19.7470   25.4406 C   0  0  0  0  0  0  0  0  0  0  0  0
   14.5606  -19.0438   25.5861 O   0  0  0  0  0  0  0  0  0  0  0  0
   10.6018  -17.6482   27.8480 C   0  0  0  0  0  0  0  0  0  0  0  0
   10.5021  -16.5307   28.4690 O   0  0  0  0  0  0  0  0  0  0  0  0
   13.5945  -20.8601   24.6279 O   0  0  0  0  0  0  0  0  0  0  0  0
   10.8102  -18.7387   28.6750 O   0  0  0  0  0  0  0  0  0  0  0  0
  2  1  1  1
  2  3  1  0
  4  2  1  0
  4  6  1  0
  4  5  1  6
  6 13  1  0
  6  7  2  0
  9  8  1  0
 10  9  1  0
 11 10  1  0
 12 11  1  6
 13 12  1  0
 14 12  1  0
 14 15  2  0
 16 14  1  0
 17 16  1  0
 17 18  1  6
 19 18  1  0
 19 20  1  0
 20 24  1  0
 20 21  2  0
 22 17  1  0
 23 22  2  0
 25 22  1  0
M  END
$$$$
