TME.pdb
     RDKit          3D

 25 24  0  0  1  0  0  0  0  0999 V2000
    6.9602  -15.2026   17.8651 C   0  0  0  0  0  0  0  0  0  0  0  0
    7.4715  -15.1884   19.2623 C   0  0  1  0  0  0  0  0  0  0  0  0
    8.6629  -15.8485   19.3829 O   0  0  0  0  0  0  0  0  0  0  0  0
    7.5146  -13.7850   19.8505 C   0  0  2  0  0  0  0  0  0  0  0  0
    8.3241  -12.9553   18.9650 N   0  0  0  0  0  0  0  0  0  0  0  0
    7.9852  -13.7744   21.2336 C   0  0  0  0  0  0  0  0  0  0  0  0
    9.2502  -13.7526   21.4330 O   0  0  0  0  0  0  0  0  0  0  0  0
    6.7166  -12.4894   28.9917 C   0  0  0  0  0  0  0  0  0  0  0  0
    6.0965  -12.6537   27.3210 S   0  0  0  0  0  0  0  0  0  0  0  0
    7.2712  -13.3677   26.1745 C   0  0  0  0  0  0  0  0  0  0  0  0
    6.6644  -13.3759   24.7755 C   0  0  0  0  0  0  0  0  0  0  0  0
    7.6698  -13.8487   23.7551 C   0  0  2  0  0  0  0  0  0  0  0  0
    7.2232  -13.7836   22.4072 N   0  0  0  0  0  0  0  0  0  0  0  0
    8.1492  -15.1761   24.2015 C   0  0  0  0  0  0  0  0  0  0  0  0
    7.3703  -16.1585   24.0749 O   0  0  0  0  0  0  0  0  0  0  0  0
    9.4379  -15.3737   24.7558 N   0  0  0  0  0  0  0  0  0  0  0  0
    9.8485  -16.7571   25.1070 C   0  0  1  0  0  0  0  0  0  0  0  0
   11.0569  -17.1150   24.3055 C   0  0  0  0  0  0  0  0  0  0  0  0
   12.1523  -16.1063   24.5112 C   0  0  0  0  0  0  0  0  0  0  0  0
   13.3595  -16.4578   23.7132 C   0  0  0  0  0  0  0  0  0  0  0  0
   13.4614  -16.0723   22.5446 O   0  0  0  0  0  0  0  0  0  0  0  0
   10.0140  -16.8060   26.5712 C   0  0  0  0  0  0  0  0  0  0  0  0
    9.9000  -15.7497   27.2893 O   0  0  0  0  0  0  0  0  0  0  0  0
   14.3571  -17.2161   24.2881 O   0  0  0  0  0  0  0  0  0  0  0  0
   10.2967  -17.9531   27.2927 O   0  0  0  0  0  0  0  0  0  0  0  0
  2  1  1  6
  2  3  1  0
  4  2  1  0
  4  6  1  0
  4  5  1  6
  6 13  1  0
  6  7  2  0
  9  8  1  0
 10  9  1  0
 11 10  1  0
 12 11  1  1
 13 12  1  0
 14 12  1  0
 14 15  2  0
 16 14  1  0
 17 16  1  0
 17 18  1  6
 19 18  1  0
 19 20  1  0
 20 24  1  0
 20 21  2  0
 22 17  1  0
 23 22  2  0
 25 22  1  0
M  END
$$$$
