TME.pdb
     RDKit          3D

 25 24  0  0  1  0  0  0  0  0999 V2000
    7.1668  -15.3223   17.5212 C   0  0  0  0  0  0  0  0  0  0  0  0
    7.7607  -15.1856   18.8786 C   0  0  1  0  0  0  0  0  0  0  0  0
    9.0539  -15.6272   18.9233 O   0  0  0  0  0  0  0  0  0  0  0  0
    7.5988  -13.7816   19.4443 C   0  0  2  0  0  0  0  0  0  0  0  0
    8.2209  -12.8501   18.5098 N   0  0  0  0  0  0  0  0  0  0  0  0
    8.1222  -13.6643   20.8033 C   0  0  0  0  0  0  0  0  0  0  0  0
    9.3814  -13.4766   20.9432 O   0  0  0  0  0  0  0  0  0  0  0  0
    7.0625  -12.4882   28.6151 C   0  0  0  0  0  0  0  0  0  0  0  0
    6.3778  -12.7672   26.9854 S   0  0  0  0  0  0  0  0  0  0  0  0
    7.5747  -13.3285   25.7784 C   0  0  0  0  0  0  0  0  0  0  0  0
    6.9338  -13.3177   24.3947 C   0  0  0  0  0  0  0  0  0  0  0  0
    7.9283  -13.7281   23.3372 C   0  0  2  0  0  0  0  0  0  0  0  0
    7.4178  -13.7290   22.0106 N   0  0  0  0  0  0  0  0  0  0  0  0
    8.5358  -15.0017   23.7844 C   0  0  0  0  0  0  0  0  0  0  0  0
    7.8922  -16.0661   23.5823 O   0  0  0  0  0  0  0  0  0  0  0  0
    9.8003  -15.0605   24.4206 N   0  0  0  0  0  0  0  0  0  0  0  0
   10.4739  -16.3798   24.5274 C   0  0  1  0  0  0  0  0  0  0  0  0
   11.8740  -16.2437   24.0256 C   0  0  0  0  0  0  0  0  0  0  0  0
   12.6303  -17.5315   24.1964 C   0  0  0  0  0  0  0  0  0  0  0  0
   14.0304  -17.3982   23.7070 C   0  0  0  0  0  0  0  0  0  0  0  0
   14.6411  -16.3365   23.8635 O   0  0  0  0  0  0  0  0  0  0  0  0
   10.3355  -16.8298   25.9246 C   0  0  0  0  0  0  0  0  0  0  0  0
   10.0143  -16.0117   26.8584 O   0  0  0  0  0  0  0  0  0  0  0  0
   14.6352  -18.4660   23.0786 O   0  0  0  0  0  0  0  0  0  0  0  0
   10.5291  -18.1314   26.3544 O   0  0  0  0  0  0  0  0  0  0  0  0
  2  1  1  6
  2  3  1  0
  4  2  1  0
  4  6  1  0
  4  5  1  6
  6 13  1  0
  6  7  2  0
  9  8  1  0
 10  9  1  0
 11 10  1  0
 12 11  1  1
 13 12  1  0
 14 12  1  0
 14 15  2  0
 16 14  1  0
 17 16  1  0
 17 18  1  1
 19 18  1  0
 19 20  1  0
 20 24  1  0
 20 21  2  0
 22 17  1  0
 23 22  2  0
 25 22  1  0
M  END
$$$$
