TME.pdb
     RDKit          3D

 25 24  0  0  1  0  0  0  0  0999 V2000
    7.0926  -16.9303   19.9365 C   0  0  0  0  0  0  0  0  0  0  0  0
    7.8287  -15.8551   19.2181 C   0  0  1  0  0  0  0  0  0  0  0  0
    7.6110  -15.8930   17.8688 O   0  0  0  0  0  0  0  0  0  0  0  0
    7.5751  -14.4784   19.8163 C   0  0  2  0  0  0  0  0  0  0  0  0
    8.1570  -13.4879   18.9174 N   0  0  0  0  0  0  0  0  0  0  0  0
    8.0677  -14.3668   21.1872 C   0  0  0  0  0  0  0  0  0  0  0  0
    9.3303  -14.4670   21.3772 O   0  0  0  0  0  0  0  0  0  0  0  0
    6.8611  -12.0506   28.7266 C   0  0  0  0  0  0  0  0  0  0  0  0
    6.2077  -12.4978   27.1217 S   0  0  0  0  0  0  0  0  0  0  0  0
    7.3920  -13.3104   26.0533 C   0  0  0  0  0  0  0  0  0  0  0  0
    6.7829  -13.4771   24.6653 C   0  0  0  0  0  0  0  0  0  0  0  0
    7.8020  -14.0131   23.6906 C   0  0  2  0  0  0  0  0  0  0  0  0
    7.3299  -14.1579   22.3577 N   0  0  0  0  0  0  0  0  0  0  0  0
    8.3799  -15.2343   24.2954 C   0  0  0  0  0  0  0  0  0  0  0  0
    7.6803  -16.2823   24.2933 O   0  0  0  0  0  0  0  0  0  0  0  0
    9.6766  -15.2615   24.8656 N   0  0  0  0  0  0  0  0  0  0  0  0
   10.1978  -16.5586   25.3672 C   0  0  1  0  0  0  0  0  0  0  0  0
   11.6487  -16.6547   25.0263 C   0  0  0  0  0  0  0  0  0  0  0  0
   11.8433  -16.7395   23.5381 C   0  0  0  0  0  0  0  0  0  0  0  0
   13.2891  -16.8259   23.1921 C   0  0  0  0  0  0  0  0  0  0  0  0
   14.1429  -16.7455   24.0804 O   0  0  0  0  0  0  0  0  0  0  0  0
    9.8710  -16.6356   26.8029 C   0  0  0  0  0  0  0  0  0  0  0  0
    9.4595  -15.6064   27.4477 O   0  0  0  0  0  0  0  0  0  0  0  0
   13.6641  -16.9938   21.8760 O   0  0  0  0  0  0  0  0  0  0  0  0
    9.9697  -17.7828   27.5714 O   0  0  0  0  0  0  0  0  0  0  0  0
  2  1  1  1
  2  3  1  0
  4  2  1  0
  4  6  1  0
  4  5  1  6
  6 13  1  0
  6  7  2  0
  9  8  1  0
 10  9  1  0
 11 10  1  0
 12 11  1  1
 13 12  1  0
 14 12  1  0
 14 15  2  0
 16 14  1  0
 17 16  1  0
 17 18  1  1
 19 18  1  0
 19 20  1  0
 20 24  1  0
 20 21  2  0
 22 17  1  0
 23 22  2  0
 25 22  1  0
M  END
$$$$
