IRE.pdb
     RDKit          3D

 29 28  0  0  1  0  0  0  0  0999 V2000
   15.8662  -20.6747  -16.5187 C   0  0  0  0  0  0  0  0  0  0  0  0
   17.3032  -20.6069  -16.9680 C   0  0  0  0  0  0  0  0  0  0  0  0
   17.7966  -19.1716  -16.9976 C   0  0  2  0  0  0  0  0  0  0  0  0
   16.8789  -18.4176  -17.8980 C   0  0  0  0  0  0  0  0  0  0  0  0
   19.2358  -19.2285  -17.4606 C   0  0  2  0  0  0  0  0  0  0  0  0
   19.9423  -19.8840  -16.3406 N   0  0  0  0  0  0  0  0  0  0  0  0
   19.8740  -17.9050  -17.5936 C   0  0  0  0  0  0  0  0  0  0  0  0
   20.1623  -17.1561  -16.6095 O   0  0  0  0  0  0  0  0  0  0  0  0
   26.5348  -15.2690  -19.9977 N   0  0  0  0  0  0  0  0  0  0  0  0
   25.9632  -14.1721  -20.7230 C   0  0  0  0  0  0  0  0  0  0  0  0
   26.7667  -13.2547  -21.1491 N   0  0  0  0  0  0  0  0  0  0  0  0
   24.5607  -14.1087  -20.9575 N   0  0  0  0  0  0  0  0  0  0  0  0
   23.7735  -15.2330  -20.5500 C   0  0  0  0  0  0  0  0  0  0  0  0
   22.2848  -15.0486  -20.8806 C   0  0  0  0  0  0  0  0  0  0  0  0
   21.5720  -16.2591  -20.3993 C   0  0  0  0  0  0  0  0  0  0  0  0
   20.8488  -16.1182  -19.0801 C   0  0  2  0  0  0  0  0  0  0  0  0
   20.1934  -17.4209  -18.8827 N   0  0  0  0  0  0  0  0  0  0  0  0
   19.8803  -15.0264  -19.0138 C   0  0  0  0  0  0  0  0  0  0  0  0
   18.7580  -15.2202  -19.6037 O   0  0  0  0  0  0  0  0  0  0  0  0
   26.4343  -12.3687  -21.5722 N   0  0  0  0  0  0  0  0  0  0  0  0
   20.0791  -13.8085  -18.3648 C   0  0  2  0  0  0  0  0  0  0  0  0
   19.0177  -12.7781  -18.3445 C   0  0  0  0  0  0  0  0  0  0  0  0
   19.3028  -11.9823  -17.1228 C   0  0  0  0  0  0  0  0  0  0  0  0
   18.4076  -10.8146  -16.9543 C   0  0  0  0  0  0  0  0  0  0  0  0
   18.6328  -10.1550  -15.6564 O   0  0  0  0  0  0  0  0  0  0  0  0
   19.4409  -10.6781  -14.8325 C   0  0  0  0  0  0  0  0  0  0  0  0
   18.9790  -12.1486  -19.6453 O   0  0  0  0  0  0  0  0  0  0  0  0
   20.1187  -12.0900  -20.4435 O   0  0  0  0  0  0  0  0  0  0  0  0
   17.9778   -8.9704  -15.3159 O   0  0  0  0  0  0  0  0  0  0  0  0
  1  2  1  0
  3  4  1  6
  3  2  1  0
  5  6  1  1
  5  3  1  0
  7  5  1  0
  8  7  2  0
  9 10  1  0
 10 12  1  0
 11 10  2  0
 12 13  1  0
 13 14  1  0
 14 15  1  0
 16 15  1  6
 16 18  1  0
 16 17  1  0
 17  7  1  0
 18 19  2  0
 20 21  1  0
 20 18  1  0
 22 23  1  0
 21 22  1  1
 24 25  2  0
 24 23  1  0
 26 27  1  0
 26 21  1  0
 28 24  1  0
 29 26  2  0
M  END
$$$$
