IRE.pdb
     RDKit          3D

 29 28  0  0  1  0  0  0  0  0999 V2000
   29.7531  -20.4266  -11.6663 C   0  0  0  0  0  0  0  0  0  0  0  0
   28.3324  -20.8327  -11.3694 C   0  0  0  0  0  0  0  0  0  0  0  0
   27.4520  -20.6675  -12.5949 C   0  0  2  0  0  0  0  0  0  0  0  0
   27.6560  -19.2763  -13.0893 C   0  0  0  0  0  0  0  0  0  0  0  0
   26.0413  -20.9824  -12.1480 C   0  0  2  0  0  0  0  0  0  0  0  0
   26.1475  -22.3381  -11.5700 N   0  0  0  0  0  0  0  0  0  0  0  0
   25.0778  -21.1136  -13.2575 C   0  0  0  0  0  0  0  0  0  0  0  0
   25.2388  -21.8938  -14.2463 O   0  0  0  0  0  0  0  0  0  0  0  0
   23.4221  -24.4517  -13.8716 N   0  0  0  0  0  0  0  0  0  0  0  0
   22.1454  -25.0013  -13.5195 C   0  0  0  0  0  0  0  0  0  0  0  0
   22.1238  -26.1992  -13.0363 N   0  0  0  0  0  0  0  0  0  0  0  0
   20.9538  -24.2441  -13.7009 N   0  0  0  0  0  0  0  0  0  0  0  0
   21.0920  -22.9065  -14.1922 C   0  0  0  0  0  0  0  0  0  0  0  0
   21.4026  -21.9057  -13.0692 C   0  0  0  0  0  0  0  0  0  0  0  0
   21.6004  -20.5775  -13.7030 C   0  0  0  0  0  0  0  0  0  0  0  0
   22.9426  -20.3530  -14.3598 C   0  0  2  0  0  0  0  0  0  0  0  0
   23.8979  -20.3354  -13.2405 N   0  0  0  0  0  0  0  0  0  0  0  0
   23.0484  -19.1360  -15.1613 C   0  0  0  0  0  0  0  0  0  0  0  0
   23.6909  -18.1584  -14.6354 O   0  0  0  0  0  0  0  0  0  0  0  0
   21.2443  -26.6926  -12.7964 N   0  0  0  0  0  0  0  0  0  0  0  0
   22.5145  -18.9602  -16.4372 C   0  0  2  0  0  0  0  0  0  0  0  0
   23.2802  -18.2559  -17.4889 C   0  0  0  0  0  0  0  0  0  0  0  0
   24.6499  -18.8223  -17.3867 C   0  0  0  0  0  0  0  0  0  0  0  0
   25.5815  -18.3090  -18.4172 C   0  0  0  0  0  0  0  0  0  0  0  0
   26.9330  -18.8671  -18.2373 O   0  0  0  0  0  0  0  0  0  0  0  0
   27.9349  -18.0987  -18.3438 C   0  0  0  0  0  0  0  0  0  0  0  0
   22.5330  -18.3448  -18.7233 O   0  0  0  0  0  0  0  0  0  0  0  0
   22.1215  -17.1946  -19.3922 O   0  0  0  0  0  0  0  0  0  0  0  0
   27.1331  -20.2188  -17.9530 O   0  0  0  0  0  0  0  0  0  0  0  0
  1  2  1  0
  3  4  1  1
  3  2  1  0
  5  6  1  6
  5  3  1  0
  7  5  1  0
  8  7  2  0
  9 10  1  0
 10 12  1  0
 11 10  2  0
 12 13  1  0
 13 14  1  0
 14 15  1  0
 16 15  1  1
 16 18  1  0
 16 17  1  0
 17  7  1  0
 18 19  2  0
 20 21  1  0
 20 18  1  0
 22 23  1  0
 21 22  1  1
 24 25  2  0
 24 23  1  0
 26 27  1  0
 26 21  1  0
 28 24  1  0
 29 26  2  0
M  END
$$$$
