IRE.pdb
     RDKit          3D

 29 28  0  0  1  0  0  0  0  0999 V2000
   28.8887  -20.1647   -4.1300 C   0  0  0  0  0  0  0  0  0  0  0  0
   28.3304  -19.4146   -5.3119 C   0  0  0  0  0  0  0  0  0  0  0  0
   28.0962  -20.3470   -6.4866 C   0  0  2  0  0  0  0  0  0  0  0  0
   29.3898  -21.0365   -6.7558 C   0  0  0  0  0  0  0  0  0  0  0  0
   27.5900  -19.4814   -7.6196 C   0  0  2  0  0  0  0  0  0  0  0  0
   26.3454  -18.8909   -7.0850 N   0  0  0  0  0  0  0  0  0  0  0  0
   27.1714  -20.2420   -8.8124 C   0  0  0  0  0  0  0  0  0  0  0  0
   27.8840  -21.1330   -9.3697 O   0  0  0  0  0  0  0  0  0  0  0  0
   20.3268  -22.4425  -11.9616 N   0  0  0  0  0  0  0  0  0  0  0  0
   20.8440  -22.1338  -13.2628 C   0  0  0  0  0  0  0  0  0  0  0  0
   19.9910  -21.8958  -14.2033 N   0  0  0  0  0  0  0  0  0  0  0  0
   22.2477  -22.0947  -13.4958 N   0  0  0  0  0  0  0  0  0  0  0  0
   23.1074  -22.1921  -12.3552 C   0  0  0  0  0  0  0  0  0  0  0  0
   23.1398  -20.8901  -11.5409 C   0  0  0  0  0  0  0  0  0  0  0  0
   24.1069  -21.0866  -10.4315 C   0  0  0  0  0  0  0  0  0  0  0  0
   25.5050  -20.5676  -10.6750 C   0  0  2  0  0  0  0  0  0  0  0  0
   25.9061  -19.9816   -9.3861 N   0  0  0  0  0  0  0  0  0  0  0  0
   25.6286  -19.5938  -11.7572 C   0  0  0  0  0  0  0  0  0  0  0  0
   24.9985  -18.4869  -11.6058 O   0  0  0  0  0  0  0  0  0  0  0  0
   20.2740  -21.6517  -15.1701 N   0  0  0  0  0  0  0  0  0  0  0  0
   26.3711  -19.7724  -12.9236 C   0  0  2  0  0  0  0  0  0  0  0  0
   26.1902  -18.8713  -14.0829 C   0  0  0  0  0  0  0  0  0  0  0  0
   27.3711  -19.1398  -14.9436 C   0  0  0  0  0  0  0  0  0  0  0  0
   27.3202  -18.4473  -16.2517 C   0  0  0  0  0  0  0  0  0  0  0  0
   28.5081  -18.7597  -17.0651 O   0  0  0  0  0  0  0  0  0  0  0  0
   29.3167  -19.6461  -16.6579 C   0  0  0  0  0  0  0  0  0  0  0  0
   24.8486  -19.0553  -14.5889 O   0  0  0  0  0  0  0  0  0  0  0  0
   23.9580  -17.9865  -14.6535 O   0  0  0  0  0  0  0  0  0  0  0  0
   28.7611  -18.1029  -18.2704 O   0  0  0  0  0  0  0  0  0  0  0  0
  1  2  1  0
  3  4  1  6
  3  2  1  0
  5  6  1  1
  5  3  1  0
  7  5  1  0
  8  7  2  0
  9 10  1  0
 10 12  1  0
 11 10  2  0
 12 13  1  0
 13 14  1  0
 14 15  1  0
 16 15  1  1
 16 18  1  0
 16 17  1  0
 17  7  1  0
 18 19  2  0
 20 21  1  0
 20 18  1  0
 22 23  1  0
 21 22  1  1
 24 25  2  0
 24 23  1  0
 26 27  1  0
 26 21  1  0
 28 24  1  0
 29 26  2  0
M  END
$$$$
