IRE.pdb
     RDKit          3D

 29 28  0  0  1  0  0  0  0  0999 V2000
   28.5670  -19.4911   -6.6342 C   0  0  0  0  0  0  0  0  0  0  0  0
   28.2152  -20.6225   -7.5656 C   0  0  0  0  0  0  0  0  0  0  0  0
   27.1763  -20.1866   -8.5829 C   0  0  2  0  0  0  0  0  0  0  0  0
   25.9256  -19.8964   -7.8261 C   0  0  0  0  0  0  0  0  0  0  0  0
   27.0654  -21.3151   -9.5845 C   0  0  2  0  0  0  0  0  0  0  0  0
   28.4635  -21.5657   -9.9917 N   0  0  0  0  0  0  0  0  0  0  0  0
   26.3649  -20.9437  -10.8287 C   0  0  0  0  0  0  0  0  0  0  0  0
   26.7116  -19.9760  -11.5743 O   0  0  0  0  0  0  0  0  0  0  0  0
   25.7526  -25.5701  -17.0651 N   0  0  0  0  0  0  0  0  0  0  0  0
   24.7151  -24.6003  -16.8672 C   0  0  0  0  0  0  0  0  0  0  0  0
   23.6951  -24.6473  -17.6585 N   0  0  0  0  0  0  0  0  0  0  0  0
   24.8182  -23.6273  -15.8334 N   0  0  0  0  0  0  0  0  0  0  0  0
   25.9775  -23.6778  -14.9949 C   0  0  0  0  0  0  0  0  0  0  0  0
   26.0029  -22.5327  -13.9714 C   0  0  0  0  0  0  0  0  0  0  0  0
   24.6392  -22.4259  -13.3937 C   0  0  0  0  0  0  0  0  0  0  0  0
   24.4288  -21.3062  -12.4011 C   0  0  2  0  0  0  0  0  0  0  0  0
   25.2390  -21.6951  -11.2358 N   0  0  0  0  0  0  0  0  0  0  0  0
   23.0394  -21.0649  -12.0191 C   0  0  0  0  0  0  0  0  0  0  0  0
   22.6052  -21.7119  -11.0003 O   0  0  0  0  0  0  0  0  0  0  0  0
   22.9211  -23.9589  -17.6191 N   0  0  0  0  0  0  0  0  0  0  0  0
   22.1631  -20.1949  -12.6666 C   0  0  2  0  0  0  0  0  0  0  0  0
   20.7668  -20.0411  -12.2028 C   0  0  0  0  0  0  0  0  0  0  0  0
   20.2999  -18.7901  -12.8540 C   0  0  0  0  0  0  0  0  0  0  0  0
   20.3181  -18.8502  -14.3336 C   0  0  0  0  0  0  0  0  0  0  0  0
   19.8321  -17.5904  -14.9229 O   0  0  0  0  0  0  0  0  0  0  0  0
   19.4280  -16.6676  -14.1544 C   0  0  0  0  0  0  0  0  0  0  0  0
   20.0793  -21.2930  -12.4268 O   0  0  0  0  0  0  0  0  0  0  0  0
   18.9974  -21.6646  -11.6325 O   0  0  0  0  0  0  0  0  0  0  0  0
   19.8074  -17.3921  -16.3042 O   0  0  0  0  0  0  0  0  0  0  0  0
  1  2  1  0
  3  4  1  1
  3  2  1  0
  5  6  1  6
  5  3  1  0
  7  5  1  0
  8  7  2  0
  9 10  1  0
 10 12  1  0
 11 10  2  0
 12 13  1  0
 13 14  1  0
 14 15  1  0
 16 15  1  6
 16 18  1  0
 16 17  1  0
 17  7  1  0
 18 19  2  0
 20 21  1  0
 20 18  1  0
 22 23  1  0
 21 22  1  6
 24 25  2  0
 24 23  1  0
 26 27  1  0
 26 21  1  0
 28 24  1  0
 29 26  2  0
M  END
$$$$
