IRE.pdb
     RDKit          3D

 29 28  0  0  1  0  0  0  0  0999 V2000
   19.7626  -12.5744  -17.7278 C   0  0  0  0  0  0  0  0  0  0  0  0
   21.0618  -13.3217  -17.5694 C   0  0  0  0  0  0  0  0  0  0  0  0
   20.8126  -14.7789  -17.2251 C   0  0  2  0  0  0  0  0  0  0  0  0
   20.0024  -14.7951  -15.9743 C   0  0  0  0  0  0  0  0  0  0  0  0
   22.1757  -15.4249  -17.1074 C   0  0  2  0  0  0  0  0  0  0  0  0
   22.7598  -15.2671  -18.4555 N   0  0  0  0  0  0  0  0  0  0  0  0
   22.1294  -16.8816  -16.8783 C   0  0  0  0  0  0  0  0  0  0  0  0
   21.4923  -17.6944  -17.6171 O   0  0  0  0  0  0  0  0  0  0  0  0
   26.0955  -21.8434  -11.8228 N   0  0  0  0  0  0  0  0  0  0  0  0
   25.6943  -22.7480  -12.8604 C   0  0  0  0  0  0  0  0  0  0  0  0
   25.2717  -23.9156  -12.5042 N   0  0  0  0  0  0  0  0  0  0  0  0
   25.7643  -22.3609  -14.2284 N   0  0  0  0  0  0  0  0  0  0  0  0
   25.5672  -20.9756  -14.5316 C   0  0  0  0  0  0  0  0  0  0  0  0
   24.1845  -20.4759  -14.0870 C   0  0  0  0  0  0  0  0  0  0  0  0
   24.0186  -19.1006  -14.6217 C   0  0  0  0  0  0  0  0  0  0  0  0
   22.7954  -18.8685  -15.4780 C   0  0  2  0  0  0  0  0  0  0  0  0
   22.8283  -17.4282  -15.7779 N   0  0  0  0  0  0  0  0  0  0  0  0
   21.5248  -19.2499  -14.8660 C   0  0  0  0  0  0  0  0  0  0  0  0
   21.0014  -18.4023  -14.0580 O   0  0  0  0  0  0  0  0  0  0  0  0
   24.9214  -24.6174  -13.1820 N   0  0  0  0  0  0  0  0  0  0  0  0
   20.8459  -20.4464  -15.0926 C   0  0  1  0  0  0  0  0  0  0  0  0
   19.5212  -20.6939  -14.4823 C   0  0  0  0  0  0  0  0  0  0  0  0
   18.6371  -19.6709  -15.0981 C   0  0  0  0  0  0  0  0  0  0  0  0
   18.0439  -18.7331  -14.1174 C   0  0  0  0  0  0  0  0  0  0  0  0
   17.0975  -17.8109  -14.7689 O   0  0  0  0  0  0  0  0  0  0  0  0
   17.4373  -16.6027  -14.9432 C   0  0  0  0  0  0  0  0  0  0  0  0
   19.2242  -22.1027  -14.6112 O   0  0  0  0  0  0  0  0  0  0  0  0
   18.5355  -22.7810  -13.6085 O   0  0  0  0  0  0  0  0  0  0  0  0
   15.8395  -18.2377  -15.1969 O   0  0  0  0  0  0  0  0  0  0  0  0
  1  2  1  0
  3  4  1  1
  3  2  1  0
  5  6  1  6
  5  3  1  0
  7  5  1  0
  8  7  2  0
  9 10  1  0
 10 12  1  0
 11 10  2  0
 12 13  1  0
 13 14  1  0
 14 15  1  0
 16 15  1  1
 16 18  1  0
 16 17  1  0
 17  7  1  0
 18 19  2  0
 20 21  1  0
 20 18  1  0
 22 23  1  0
 21 22  1  1
 24 25  2  0
 24 23  1  0
 26 27  1  0
 26 21  1  0
 28 24  1  0
 29 26  2  0
M  END
$$$$
