IRE.pdb
     RDKit          3D

 29 28  0  0  1  0  0  0  0  0999 V2000
   28.7777  -19.8320   -4.8732 C   0  0  0  0  0  0  0  0  0  0  0  0
   27.4154  -20.0589   -5.4765 C   0  0  0  0  0  0  0  0  0  0  0  0
   27.3988  -19.6707   -6.9438 C   0  0  2  0  0  0  0  0  0  0  0  0
   27.7297  -18.2191   -7.0106 C   0  0  0  0  0  0  0  0  0  0  0  0
   26.0243  -20.0334   -7.4620 C   0  0  2  0  0  0  0  0  0  0  0  0
   25.9695  -21.5033   -7.3212 N   0  0  0  0  0  0  0  0  0  0  0  0
   25.8427  -19.7798   -8.9039 C   0  0  0  0  0  0  0  0  0  0  0  0
   25.5023  -18.6562   -9.3876 O   0  0  0  0  0  0  0  0  0  0  0  0
   28.5590  -22.2345  -16.5376 N   0  0  0  0  0  0  0  0  0  0  0  0
   27.2718  -21.6042  -16.5780 C   0  0  0  0  0  0  0  0  0  0  0  0
   26.5741  -21.7401  -17.6567 N   0  0  0  0  0  0  0  0  0  0  0  0
   26.7928  -20.8590  -15.4639 N   0  0  0  0  0  0  0  0  0  0  0  0
   27.4915  -21.0072  -14.2231 C   0  0  0  0  0  0  0  0  0  0  0  0
   26.7670  -21.9594  -13.2600 C   0  0  0  0  0  0  0  0  0  0  0  0
   27.0083  -21.4620  -11.8818 C   0  0  0  0  0  0  0  0  0  0  0  0
   25.8944  -20.6438  -11.2710 C   0  0  2  0  0  0  0  0  0  0  0  0
   26.0551  -20.8345   -9.8207 N   0  0  0  0  0  0  0  0  0  0  0  0
   24.5464  -21.0053  -11.7033 C   0  0  0  0  0  0  0  0  0  0  0  0
   24.1156  -22.1552  -11.3328 O   0  0  0  0  0  0  0  0  0  0  0  0
   25.6000  -21.3963  -17.7430 N   0  0  0  0  0  0  0  0  0  0  0  0
   23.7037  -20.2056  -12.4740 C   0  0  2  0  0  0  0  0  0  0  0  0
   22.3590  -20.6804  -12.8678 C   0  0  0  0  0  0  0  0  0  0  0  0
   21.4839  -19.4933  -12.6880 C   0  0  0  0  0  0  0  0  0  0  0  0
   20.0853  -19.7176  -13.1201 C   0  0  0  0  0  0  0  0  0  0  0  0
   19.2798  -18.4932  -12.9705 O   0  0  0  0  0  0  0  0  0  0  0  0
   19.8244  -17.4531  -12.4941 C   0  0  0  0  0  0  0  0  0  0  0  0
   22.4714  -21.3286  -14.1550 O   0  0  0  0  0  0  0  0  0  0  0  0
   21.5407  -22.2839  -14.5561 O   0  0  0  0  0  0  0  0  0  0  0  0
   17.9347  -18.4542  -13.3410 O   0  0  0  0  0  0  0  0  0  0  0  0
  1  2  1  0
  3  4  1  1
  3  2  1  0
  5  6  1  6
  5  3  1  0
  7  5  1  0
  8  7  2  0
  9 10  1  0
 10 12  1  0
 11 10  2  0
 12 13  1  0
 13 14  1  0
 14 15  1  0
 16 15  1  6
 16 18  1  0
 16 17  1  0
 17  7  1  0
 18 19  2  0
 20 21  1  0
 20 18  1  0
 22 23  1  0
 21 22  1  1
 24 25  2  0
 24 23  1  0
 26 27  1  0
 26 21  1  0
 28 24  1  0
 29 26  2  0
M  END
$$$$
