IRE.pdb
     RDKit          3D

 29 28  0  0  1  0  0  0  0  0999 V2000
   24.0537  -11.7977  -17.9920 C   0  0  0  0  0  0  0  0  0  0  0  0
   25.4407  -12.3715  -18.1271 C   0  0  0  0  0  0  0  0  0  0  0  0
   26.4949  -11.2942  -17.9472 C   0  0  2  0  0  0  0  0  0  0  0  0
   26.2154  -10.2418  -18.9649 C   0  0  0  0  0  0  0  0  0  0  0  0
   27.8337  -11.9831  -18.0970 C   0  0  2  0  0  0  0  0  0  0  0  0
   27.8483  -12.9709  -16.9981 N   0  0  0  0  0  0  0  0  0  0  0  0
   28.9904  -11.1049  -17.8378 C   0  0  0  0  0  0  0  0  0  0  0  0
   29.2637  -10.6115  -16.7001 O   0  0  0  0  0  0  0  0  0  0  0  0
   36.1702  -12.9280  -18.4035 N   0  0  0  0  0  0  0  0  0  0  0  0
   36.0936  -11.7433  -19.2075 C   0  0  0  0  0  0  0  0  0  0  0  0
   37.0035  -11.5733  -20.1086 N   0  0  0  0  0  0  0  0  0  0  0  0
   35.0483  -10.7976  -19.0095 N   0  0  0  0  0  0  0  0  0  0  0  0
   34.1332  -11.0428  -17.9361 C   0  0  0  0  0  0  0  0  0  0  0  0
   32.7989  -11.6197  -18.4323 C   0  0  0  0  0  0  0  0  0  0  0  0
   32.1741  -10.5972  -19.3093 C   0  0  0  0  0  0  0  0  0  0  0  0
   30.9935   -9.8579  -18.7238 C   0  0  2  0  0  0  0  0  0  0  0  0
   29.8606  -10.7798  -18.9032 N   0  0  0  0  0  0  0  0  0  0  0  0
   30.7131   -8.5561  -19.3248 C   0  0  0  0  0  0  0  0  0  0  0  0
   30.2081   -8.5668  -20.5037 O   0  0  0  0  0  0  0  0  0  0  0  0
   37.0253  -10.7491  -20.7368 N   0  0  0  0  0  0  0  0  0  0  0  0
   30.9463   -7.3209  -18.7217 C   0  0  1  0  0  0  0  0  0  0  0  0
   30.5730   -6.0620  -19.4031 C   0  0  0  0  0  0  0  0  0  0  0  0
   29.1513   -5.8494  -19.0274 C   0  0  0  0  0  0  0  0  0  0  0  0
   28.5835   -4.5852  -19.5494 C   0  0  0  0  0  0  0  0  0  0  0  0
   27.1970   -4.3952  -19.0891 O   0  0  0  0  0  0  0  0  0  0  0  0
   26.6742   -5.2686  -18.3345 C   0  0  0  0  0  0  0  0  0  0  0  0
   31.5768   -5.0692  -19.0924 O   0  0  0  0  0  0  0  0  0  0  0  0
   31.6639   -3.8891  -19.8268 O   0  0  0  0  0  0  0  0  0  0  0  0
   26.4495   -3.2779  -19.4646 O   0  0  0  0  0  0  0  0  0  0  0  0
  1  2  1  0
  3  4  1  6
  3  2  1  0
  5  6  1  1
  5  3  1  0
  7  5  1  0
  8  7  2  0
  9 10  1  0
 10 12  1  0
 11 10  2  0
 12 13  1  0
 13 14  1  0
 14 15  1  0
 16 15  1  6
 16 18  1  0
 16 17  1  0
 17  7  1  0
 18 19  2  0
 20 21  1  0
 20 18  1  0
 22 23  1  0
 21 22  1  6
 24 25  2  0
 24 23  1  0
 26 27  1  0
 26 21  1  0
 28 24  1  0
 29 26  2  0
M  END
$$$$
