IRE.pdb
     RDKit          3D

 29 28  0  0  1  0  0  0  0  0999 V2000
   28.8948  -20.6440  -18.7375 C   0  0  0  0  0  0  0  0  0  0  0  0
   28.7557  -20.2905  -17.2791 C   0  0  0  0  0  0  0  0  0  0  0  0
   27.3164  -20.4353  -16.8192 C   0  0  2  0  0  0  0  0  0  0  0  0
   26.4927  -19.5518  -17.6923 C   0  0  0  0  0  0  0  0  0  0  0  0
   27.3024  -20.0692  -15.3512 C   0  0  2  0  0  0  0  0  0  0  0  0
   28.2626  -21.0127  -14.7420 N   0  0  0  0  0  0  0  0  0  0  0  0
   26.0180  -20.3426  -14.6788 C   0  0  0  0  0  0  0  0  0  0  0  0
   24.9565  -20.6777  -15.2898 O   0  0  0  0  0  0  0  0  0  0  0  0
   22.0331  -20.7650   -7.5207 N   0  0  0  0  0  0  0  0  0  0  0  0
   21.5231  -21.4025   -8.6994 C   0  0  0  0  0  0  0  0  0  0  0  0
   20.2406  -21.4428   -8.8490 N   0  0  0  0  0  0  0  0  0  0  0  0
   22.4084  -21.9663   -9.6609 N   0  0  0  0  0  0  0  0  0  0  0  0
   23.7540  -21.4780   -9.6830 C   0  0  0  0  0  0  0  0  0  0  0  0
   23.8365  -20.0285  -10.1847 C   0  0  0  0  0  0  0  0  0  0  0  0
   24.9680  -19.9564  -11.1435 C   0  0  0  0  0  0  0  0  0  0  0  0
   24.6730  -20.4264  -12.5490 C   0  0  2  0  0  0  0  0  0  0  0  0
   25.9401  -20.2321  -13.2718 N   0  0  0  0  0  0  0  0  0  0  0  0
   23.5735  -19.7361  -13.2191 C   0  0  0  0  0  0  0  0  0  0  0  0
   23.5642  -18.4564  -13.1334 O   0  0  0  0  0  0  0  0  0  0  0  0
   19.7843  -21.8715   -9.6753 N   0  0  0  0  0  0  0  0  0  0  0  0
   22.5502  -20.3535  -13.9371 C   0  0  2  0  0  0  0  0  0  0  0  0
   21.3750  -19.5819  -14.3979 C   0  0  0  0  0  0  0  0  0  0  0  0
   21.2564  -19.9206  -15.8395 C   0  0  0  0  0  0  0  0  0  0  0  0
   22.2424  -19.2215  -16.6952 C   0  0  0  0  0  0  0  0  0  0  0  0
   22.0523  -19.5653  -18.1152 O   0  0  0  0  0  0  0  0  0  0  0  0
   21.1511  -20.3981  -18.4311 C   0  0  0  0  0  0  0  0  0  0  0  0
   20.2838  -19.8389  -13.4852 O   0  0  0  0  0  0  0  0  0  0  0  0
   20.2477  -21.0072  -12.7279 O   0  0  0  0  0  0  0  0  0  0  0  0
   22.8405  -18.9955  -19.1163 O   0  0  0  0  0  0  0  0  0  0  0  0
  1  2  1  0
  3  4  1  6
  3  2  1  0
  5  6  1  1
  5  3  1  0
  7  5  1  0
  8  7  2  0
  9 10  1  0
 10 12  1  0
 11 10  2  0
 12 13  1  0
 13 14  1  0
 14 15  1  0
 16 15  1  1
 16 18  1  0
 16 17  1  0
 17  7  1  0
 18 19  2  0
 20 21  1  0
 20 18  1  0
 22 23  1  0
 21 22  1  6
 24 25  2  0
 24 23  1  0
 26 27  1  0
 26 21  1  0
 28 24  1  0
 29 26  2  0
M  END
$$$$
