EQC.pdb
     RDKit          3D

 25 24  0  0  1  0  0  0  0  0999 V2000
   23.9668  -15.2901  -18.4319 N   0  0  0  0  0  0  0  0  0  0  0  0
   23.4821  -15.0446  -17.1006 C   0  0  1  0  0  0  0  0  0  0  0  0
   24.6256  -14.8444  -16.1314 C   0  0  0  0  0  0  0  0  0  0  0  0
   25.4402  -16.1334  -16.1342 C   0  0  0  0  0  0  0  0  0  0  0  0
   26.6095  -16.0227  -15.2218 C   0  0  0  0  0  0  0  0  0  0  0  0
   27.5319  -15.2029  -15.3605 O   0  0  0  0  0  0  0  0  0  0  0  0
   22.5839  -13.8630  -17.1477 C   0  0  0  0  0  0  0  0  0  0  0  0
   22.8988  -12.8187  -17.7570 O   0  0  0  0  0  0  0  0  0  0  0  0
   26.6508  -16.9044  -14.1521 O   0  0  0  0  0  0  0  0  0  0  0  0
   16.5924  -14.1288  -15.1256 N   0  0  0  0  0  0  0  0  0  0  0  0
   16.7043  -12.7884  -15.5419 C   0  0  0  0  0  0  0  0  0  0  0  0
   15.6947  -12.0585  -15.5532 O   0  0  0  0  0  0  0  0  0  0  0  0
   18.0133  -12.2572  -15.9613 C   0  0  0  0  0  0  0  0  0  0  0  0
   19.0876  -13.3286  -15.9205 C   0  0  0  0  0  0  0  0  0  0  0  0
   20.4103  -12.7989  -16.4329 C   0  0  2  0  0  0  0  0  0  0  0  0
   21.3341  -13.8953  -16.4938 N   0  0  0  0  0  0  0  0  0  0  0  0
   20.8692  -11.6750  -15.6195 C   0  0  0  0  0  0  0  0  0  0  0  0
   21.4525  -11.9242  -14.5326 O   0  0  0  0  0  0  0  0  0  0  0  0
   20.7146  -10.3006  -15.9487 N   0  0  0  0  0  0  0  0  0  0  0  0
   21.2718   -9.2258  -15.1489 C   0  0  1  0  0  0  0  0  0  0  0  0
   22.4559   -8.5769  -15.8288 C   0  0  0  0  0  0  0  0  0  0  0  0
   22.9857   -7.0996  -14.9376 S   0  0  0  0  0  0  0  0  0  0  0  0
   20.2112   -8.1835  -15.0292 C   0  0  0  0  0  0  0  0  0  0  0  0
   20.0781   -7.3854  -13.8842 O   0  0  0  0  0  0  0  0  0  0  0  0
   19.3714   -7.9546  -15.9446 O   0  0  0  0  0  0  0  0  0  0  0  0
  2  7  1  0
  2  1  1  6
  3  2  1  0
  4  3  1  0
  5  4  1  0
  5  9  1  0
  6  5  2  0
  7  8  2  0
 11 13  1  0
 11 10  1  0
 12 11  2  0
 15 14  1  1
 14 13  1  0
 16 15  1  0
 16  7  1  0
 17 18  2  0
 17 15  1  0
 19 17  1  0
 20 19  1  0
 20 23  1  0
 20 21  1  6
 22 21  1  0
 23 24  1  0
 25 23  2  0
M  END
$$$$
