EQC.pdb
     RDKit          3D

 25 24  0  0  1  0  0  0  0  0999 V2000
   25.5497  -23.7848  -14.3490 N   0  0  0  0  0  0  0  0  0  0  0  0
   24.7564  -23.4701  -15.5062 C   0  0  1  0  0  0  0  0  0  0  0  0
   24.9275  -24.5149  -16.5861 C   0  0  0  0  0  0  0  0  0  0  0  0
   26.3634  -24.4038  -17.0872 C   0  0  0  0  0  0  0  0  0  0  0  0
   26.5168  -23.2401  -18.0008 C   0  0  0  0  0  0  0  0  0  0  0  0
   26.0777  -23.1974  -19.1616 O   0  0  0  0  0  0  0  0  0  0  0  0
   23.3407  -23.3473  -15.0751 C   0  0  0  0  0  0  0  0  0  0  0  0
   22.6880  -24.3308  -14.6656 O   0  0  0  0  0  0  0  0  0  0  0  0
   27.1992  -22.1412  -17.5008 O   0  0  0  0  0  0  0  0  0  0  0  0
   20.8568  -17.9250  -13.1714 N   0  0  0  0  0  0  0  0  0  0  0  0
   19.7956  -18.8309  -12.9831 C   0  0  0  0  0  0  0  0  0  0  0  0
   18.7893  -18.4785  -12.3386 O   0  0  0  0  0  0  0  0  0  0  0  0
   19.8810  -20.1890  -13.5487 C   0  0  0  0  0  0  0  0  0  0  0  0
   21.2630  -20.4727  -14.1085 C   0  0  0  0  0  0  0  0  0  0  0  0
   21.3355  -21.8584  -14.7144 C   0  0  2  0  0  0  0  0  0  0  0  0
   22.6915  -22.0955  -15.1197 N   0  0  0  0  0  0  0  0  0  0  0  0
   20.3558  -22.0070  -15.7884 C   0  0  0  0  0  0  0  0  0  0  0  0
   20.5692  -21.4123  -16.8768 O   0  0  0  0  0  0  0  0  0  0  0  0
   19.1619  -22.7754  -15.7160 N   0  0  0  0  0  0  0  0  0  0  0  0
   18.2487  -22.9295  -16.8330 C   0  0  1  0  0  0  0  0  0  0  0  0
   17.6498  -24.3167  -16.8803 C   0  0  0  0  0  0  0  0  0  0  0  0
   18.9142  -25.5573  -17.2262 S   0  0  0  0  0  0  0  0  0  0  0  0
   17.1246  -21.9755  -16.6051 C   0  0  0  0  0  0  0  0  0  0  0  0
   16.3011  -21.5327  -17.6498 O   0  0  0  0  0  0  0  0  0  0  0  0
   16.8445  -21.5090  -15.4652 O   0  0  0  0  0  0  0  0  0  0  0  0
  2  7  1  0
  2  1  1  1
  3  2  1  0
  4  3  1  0
  5  4  1  0
  5  9  1  0
  6  5  2  0
  7  8  2  0
 11 13  1  0
 11 10  1  0
 12 11  2  0
 15 14  1  6
 14 13  1  0
 16 15  1  0
 16  7  1  0
 17 18  2  0
 17 15  1  0
 19 17  1  0
 20 19  1  0
 20 23  1  0
 20 21  1  1
 22 21  1  0
 23 24  1  0
 25 23  2  0
M  END
$$$$
