EQC.pdb
     RDKit          3D

 25 24  0  0  1  0  0  0  0  0999 V2000
   15.6722  -14.3260  -15.1164 N   0  0  0  0  0  0  0  0  0  0  0  0
   15.6636  -12.9617  -15.5705 C   0  0  1  0  0  0  0  0  0  0  0  0
   14.5030  -12.1957  -14.9761 C   0  0  0  0  0  0  0  0  0  0  0  0
   13.2281  -12.8167  -15.5364 C   0  0  0  0  0  0  0  0  0  0  0  0
   12.0230  -12.1816  -14.9393 C   0  0  0  0  0  0  0  0  0  0  0  0
   12.0555  -11.2944  -14.0710 O   0  0  0  0  0  0  0  0  0  0  0  0
   16.9693  -12.3498  -15.2163 C   0  0  0  0  0  0  0  0  0  0  0  0
   17.5434  -12.5994  -14.1350 O   0  0  0  0  0  0  0  0  0  0  0  0
   10.7922  -12.6261  -15.3986 O   0  0  0  0  0  0  0  0  0  0  0  0
   20.9646  -10.2831  -19.5416 N   0  0  0  0  0  0  0  0  0  0  0  0
   21.6504   -9.9791  -18.3501 C   0  0  0  0  0  0  0  0  0  0  0  0
   22.8353   -9.5974  -18.3993 O   0  0  0  0  0  0  0  0  0  0  0  0
   20.9637  -10.1141  -17.0533 C   0  0  0  0  0  0  0  0  0  0  0  0
   19.5745  -10.7031  -17.2180 C   0  0  0  0  0  0  0  0  0  0  0  0
   18.8715  -10.8315  -15.8831 C   0  0  2  0  0  0  0  0  0  0  0  0
   17.6004  -11.4579  -16.1091 N   0  0  0  0  0  0  0  0  0  0  0  0
   18.7886   -9.5352  -15.2136 C   0  0  0  0  0  0  0  0  0  0  0  0
   17.9234   -8.7126  -15.6116 O   0  0  0  0  0  0  0  0  0  0  0  0
   19.6102   -9.1097  -14.1342 N   0  0  0  0  0  0  0  0  0  0  0  0
   19.5173   -7.7898  -13.5390 C   0  0  1  0  0  0  0  0  0  0  0  0
   19.8804   -7.8096  -12.0716 C   0  0  0  0  0  0  0  0  0  0  0  0
   18.5619   -8.5518  -11.0875 S   0  0  0  0  0  0  0  0  0  0  0  0
   20.5272   -6.9346  -14.2277 C   0  0  0  0  0  0  0  0  0  0  0  0
   20.6723   -5.5714  -13.9340 O   0  0  0  0  0  0  0  0  0  0  0  0
   21.3105   -7.3801  -15.1128 O   0  0  0  0  0  0  0  0  0  0  0  0
  2  7  1  0
  2  1  1  1
  3  2  1  0
  4  3  1  0
  5  4  1  0
  5  9  1  0
  6  5  2  0
  7  8  2  0
 11 13  1  0
 11 10  1  0
 12 11  2  0
 15 14  1  6
 14 13  1  0
 16 15  1  0
 16  7  1  0
 17 18  2  0
 17 15  1  0
 19 17  1  0
 20 19  1  0
 20 23  1  0
 20 21  1  1
 22 21  1  0
 23 24  1  0
 25 23  2  0
M  END
$$$$
