EQC.pdb
     RDKit          3D

 25 24  0  0  1  0  0  0  0  0999 V2000
   16.2870  -12.4182  -13.7885 N   0  0  0  0  0  0  0  0  0  0  0  0
   16.2467  -11.0163  -14.1055 C   0  0  1  0  0  0  0  0  0  0  0  0
   14.8353  -10.5652  -14.4079 C   0  0  0  0  0  0  0  0  0  0  0  0
   14.4704  -11.1357  -15.7741 C   0  0  0  0  0  0  0  0  0  0  0  0
   14.8298  -10.1835  -16.8587 C   0  0  0  0  0  0  0  0  0  0  0  0
   14.0068   -9.5196  -17.5100 O   0  0  0  0  0  0  0  0  0  0  0  0
   16.8336  -10.2687  -12.9647 C   0  0  0  0  0  0  0  0  0  0  0  0
   16.6032  -10.5870  -11.7787 O   0  0  0  0  0  0  0  0  0  0  0  0
   16.1799  -10.0446  -17.1437 O   0  0  0  0  0  0  0  0  0  0  0  0
   21.6073   -6.1987  -13.6518 N   0  0  0  0  0  0  0  0  0  0  0  0
   21.2901   -6.0458  -12.2886 C   0  0  0  0  0  0  0  0  0  0  0  0
   22.0085   -5.3317  -11.5633 O   0  0  0  0  0  0  0  0  0  0  0  0
   20.1117   -6.7305  -11.7282 C   0  0  0  0  0  0  0  0  0  0  0  0
   19.4087   -7.5751  -12.7752 C   0  0  0  0  0  0  0  0  0  0  0  0
   18.2341   -8.3219  -12.1792 C   0  0  2  0  0  0  0  0  0  0  0  0
   17.6788   -9.1637  -13.2001 N   0  0  0  0  0  0  0  0  0  0  0  0
   17.2762   -7.3925  -11.5843 C   0  0  0  0  0  0  0  0  0  0  0  0
   16.5753   -6.6848  -12.3535 O   0  0  0  0  0  0  0  0  0  0  0  0
   17.0590   -7.2104  -10.1911 N   0  0  0  0  0  0  0  0  0  0  0  0
   16.0212   -6.3492   -9.6560 C   0  0  1  0  0  0  0  0  0  0  0  0
   15.4978   -6.8579   -8.3321 C   0  0  0  0  0  0  0  0  0  0  0  0
   14.3603   -8.2386   -8.5720 S   0  0  0  0  0  0  0  0  0  0  0  0
   16.6535   -5.0233   -9.3957 C   0  0  0  0  0  0  0  0  0  0  0  0
   15.8997   -3.8972   -9.0361 O   0  0  0  0  0  0  0  0  0  0  0  0
   17.8990   -4.8313   -9.4818 O   0  0  0  0  0  0  0  0  0  0  0  0
  2  7  1  0
  2  1  1  1
  3  2  1  0
  4  3  1  0
  5  4  1  0
  5  9  1  0
  6  5  2  0
  7  8  2  0
 11 13  1  0
 11 10  1  0
 12 11  2  0
 15 14  1  6
 14 13  1  0
 16 15  1  0
 16  7  1  0
 17 18  2  0
 17 15  1  0
 19 17  1  0
 20 19  1  0
 20 23  1  0
 20 21  1  1
 22 21  1  0
 23 24  1  0
 25 23  2  0
M  END
$$$$
