EQC.pdb
     RDKit          3D

 25 24  0  0  1  0  0  0  0  0999 V2000
   14.1898  -11.3496  -14.2134 N   0  0  0  0  0  0  0  0  0  0  0  0
   15.2406  -11.2874  -13.2339 C   0  0  1  0  0  0  0  0  0  0  0  0
   16.4303  -12.1202  -13.6559 C   0  0  0  0  0  0  0  0  0  0  0  0
   16.0067  -13.5816  -13.5557 C   0  0  0  0  0  0  0  0  0  0  0  0
   17.0562  -14.4764  -14.1125 C   0  0  0  0  0  0  0  0  0  0  0  0
   17.0075  -15.7169  -14.0835 O   0  0  0  0  0  0  0  0  0  0  0  0
   15.6053   -9.8612  -13.0391 C   0  0  0  0  0  0  0  0  0  0  0  0
   15.5132   -9.0245  -13.9624 O   0  0  0  0  0  0  0  0  0  0  0  0
   18.1528  -13.8615  -14.6979 O   0  0  0  0  0  0  0  0  0  0  0  0
   14.8694   -6.6413   -7.8726 N   0  0  0  0  0  0  0  0  0  0  0  0
   15.7931   -5.8108   -8.5356 C   0  0  0  0  0  0  0  0  0  0  0  0
   16.0856   -4.7012   -8.0505 O   0  0  0  0  0  0  0  0  0  0  0  0
   16.4078   -6.2583   -9.7979 C   0  0  0  0  0  0  0  0  0  0  0  0
   15.9535   -7.6571  -10.1728 C   0  0  0  0  0  0  0  0  0  0  0  0
   16.5299   -8.0819  -11.5070 C   0  0  2  0  0  0  0  0  0  0  0  0
   16.0717   -9.4130  -11.7852 N   0  0  0  0  0  0  0  0  0  0  0  0
   17.9839   -7.9365  -11.5139 C   0  0  0  0  0  0  0  0  0  0  0  0
   18.6755   -8.8318  -10.9626 O   0  0  0  0  0  0  0  0  0  0  0  0
   18.7027   -6.8572  -12.0966 N   0  0  0  0  0  0  0  0  0  0  0  0
   20.1239   -6.9135  -12.3833 C   0  0  1  0  0  0  0  0  0  0  0  0
   20.4497   -7.9893  -13.3942 C   0  0  0  0  0  0  0  0  0  0  0  0
   22.1802   -7.9015  -13.8995 S   0  0  0  0  0  0  0  0  0  0  0  0
   20.4906   -5.6066  -13.0022 C   0  0  0  0  0  0  0  0  0  0  0  0
   21.7471   -5.0164  -12.8051 O   0  0  0  0  0  0  0  0  0  0  0  0
   19.6991   -4.9526  -13.7378 O   0  0  0  0  0  0  0  0  0  0  0  0
  2  7  1  0
  2  1  1  6
  3  2  1  0
  4  3  1  0
  5  4  1  0
  5  9  1  0
  6  5  2  0
  7  8  2  0
 11 13  1  0
 11 10  1  0
 12 11  2  0
 15 14  1  1
 14 13  1  0
 16 15  1  0
 16  7  1  0
 17 18  2  0
 17 15  1  0
 19 17  1  0
 20 19  1  0
 20 23  1  0
 20 21  1  6
 22 21  1  0
 23 24  1  0
 25 23  2  0
M  END
$$$$
