EQC.pdb
     RDKit          3D

 25 24  0  0  1  0  0  0  0  0999 V2000
   17.5726  -10.2287  -15.6123 N   0  0  0  0  0  0  0  0  0  0  0  0
   17.9999   -9.8689  -14.2874 C   0  0  1  0  0  0  0  0  0  0  0  0
   19.0566   -8.7878  -14.3291 C   0  0  0  0  0  0  0  0  0  0  0  0
   20.3108   -9.4163  -14.9266 C   0  0  0  0  0  0  0  0  0  0  0  0
   21.4628   -8.4791  -14.8453 C   0  0  0  0  0  0  0  0  0  0  0  0
   21.9131   -8.0117  -13.7865 O   0  0  0  0  0  0  0  0  0  0  0  0
   16.8039   -9.4436  -13.5169 C   0  0  0  0  0  0  0  0  0  0  0  0
   15.9070   -8.7388  -14.0266 O   0  0  0  0  0  0  0  0  0  0  0  0
   22.0576   -8.1174  -16.0448 O   0  0  0  0  0  0  0  0  0  0  0  0
   13.7154  -12.9727   -9.7743 N   0  0  0  0  0  0  0  0  0  0  0  0
   13.1864  -12.4374  -10.9642 C   0  0  0  0  0  0  0  0  0  0  0  0
   12.1906  -12.9687  -11.4917 O   0  0  0  0  0  0  0  0  0  0  0  0
   13.8128  -11.2532  -11.5782 C   0  0  0  0  0  0  0  0  0  0  0  0
   14.9685  -10.7376  -10.7401 C   0  0  0  0  0  0  0  0  0  0  0  0
   15.5488   -9.4686  -11.3278 C   0  0  2  0  0  0  0  0  0  0  0  0
   16.6525   -9.8332  -12.1694 N   0  0  0  0  0  0  0  0  0  0  0  0
   15.8905   -8.5171  -10.2726 C   0  0  0  0  0  0  0  0  0  0  0  0
   16.9110   -8.7443   -9.5722 O   0  0  0  0  0  0  0  0  0  0  0  0
   15.1630   -7.3368   -9.9584 N   0  0  0  0  0  0  0  0  0  0  0  0
   15.5888   -6.3883   -8.9464 C   0  0  1  0  0  0  0  0  0  0  0  0
   15.9271   -5.0425   -9.5462 C   0  0  0  0  0  0  0  0  0  0  0  0
   17.2675   -5.1861  -10.7463 S   0  0  0  0  0  0  0  0  0  0  0  0
   14.4266   -6.1807   -8.0344 C   0  0  0  0  0  0  0  0  0  0  0  0
   14.5428   -5.4716   -6.8305 O   0  0  0  0  0  0  0  0  0  0  0  0
   13.2721   -6.6270   -8.2860 O   0  0  0  0  0  0  0  0  0  0  0  0
  2  7  1  0
  2  1  1  6
  3  2  1  0
  4  3  1  0
  5  4  1  0
  5  9  1  0
  6  5  2  0
  7  8  2  0
 11 13  1  0
 11 10  1  0
 12 11  2  0
 15 14  1  1
 14 13  1  0
 16 15  1  0
 16  7  1  0
 17 18  2  0
 17 15  1  0
 19 17  1  0
 20 19  1  0
 20 23  1  0
 20 21  1  6
 22 21  1  0
 23 24  1  0
 25 23  2  0
M  END
$$$$
