ESD.pdb
     RDKit          3D

 24 23  0  0  1  0  0  0  0  0999 V2000
   24.2187  -34.9335   -8.6451 N   0  0  0  0  0  0  0  0  0  0  0  0
   23.8280  -34.5022   -7.3085 C   0  0  1  0  0  0  0  0  0  0  0  0
   22.7805  -35.3811   -6.7193 C   0  0  0  0  0  0  0  0  0  0  0  0
   21.4322  -35.3071   -7.3518 C   0  0  0  0  0  0  0  0  0  0  0  0
   20.5175  -34.3761   -6.6529 C   0  0  0  0  0  0  0  0  0  0  0  0
   19.3107  -34.2911   -7.0708 O   0  0  0  0  0  0  0  0  0  0  0  0
   25.0664  -34.4133   -6.4951 C   0  0  0  0  0  0  0  0  0  0  0  0
   26.0467  -35.1741   -6.7172 O   0  0  0  0  0  0  0  0  0  0  0  0
   20.8620  -33.5916   -5.5869 O   0  0  0  0  0  0  0  0  0  0  0  0
   24.9750  -31.9315   -3.4056 O   0  0  0  0  0  0  0  0  0  0  0  0
   26.3190  -32.0988   -3.7864 C   0  0  0  0  0  0  0  0  0  0  0  0
   26.3961  -33.3547   -4.6383 C   0  0  2  0  0  0  0  0  0  0  0  0
   25.1949  -33.4772   -5.4448 N   0  0  0  0  0  0  0  0  0  0  0  0
   26.4611  -34.5257   -3.7367 C   0  0  0  0  0  0  0  0  0  0  0  0
   25.4118  -35.1417   -3.4441 O   0  0  0  0  0  0  0  0  0  0  0  0
   27.6778  -35.0049   -3.1696 N   0  0  0  0  0  0  0  0  0  0  0  0
   27.7327  -36.0940   -2.2290 C   0  0  1  0  0  0  0  0  0  0  0  0
   29.2039  -36.4770   -2.0915 C   0  0  0  0  0  0  0  0  0  0  0  0
   29.3206  -37.6938   -1.2456 C   0  0  0  0  0  0  0  0  0  0  0  0
   28.2789  -38.3507   -0.9698 O   0  0  0  0  0  0  0  0  0  0  0  0
   27.1788  -35.7050   -0.8999 C   0  0  0  0  0  0  0  0  0  0  0  0
   27.1395  -34.4954   -0.5648 O   0  0  0  0  0  0  0  0  0  0  0  0
   30.5197  -38.1624   -0.7304 O   0  0  0  0  0  0  0  0  0  0  0  0
   26.6963  -36.6451   -0.0027 O   0  0  0  0  0  0  0  0  0  0  0  0
  2  1  1  6
  3  2  1  0
  3  4  1  0
  5  4  1  0
  5  9  1  0
  6  5  2  0
  7  8  2  0
  7  2  1  0
 10 11  1  0
 12 11  1  1
 12 14  1  0
 12 13  1  0
 13  7  1  0
 14 16  1  0
 15 14  2  0
 16 17  1  0
 17 21  1  0
 17 18  1  1
 19 18  1  0
 20 19  2  0
 21 22  2  0
 21 24  1  0
 23 19  1  0
M  END
$$$$
