ESD.pdb
     RDKit          3D

 24 23  0  0  1  0  0  0  0  0999 V2000
   17.6266  -11.2638  -14.6183 N   0  0  0  0  0  0  0  0  0  0  0  0
   18.0771  -10.2609  -15.5756 C   0  0  1  0  0  0  0  0  0  0  0  0
   16.9494   -9.6907  -16.3631 C   0  0  0  0  0  0  0  0  0  0  0  0
   15.6409   -9.5914  -15.6549 C   0  0  0  0  0  0  0  0  0  0  0  0
   14.6315   -8.8187  -16.4140 C   0  0  0  0  0  0  0  0  0  0  0  0
   14.0091   -9.4110  -17.3627 O   0  0  0  0  0  0  0  0  0  0  0  0
   18.8553   -9.2484  -14.8189 C   0  0  0  0  0  0  0  0  0  0  0  0
   18.4221   -8.7712  -13.7356 O   0  0  0  0  0  0  0  0  0  0  0  0
   14.3082   -7.5105  -16.1811 O   0  0  0  0  0  0  0  0  0  0  0  0
   22.3683   -7.7934  -16.4089 O   0  0  0  0  0  0  0  0  0  0  0  0
   22.3414   -7.8644  -15.0041 C   0  0  0  0  0  0  0  0  0  0  0  0
   20.8865   -7.7820  -14.5736 C   0  0  2  0  0  0  0  0  0  0  0  0
   20.1063   -8.7817  -15.2807 N   0  0  0  0  0  0  0  0  0  0  0  0
   20.3651   -6.4489  -14.9472 C   0  0  0  0  0  0  0  0  0  0  0  0
   19.4359   -6.3580  -15.7804 O   0  0  0  0  0  0  0  0  0  0  0  0
   20.8707   -5.2340  -14.3997 N   0  0  0  0  0  0  0  0  0  0  0  0
   20.4437   -3.9324  -14.8442 C   0  0  1  0  0  0  0  0  0  0  0  0
   18.9473   -3.8430  -14.5558 C   0  0  0  0  0  0  0  0  0  0  0  0
   18.4575   -2.4834  -14.9041 C   0  0  0  0  0  0  0  0  0  0  0  0
   19.0987   -1.7986  -15.7483 O   0  0  0  0  0  0  0  0  0  0  0  0
   21.1681   -2.8401  -14.1326 C   0  0  0  0  0  0  0  0  0  0  0  0
   21.7545   -3.0772  -13.0477 O   0  0  0  0  0  0  0  0  0  0  0  0
   17.3230   -1.9078  -14.3524 O   0  0  0  0  0  0  0  0  0  0  0  0
   21.2205   -1.5479  -14.6320 O   0  0  0  0  0  0  0  0  0  0  0  0
  2  1  1  1
  3  2  1  0
  3  4  1  0
  5  4  1  0
  5  9  1  0
  6  5  2  0
  7  8  2  0
  7  2  1  0
 10 11  1  0
 12 11  1  6
 12 14  1  0
 12 13  1  0
 13  7  1  0
 14 16  1  0
 15 14  2  0
 16 17  1  0
 17 21  1  0
 17 18  1  1
 19 18  1  0
 20 19  2  0
 21 22  2  0
 21 24  1  0
 23 19  1  0
M  END
$$$$
