ESD.pdb
     RDKit          3D

 24 23  0  0  1  0  0  0  0  0999 V2000
   18.9212  -12.7542  -15.8113 N   0  0  0  0  0  0  0  0  0  0  0  0
   18.7527  -11.3993  -16.3224 C   0  0  1  0  0  0  0  0  0  0  0  0
   17.3806  -10.8747  -16.0792 C   0  0  0  0  0  0  0  0  0  0  0  0
   16.2630  -11.6676  -16.6673 C   0  0  0  0  0  0  0  0  0  0  0  0
   15.1163  -11.8212  -15.7435 C   0  0  0  0  0  0  0  0  0  0  0  0
   14.0807  -12.4422  -16.1679 O   0  0  0  0  0  0  0  0  0  0  0  0
   19.8291  -10.5678  -15.7280 C   0  0  0  0  0  0  0  0  0  0  0  0
   20.0257  -10.5507  -14.4830 O   0  0  0  0  0  0  0  0  0  0  0  0
   15.0741  -11.3478  -14.4611 O   0  0  0  0  0  0  0  0  0  0  0  0
   23.5926  -10.2987  -16.6910 O   0  0  0  0  0  0  0  0  0  0  0  0
   22.9661   -9.0595  -16.9170 C   0  0  0  0  0  0  0  0  0  0  0  0
   21.7663   -8.9816  -15.9878 C   0  0  2  0  0  0  0  0  0  0  0  0
   20.6716   -9.7661  -16.5302 N   0  0  0  0  0  0  0  0  0  0  0  0
   21.3244   -7.5717  -15.9152 C   0  0  0  0  0  0  0  0  0  0  0  0
   20.5099   -7.1332  -16.7581 O   0  0  0  0  0  0  0  0  0  0  0  0
   21.7821   -6.6629  -14.9172 N   0  0  0  0  0  0  0  0  0  0  0  0
   21.3533   -5.2900  -14.8463 C   0  0  1  0  0  0  0  0  0  0  0  0
   19.8450   -5.3163  -14.6121 C   0  0  0  0  0  0  0  0  0  0  0  0
   19.3419   -3.9241  -14.4762 C   0  0  0  0  0  0  0  0  0  0  0  0
   19.9450   -2.9930  -15.0779 O   0  0  0  0  0  0  0  0  0  0  0  0
   22.0303   -4.5558  -13.7386 C   0  0  0  0  0  0  0  0  0  0  0  0
   22.7666   -5.1751  -12.9316 O   0  0  0  0  0  0  0  0  0  0  0  0
   18.2345   -3.5752  -13.7181 O   0  0  0  0  0  0  0  0  0  0  0  0
   21.8755   -3.1896  -13.5619 O   0  0  0  0  0  0  0  0  0  0  0  0
  2  1  1  1
  3  2  1  0
  3  4  1  0
  5  4  1  0
  5  9  1  0
  6  5  2  0
  7  8  2  0
  7  2  1  0
 10 11  1  0
 12 11  1  6
 12 14  1  0
 12 13  1  0
 13  7  1  0
 14 16  1  0
 15 14  2  0
 16 17  1  0
 17 21  1  0
 17 18  1  1
 19 18  1  0
 20 19  2  0
 21 22  2  0
 21 24  1  0
 23 19  1  0
M  END
$$$$
