ESD.pdb
     RDKit          3D

 24 23  0  0  1  0  0  0  0  0999 V2000
   17.2907  -11.2666  -16.1656 N   0  0  0  0  0  0  0  0  0  0  0  0
   18.4016  -10.6617  -16.8903 C   0  0  1  0  0  0  0  0  0  0  0  0
   17.9363   -9.7897  -18.0039 C   0  0  0  0  0  0  0  0  0  0  0  0
   17.2187  -10.4757  -19.1165 C   0  0  0  0  0  0  0  0  0  0  0  0
   16.8395   -9.5552  -20.2124 C   0  0  0  0  0  0  0  0  0  0  0  0
   16.1985  -10.0385  -21.2093 O   0  0  0  0  0  0  0  0  0  0  0  0
   19.2495   -9.9628  -15.8925 C   0  0  0  0  0  0  0  0  0  0  0  0
   18.7386   -9.3833  -14.8964 O   0  0  0  0  0  0  0  0  0  0  0  0
   17.1223   -8.2177  -20.2456 O   0  0  0  0  0  0  0  0  0  0  0  0
   23.1715  -10.7011  -14.5762 O   0  0  0  0  0  0  0  0  0  0  0  0
   22.9568   -9.5344  -15.3325 C   0  0  0  0  0  0  0  0  0  0  0  0
   21.5041   -9.1316  -15.1425 C   0  0  2  0  0  0  0  0  0  0  0  0
   20.6559   -9.9194  -16.0190 N   0  0  0  0  0  0  0  0  0  0  0  0
   21.3609   -7.7102  -15.5266 C   0  0  0  0  0  0  0  0  0  0  0  0
   20.8268   -7.4140  -16.6189 O   0  0  0  0  0  0  0  0  0  0  0  0
   21.8052   -6.6335  -14.7053 N   0  0  0  0  0  0  0  0  0  0  0  0
   21.6527   -5.2491  -15.0715 C   0  0  1  0  0  0  0  0  0  0  0  0
   20.1541   -5.0016  -15.2248 C   0  0  0  0  0  0  0  0  0  0  0  0
   19.9171   -3.5602  -15.5000 C   0  0  0  0  0  0  0  0  0  0  0  0
   20.7916   -2.9049  -16.1313 O   0  0  0  0  0  0  0  0  0  0  0  0
   22.2185   -4.3375  -14.0354 C   0  0  0  0  0  0  0  0  0  0  0  0
   22.3908   -4.7498  -12.8618 O   0  0  0  0  0  0  0  0  0  0  0  0
   18.7786   -2.8763  -15.1013 O   0  0  0  0  0  0  0  0  0  0  0  0
   22.5684   -3.0274  -14.3233 O   0  0  0  0  0  0  0  0  0  0  0  0
  2  1  1  1
  3  2  1  0
  3  4  1  0
  5  4  1  0
  5  9  1  0
  6  5  2  0
  7  8  2  0
  7  2  1  0
 10 11  1  0
 12 11  1  6
 12 14  1  0
 12 13  1  0
 13  7  1  0
 14 16  1  0
 15 14  2  0
 16 17  1  0
 17 21  1  0
 17 18  1  1
 19 18  1  0
 20 19  2  0
 21 22  2  0
 21 24  1  0
 23 19  1  0
M  END
$$$$
