ESD.pdb
     RDKit          3D

 24 23  0  0  1  0  0  0  0  0999 V2000
   19.7662  -13.3015  -17.0517 N   0  0  0  0  0  0  0  0  0  0  0  0
   20.8329  -12.4171  -17.5045 C   0  0  1  0  0  0  0  0  0  0  0  0
   20.4654  -11.6861  -18.7485 C   0  0  0  0  0  0  0  0  0  0  0  0
   19.2228  -10.8645  -18.6821 C   0  0  0  0  0  0  0  0  0  0  0  0
   18.9216  -10.1703  -19.9546 C   0  0  0  0  0  0  0  0  0  0  0  0
   18.7797   -8.8985  -19.9273 O   0  0  0  0  0  0  0  0  0  0  0  0
   21.1823  -11.5305  -16.3664 C   0  0  0  0  0  0  0  0  0  0  0  0
   20.2920  -11.0765  -15.5981 O   0  0  0  0  0  0  0  0  0  0  0  0
   18.7809  -10.7847  -21.1683 O   0  0  0  0  0  0  0  0  0  0  0  0
   25.0176  -10.0220  -16.0443 O   0  0  0  0  0  0  0  0  0  0  0  0
   24.3890  -10.2873  -14.8140 C   0  0  0  0  0  0  0  0  0  0  0  0
   22.8889  -10.2307  -15.0495 C   0  0  2  0  0  0  0  0  0  0  0  0
   22.5200  -11.1618  -16.1007 N   0  0  0  0  0  0  0  0  0  0  0  0
   22.5403   -8.8672  -15.5053 C   0  0  0  0  0  0  0  0  0  0  0  0
   22.3184   -8.6572  -16.7189 O   0  0  0  0  0  0  0  0  0  0  0  0
   22.4389   -7.7533  -14.6220 N   0  0  0  0  0  0  0  0  0  0  0  0
   22.0778   -6.4303  -15.0615 C   0  0  1  0  0  0  0  0  0  0  0  0
   20.6523   -6.5240  -15.5995 C   0  0  0  0  0  0  0  0  0  0  0  0
   20.2218   -5.1894  -16.0926 C   0  0  0  0  0  0  0  0  0  0  0  0
   19.4838   -4.4742  -15.3601 O   0  0  0  0  0  0  0  0  0  0  0  0
   22.1401   -5.4413  -13.9468 C   0  0  0  0  0  0  0  0  0  0  0  0
   22.1822   -5.8379  -12.7561 O   0  0  0  0  0  0  0  0  0  0  0  0
   20.5837   -4.6697  -17.3262 O   0  0  0  0  0  0  0  0  0  0  0  0
   22.1537   -4.0746  -14.1787 O   0  0  0  0  0  0  0  0  0  0  0  0
  2  1  1  1
  3  2  1  0
  3  4  1  0
  5  4  1  0
  5  9  1  0
  6  5  2  0
  7  8  2  0
  7  2  1  0
 10 11  1  0
 12 11  1  6
 12 14  1  0
 12 13  1  0
 13  7  1  0
 14 16  1  0
 15 14  2  0
 16 17  1  0
 17 21  1  0
 17 18  1  1
 19 18  1  0
 20 19  2  0
 21 22  2  0
 21 24  1  0
 23 19  1  0
M  END
$$$$
