ESD.pdb
     RDKit          3D

 24 23  0  0  1  0  0  0  0  0999 V2000
   20.7870  -13.9340  -16.3835 N   0  0  0  0  0  0  0  0  0  0  0  0
   20.2173  -12.7398  -16.9957 C   0  0  1  0  0  0  0  0  0  0  0  0
   18.7691  -12.5869  -16.6855 C   0  0  0  0  0  0  0  0  0  0  0  0
   18.2062  -13.5506  -15.6965 C   0  0  0  0  0  0  0  0  0  0  0  0
   16.7480  -13.3884  -15.4989 C   0  0  0  0  0  0  0  0  0  0  0  0
   16.3411  -12.9151  -14.3814 O   0  0  0  0  0  0  0  0  0  0  0  0
   21.0493  -11.5870  -16.5690 C   0  0  0  0  0  0  0  0  0  0  0  0
   21.2858  -11.3712  -15.3498 O   0  0  0  0  0  0  0  0  0  0  0  0
   15.7916  -13.7074  -16.4229 O   0  0  0  0  0  0  0  0  0  0  0  0
   24.1412  -10.2229  -18.7056 O   0  0  0  0  0  0  0  0  0  0  0  0
   23.2990   -9.1563  -18.3417 C   0  0  0  0  0  0  0  0  0  0  0  0
   22.4952   -9.6051  -17.1329 C   0  0  2  0  0  0  0  0  0  0  0  0
   21.6061  -10.6901  -17.5078 N   0  0  0  0  0  0  0  0  0  0  0  0
   21.6625   -8.4695  -16.6796 C   0  0  0  0  0  0  0  0  0  0  0  0
   20.4755   -8.3786  -17.0652 O   0  0  0  0  0  0  0  0  0  0  0  0
   22.1446   -7.4500  -15.8081 N   0  0  0  0  0  0  0  0  0  0  0  0
   21.3068   -6.4040  -15.2808 C   0  0  1  0  0  0  0  0  0  0  0  0
   20.2356   -7.0884  -14.4356 C   0  0  0  0  0  0  0  0  0  0  0  0
   19.2931   -6.0661  -13.9100 C   0  0  0  0  0  0  0  0  0  0  0  0
   19.0753   -5.0258  -14.5906 O   0  0  0  0  0  0  0  0  0  0  0  0
   22.0824   -5.4434  -14.4441 C   0  0  0  0  0  0  0  0  0  0  0  0
   23.2944   -5.6606  -14.1975 O   0  0  0  0  0  0  0  0  0  0  0  0
   18.6262   -6.1821  -12.6998 O   0  0  0  0  0  0  0  0  0  0  0  0
   21.5062   -4.2977  -13.9178 O   0  0  0  0  0  0  0  0  0  0  0  0
  2  1  1  1
  3  2  1  0
  3  4  1  0
  5  4  1  0
  5  9  1  0
  6  5  2  0
  7  8  2  0
  7  2  1  0
 10 11  1  0
 12 11  1  6
 12 14  1  0
 12 13  1  0
 13  7  1  0
 14 16  1  0
 15 14  2  0
 16 17  1  0
 17 21  1  0
 17 18  1  1
 19 18  1  0
 20 19  2  0
 21 22  2  0
 21 24  1  0
 23 19  1  0
M  END
$$$$
