ESD.pdb
     RDKit          3D

 24 23  0  0  1  0  0  0  0  0999 V2000
   18.9900  -13.2892  -16.1299 N   0  0  0  0  0  0  0  0  0  0  0  0
   19.2483  -11.9802  -16.7174 C   0  0  1  0  0  0  0  0  0  0  0  0
   18.0257  -11.3877  -17.3265 C   0  0  0  0  0  0  0  0  0  0  0  0
   16.7237  -11.8690  -16.7817 C   0  0  0  0  0  0  0  0  0  0  0  0
   15.5558  -11.3026  -17.4937 C   0  0  0  0  0  0  0  0  0  0  0  0
   15.1152  -11.9282  -18.5197 O   0  0  0  0  0  0  0  0  0  0  0  0
   19.8635  -11.1376  -15.6615 C   0  0  0  0  0  0  0  0  0  0  0  0
   19.4583  -11.1898  -14.4690 O   0  0  0  0  0  0  0  0  0  0  0  0
   14.9041  -10.1534  -17.1402 O   0  0  0  0  0  0  0  0  0  0  0  0
   23.7302   -9.1144  -13.9300 O   0  0  0  0  0  0  0  0  0  0  0  0
   23.0903   -9.9034  -14.9033 C   0  0  0  0  0  0  0  0  0  0  0  0
   21.6259   -9.4983  -14.9246 C   0  0  2  0  0  0  0  0  0  0  0  0
   20.9224  -10.2479  -15.9500 N   0  0  0  0  0  0  0  0  0  0  0  0
   21.5449   -8.0629  -15.2730 C   0  0  0  0  0  0  0  0  0  0  0  0
   21.7676   -7.6969  -16.4489 O   0  0  0  0  0  0  0  0  0  0  0  0
   21.2193   -7.0491  -14.3256 N   0  0  0  0  0  0  0  0  0  0  0  0
   21.1755   -5.6480  -14.6556 C   0  0  1  0  0  0  0  0  0  0  0  0
   19.8550   -5.1126  -14.1081 C   0  0  0  0  0  0  0  0  0  0  0  0
   18.7325   -5.6246  -14.9373 C   0  0  0  0  0  0  0  0  0  0  0  0
   18.7863   -5.4913  -16.1912 O   0  0  0  0  0  0  0  0  0  0  0  0
   22.3187   -4.9024  -14.0540 C   0  0  0  0  0  0  0  0  0  0  0  0
   23.0906   -5.4784  -13.2482 O   0  0  0  0  0  0  0  0  0  0  0  0
   17.6105   -6.2496  -14.4146 O   0  0  0  0  0  0  0  0  0  0  0  0
   22.5671   -3.5724  -14.3559 O   0  0  0  0  0  0  0  0  0  0  0  0
  2  1  1  1
  3  2  1  0
  3  4  1  0
  5  4  1  0
  5  9  1  0
  6  5  2  0
  7  8  2  0
  7  2  1  0
 10 11  1  0
 12 11  1  6
 12 14  1  0
 12 13  1  0
 13  7  1  0
 14 16  1  0
 15 14  2  0
 16 17  1  0
 17 21  1  0
 17 18  1  1
 19 18  1  0
 20 19  2  0
 21 22  2  0
 21 24  1  0
 23 19  1  0
M  END
$$$$
