ESD.pdb
     RDKit          3D

 24 23  0  0  1  0  0  0  0  0999 V2000
   16.8812  -11.7817  -14.2796 N   0  0  0  0  0  0  0  0  0  0  0  0
   17.8111  -11.3094  -15.2981 C   0  0  1  0  0  0  0  0  0  0  0  0
   17.1133  -10.6198  -16.4182 C   0  0  0  0  0  0  0  0  0  0  0  0
   15.6259  -10.5645  -16.3277 C   0  0  0  0  0  0  0  0  0  0  0  0
   15.0011   -9.9054  -17.4969 C   0  0  0  0  0  0  0  0  0  0  0  0
   14.7829  -10.6129  -18.5410 O   0  0  0  0  0  0  0  0  0  0  0  0
   18.8251  -10.4696  -14.6127 C   0  0  0  0  0  0  0  0  0  0  0  0
   18.5445   -9.8440  -13.5550 O   0  0  0  0  0  0  0  0  0  0  0  0
   14.6356   -8.5887  -17.5518 O   0  0  0  0  0  0  0  0  0  0  0  0
   22.5004  -10.0019  -16.3660 O   0  0  0  0  0  0  0  0  0  0  0  0
   22.5178   -9.8587  -14.9665 C   0  0  0  0  0  0  0  0  0  0  0  0
   21.1216   -9.4416  -14.5358 C   0  0  2  0  0  0  0  0  0  0  0  0
   20.1386  -10.3386  -15.1165 N   0  0  0  0  0  0  0  0  0  0  0  0
   20.8608   -8.0814  -15.0556 C   0  0  0  0  0  0  0  0  0  0  0  0
   20.1956   -7.9362  -16.1057 O   0  0  0  0  0  0  0  0  0  0  0  0
   21.3330   -6.8993  -14.4146 N   0  0  0  0  0  0  0  0  0  0  0  0
   21.1190   -5.5774  -14.9443 C   0  0  1  0  0  0  0  0  0  0  0  0
   21.4328   -4.5995  -13.8150 C   0  0  0  0  0  0  0  0  0  0  0  0
   21.2442   -3.2072  -14.3004 C   0  0  0  0  0  0  0  0  0  0  0  0
   20.0750   -2.7916  -14.5305 O   0  0  0  0  0  0  0  0  0  0  0  0
   21.9979   -5.3031  -16.1177 C   0  0  0  0  0  0  0  0  0  0  0  0
   21.6238   -4.5023  -17.0099 O   0  0  0  0  0  0  0  0  0  0  0  0
   22.2865   -2.3199  -14.5212 O   0  0  0  0  0  0  0  0  0  0  0  0
   23.2358   -5.9094  -16.2647 O   0  0  0  0  0  0  0  0  0  0  0  0
  2  1  1  1
  3  2  1  0
  3  4  1  0
  5  4  1  0
  5  9  1  0
  6  5  2  0
  7  8  2  0
  7  2  1  0
 10 11  1  0
 12 11  1  6
 12 14  1  0
 12 13  1  0
 13  7  1  0
 14 16  1  0
 15 14  2  0
 16 17  1  0
 17 21  1  0
 17 18  1  1
 19 18  1  0
 20 19  2  0
 21 22  2  0
 21 24  1  0
 23 19  1  0
M  END
$$$$
