RRM.pdb
     RDKit          3D

 31 30  0  0  1  0  0  0  0  0999 V2000
   11.4868  -13.3609   18.2634 N   0  0  0  0  0  0  0  0  0  0  0  0
   10.4345  -13.3354   17.3117 C   0  0  0  0  0  0  0  0  0  0  0  0
   10.5698  -13.8197   16.1160 N   0  0  0  0  0  0  0  0  0  0  0  0
    9.1464  -12.7664   17.6217 N   0  0  0  0  0  0  0  0  0  0  0  0
    8.4751  -13.0935   18.8700 C   0  0  0  0  0  0  0  0  0  0  0  0
    7.2814  -13.9560   18.5560 C   0  0  0  0  0  0  0  0  0  0  0  0
    6.9094  -14.9092   19.6441 C   0  0  0  0  0  0  0  0  0  0  0  0
    8.0701  -15.6140   20.2875 C   0  0  2  0  0  0  0  0  0  0  0  0
    8.5501  -16.7178   19.5092 N   0  0  0  0  0  0  0  0  0  0  0  0
    7.7845  -16.0377   21.6741 C   0  0  0  0  0  0  0  0  0  0  0  0
    7.1436  -15.3065   22.4867 O   0  0  0  0  0  0  0  0  0  0  0  0
    9.7749  -13.7497   15.4287 N   0  0  0  0  0  0  0  0  0  0  0  0
    7.7991  -24.2062   22.4568 C   0  0  0  0  0  0  0  0  0  0  0  0
    6.7199  -23.6851   23.2157 N   0  0  0  0  0  0  0  0  0  0  0  0
    5.6916  -24.4080   23.4744 N   0  0  0  0  0  0  0  0  0  0  0  0
    6.7518  -22.3491   23.7100 C   0  0  0  0  0  0  0  0  0  0  0  0
    7.7871  -21.4095   23.3775 C   0  0  0  0  0  0  0  0  0  0  0  0
    7.4425  -20.0886   24.0529 C   0  0  0  0  0  0  0  0  0  0  0  0
    8.5008  -19.0630   23.8261 C   0  0  2  0  0  0  0  0  0  0  0  0
    7.9632  -17.6757   23.5625 N   0  0  0  0  0  0  0  0  0  0  0  0
    8.2156  -17.2963   22.1732 C   0  0  0  0  0  0  0  0  0  0  0  0
    8.6656  -16.7230   24.4512 O   0  0  0  0  0  0  0  0  0  0  0  0
    9.8166  -16.3074   24.1626 C   0  0  0  0  0  0  0  0  0  0  0  0
    4.8744  -24.0819   23.9964 S   0  0  0  0  0  0  0  0  0  0  0  0
    5.6150  -12.0565   27.2376 C   0  0  0  0  0  0  0  0  0  0  0  0
    7.3103  -11.4620   27.4706 C   0  0  0  0  0  0  0  0  0  0  0  0
    8.4475  -12.9244   27.4148 C   0  0  1  0  0  0  0  0  0  0  0  0
    7.8503  -13.9706   26.5273 N   0  0  0  0  0  0  0  0  0  0  0  0
    8.7496  -15.1327   26.3425 C   0  0  0  0  0  0  0  0  0  0  0  0
    8.0965  -16.2321   25.6527 O   0  0  0  0  0  0  0  0  0  0  0  0
    9.2265  -15.6582   27.6190 O   0  0  0  0  0  0  0  0  0  0  0  0
  2  3  2  0
  2  1  1  0
  4  2  1  0
  5  4  1  0
  6  5  1  0
  7  6  1  0
  8 10  1  0
  8  9  1  6
  8  7  1  0
 10 11  2  0
 13 12  1  0
 14 13  2  0
 15 16  1  0
 15 13  1  0
 17 18  1  0
 17 16  1  0
 19 18  1  6
 19 21  1  0
 20 19  1  0
 20 10  1  0
 21 22  2  0
 21 28  1  0
 23 24  1  0
 24 25  1  0
 25 26  1  0
 27 26  1  1
 27 29  1  0
 28 27  1  0
 29 31  2  0
 29 30  1  0
M  END
$$$$
