RRM.pdb
     RDKit          3D

 31 30  0  0  1  0  0  0  0  0999 V2000
    7.1401  -14.7082   15.1197 N   0  0  0  0  0  0  0  0  0  0  0  0
    7.8578  -13.5173   14.8360 C   0  0  0  0  0  0  0  0  0  0  0  0
    8.2018  -13.1863   13.6299 N   0  0  0  0  0  0  0  0  0  0  0  0
    8.2479  -12.6013   15.8789 N   0  0  0  0  0  0  0  0  0  0  0  0
    7.8621  -12.8461   17.2599 C   0  0  0  0  0  0  0  0  0  0  0  0
    8.3141  -14.2309   17.6414 C   0  0  0  0  0  0  0  0  0  0  0  0
    8.0579  -14.5889   19.0687 C   0  0  0  0  0  0  0  0  0  0  0  0
    9.2893  -14.9077   19.8686 C   0  0  2  0  0  0  0  0  0  0  0  0
   10.2585  -15.6545   19.1218 N   0  0  0  0  0  0  0  0  0  0  0  0
    8.9820  -15.5824   21.1469 C   0  0  0  0  0  0  0  0  0  0  0  0
    8.0185  -15.2230   21.8872 O   0  0  0  0  0  0  0  0  0  0  0  0
    8.8615  -12.3801   13.4752 N   0  0  0  0  0  0  0  0  0  0  0  0
   12.7846  -20.6828   20.4771 C   0  0  0  0  0  0  0  0  0  0  0  0
   11.8893  -20.2703   19.4571 N   0  0  0  0  0  0  0  0  0  0  0  0
   12.3316  -19.7996   18.3481 N   0  0  0  0  0  0  0  0  0  0  0  0
   10.4794  -20.3698   19.6377 C   0  0  0  0  0  0  0  0  0  0  0  0
    9.8089  -19.9724   20.8450 C   0  0  0  0  0  0  0  0  0  0  0  0
   10.7885  -19.1397   21.6615 C   0  0  0  0  0  0  0  0  0  0  0  0
   10.1817  -18.6768   22.9424 C   0  0  2  0  0  0  0  0  0  0  0  0
    9.3505  -17.4221   22.8085 N   0  0  0  0  0  0  0  0  0  0  0  0
    9.7555  -16.6778   21.6170 C   0  0  0  0  0  0  0  0  0  0  0  0
    9.5824  -16.5755   24.0002 O   0  0  0  0  0  0  0  0  0  0  0  0
   10.6975  -16.0258   24.1881 C   0  0  0  0  0  0  0  0  0  0  0  0
   11.7399  -19.4063   17.6121 S   0  0  0  0  0  0  0  0  0  0  0  0
    6.9081  -10.4382   26.2577 C   0  0  0  0  0  0  0  0  0  0  0  0
    6.4901  -12.2000   26.3137 C   0  0  0  0  0  0  0  0  0  0  0  0
    8.0679  -13.1636   26.4450 C   0  0  1  0  0  0  0  0  0  0  0  0
    7.7432  -14.6234   26.4925 N   0  0  0  0  0  0  0  0  0  0  0  0
    8.8942  -15.4695   26.1017 C   0  0  0  0  0  0  0  0  0  0  0  0
    8.5849  -16.3377   24.9784 O   0  0  0  0  0  0  0  0  0  0  0  0
    9.3294  -16.3329   27.1962 O   0  0  0  0  0  0  0  0  0  0  0  0
  2  3  2  0
  2  1  1  0
  4  2  1  0
  5  4  1  0
  6  5  1  0
  7  6  1  0
  8 10  1  0
  8  9  1  6
  8  7  1  0
 10 11  2  0
 13 12  1  0
 14 13  2  0
 15 16  1  0
 15 13  1  0
 17 18  1  0
 17 16  1  0
 19 18  1  6
 19 21  1  0
 20 19  1  0
 20 10  1  0
 21 22  2  0
 21 28  1  0
 23 24  1  0
 24 25  1  0
 25 26  1  0
 27 26  1  1
 27 29  1  0
 28 27  1  0
 29 31  2  0
 29 30  1  0
M  END
$$$$
