RRM.pdb
     RDKit          3D

 31 30  0  0  1  0  0  0  0  0999 V2000
    7.7976  -13.7930   14.4231 N   0  0  0  0  0  0  0  0  0  0  0  0
    8.8081  -14.6051   15.0004 C   0  0  0  0  0  0  0  0  0  0  0  0
    9.9512  -14.8054   14.4208 N   0  0  0  0  0  0  0  0  0  0  0  0
    8.6209  -15.2575   16.2725 N   0  0  0  0  0  0  0  0  0  0  0  0
    7.3221  -15.2414   16.9272 C   0  0  0  0  0  0  0  0  0  0  0  0
    7.4383  -15.9835   18.2323 C   0  0  0  0  0  0  0  0  0  0  0  0
    6.1820  -16.0056   19.0399 C   0  0  0  0  0  0  0  0  0  0  0  0
    6.3222  -15.4703   20.4369 C   0  0  2  0  0  0  0  0  0  0  0  0
    6.6469  -14.0745   20.4667 N   0  0  0  0  0  0  0  0  0  0  0  0
    7.2784  -16.2466   21.2535 C   0  0  0  0  0  0  0  0  0  0  0  0
    7.0430  -17.4353   21.6237 O   0  0  0  0  0  0  0  0  0  0  0  0
   10.6412  -15.4809   14.8413 N   0  0  0  0  0  0  0  0  0  0  0  0
   15.3693  -14.4388   19.1495 C   0  0  0  0  0  0  0  0  0  0  0  0
   13.9751  -14.5870   19.3647 N   0  0  0  0  0  0  0  0  0  0  0  0
   13.1339  -13.8385   18.7490 N   0  0  0  0  0  0  0  0  0  0  0  0
   13.4751  -15.5698   20.2671 C   0  0  0  0  0  0  0  0  0  0  0  0
   12.3249  -16.3847   19.9877 C   0  0  0  0  0  0  0  0  0  0  0  0
   11.1709  -15.8535   20.8277 C   0  0  0  0  0  0  0  0  0  0  0  0
   10.6418  -16.8943   21.7553 C   0  0  1  0  0  0  0  0  0  0  0  0
    9.4224  -16.4584   22.5339 N   0  0  0  0  0  0  0  0  0  0  0  0
    8.5215  -15.6979   21.6692 C   0  0  0  0  0  0  0  0  0  0  0  0
    9.8622  -15.5873   23.6467 O   0  0  0  0  0  0  0  0  0  0  0  0
    9.9255  -14.3404   23.4974 C   0  0  0  0  0  0  0  0  0  0  0  0
   12.1191  -13.8947   18.8657 S   0  0  0  0  0  0  0  0  0  0  0  0
    6.6378  -11.6913   28.4423 C   0  0  0  0  0  0  0  0  0  0  0  0
    6.8892  -12.7437   26.9894 C   0  0  0  0  0  0  0  0  0  0  0  0
    8.4917  -13.6499   27.2035 C   0  0  2  0  0  0  0  0  0  0  0  0
    8.7529  -14.4706   25.9801 N   0  0  0  0  0  0  0  0  0  0  0  0
    9.9897  -15.2771   26.0963 C   0  0  0  0  0  0  0  0  0  0  0  0
   10.2292  -16.0935   24.9185 O   0  0  0  0  0  0  0  0  0  0  0  0
    9.9392  -16.1865   27.2380 O   0  0  0  0  0  0  0  0  0  0  0  0
  2  3  2  0
  2  1  1  0
  4  2  1  0
  5  4  1  0
  6  5  1  0
  7  6  1  0
  8 10  1  0
  8  9  1  6
  8  7  1  0
 10 11  2  0
 13 12  1  0
 14 13  2  0
 15 16  1  0
 15 13  1  0
 17 18  1  0
 17 16  1  0
 19 18  1  6
 19 21  1  0
 20 19  1  0
 20 10  1  0
 21 22  2  0
 21 28  1  0
 23 24  1  0
 24 25  1  0
 25 26  1  0
 27 26  1  1
 27 29  1  0
 28 27  1  0
 29 31  2  0
 29 30  1  0
M  END
$$$$
