RRM.pdb
     RDKit          3D

 31 30  0  0  1  0  0  0  0  0999 V2000
   12.9387  -14.7648   20.0458 N   0  0  0  0  0  0  0  0  0  0  0  0
   12.2557  -14.7137   18.8030 C   0  0  0  0  0  0  0  0  0  0  0  0
   12.8373  -15.0038   17.6803 N   0  0  0  0  0  0  0  0  0  0  0  0
   10.8673  -14.3345   18.7166 N   0  0  0  0  0  0  0  0  0  0  0  0
   10.4308  -13.0210   19.1642 C   0  0  0  0  0  0  0  0  0  0  0  0
    8.9288  -12.9632   19.0747 C   0  0  0  0  0  0  0  0  0  0  0  0
    8.2213  -13.4932   20.2787 C   0  0  0  0  0  0  0  0  0  0  0  0
    8.0022  -14.9798   20.2765 C   0  0  2  0  0  0  0  0  0  0  0  0
    6.8575  -15.3712   19.5077 N   0  0  0  0  0  0  0  0  0  0  0  0
    7.9368  -15.5502   21.6382 C   0  0  0  0  0  0  0  0  0  0  0  0
    6.8598  -15.5888   22.3046 O   0  0  0  0  0  0  0  0  0  0  0  0
   12.2962  -14.9447   16.7787 N   0  0  0  0  0  0  0  0  0  0  0  0
   10.7172  -19.5773   19.5889 C   0  0  0  0  0  0  0  0  0  0  0  0
   10.2195  -20.8108   20.0819 N   0  0  0  0  0  0  0  0  0  0  0  0
    9.7989  -21.7166   19.2759 N   0  0  0  0  0  0  0  0  0  0  0  0
   10.1760  -21.0747   21.4814 C   0  0  0  0  0  0  0  0  0  0  0  0
   10.5974  -20.1270   22.4762 C   0  0  0  0  0  0  0  0  0  0  0  0
    9.5604  -19.0123   22.5168 C   0  0  0  0  0  0  0  0  0  0  0  0
    9.8832  -17.9993   23.5623 C   0  0  2  0  0  0  0  0  0  0  0  0
    8.9699  -16.7956   23.5520 N   0  0  0  0  0  0  0  0  0  0  0  0
    9.0858  -16.0899   22.2767 C   0  0  0  0  0  0  0  0  0  0  0  0
    9.3839  -15.8824   24.6406 O   0  0  0  0  0  0  0  0  0  0  0  0
   10.5210  -15.3460   24.6289 C   0  0  0  0  0  0  0  0  0  0  0  0
    9.3974  -22.6099   19.5716 S   0  0  0  0  0  0  0  0  0  0  0  0
    4.9721  -12.7855   27.4132 C   0  0  0  0  0  0  0  0  0  0  0  0
    6.2628  -11.6395   26.8632 C   0  0  0  0  0  0  0  0  0  0  0  0
    7.7001  -12.6384   26.2539 C   0  0  1  0  0  0  0  0  0  0  0  0
    7.9875  -13.7272   27.2390 N   0  0  0  0  0  0  0  0  0  0  0  0
    9.0354  -14.6579   26.7601 C   0  0  0  0  0  0  0  0  0  0  0  0
    8.5434  -15.5637   25.7362 O   0  0  0  0  0  0  0  0  0  0  0  0
    9.5601  -15.4872   27.8417 O   0  0  0  0  0  0  0  0  0  0  0  0
  2  3  2  0
  2  1  1  0
  4  2  1  0
  5  4  1  0
  6  5  1  0
  7  6  1  0
  8 10  1  0
  8  9  1  1
  8  7  1  0
 10 11  2  0
 13 12  1  0
 14 13  2  0
 15 16  1  0
 15 13  1  0
 17 18  1  0
 17 16  1  0
 19 18  1  6
 19 21  1  0
 20 19  1  0
 20 10  1  0
 21 22  2  0
 21 28  1  0
 23 24  1  0
 24 25  1  0
 25 26  1  0
 27 26  1  1
 27 29  1  0
 28 27  1  0
 29 31  2  0
 29 30  1  0
M  END
$$$$
