RRM.pdb
     RDKit          3D

 31 30  0  0  1  0  0  0  0  0999 V2000
    9.1433  -15.4739   14.3618 N   0  0  0  0  0  0  0  0  0  0  0  0
    8.4536  -14.3183   14.8121 C   0  0  0  0  0  0  0  0  0  0  0  0
    7.6458  -13.6515   14.0469 N   0  0  0  0  0  0  0  0  0  0  0  0
    8.6119  -13.8166   16.1545 N   0  0  0  0  0  0  0  0  0  0  0  0
    7.8249  -14.3675   17.2469 C   0  0  0  0  0  0  0  0  0  0  0  0
    8.1283  -13.5814   18.4949 C   0  0  0  0  0  0  0  0  0  0  0  0
    8.8445  -14.3582   19.5507 C   0  0  0  0  0  0  0  0  0  0  0  0
    8.2263  -15.6867   19.8831 C   0  0  2  0  0  0  0  0  0  0  0  0
    7.1486  -16.0333   19.0038 N   0  0  0  0  0  0  0  0  0  0  0  0
    7.7998  -15.7819   21.2948 C   0  0  0  0  0  0  0  0  0  0  0  0
    6.9087  -15.0260   21.7849 O   0  0  0  0  0  0  0  0  0  0  0  0
    7.1696  -12.7868   14.4140 N   0  0  0  0  0  0  0  0  0  0  0  0
   11.0199  -19.2675   26.9043 C   0  0  0  0  0  0  0  0  0  0  0  0
   11.4798  -20.1732   25.9141 N   0  0  0  0  0  0  0  0  0  0  0  0
   12.7080  -20.5442   25.8853 N   0  0  0  0  0  0  0  0  0  0  0  0
   10.5906  -20.6936   24.9299 C   0  0  0  0  0  0  0  0  0  0  0  0
    9.2481  -20.2144   24.7474 C   0  0  0  0  0  0  0  0  0  0  0  0
    9.3355  -18.7536   24.3252 C   0  0  0  0  0  0  0  0  0  0  0  0
    7.9835  -18.1589   24.1207 C   0  0  1  0  0  0  0  0  0  0  0  0
    8.0103  -16.7404   23.6009 N   0  0  0  0  0  0  0  0  0  0  0  0
    8.3696  -16.7329   22.1837 C   0  0  0  0  0  0  0  0  0  0  0  0
    9.0338  -15.9828   24.3554 O   0  0  0  0  0  0  0  0  0  0  0  0
    9.8761  -15.2697   23.7530 C   0  0  0  0  0  0  0  0  0  0  0  0
   13.1052  -21.1679   25.1785 S   0  0  0  0  0  0  0  0  0  0  0  0
    5.5965  -12.1960   26.3523 C   0  0  0  0  0  0  0  0  0  0  0  0
    7.1584  -11.3131   26.6023 C   0  0  0  0  0  0  0  0  0  0  0  0
    8.4508  -12.5515   27.0834 C   0  0  1  0  0  0  0  0  0  0  0  0
    8.3329  -13.7476   26.1923 N   0  0  0  0  0  0  0  0  0  0  0  0
    9.3609  -14.7725   26.4864 C   0  0  0  0  0  0  0  0  0  0  0  0
    9.1240  -16.0138   25.7694 O   0  0  0  0  0  0  0  0  0  0  0  0
    9.4032  -15.1065   27.9075 O   0  0  0  0  0  0  0  0  0  0  0  0
  2  3  2  0
  2  1  1  0
  4  2  1  0
  5  4  1  0
  6  5  1  0
  7  6  1  0
  8 10  1  0
  8  9  1  6
  8  7  1  0
 10 11  2  0
 13 12  1  0
 14 13  2  0
 15 16  1  0
 15 13  1  0
 17 18  1  0
 17 16  1  0
 19 18  1  6
 19 21  1  0
 20 19  1  0
 20 10  1  0
 21 22  2  0
 21 28  1  0
 23 24  1  0
 24 25  1  0
 25 26  1  0
 27 26  1  1
 27 29  1  0
 28 27  1  0
 29 31  2  0
 29 30  1  0
M  END
$$$$
