RRM.pdb
     RDKit          3D

 31 30  0  0  1  0  0  0  0  0999 V2000
   10.9379  -20.8633   28.6455 N   0  0  0  0  0  0  0  0  0  0  0  0
   11.4672  -19.9870   27.6627 C   0  0  0  0  0  0  0  0  0  0  0  0
   12.2076  -18.9673   27.9703 N   0  0  0  0  0  0  0  0  0  0  0  0
   11.2110  -20.1817   26.2572 N   0  0  0  0  0  0  0  0  0  0  0  0
    9.9578  -20.7688   25.8089 C   0  0  0  0  0  0  0  0  0  0  0  0
    9.5164  -20.0513   24.5608 C   0  0  0  0  0  0  0  0  0  0  0  0
   10.4739  -20.1592   23.4195 C   0  0  0  0  0  0  0  0  0  0  0  0
   10.0830  -19.3823   22.1942 C   0  0  2  0  0  0  0  0  0  0  0  0
   10.9999  -19.5615   21.1071 N   0  0  0  0  0  0  0  0  0  0  0  0
    9.8746  -17.9456   22.4703 C   0  0  0  0  0  0  0  0  0  0  0  0
   10.7857  -17.2106   22.9553 O   0  0  0  0  0  0  0  0  0  0  0  0
   12.5839  -18.3438   27.2095 N   0  0  0  0  0  0  0  0  0  0  0  0
    7.6231  -12.2207   17.6799 C   0  0  0  0  0  0  0  0  0  0  0  0
    7.9322  -13.5413   18.0953 N   0  0  0  0  0  0  0  0  0  0  0  0
    8.4096  -14.3947   17.2642 N   0  0  0  0  0  0  0  0  0  0  0  0
    7.7223  -13.9515   19.4436 C   0  0  0  0  0  0  0  0  0  0  0  0
    7.2997  -13.0550   20.4842 C   0  0  0  0  0  0  0  0  0  0  0  0
    7.0889  -13.8823   21.7454 C   0  0  0  0  0  0  0  0  0  0  0  0
    7.3996  -15.3226   21.5161 C   0  0  1  0  0  0  0  0  0  0  0  0
    8.4656  -15.8732   22.4345 N   0  0  0  0  0  0  0  0  0  0  0  0
    8.6332  -17.3073   22.2041 C   0  0  0  0  0  0  0  0  0  0  0  0
    8.0337  -15.6635   23.8345 O   0  0  0  0  0  0  0  0  0  0  0  0
    7.1783  -16.4197   24.3610 C   0  0  0  0  0  0  0  0  0  0  0  0
    8.6878  -15.3474   17.5123 S   0  0  0  0  0  0  0  0  0  0  0  0
   11.4425  -13.9131   29.0935 C   0  0  0  0  0  0  0  0  0  0  0  0
    9.9451  -12.9182   29.3163 C   0  0  0  0  0  0  0  0  0  0  0  0
    8.5954  -13.6696   28.2922 C   0  0  2  0  0  0  0  0  0  0  0  0
    9.1143  -13.9172   26.9108 N   0  0  0  0  0  0  0  0  0  0  0  0
    8.0902  -14.5145   26.0231 C   0  0  0  0  0  0  0  0  0  0  0  0
    8.5467  -14.6224   24.6480 O   0  0  0  0  0  0  0  0  0  0  0  0
    6.8632  -13.7227   26.0005 O   0  0  0  0  0  0  0  0  0  0  0  0
  2  3  2  0
  2  1  1  0
  4  2  1  0
  5  4  1  0
  6  5  1  0
  7  6  1  0
  8 10  1  0
  8  9  1  6
  8  7  1  0
 10 11  2  0
 13 12  1  0
 14 13  2  0
 15 16  1  0
 15 13  1  0
 17 18  1  0
 17 16  1  0
 19 18  1  6
 19 21  1  0
 20 19  1  0
 20 10  1  0
 21 22  2  0
 21 28  1  0
 23 24  1  0
 24 25  1  0
 25 26  1  0
 27 26  1  6
 27 29  1  0
 28 27  1  0
 29 31  2  0
 29 30  1  0
M  END
$$$$
