RRM.pdb
     RDKit          3D

 31 30  0  0  1  0  0  0  0  0999 V2000
   14.6360  -19.4653   16.3087 N   0  0  0  0  0  0  0  0  0  0  0  0
   15.4183  -18.3673   16.7518 C   0  0  0  0  0  0  0  0  0  0  0  0
   16.4828  -17.9762   16.1221 N   0  0  0  0  0  0  0  0  0  0  0  0
   15.0720  -17.6188   17.9344 N   0  0  0  0  0  0  0  0  0  0  0  0
   14.7050  -18.3061   19.1628 C   0  0  0  0  0  0  0  0  0  0  0  0
   13.5531  -19.2292   18.8653 C   0  0  0  0  0  0  0  0  0  0  0  0
   12.4847  -19.2337   19.9090 C   0  0  0  0  0  0  0  0  0  0  0  0
   11.1919  -18.5933   19.4892 C   0  0  2  0  0  0  0  0  0  0  0  0
   11.2131  -18.1387   18.1300 N   0  0  0  0  0  0  0  0  0  0  0  0
   10.7710  -17.5059   20.3971 C   0  0  0  0  0  0  0  0  0  0  0  0
   11.2924  -16.3517   20.3578 O   0  0  0  0  0  0  0  0  0  0  0  0
   17.0516  -17.1749   16.5010 N   0  0  0  0  0  0  0  0  0  0  0  0
    8.0388  -13.6277   17.7505 C   0  0  0  0  0  0  0  0  0  0  0  0
    8.1492  -13.1351   19.0761 N   0  0  0  0  0  0  0  0  0  0  0  0
    8.3011  -11.8803   19.2983 N   0  0  0  0  0  0  0  0  0  0  0  0
    8.0927  -14.0197   20.1918 C   0  0  0  0  0  0  0  0  0  0  0  0
    8.0584  -15.4506   20.0630 C   0  0  0  0  0  0  0  0  0  0  0  0
    7.0603  -15.9796   21.0846 C   0  0  0  0  0  0  0  0  0  0  0  0
    7.7470  -16.6238   22.2409 C   0  0  2  0  0  0  0  0  0  0  0  0
    9.2552  -16.5751   22.1626 N   0  0  0  0  0  0  0  0  0  0  0  0
    9.7519  -17.6979   21.3686 C   0  0  0  0  0  0  0  0  0  0  0  0
    9.8005  -16.6840   23.5342 O   0  0  0  0  0  0  0  0  0  0  0  0
   10.5291  -17.6561   23.8585 C   0  0  0  0  0  0  0  0  0  0  0  0
    8.5076  -11.4783   20.2160 S   0  0  0  0  0  0  0  0  0  0  0  0
   10.3902  -13.7984   30.8069 C   0  0  0  0  0  0  0  0  0  0  0  0
   10.2978  -13.3341   29.0583 C   0  0  0  0  0  0  0  0  0  0  0  0
   10.6369  -14.8458   28.0410 C   0  0  2  0  0  0  0  0  0  0  0  0
    9.9903  -14.6849   26.7013 N   0  0  0  0  0  0  0  0  0  0  0  0
   10.1701  -15.8779   25.8422 C   0  0  0  0  0  0  0  0  0  0  0  0
    9.5416  -15.7214   24.5416 O   0  0  0  0  0  0  0  0  0  0  0  0
    9.5944  -17.0751   26.4487 O   0  0  0  0  0  0  0  0  0  0  0  0
  2  3  2  0
  2  1  1  0
  4  2  1  0
  5  4  1  0
  6  5  1  0
  7  6  1  0
  8 10  1  0
  8  9  1  6
  8  7  1  0
 10 11  2  0
 13 12  1  0
 14 13  2  0
 15 16  1  0
 15 13  1  0
 17 18  1  0
 17 16  1  0
 19 18  1  6
 19 21  1  0
 20 19  1  0
 20 10  1  0
 21 22  2  0
 21 28  1  0
 23 24  1  0
 24 25  1  0
 25 26  1  0
 27 26  1  1
 27 29  1  0
 28 27  1  0
 29 31  2  0
 29 30  1  0
M  END
$$$$
