RRM.pdb
     RDKit          3D

 31 30  0  0  1  0  0  0  0  0999 V2000
   12.6870  -23.5786   20.0721 N   0  0  0  0  0  0  0  0  0  0  0  0
   11.3872  -24.0323   20.4162 C   0  0  0  0  0  0  0  0  0  0  0  0
   10.7120  -24.8399   19.6581 N   0  0  0  0  0  0  0  0  0  0  0  0
   10.7390  -23.6194   21.6361 N   0  0  0  0  0  0  0  0  0  0  0  0
   10.8976  -22.2620   22.1343 C   0  0  0  0  0  0  0  0  0  0  0  0
   11.1185  -21.3469   20.9589 C   0  0  0  0  0  0  0  0  0  0  0  0
   11.3185  -19.9131   21.3263 C   0  0  0  0  0  0  0  0  0  0  0  0
   10.3344  -19.3765   22.3270 C   0  0  2  0  0  0  0  0  0  0  0  0
    9.1063  -20.1153   22.3492 N   0  0  0  0  0  0  0  0  0  0  0  0
   10.0722  -17.9325   22.1536 C   0  0  0  0  0  0  0  0  0  0  0  0
   11.0040  -17.0919   21.9782 O   0  0  0  0  0  0  0  0  0  0  0  0
    9.7419  -25.1368   19.9410 N   0  0  0  0  0  0  0  0  0  0  0  0
    9.8006  -13.0007   17.8882 C   0  0  0  0  0  0  0  0  0  0  0  0
    8.4506  -13.3972   17.7081 N   0  0  0  0  0  0  0  0  0  0  0  0
    7.8830  -13.2881   16.5623 N   0  0  0  0  0  0  0  0  0  0  0  0
    7.6933  -13.9270   18.7926 C   0  0  0  0  0  0  0  0  0  0  0  0
    7.8937  -13.5347   20.1605 C   0  0  0  0  0  0  0  0  0  0  0  0
    6.9023  -14.3165   21.0122 C   0  0  0  0  0  0  0  0  0  0  0  0
    7.2972  -15.7487   21.1399 C   0  0  1  0  0  0  0  0  0  0  0  0
    8.5163  -15.9735   22.0039 N   0  0  0  0  0  0  0  0  0  0  0  0
    8.7524  -17.4064   22.1738 C   0  0  0  0  0  0  0  0  0  0  0  0
    8.2678  -15.3712   23.3329 O   0  0  0  0  0  0  0  0  0  0  0  0
    7.0937  -15.1926   23.7457 C   0  0  0  0  0  0  0  0  0  0  0  0
    6.9427  -13.6304   16.3499 S   0  0  0  0  0  0  0  0  0  0  0  0
    7.7292  -10.4147   26.7237 C   0  0  0  0  0  0  0  0  0  0  0  0
    6.4298  -11.6703   26.5942 C   0  0  0  0  0  0  0  0  0  0  0  0
    7.2046  -13.3325   26.8624 C   0  0  1  0  0  0  0  0  0  0  0  0
    7.5636  -13.9211   25.5345 N   0  0  0  0  0  0  0  0  0  0  0  0
    8.9745  -14.3679   25.4793 C   0  0  0  0  0  0  0  0  0  0  0  0
    9.3136  -14.9694   24.2009 O   0  0  0  0  0  0  0  0  0  0  0  0
    9.2690  -15.3634   26.5064 O   0  0  0  0  0  0  0  0  0  0  0  0
  2  3  2  0
  2  1  1  0
  4  2  1  0
  5  4  1  0
  6  5  1  0
  7  6  1  0
  8 10  1  0
  8  9  1  6
  8  7  1  0
 10 11  2  0
 13 12  1  0
 14 13  2  0
 15 16  1  0
 15 13  1  0
 17 18  1  0
 17 16  1  0
 19 18  1  6
 19 21  1  0
 20 19  1  0
 20 10  1  0
 21 22  2  0
 21 28  1  0
 23 24  1  0
 24 25  1  0
 25 26  1  0
 27 26  1  1
 27 29  1  0
 28 27  1  0
 29 31  2  0
 29 30  1  0
M  END
$$$$
