RRM.pdb
     RDKit          3D

 31 30  0  0  1  0  0  0  0  0999 V2000
    7.0495  -12.6219   17.0769 N   0  0  0  0  0  0  0  0  0  0  0  0
    8.2612  -13.2371   16.6681 C   0  0  0  0  0  0  0  0  0  0  0  0
    8.5518  -13.4328   15.4191 N   0  0  0  0  0  0  0  0  0  0  0  0
    9.2449  -13.6820   17.6237 N   0  0  0  0  0  0  0  0  0  0  0  0
    8.9672  -13.6262   19.0505 C   0  0  0  0  0  0  0  0  0  0  0  0
    8.3247  -14.9248   19.4609 C   0  0  0  0  0  0  0  0  0  0  0  0
    9.1525  -16.1355   19.1781 C   0  0  0  0  0  0  0  0  0  0  0  0
    8.5516  -17.4317   19.6436 C   0  0  2  0  0  0  0  0  0  0  0  0
    7.3674  -17.7869   18.9182 N   0  0  0  0  0  0  0  0  0  0  0  0
    8.2989  -17.4546   21.0994 C   0  0  0  0  0  0  0  0  0  0  0  0
    7.1530  -17.2290   21.5910 O   0  0  0  0  0  0  0  0  0  0  0  0
    9.4539  -13.9100   15.1591 N   0  0  0  0  0  0  0  0  0  0  0  0
   13.3847  -20.7967   27.5789 C   0  0  0  0  0  0  0  0  0  0  0  0
   12.3965  -19.9468   28.1387 N   0  0  0  0  0  0  0  0  0  0  0  0
   12.3856  -19.6948   29.3970 N   0  0  0  0  0  0  0  0  0  0  0  0
   11.3944  -19.3518   27.3188 C   0  0  0  0  0  0  0  0  0  0  0  0
   10.8615  -19.9816   26.1421 C   0  0  0  0  0  0  0  0  0  0  0  0
    9.8181  -19.0425   25.5514 C   0  0  0  0  0  0  0  0  0  0  0  0
   10.0584  -18.7972   24.1004 C   0  0  2  0  0  0  0  0  0  0  0  0
    9.0363  -17.8907   23.4547 N   0  0  0  0  0  0  0  0  0  0  0  0
    9.3343  -17.7335   22.0319 C   0  0  0  0  0  0  0  0  0  0  0  0
    9.1078  -16.5633   24.1054 O   0  0  0  0  0  0  0  0  0  0  0  0
   10.0757  -15.7922   23.8828 C   0  0  0  0  0  0  0  0  0  0  0  0
   11.7227  -19.0626   29.8524 S   0  0  0  0  0  0  0  0  0  0  0  0
    6.7795  -10.0632   27.0658 C   0  0  0  0  0  0  0  0  0  0  0  0
    6.5431  -11.5489   26.0566 C   0  0  0  0  0  0  0  0  0  0  0  0
    7.2812  -12.9865   26.9640 C   0  0  1  0  0  0  0  0  0  0  0  0
    7.0561  -14.2320   26.1661 N   0  0  0  0  0  0  0  0  0  0  0  0
    8.3226  -14.8259   25.6795 C   0  0  0  0  0  0  0  0  0  0  0  0
    8.1127  -16.0915   24.9974 O   0  0  0  0  0  0  0  0  0  0  0  0
    9.2558  -15.0844   26.7727 O   0  0  0  0  0  0  0  0  0  0  0  0
  2  3  2  0
  2  1  1  0
  4  2  1  0
  5  4  1  0
  6  5  1  0
  7  6  1  0
  8 10  1  0
  8  9  1  6
  8  7  1  0
 10 11  2  0
 13 12  1  0
 14 13  2  0
 15 16  1  0
 15 13  1  0
 17 18  1  0
 17 16  1  0
 19 18  1  6
 19 21  1  0
 20 19  1  0
 20 10  1  0
 21 22  2  0
 21 28  1  0
 23 24  1  0
 24 25  1  0
 25 26  1  0
 27 26  1  1
 27 29  1  0
 28 27  1  0
 29 31  2  0
 29 30  1  0
M  END
$$$$
