RRM.pdb
     RDKit          3D

 31 30  0  0  1  0  0  0  0  0999 V2000
    7.0074  -26.2627   22.6543 N   0  0  0  0  0  0  0  0  0  0  0  0
    6.2204  -25.1521   22.2531 C   0  0  0  0  0  0  0  0  0  0  0  0
    4.9236  -25.1824   22.2627 N   0  0  0  0  0  0  0  0  0  0  0  0
    6.8210  -23.9186   21.8097 N   0  0  0  0  0  0  0  0  0  0  0  0
    8.2666  -23.7976   21.7018 C   0  0  0  0  0  0  0  0  0  0  0  0
    8.7825  -23.1320   22.9502 C   0  0  0  0  0  0  0  0  0  0  0  0
    9.4861  -21.8367   22.7093 C   0  0  0  0  0  0  0  0  0  0  0  0
    8.8968  -20.6568   23.4292 C   0  0  2  0  0  0  0  0  0  0  0  0
    7.5022  -20.8216   23.7167 N   0  0  0  0  0  0  0  0  0  0  0  0
    9.1378  -19.3794   22.7264 C   0  0  0  0  0  0  0  0  0  0  0  0
   10.2649  -19.0828   22.2291 O   0  0  0  0  0  0  0  0  0  0  0  0
    4.3769  -24.3204   22.0035 N   0  0  0  0  0  0  0  0  0  0  0  0
    7.7947  -11.7500   19.1504 C   0  0  0  0  0  0  0  0  0  0  0  0
    8.0109  -12.9665   18.4536 N   0  0  0  0  0  0  0  0  0  0  0  0
    8.6949  -12.9870   17.3679 N   0  0  0  0  0  0  0  0  0  0  0  0
    7.4762  -14.1937   18.9419 C   0  0  0  0  0  0  0  0  0  0  0  0
    6.7868  -14.3095   20.1974 C   0  0  0  0  0  0  0  0  0  0  0  0
    7.7648  -14.8984   21.2056 C   0  0  0  0  0  0  0  0  0  0  0  0
    7.4229  -16.3101   21.5428 C   0  0  2  0  0  0  0  0  0  0  0  0
    8.4381  -16.9910   22.4310 N   0  0  0  0  0  0  0  0  0  0  0  0
    8.1113  -18.4094   22.5691 C   0  0  0  0  0  0  0  0  0  0  0  0
    8.3908  -16.3593   23.7686 O   0  0  0  0  0  0  0  0  0  0  0  0
    7.2980  -15.9741   24.2567 C   0  0  0  0  0  0  0  0  0  0  0  0
    8.8584  -13.8257   16.8054 S   0  0  0  0  0  0  0  0  0  0  0  0
    6.1172  -11.6333   26.0476 C   0  0  0  0  0  0  0  0  0  0  0  0
    6.4089  -13.0073   27.1917 C   0  0  0  0  0  0  0  0  0  0  0  0
    8.1489  -13.5989   26.9515 C   0  0  1  0  0  0  0  0  0  0  0  0
    8.1707  -14.6084   25.8474 N   0  0  0  0  0  0  0  0  0  0  0  0
    9.5380  -15.1001   25.5608 C   0  0  0  0  0  0  0  0  0  0  0  0
    9.5471  -16.1557   24.5623 O   0  0  0  0  0  0  0  0  0  0  0  0
   10.1812  -15.6419   26.7548 O   0  0  0  0  0  0  0  0  0  0  0  0
  2  3  2  0
  2  1  1  0
  4  2  1  0
  5  4  1  0
  6  5  1  0
  7  6  1  0
  8 10  1  0
  8  9  1  6
  8  7  1  0
 10 11  2  0
 13 12  1  0
 14 13  2  0
 15 16  1  0
 15 13  1  0
 17 18  1  0
 17 16  1  0
 19 18  1  6
 19 21  1  0
 20 19  1  0
 20 10  1  0
 21 22  2  0
 21 28  1  0
 23 24  1  0
 24 25  1  0
 25 26  1  0
 27 26  1  1
 27 29  1  0
 28 27  1  0
 29 31  2  0
 29 30  1  0
M  END
$$$$
