NLR.pdb
     RDKit          3D

 28 27  0  0  1  0  0  0  0  0999 V2000
    8.6283  -12.8185   17.4609 N   0  0  0  0  0  0  0  0  0  0  0  0
    7.7159  -13.2653   18.4367 C   0  0  0  0  0  0  0  0  0  0  0  0
    6.6279  -13.8021   18.0860 O   0  0  0  0  0  0  0  0  0  0  0  0
    7.9896  -13.1267   19.8871 C   0  0  0  0  0  0  0  0  0  0  0  0
    8.0195  -14.4669   20.5714 C   0  0  2  0  0  0  0  0  0  0  0  0
    6.6988  -15.0318   20.5707 N   0  0  0  0  0  0  0  0  0  0  0  0
    8.4633  -14.3123   21.9728 C   0  0  0  0  0  0  0  0  0  0  0  0
    9.6599  -14.0112   22.2803 O   0  0  0  0  0  0  0  0  0  0  0  0
    7.5600  -11.8191   25.7386 C   0  0  0  0  0  0  0  0  0  0  0  0
    6.4213  -12.7188   25.2396 C   0  0  2  0  0  0  0  0  0  0  0  0
    5.1815  -12.3340   25.9501 C   0  0  0  0  0  0  0  0  0  0  0  0
    6.8849  -14.1199   25.3833 C   0  0  0  0  0  0  0  0  0  0  0  0
    7.9743  -14.5360   24.4345 C   0  0  2  0  0  0  0  0  0  0  0  0
    7.5689  -14.4934   23.0629 N   0  0  0  0  0  0  0  0  0  0  0  0
    8.5980  -15.8123   24.8498 C   0  0  0  0  0  0  0  0  0  0  0  0
    7.8753  -16.8455   24.8264 O   0  0  0  0  0  0  0  0  0  0  0  0
   15.6596  -19.8506   25.9086 N   0  0  0  0  0  0  0  0  0  0  0  0
   15.1705  -20.5618   24.7621 C   0  0  0  0  0  0  0  0  0  0  0  0
   15.5588  -21.7594   24.4953 N   0  0  0  0  0  0  0  0  0  0  0  0
   14.2284  -19.9598   23.8706 N   0  0  0  0  0  0  0  0  0  0  0  0
   13.8138  -18.5915   24.1002 C   0  0  0  0  0  0  0  0  0  0  0  0
   12.5078  -18.6393   24.8893 C   0  0  0  0  0  0  0  0  0  0  0  0
   11.8455  -17.3047   24.6974 C   0  0  0  0  0  0  0  0  0  0  0  0
   10.5333  -17.2834   25.4495 C   0  0  2  0  0  0  0  0  0  0  0  0
    9.9350  -15.9371   25.2614 N   0  0  0  0  0  0  0  0  0  0  0  0
   10.7063  -17.4357   26.9079 C   0  0  0  0  0  0  0  0  0  0  0  0
   10.5937  -16.4596   27.7269 O   0  0  0  0  0  0  0  0  0  0  0  0
   11.0016  -18.6614   27.4786 O   0  0  0  0  0  0  0  0  0  0  0  0
  1  2  1  0
  2  4  1  0
  3  2  2  0
  4  5  1  0
  5  6  1  1
  7  5  1  0
  8  7  2  0
 10  9  1  1
 10 12  1  0
 11 10  1  0
 13 12  1  1
 13 14  1  0
 14  7  1  0
 15 25  1  0
 15 13  1  0
 16 15  2  0
 18 17  1  0
 18 19  2  0
 20 18  1  0
 21 20  1  0
 22 21  1  0
 23 22  1  0
 24 23  1  6
 24 25  1  0
 26 28  1  0
 26 24  1  0
 27 26  2  0
M  END
$$$$
