NLR.pdb
     RDKit          3D

 28 27  0  0  1  0  0  0  0  0999 V2000
    5.2441  -17.0170   19.4529 N   0  0  0  0  0  0  0  0  0  0  0  0
    6.4127  -17.7207   19.8042 C   0  0  0  0  0  0  0  0  0  0  0  0
    6.6157  -18.8789   19.3436 O   0  0  0  0  0  0  0  0  0  0  0  0
    7.4328  -17.1422   20.7113 C   0  0  0  0  0  0  0  0  0  0  0  0
    7.0518  -15.7549   21.1533 C   0  0  2  0  0  0  0  0  0  0  0  0
    7.2042  -14.8452   20.0522 N   0  0  0  0  0  0  0  0  0  0  0  0
    7.9337  -15.3119   22.2539 C   0  0  0  0  0  0  0  0  0  0  0  0
    9.1542  -15.0066   22.0695 O   0  0  0  0  0  0  0  0  0  0  0  0
    7.5491  -11.9453   25.3983 C   0  0  0  0  0  0  0  0  0  0  0  0
    6.6114  -13.1411   25.6124 C   0  0  2  0  0  0  0  0  0  0  0  0
    5.6220  -12.7741   26.6499 C   0  0  0  0  0  0  0  0  0  0  0  0
    7.4707  -14.3208   25.8738 C   0  0  0  0  0  0  0  0  0  0  0  0
    8.2741  -14.8030   24.6981 C   0  0  2  0  0  0  0  0  0  0  0  0
    7.4612  -15.2021   23.5902 N   0  0  0  0  0  0  0  0  0  0  0  0
    9.2877  -15.8014   25.1056 C   0  0  0  0  0  0  0  0  0  0  0  0
    8.8884  -16.9777   25.3225 O   0  0  0  0  0  0  0  0  0  0  0  0
   18.6318  -18.3286   23.8723 N   0  0  0  0  0  0  0  0  0  0  0  0
   17.6046  -17.3264   23.8608 C   0  0  0  0  0  0  0  0  0  0  0  0
   17.8397  -16.1244   23.4656 N   0  0  0  0  0  0  0  0  0  0  0  0
   16.2755  -17.6313   24.2911 N   0  0  0  0  0  0  0  0  0  0  0  0
   15.2679  -16.5916   24.2617 C   0  0  0  0  0  0  0  0  0  0  0  0
   13.9718  -17.2006   24.7907 C   0  0  0  0  0  0  0  0  0  0  0  0
   12.9416  -16.1079   24.7525 C   0  0  0  0  0  0  0  0  0  0  0  0
   11.6419  -16.6239   25.3294 C   0  0  2  0  0  0  0  0  0  0  0  0
   10.6544  -15.5168   25.2601 N   0  0  0  0  0  0  0  0  0  0  0  0
   11.7471  -16.9669   26.7617 C   0  0  0  0  0  0  0  0  0  0  0  0
   12.3175  -18.0322   27.1813 O   0  0  0  0  0  0  0  0  0  0  0  0
   11.2294  -16.1415   27.7445 O   0  0  0  0  0  0  0  0  0  0  0  0
  1  2  1  0
  2  4  1  0
  3  2  2  0
  4  5  1  0
  5  6  1  6
  7  5  1  0
  8  7  2  0
 10  9  1  1
 10 12  1  0
 11 10  1  0
 13 12  1  1
 13 14  1  0
 14  7  1  0
 15 25  1  0
 15 13  1  0
 16 15  2  0
 18 17  1  0
 18 19  2  0
 20 18  1  0
 21 20  1  0
 22 21  1  0
 23 22  1  0
 24 23  1  1
 24 25  1  0
 26 28  1  0
 26 24  1  0
 27 26  2  0
M  END
$$$$
