NLR.pdb
     RDKit          3D

 28 27  0  0  1  0  0  0  0  0999 V2000
    7.5685  -14.6135   18.6636 N   0  0  0  0  0  0  0  0  0  0  0  0
    7.9078  -13.3472   19.1788 C   0  0  0  0  0  0  0  0  0  0  0  0
    7.9359  -12.3412   18.4159 O   0  0  0  0  0  0  0  0  0  0  0  0
    8.2393  -13.1468   20.6098 C   0  0  0  0  0  0  0  0  0  0  0  0
    8.2897  -14.4557   21.3509 C   0  0  2  0  0  0  0  0  0  0  0  0
    6.9772  -15.0388   21.3779 N   0  0  0  0  0  0  0  0  0  0  0  0
    8.7341  -14.2347   22.7433 C   0  0  0  0  0  0  0  0  0  0  0  0
    9.9440  -13.9809   23.0412 O   0  0  0  0  0  0  0  0  0  0  0  0
    7.7310  -11.6336   26.2701 C   0  0  0  0  0  0  0  0  0  0  0  0
    6.6085  -12.6264   25.9395 C   0  0  2  0  0  0  0  0  0  0  0  0
    5.4043  -12.2366   26.7064 C   0  0  0  0  0  0  0  0  0  0  0  0
    7.1546  -13.9858   26.1686 C   0  0  0  0  0  0  0  0  0  0  0  0
    8.2228  -14.4194   25.2037 C   0  0  2  0  0  0  0  0  0  0  0  0
    7.8253  -14.2945   23.8348 N   0  0  0  0  0  0  0  0  0  0  0  0
    8.7739  -15.7451   25.5632 C   0  0  0  0  0  0  0  0  0  0  0  0
    8.9194  -15.9993   26.7897 O   0  0  0  0  0  0  0  0  0  0  0  0
   13.4170  -21.7560   23.0384 N   0  0  0  0  0  0  0  0  0  0  0  0
   12.4167  -22.7202   23.3979 C   0  0  0  0  0  0  0  0  0  0  0  0
   12.7263  -23.9320   23.7011 N   0  0  0  0  0  0  0  0  0  0  0  0
   11.0320  -22.3650   23.4316 N   0  0  0  0  0  0  0  0  0  0  0  0
   10.6334  -21.0369   23.0141 C   0  0  0  0  0  0  0  0  0  0  0  0
   10.5888  -20.1623   24.2645 C   0  0  0  0  0  0  0  0  0  0  0  0
    9.8393  -18.9166   23.8860 C   0  0  0  0  0  0  0  0  0  0  0  0
    9.7701  -17.9909   25.0803 C   0  0  2  0  0  0  0  0  0  0  0  0
    9.1375  -16.7261   24.6262 N   0  0  0  0  0  0  0  0  0  0  0  0
   11.1032  -17.6042   25.5836 C   0  0  0  0  0  0  0  0  0  0  0  0
   11.6537  -18.1629   26.5941 O   0  0  0  0  0  0  0  0  0  0  0  0
   11.8436  -16.6031   24.9795 O   0  0  0  0  0  0  0  0  0  0  0  0
  1  2  1  0
  2  4  1  0
  3  2  2  0
  4  5  1  0
  5  6  1  1
  7  5  1  0
  8  7  2  0
 10  9  1  1
 10 12  1  0
 11 10  1  0
 13 12  1  1
 13 14  1  0
 14  7  1  0
 15 25  1  0
 15 13  1  0
 16 15  2  0
 18 17  1  0
 18 19  2  0
 20 18  1  0
 21 20  1  0
 22 21  1  0
 23 22  1  0
 24 23  1  6
 24 25  1  0
 26 28  1  0
 26 24  1  0
 27 26  2  0
M  END
$$$$
