NLR.pdb
     RDKit          3D

 28 27  0  0  1  0  0  0  0  0999 V2000
    3.3353  -19.6549   23.0523 N   0  0  0  0  0  0  0  0  0  0  0  0
    3.3107  -18.5137   22.2269 C   0  0  0  0  0  0  0  0  0  0  0  0
    2.3125  -18.2908   21.4861 O   0  0  0  0  0  0  0  0  0  0  0  0
    4.4334  -17.5461   22.1942 C   0  0  0  0  0  0  0  0  0  0  0  0
    5.5627  -17.9841   23.0875 C   0  0  2  0  0  0  0  0  0  0  0  0
    5.0409  -18.3304   24.3802 N   0  0  0  0  0  0  0  0  0  0  0  0
    6.5358  -16.8837   23.2533 C   0  0  0  0  0  0  0  0  0  0  0  0
    7.1375  -16.3507   22.2680 O   0  0  0  0  0  0  0  0  0  0  0  0
    7.1896  -12.4904   24.8411 C   0  0  0  0  0  0  0  0  0  0  0  0
    6.6348  -13.5041   25.8509 C   0  0  2  0  0  0  0  0  0  0  0  0
    6.2317  -12.7697   27.0709 C   0  0  0  0  0  0  0  0  0  0  0  0
    7.6573  -14.5676   25.9996 C   0  0  0  0  0  0  0  0  0  0  0  0
    7.8958  -15.4046   24.7738 C   0  0  2  0  0  0  0  0  0  0  0  0
    6.8548  -16.3568   24.5345 N   0  0  0  0  0  0  0  0  0  0  0  0
    9.2617  -15.9742   24.7623 C   0  0  0  0  0  0  0  0  0  0  0  0
    9.4819  -16.9678   25.5068 O   0  0  0  0  0  0  0  0  0  0  0  0
   15.3887  -16.3580   18.7362 N   0  0  0  0  0  0  0  0  0  0  0  0
   14.7178  -15.1310   19.0587 C   0  0  0  0  0  0  0  0  0  0  0  0
   15.2154  -13.9871   18.7424 N   0  0  0  0  0  0  0  0  0  0  0  0
   13.4645  -15.1376   19.7472 N   0  0  0  0  0  0  0  0  0  0  0  0
   12.7430  -16.3852   19.8882 C   0  0  0  0  0  0  0  0  0  0  0  0
   12.7063  -16.7226   21.3766 C   0  0  0  0  0  0  0  0  0  0  0  0
   11.5863  -15.9152   21.9685 C   0  0  0  0  0  0  0  0  0  0  0  0
   11.2932  -16.4138   23.3663 C   0  0  2  0  0  0  0  0  0  0  0  0
   10.3142  -15.4779   23.9758 N   0  0  0  0  0  0  0  0  0  0  0  0
   12.4764  -16.3736   24.2487 C   0  0  0  0  0  0  0  0  0  0  0  0
   12.9150  -15.2931   24.7745 O   0  0  0  0  0  0  0  0  0  0  0  0
   13.1855  -17.5198   24.5628 O   0  0  0  0  0  0  0  0  0  0  0  0
  1  2  1  0
  2  4  1  0
  3  2  2  0
  4  5  1  0
  5  6  1  1
  7  5  1  0
  8  7  2  0
 10  9  1  6
 10 12  1  0
 11 10  1  0
 13 12  1  1
 13 14  1  0
 14  7  1  0
 15 25  1  0
 15 13  1  0
 16 15  2  0
 18 17  1  0
 18 19  2  0
 20 18  1  0
 21 20  1  0
 22 21  1  0
 23 22  1  0
 24 23  1  6
 24 25  1  0
 26 28  1  0
 26 24  1  0
 27 26  2  0
M  END
$$$$
