NLR.pdb
     RDKit          3D

 28 27  0  0  1  0  0  0  0  0999 V2000
    6.7979  -12.1125   18.4137 N   0  0  0  0  0  0  0  0  0  0  0  0
    7.6482  -13.1538   18.8344 C   0  0  0  0  0  0  0  0  0  0  0  0
    7.9033  -14.1150   18.0560 O   0  0  0  0  0  0  0  0  0  0  0  0
    8.2666  -13.1643   20.1817 C   0  0  0  0  0  0  0  0  0  0  0  0
    7.8752  -14.3937   20.9566 C   0  0  2  0  0  0  0  0  0  0  0  0
    6.4460  -14.4346   21.0955 N   0  0  0  0  0  0  0  0  0  0  0  0
    8.4772  -14.3571   22.3062 C   0  0  0  0  0  0  0  0  0  0  0  0
    9.7310  -14.2542   22.4914 O   0  0  0  0  0  0  0  0  0  0  0  0
    7.8340  -11.5892   25.5014 C   0  0  0  0  0  0  0  0  0  0  0  0
    6.7869  -12.7095   25.4408 C   0  0  2  0  0  0  0  0  0  0  0  0
    5.6001  -12.2767   26.2117 C   0  0  0  0  0  0  0  0  0  0  0  0
    7.4647  -13.9561   25.8715 C   0  0  0  0  0  0  0  0  0  0  0  0
    8.2020  -14.6929   24.7882 C   0  0  2  0  0  0  0  0  0  0  0  0
    7.6804  -14.4357   23.4808 N   0  0  0  0  0  0  0  0  0  0  0  0
    8.3556  -16.1282   25.1152 C   0  0  0  0  0  0  0  0  0  0  0  0
    7.4371  -16.9087   24.7451 O   0  0  0  0  0  0  0  0  0  0  0  0
   14.2225  -15.8862   20.0013 N   0  0  0  0  0  0  0  0  0  0  0  0
   14.5206  -17.1781   20.5506 C   0  0  0  0  0  0  0  0  0  0  0  0
   15.4146  -17.9427   20.0288 N   0  0  0  0  0  0  0  0  0  0  0  0
   13.8296  -17.6633   21.7047 N   0  0  0  0  0  0  0  0  0  0  0  0
   12.7751  -16.8591   22.2862 C   0  0  0  0  0  0  0  0  0  0  0  0
   12.2259  -17.6287   23.4848 C   0  0  0  0  0  0  0  0  0  0  0  0
   11.0884  -16.8126   24.0297 C   0  0  0  0  0  0  0  0  0  0  0  0
   10.3838  -17.5963   25.1148 C   0  0  2  0  0  0  0  0  0  0  0  0
    9.4555  -16.6644   25.8046 N   0  0  0  0  0  0  0  0  0  0  0  0
   11.3051  -18.0796   26.1626 C   0  0  0  0  0  0  0  0  0  0  0  0
   11.5832  -17.4010   27.2107 O   0  0  0  0  0  0  0  0  0  0  0  0
   11.9260  -19.3128   26.0690 O   0  0  0  0  0  0  0  0  0  0  0  0
  1  2  1  0
  2  4  1  0
  3  2  2  0
  4  5  1  0
  5  6  1  1
  7  5  1  0
  8  7  2  0
 10  9  1  1
 10 12  1  0
 11 10  1  0
 13 12  1  1
 13 14  1  0
 14  7  1  0
 15 25  1  0
 15 13  1  0
 16 15  2  0
 18 17  1  0
 18 19  2  0
 20 18  1  0
 21 20  1  0
 22 21  1  0
 23 22  1  0
 24 23  1  6
 24 25  1  0
 26 28  1  0
 26 24  1  0
 27 26  2  0
M  END
$$$$
