NLR.pdb
     RDKit          3D

 28 27  0  0  1  0  0  0  0  0999 V2000
    8.9743  -17.4978   20.4166 N   0  0  0  0  0  0  0  0  0  0  0  0
    9.5714  -16.2220   20.4193 C   0  0  0  0  0  0  0  0  0  0  0  0
   10.0609  -15.7510   19.3547 O   0  0  0  0  0  0  0  0  0  0  0  0
    9.6483  -15.3956   21.6477 C   0  0  0  0  0  0  0  0  0  0  0  0
    9.1411  -16.1475   22.8488 C   0  0  2  0  0  0  0  0  0  0  0  0
    7.7091  -16.2390   22.7839 N   0  0  0  0  0  0  0  0  0  0  0  0
    9.5103  -15.4330   24.0890 C   0  0  0  0  0  0  0  0  0  0  0  0
   10.7197  -15.2333   24.4273 O   0  0  0  0  0  0  0  0  0  0  0  0
    8.1223  -11.5114   25.2040 C   0  0  0  0  0  0  0  0  0  0  0  0
    7.0834  -12.5523   25.6422 C   0  0  2  0  0  0  0  0  0  0  0  0
    5.8343  -11.8408   25.9938 C   0  0  0  0  0  0  0  0  0  0  0  0
    7.7196  -13.3784   26.6966 C   0  0  0  0  0  0  0  0  0  0  0  0
    8.8215  -14.2852   26.2238 C   0  0  2  0  0  0  0  0  0  0  0  0
    8.5248  -14.9255   24.9790 N   0  0  0  0  0  0  0  0  0  0  0  0
    9.2657  -15.2046   27.2953 C   0  0  0  0  0  0  0  0  0  0  0  0
    9.5649  -14.6951   28.4093 O   0  0  0  0  0  0  0  0  0  0  0  0
   11.8673  -23.4743   28.2711 N   0  0  0  0  0  0  0  0  0  0  0  0
   11.9839  -22.3620   29.1704 C   0  0  0  0  0  0  0  0  0  0  0  0
   12.3680  -22.5173   30.3888 N   0  0  0  0  0  0  0  0  0  0  0  0
   11.6751  -21.0337   28.7403 N   0  0  0  0  0  0  0  0  0  0  0  0
   11.1035  -20.8323   27.4252 C   0  0  0  0  0  0  0  0  0  0  0  0
   11.0049  -19.3258   27.1989 C   0  0  0  0  0  0  0  0  0  0  0  0
    9.7254  -18.8808   27.8484 C   0  0  0  0  0  0  0  0  0  0  0  0
    9.8545  -17.4341   28.2708 C   0  0  2  0  0  0  0  0  0  0  0  0
    9.3691  -16.5971   27.1440 N   0  0  0  0  0  0  0  0  0  0  0  0
   11.2559  -17.0238   28.4892 C   0  0  0  0  0  0  0  0  0  0  0  0
   11.9456  -16.4076   27.6054 O   0  0  0  0  0  0  0  0  0  0  0  0
   11.9102  -17.2844   29.6805 O   0  0  0  0  0  0  0  0  0  0  0  0
  1  2  1  0
  2  4  1  0
  3  2  2  0
  4  5  1  0
  5  6  1  6
  7  5  1  0
  8  7  2  0
 10  9  1  1
 10 12  1  0
 11 10  1  0
 13 12  1  1
 13 14  1  0
 14  7  1  0
 15 25  1  0
 15 13  1  0
 16 15  2  0
 18 17  1  0
 18 19  2  0
 20 18  1  0
 21 20  1  0
 22 21  1  0
 23 22  1  0
 24 23  1  6
 24 25  1  0
 26 28  1  0
 26 24  1  0
 27 26  2  0
M  END
$$$$
