NLR.pdb
     RDKit          3D

 28 27  0  0  1  0  0  0  0  0999 V2000
    7.5086  -16.1655   19.1517 N   0  0  0  0  0  0  0  0  0  0  0  0
    8.0155  -14.8880   19.4604 C   0  0  0  0  0  0  0  0  0  0  0  0
    8.1485  -14.0236   18.5494 O   0  0  0  0  0  0  0  0  0  0  0  0
    8.4063  -14.5127   20.8403 C   0  0  0  0  0  0  0  0  0  0  0  0
    8.2739  -15.6768   21.7850 C   0  0  2  0  0  0  0  0  0  0  0  0
    6.8873  -16.0274   21.9178 N   0  0  0  0  0  0  0  0  0  0  0  0
    8.7956  -15.3110   23.1189 C   0  0  0  0  0  0  0  0  0  0  0  0
   10.0227  -15.0473   23.3228 O   0  0  0  0  0  0  0  0  0  0  0  0
    8.1850  -12.0362   25.9507 C   0  0  0  0  0  0  0  0  0  0  0  0
    6.9865  -12.9934   25.9025 C   0  0  2  0  0  0  0  0  0  0  0  0
    5.8401  -12.3344   26.5670 C   0  0  0  0  0  0  0  0  0  0  0  0
    7.4470  -14.2885   26.4585 C   0  0  0  0  0  0  0  0  0  0  0  0
    8.4147  -15.0497   25.5959 C   0  0  2  0  0  0  0  0  0  0  0  0
    7.9464  -15.2332   24.2563 N   0  0  0  0  0  0  0  0  0  0  0  0
    8.8745  -16.2900   26.2596 C   0  0  0  0  0  0  0  0  0  0  0  0
    7.9932  -17.1204   26.6114 O   0  0  0  0  0  0  0  0  0  0  0  0
   11.2207  -21.2327   23.6397 N   0  0  0  0  0  0  0  0  0  0  0  0
   11.8846  -20.3615   22.7124 C   0  0  0  0  0  0  0  0  0  0  0  0
   11.6793  -20.4436   21.4446 N   0  0  0  0  0  0  0  0  0  0  0  0
   12.8034  -19.3652   23.1687 N   0  0  0  0  0  0  0  0  0  0  0  0
   12.9745  -19.1617   24.5922 C   0  0  0  0  0  0  0  0  0  0  0  0
   11.6465  -18.6446   25.1395 C   0  0  0  0  0  0  0  0  0  0  0  0
   11.8697  -18.3580   26.5973 C   0  0  0  0  0  0  0  0  0  0  0  0
   10.5829  -17.8533   27.2117 C   0  0  2  0  0  0  0  0  0  0  0  0
   10.2222  -16.5925   26.5146 N   0  0  0  0  0  0  0  0  0  0  0  0
   10.7326  -17.4864   28.6340 C   0  0  0  0  0  0  0  0  0  0  0  0
   10.7994  -16.2738   29.0358 O   0  0  0  0  0  0  0  0  0  0  0  0
   10.8073  -18.4480   29.6266 O   0  0  0  0  0  0  0  0  0  0  0  0
  1  2  1  0
  2  4  1  0
  3  2  2  0
  4  5  1  0
  5  6  1  1
  7  5  1  0
  8  7  2  0
 10  9  1  1
 10 12  1  0
 11 10  1  0
 13 12  1  1
 13 14  1  0
 14  7  1  0
 15 25  1  0
 15 13  1  0
 16 15  2  0
 18 17  1  0
 18 19  2  0
 20 18  1  0
 21 20  1  0
 22 21  1  0
 23 22  1  0
 24 23  1  6
 24 25  1  0
 26 28  1  0
 26 24  1  0
 27 26  2  0
M  END
$$$$
