PVN.pdb
     RDKit          3D

 23 23  0  0  1  0  0  0  0  0999 V2000
   -2.8555  -27.5357   27.5848 N   0  0  0  0  0  0  0  0  0  0  0  0
   -2.0779  -28.7810   27.7167 C   0  0  0  0  0  0  0  0  0  0  0  0
   -0.7444  -28.2705   28.1880 C   0  0  0  0  0  0  0  0  0  0  0  0
   -1.0855  -27.0921   29.0629 C   0  0  0  0  0  0  0  0  0  0  0  0
   -2.5740  -26.9582   28.8888 C   0  0  1  0  0  0  0  0  0  0  0  0
   -3.1084  -25.6173   29.0952 C   0  0  0  0  0  0  0  0  0  0  0  0
   -3.0346  -25.1362   30.2531 O   0  0  0  0  0  0  0  0  0  0  0  0
   -4.2597  -22.7284   26.0506 C   0  0  0  0  0  0  0  0  0  0  0  0
   -3.6285  -22.4412   27.4186 C   0  0  1  0  0  0  0  0  0  0  0  0
   -4.1478  -21.0579   27.7992 C   0  0  0  0  0  0  0  0  0  0  0  0
   -4.0896  -23.4703   28.4291 C   0  0  2  0  0  0  0  0  0  0  0  0
   -3.7082  -24.8068   28.0990 N   0  0  0  0  0  0  0  0  0  0  0  0
   -5.5442  -23.4169   28.6589 C   0  0  0  0  0  0  0  0  0  0  0  0
   -6.3669  -23.7265   27.7602 O   0  0  0  0  0  0  0  0  0  0  0  0
   -8.1031  -25.6267   29.8671 N   0  0  0  0  0  0  0  0  0  0  0  0
   -8.0502  -25.1678   31.2364 C   0  0  0  0  0  0  0  0  0  0  0  0
   -8.2978  -26.0504   32.0873 O   0  0  0  0  0  0  0  0  0  0  0  0
   -7.7223  -23.7541   31.5213 C   0  0  0  0  0  0  0  0  0  0  0  0
   -7.4624  -22.9873   30.2601 C   0  0  2  0  0  0  0  0  0  0  0  0
   -6.0487  -23.0133   29.9082 N   0  0  0  0  0  0  0  0  0  0  0  0
   -8.0294  -21.6499   30.2251 C   0  0  0  0  0  0  0  0  0  0  0  0
   -7.4259  -20.6400   30.5923 O   0  0  0  0  0  0  0  0  0  0  0  0
   -9.3464  -21.4084   29.7550 O   0  0  0  0  0  0  0  0  0  0  0  0
  1  5  1  0
  1  2  1  0
  2  3  1  0
  4  3  1  0
  5  4  1  0
  6 12  1  0
  5  6  1  6
  7  6  2  0
  9  8  1  6
  9 11  1  0
 10  9  1  0
 11 12  1  6
 11 13  1  0
 13 14  2  0
 13 20  1  0
 16 15  1  0
 17 16  2  0
 18 16  1  0
 19 18  1  1
 19 21  1  0
 20 19  1  0
 21 23  1  0
 22 21  2  0
M  END
$$$$
