PVN.pdb
     RDKit          3D

 23 23  0  0  1  0  0  0  0  0999 V2000
    6.9667  -14.5511   21.0019 N   0  0  0  0  0  0  0  0  0  0  0  0
    6.9369  -14.2152   19.5670 C   0  0  0  0  0  0  0  0  0  0  0  0
    7.2773  -12.7506   19.5798 C   0  0  0  0  0  0  0  0  0  0  0  0
    8.2508  -12.6052   20.7207 C   0  0  0  0  0  0  0  0  0  0  0  0
    8.2593  -13.9773   21.3382 C   0  0  1  0  0  0  0  0  0  0  0  0
    8.6015  -14.0221   22.7549 C   0  0  0  0  0  0  0  0  0  0  0  0
    9.8085  -14.1991   23.0539 O   0  0  0  0  0  0  0  0  0  0  0  0
    7.2452  -11.6238   25.6495 C   0  0  0  0  0  0  0  0  0  0  0  0
    7.3392  -13.0775   26.1293 C   0  0  1  0  0  0  0  0  0  0  0  0
    5.8983  -13.5797   26.1194 C   0  0  0  0  0  0  0  0  0  0  0  0
    8.1831  -13.8877   25.1680 C   0  0  2  0  0  0  0  0  0  0  0  0
    7.6865  -13.8844   23.8285 N   0  0  0  0  0  0  0  0  0  0  0  0
    8.3682  -15.2780   25.6201 C   0  0  0  0  0  0  0  0  0  0  0  0
    7.4646  -16.1418   25.4873 O   0  0  0  0  0  0  0  0  0  0  0  0
   11.5172  -19.8713   24.9358 N   0  0  0  0  0  0  0  0  0  0  0  0
   11.5667  -18.8402   25.9472 C   0  0  0  0  0  0  0  0  0  0  0  0
   12.0077  -19.2219   27.0535 O   0  0  0  0  0  0  0  0  0  0  0  0
   11.1140  -17.4713   25.6180 C   0  0  0  0  0  0  0  0  0  0  0  0
    9.9605  -17.0539   26.4792 C   0  0  2  0  0  0  0  0  0  0  0  0
    9.5789  -15.6724   26.2173 N   0  0  0  0  0  0  0  0  0  0  0  0
   10.1152  -17.3393   27.8956 C   0  0  0  0  0  0  0  0  0  0  0  0
   10.4348  -16.4943   28.7338 O   0  0  0  0  0  0  0  0  0  0  0  0
    9.9039  -18.6395   28.4236 O   0  0  0  0  0  0  0  0  0  0  0  0
  1  5  1  0
  1  2  1  0
  2  3  1  0
  4  3  1  0
  5  4  1  0
  6 12  1  0
  5  6  1  1
  7  6  2  0
  9  8  1  6
  9 11  1  0
 10  9  1  0
 11 12  1  6
 11 13  1  0
 13 14  2  0
 13 20  1  0
 16 15  1  0
 17 16  2  0
 18 16  1  0
 19 18  1  6
 19 21  1  0
 20 19  1  0
 21 23  1  0
 22 21  2  0
M  END
$$$$
