PVN.pdb
     RDKit          3D

 23 23  0  0  1  0  0  0  0  0999 V2000
    6.9140  -15.3523   21.4938 N   0  0  0  0  0  0  0  0  0  0  0  0
    6.9457  -15.4025   20.0209 C   0  0  0  0  0  0  0  0  0  0  0  0
    7.1966  -13.9638   19.6627 C   0  0  0  0  0  0  0  0  0  0  0  0
    8.0931  -13.4576   20.7630 C   0  0  0  0  0  0  0  0  0  0  0  0
    8.1486  -14.6187   21.7184 C   0  0  1  0  0  0  0  0  0  0  0  0
    8.4117  -14.2702   23.1096 C   0  0  0  0  0  0  0  0  0  0  0  0
    9.6124  -14.1673   23.4639 O   0  0  0  0  0  0  0  0  0  0  0  0
    5.5480  -13.4695   26.3884 C   0  0  0  0  0  0  0  0  0  0  0  0
    6.8115  -12.6673   26.0530 C   0  0  1  0  0  0  0  0  0  0  0  0
    7.3323  -12.1872   27.4045 C   0  0  0  0  0  0  0  0  0  0  0  0
    7.8335  -13.5638   25.3862 C   0  0  2  0  0  0  0  0  0  0  0  0
    7.4263  -14.0383   24.1017 N   0  0  0  0  0  0  0  0  0  0  0  0
    8.2139  -14.7072   26.2345 C   0  0  0  0  0  0  0  0  0  0  0  0
    8.2960  -14.6038   27.4847 O   0  0  0  0  0  0  0  0  0  0  0  0
    8.0089  -19.2430   28.5391 N   0  0  0  0  0  0  0  0  0  0  0  0
    7.4478  -19.2044   27.2079 C   0  0  0  0  0  0  0  0  0  0  0  0
    7.1189  -20.3220   26.7528 O   0  0  0  0  0  0  0  0  0  0  0  0
    7.3084  -17.9075   26.5109 C   0  0  0  0  0  0  0  0  0  0  0  0
    8.6265  -17.2034   26.3955 C   0  0  2  0  0  0  0  0  0  0  0  0
    8.4958  -15.9564   25.6533 N   0  0  0  0  0  0  0  0  0  0  0  0
    9.7260  -18.0289   25.9252 C   0  0  0  0  0  0  0  0  0  0  0  0
   10.2117  -17.9446   24.7957 O   0  0  0  0  0  0  0  0  0  0  0  0
   10.3303  -19.0110   26.7523 O   0  0  0  0  0  0  0  0  0  0  0  0
  1  5  1  0
  1  2  1  0
  2  3  1  0
  4  3  1  0
  5  4  1  0
  6 12  1  0
  5  6  1  1
  7  6  2  0
  9  8  1  1
  9 11  1  0
 10  9  1  0
 11 12  1  6
 11 13  1  0
 13 14  2  0
 13 20  1  0
 16 15  1  0
 17 16  2  0
 18 16  1  0
 19 18  1  6
 19 21  1  0
 20 19  1  0
 21 23  1  0
 22 21  2  0
M  END
$$$$
