PVN.pdb
     RDKit          3D

 23 23  0  0  1  0  0  0  0  0999 V2000
    6.9833  -14.9512   20.9563 N   0  0  0  0  0  0  0  0  0  0  0  0
    6.8439  -14.7452   19.5033 C   0  0  0  0  0  0  0  0  0  0  0  0
    7.0873  -13.2673   19.3705 C   0  0  0  0  0  0  0  0  0  0  0  0
    8.1170  -12.9636   20.4280 C   0  0  0  0  0  0  0  0  0  0  0  0
    8.2534  -14.2731   21.1564 C   0  0  1  0  0  0  0  0  0  0  0  0
    8.6837  -14.1724   22.5460 C   0  0  0  0  0  0  0  0  0  0  0  0
    9.9182  -14.2115   22.7744 O   0  0  0  0  0  0  0  0  0  0  0  0
    6.2380  -13.3972   26.1411 C   0  0  0  0  0  0  0  0  0  0  0  0
    7.6083  -12.8052   25.7887 C   0  0  1  0  0  0  0  0  0  0  0  0
    8.2919  -12.5890   27.1356 C   0  0  0  0  0  0  0  0  0  0  0  0
    8.3988  -13.7888   24.9518 C   0  0  2  0  0  0  0  0  0  0  0  0
    7.8264  -14.0355   23.6664 N   0  0  0  0  0  0  0  0  0  0  0  0
    8.6144  -15.0697   25.6477 C   0  0  0  0  0  0  0  0  0  0  0  0
    7.6850  -15.9018   25.8034 O   0  0  0  0  0  0  0  0  0  0  0  0
   11.2406  -18.3939   24.2689 N   0  0  0  0  0  0  0  0  0  0  0  0
   11.7146  -17.2169   24.9605 C   0  0  0  0  0  0  0  0  0  0  0  0
   12.2178  -16.3471   24.2158 O   0  0  0  0  0  0  0  0  0  0  0  0
   11.5773  -17.1280   26.4304 C   0  0  0  0  0  0  0  0  0  0  0  0
   10.2143  -16.6453   26.8249 C   0  0  2  0  0  0  0  0  0  0  0  0
    9.8845  -15.3923   26.1584 N   0  0  0  0  0  0  0  0  0  0  0  0
    9.9653  -16.6073   28.2560 C   0  0  0  0  0  0  0  0  0  0  0  0
    9.8554  -15.5654   28.9049 O   0  0  0  0  0  0  0  0  0  0  0  0
    9.8279  -17.7937   29.0226 O   0  0  0  0  0  0  0  0  0  0  0  0
  1  5  1  0
  1  2  1  0
  2  3  1  0
  4  3  1  0
  5  4  1  0
  6 12  1  0
  5  6  1  1
  7  6  2  0
  9  8  1  1
  9 11  1  0
 10  9  1  0
 11 12  1  6
 11 13  1  0
 13 14  2  0
 13 20  1  0
 16 15  1  0
 17 16  2  0
 18 16  1  0
 19 18  1  1
 19 21  1  0
 20 19  1  0
 21 23  1  0
 22 21  2  0
M  END
$$$$
