PVN.pdb
     RDKit          3D

 23 23  0  0  1  0  0  0  0  0999 V2000
    7.0895  -14.7071   20.6996 N   0  0  0  0  0  0  0  0  0  0  0  0
    7.2087  -14.5395   19.2399 C   0  0  0  0  0  0  0  0  0  0  0  0
    7.5829  -13.0880   19.1198 C   0  0  0  0  0  0  0  0  0  0  0  0
    8.4434  -12.8246   20.3284 C   0  0  0  0  0  0  0  0  0  0  0  0
    8.3569  -14.1159   21.0959 C   0  0  1  0  0  0  0  0  0  0  0  0
    8.5576  -14.0009   22.5357 C   0  0  0  0  0  0  0  0  0  0  0  0
    9.7394  -14.0308   22.9600 O   0  0  0  0  0  0  0  0  0  0  0  0
    5.7035  -12.8974   25.7539 C   0  0  0  0  0  0  0  0  0  0  0  0
    7.1966  -12.5897   25.5859 C   0  0  1  0  0  0  0  0  0  0  0  0
    7.7238  -12.4523   27.0112 C   0  0  0  0  0  0  0  0  0  0  0  0
    7.8868  -13.7379   24.8802 C   0  0  2  0  0  0  0  0  0  0  0  0
    7.5305  -13.8593   23.5022 N   0  0  0  0  0  0  0  0  0  0  0  0
    7.6667  -15.0266   25.5602 C   0  0  0  0  0  0  0  0  0  0  0  0
    6.6241  -15.7032   25.3722 O   0  0  0  0  0  0  0  0  0  0  0  0
   10.2876  -19.3713   26.0259 N   0  0  0  0  0  0  0  0  0  0  0  0
   10.2844  -18.5086   24.8666 C   0  0  0  0  0  0  0  0  0  0  0  0
   10.7695  -19.0255   23.8362 O   0  0  0  0  0  0  0  0  0  0  0  0
    9.7335  -17.1404   24.9752 C   0  0  0  0  0  0  0  0  0  0  0  0
    9.2212  -16.8643   26.3564 C   0  0  2  0  0  0  0  0  0  0  0  0
    8.6346  -15.5336   26.4457 N   0  0  0  0  0  0  0  0  0  0  0  0
   10.1623  -17.1408   27.4284 C   0  0  0  0  0  0  0  0  0  0  0  0
   10.1360  -18.1628   28.1166 O   0  0  0  0  0  0  0  0  0  0  0  0
   11.2001  -16.2332   27.7647 O   0  0  0  0  0  0  0  0  0  0  0  0
  1  5  1  0
  1  2  1  0
  2  3  1  0
  4  3  1  0
  5  4  1  0
  6 12  1  0
  5  6  1  1
  7  6  2  0
  9  8  1  1
  9 11  1  0
 10  9  1  0
 11 12  1  6
 11 13  1  0
 13 14  2  0
 13 20  1  0
 16 15  1  0
 17 16  2  0
 18 16  1  0
 19 18  1  6
 19 21  1  0
 20 19  1  0
 21 23  1  0
 22 21  2  0
M  END
$$$$
