PVN.pdb
     RDKit          3D

 23 23  0  0  1  0  0  0  0  0999 V2000
    8.3991  -14.8506   20.1952 N   0  0  0  0  0  0  0  0  0  0  0  0
    7.4791  -15.2401   19.1113 C   0  0  0  0  0  0  0  0  0  0  0  0
    6.6941  -16.3524   19.7500 C   0  0  0  0  0  0  0  0  0  0  0  0
    6.5760  -15.9421   21.1950 C   0  0  0  0  0  0  0  0  0  0  0  0
    7.4298  -14.7053   21.2687 C   0  0  1  0  0  0  0  0  0  0  0  0
    8.0024  -14.4193   22.5789 C   0  0  0  0  0  0  0  0  0  0  0  0
    9.1927  -14.7666   22.7791 O   0  0  0  0  0  0  0  0  0  0  0  0
    5.9925  -13.0727   26.2717 C   0  0  0  0  0  0  0  0  0  0  0  0
    7.3733  -12.5931   25.8074 C   0  0  1  0  0  0  0  0  0  0  0  0
    8.1838  -12.4523   27.0925 C   0  0  0  0  0  0  0  0  0  0  0  0
    8.0044  -13.6286   24.9007 C   0  0  2  0  0  0  0  0  0  0  0  0
    7.3291  -13.7824   23.6513 N   0  0  0  0  0  0  0  0  0  0  0  0
    8.1323  -14.9427   25.5552 C   0  0  0  0  0  0  0  0  0  0  0  0
    7.2360  -15.8189   25.4589 O   0  0  0  0  0  0  0  0  0  0  0  0
   11.3140  -19.2543   24.8203 N   0  0  0  0  0  0  0  0  0  0  0  0
   11.5629  -18.1642   25.7358 C   0  0  0  0  0  0  0  0  0  0  0  0
   12.3259  -18.4499   26.6847 O   0  0  0  0  0  0  0  0  0  0  0  0
   10.9281  -16.8499   25.4970 C   0  0  0  0  0  0  0  0  0  0  0  0
    9.8263  -16.5875   26.4786 C   0  0  2  0  0  0  0  0  0  0  0  0
    9.2782  -15.2478   26.3114 N   0  0  0  0  0  0  0  0  0  0  0  0
   10.1468  -16.8989   27.8613 C   0  0  0  0  0  0  0  0  0  0  0  0
   10.5088  -16.0585   28.6867 O   0  0  0  0  0  0  0  0  0  0  0  0
   10.0630  -18.2217   28.3683 O   0  0  0  0  0  0  0  0  0  0  0  0
  1  5  1  0
  1  2  1  0
  2  3  1  0
  4  3  1  0
  5  4  1  0
  6 12  1  0
  5  6  1  1
  7  6  2  0
  9  8  1  1
  9 11  1  0
 10  9  1  0
 11 12  1  6
 11 13  1  0
 13 14  2  0
 13 20  1  0
 16 15  1  0
 17 16  2  0
 18 16  1  0
 19 18  1  6
 19 21  1  0
 20 19  1  0
 21 23  1  0
 22 21  2  0
M  END
$$$$
