PVN.pdb
     RDKit          3D

 23 23  0  0  1  0  0  0  0  0999 V2000
    8.5519  -18.3299   16.6167 N   0  0  0  0  0  0  0  0  0  0  0  0
    7.6389  -19.2199   15.8769 C   0  0  0  0  0  0  0  0  0  0  0  0
    6.9046  -19.9132   16.9910 C   0  0  0  0  0  0  0  0  0  0  0  0
    6.7825  -18.8638   18.0654 C   0  0  0  0  0  0  0  0  0  0  0  0
    7.5868  -17.7175   17.5148 C   0  0  1  0  0  0  0  0  0  0  0  0
    8.1587  -16.8205   18.5120 C   0  0  0  0  0  0  0  0  0  0  0  0
    9.3250  -17.0644   18.9096 O   0  0  0  0  0  0  0  0  0  0  0  0
    6.2225  -13.6912   20.9421 C   0  0  0  0  0  0  0  0  0  0  0  0
    7.5852  -13.5335   20.2562 C   0  0  1  0  0  0  0  0  0  0  0  0
    8.4219  -12.7257   21.2440 C   0  0  0  0  0  0  0  0  0  0  0  0
    8.2116  -14.8930   20.0280 C   0  0  2  0  0  0  0  0  0  0  0  0
    7.5096  -15.6935   19.0755 N   0  0  0  0  0  0  0  0  0  0  0  0
    8.3764  -15.6512   21.2808 C   0  0  0  0  0  0  0  0  0  0  0  0
    7.5076  -16.4686   21.6776 O   0  0  0  0  0  0  0  0  0  0  0  0
   10.3427  -19.2727   24.0588 N   0  0  0  0  0  0  0  0  0  0  0  0
   11.2485  -18.6313   23.1333 C   0  0  0  0  0  0  0  0  0  0  0  0
   12.4283  -19.0415   23.1964 O   0  0  0  0  0  0  0  0  0  0  0  0
   10.7404  -17.5849   22.2199 C   0  0  0  0  0  0  0  0  0  0  0  0
   10.0724  -16.4760   22.9752 C   0  0  2  0  0  0  0  0  0  0  0  0
    9.5275  -15.4735   22.0691 N   0  0  0  0  0  0  0  0  0  0  0  0
   10.8638  -15.8982   24.0481 C   0  0  0  0  0  0  0  0  0  0  0  0
   11.2485  -16.5311   25.0331 O   0  0  0  0  0  0  0  0  0  0  0  0
   11.2577  -14.5349   24.0357 O   0  0  0  0  0  0  0  0  0  0  0  0
  1  5  1  0
  1  2  1  0
  2  3  1  0
  4  3  1  0
  5  4  1  0
  6 12  1  0
  5  6  1  1
  7  6  2  0
  9  8  1  1
  9 11  1  0
 10  9  1  0
 11 12  1  6
 11 13  1  0
 13 14  2  0
 13 20  1  0
 16 15  1  0
 17 16  2  0
 18 16  1  0
 19 18  1  6
 19 21  1  0
 20 19  1  0
 21 23  1  0
 22 21  2  0
M  END
$$$$
