PVN.pdb
     RDKit          3D

 23 23  0  0  1  0  0  0  0  0999 V2000
    6.9143  -15.1549   20.9926 N   0  0  0  0  0  0  0  0  0  0  0  0
    6.7756  -14.9781   19.5358 C   0  0  0  0  0  0  0  0  0  0  0  0
    6.8226  -13.4817   19.3949 C   0  0  0  0  0  0  0  0  0  0  0  0
    7.7829  -13.0373   20.4676 C   0  0  0  0  0  0  0  0  0  0  0  0
    8.0789  -14.3125   21.2093 C   0  0  1  0  0  0  0  0  0  0  0  0
    8.4662  -14.1470   22.6054 C   0  0  0  0  0  0  0  0  0  0  0  0
    9.6823  -14.2826   22.8891 O   0  0  0  0  0  0  0  0  0  0  0  0
    5.9429  -13.2369   26.1266 C   0  0  0  0  0  0  0  0  0  0  0  0
    7.3703  -12.7409   25.8647 C   0  0  1  0  0  0  0  0  0  0  0  0
    8.0107  -12.6640   27.2476 C   0  0  0  0  0  0  0  0  0  0  0  0
    8.1140  -13.7346   24.9974 C   0  0  2  0  0  0  0  0  0  0  0  0
    7.5858  -13.8470   23.6749 N   0  0  0  0  0  0  0  0  0  0  0  0
    8.1860  -15.0715   25.6131 C   0  0  0  0  0  0  0  0  0  0  0  0
    7.1802  -15.8226   25.6810 O   0  0  0  0  0  0  0  0  0  0  0  0
   11.9354  -19.6154   26.3668 N   0  0  0  0  0  0  0  0  0  0  0  0
   10.5900  -19.0962   26.2732 C   0  0  0  0  0  0  0  0  0  0  0  0
    9.7045  -19.8773   26.6856 O   0  0  0  0  0  0  0  0  0  0  0  0
   10.3659  -17.7419   25.7228 C   0  0  0  0  0  0  0  0  0  0  0  0
    9.6049  -16.8793   26.6836 C   0  0  2  0  0  0  0  0  0  0  0  0
    9.4006  -15.5413   26.1441 N   0  0  0  0  0  0  0  0  0  0  0  0
   10.1202  -16.8688   28.0422 C   0  0  0  0  0  0  0  0  0  0  0  0
   10.6458  -15.8859   28.5680 O   0  0  0  0  0  0  0  0  0  0  0  0
   10.0521  -18.0148   28.8764 O   0  0  0  0  0  0  0  0  0  0  0  0
  1  5  1  0
  1  2  1  0
  2  3  1  0
  4  3  1  0
  5  4  1  0
  6 12  1  0
  5  6  1  1
  7  6  2  0
  9  8  1  1
  9 11  1  0
 10  9  1  0
 11 12  1  6
 11 13  1  0
 13 14  2  0
 13 20  1  0
 16 15  1  0
 17 16  2  0
 18 16  1  0
 19 18  1  6
 19 21  1  0
 20 19  1  0
 21 23  1  0
 22 21  2  0
M  END
$$$$
