PVN.pdb
     RDKit          3D

 23 23  0  0  1  0  0  0  0  0999 V2000
    6.7648  -14.6952   20.8312 N   0  0  0  0  0  0  0  0  0  0  0  0
    6.6938  -14.4796   19.3747 C   0  0  0  0  0  0  0  0  0  0  0  0
    7.0891  -13.0339   19.2514 C   0  0  0  0  0  0  0  0  0  0  0  0
    8.1093  -12.8331   20.3419 C   0  0  0  0  0  0  0  0  0  0  0  0
    8.0895  -14.1480   21.0731 C   0  0  1  0  0  0  0  0  0  0  0  0
    8.4826  -14.0880   22.4760 C   0  0  0  0  0  0  0  0  0  0  0  0
    9.7099  -14.1480   22.7368 O   0  0  0  0  0  0  0  0  0  0  0  0
    5.9213  -13.7032   26.0348 C   0  0  0  0  0  0  0  0  0  0  0  0
    7.2686  -13.0034   25.8175 C   0  0  1  0  0  0  0  0  0  0  0  0
    7.8955  -12.9357   27.2071 C   0  0  0  0  0  0  0  0  0  0  0  0
    8.1375  -13.8269   24.8903 C   0  0  2  0  0  0  0  0  0  0  0  0
    7.5965  -13.9690   23.5758 N   0  0  0  0  0  0  0  0  0  0  0  0
    8.4415  -15.1586   25.4433 C   0  0  0  0  0  0  0  0  0  0  0  0
    7.5985  -16.0908   25.4224 O   0  0  0  0  0  0  0  0  0  0  0  0
   11.0668  -17.5829   23.4083 N   0  0  0  0  0  0  0  0  0  0  0  0
   11.0521  -18.0994   24.7580 C   0  0  0  0  0  0  0  0  0  0  0  0
   10.7647  -19.3137   24.8437 O   0  0  0  0  0  0  0  0  0  0  0  0
   11.3634  -17.1985   25.8887 C   0  0  0  0  0  0  0  0  0  0  0  0
   10.1150  -16.7047   26.5552 C   0  0  2  0  0  0  0  0  0  0  0  0
    9.7011  -15.4172   26.0131 N   0  0  0  0  0  0  0  0  0  0  0  0
   10.1442  -16.7238   28.0079 C   0  0  0  0  0  0  0  0  0  0  0  0
   10.1904  -15.7090   28.7056 O   0  0  0  0  0  0  0  0  0  0  0  0
   10.1209  -17.9392   28.7401 O   0  0  0  0  0  0  0  0  0  0  0  0
  1  5  1  0
  1  2  1  0
  2  3  1  0
  4  3  1  0
  5  4  1  0
  6 12  1  0
  5  6  1  1
  7  6  2  0
  9  8  1  1
  9 11  1  0
 10  9  1  0
 11 12  1  6
 11 13  1  0
 13 14  2  0
 13 20  1  0
 16 15  1  0
 17 16  2  0
 18 16  1  0
 19 18  1  6
 19 21  1  0
 20 19  1  0
 21 23  1  0
 22 21  2  0
M  END
$$$$
