PCD.pdb
     RDKit          3D

 22 22  0  0  1  0  0  0  0  0999 V2000
    7.1498  -15.0094   20.6230 N   0  0  0  0  0  0  0  0  0  0  0  0
    6.6359  -14.7085   19.2955 C   0  0  0  0  0  0  0  0  0  0  0  0
    7.3426  -13.4693   18.8157 C   0  0  0  0  0  0  0  0  0  0  0  0
    7.9364  -12.9228   20.0963 C   0  0  0  0  0  0  0  0  0  0  0  0
    8.3528  -14.2320   20.7773 C   0  0  1  0  0  0  0  0  0  0  0  0
    8.7406  -14.0327   22.1776 C   0  0  0  0  0  0  0  0  0  0  0  0
    9.9458  -13.6999   22.3967 O   0  0  0  0  0  0  0  0  0  0  0  0
    7.9004  -14.1771   23.2862 N   0  0  0  0  0  0  0  0  0  0  0  0
    8.3809  -13.9320   24.6642 C   0  0  1  0  0  0  0  0  0  0  0  0
    7.1947  -13.2672   25.3742 C   0  0  0  0  0  0  0  0  0  0  0  0
    7.5373  -12.9078   27.1073 S   0  0  0  0  0  0  0  0  0  0  0  0
    8.6414  -15.2159   25.3347 C   0  0  0  0  0  0  0  0  0  0  0  0
    7.6954  -16.0633   25.3849 O   0  0  0  0  0  0  0  0  0  0  0  0
    9.8827  -15.5474   25.9180 N   0  0  0  0  0  0  0  0  0  0  0  0
   10.0276  -16.8624   26.5150 C   0  0  1  0  0  0  0  0  0  0  0  0
   11.3931  -17.4479   26.2432 C   0  0  0  0  0  0  0  0  0  0  0  0
   11.7131  -17.4478   24.7941 C   0  0  0  0  0  0  0  0  0  0  0  0
   10.9665  -18.0558   24.0142 O   0  0  0  0  0  0  0  0  0  0  0  0
    9.9001  -16.7624   28.0043 C   0  0  0  0  0  0  0  0  0  0  0  0
    9.8456  -17.8264   28.6383 O   0  0  0  0  0  0  0  0  0  0  0  0
   12.8239  -16.7817   24.3207 O   0  0  0  0  0  0  0  0  0  0  0  0
    9.8457  -15.5526   28.6430 O   0  0  0  0  0  0  0  0  0  0  0  0
  1  2  1  0
  3  2  1  0
  4  3  1  0
  4  5  1  0
  5  1  1  0
  5  6  1  1
  7  6  2  0
  8  6  1  0
  9  8  1  0
  9 12  1  0
  9 10  1  1
 11 10  1  0
 12 14  1  0
 13 12  2  0
 14 15  1  0
 15 16  1  1
 15 19  1  0
 16 17  1  0
 17 21  1  0
 17 18  2  0
 19 20  2  0
 19 22  1  0
M  END
$$$$
