PCD.pdb
     RDKit          3D

 22 22  0  0  1  0  0  0  0  0999 V2000
    8.1918  -15.2579   18.7975 N   0  0  0  0  0  0  0  0  0  0  0  0
    7.4120  -14.8110   17.6534 C   0  0  0  0  0  0  0  0  0  0  0  0
    7.3419  -13.3091   17.7226 C   0  0  0  0  0  0  0  0  0  0  0  0
    7.7676  -13.0337   19.1488 C   0  0  0  0  0  0  0  0  0  0  0  0
    8.8659  -14.0917   19.3085 C   0  0  1  0  0  0  0  0  0  0  0  0
    9.3023  -14.2358   20.7012 C   0  0  0  0  0  0  0  0  0  0  0  0
   10.4579  -13.7962   20.9882 O   0  0  0  0  0  0  0  0  0  0  0  0
    8.5577  -14.8133   21.7347 N   0  0  0  0  0  0  0  0  0  0  0  0
    9.0286  -14.7950   23.1375 C   0  0  1  0  0  0  0  0  0  0  0  0
    7.7448  -14.8360   23.9762 C   0  0  0  0  0  0  0  0  0  0  0  0
    8.0691  -15.1247   25.7259 S   0  0  0  0  0  0  0  0  0  0  0  0
    9.7885  -16.0227   23.4220 C   0  0  0  0  0  0  0  0  0  0  0  0
    9.3301  -17.1221   22.9783 O   0  0  0  0  0  0  0  0  0  0  0  0
   10.9929  -16.0356   24.1569 N   0  0  0  0  0  0  0  0  0  0  0  0
   11.6469  -17.3129   24.3745 C   0  0  1  0  0  0  0  0  0  0  0  0
   13.1309  -17.1452   24.6001 C   0  0  0  0  0  0  0  0  0  0  0  0
   13.7917  -16.4864   23.4461 C   0  0  0  0  0  0  0  0  0  0  0  0
   13.1996  -16.4450   22.3585 O   0  0  0  0  0  0  0  0  0  0  0  0
   11.1025  -17.9597   25.6112 C   0  0  0  0  0  0  0  0  0  0  0  0
   10.3839  -17.2626   26.3424 O   0  0  0  0  0  0  0  0  0  0  0  0
   15.0455  -15.9282   23.5802 O   0  0  0  0  0  0  0  0  0  0  0  0
   11.3823  -19.2625   25.9257 O   0  0  0  0  0  0  0  0  0  0  0  0
  1  2  1  0
  3  2  1  0
  4  3  1  0
  4  5  1  0
  5  1  1  0
  5  6  1  1
  7  6  2  0
  8  6  1  0
  9  8  1  0
  9 12  1  0
  9 10  1  1
 11 10  1  0
 12 14  1  0
 13 12  2  0
 14 15  1  0
 15 16  1  1
 15 19  1  0
 16 17  1  0
 17 21  1  0
 17 18  2  0
 19 20  2  0
 19 22  1  0
M  END
$$$$
