PCD.pdb
     RDKit          3D

 22 22  0  0  1  0  0  0  0  0999 V2000
    6.8107  -14.7928   20.3257 N   0  0  0  0  0  0  0  0  0  0  0  0
    6.3775  -14.1794   19.0796 C   0  0  0  0  0  0  0  0  0  0  0  0
    7.1995  -12.9331   18.8884 C   0  0  0  0  0  0  0  0  0  0  0  0
    7.7814  -12.7180   20.2690 C   0  0  0  0  0  0  0  0  0  0  0  0
    8.0642  -14.1710   20.6688 C   0  0  1  0  0  0  0  0  0  0  0  0
    8.4085  -14.3013   22.0884 C   0  0  0  0  0  0  0  0  0  0  0  0
    9.6392  -14.2239   22.3891 O   0  0  0  0  0  0  0  0  0  0  0  0
    7.5014  -14.5025   23.1336 N   0  0  0  0  0  0  0  0  0  0  0  0
    7.9368  -14.5302   24.5477 C   0  0  1  0  0  0  0  0  0  0  0  0
    6.6345  -14.4499   25.3543 C   0  0  0  0  0  0  0  0  0  0  0  0
    6.0288  -12.7606   25.5263 S   0  0  0  0  0  0  0  0  0  0  0  0
    8.5695  -15.8248   24.8469 C   0  0  0  0  0  0  0  0  0  0  0  0
    7.8657  -16.8751   24.7157 O   0  0  0  0  0  0  0  0  0  0  0  0
    9.9102  -15.9530   25.2673 N   0  0  0  0  0  0  0  0  0  0  0  0
   10.4586  -17.2899   25.4036 C   0  0  1  0  0  0  0  0  0  0  0  0
   11.8992  -17.3474   24.9535 C   0  0  0  0  0  0  0  0  0  0  0  0
   12.4988  -18.6828   25.1972 C   0  0  0  0  0  0  0  0  0  0  0  0
   11.7501  -19.6583   25.3500 O   0  0  0  0  0  0  0  0  0  0  0  0
   10.4501  -17.6993   26.8447 C   0  0  0  0  0  0  0  0  0  0  0  0
   10.8125  -18.8561   27.1044 O   0  0  0  0  0  0  0  0  0  0  0  0
   13.8679  -18.8379   25.2530 O   0  0  0  0  0  0  0  0  0  0  0  0
   10.0603  -16.8388   27.8357 O   0  0  0  0  0  0  0  0  0  0  0  0
  1  2  1  0
  3  2  1  0
  4  3  1  0
  4  5  1  0
  5  1  1  0
  5  6  1  1
  7  6  2  0
  8  6  1  0
  9  8  1  0
  9 12  1  0
  9 10  1  1
 11 10  1  0
 12 14  1  0
 13 12  2  0
 14 15  1  0
 15 16  1  1
 15 19  1  0
 16 17  1  0
 17 21  1  0
 17 18  2  0
 19 20  2  0
 19 22  1  0
M  END
$$$$
