PCD.pdb
     RDKit          3D

 22 22  0  0  1  0  0  0  0  0999 V2000
    6.9050  -14.8822   20.2304 N   0  0  0  0  0  0  0  0  0  0  0  0
    6.4210  -14.4349   18.9333 C   0  0  0  0  0  0  0  0  0  0  0  0
    7.2695  -13.2615   18.5228 C   0  0  0  0  0  0  0  0  0  0  0  0
    7.9357  -12.8761   19.8261 C   0  0  0  0  0  0  0  0  0  0  0  0
    8.1949  -14.2679   20.4150 C   0  0  1  0  0  0  0  0  0  0  0  0
    8.6154  -14.2093   21.8188 C   0  0  0  0  0  0  0  0  0  0  0  0
    9.8158  -13.8633   22.0437 O   0  0  0  0  0  0  0  0  0  0  0  0
    7.8109  -14.5005   22.9252 N   0  0  0  0  0  0  0  0  0  0  0  0
    8.2795  -14.2719   24.3101 C   0  0  1  0  0  0  0  0  0  0  0  0
    7.0211  -13.8486   25.0785 C   0  0  0  0  0  0  0  0  0  0  0  0
    7.3329  -13.6025   26.8370 S   0  0  0  0  0  0  0  0  0  0  0  0
    8.7527  -15.5392   24.8896 C   0  0  0  0  0  0  0  0  0  0  0  0
    8.0012  -16.5588   24.7836 O   0  0  0  0  0  0  0  0  0  0  0  0
    9.9921  -15.6739   25.5502 N   0  0  0  0  0  0  0  0  0  0  0  0
   10.4392  -17.0102   25.8981 C   0  0  1  0  0  0  0  0  0  0  0  0
   11.9465  -17.0991   25.9353 C   0  0  0  0  0  0  0  0  0  0  0  0
   12.4092  -18.4795   26.2224 C   0  0  0  0  0  0  0  0  0  0  0  0
   12.8277  -18.7487   27.3572 O   0  0  0  0  0  0  0  0  0  0  0  0
    9.9615  -17.3652   27.2730 C   0  0  0  0  0  0  0  0  0  0  0  0
    9.5494  -16.4369   27.9839 O   0  0  0  0  0  0  0  0  0  0  0  0
   12.3747  -19.4494   25.2427 O   0  0  0  0  0  0  0  0  0  0  0  0
    9.9768  -18.6557   27.7300 O   0  0  0  0  0  0  0  0  0  0  0  0
  1  2  1  0
  3  2  1  0
  4  3  1  0
  4  5  1  0
  5  1  1  0
  5  6  1  1
  7  6  2  0
  8  6  1  0
  9  8  1  0
  9 12  1  0
  9 10  1  1
 11 10  1  0
 12 14  1  0
 13 12  2  0
 14 15  1  0
 15 16  1  1
 15 19  1  0
 16 17  1  0
 17 21  1  0
 17 18  2  0
 19 20  2  0
 19 22  1  0
M  END
$$$$
