PCD.pdb
     RDKit          3D

 22 22  0  0  1  0  0  0  0  0999 V2000
    8.4346  -13.3797   19.8389 N   0  0  0  0  0  0  0  0  0  0  0  0
    7.9587  -13.9293   18.5787 C   0  0  0  0  0  0  0  0  0  0  0  0
    6.8664  -14.9116   18.9064 C   0  0  0  0  0  0  0  0  0  0  0  0
    7.0754  -15.1408   20.3879 C   0  0  0  0  0  0  0  0  0  0  0  0
    7.4441  -13.7191   20.8284 C   0  0  1  0  0  0  0  0  0  0  0  0
    7.9561  -13.6767   22.2021 C   0  0  0  0  0  0  0  0  0  0  0  0
    9.1929  -13.9139   22.3604 O   0  0  0  0  0  0  0  0  0  0  0  0
    7.2018  -13.3987   23.3465 N   0  0  0  0  0  0  0  0  0  0  0  0
    7.8081  -13.3951   24.6964 C   0  0  1  0  0  0  0  0  0  0  0  0
    6.7063  -12.8483   25.6131 C   0  0  0  0  0  0  0  0  0  0  0  0
    7.1747  -12.8783   27.3537 S   0  0  0  0  0  0  0  0  0  0  0  0
    8.0945  -14.7764   25.1156 C   0  0  0  0  0  0  0  0  0  0  0  0
    7.2163  -15.6641   24.8781 O   0  0  0  0  0  0  0  0  0  0  0  0
    9.2893  -15.1579   25.7619 N   0  0  0  0  0  0  0  0  0  0  0  0
    9.4974  -16.5678   26.0366 C   0  0  1  0  0  0  0  0  0  0  0  0
   10.6404  -17.1288   25.2242 C   0  0  0  0  0  0  0  0  0  0  0  0
   10.9402  -18.5344   25.5940 C   0  0  0  0  0  0  0  0  0  0  0  0
   10.0045  -19.2885   25.8959 O   0  0  0  0  0  0  0  0  0  0  0  0
    9.8696  -16.7567   27.4754 C   0  0  0  0  0  0  0  0  0  0  0  0
   10.1766  -15.7410   28.1165 O   0  0  0  0  0  0  0  0  0  0  0  0
   12.2395  -18.9962   25.6021 O   0  0  0  0  0  0  0  0  0  0  0  0
    9.8725  -17.9937   28.0622 O   0  0  0  0  0  0  0  0  0  0  0  0
  1  2  1  0
  3  2  1  0
  4  3  1  0
  4  5  1  0
  5  1  1  0
  5  6  1  1
  7  6  2  0
  8  6  1  0
  9  8  1  0
  9 12  1  0
  9 10  1  1
 11 10  1  0
 12 14  1  0
 13 12  2  0
 14 15  1  0
 15 16  1  6
 15 19  1  0
 16 17  1  0
 17 21  1  0
 17 18  2  0
 19 20  2  0
 19 22  1  0
M  END
$$$$
