PCD.pdb
     RDKit          3D

 22 22  0  0  1  0  0  0  0  0999 V2000
    7.9799  -14.5520   19.7804 N   0  0  0  0  0  0  0  0  0  0  0  0
    7.2437  -15.2281   18.7232 C   0  0  0  0  0  0  0  0  0  0  0  0
    6.2918  -16.1864   19.3873 C   0  0  0  0  0  0  0  0  0  0  0  0
    6.8466  -16.2667   20.7933 C   0  0  0  0  0  0  0  0  0  0  0  0
    7.2584  -14.8044   21.0015 C   0  0  1  0  0  0  0  0  0  0  0  0
    8.0735  -14.6215   22.2069 C   0  0  0  0  0  0  0  0  0  0  0  0
    9.3263  -14.7818   22.0815 O   0  0  0  0  0  0  0  0  0  0  0  0
    7.5907  -14.2872   23.4763 N   0  0  0  0  0  0  0  0  0  0  0  0
    8.4811  -14.2269   24.6567 C   0  0  1  0  0  0  0  0  0  0  0  0
    7.6322  -13.5611   25.7471 C   0  0  0  0  0  0  0  0  0  0  0  0
    6.0509  -14.3901   25.9972 S   0  0  0  0  0  0  0  0  0  0  0  0
    8.7999  -15.5909   25.1081 C   0  0  0  0  0  0  0  0  0  0  0  0
    7.8929  -16.4762   25.0123 O   0  0  0  0  0  0  0  0  0  0  0  0
   10.0556  -15.9584   25.6363 N   0  0  0  0  0  0  0  0  0  0  0  0
   10.2798  -17.3565   25.9555 C   0  0  1  0  0  0  0  0  0  0  0  0
   11.7002  -17.7734   25.6556 C   0  0  0  0  0  0  0  0  0  0  0  0
   12.2085  -17.1407   24.4131 C   0  0  0  0  0  0  0  0  0  0  0  0
   11.5830  -17.3055   23.3562 O   0  0  0  0  0  0  0  0  0  0  0  0
   10.0740  -17.5834   27.4219 C   0  0  0  0  0  0  0  0  0  0  0  0
   10.1998  -18.7451   27.8359 O   0  0  0  0  0  0  0  0  0  0  0  0
   13.3590  -16.3808   24.4324 O   0  0  0  0  0  0  0  0  0  0  0  0
    9.7607  -16.5573   28.2726 O   0  0  0  0  0  0  0  0  0  0  0  0
  1  2  1  0
  3  2  1  0
  4  3  1  0
  4  5  1  0
  5  1  1  0
  5  6  1  1
  7  6  2  0
  8  6  1  0
  9  8  1  0
  9 12  1  0
  9 10  1  1
 11 10  1  0
 12 14  1  0
 13 12  2  0
 14 15  1  0
 15 16  1  1
 15 19  1  0
 16 17  1  0
 17 21  1  0
 17 18  2  0
 19 20  2  0
 19 22  1  0
M  END
$$$$
