PCD.pdb
     RDKit          3D

 22 22  0  0  1  0  0  0  0  0999 V2000
    8.1966  -14.9349   18.9169 N   0  0  0  0  0  0  0  0  0  0  0  0
    7.7894  -14.3307   17.6576 C   0  0  0  0  0  0  0  0  0  0  0  0
    7.6362  -12.8535   17.9024 C   0  0  0  0  0  0  0  0  0  0  0  0
    7.5884  -12.7823   19.4136 C   0  0  0  0  0  0  0  0  0  0  0  0
    8.6287  -13.8528   19.7641 C   0  0  1  0  0  0  0  0  0  0  0  0
    8.6197  -14.1923   21.1909 C   0  0  0  0  0  0  0  0  0  0  0  0
    9.0482  -13.3071   21.9934 O   0  0  0  0  0  0  0  0  0  0  0  0
    8.1816  -15.4017   21.7399 N   0  0  0  0  0  0  0  0  0  0  0  0
    8.2800  -15.6791   23.1901 C   0  0  1  0  0  0  0  0  0  0  0  0
    6.9447  -16.3442   23.5474 C   0  0  0  0  0  0  0  0  0  0  0  0
    6.8679  -16.8617   25.2726 S   0  0  0  0  0  0  0  0  0  0  0  0
    9.3488  -16.6603   23.4364 C   0  0  0  0  0  0  0  0  0  0  0  0
    9.4651  -17.6298   22.6226 O   0  0  0  0  0  0  0  0  0  0  0  0
   10.2438  -16.5743   24.5237 N   0  0  0  0  0  0  0  0  0  0  0  0
   11.3063  -17.5590   24.6136 C   0  0  1  0  0  0  0  0  0  0  0  0
   12.4756  -17.0421   25.4177 C   0  0  0  0  0  0  0  0  0  0  0  0
   13.6297  -17.9739   25.3718 C   0  0  0  0  0  0  0  0  0  0  0  0
   13.9040  -18.6401   26.3799 O   0  0  0  0  0  0  0  0  0  0  0  0
   10.8104  -18.7797   25.3267 C   0  0  0  0  0  0  0  0  0  0  0  0
   10.0507  -18.6004   26.2898 O   0  0  0  0  0  0  0  0  0  0  0  0
   14.3864  -18.0980   24.2257 O   0  0  0  0  0  0  0  0  0  0  0  0
   11.1763  -20.0401   24.9369 O   0  0  0  0  0  0  0  0  0  0  0  0
  1  2  1  0
  3  2  1  0
  4  3  1  0
  4  5  1  0
  5  1  1  0
  5  6  1  1
  7  6  2  0
  8  6  1  0
  9  8  1  0
  9 12  1  0
  9 10  1  6
 11 10  1  0
 12 14  1  0
 13 12  2  0
 14 15  1  0
 15 16  1  1
 15 19  1  0
 16 17  1  0
 17 21  1  0
 17 18  2  0
 19 20  2  0
 19 22  1  0
M  END
$$$$
