PCD.pdb
     RDKit          3D

 22 22  0  0  1  0  0  0  0  0999 V2000
    7.9340  -14.3115   18.4904 N   0  0  0  0  0  0  0  0  0  0  0  0
    7.6693  -12.9082   18.2122 C   0  0  0  0  0  0  0  0  0  0  0  0
    8.0456  -12.1319   19.4456 C   0  0  0  0  0  0  0  0  0  0  0  0
    8.1313  -13.2193   20.4950 C   0  0  0  0  0  0  0  0  0  0  0  0
    8.7670  -14.3413   19.6654 C   0  0  1  0  0  0  0  0  0  0  0  0
    8.7434  -15.6314   20.3625 C   0  0  0  0  0  0  0  0  0  0  0  0
    7.8066  -16.4313   20.0563 O   0  0  0  0  0  0  0  0  0  0  0  0
    9.6601  -16.0534   21.3308 N   0  0  0  0  0  0  0  0  0  0  0  0
    9.6164  -17.4179   21.9017 C   0  0  1  0  0  0  0  0  0  0  0  0
   10.1266  -18.3246   20.7745 C   0  0  0  0  0  0  0  0  0  0  0  0
   11.7144  -17.7829   20.1144 S   0  0  0  0  0  0  0  0  0  0  0  0
   10.5662  -17.5181   23.0213 C   0  0  0  0  0  0  0  0  0  0  0  0
   11.3945  -16.5680   23.1853 O   0  0  0  0  0  0  0  0  0  0  0  0
   10.5985  -18.6099   23.9144 N   0  0  0  0  0  0  0  0  0  0  0  0
   11.5218  -18.5507   25.0328 C   0  0  1  0  0  0  0  0  0  0  0  0
   10.9521  -19.2234   26.2592 C   0  0  0  0  0  0  0  0  0  0  0  0
   11.8940  -19.1682   27.4045 C   0  0  0  0  0  0  0  0  0  0  0  0
   12.9326  -18.5010   27.2962 O   0  0  0  0  0  0  0  0  0  0  0  0
   12.7808  -19.2883   24.6933 C   0  0  0  0  0  0  0  0  0  0  0  0
   12.6981  -20.1806   23.8367 O   0  0  0  0  0  0  0  0  0  0  0  0
   11.6196  -19.8482   28.5724 O   0  0  0  0  0  0  0  0  0  0  0  0
   13.9732  -18.9946   25.2987 O   0  0  0  0  0  0  0  0  0  0  0  0
  1  2  1  0
  3  2  1  0
  4  3  1  0
  4  5  1  0
  5  1  1  0
  5  6  1  1
  7  6  2  0
  8  6  1  0
  9  8  1  0
  9 12  1  0
  9 10  1  6
 11 10  1  0
 12 14  1  0
 13 12  2  0
 14 15  1  0
 15 16  1  1
 15 19  1  0
 16 17  1  0
 17 21  1  0
 17 18  2  0
 19 20  2  0
 19 22  1  0
M  END
$$$$
