EQE.pdb
     RDKit          3D

 28 27  0  0  1  0  0  0  0  0999 V2000
   27.7685  -19.8865  -16.0216 N   0  0  0  0  0  0  0  0  0  0  0  0
   26.6308  -20.6251  -16.5668 C   0  0  1  0  0  0  0  0  0  0  0  0
   27.1990  -21.6555  -17.4856 C   0  0  0  0  0  0  0  0  0  0  0  0
   28.1154  -21.1076  -18.5522 C   0  0  0  0  0  0  0  0  0  0  0  0
   27.4284  -21.3004  -19.8430 C   0  0  0  0  0  0  0  0  0  0  0  0
   26.3669  -21.9620  -19.8845 O   0  0  0  0  0  0  0  0  0  0  0  0
   25.8444  -21.1632  -15.4468 C   0  0  0  0  0  0  0  0  0  0  0  0
   24.8160  -21.8886  -15.6949 O   0  0  0  0  0  0  0  0  0  0  0  0
   27.9467  -20.7537  -20.9955 O   0  0  0  0  0  0  0  0  0  0  0  0
   26.3951  -20.3184   -9.0751 N   0  0  0  0  0  0  0  0  0  0  0  0
   25.3080  -21.2029   -9.3065 C   0  0  0  0  0  0  0  0  0  0  0  0
   24.6681  -21.6097   -8.2845 O   0  0  0  0  0  0  0  0  0  0  0  0
   24.9350  -21.6316  -10.6545 C   0  0  0  0  0  0  0  0  0  0  0  0
   25.8840  -21.2253  -11.7448 C   0  0  0  0  0  0  0  0  0  0  0  0
   25.1794  -21.3150  -13.0834 C   0  0  2  0  0  0  0  0  0  0  0  0
   26.1613  -20.9233  -14.0821 N   0  0  0  0  0  0  0  0  0  0  0  0
   24.0317  -20.3781  -13.1537 C   0  0  0  0  0  0  0  0  0  0  0  0
   24.2265  -19.1363  -13.0929 O   0  0  0  0  0  0  0  0  0  0  0  0
   22.7361  -20.8575  -13.2871 N   0  0  0  0  0  0  0  0  0  0  0  0
   21.5276  -20.0077  -13.4391 C   0  0  1  0  0  0  0  0  0  0  0  0
   21.5280  -19.6554  -14.8820 C   0  0  0  0  0  0  0  0  0  0  0  0
   20.7536  -20.4586  -15.8351 C   0  0  0  0  0  0  0  0  0  0  0  0
   21.5207  -20.8035  -17.0434 C   0  0  0  0  0  0  0  0  0  0  0  0
   21.5190  -21.9995  -17.4418 O   0  0  0  0  0  0  0  0  0  0  0  0
   20.4015  -20.7161  -12.8658 C   0  0  0  0  0  0  0  0  0  0  0  0
   20.5229  -21.9720  -12.6248 O   0  0  0  0  0  0  0  0  0  0  0  0
   22.2549  -19.9060  -17.7876 O   0  0  0  0  0  0  0  0  0  0  0  0
   19.1621  -20.1782  -12.5318 O   0  0  0  0  0  0  0  0  0  0  0  0
  2  1  1  1
  2  3  1  0
  2  7  1  0
  4  3  1  0
  4  5  1  0
  5  6  2  0
  7  8  2  0
  9  5  1  0
 10 11  1  0
 11 12  2  0
 13 11  1  0
 13 14  1  0
 15 14  1  1
 16  7  1  0
 16 15  1  0
 17 15  1  0
 17 18  2  0
 19 17  1  0
 20 25  1  0
 20 19  1  0
 20 21  1  6
 22 21  1  0
 23 27  1  0
 23 22  1  0
 24 23  2  0
 25 28  1  0
 26 25  2  0
M  END
$$$$
