EQE.pdb
     RDKit          3D

 28 27  0  0  1  0  0  0  0  0999 V2000
   21.3101  -13.5811  -16.3077 N   0  0  0  0  0  0  0  0  0  0  0  0
   20.7006  -12.2718  -16.5343 C   0  0  1  0  0  0  0  0  0  0  0  0
   19.2868  -12.3790  -16.0671 C   0  0  0  0  0  0  0  0  0  0  0  0
   18.4358  -13.3410  -16.8594 C   0  0  0  0  0  0  0  0  0  0  0  0
   17.0975  -13.3345  -16.2396 C   0  0  0  0  0  0  0  0  0  0  0  0
   16.1196  -12.8973  -16.8867 O   0  0  0  0  0  0  0  0  0  0  0  0
   21.5052  -11.2563  -15.8388 C   0  0  0  0  0  0  0  0  0  0  0  0
   21.3971  -11.1349  -14.5664 O   0  0  0  0  0  0  0  0  0  0  0  0
   16.9214  -13.8095  -14.9593 O   0  0  0  0  0  0  0  0  0  0  0  0
   27.3552  -10.3480  -16.4950 N   0  0  0  0  0  0  0  0  0  0  0  0
   26.5434  -11.1963  -15.6957 C   0  0  0  0  0  0  0  0  0  0  0  0
   27.0910  -12.2459  -15.2288 O   0  0  0  0  0  0  0  0  0  0  0  0
   25.1413  -10.8851  -15.4174 C   0  0  0  0  0  0  0  0  0  0  0  0
   24.6189   -9.6349  -16.0644 C   0  0  0  0  0  0  0  0  0  0  0  0
   23.1632   -9.4453  -15.6886 C   0  0  2  0  0  0  0  0  0  0  0  0
   22.4112  -10.3861  -16.5038 N   0  0  0  0  0  0  0  0  0  0  0  0
   22.6993   -8.0715  -16.0002 C   0  0  0  0  0  0  0  0  0  0  0  0
   22.4864   -7.7329  -17.1935 O   0  0  0  0  0  0  0  0  0  0  0  0
   22.4953   -7.1478  -14.9845 N   0  0  0  0  0  0  0  0  0  0  0  0
   21.9124   -5.7946  -15.1717 C   0  0  1  0  0  0  0  0  0  0  0  0
   20.4767   -6.0669  -15.4380 C   0  0  0  0  0  0  0  0  0  0  0  0
   19.5245   -4.9552  -15.5413 C   0  0  0  0  0  0  0  0  0  0  0  0
   18.1466   -5.4081  -15.7936 C   0  0  0  0  0  0  0  0  0  0  0  0
   17.6469   -5.2221  -16.9359 O   0  0  0  0  0  0  0  0  0  0  0  0
   22.2977   -4.9758  -14.0406 C   0  0  0  0  0  0  0  0  0  0  0  0
   22.5694   -5.5544  -12.9263 O   0  0  0  0  0  0  0  0  0  0  0  0
   17.3442   -6.0308  -14.8628 O   0  0  0  0  0  0  0  0  0  0  0  0
   22.4144   -3.5891  -14.0180 O   0  0  0  0  0  0  0  0  0  0  0  0
  2  1  1  1
  2  3  1  0
  2  7  1  0
  4  3  1  0
  4  5  1  0
  5  6  2  0
  7  8  2  0
  9  5  1  0
 10 11  1  0
 11 12  2  0
 13 11  1  0
 13 14  1  0
 15 14  1  6
 16  7  1  0
 16 15  1  0
 17 15  1  0
 17 18  2  0
 19 17  1  0
 20 25  1  0
 20 19  1  0
 20 21  1  1
 22 21  1  0
 23 27  1  0
 23 22  1  0
 24 23  2  0
 25 28  1  0
 26 25  2  0
M  END
$$$$
