EQE.pdb
     RDKit          3D

 28 27  0  0  1  0  0  0  0  0999 V2000
   27.5320  -21.7913  -15.8152 N   0  0  0  0  0  0  0  0  0  0  0  0
   27.3119  -20.8737  -14.6986 C   0  0  1  0  0  0  0  0  0  0  0  0
   27.2461  -19.5031  -15.2867 C   0  0  0  0  0  0  0  0  0  0  0  0
   26.0774  -19.2738  -16.2136 C   0  0  0  0  0  0  0  0  0  0  0  0
   26.1747  -17.8792  -16.6835 C   0  0  0  0  0  0  0  0  0  0  0  0
   25.1306  -17.2103  -16.8522 O   0  0  0  0  0  0  0  0  0  0  0  0
   26.1004  -21.2959  -13.9801 C   0  0  0  0  0  0  0  0  0  0  0  0
   25.1332  -21.8220  -14.6380 O   0  0  0  0  0  0  0  0  0  0  0  0
   27.4050  -17.3129  -16.9314 O   0  0  0  0  0  0  0  0  0  0  0  0
   25.4226  -21.2047   -7.7192 N   0  0  0  0  0  0  0  0  0  0  0  0
   25.7516  -20.1674   -8.6321 C   0  0  0  0  0  0  0  0  0  0  0  0
   26.2240  -19.0936   -8.1388 O   0  0  0  0  0  0  0  0  0  0  0  0
   25.5591  -20.3183  -10.0744 C   0  0  0  0  0  0  0  0  0  0  0  0
   24.8606  -21.5767  -10.5022 C   0  0  0  0  0  0  0  0  0  0  0  0
   24.6584  -21.5533  -12.0039 C   0  0  2  0  0  0  0  0  0  0  0  0
   25.9343  -21.1531  -12.5757 N   0  0  0  0  0  0  0  0  0  0  0  0
   23.6305  -20.5583  -12.3951 C   0  0  0  0  0  0  0  0  0  0  0  0
   23.9583  -19.3612  -12.6035 O   0  0  0  0  0  0  0  0  0  0  0  0
   22.3017  -20.9337  -12.5357 N   0  0  0  0  0  0  0  0  0  0  0  0
   21.1978  -20.0201  -12.9261 C   0  0  1  0  0  0  0  0  0  0  0  0
   20.8814  -20.4300  -14.3182 C   0  0  0  0  0  0  0  0  0  0  0  0
   19.7559  -19.8121  -15.0287 C   0  0  0  0  0  0  0  0  0  0  0  0
   19.4841  -20.4499  -16.3275 C   0  0  0  0  0  0  0  0  0  0  0  0
   20.3974  -21.1253  -16.8741 O   0  0  0  0  0  0  0  0  0  0  0  0
   20.1756  -20.0824  -11.9016 C   0  0  0  0  0  0  0  0  0  0  0  0
   19.2909  -19.1520  -11.8579 O   0  0  0  0  0  0  0  0  0  0  0  0
   18.2882  -20.3653  -17.0063 O   0  0  0  0  0  0  0  0  0  0  0  0
   20.0323  -21.0656  -10.9270 O   0  0  0  0  0  0  0  0  0  0  0  0
  2  1  1  6
  2  3  1  0
  2  7  1  0
  4  3  1  0
  4  5  1  0
  5  6  2  0
  7  8  2  0
  9  5  1  0
 10 11  1  0
 11 12  2  0
 13 11  1  0
 13 14  1  0
 15 14  1  1
 16  7  1  0
 16 15  1  0
 17 15  1  0
 17 18  2  0
 19 17  1  0
 20 25  1  0
 20 19  1  0
 20 21  1  6
 22 21  1  0
 23 27  1  0
 23 22  1  0
 24 23  2  0
 25 28  1  0
 26 25  2  0
M  END
$$$$
