EQE.pdb
     RDKit          3D

 28 27  0  0  1  0  0  0  0  0999 V2000
   20.0118  -13.8951  -15.2245 N   0  0  0  0  0  0  0  0  0  0  0  0
   21.2249  -14.1200  -16.0087 C   0  0  1  0  0  0  0  0  0  0  0  0
   21.0450  -15.4334  -16.6952 C   0  0  0  0  0  0  0  0  0  0  0  0
   20.0830  -16.3727  -16.0098 C   0  0  0  0  0  0  0  0  0  0  0  0
   20.1361  -17.6485  -16.7478 C   0  0  0  0  0  0  0  0  0  0  0  0
   19.4129  -18.6028  -16.3838 O   0  0  0  0  0  0  0  0  0  0  0  0
   21.4169  -12.9738  -16.9096 C   0  0  0  0  0  0  0  0  0  0  0  0
   22.0066  -13.1530  -18.0345 O   0  0  0  0  0  0  0  0  0  0  0  0
   20.9715  -17.7903  -17.8331 O   0  0  0  0  0  0  0  0  0  0  0  0
   19.7497  -13.7093  -20.1428 N   0  0  0  0  0  0  0  0  0  0  0  0
   21.0702  -13.1913  -20.0682 C   0  0  0  0  0  0  0  0  0  0  0  0
   22.0236  -14.0148  -20.2482 O   0  0  0  0  0  0  0  0  0  0  0  0
   21.3308  -11.7776  -19.7971 C   0  0  0  0  0  0  0  0  0  0  0  0
   20.3822  -11.1212  -18.8360 C   0  0  0  0  0  0  0  0  0  0  0  0
   21.1513  -10.6350  -17.6241 C   0  0  2  0  0  0  0  0  0  0  0  0
   20.9806  -11.6562  -16.6028 N   0  0  0  0  0  0  0  0  0  0  0  0
   20.6012   -9.3562  -17.1125 C   0  0  0  0  0  0  0  0  0  0  0  0
   19.4833   -9.3365  -16.5347 O   0  0  0  0  0  0  0  0  0  0  0  0
   21.3094   -8.1722  -17.2638 N   0  0  0  0  0  0  0  0  0  0  0  0
   20.8779   -6.8515  -16.7389 C   0  0  1  0  0  0  0  0  0  0  0  0
   21.6394   -6.7142  -15.4711 C   0  0  0  0  0  0  0  0  0  0  0  0
   21.5390   -5.4804  -14.6831 C   0  0  0  0  0  0  0  0  0  0  0  0
   22.4127   -5.4896  -13.4983 C   0  0  0  0  0  0  0  0  0  0  0  0
   22.5973   -4.4108  -12.8728 O   0  0  0  0  0  0  0  0  0  0  0  0
   21.0408   -5.8709  -17.7926 C   0  0  0  0  0  0  0  0  0  0  0  0
   21.8979   -6.1021  -18.7212 O   0  0  0  0  0  0  0  0  0  0  0  0
   23.0573   -6.6048  -13.0093 O   0  0  0  0  0  0  0  0  0  0  0  0
   20.3536   -4.6677  -17.9237 O   0  0  0  0  0  0  0  0  0  0  0  0
  2  1  1  6
  2  3  1  0
  2  7  1  0
  4  3  1  0
  4  5  1  0
  5  6  2  0
  7  8  2  0
  9  5  1  0
 10 11  1  0
 11 12  2  0
 13 11  1  0
 13 14  1  0
 15 14  1  6
 16  7  1  0
 16 15  1  0
 17 15  1  0
 17 18  2  0
 19 17  1  0
 20 25  1  0
 20 19  1  0
 20 21  1  1
 22 21  1  0
 23 27  1  0
 23 22  1  0
 24 23  2  0
 25 28  1  0
 26 25  2  0
M  END
$$$$
