EQE.pdb
     RDKit          3D

 28 27  0  0  1  0  0  0  0  0999 V2000
   25.0744  -23.4447  -18.2673 N   0  0  0  0  0  0  0  0  0  0  0  0
   25.0097  -22.4382  -17.2091 C   0  0  1  0  0  0  0  0  0  0  0  0
   26.0309  -21.4036  -17.5491 C   0  0  0  0  0  0  0  0  0  0  0  0
   27.4597  -21.8827  -17.4688 C   0  0  0  0  0  0  0  0  0  0  0  0
   27.7582  -22.0920  -16.0397 C   0  0  0  0  0  0  0  0  0  0  0  0
   27.0983  -21.4742  -15.1744 O   0  0  0  0  0  0  0  0  0  0  0  0
   23.6292  -21.9386  -17.1246 C   0  0  0  0  0  0  0  0  0  0  0  0
   22.8978  -21.9376  -18.1783 O   0  0  0  0  0  0  0  0  0  0  0  0
   28.7528  -22.9640  -15.6572 O   0  0  0  0  0  0  0  0  0  0  0  0
   19.2477  -24.4459  -14.9009 N   0  0  0  0  0  0  0  0  0  0  0  0
   20.2905  -23.9660  -14.0644 C   0  0  0  0  0  0  0  0  0  0  0  0
   20.4507  -24.5545  -12.9475 O   0  0  0  0  0  0  0  0  0  0  0  0
   21.1453  -22.8470  -14.4610 C   0  0  0  0  0  0  0  0  0  0  0  0
   20.8054  -22.2132  -15.7790 C   0  0  0  0  0  0  0  0  0  0  0  0
   21.6696  -20.9852  -15.9836 C   0  0  2  0  0  0  0  0  0  0  0  0
   23.0471  -21.4481  -15.9243 N   0  0  0  0  0  0  0  0  0  0  0  0
   21.4572  -19.9893  -14.9053 C   0  0  0  0  0  0  0  0  0  0  0  0
   22.1919  -19.9994  -13.8835 O   0  0  0  0  0  0  0  0  0  0  0  0
   20.4510  -19.0391  -15.0100 N   0  0  0  0  0  0  0  0  0  0  0  0
   20.1780  -17.9773  -14.0081 C   0  0  1  0  0  0  0  0  0  0  0  0
   19.8277  -16.7962  -14.8378 C   0  0  0  0  0  0  0  0  0  0  0  0
   19.3386  -15.5686  -14.1998 C   0  0  0  0  0  0  0  0  0  0  0  0
   18.8249  -14.5887  -15.1711 C   0  0  0  0  0  0  0  0  0  0  0  0
   19.1645  -14.6983  -16.3801 O   0  0  0  0  0  0  0  0  0  0  0  0
   19.2266  -18.4964  -13.0469 C   0  0  0  0  0  0  0  0  0  0  0  0
   19.1867  -17.9709  -11.8754 O   0  0  0  0  0  0  0  0  0  0  0  0
   17.9868  -13.5411  -14.8578 O   0  0  0  0  0  0  0  0  0  0  0  0
   18.3180  -19.5310  -13.2501 O   0  0  0  0  0  0  0  0  0  0  0  0
  2  1  1  6
  2  3  1  0
  2  7  1  0
  4  3  1  0
  4  5  1  0
  5  6  2  0
  7  8  2  0
  9  5  1  0
 10 11  1  0
 11 12  2  0
 13 11  1  0
 13 14  1  0
 15 14  1  1
 16  7  1  0
 16 15  1  0
 17 15  1  0
 17 18  2  0
 19 17  1  0
 20 25  1  0
 20 19  1  0
 20 21  1  6
 22 21  1  0
 23 27  1  0
 23 22  1  0
 24 23  2  0
 25 28  1  0
 26 25  2  0
M  END
$$$$
