EQE.pdb
     RDKit          3D

 28 27  0  0  1  0  0  0  0  0999 V2000
   18.7274  -11.5761  -17.4144 N   0  0  0  0  0  0  0  0  0  0  0  0
   18.2292  -10.6688  -16.3820 C   0  0  1  0  0  0  0  0  0  0  0  0
   17.6227  -11.5287  -15.3229 C   0  0  0  0  0  0  0  0  0  0  0  0
   16.5477  -12.4662  -15.8157 C   0  0  0  0  0  0  0  0  0  0  0  0
   16.0959  -13.2460  -14.6482 C   0  0  0  0  0  0  0  0  0  0  0  0
   16.7431  -14.2563  -14.2927 O   0  0  0  0  0  0  0  0  0  0  0  0
   19.3429   -9.8230  -15.9277 C   0  0  0  0  0  0  0  0  0  0  0  0
   19.1657   -9.0364  -14.9301 O   0  0  0  0  0  0  0  0  0  0  0  0
   14.9724  -12.8647  -13.9495 O   0  0  0  0  0  0  0  0  0  0  0  0
   25.6405   -9.9726  -17.3949 N   0  0  0  0  0  0  0  0  0  0  0  0
   25.4124   -8.8887  -16.5056 C   0  0  0  0  0  0  0  0  0  0  0  0
   26.4307   -8.2186  -16.1404 O   0  0  0  0  0  0  0  0  0  0  0  0
   24.0718   -8.5519  -16.0267 C   0  0  0  0  0  0  0  0  0  0  0  0
   22.9605   -9.3992  -16.5758 C   0  0  0  0  0  0  0  0  0  0  0  0
   21.6440   -8.9547  -15.9712 C   0  0  2  0  0  0  0  0  0  0  0  0
   20.6263   -9.8249  -16.5386 N   0  0  0  0  0  0  0  0  0  0  0  0
   21.3272   -7.5529  -16.3376 C   0  0  0  0  0  0  0  0  0  0  0  0
   21.1516   -7.2404  -17.5440 O   0  0  0  0  0  0  0  0  0  0  0  0
   21.2210   -6.5742  -15.3592 N   0  0  0  0  0  0  0  0  0  0  0  0
   20.8668   -5.1544  -15.6132 C   0  0  1  0  0  0  0  0  0  0  0  0
   19.4323   -5.0795  -15.2355 C   0  0  0  0  0  0  0  0  0  0  0  0
   18.7175   -3.8003  -15.3129 C   0  0  0  0  0  0  0  0  0  0  0  0
   17.2998   -3.9172  -14.9338 C   0  0  0  0  0  0  0  0  0  0  0  0
   16.6336   -2.8636  -14.7461 O   0  0  0  0  0  0  0  0  0  0  0  0
   21.8389   -4.3182  -14.9392 C   0  0  0  0  0  0  0  0  0  0  0  0
   22.2442   -4.6654  -13.7707 O   0  0  0  0  0  0  0  0  0  0  0  0
   16.6303   -5.1094  -14.7641 O   0  0  0  0  0  0  0  0  0  0  0  0
   22.4068   -3.1442  -15.4252 O   0  0  0  0  0  0  0  0  0  0  0  0
  2  1  1  6
  2  3  1  0
  2  7  1  0
  4  3  1  0
  4  5  1  0
  5  6  2  0
  7  8  2  0
  9  5  1  0
 10 11  1  0
 11 12  2  0
 13 11  1  0
 13 14  1  0
 15 14  1  6
 16  7  1  0
 16 15  1  0
 17 15  1  0
 17 18  2  0
 19 17  1  0
 20 25  1  0
 20 19  1  0
 20 21  1  1
 22 21  1  0
 23 27  1  0
 23 22  1  0
 24 23  2  0
 25 28  1  0
 26 25  2  0
M  END
$$$$
