EQE.pdb
     RDKit          3D

 28 27  0  0  1  0  0  0  0  0999 V2000
   27.9895  -21.8037  -15.9431 N   0  0  0  0  0  0  0  0  0  0  0  0
   27.5605  -20.7306  -15.0477 C   0  0  1  0  0  0  0  0  0  0  0  0
   27.4531  -19.5002  -15.8864 C   0  0  0  0  0  0  0  0  0  0  0  0
   26.4401  -19.5880  -17.0017 C   0  0  0  0  0  0  0  0  0  0  0  0
   26.5051  -18.3108  -17.7364 C   0  0  0  0  0  0  0  0  0  0  0  0
   25.5591  -17.9814  -18.4865 O   0  0  0  0  0  0  0  0  0  0  0  0
   26.3102  -21.1420  -14.3923 C   0  0  0  0  0  0  0  0  0  0  0  0
   25.5691  -22.0250  -14.9548 O   0  0  0  0  0  0  0  0  0  0  0  0
   27.5959  -17.4824  -17.5966 O   0  0  0  0  0  0  0  0  0  0  0  0
   25.2041  -20.4619   -8.3261 N   0  0  0  0  0  0  0  0  0  0  0  0
   26.2589  -20.9074   -9.1667 C   0  0  0  0  0  0  0  0  0  0  0  0
   27.3904  -21.1021   -8.6177 O   0  0  0  0  0  0  0  0  0  0  0  0
   26.0621  -21.1341  -10.5984 C   0  0  0  0  0  0  0  0  0  0  0  0
   24.6792  -20.8518  -11.1105 C   0  0  0  0  0  0  0  0  0  0  0  0
   24.6271  -21.1342  -12.5985 C   0  0  2  0  0  0  0  0  0  0  0  0
   25.8661  -20.6104  -13.1511 N   0  0  0  0  0  0  0  0  0  0  0  0
   23.4880  -20.4349  -13.2414 C   0  0  0  0  0  0  0  0  0  0  0  0
   23.5873  -19.2189  -13.5501 O   0  0  0  0  0  0  0  0  0  0  0  0
   22.3053  -21.1101  -13.5092 N   0  0  0  0  0  0  0  0  0  0  0  0
   21.0931  -20.4951  -14.1075 C   0  0  1  0  0  0  0  0  0  0  0  0
   21.1131  -20.9788  -15.5117 C   0  0  0  0  0  0  0  0  0  0  0  0
   20.0525  -20.5772  -16.4429 C   0  0  0  0  0  0  0  0  0  0  0  0
   20.2285  -21.1510  -17.7871 C   0  0  0  0  0  0  0  0  0  0  0  0
   19.2037  -21.4481  -18.4584 O   0  0  0  0  0  0  0  0  0  0  0  0
   19.9636  -20.7972  -13.2523 C   0  0  0  0  0  0  0  0  0  0  0  0
   19.0208  -19.9308  -13.1492 O   0  0  0  0  0  0  0  0  0  0  0  0
   21.4475  -21.3942  -18.3813 O   0  0  0  0  0  0  0  0  0  0  0  0
   19.7714  -21.9557  -12.5052 O   0  0  0  0  0  0  0  0  0  0  0  0
  2  1  1  6
  2  3  1  0
  2  7  1  0
  4  3  1  0
  4  5  1  0
  5  6  2  0
  7  8  2  0
  9  5  1  0
 10 11  1  0
 11 12  2  0
 13 11  1  0
 13 14  1  0
 15 14  1  1
 16  7  1  0
 16 15  1  0
 17 15  1  0
 17 18  2  0
 19 17  1  0
 20 25  1  0
 20 19  1  0
 20 21  1  6
 22 21  1  0
 23 27  1  0
 23 22  1  0
 24 23  2  0
 25 28  1  0
 26 25  2  0
M  END
$$$$
