FNC.pdb
     RDKit          3D

 26 26  0  0  1  0  0  0  0  0999 V2000
   27.3472  -12.1519  -19.3422 N   0  0  0  0  0  0  0  0  0  0  0  0
   26.9924  -12.4164  -17.9626 C   0  0  1  0  0  0  0  0  0  0  0  0
   26.8587  -11.0666  -17.2514 C   0  0  0  0  0  0  0  0  0  0  0  0
   28.1464  -10.3545  -17.2179 C   0  0  0  0  0  0  0  0  0  0  0  0
   28.2108   -9.0312  -17.6017 C   0  0  0  0  0  0  0  0  0  0  0  0
   29.4100   -8.3498  -17.5761 C   0  0  0  0  0  0  0  0  0  0  0  0
   30.5484   -9.0181  -17.1581 C   0  0  0  0  0  0  0  0  0  0  0  0
   30.5250  -10.3419  -16.7663 C   0  0  0  0  0  0  0  0  0  0  0  0
   29.3023  -10.9858  -16.8076 C   0  0  0  0  0  0  0  0  0  0  0  0
   25.6300  -13.0184  -17.9613 C   0  0  0  0  0  0  0  0  0  0  0  0
   24.7976  -12.8460  -18.8607 O   0  0  0  0  0  0  0  0  0  0  0  0
   23.0940  -17.5564  -14.6772 N   0  0  0  0  0  0  0  0  0  0  0  0
   22.9721  -16.3073  -15.3670 C   0  0  0  0  0  0  0  0  0  0  0  0
   21.8198  -15.9879  -15.7359 O   0  0  0  0  0  0  0  0  0  0  0  0
   24.1937  -15.5288  -15.5742 C   0  0  0  0  0  0  0  0  0  0  0  0
   24.0309  -14.5349  -16.7173 C   0  0  2  0  0  0  0  0  0  0  0  0
   25.2927  -13.8337  -16.8507 N   0  0  0  0  0  0  0  0  0  0  0  0
   23.0202  -13.4841  -16.3368 C   0  0  0  0  0  0  0  0  0  0  0  0
   23.3013  -12.4798  -15.6461 O   0  0  0  0  0  0  0  0  0  0  0  0
   21.6688  -13.6144  -16.7710 N   0  0  0  0  0  0  0  0  0  0  0  0
   20.6585  -12.6284  -16.5664 C   0  0  1  0  0  0  0  0  0  0  0  0
   20.8706  -11.3631  -17.3605 C   0  0  0  0  0  0  0  0  0  0  0  0
   19.4584  -10.2466  -17.1340 S   0  0  0  0  0  0  0  0  0  0  0  0
   19.3230  -13.1935  -16.8701 C   0  0  0  0  0  0  0  0  0  0  0  0
   18.1962  -12.4351  -16.6066 O   0  0  0  0  0  0  0  0  0  0  0  0
   19.1737  -14.3345  -17.3576 O   0  0  0  0  0  0  0  0  0  0  0  0
  2  1  1  6
  2 10  1  0
  2  3  1  0
  3  4  1  0
  4  5  2  0
  6  5  1  0
  7  6  2  0
  8  9  2  0
  8  7  1  0
  9  4  1  0
 10 17  1  0
 11 10  2  0
 13 12  1  0
 14 13  2  0
 15 13  1  0
 16 15  1  1
 16 18  1  0
 17 16  1  0
 18 19  2  0
 18 20  1  0
 20 21  1  0
 21 24  1  0
 21 22  1  6
 23 22  1  0
 24 26  2  0
 24 25  1  0
M  END
$$$$
