FNC.pdb
     RDKit          3D

 26 26  0  0  1  0  0  0  0  0999 V2000
   26.9944  -10.6928  -19.0950 N   0  0  0  0  0  0  0  0  0  0  0  0
   26.0881  -10.3315  -18.0238 C   0  0  1  0  0  0  0  0  0  0  0  0
   26.9302  -10.0777  -16.7700 C   0  0  0  0  0  0  0  0  0  0  0  0
   27.5296  -11.3262  -16.2715 C   0  0  0  0  0  0  0  0  0  0  0  0
   26.7837  -12.1825  -15.4885 C   0  0  0  0  0  0  0  0  0  0  0  0
   27.3309  -13.3564  -15.0135 C   0  0  0  0  0  0  0  0  0  0  0  0
   28.6426  -13.6600  -15.3368 C   0  0  0  0  0  0  0  0  0  0  0  0
   29.4215  -12.8291  -16.1176 C   0  0  0  0  0  0  0  0  0  0  0  0
   28.8330  -11.6635  -16.5720 C   0  0  0  0  0  0  0  0  0  0  0  0
   25.4774   -9.0208  -18.3810 C   0  0  0  0  0  0  0  0  0  0  0  0
   26.1006   -8.0875  -18.9027 O   0  0  0  0  0  0  0  0  0  0  0  0
   22.8744   -9.0315  -21.8212 N   0  0  0  0  0  0  0  0  0  0  0  0
   23.1311   -7.9893  -20.8731 C   0  0  0  0  0  0  0  0  0  0  0  0
   23.9478   -7.1088  -21.2247 O   0  0  0  0  0  0  0  0  0  0  0  0
   22.4218   -8.0504  -19.5947 C   0  0  0  0  0  0  0  0  0  0  0  0
   23.3354   -7.6743  -18.4349 C   0  0  2  0  0  0  0  0  0  0  0  0
   24.0975   -8.8597  -18.0953 N   0  0  0  0  0  0  0  0  0  0  0  0
   22.5064   -7.3609  -17.2163 C   0  0  0  0  0  0  0  0  0  0  0  0
   22.0254   -8.2409  -16.4688 O   0  0  0  0  0  0  0  0  0  0  0  0
   22.2407   -6.0032  -16.8733 N   0  0  0  0  0  0  0  0  0  0  0  0
   21.5556   -5.5901  -15.6923 C   0  0  1  0  0  0  0  0  0  0  0  0
   22.2896   -5.9163  -14.4151 C   0  0  0  0  0  0  0  0  0  0  0  0
   21.9985   -7.6483  -13.9596 S   0  0  0  0  0  0  0  0  0  0  0  0
   21.2681   -4.1378  -15.7490 C   0  0  0  0  0  0  0  0  0  0  0  0
   20.5282   -3.5586  -14.7334 O   0  0  0  0  0  0  0  0  0  0  0  0
   21.6700   -3.4114  -16.6832 O   0  0  0  0  0  0  0  0  0  0  0  0
  2  1  1  6
  2 10  1  0
  2  3  1  0
  3  4  1  0
  4  5  2  0
  6  5  1  0
  7  6  2  0
  8  9  2  0
  8  7  1  0
  9  4  1  0
 10 17  1  0
 11 10  2  0
 13 12  1  0
 14 13  2  0
 15 13  1  0
 16 15  1  6
 16 18  1  0
 17 16  1  0
 18 19  2  0
 18 20  1  0
 20 21  1  0
 21 24  1  0
 21 22  1  1
 23 22  1  0
 24 26  2  0
 24 25  1  0
M  END
$$$$
