FNC.pdb
     RDKit          3D

 26 26  0  0  1  0  0  0  0  0999 V2000
   19.0868  -24.9603   -9.7107 N   0  0  0  0  0  0  0  0  0  0  0  0
   18.1917  -25.9169   -9.0917 C   0  0  1  0  0  0  0  0  0  0  0  0
   19.0189  -27.1498   -8.7158 C   0  0  0  0  0  0  0  0  0  0  0  0
   19.4731  -27.8704   -9.9163 C   0  0  0  0  0  0  0  0  0  0  0  0
   20.7921  -27.7866  -10.3109 C   0  0  0  0  0  0  0  0  0  0  0  0
   21.2334  -28.4559  -11.4335 C   0  0  0  0  0  0  0  0  0  0  0  0
   20.3284  -29.2136  -12.1576 C   0  0  0  0  0  0  0  0  0  0  0  0
   19.0005  -29.3224  -11.7952 C   0  0  0  0  0  0  0  0  0  0  0  0
   18.6017  -28.6352  -10.6636 C   0  0  0  0  0  0  0  0  0  0  0  0
   17.7286  -25.3251   -7.8058 C   0  0  0  0  0  0  0  0  0  0  0  0
   18.4459  -24.6472   -7.0591 O   0  0  0  0  0  0  0  0  0  0  0  0
   15.0451  -22.5362   -6.6348 N   0  0  0  0  0  0  0  0  0  0  0  0
   13.9650  -23.4753   -6.6830 C   0  0  0  0  0  0  0  0  0  0  0  0
   12.8250  -22.9994   -6.8821 O   0  0  0  0  0  0  0  0  0  0  0  0
   14.2917  -24.8895   -6.4969 C   0  0  0  0  0  0  0  0  0  0  0  0
   15.7761  -25.0834   -6.2140 C   0  0  2  0  0  0  0  0  0  0  0  0
   16.3802  -25.5686   -7.4392 N   0  0  0  0  0  0  0  0  0  0  0  0
   15.9609  -26.1869   -5.2048 C   0  0  0  0  0  0  0  0  0  0  0  0
   15.6729  -27.3823   -5.4346 O   0  0  0  0  0  0  0  0  0  0  0  0
   16.4883  -25.8838   -3.9158 N   0  0  0  0  0  0  0  0  0  0  0  0
   16.8431  -26.8621   -2.9402 C   0  0  1  0  0  0  0  0  0  0  0  0
   18.2893  -26.8032   -2.5145 C   0  0  0  0  0  0  0  0  0  0  0  0
   19.3473  -26.5050   -3.9581 S   0  0  0  0  0  0  0  0  0  0  0  0
   15.9652  -26.7425   -1.7527 C   0  0  0  0  0  0  0  0  0  0  0  0
   16.0584  -27.6905   -0.7493 O   0  0  0  0  0  0  0  0  0  0  0  0
   15.1394  -25.8137   -1.6212 O   0  0  0  0  0  0  0  0  0  0  0  0
  2  1  1  1
  2 10  1  0
  2  3  1  0
  3  4  1  0
  4  5  2  0
  6  5  1  0
  7  6  2  0
  8  9  2  0
  8  7  1  0
  9  4  1  0
 10 17  1  0
 11 10  2  0
 13 12  1  0
 14 13  2  0
 15 13  1  0
 16 15  1  6
 16 18  1  0
 17 16  1  0
 18 19  2  0
 18 20  1  0
 20 21  1  0
 21 24  1  0
 21 22  1  1
 23 22  1  0
 24 26  2  0
 24 25  1  0
M  END
$$$$
