FNC.pdb
     RDKit          3D

 26 26  0  0  1  0  0  0  0  0999 V2000
   16.0477  -15.4071    6.4741 N   0  0  0  0  0  0  0  0  0  0  0  0
   17.2405  -16.1834    6.2025 C   0  0  1  0  0  0  0  0  0  0  0  0
   18.4498  -15.2754    6.4449 C   0  0  0  0  0  0  0  0  0  0  0  0
   18.5852  -14.2747    5.3739 C   0  0  0  0  0  0  0  0  0  0  0  0
   18.0219  -14.5104    4.1371 C   0  0  0  0  0  0  0  0  0  0  0  0
   18.1400  -13.5826    3.1231 C   0  0  0  0  0  0  0  0  0  0  0  0
   18.8342  -12.4100    3.3690 C   0  0  0  0  0  0  0  0  0  0  0  0
   19.4120  -12.1373    4.5931 C   0  0  0  0  0  0  0  0  0  0  0  0
   19.2691  -13.0946    5.5803 C   0  0  0  0  0  0  0  0  0  0  0  0
   17.3180  -17.2551    7.2340 C   0  0  0  0  0  0  0  0  0  0  0  0
   17.0091  -17.0947    8.4216 O   0  0  0  0  0  0  0  0  0  0  0  0
   19.2950  -20.2545    5.4272 N   0  0  0  0  0  0  0  0  0  0  0  0
   18.2541  -21.1781    5.7657 C   0  0  0  0  0  0  0  0  0  0  0  0
   18.1160  -22.1613    5.0040 O   0  0  0  0  0  0  0  0  0  0  0  0
   17.4573  -20.8891    6.9585 C   0  0  0  0  0  0  0  0  0  0  0  0
   17.9767  -19.6562    7.6873 C   0  0  2  0  0  0  0  0  0  0  0  0
   17.7765  -18.5260    6.8019 N   0  0  0  0  0  0  0  0  0  0  0  0
   19.4677  -19.7671    7.8741 C   0  0  0  0  0  0  0  0  0  0  0  0
   20.2879  -19.6407    6.9381 O   0  0  0  0  0  0  0  0  0  0  0  0
   19.9993  -20.0285    9.1706 N   0  0  0  0  0  0  0  0  0  0  0  0
   21.3920  -20.0782    9.4751 C   0  0  1  0  0  0  0  0  0  0  0  0
   21.8795  -18.9098   10.2957 C   0  0  0  0  0  0  0  0  0  0  0  0
   20.7813  -18.6509   11.7167 S   0  0  0  0  0  0  0  0  0  0  0  0
   21.7200  -21.3476   10.1650 C   0  0  0  0  0  0  0  0  0  0  0  0
   20.6899  -22.1689   10.5876 O   0  0  0  0  0  0  0  0  0  0  0  0
   22.8971  -21.7075   10.3815 O   0  0  0  0  0  0  0  0  0  0  0  0
  2  1  1  1
  2 10  1  0
  2  3  1  0
  3  4  1  0
  4  5  2  0
  6  5  1  0
  7  6  2  0
  8  9  2  0
  8  7  1  0
  9  4  1  0
 10 17  1  0
 11 10  2  0
 13 12  1  0
 14 13  2  0
 15 13  1  0
 16 15  1  6
 16 18  1  0
 17 16  1  0
 18 19  2  0
 18 20  1  0
 20 21  1  0
 21 24  1  0
 21 22  1  1
 23 22  1  0
 24 26  2  0
 24 25  1  0
M  END
$$$$
