FNC.pdb
     RDKit          3D

 26 26  0  0  1  0  0  0  0  0999 V2000
   29.0982  -21.8024  -13.6637 N   0  0  0  0  0  0  0  0  0  0  0  0
   28.0944  -21.5017  -12.6631 C   0  0  1  0  0  0  0  0  0  0  0  0
   28.7041  -20.4954  -11.6827 C   0  0  0  0  0  0  0  0  0  0  0  0
   29.7632  -21.1187  -10.8725 C   0  0  0  0  0  0  0  0  0  0  0  0
   30.9977  -21.3734  -11.4326 C   0  0  0  0  0  0  0  0  0  0  0  0
   32.0006  -21.9569  -10.6866 C   0  0  0  0  0  0  0  0  0  0  0  0
   31.7461  -22.2827   -9.3651 C   0  0  0  0  0  0  0  0  0  0  0  0
   30.5240  -22.0438   -8.7684 C   0  0  0  0  0  0  0  0  0  0  0  0
   29.5480  -21.4575   -9.5527 C   0  0  0  0  0  0  0  0  0  0  0  0
   26.9832  -20.7855  -13.3492 C   0  0  0  0  0  0  0  0  0  0  0  0
   27.1421  -20.0250  -14.3126 O   0  0  0  0  0  0  0  0  0  0  0  0
   23.0938  -19.6299  -15.6297 N   0  0  0  0  0  0  0  0  0  0  0  0
   23.7374  -20.8736  -15.9297 C   0  0  0  0  0  0  0  0  0  0  0  0
   23.6071  -21.2971  -17.1001 O   0  0  0  0  0  0  0  0  0  0  0  0
   24.4797  -21.5266  -14.8511 C   0  0  0  0  0  0  0  0  0  0  0  0
   24.4650  -20.6868  -13.5800 C   0  0  2  0  0  0  0  0  0  0  0  0
   25.6748  -21.0064  -12.8481 N   0  0  0  0  0  0  0  0  0  0  0  0
   23.3268  -21.1248  -12.6950 C   0  0  0  0  0  0  0  0  0  0  0  0
   23.1967  -22.2952  -12.2732 O   0  0  0  0  0  0  0  0  0  0  0  0
   22.3339  -20.1805  -12.3026 N   0  0  0  0  0  0  0  0  0  0  0  0
   21.2380  -20.4760  -11.4386 C   0  0  1  0  0  0  0  0  0  0  0  0
   20.8508  -19.3344  -10.5313 C   0  0  0  0  0  0  0  0  0  0  0  0
   20.4312  -17.8727  -11.5211 S   0  0  0  0  0  0  0  0  0  0  0  0
   20.0631  -20.9074  -12.2315 C   0  0  0  0  0  0  0  0  0  0  0  0
   19.0711  -21.6487  -11.6147 O   0  0  0  0  0  0  0  0  0  0  0  0
   19.9325  -20.6264  -13.4422 O   0  0  0  0  0  0  0  0  0  0  0  0
  2  1  1  6
  2 10  1  0
  2  3  1  0
  3  4  1  0
  4  5  2  0
  6  5  1  0
  7  6  2  0
  8  9  2  0
  8  7  1  0
  9  4  1  0
 10 17  1  0
 11 10  2  0
 13 12  1  0
 14 13  2  0
 15 13  1  0
 16 15  1  6
 16 18  1  0
 17 16  1  0
 18 19  2  0
 18 20  1  0
 20 21  1  0
 21 24  1  0
 21 22  1  6
 23 22  1  0
 24 26  2  0
 24 25  1  0
M  END
$$$$
