FNC.pdb
     RDKit          3D

 26 26  0  0  1  0  0  0  0  0999 V2000
   27.2033  -22.5474  -10.3306 N   0  0  0  0  0  0  0  0  0  0  0  0
   26.4848  -21.3099  -10.5576 C   0  0  1  0  0  0  0  0  0  0  0  0
   27.4327  -20.1550  -10.2208 C   0  0  0  0  0  0  0  0  0  0  0  0
   27.6349  -20.0411   -8.7673 C   0  0  0  0  0  0  0  0  0  0  0  0
   28.8627  -20.3460   -8.2176 C   0  0  0  0  0  0  0  0  0  0  0  0
   29.0682  -20.2444   -6.8574 C   0  0  0  0  0  0  0  0  0  0  0  0
   28.0198  -19.8306   -6.0531 C   0  0  0  0  0  0  0  0  0  0  0  0
   26.7765  -19.5164   -6.5650 C   0  0  0  0  0  0  0  0  0  0  0  0
   26.6150  -19.6324   -7.9333 C   0  0  0  0  0  0  0  0  0  0  0  0
   26.2201  -21.2112  -12.0200 C   0  0  0  0  0  0  0  0  0  0  0  0
   27.0370  -21.5303  -12.8931 O   0  0  0  0  0  0  0  0  0  0  0  0
   24.2683  -23.3400  -14.3853 N   0  0  0  0  0  0  0  0  0  0  0  0
   23.0228  -22.7247  -14.0374 C   0  0  0  0  0  0  0  0  0  0  0  0
   22.0186  -23.4714  -14.0298 O   0  0  0  0  0  0  0  0  0  0  0  0
   23.0400  -21.2950  -13.7265 C   0  0  0  0  0  0  0  0  0  0  0  0
   24.4561  -20.7347  -13.7710 C   0  0  2  0  0  0  0  0  0  0  0  0
   24.9475  -20.7187  -12.4073 N   0  0  0  0  0  0  0  0  0  0  0  0
   24.4184  -19.2927  -14.2065 C   0  0  0  0  0  0  0  0  0  0  0  0
   23.8168  -18.3993  -13.5704 O   0  0  0  0  0  0  0  0  0  0  0  0
   25.0926  -18.8974  -15.3984 N   0  0  0  0  0  0  0  0  0  0  0  0
   25.1353  -17.5604  -15.8940 C   0  0  1  0  0  0  0  0  0  0  0  0
   26.4390  -17.1981  -16.5614 C   0  0  0  0  0  0  0  0  0  0  0  0
   27.8117  -17.4123  -15.3944 S   0  0  0  0  0  0  0  0  0  0  0  0
   24.0105  -17.3251  -16.8291 C   0  0  0  0  0  0  0  0  0  0  0  0
   23.2648  -16.1663  -16.7058 O   0  0  0  0  0  0  0  0  0  0  0  0
   23.7072  -18.1368  -17.7297 O   0  0  0  0  0  0  0  0  0  0  0  0
  2  1  1  6
  2 10  1  0
  2  3  1  0
  3  4  1  0
  4  5  2  0
  6  5  1  0
  7  6  2  0
  8  9  2  0
  8  7  1  0
  9  4  1  0
 10 17  1  0
 11 10  2  0
 13 12  1  0
 14 13  2  0
 15 13  1  0
 16 15  1  1
 16 18  1  0
 17 16  1  0
 18 19  2  0
 18 20  1  0
 20 21  1  0
 21 24  1  0
 21 22  1  6
 23 22  1  0
 24 26  2  0
 24 25  1  0
M  END
$$$$
