FNC.pdb
     RDKit          3D

 26 26  0  0  1  0  0  0  0  0999 V2000
   19.3107  -10.8352    8.0375 N   0  0  0  0  0  0  0  0  0  0  0  0
   19.1419  -11.5291    6.7768 C   0  0  1  0  0  0  0  0  0  0  0  0
   20.5368  -11.8779    6.2493 C   0  0  0  0  0  0  0  0  0  0  0  0
   21.3605  -12.5007    7.2982 C   0  0  0  0  0  0  0  0  0  0  0  0
   22.0519  -11.7086    8.1909 C   0  0  0  0  0  0  0  0  0  0  0  0
   22.8281  -12.2770    9.1795 C   0  0  0  0  0  0  0  0  0  0  0  0
   22.9009  -13.6574    9.2598 C   0  0  0  0  0  0  0  0  0  0  0  0
   22.2240  -14.4842    8.3854 C   0  0  0  0  0  0  0  0  0  0  0  0
   21.4582  -13.8722    7.4105 C   0  0  0  0  0  0  0  0  0  0  0  0
   18.4767  -12.8290    7.0703 C   0  0  0  0  0  0  0  0  0  0  0  0
   18.2925  -13.2687    8.2124 O   0  0  0  0  0  0  0  0  0  0  0  0
   15.1033  -13.2771    6.3302 N   0  0  0  0  0  0  0  0  0  0  0  0
   15.1439  -14.0378    5.1175 C   0  0  0  0  0  0  0  0  0  0  0  0
   14.1533  -13.9281    4.3609 O   0  0  0  0  0  0  0  0  0  0  0  0
   16.3278  -14.8639    4.8785 C   0  0  0  0  0  0  0  0  0  0  0  0
   17.2828  -14.8211    6.0648 C   0  0  2  0  0  0  0  0  0  0  0  0
   18.0377  -13.5883    5.9555 N   0  0  0  0  0  0  0  0  0  0  0  0
   18.2954  -15.9301    5.9420 C   0  0  0  0  0  0  0  0  0  0  0  0
   19.1677  -15.9668    5.0462 O   0  0  0  0  0  0  0  0  0  0  0  0
   18.2831  -17.0043    6.8788 N   0  0  0  0  0  0  0  0  0  0  0  0
   19.2815  -18.0205    6.9522 C   0  0  1  0  0  0  0  0  0  0  0  0
   20.4859  -17.6346    7.7750 C   0  0  0  0  0  0  0  0  0  0  0  0
   21.8759  -18.7358    7.3908 S   0  0  0  0  0  0  0  0  0  0  0  0
   18.6961  -19.2760    7.4777 C   0  0  0  0  0  0  0  0  0  0  0  0
   19.4607  -20.4290    7.4704 O   0  0  0  0  0  0  0  0  0  0  0  0
   17.5324  -19.3346    7.9296 O   0  0  0  0  0  0  0  0  0  0  0  0
  2  1  1  1
  2 10  1  0
  2  3  1  0
  3  4  1  0
  4  5  2  0
  6  5  1  0
  7  6  2  0
  8  9  2  0
  8  7  1  0
  9  4  1  0
 10 17  1  0
 11 10  2  0
 13 12  1  0
 14 13  2  0
 15 13  1  0
 16 15  1  6
 16 18  1  0
 17 16  1  0
 18 19  2  0
 18 20  1  0
 20 21  1  0
 21 24  1  0
 21 22  1  1
 23 22  1  0
 24 26  2  0
 24 25  1  0
M  END
$$$$
