FNC.pdb
     RDKit          3D

 26 26  0  0  1  0  0  0  0  0999 V2000
   21.6757  -11.6979  -16.3277 N   0  0  0  0  0  0  0  0  0  0  0  0
   20.8751  -10.5899  -16.8079 C   0  0  1  0  0  0  0  0  0  0  0  0
   19.4116  -11.0414  -16.8086 C   0  0  0  0  0  0  0  0  0  0  0  0
   19.1632  -12.0347  -17.8660 C   0  0  0  0  0  0  0  0  0  0  0  0
   19.1125  -11.6366  -19.1857 C   0  0  0  0  0  0  0  0  0  0  0  0
   18.8806  -12.5553  -20.1882 C   0  0  0  0  0  0  0  0  0  0  0  0
   18.6995  -13.8848  -19.8463 C   0  0  0  0  0  0  0  0  0  0  0  0
   18.7429  -14.3226  -18.5375 C   0  0  0  0  0  0  0  0  0  0  0  0
   18.9779  -13.3682  -17.5652 C   0  0  0  0  0  0  0  0  0  0  0  0
   20.9690   -9.5018  -15.7952 C   0  0  0  0  0  0  0  0  0  0  0  0
   21.3247   -9.6776  -14.6229 O   0  0  0  0  0  0  0  0  0  0  0  0
   21.0332   -4.6882  -14.0830 N   0  0  0  0  0  0  0  0  0  0  0  0
   22.1458   -5.0984  -14.8860 C   0  0  0  0  0  0  0  0  0  0  0  0
   23.1759   -4.3921  -14.8082 O   0  0  0  0  0  0  0  0  0  0  0  0
   21.9763   -6.2927  -15.7143 C   0  0  0  0  0  0  0  0  0  0  0  0
   20.6820   -7.0223  -15.3772 C   0  0  2  0  0  0  0  0  0  0  0  0
   20.6243   -8.1954  -16.2270 N   0  0  0  0  0  0  0  0  0  0  0  0
   19.5022   -6.1737  -15.7751 C   0  0  0  0  0  0  0  0  0  0  0  0
   19.2398   -5.8761  -16.9613 O   0  0  0  0  0  0  0  0  0  0  0  0
   18.6237   -5.6710  -14.7714 N   0  0  0  0  0  0  0  0  0  0  0  0
   17.5153   -4.8107  -15.0286 C   0  0  1  0  0  0  0  0  0  0  0  0
   16.2529   -5.2086  -14.3044 C   0  0  0  0  0  0  0  0  0  0  0  0
   14.9803   -3.9360  -14.5348 S   0  0  0  0  0  0  0  0  0  0  0  0
   17.8657   -3.4106  -14.6939 C   0  0  0  0  0  0  0  0  0  0  0  0
   17.6053   -2.4134  -15.6169 O   0  0  0  0  0  0  0  0  0  0  0  0
   18.3900   -3.0935  -13.6048 O   0  0  0  0  0  0  0  0  0  0  0  0
  2  1  1  1
  2 10  1  0
  2  3  1  0
  3  4  1  0
  4  5  2  0
  6  5  1  0
  7  6  2  0
  8  9  2  0
  8  7  1  0
  9  4  1  0
 10 17  1  0
 11 10  2  0
 13 12  1  0
 14 13  2  0
 15 13  1  0
 16 15  1  6
 16 18  1  0
 17 16  1  0
 18 19  2  0
 18 20  1  0
 20 21  1  0
 21 24  1  0
 21 22  1  1
 23 22  1  0
 24 26  2  0
 24 25  1  0
M  END
$$$$
