FNC.pdb
     RDKit          3D

 26 26  0  0  1  0  0  0  0  0999 V2000
   25.1628  -11.3083  -18.5009 N   0  0  0  0  0  0  0  0  0  0  0  0
   24.6520  -10.9949  -17.1818 C   0  0  1  0  0  0  0  0  0  0  0  0
   25.7882  -10.3446  -16.3871 C   0  0  0  0  0  0  0  0  0  0  0  0
   26.9045  -11.2839  -16.1916 C   0  0  0  0  0  0  0  0  0  0  0  0
   28.1044  -11.0703  -16.8375 C   0  0  0  0  0  0  0  0  0  0  0  0
   29.1600  -11.9414  -16.6647 C   0  0  0  0  0  0  0  0  0  0  0  0
   28.9937  -13.0345  -15.8312 C   0  0  0  0  0  0  0  0  0  0  0  0
   27.8087  -13.2827  -15.1673 C   0  0  0  0  0  0  0  0  0  0  0  0
   26.7775  -12.3842  -15.3693 C   0  0  0  0  0  0  0  0  0  0  0  0
   23.6110   -9.9425  -17.3466 C   0  0  0  0  0  0  0  0  0  0  0  0
   23.4715   -9.2630  -18.3715 O   0  0  0  0  0  0  0  0  0  0  0  0
   19.3889   -7.3168  -16.1814 N   0  0  0  0  0  0  0  0  0  0  0  0
   19.2066   -8.6999  -15.8578 C   0  0  0  0  0  0  0  0  0  0  0  0
   18.0285   -9.0721  -15.6587 O   0  0  0  0  0  0  0  0  0  0  0  0
   20.4024   -9.5405  -15.7908 C   0  0  0  0  0  0  0  0  0  0  0  0
   21.6385   -8.7853  -16.2626 C   0  0  2  0  0  0  0  0  0  0  0  0
   22.7407   -9.7269  -16.2475 N   0  0  0  0  0  0  0  0  0  0  0  0
   21.9985   -7.7220  -15.2576 C   0  0  0  0  0  0  0  0  0  0  0  0
   22.2787   -7.9721  -14.0644 O   0  0  0  0  0  0  0  0  0  0  0  0
   22.0296   -6.3542  -15.6574 N   0  0  0  0  0  0  0  0  0  0  0  0
   22.4752   -5.2825  -14.8282 C   0  0  1  0  0  0  0  0  0  0  0  0
   23.4690   -4.3654  -15.4974 C   0  0  0  0  0  0  0  0  0  0  0  0
   24.9338   -5.3070  -16.0070 S   0  0  0  0  0  0  0  0  0  0  0  0
   21.3174   -4.4974  -14.3402 C   0  0  0  0  0  0  0  0  0  0  0  0
   21.5041   -3.5941  -13.3090 O   0  0  0  0  0  0  0  0  0  0  0  0
   20.1726   -4.6199  -14.8262 O   0  0  0  0  0  0  0  0  0  0  0  0
  2  1  1  6
  2 10  1  0
  2  3  1  0
  3  4  1  0
  4  5  2  0
  6  5  1  0
  7  6  2  0
  8  9  2  0
  8  7  1  0
  9  4  1  0
 10 17  1  0
 11 10  2  0
 13 12  1  0
 14 13  2  0
 15 13  1  0
 16 15  1  1
 16 18  1  0
 17 16  1  0
 18 19  2  0
 18 20  1  0
 20 21  1  0
 21 24  1  0
 21 22  1  6
 23 22  1  0
 24 26  2  0
 24 25  1  0
M  END
$$$$
