FNC.pdb
     RDKit          3D

 26 26  0  0  1  0  0  0  0  0999 V2000
   26.3265  -22.5979  -12.3613 N   0  0  0  0  0  0  0  0  0  0  0  0
   25.6041  -21.6141  -11.5806 C   0  0  1  0  0  0  0  0  0  0  0  0
   26.4690  -20.3521  -11.5101 C   0  0  0  0  0  0  0  0  0  0  0  0
   27.5929  -20.5304  -10.5764 C   0  0  0  0  0  0  0  0  0  0  0  0
   28.8441  -20.8521  -11.0595 C   0  0  0  0  0  0  0  0  0  0  0  0
   29.9075  -21.0226  -10.1976 C   0  0  0  0  0  0  0  0  0  0  0  0
   29.6966  -20.8650   -8.8382 C   0  0  0  0  0  0  0  0  0  0  0  0
   28.4596  -20.5434   -8.3157 C   0  0  0  0  0  0  0  0  0  0  0  0
   27.4224  -20.3819   -9.2156 C   0  0  0  0  0  0  0  0  0  0  0  0
   24.3890  -21.2368  -12.3550 C   0  0  0  0  0  0  0  0  0  0  0  0
   24.2671  -21.4056  -13.5749 O   0  0  0  0  0  0  0  0  0  0  0  0
   21.3716  -21.6780   -8.6852 N   0  0  0  0  0  0  0  0  0  0  0  0
   20.8981  -21.6693  -10.0368 C   0  0  0  0  0  0  0  0  0  0  0  0
   20.3594  -22.7235  -10.4422 O   0  0  0  0  0  0  0  0  0  0  0  0
   21.0864  -20.4413  -10.8099 C   0  0  0  0  0  0  0  0  0  0  0  0
   21.9369  -20.6908  -12.0490 C   0  0  2  0  0  0  0  0  0  0  0  0
   23.3228  -20.6510  -11.6257 N   0  0  0  0  0  0  0  0  0  0  0  0
   21.7741  -19.5465  -13.0157 C   0  0  0  0  0  0  0  0  0  0  0  0
   21.9386  -18.3486  -12.6951 O   0  0  0  0  0  0  0  0  0  0  0  0
   21.4152  -19.8116  -14.3694 N   0  0  0  0  0  0  0  0  0  0  0  0
   21.2720  -18.8105  -15.3756 C   0  0  1  0  0  0  0  0  0  0  0  0
   21.9078  -19.1752  -16.6944 C   0  0  0  0  0  0  0  0  0  0  0  0
   21.4360  -20.8635  -17.1625 S   0  0  0  0  0  0  0  0  0  0  0  0
   19.8397  -18.4918  -15.5801 C   0  0  0  0  0  0  0  0  0  0  0  0
   19.4981  -17.4062  -16.3669 O   0  0  0  0  0  0  0  0  0  0  0  0
   18.9230  -19.1687  -15.0669 O   0  0  0  0  0  0  0  0  0  0  0  0
  2  1  1  6
  2 10  1  0
  2  3  1  0
  3  4  1  0
  4  5  2  0
  6  5  1  0
  7  6  2  0
  8  9  2  0
  8  7  1  0
  9  4  1  0
 10 17  1  0
 11 10  2  0
 13 12  1  0
 14 13  2  0
 15 13  1  0
 16 15  1  1
 16 18  1  0
 17 16  1  0
 18 19  2  0
 18 20  1  0
 20 21  1  0
 21 24  1  0
 21 22  1  6
 23 22  1  0
 24 26  2  0
 24 25  1  0
M  END
$$$$
