RHG.pdb
     RDKit          3D

 26 26  0  0  1  0  0  0  0  0999 V2000
    8.7251  -12.6740   16.6752 N   0  0  0  0  0  0  0  0  0  0  0  0
    8.3139  -13.6255   17.6889 C   0  0  0  0  0  0  0  0  0  0  0  0
    7.3490  -13.3361   18.4846 N   0  0  0  0  0  0  0  0  0  0  0  0
    8.9581  -14.8728   17.8210 N   0  0  0  0  0  0  0  0  0  0  0  0
    8.2759  -16.1290   17.6104 C   0  0  0  0  0  0  0  0  0  0  0  0
    8.3187  -16.8968   18.9177 C   0  0  0  0  0  0  0  0  0  0  0  0
    9.7811  -17.0235   19.2806 C   0  0  0  0  0  0  0  0  0  0  0  0
   10.0250  -17.8957   20.4855 C   0  0  2  0  0  0  0  0  0  0  0  0
    8.9741  -18.8382   20.7207 N   0  0  0  0  0  0  0  0  0  0  0  0
   10.2301  -16.9848   21.6418 C   0  0  0  0  0  0  0  0  0  0  0  0
    9.9055  -15.7824   21.4910 O   0  0  0  0  0  0  0  0  0  0  0  0
    6.9586  -14.0385   19.1371 N   0  0  0  0  0  0  0  0  0  0  0  0
   10.7607  -17.4254   22.8569 C   0  0  1  0  0  0  0  0  0  0  0  0
   10.3874  -16.8557   24.1525 C   0  0  0  0  0  0  0  0  0  0  0  0
    8.8963  -16.8654   24.2562 C   0  0  0  0  0  0  0  0  0  0  0  0
    8.2754  -15.6480   23.6787 C   0  0  0  0  0  0  0  0  0  0  0  0
    8.9276  -14.5896   23.0844 N   0  0  0  0  0  0  0  0  0  0  0  0
    8.0059  -13.6974   22.6993 C   0  0  0  0  0  0  0  0  0  0  0  0
    6.7877  -14.1518   23.0286 N   0  0  0  0  0  0  0  0  0  0  0  0
    6.9728  -15.3449   23.6260 C   0  0  0  0  0  0  0  0  0  0  0  0
   11.0800  -17.6264   25.2094 O   0  0  0  0  0  0  0  0  0  0  0  0
   10.8704  -17.3149   26.4081 N   0  0  0  0  0  0  0  0  0  0  0  0
   11.9685  -18.6982   24.9435 C   0  0  0  0  0  0  0  0  0  0  0  0
   12.5725  -19.5228   25.9627 C   0  0  0  0  0  0  0  0  0  0  0  0
   13.8430  -18.9130   26.3919 O   0  0  0  0  0  0  0  0  0  0  0  0
   14.3726  -18.0140   25.6983 O   0  0  0  0  0  0  0  0  0  0  0  0
  2  3  2  0
  2  1  1  0
  4  2  1  0
  5  4  1  0
  6  5  1  0
  7  8  1  0
  7  6  1  0
  8 10  1  0
  8  9  1  1
 10 11  2  0
 12 10  1  0
 12 13  1  0
 13 20  1  0
 13 14  1  1
 15 14  1  0
 16 15  2  0
 17 18  1  0
 17 16  1  0
 18 19  2  0
 19 15  1  0
 20 21  2  0
 22 23  1  0
 22 20  1  0
 24 23  1  0
 25 24  2  0
 26 24  1  0
M  END
$$$$
