RHG.pdb
     RDKit          3D

 26 26  0  0  1  0  0  0  0  0999 V2000
    8.0264  -11.8930   18.5064 N   0  0  0  0  0  0  0  0  0  0  0  0
    8.4563  -12.8748   19.4827 C   0  0  0  0  0  0  0  0  0  0  0  0
    9.6633  -13.3115   19.4626 N   0  0  0  0  0  0  0  0  0  0  0  0
    7.5682  -13.3653   20.4620 N   0  0  0  0  0  0  0  0  0  0  0  0
    7.9510  -14.3673   21.4302 C   0  0  0  0  0  0  0  0  0  0  0  0
    7.9445  -15.7099   20.7248 C   0  0  0  0  0  0  0  0  0  0  0  0
    8.2412  -16.7427   21.7887 C   0  0  0  0  0  0  0  0  0  0  0  0
    8.3544  -18.1446   21.2464 C   0  0  2  0  0  0  0  0  0  0  0  0
    7.0852  -18.7721   21.0382 N   0  0  0  0  0  0  0  0  0  0  0  0
    9.2070  -18.9059   22.1962 C   0  0  0  0  0  0  0  0  0  0  0  0
    8.6238  -19.6225   23.0448 O   0  0  0  0  0  0  0  0  0  0  0  0
    9.9765  -14.0615   20.1036 N   0  0  0  0  0  0  0  0  0  0  0  0
   10.6025  -18.8427   22.1655 C   0  0  2  0  0  0  0  0  0  0  0  0
   11.4646  -19.6575   23.0230 C   0  0  0  0  0  0  0  0  0  0  0  0
   12.7486  -19.9032   22.2981 C   0  0  0  0  0  0  0  0  0  0  0  0
   12.5973  -20.8635   21.1775 C   0  0  0  0  0  0  0  0  0  0  0  0
   11.5340  -21.7104   20.9520 N   0  0  0  0  0  0  0  0  0  0  0  0
   11.7893  -22.4101   19.8389 C   0  0  0  0  0  0  0  0  0  0  0  0
   12.9803  -22.0375   19.3473 N   0  0  0  0  0  0  0  0  0  0  0  0
   13.4587  -21.0917   20.1787 C   0  0  0  0  0  0  0  0  0  0  0  0
   11.6166  -18.9577   24.3183 O   0  0  0  0  0  0  0  0  0  0  0  0
   11.7105  -17.7050   24.3112 N   0  0  0  0  0  0  0  0  0  0  0  0
   11.6625  -19.6237   25.5686 C   0  0  0  0  0  0  0  0  0  0  0  0
   11.7566  -18.9516   26.8426 C   0  0  0  0  0  0  0  0  0  0  0  0
   11.8439  -19.9558   27.9169 O   0  0  0  0  0  0  0  0  0  0  0  0
   11.8029  -21.1767   27.6385 O   0  0  0  0  0  0  0  0  0  0  0  0
  2  3  2  0
  2  1  1  0
  4  2  1  0
  5  4  1  0
  6  5  1  0
  7  8  1  0
  7  6  1  0
  8 10  1  0
  8  9  1  1
 10 11  2  0
 12 10  1  0
 12 13  1  0
 13 20  1  0
 13 14  1  6
 15 14  1  0
 16 15  2  0
 17 18  1  0
 17 16  1  0
 18 19  2  0
 19 15  1  0
 20 21  2  0
 22 23  1  0
 22 20  1  0
 24 23  1  0
 25 24  2  0
 26 24  1  0
M  END
$$$$
