RHG.pdb
     RDKit          3D

 26 26  0  0  1  0  0  0  0  0999 V2000
    8.2259  -17.4530   15.3459 N   0  0  0  0  0  0  0  0  0  0  0  0
    9.5555  -16.8951   15.1953 C   0  0  0  0  0  0  0  0  0  0  0  0
   10.1099  -16.8653   14.0378 N   0  0  0  0  0  0  0  0  0  0  0  0
   10.2592  -16.3807   16.3037 N   0  0  0  0  0  0  0  0  0  0  0  0
    9.7288  -16.4125   17.6474 C   0  0  0  0  0  0  0  0  0  0  0  0
    8.8779  -15.1707   17.8321 C   0  0  0  0  0  0  0  0  0  0  0  0
    8.3540  -15.2297   19.2493 C   0  0  0  0  0  0  0  0  0  0  0  0
    7.4592  -14.0700   19.6049 C   0  0  2  0  0  0  0  0  0  0  0  0
    7.5080  -13.0068   18.6482 N   0  0  0  0  0  0  0  0  0  0  0  0
    7.8578  -13.6198   20.9641 C   0  0  0  0  0  0  0  0  0  0  0  0
    8.7738  -12.7660   21.0412 O   0  0  0  0  0  0  0  0  0  0  0  0
   11.0315  -16.4171   13.8924 N   0  0  0  0  0  0  0  0  0  0  0  0
    7.2527  -14.1122   22.1232 C   0  0  2  0  0  0  0  0  0  0  0  0
    7.5835  -13.6383   23.4679 C   0  0  0  0  0  0  0  0  0  0  0  0
    6.3470  -13.7044   24.3052 C   0  0  0  0  0  0  0  0  0  0  0  0
    6.5420  -13.1291   25.6587 C   0  0  0  0  0  0  0  0  0  0  0  0
    7.0721  -11.8944   25.9639 N   0  0  0  0  0  0  0  0  0  0  0  0
    7.0752  -11.7619   27.2966 C   0  0  0  0  0  0  0  0  0  0  0  0
    6.5647  -12.8712   27.8513 N   0  0  0  0  0  0  0  0  0  0  0  0
    6.2446  -13.6950   26.8347 C   0  0  0  0  0  0  0  0  0  0  0  0
    8.7116  -14.4505   23.9761 O   0  0  0  0  0  0  0  0  0  0  0  0
    9.2124  -14.1454   25.0870 N   0  0  0  0  0  0  0  0  0  0  0  0
    9.2594  -15.5554   23.2776 C   0  0  0  0  0  0  0  0  0  0  0  0
   10.4308  -16.2839   23.7027 C   0  0  0  0  0  0  0  0  0  0  0  0
   10.1625  -16.9192   25.0044 O   0  0  0  0  0  0  0  0  0  0  0  0
    9.0071  -17.3166   25.2817 O   0  0  0  0  0  0  0  0  0  0  0  0
  2  3  2  0
  2  1  1  0
  4  2  1  0
  5  4  1  0
  6  5  1  0
  7  8  1  0
  7  6  1  0
  8 10  1  0
  8  9  1  6
 10 11  2  0
 12 10  1  0
 12 13  1  0
 13 20  1  0
 13 14  1  6
 15 14  1  0
 16 15  2  0
 17 18  1  0
 17 16  1  0
 18 19  2  0
 19 15  1  0
 20 21  2  0
 22 23  1  0
 22 20  1  0
 24 23  1  0
 25 24  2  0
 26 24  1  0
M  END
$$$$
