RHG.pdb
     RDKit          3D

 26 26  0  0  1  0  0  0  0  0999 V2000
    7.6677  -12.3741   18.0174 N   0  0  0  0  0  0  0  0  0  0  0  0
    8.2152  -13.5165   17.3123 C   0  0  0  0  0  0  0  0  0  0  0  0
    8.0578  -13.6206   16.0425 N   0  0  0  0  0  0  0  0  0  0  0  0
    8.9224  -14.5252   17.9983 N   0  0  0  0  0  0  0  0  0  0  0  0
    8.5337  -14.9976   19.3074 C   0  0  0  0  0  0  0  0  0  0  0  0
    7.2468  -14.2894   19.6850 C   0  0  0  0  0  0  0  0  0  0  0  0
    6.8597  -14.8228   21.0459 C   0  0  0  0  0  0  0  0  0  0  0  0
    7.9066  -15.7185   21.6572 C   0  0  2  0  0  0  0  0  0  0  0  0
    7.6597  -17.1098   21.4306 N   0  0  0  0  0  0  0  0  0  0  0  0
    7.9637  -15.3879   23.1051 C   0  0  0  0  0  0  0  0  0  0  0  0
    7.7065  -14.2052   23.4352 O   0  0  0  0  0  0  0  0  0  0  0  0
    8.4966  -14.3891   15.5056 N   0  0  0  0  0  0  0  0  0  0  0  0
    8.2878  -16.3374   24.0775 C   0  0  1  0  0  0  0  0  0  0  0  0
    8.1306  -16.1049   25.5140 C   0  0  0  0  0  0  0  0  0  0  0  0
    6.7569  -15.5662   25.7537 C   0  0  0  0  0  0  0  0  0  0  0  0
    6.7652  -14.1379   26.1549 C   0  0  0  0  0  0  0  0  0  0  0  0
    7.8707  -13.3331   26.3247 N   0  0  0  0  0  0  0  0  0  0  0  0
    7.4463  -12.1166   26.6903 C   0  0  0  0  0  0  0  0  0  0  0  0
    6.1068  -12.1191   26.7593 N   0  0  0  0  0  0  0  0  0  0  0  0
    5.7089  -13.3628   26.4287 C   0  0  0  0  0  0  0  0  0  0  0  0
    8.4229  -17.3731   26.2189 O   0  0  0  0  0  0  0  0  0  0  0  0
    7.6611  -18.3526   26.0233 N   0  0  0  0  0  0  0  0  0  0  0  0
    9.5164  -17.5440   27.1042 C   0  0  0  0  0  0  0  0  0  0  0  0
   10.8945  -17.6312   26.6837 C   0  0  0  0  0  0  0  0  0  0  0  0
   11.5006  -18.8471   27.2531 O   0  0  0  0  0  0  0  0  0  0  0  0
   10.7956  -19.6539   27.9026 O   0  0  0  0  0  0  0  0  0  0  0  0
  2  3  2  0
  2  1  1  0
  4  2  1  0
  5  4  1  0
  6  5  1  0
  7  8  1  0
  7  6  1  0
  8 10  1  0
  8  9  1  1
 10 11  2  0
 12 10  1  0
 12 13  1  0
 13 20  1  0
 13 14  1  1
 15 14  1  0
 16 15  2  0
 17 18  1  0
 17 16  1  0
 18 19  2  0
 19 15  1  0
 20 21  2  0
 22 23  1  0
 22 20  1  0
 24 23  1  0
 25 24  2  0
 26 24  1  0
M  END
$$$$
