RHG.pdb
     RDKit          3D

 26 26  0  0  1  0  0  0  0  0999 V2000
    8.7851  -15.0133   16.6761 N   0  0  0  0  0  0  0  0  0  0  0  0
    7.7339  -14.0203   16.7794 C   0  0  0  0  0  0  0  0  0  0  0  0
    7.0403  -13.7122   15.7440 N   0  0  0  0  0  0  0  0  0  0  0  0
    7.4555  -13.3791   18.0040 N   0  0  0  0  0  0  0  0  0  0  0  0
    7.3514  -14.0966   19.2539 C   0  0  0  0  0  0  0  0  0  0  0  0
    8.6426  -14.8686   19.4464 C   0  0  0  0  0  0  0  0  0  0  0  0
    8.8089  -15.0399   20.9395 C   0  0  0  0  0  0  0  0  0  0  0  0
   10.0028  -15.8795   21.3160 C   0  0  2  0  0  0  0  0  0  0  0  0
   10.1701  -17.0282   20.4790 N   0  0  0  0  0  0  0  0  0  0  0  0
    9.8364  -16.2475   22.7463 C   0  0  0  0  0  0  0  0  0  0  0  0
    9.6098  -15.3170   23.5566 O   0  0  0  0  0  0  0  0  0  0  0  0
    6.3128  -12.9768   15.7811 N   0  0  0  0  0  0  0  0  0  0  0  0
    9.9244  -17.5679   23.1946 C   0  0  1  0  0  0  0  0  0  0  0  0
    9.7217  -17.9597   24.5902 C   0  0  0  0  0  0  0  0  0  0  0  0
    8.7701  -19.1122   24.6197 C   0  0  0  0  0  0  0  0  0  0  0  0
    7.4662  -18.7929   23.9883 C   0  0  0  0  0  0  0  0  0  0  0  0
    6.4023  -18.1404   24.5724 N   0  0  0  0  0  0  0  0  0  0  0  0
    5.4196  -18.0551   23.6665 C   0  0  0  0  0  0  0  0  0  0  0  0
    5.8215  -18.6317   22.5242 N   0  0  0  0  0  0  0  0  0  0  0  0
    7.0745  -19.0765   22.7403 C   0  0  0  0  0  0  0  0  0  0  0  0
   11.0472  -18.2444   25.1840 O   0  0  0  0  0  0  0  0  0  0  0  0
   11.1041  -18.5257   26.4070 N   0  0  0  0  0  0  0  0  0  0  0  0
   12.2582  -18.2169   24.4481 C   0  0  0  0  0  0  0  0  0  0  0  0
   13.5479  -18.5646   24.9953 C   0  0  0  0  0  0  0  0  0  0  0  0
   14.5793  -18.3902   23.9581 O   0  0  0  0  0  0  0  0  0  0  0  0
   14.2639  -17.9505   22.8281 O   0  0  0  0  0  0  0  0  0  0  0  0
  2  3  2  0
  2  1  1  0
  4  2  1  0
  5  4  1  0
  6  5  1  0
  7  8  1  0
  7  6  1  0
  8 10  1  0
  8  9  1  6
 10 11  2  0
 12 10  1  0
 12 13  1  0
 13 20  1  0
 13 14  1  1
 15 14  1  0
 16 15  2  0
 17 18  1  0
 17 16  1  0
 18 19  2  0
 19 15  1  0
 20 21  2  0
 22 23  1  0
 22 20  1  0
 24 23  1  0
 25 24  2  0
 26 24  1  0
M  END
$$$$
