RHG.pdb
     RDKit          3D

 26 26  0  0  1  0  0  0  0  0999 V2000
    7.9072  -12.8341   15.8111 N   0  0  0  0  0  0  0  0  0  0  0  0
    8.1229  -14.2398   16.0925 C   0  0  0  0  0  0  0  0  0  0  0  0
    8.8096  -14.9575   15.2792 N   0  0  0  0  0  0  0  0  0  0  0  0
    7.5886  -14.8410   17.2507 N   0  0  0  0  0  0  0  0  0  0  0  0
    6.8191  -14.1048   18.2273 C   0  0  0  0  0  0  0  0  0  0  0  0
    7.7812  -13.6175   19.2937 C   0  0  0  0  0  0  0  0  0  0  0  0
    7.4837  -14.4349   20.5305 C   0  0  0  0  0  0  0  0  0  0  0  0
    8.5248  -15.4866   20.8171 C   0  0  2  0  0  0  0  0  0  0  0  0
    8.0036  -16.8190   20.7834 N   0  0  0  0  0  0  0  0  0  0  0  0
    9.1229  -15.1519   22.1358 C   0  0  0  0  0  0  0  0  0  0  0  0
    9.6054  -14.0020   22.2730 O   0  0  0  0  0  0  0  0  0  0  0  0
    9.0093  -15.9540   15.4755 N   0  0  0  0  0  0  0  0  0  0  0  0
    9.1586  -16.0631   23.1945 C   0  0  1  0  0  0  0  0  0  0  0  0
    9.7553  -15.7616   24.4966 C   0  0  0  0  0  0  0  0  0  0  0  0
    8.6887  -15.8741   25.5379 C   0  0  0  0  0  0  0  0  0  0  0  0
    7.7379  -14.7357   25.5073 C   0  0  0  0  0  0  0  0  0  0  0  0
    8.0521  -13.3987   25.3958 N   0  0  0  0  0  0  0  0  0  0  0  0
    6.9089  -12.7011   25.4084 C   0  0  0  0  0  0  0  0  0  0  0  0
    5.8762  -13.5491   25.5244 N   0  0  0  0  0  0  0  0  0  0  0  0
    6.4027  -14.7876   25.5834 C   0  0  0  0  0  0  0  0  0  0  0  0
   10.9049  -16.6722   24.6964 O   0  0  0  0  0  0  0  0  0  0  0  0
   10.7162  -17.7393   25.3317 N   0  0  0  0  0  0  0  0  0  0  0  0
   12.2094  -16.4062   24.2102 C   0  0  0  0  0  0  0  0  0  0  0  0
   13.3401  -17.2831   24.4000 C   0  0  0  0  0  0  0  0  0  0  0  0
   14.5448  -16.6530   23.8328 O   0  0  0  0  0  0  0  0  0  0  0  0
   14.4436  -15.6043   23.1549 O   0  0  0  0  0  0  0  0  0  0  0  0
  2  3  2  0
  2  1  1  0
  4  2  1  0
  5  4  1  0
  6  5  1  0
  7  8  1  0
  7  6  1  0
  8 10  1  0
  8  9  1  1
 10 11  2  0
 12 10  1  0
 12 13  1  0
 13 20  1  0
 13 14  1  1
 15 14  1  0
 16 15  2  0
 17 18  1  0
 17 16  1  0
 18 19  2  0
 19 15  1  0
 20 21  2  0
 22 23  1  0
 22 20  1  0
 24 23  1  0
 25 24  2  0
 26 24  1  0
M  END
$$$$
