RHG.pdb
     RDKit          3D

 26 26  0  0  1  0  0  0  0  0999 V2000
    9.5146  -14.6941   15.1216 N   0  0  0  0  0  0  0  0  0  0  0  0
    8.3704  -14.1815   15.8497 C   0  0  0  0  0  0  0  0  0  0  0  0
    7.8624  -13.0474   15.5275 N   0  0  0  0  0  0  0  0  0  0  0  0
    7.7995  -14.9085   16.9145 N   0  0  0  0  0  0  0  0  0  0  0  0
    8.2568  -14.7813   18.2792 C   0  0  0  0  0  0  0  0  0  0  0  0
    7.3994  -13.7265   18.9518 C   0  0  0  0  0  0  0  0  0  0  0  0
    7.9163  -13.6078   20.3678 C   0  0  0  0  0  0  0  0  0  0  0  0
    7.8861  -14.9098   21.1267 C   0  0  2  0  0  0  0  0  0  0  0  0
    6.5649  -15.4342   21.2933 N   0  0  0  0  0  0  0  0  0  0  0  0
    8.5602  -14.6651   22.4284 C   0  0  0  0  0  0  0  0  0  0  0  0
    9.0471  -13.5245   22.6181 O   0  0  0  0  0  0  0  0  0  0  0  0
    7.0694  -12.6421   16.0551 N   0  0  0  0  0  0  0  0  0  0  0  0
    8.6606  -15.6484   23.4160 C   0  0  1  0  0  0  0  0  0  0  0  0
    9.4817  -15.5009   24.6186 C   0  0  0  0  0  0  0  0  0  0  0  0
    8.5777  -15.5256   25.8089 C   0  0  0  0  0  0  0  0  0  0  0  0
    7.6753  -14.3494   25.8655 C   0  0  0  0  0  0  0  0  0  0  0  0
    7.8123  -13.2401   26.6711 N   0  0  0  0  0  0  0  0  0  0  0  0
    6.7893  -12.4137   26.4173 C   0  0  0  0  0  0  0  0  0  0  0  0
    6.0044  -12.9596   25.4766 N   0  0  0  0  0  0  0  0  0  0  0  0
    6.5620  -14.1421   25.1519 C   0  0  0  0  0  0  0  0  0  0  0  0
   10.5083  -16.5671   24.6069 O   0  0  0  0  0  0  0  0  0  0  0  0
   10.1248  -17.7631   24.5834 N   0  0  0  0  0  0  0  0  0  0  0  0
   11.9026  -16.3131   24.6210 C   0  0  0  0  0  0  0  0  0  0  0  0
   12.9148  -17.3411   24.5746 C   0  0  0  0  0  0  0  0  0  0  0  0
   14.2359  -16.7150   24.3935 O   0  0  0  0  0  0  0  0  0  0  0  0
   14.3208  -15.4870   24.1599 O   0  0  0  0  0  0  0  0  0  0  0  0
  2  3  2  0
  2  1  1  0
  4  2  1  0
  5  4  1  0
  6  5  1  0
  7  8  1  0
  7  6  1  0
  8 10  1  0
  8  9  1  1
 10 11  2  0
 12 10  1  0
 12 13  1  0
 13 20  1  0
 13 14  1  1
 15 14  1  0
 16 15  2  0
 17 18  1  0
 17 16  1  0
 18 19  2  0
 19 15  1  0
 20 21  2  0
 22 23  1  0
 22 20  1  0
 24 23  1  0
 25 24  2  0
 26 24  1  0
M  END
$$$$
