RHG.pdb
     RDKit          3D

 26 26  0  0  1  0  0  0  0  0999 V2000
    8.4119  -15.3738   17.1973 N   0  0  0  0  0  0  0  0  0  0  0  0
    8.0386  -14.0875   16.6424 C   0  0  0  0  0  0  0  0  0  0  0  0
    7.9693  -13.9352   15.3696 N   0  0  0  0  0  0  0  0  0  0  0  0
    7.7485  -12.9900   17.4789 N   0  0  0  0  0  0  0  0  0  0  0  0
    7.8965  -13.0437   18.9152 C   0  0  0  0  0  0  0  0  0  0  0  0
    6.7387  -13.8555   19.4637 C   0  0  0  0  0  0  0  0  0  0  0  0
    6.8966  -13.8459   20.9675 C   0  0  0  0  0  0  0  0  0  0  0  0
    7.3642  -15.1646   21.5283 C   0  0  2  0  0  0  0  0  0  0  0  0
    6.3176  -16.1350   21.6331 N   0  0  0  0  0  0  0  0  0  0  0  0
    7.9931  -14.8743   22.8433 C   0  0  0  0  0  0  0  0  0  0  0  0
    7.5576  -13.8871   23.4834 O   0  0  0  0  0  0  0  0  0  0  0  0
    7.8830  -12.9963   14.9424 N   0  0  0  0  0  0  0  0  0  0  0  0
    9.0281  -15.6537   23.3663 C   0  0  1  0  0  0  0  0  0  0  0  0
    9.5788  -15.4647   24.7092 C   0  0  0  0  0  0  0  0  0  0  0  0
    8.5077  -15.7796   25.7032 C   0  0  0  0  0  0  0  0  0  0  0  0
    7.7223  -14.5836   26.0951 C   0  0  0  0  0  0  0  0  0  0  0  0
    7.9031  -13.2928   25.6482 N   0  0  0  0  0  0  0  0  0  0  0  0
    6.9907  -12.5151   26.2452 C   0  0  0  0  0  0  0  0  0  0  0  0
    6.2342  -13.2673   27.0582 N   0  0  0  0  0  0  0  0  0  0  0  0
    6.6964  -14.5282   26.9529 C   0  0  0  0  0  0  0  0  0  0  0  0
   10.7923  -16.3036   24.8298 O   0  0  0  0  0  0  0  0  0  0  0  0
   10.6588  -17.5522   24.7981 N   0  0  0  0  0  0  0  0  0  0  0  0
   12.0989  -15.7753   24.9796 C   0  0  0  0  0  0  0  0  0  0  0  0
   13.2917  -16.5806   25.0893 C   0  0  0  0  0  0  0  0  0  0  0  0
   14.0902  -16.4371   23.8596 O   0  0  0  0  0  0  0  0  0  0  0  0
   13.5198  -16.2446   22.7608 O   0  0  0  0  0  0  0  0  0  0  0  0
  2  3  2  0
  2  1  1  0
  4  2  1  0
  5  4  1  0
  6  5  1  0
  7  8  1  0
  7  6  1  0
  8 10  1  0
  8  9  1  1
 10 11  2  0
 12 10  1  0
 12 13  1  0
 13 20  1  0
 13 14  1  1
 15 14  1  0
 16 15  2  0
 17 18  1  0
 17 16  1  0
 18 19  2  0
 19 15  1  0
 20 21  2  0
 22 23  1  0
 22 20  1  0
 24 23  1  0
 25 24  2  0
 26 24  1  0
M  END
$$$$
