TYF.pdb
     RDKit          3D

 31 32  0  0  1  0  0  0  0  0999 V2000
   21.3537  -12.6540    5.1403 C   0  0  0  0  0  0  0  0  0  0  0  0
   20.7510  -11.8914    6.3245 C   0  0  1  0  0  0  0  0  0  0  0  0
   21.4548  -10.7084    6.4287 O   0  0  0  0  0  0  0  0  0  0  0  0
   19.3283  -11.5558    5.9385 C   0  0  2  0  0  0  0  0  0  0  0  0
   18.7134  -10.7517    6.9709 N   0  0  0  0  0  0  0  0  0  0  0  0
   18.5077  -12.7642    5.7133 C   0  0  0  0  0  0  0  0  0  0  0  0
   17.9310  -13.2910    6.6933 O   0  0  0  0  0  0  0  0  0  0  0  0
   12.6919  -10.9695    2.2410 O   0  0  0  0  0  0  0  0  0  0  0  0
   13.7615  -11.8504    2.3758 C   0  0  0  0  0  0  0  0  0  0  0  0
   13.5498  -13.1786    2.6725 C   0  0  0  0  0  0  0  0  0  0  0  0
   14.6153  -14.0577    2.8072 C   0  0  0  0  0  0  0  0  0  0  0  0
   15.9204  -13.6558    2.6538 C   0  0  0  0  0  0  0  0  0  0  0  0
   17.0844  -14.5569    2.7882 C   0  0  0  0  0  0  0  0  0  0  0  0
   17.6025  -14.5973    4.2150 C   0  0  2  0  0  0  0  0  0  0  0  0
   18.3330  -13.3688    4.4399 N   0  0  0  0  0  0  0  0  0  0  0  0
   18.3736  -15.8158    4.4715 C   0  0  0  0  0  0  0  0  0  0  0  0
   19.5301  -16.0171    3.9808 O   0  0  0  0  0  0  0  0  0  0  0  0
   16.1252  -12.3196    2.3556 C   0  0  0  0  0  0  0  0  0  0  0  0
   15.0724  -11.4390    2.2200 C   0  0  0  0  0  0  0  0  0  0  0  0
   17.8494  -16.8271    5.2898 N   0  0  0  0  0  0  0  0  0  0  0  0
   18.6946  -17.8080    5.9788 C   0  0  1  0  0  0  0  0  0  0  0  0
   19.6359  -16.9866    6.8371 C   0  0  0  0  0  0  0  0  0  0  0  0
   20.4561  -17.7759    7.7566 C   0  0  0  0  0  0  0  0  0  0  0  0
   20.6948  -17.3645    9.0480 C   0  0  0  0  0  0  0  0  0  0  0  0
   21.4737  -18.1587    9.8585 C   0  0  0  0  0  0  0  0  0  0  0  0
   22.0093  -19.3425    9.3999 C   0  0  0  0  0  0  0  0  0  0  0  0
   21.7806  -19.7687    8.1116 C   0  0  0  0  0  0  0  0  0  0  0  0
   20.9986  -18.9621    7.3128 C   0  0  0  0  0  0  0  0  0  0  0  0
   17.8485  -18.7040    6.7545 C   0  0  0  0  0  0  0  0  0  0  0  0
   16.8901  -18.2383    7.4176 O   0  0  0  0  0  0  0  0  0  0  0  0
   18.0571  -20.0704    6.7939 O   0  0  0  0  0  0  0  0  0  0  0  0
  2  1  1  6
  3  2  1  0
  4  2  1  0
  4  5  1  1
  6  4  1  0
  6  7  2  0
  8  9  1  0
  9 19  2  0
 10  9  1  0
 10 11  2  0
 11 12  1  0
 12 18  2  0
 12 13  1  0
 14 13  1  6
 14 15  1  0
 15  6  1  0
 16 14  1  0
 16 20  1  0
 17 16  2  0
 19 18  1  0
 21 20  1  0
 21 29  1  0
 22 23  1  0
 21 22  1  1
 23 24  2  0
 24 25  1  0
 26 25  2  0
 27 26  1  0
 28 27  2  0
 28 23  1  0
 29 30  2  0
 29 31  1  0
M  END
$$$$
