TYF.pdb
     RDKit          3D

 31 32  0  0  1  0  0  0  0  0999 V2000
   29.0072  -21.0521  -13.5260 C   0  0  0  0  0  0  0  0  0  0  0  0
   28.9423  -19.6972  -14.2382 C   0  0  1  0  0  0  0  0  0  0  0  0
   29.5662  -19.8648  -15.4582 O   0  0  0  0  0  0  0  0  0  0  0  0
   27.4790  -19.4186  -14.4966 C   0  0  2  0  0  0  0  0  0  0  0  0
   27.3300  -18.1486  -15.1715 N   0  0  0  0  0  0  0  0  0  0  0  0
   26.6824  -19.4013  -13.2518 C   0  0  0  0  0  0  0  0  0  0  0  0
   26.5380  -18.3144  -12.6450 O   0  0  0  0  0  0  0  0  0  0  0  0
   19.9976  -18.8898  -14.5015 O   0  0  0  0  0  0  0  0  0  0  0  0
   21.0125  -19.5193  -13.7861 C   0  0  0  0  0  0  0  0  0  0  0  0
   21.1038  -19.3805  -12.4188 C   0  0  0  0  0  0  0  0  0  0  0  0
   22.1152  -20.0077  -11.7046 C   0  0  0  0  0  0  0  0  0  0  0  0
   23.0663  -20.7896  -12.3147 C   0  0  0  0  0  0  0  0  0  0  0  0
   24.1598  -21.4752  -11.5938 C   0  0  0  0  0  0  0  0  0  0  0  0
   25.3734  -20.5777  -11.4278 C   0  0  2  0  0  0  0  0  0  0  0  0
   26.0656  -20.5548  -12.6981 N   0  0  0  0  0  0  0  0  0  0  0  0
   26.2007  -20.9982  -10.2948 C   0  0  0  0  0  0  0  0  0  0  0  0
   26.8983  -22.0622  -10.3067 O   0  0  0  0  0  0  0  0  0  0  0  0
   22.9680  -20.9244  -13.6888 C   0  0  0  0  0  0  0  0  0  0  0  0
   21.9664  -20.3049  -14.4066 C   0  0  0  0  0  0  0  0  0  0  0  0
   26.2541  -20.2203   -9.1289 N   0  0  0  0  0  0  0  0  0  0  0  0
   26.9918  -20.6357   -7.9312 C   0  0  1  0  0  0  0  0  0  0  0  0
   27.8437  -19.4394   -7.5558 C   0  0  0  0  0  0  0  0  0  0  0  0
   28.4649  -19.5334   -6.2342 C   0  0  0  0  0  0  0  0  0  0  0  0
   29.4623  -20.4429   -5.9668 C   0  0  0  0  0  0  0  0  0  0  0  0
   30.0030  -20.4739   -4.7014 C   0  0  0  0  0  0  0  0  0  0  0  0
   29.5646  -19.6183   -3.7142 C   0  0  0  0  0  0  0  0  0  0  0  0
   28.5682  -18.7028   -3.9646 C   0  0  0  0  0  0  0  0  0  0  0  0
   28.0373  -18.6846   -5.2367 C   0  0  0  0  0  0  0  0  0  0  0  0
   26.0418  -21.0093   -6.8928 C   0  0  0  0  0  0  0  0  0  0  0  0
   26.4557  -21.5169   -5.8222 O   0  0  0  0  0  0  0  0  0  0  0  0
   24.6786  -20.8261   -7.0356 O   0  0  0  0  0  0  0  0  0  0  0  0
  2  1  1  1
  3  2  1  0
  4  2  1  0
  4  5  1  1
  6  4  1  0
  6  7  2  0
  8  9  1  0
  9 19  2  0
 10  9  1  0
 10 11  2  0
 11 12  1  0
 12 18  2  0
 12 13  1  0
 14 13  1  6
 14 15  1  0
 15  6  1  0
 16 14  1  0
 16 20  1  0
 17 16  2  0
 19 18  1  0
 21 20  1  0
 21 29  1  0
 22 23  1  0
 21 22  1  1
 23 24  2  0
 24 25  1  0
 26 25  2  0
 27 26  1  0
 28 27  2  0
 28 23  1  0
 29 30  2  0
 29 31  1  0
M  END
$$$$
