TYF.pdb
     RDKit          3D

 31 32  0  0  1  0  0  0  0  0999 V2000
   18.7353   -9.6313  -18.1802 C   0  0  0  0  0  0  0  0  0  0  0  0
   18.6843  -11.0151  -17.5249 C   0  0  1  0  0  0  0  0  0  0  0  0
   18.3294  -11.9065  -18.5174 O   0  0  0  0  0  0  0  0  0  0  0  0
   20.0967  -11.3365  -17.0920 C   0  0  2  0  0  0  0  0  0  0  0  0
   20.1627  -12.6903  -16.5887 N   0  0  0  0  0  0  0  0  0  0  0  0
   20.5900  -10.4092  -16.0523 C   0  0  0  0  0  0  0  0  0  0  0  0
   20.1402  -10.5169  -14.8876 O   0  0  0  0  0  0  0  0  0  0  0  0
   26.6509   -8.0009  -19.7138 O   0  0  0  0  0  0  0  0  0  0  0  0
   25.8748   -8.1745  -18.5711 C   0  0  0  0  0  0  0  0  0  0  0  0
   25.5975   -7.1138  -17.7376 C   0  0  0  0  0  0  0  0  0  0  0  0
   24.8240   -7.2857  -16.5981 C   0  0  0  0  0  0  0  0  0  0  0  0
   24.3007   -8.5064  -16.2454 C   0  0  0  0  0  0  0  0  0  0  0  0
   23.4727   -8.7347  -15.0422 C   0  0  0  0  0  0  0  0  0  0  0  0
   22.0058   -8.4438  -15.3055 C   0  0  2  0  0  0  0  0  0  0  0  0
   21.5527   -9.3940  -16.2981 N   0  0  0  0  0  0  0  0  0  0  0  0
   21.7937   -7.0410  -15.6689 C   0  0  0  0  0  0  0  0  0  0  0  0
   21.7676   -6.6366  -16.8750 O   0  0  0  0  0  0  0  0  0  0  0  0
   24.5836   -9.5676  -17.0880 C   0  0  0  0  0  0  0  0  0  0  0  0
   25.3513   -9.4059  -18.2223 C   0  0  0  0  0  0  0  0  0  0  0  0
   21.6056   -6.0716  -14.6730 N   0  0  0  0  0  0  0  0  0  0  0  0
   21.3973   -4.6519  -14.9770 C   0  0  1  0  0  0  0  0  0  0  0  0
   20.5463   -4.1237  -13.8393 C   0  0  0  0  0  0  0  0  0  0  0  0
   20.1856   -2.7109  -13.9625 C   0  0  0  0  0  0  0  0  0  0  0  0
   19.0093   -2.3138  -14.5562 C   0  0  0  0  0  0  0  0  0  0  0  0
   18.7336   -0.9676  -14.6354 C   0  0  0  0  0  0  0  0  0  0  0  0
   19.6076   -0.0270  -14.1352 C   0  0  0  0  0  0  0  0  0  0  0  0
   20.7880   -0.4068  -13.5385 C   0  0  0  0  0  0  0  0  0  0  0  0
   21.0491   -1.7585  -13.4671 C   0  0  0  0  0  0  0  0  0  0  0  0
   22.6913   -3.9917  -15.0771 C   0  0  0  0  0  0  0  0  0  0  0  0
   23.6207   -4.3200  -14.3002 O   0  0  0  0  0  0  0  0  0  0  0  0
   22.9473   -3.0012  -16.0075 O   0  0  0  0  0  0  0  0  0  0  0  0
  2  1  1  6
  3  2  1  0
  4  2  1  0
  4  5  1  1
  6  4  1  0
  6  7  2  0
  8  9  1  0
  9 19  2  0
 10  9  1  0
 10 11  2  0
 11 12  1  0
 12 18  2  0
 12 13  1  0
 14 13  1  6
 14 15  1  0
 15  6  1  0
 16 14  1  0
 16 20  1  0
 17 16  2  0
 19 18  1  0
 21 20  1  0
 21 29  1  0
 22 23  1  0
 21 22  1  1
 23 24  2  0
 24 25  1  0
 26 25  2  0
 27 26  1  0
 28 27  2  0
 28 23  1  0
 29 30  2  0
 29 31  1  0
M  END
$$$$
