TYF.pdb
     RDKit          3D

 31 32  0  0  1  0  0  0  0  0999 V2000
   21.9550  -17.1526  -17.1337 C   0  0  0  0  0  0  0  0  0  0  0  0
   22.8589  -17.3860  -18.3484 C   0  0  1  0  0  0  0  0  0  0  0  0
   23.1145  -16.1431  -18.8921 O   0  0  0  0  0  0  0  0  0  0  0  0
   24.1608  -17.9384  -17.8140 C   0  0  2  0  0  0  0  0  0  0  0  0
   25.1045  -18.1116  -18.8956 N   0  0  0  0  0  0  0  0  0  0  0  0
   23.9793  -19.2299  -17.1187 C   0  0  0  0  0  0  0  0  0  0  0  0
   23.8512  -20.2702  -17.8057 O   0  0  0  0  0  0  0  0  0  0  0  0
   29.5523  -21.9105  -17.2094 O   0  0  0  0  0  0  0  0  0  0  0  0
   28.4047  -21.6701  -16.4589 C   0  0  0  0  0  0  0  0  0  0  0  0
   27.4438  -22.6449  -16.3055 C   0  0  0  0  0  0  0  0  0  0  0  0
   26.2992  -22.4065  -15.5576 C   0  0  0  0  0  0  0  0  0  0  0  0
   26.0665  -21.2019  -14.9386 C   0  0  0  0  0  0  0  0  0  0  0  0
   24.8629  -20.9048  -14.1335 C   0  0  0  0  0  0  0  0  0  0  0  0
   23.6610  -20.6000  -15.0101 C   0  0  2  0  0  0  0  0  0  0  0  0
   23.9412  -19.3622  -15.7049 N   0  0  0  0  0  0  0  0  0  0  0  0
   22.4192  -20.5909  -14.2337 C   0  0  0  0  0  0  0  0  0  0  0  0
   22.3894  -20.3662  -12.9818 O   0  0  0  0  0  0  0  0  0  0  0  0
   27.0366  -20.2272  -15.0972 C   0  0  0  0  0  0  0  0  0  0  0  0
   28.1770  -20.4554  -15.8386 C   0  0  0  0  0  0  0  0  0  0  0  0
   21.1890  -20.8343  -14.8618 N   0  0  0  0  0  0  0  0  0  0  0  0
   19.9198  -20.8839  -14.1283 C   0  0  1  0  0  0  0  0  0  0  0  0
   19.1542  -19.6553  -14.5776 C   0  0  0  0  0  0  0  0  0  0  0  0
   19.6674  -18.3954  -14.0387 C   0  0  0  0  0  0  0  0  0  0  0  0
   19.5368  -18.0714  -12.7076 C   0  0  0  0  0  0  0  0  0  0  0  0
   20.0458  -16.8699  -12.2696 C   0  0  0  0  0  0  0  0  0  0  0  0
   20.6749  -16.0008  -13.1342 C   0  0  0  0  0  0  0  0  0  0  0  0
   20.8140  -16.3091  -14.4681 C   0  0  0  0  0  0  0  0  0  0  0  0
   20.2990  -17.5159  -14.8908 C   0  0  0  0  0  0  0  0  0  0  0  0
   19.2363  -22.1304  -14.4435 C   0  0  0  0  0  0  0  0  0  0  0  0
   18.1807  -22.4337  -13.8362 O   0  0  0  0  0  0  0  0  0  0  0  0
   19.7064  -23.0114  -15.4001 O   0  0  0  0  0  0  0  0  0  0  0  0
  2  1  1  1
  3  2  1  0
  4  2  1  0
  4  5  1  6
  6  4  1  0
  6  7  2  0
  8  9  1  0
  9 19  2  0
 10  9  1  0
 10 11  2  0
 11 12  1  0
 12 18  2  0
 12 13  1  0
 14 13  1  1
 14 15  1  0
 15  6  1  0
 16 14  1  0
 16 20  1  0
 17 16  2  0
 19 18  1  0
 21 20  1  0
 21 29  1  0
 22 23  1  0
 21 22  1  6
 23 24  2  0
 24 25  1  0
 26 25  2  0
 27 26  1  0
 28 27  2  0
 28 23  1  0
 29 30  2  0
 29 31  1  0
M  END
$$$$
