TYF.pdb
     RDKit          3D

 31 32  0  0  1  0  0  0  0  0999 V2000
   26.5129  -17.2602  -18.0517 C   0  0  0  0  0  0  0  0  0  0  0  0
   26.8344  -18.3817  -19.0446 C   0  0  1  0  0  0  0  0  0  0  0  0
   27.5221  -17.7965  -20.0887 O   0  0  0  0  0  0  0  0  0  0  0  0
   27.7785  -19.3251  -18.3344 C   0  0  2  0  0  0  0  0  0  0  0  0
   28.2344  -20.3482  -19.2487 N   0  0  0  0  0  0  0  0  0  0  0  0
   27.1513  -19.9692  -17.1612 C   0  0  0  0  0  0  0  0  0  0  0  0
   26.2331  -20.8007  -17.3507 O   0  0  0  0  0  0  0  0  0  0  0  0
   24.8163  -20.9031   -8.6074 O   0  0  0  0  0  0  0  0  0  0  0  0
   25.5111  -20.6592   -9.7889 C   0  0  0  0  0  0  0  0  0  0  0  0
   25.8266  -19.3740  -10.1705 C   0  0  0  0  0  0  0  0  0  0  0  0
   26.5192  -19.1296  -11.3481 C   0  0  0  0  0  0  0  0  0  0  0  0
   26.9217  -20.1426  -12.1848 C   0  0  0  0  0  0  0  0  0  0  0  0
   27.6604  -19.9282  -13.4471 C   0  0  0  0  0  0  0  0  0  0  0  0
   26.7609  -20.0901  -14.6597 C   0  0  2  0  0  0  0  0  0  0  0  0
   27.5319  -19.6985  -15.8197 N   0  0  0  0  0  0  0  0  0  0  0  0
   25.5018  -19.3603  -14.4950 C   0  0  0  0  0  0  0  0  0  0  0  0
   25.4435  -18.0913  -14.4242 O   0  0  0  0  0  0  0  0  0  0  0  0
   26.6011  -21.4315  -11.7947 C   0  0  0  0  0  0  0  0  0  0  0  0
   25.9131  -21.6836  -10.6262 C   0  0  0  0  0  0  0  0  0  0  0  0
   24.2862  -20.0547  -14.4094 N   0  0  0  0  0  0  0  0  0  0  0  0
   23.0266  -19.4055  -14.0307 C   0  0  1  0  0  0  0  0  0  0  0  0
   22.7358  -18.4231  -15.1478 C   0  0  0  0  0  0  0  0  0  0  0  0
   22.3724  -19.0481  -16.4201 C   0  0  0  0  0  0  0  0  0  0  0  0
   21.1193  -19.5743  -16.6357 C   0  0  0  0  0  0  0  0  0  0  0  0
   20.8464  -20.1451  -17.8581 C   0  0  0  0  0  0  0  0  0  0  0  0
   21.7979  -20.1953  -18.8534 C   0  0  0  0  0  0  0  0  0  0  0  0
   23.0558  -19.6739  -18.6546 C   0  0  0  0  0  0  0  0  0  0  0  0
   23.3131  -19.1058  -17.4252 C   0  0  0  0  0  0  0  0  0  0  0  0
   21.9943  -20.4211  -13.8795 C   0  0  0  0  0  0  0  0  0  0  0  0
   20.8172  -20.0788  -13.6103 O   0  0  0  0  0  0  0  0  0  0  0  0
   22.2571  -21.7712  -14.0222 O   0  0  0  0  0  0  0  0  0  0  0  0
  2  1  1  1
  3  2  1  0
  4  2  1  0
  4  5  1  6
  6  4  1  0
  6  7  2  0
  8  9  1  0
  9 19  2  0
 10  9  1  0
 10 11  2  0
 11 12  1  0
 12 18  2  0
 12 13  1  0
 14 13  1  1
 14 15  1  0
 15  6  1  0
 16 14  1  0
 16 20  1  0
 17 16  2  0
 19 18  1  0
 21 20  1  0
 21 29  1  0
 22 23  1  0
 21 22  1  6
 23 24  2  0
 24 25  1  0
 26 25  2  0
 27 26  1  0
 28 27  2  0
 28 23  1  0
 29 30  2  0
 29 31  1  0
M  END
$$$$
