TYF.pdb
     RDKit          3D

 31 32  0  0  1  0  0  0  0  0999 V2000
   18.9152  -11.8438  -15.3760 C   0  0  0  0  0  0  0  0  0  0  0  0
   19.2888  -12.6370  -16.6323 C   0  0  1  0  0  0  0  0  0  0  0  0
   18.5262  -13.7875  -16.6114 O   0  0  0  0  0  0  0  0  0  0  0  0
   18.8445  -11.8037  -17.8130 C   0  0  2  0  0  0  0  0  0  0  0  0
   19.0490  -12.5392  -19.0409 N   0  0  0  0  0  0  0  0  0  0  0  0
   19.5654  -10.5161  -17.8944 C   0  0  0  0  0  0  0  0  0  0  0  0
   20.8041  -10.5310  -18.0837 O   0  0  0  0  0  0  0  0  0  0  0  0
   20.7497   -8.7530  -24.0440 O   0  0  0  0  0  0  0  0  0  0  0  0
   20.3320   -8.3538  -22.7774 C   0  0  0  0  0  0  0  0  0  0  0  0
   21.1318   -7.5573  -21.9882 C   0  0  0  0  0  0  0  0  0  0  0  0
   20.7165   -7.1587  -20.7252 C   0  0  0  0  0  0  0  0  0  0  0  0
   19.5020   -7.5322  -20.2018 C   0  0  0  0  0  0  0  0  0  0  0  0
   19.0201   -7.1314  -18.8631 C   0  0  0  0  0  0  0  0  0  0  0  0
   19.6313   -7.9855  -17.7663 C   0  0  2  0  0  0  0  0  0  0  0  0
   18.9307   -9.2515  -17.7695 N   0  0  0  0  0  0  0  0  0  0  0  0
   19.6210   -7.2910  -16.4769 C   0  0  0  0  0  0  0  0  0  0  0  0
   18.5614   -7.1183  -15.7942 O   0  0  0  0  0  0  0  0  0  0  0  0
   18.7038   -8.3327  -21.0008 C   0  0  0  0  0  0  0  0  0  0  0  0
   19.1084   -8.7335  -22.2569 C   0  0  0  0  0  0  0  0  0  0  0  0
   20.8110   -6.7813  -15.9370 N   0  0  0  0  0  0  0  0  0  0  0  0
   20.8543   -6.0378  -14.6734 C   0  0  1  0  0  0  0  0  0  0  0  0
   21.8706   -6.7684  -13.8185 C   0  0  0  0  0  0  0  0  0  0  0  0
   22.8430   -7.5546  -14.5785 C   0  0  0  0  0  0  0  0  0  0  0  0
   23.8797   -6.9596  -15.2604 C   0  0  0  0  0  0  0  0  0  0  0  0
   24.7587   -7.7615  -15.9524 C   0  0  0  0  0  0  0  0  0  0  0  0
   24.6156   -9.1319  -15.9705 C   0  0  0  0  0  0  0  0  0  0  0  0
   23.5848   -9.7431  -15.2940 C   0  0  0  0  0  0  0  0  0  0  0  0
   22.7134   -8.9261  -14.6060 C   0  0  0  0  0  0  0  0  0  0  0  0
   21.2246   -4.6563  -14.9465 C   0  0  0  0  0  0  0  0  0  0  0  0
   21.5651   -4.3195  -16.1066 O   0  0  0  0  0  0  0  0  0  0  0  0
   21.2173   -3.6802  -13.9670 O   0  0  0  0  0  0  0  0  0  0  0  0
  2  1  1  1
  3  2  1  0
  4  2  1  0
  4  5  1  6
  6  4  1  0
  6  7  2  0
  8  9  1  0
  9 19  2  0
 10  9  1  0
 10 11  2  0
 11 12  1  0
 12 18  2  0
 12 13  1  0
 14 13  1  6
 14 15  1  0
 15  6  1  0
 16 14  1  0
 16 20  1  0
 17 16  2  0
 19 18  1  0
 21 20  1  0
 21 29  1  0
 22 23  1  0
 21 22  1  1
 23 24  2  0
 24 25  1  0
 26 25  2  0
 27 26  1  0
 28 27  2  0
 28 23  1  0
 29 30  2  0
 29 31  1  0
M  END
$$$$
