ILR.pdb
     RDKit          3D

 28 27  0  0  1  0  0  0  0  0999 V2000
   25.8636  -17.3138  -19.3169 C   0  0  0  0  0  0  0  0  0  0  0  0
   26.8957  -17.6578  -18.2593 C   0  0  0  0  0  0  0  0  0  0  0  0
   26.2046  -18.6392  -17.2816 C   0  0  2  0  0  0  0  0  0  0  0  0
   24.9914  -17.9620  -16.6877 C   0  0  0  0  0  0  0  0  0  0  0  0
   27.2009  -19.0392  -16.2296 C   0  0  2  0  0  0  0  0  0  0  0  0
   28.3409  -19.7368  -16.8728 N   0  0  0  0  0  0  0  0  0  0  0  0
   26.6895  -19.9215  -15.1729 C   0  0  0  0  0  0  0  0  0  0  0  0
   26.4433  -21.1569  -15.4440 O   0  0  0  0  0  0  0  0  0  0  0  0
   26.2205  -22.2226  -10.3001 C   0  0  0  0  0  0  0  0  0  0  0  0
   25.7301  -20.7901  -10.3461 C   0  0  1  0  0  0  0  0  0  0  0  0
   25.8294  -20.1521   -9.0054 C   0  0  0  0  0  0  0  0  0  0  0  0
   26.2774  -20.0237  -11.4930 C   0  0  0  0  0  0  0  0  0  0  0  0
   25.9271  -20.5202  -12.8547 C   0  0  2  0  0  0  0  0  0  0  0  0
   26.4264  -19.5658  -13.8384 N   0  0  0  0  0  0  0  0  0  0  0  0
   24.4266  -20.5576  -13.0255 C   0  0  0  0  0  0  0  0  0  0  0  0
   23.7374  -19.5085  -13.0225 O   0  0  0  0  0  0  0  0  0  0  0  0
   17.5947  -24.2470  -12.8938 N   0  0  0  0  0  0  0  0  0  0  0  0
   17.8002  -24.9233  -14.1383 C   0  0  0  0  0  0  0  0  0  0  0  0
   16.8504  -25.1995  -14.9433 N   0  0  0  0  0  0  0  0  0  0  0  0
   19.1314  -25.3216  -14.5262 N   0  0  0  0  0  0  0  0  0  0  0  0
   20.2301  -25.0730  -13.6147 C   0  0  0  0  0  0  0  0  0  0  0  0
   20.5746  -23.5880  -13.5288 C   0  0  0  0  0  0  0  0  0  0  0  0
   22.0497  -23.3665  -13.5199 C   0  0  0  0  0  0  0  0  0  0  0  0
   22.3690  -21.9238  -13.2865 C   0  0  2  0  0  0  0  0  0  0  0  0
   23.8225  -21.8236  -13.1900 N   0  0  0  0  0  0  0  0  0  0  0  0
   21.7007  -21.3479  -12.1314 C   0  0  0  0  0  0  0  0  0  0  0  0
   22.0149  -21.5200  -10.9356 O   0  0  0  0  0  0  0  0  0  0  0  0
   20.5917  -20.5156  -12.3570 O   0  0  0  0  0  0  0  0  0  0  0  0
  2  3  1  0
  2  1  1  0
  3  5  1  0
  3  4  1  1
  5  7  1  0
  5  6  1  6
  7  8  2  0
 10  9  1  1
 10 12  1  0
 11 10  1  0
 13 12  1  1
 14 13  1  0
 14  7  1  0
 15 13  1  0
 15 16  2  0
 17 18  1  0
 18 20  1  0
 18 19  2  0
 20 21  1  0
 21 22  1  0
 22 23  1  0
 24 23  1  1
 24 25  1  0
 24 26  1  0
 25 15  1  0
 26 27  2  0
 26 28  1  0
M  END
$$$$
