ILR.pdb
     RDKit          3D

 28 27  0  0  1  0  0  0  0  0999 V2000
   15.1361  -11.7967  -17.5143 C   0  0  0  0  0  0  0  0  0  0  0  0
   16.6451  -11.6584  -17.4355 C   0  0  0  0  0  0  0  0  0  0  0  0
   16.9349  -10.7580  -16.2101 C   0  0  2  0  0  0  0  0  0  0  0  0
   16.2690   -9.4181  -16.4214 C   0  0  0  0  0  0  0  0  0  0  0  0
   18.4249  -10.6314  -16.0577 C   0  0  2  0  0  0  0  0  0  0  0  0
   19.0111  -11.9747  -15.8294 N   0  0  0  0  0  0  0  0  0  0  0  0
   18.8803   -9.7649  -14.9631 C   0  0  0  0  0  0  0  0  0  0  0  0
   18.8601  -10.2093  -13.7537 O   0  0  0  0  0  0  0  0  0  0  0  0
   21.6509   -6.3327  -11.9283 C   0  0  0  0  0  0  0  0  0  0  0  0
   21.3147   -5.7745  -13.2958 C   0  0  1  0  0  0  0  0  0  0  0  0
   22.3489   -4.8014  -13.7404 C   0  0  0  0  0  0  0  0  0  0  0  0
   20.9189   -6.8210  -14.2707 C   0  0  0  0  0  0  0  0  0  0  0  0
   19.7209   -7.6378  -13.9225 C   0  0  2  0  0  0  0  0  0  0  0  0
   19.3608   -8.4488  -15.0803 N   0  0  0  0  0  0  0  0  0  0  0  0
   18.5378   -6.7382  -13.6519 C   0  0  0  0  0  0  0  0  0  0  0  0
   17.9513   -6.1258  -14.5773 O   0  0  0  0  0  0  0  0  0  0  0  0
   13.5685   -6.8435   -6.4909 N   0  0  0  0  0  0  0  0  0  0  0  0
   12.9199   -7.0727   -7.7459 C   0  0  0  0  0  0  0  0  0  0  0  0
   11.8267   -7.7205   -7.8541 N   0  0  0  0  0  0  0  0  0  0  0  0
   13.5056   -6.5587   -8.9599 N   0  0  0  0  0  0  0  0  0  0  0  0
   14.7503   -5.8210   -8.8789 C   0  0  0  0  0  0  0  0  0  0  0  0
   15.2604   -5.4102  -10.2581 C   0  0  0  0  0  0  0  0  0  0  0  0
   16.4447   -6.2188  -10.6684 C   0  0  0  0  0  0  0  0  0  0  0  0
   16.9651   -5.7638  -11.9951 C   0  0  2  0  0  0  0  0  0  0  0  0
   18.1121   -6.6101  -12.3113 N   0  0  0  0  0  0  0  0  0  0  0  0
   17.2945   -4.3492  -12.0494 C   0  0  0  0  0  0  0  0  0  0  0  0
   18.4368   -3.8539  -11.9607 O   0  0  0  0  0  0  0  0  0  0  0  0
   16.2432   -3.4322  -12.2159 O   0  0  0  0  0  0  0  0  0  0  0  0
  2  3  1  0
  2  1  1  0
  3  5  1  0
  3  4  1  6
  5  7  1  0
  5  6  1  1
  7  8  2  0
 10  9  1  1
 10 12  1  0
 11 10  1  0
 13 12  1  6
 14 13  1  0
 14  7  1  0
 15 13  1  0
 15 16  2  0
 17 18  1  0
 18 20  1  0
 18 19  2  0
 20 21  1  0
 21 22  1  0
 22 23  1  0
 24 23  1  1
 24 25  1  0
 24 26  1  0
 25 15  1  0
 26 27  2  0
 26 28  1  0
M  END
$$$$
