ILR.pdb
     RDKit          3D

 28 27  0  0  1  0  0  0  0  0999 V2000
   28.1912  -19.7027  -17.2015 C   0  0  0  0  0  0  0  0  0  0  0  0
   28.6606  -19.0829  -15.8985 C   0  0  0  0  0  0  0  0  0  0  0  0
   27.6156  -19.4803  -14.8277 C   0  0  2  0  0  0  0  0  0  0  0  0
   27.1516  -18.2326  -14.1127 C   0  0  0  0  0  0  0  0  0  0  0  0
   28.2519  -20.4668  -13.8888 C   0  0  2  0  0  0  0  0  0  0  0  0
   28.6000  -21.7006  -14.6349 N   0  0  0  0  0  0  0  0  0  0  0  0
   27.4323  -20.8689  -12.7386 C   0  0  0  0  0  0  0  0  0  0  0  0
   26.4633  -21.7004  -12.9118 O   0  0  0  0  0  0  0  0  0  0  0  0
   25.9532  -21.7940   -7.5481 C   0  0  0  0  0  0  0  0  0  0  0  0
   26.2150  -20.3447   -7.9027 C   0  0  1  0  0  0  0  0  0  0  0  0
   26.5552  -19.5547   -6.6885 C   0  0  0  0  0  0  0  0  0  0  0  0
   27.1091  -20.1848   -9.0762 C   0  0  0  0  0  0  0  0  0  0  0  0
   26.6614  -20.8227  -10.3475 C   0  0  2  0  0  0  0  0  0  0  0  0
   27.5856  -20.4389  -11.4089 N   0  0  0  0  0  0  0  0  0  0  0  0
   25.3080  -20.2865  -10.7509 C   0  0  0  0  0  0  0  0  0  0  0  0
   25.1356  -19.0740  -11.0260 O   0  0  0  0  0  0  0  0  0  0  0  0
   19.2221  -20.0276  -16.2801 N   0  0  0  0  0  0  0  0  0  0  0  0
   20.6328  -19.8090  -16.3818 C   0  0  0  0  0  0  0  0  0  0  0  0
   21.1600  -19.0923  -17.2954 N   0  0  0  0  0  0  0  0  0  0  0  0
   21.5229  -20.4132  -15.4206 N   0  0  0  0  0  0  0  0  0  0  0  0
   20.9715  -21.3035  -14.4190 C   0  0  0  0  0  0  0  0  0  0  0  0
   21.2651  -20.8185  -13.0014 C   0  0  0  0  0  0  0  0  0  0  0  0
   22.6368  -21.2059  -12.5619 C   0  0  0  0  0  0  0  0  0  0  0  0
   22.9008  -20.7348  -11.1668 C   0  0  2  0  0  0  0  0  0  0  0  0
   24.2360  -21.2044  -10.8084 N   0  0  0  0  0  0  0  0  0  0  0  0
   21.8957  -21.1475  -10.2014 C   0  0  0  0  0  0  0  0  0  0  0  0
   22.0898  -21.8543   -9.1909 O   0  0  0  0  0  0  0  0  0  0  0  0
   20.5717  -20.7238  -10.4044 O   0  0  0  0  0  0  0  0  0  0  0  0
  2  3  1  0
  2  1  1  0
  3  5  1  0
  3  4  1  1
  5  7  1  0
  5  6  1  6
  7  8  2  0
 10  9  1  1
 10 12  1  0
 11 10  1  0
 13 12  1  1
 14 13  1  0
 14  7  1  0
 15 13  1  0
 15 16  2  0
 17 18  1  0
 18 20  1  0
 18 19  2  0
 20 21  1  0
 21 22  1  0
 22 23  1  0
 24 23  1  6
 24 25  1  0
 24 26  1  0
 25 15  1  0
 26 27  2  0
 26 28  1  0
M  END
$$$$
