ILR.pdb
     RDKit          3D

 28 27  0  0  1  0  0  0  0  0999 V2000
   26.4830  -19.6332   -2.9918 C   0  0  0  0  0  0  0  0  0  0  0  0
   27.7649  -19.3513   -3.7532 C   0  0  0  0  0  0  0  0  0  0  0  0
   27.5002  -19.7721   -5.2193 C   0  0  2  0  0  0  0  0  0  0  0  0
   27.1084  -21.2313   -5.2444 C   0  0  0  0  0  0  0  0  0  0  0  0
   28.7445  -19.5067   -6.0197 C   0  0  2  0  0  0  0  0  0  0  0  0
   29.1226  -18.0791   -5.8808 N   0  0  0  0  0  0  0  0  0  0  0  0
   28.6493  -19.7950   -7.4565 C   0  0  0  0  0  0  0  0  0  0  0  0
   28.1661  -18.9026   -8.2505 O   0  0  0  0  0  0  0  0  0  0  0  0
   32.6869  -22.7531   -9.6569 C   0  0  0  0  0  0  0  0  0  0  0  0
   31.6765  -21.6334   -9.5153 C   0  0  1  0  0  0  0  0  0  0  0  0
   32.1683  -20.3896  -10.1674 C   0  0  0  0  0  0  0  0  0  0  0  0
   30.2910  -22.0548   -9.8393 C   0  0  0  0  0  0  0  0  0  0  0  0
   29.2092  -21.0708   -9.5476 C   0  0  2  0  0  0  0  0  0  0  0  0
   29.0425  -20.9810   -8.1012 N   0  0  0  0  0  0  0  0  0  0  0  0
   27.8918  -21.5673  -10.0952 C   0  0  0  0  0  0  0  0  0  0  0  0
   27.3924  -22.6567   -9.7219 O   0  0  0  0  0  0  0  0  0  0  0  0
   21.0531  -18.9865  -13.3201 N   0  0  0  0  0  0  0  0  0  0  0  0
   20.5781  -20.0317  -12.4655 C   0  0  0  0  0  0  0  0  0  0  0  0
   19.5137  -20.6927  -12.7032 N   0  0  0  0  0  0  0  0  0  0  0  0
   21.3169  -20.3755  -11.2751 N   0  0  0  0  0  0  0  0  0  0  0  0
   22.6607  -19.8586  -11.1114 C   0  0  0  0  0  0  0  0  0  0  0  0
   23.6728  -20.6217  -11.9624 C   0  0  0  0  0  0  0  0  0  0  0  0
   25.0606  -20.1191  -11.7474 C   0  0  0  0  0  0  0  0  0  0  0  0
   26.0373  -21.2518  -11.7168 C   0  0  2  0  0  0  0  0  0  0  0  0
   27.2372  -20.7564  -11.0485 N   0  0  0  0  0  0  0  0  0  0  0  0
   26.3300  -21.8178  -13.0231 C   0  0  0  0  0  0  0  0  0  0  0  0
   27.3197  -21.5538  -13.7364 O   0  0  0  0  0  0  0  0  0  0  0  0
   25.4265  -22.7528  -13.5552 O   0  0  0  0  0  0  0  0  0  0  0  0
  2  3  1  0
  2  1  1  0
  3  5  1  0
  3  4  1  1
  5  7  1  0
  5  6  1  6
  7  8  2  0
 10  9  1  6
 10 12  1  0
 11 10  1  0
 13 12  1  1
 14 13  1  0
 14  7  1  0
 15 13  1  0
 15 16  2  0
 17 18  1  0
 18 20  1  0
 18 19  2  0
 20 21  1  0
 21 22  1  0
 22 23  1  0
 24 23  1  6
 24 25  1  0
 24 26  1  0
 25 15  1  0
 26 27  2  0
 26 28  1  0
M  END
$$$$
