ILR.pdb
     RDKit          3D

 28 27  0  0  1  0  0  0  0  0999 V2000
   27.2595  -20.1243   -3.7131 C   0  0  0  0  0  0  0  0  0  0  0  0
   28.0642  -20.0155   -4.9949 C   0  0  0  0  0  0  0  0  0  0  0  0
   27.0384  -20.0344   -6.1542 C   0  0  2  0  0  0  0  0  0  0  0  0
   26.2030  -21.2889   -6.0454 C   0  0  0  0  0  0  0  0  0  0  0  0
   27.7913  -19.9671   -7.4534 C   0  0  2  0  0  0  0  0  0  0  0  0
   28.7135  -18.8057   -7.4269 N   0  0  0  0  0  0  0  0  0  0  0  0
   26.9650  -19.8407   -8.6608 C   0  0  0  0  0  0  0  0  0  0  0  0
   26.3024  -18.7542   -8.8634 O   0  0  0  0  0  0  0  0  0  0  0  0
   28.8519  -21.4052  -13.5412 C   0  0  0  0  0  0  0  0  0  0  0  0
   28.1214  -20.5793  -12.5024 C   0  0  1  0  0  0  0  0  0  0  0  0
   28.0321  -19.1551  -12.9241 C   0  0  0  0  0  0  0  0  0  0  0  0
   26.8673  -21.2159  -12.0289 C   0  0  0  0  0  0  0  0  0  0  0  0
   26.1357  -20.5151  -10.9348 C   0  0  2  0  0  0  0  0  0  0  0  0
   26.8038  -20.8052   -9.6710 N   0  0  0  0  0  0  0  0  0  0  0  0
   24.7348  -21.0661  -10.8087 C   0  0  0  0  0  0  0  0  0  0  0  0
   24.4936  -22.1070  -10.1500 O   0  0  0  0  0  0  0  0  0  0  0  0
   19.9212  -17.9081  -15.3206 N   0  0  0  0  0  0  0  0  0  0  0  0
   18.8636  -18.0653  -14.3692 C   0  0  0  0  0  0  0  0  0  0  0  0
   17.6566  -18.3017  -14.7060 N   0  0  0  0  0  0  0  0  0  0  0  0
   19.1466  -17.9576  -12.9587 N   0  0  0  0  0  0  0  0  0  0  0  0
   20.5086  -17.7014  -12.5354 C   0  0  0  0  0  0  0  0  0  0  0  0
   21.3759  -18.9554  -12.6152 C   0  0  0  0  0  0  0  0  0  0  0  0
   21.4359  -19.6654  -11.3048 C   0  0  0  0  0  0  0  0  0  0  0  0
   22.3286  -20.8628  -11.3895 C   0  0  2  0  0  0  0  0  0  0  0  0
   23.6987  -20.3634  -11.4626 N   0  0  0  0  0  0  0  0  0  0  0  0
   22.0122  -21.7618  -12.4868 C   0  0  0  0  0  0  0  0  0  0  0  0
   22.6574  -21.8859  -13.5483 O   0  0  0  0  0  0  0  0  0  0  0  0
   20.8756  -22.5785  -12.3648 O   0  0  0  0  0  0  0  0  0  0  0  0
  2  3  1  0
  2  1  1  0
  3  5  1  0
  3  4  1  6
  5  7  1  0
  5  6  1  1
  7  8  2  0
 10  9  1  6
 10 12  1  0
 11 10  1  0
 13 12  1  6
 14 13  1  0
 14  7  1  0
 15 13  1  0
 15 16  2  0
 17 18  1  0
 18 20  1  0
 18 19  2  0
 20 21  1  0
 21 22  1  0
 22 23  1  0
 24 23  1  6
 24 25  1  0
 24 26  1  0
 25 15  1  0
 26 27  2  0
 26 28  1  0
M  END
$$$$
