ILR.pdb
     RDKit          3D

 28 27  0  0  1  0  0  0  0  0999 V2000
   26.7009  -19.5045   -2.6614 C   0  0  0  0  0  0  0  0  0  0  0  0
   28.0048  -19.4336   -3.4341 C   0  0  0  0  0  0  0  0  0  0  0  0
   27.6579  -19.7772   -4.9032 C   0  0  2  0  0  0  0  0  0  0  0  0
   27.0390  -21.1550   -4.9484 C   0  0  0  0  0  0  0  0  0  0  0  0
   28.9181  -19.6960   -5.7184 C   0  0  2  0  0  0  0  0  0  0  0  0
   29.5577  -18.3751   -5.5036 N   0  0  0  0  0  0  0  0  0  0  0  0
   28.7500  -19.8690   -7.1670 C   0  0  0  0  0  0  0  0  0  0  0  0
   28.2339  -18.9150   -7.8627 O   0  0  0  0  0  0  0  0  0  0  0  0
   32.3079  -22.9847  -10.0065 C   0  0  0  0  0  0  0  0  0  0  0  0
   31.4310  -21.7936   -9.6794 C   0  0  1  0  0  0  0  0  0  0  0  0
   31.9723  -20.5515  -10.2945 C   0  0  0  0  0  0  0  0  0  0  0  0
   29.9852  -22.0628   -9.8787 C   0  0  0  0  0  0  0  0  0  0  0  0
   29.0386  -21.0243   -9.3796 C   0  0  2  0  0  0  0  0  0  0  0  0
   29.1029  -21.0010   -7.9225 N   0  0  0  0  0  0  0  0  0  0  0  0
   27.6191  -21.3998   -9.7344 C   0  0  0  0  0  0  0  0  0  0  0  0
   26.8213  -21.8453   -8.8738 O   0  0  0  0  0  0  0  0  0  0  0  0
   20.5475  -19.7736  -12.6493 N   0  0  0  0  0  0  0  0  0  0  0  0
   20.3290  -19.5900  -11.2468 C   0  0  0  0  0  0  0  0  0  0  0  0
   19.1667  -19.4762  -10.7345 N   0  0  0  0  0  0  0  0  0  0  0  0
   21.4557  -19.5282  -10.3480 N   0  0  0  0  0  0  0  0  0  0  0  0
   22.7846  -19.3620  -10.9016 C   0  0  0  0  0  0  0  0  0  0  0  0
   23.5481  -20.6830  -10.9578 C   0  0  0  0  0  0  0  0  0  0  0  0
   24.9999  -20.4901  -10.6751 C   0  0  0  0  0  0  0  0  0  0  0  0
   25.8268  -21.4647  -11.4525 C   0  0  2  0  0  0  0  0  0  0  0  0
   27.2185  -21.2304  -11.0781 N   0  0  0  0  0  0  0  0  0  0  0  0
   25.6260  -21.3983  -12.8904 C   0  0  0  0  0  0  0  0  0  0  0  0
   26.3795  -20.8419  -13.7155 O   0  0  0  0  0  0  0  0  0  0  0  0
   24.4807  -22.0105  -13.4263 O   0  0  0  0  0  0  0  0  0  0  0  0
  2  3  1  0
  2  1  1  0
  3  5  1  0
  3  4  1  1
  5  7  1  0
  5  6  1  6
  7  8  2  0
 10  9  1  6
 10 12  1  0
 11 10  1  0
 13 12  1  1
 14 13  1  0
 14  7  1  0
 15 13  1  0
 15 16  2  0
 17 18  1  0
 18 20  1  0
 18 19  2  0
 20 21  1  0
 21 22  1  0
 22 23  1  0
 24 23  1  1
 24 25  1  0
 24 26  1  0
 25 15  1  0
 26 27  2  0
 26 28  1  0
M  END
$$$$
