ILR.pdb
     RDKit          3D

 28 27  0  0  1  0  0  0  0  0999 V2000
   20.0708  -22.3992  -13.4960 C   0  0  0  0  0  0  0  0  0  0  0  0
   20.5985  -22.1430  -12.0966 C   0  0  0  0  0  0  0  0  0  0  0  0
   22.0018  -21.5129  -12.2707 C   0  0  2  0  0  0  0  0  0  0  0  0
   22.8658  -22.4604  -13.0701 C   0  0  0  0  0  0  0  0  0  0  0  0
   22.5716  -21.2423  -10.9063 C   0  0  2  0  0  0  0  0  0  0  0  0
   21.6206  -20.4061  -10.1340 N   0  0  0  0  0  0  0  0  0  0  0  0
   23.8710  -20.5585  -10.8846 C   0  0  0  0  0  0  0  0  0  0  0  0
   23.9337  -19.3087  -11.1919 O   0  0  0  0  0  0  0  0  0  0  0  0
   27.5323  -20.7034   -6.8952 C   0  0  0  0  0  0  0  0  0  0  0  0
   26.7197  -20.1910   -8.0664 C   0  0  1  0  0  0  0  0  0  0  0  0
   26.5544  -18.7141   -7.9917 C   0  0  0  0  0  0  0  0  0  0  0  0
   27.1599  -20.7491   -9.3691 C   0  0  0  0  0  0  0  0  0  0  0  0
   26.3558  -20.3655  -10.5648 C   0  0  2  0  0  0  0  0  0  0  0  0
   25.1124  -21.1280  -10.5509 N   0  0  0  0  0  0  0  0  0  0  0  0
   27.0809  -20.7620  -11.8293 C   0  0  0  0  0  0  0  0  0  0  0  0
   27.7985  -21.7905  -11.8817 O   0  0  0  0  0  0  0  0  0  0  0  0
   27.0954  -25.6357  -15.8298 N   0  0  0  0  0  0  0  0  0  0  0  0
   25.6807  -25.5337  -16.0205 C   0  0  0  0  0  0  0  0  0  0  0  0
   24.8831  -26.5115  -15.8356 N   0  0  0  0  0  0  0  0  0  0  0  0
   25.1026  -24.2802  -16.4396 N   0  0  0  0  0  0  0  0  0  0  0  0
   25.8666  -23.0621  -16.2600 C   0  0  0  0  0  0  0  0  0  0  0  0
   26.2389  -22.8330  -14.7971 C   0  0  0  0  0  0  0  0  0  0  0  0
   25.7719  -21.5013  -14.3141 C   0  0  0  0  0  0  0  0  0  0  0  0
   26.8990  -20.5179  -14.2942 C   0  0  2  0  0  0  0  0  0  0  0  0
   26.9215  -19.9287  -12.9585 N   0  0  0  0  0  0  0  0  0  0  0  0
   26.8247  -19.5096  -15.3384 C   0  0  0  0  0  0  0  0  0  0  0  0
   25.9457  -18.6308  -15.4540 O   0  0  0  0  0  0  0  0  0  0  0  0
   27.8260  -19.5042  -16.3238 O   0  0  0  0  0  0  0  0  0  0  0  0
  2  3  1  0
  2  1  1  0
  3  5  1  0
  3  4  1  1
  5  7  1  0
  5  6  1  1
  7  8  2  0
 10  9  1  1
 10 12  1  0
 11 10  1  0
 13 12  1  1
 14 13  1  0
 14  7  1  0
 15 13  1  0
 15 16  2  0
 17 18  1  0
 18 20  1  0
 18 19  2  0
 20 21  1  0
 21 22  1  0
 22 23  1  0
 24 23  1  1
 24 25  1  0
 24 26  1  0
 25 15  1  0
 26 27  2  0
 26 28  1  0
M  END
$$$$
