HPY.pdb
     RDKit          3D

 30 32  0  0  1  0  0  0  0  0999 V2000
    7.9336  -13.0747   18.6357 N   0  0  0  0  0  0  0  0  0  0  0  0
    8.4432  -14.3326   19.0757 C   0  0  1  0  0  0  0  0  0  0  0  0
    9.9339  -14.3763   18.7605 C   0  0  0  0  0  0  0  0  0  0  0  0
   10.0791  -14.7228   17.2991 C   0  0  0  0  0  0  0  0  0  0  0  0
   10.2319  -15.9761   16.7554 C   0  0  0  0  0  0  0  0  0  0  0  0
   10.3225  -15.8510   15.4183 N   0  0  0  0  0  0  0  0  0  0  0  0
   10.2323  -14.5612   15.0943 C   0  0  0  0  0  0  0  0  0  0  0  0
   10.0833  -13.8725   16.2433 N   0  0  0  0  0  0  0  0  0  0  0  0
    8.1283  -14.7124   20.4538 C   0  0  0  0  0  0  0  0  0  0  0  0
    8.5061  -13.9396   21.3639 O   0  0  0  0  0  0  0  0  0  0  0  0
    7.4196  -15.9064   20.8443 N   0  0  0  0  0  0  0  0  0  0  0  0
    6.7854  -16.7200   19.8352 C   0  0  0  0  0  0  0  0  0  0  0  0
    6.0786  -17.8192   20.5986 C   0  0  0  0  0  0  0  0  0  0  0  0
    6.9406  -17.9615   21.8456 C   0  0  0  0  0  0  0  0  0  0  0  0
    7.1972  -16.4726   22.1183 C   0  0  1  0  0  0  0  0  0  0  0  0
    8.2899  -16.3445   23.1103 C   0  0  0  0  0  0  0  0  0  0  0  0
    9.4576  -16.1303   22.7527 O   0  0  0  0  0  0  0  0  0  0  0  0
    6.1756  -10.6609   26.2123 O   0  0  0  0  0  0  0  0  0  0  0  0
    6.7218  -11.9327   26.3489 C   0  0  0  0  0  0  0  0  0  0  0  0
    8.0518  -12.2076   26.1329 C   0  0  0  0  0  0  0  0  0  0  0  0
    8.5952  -13.4848   26.2723 C   0  0  0  0  0  0  0  0  0  0  0  0
    7.7767  -14.5299   26.6425 C   0  0  0  0  0  0  0  0  0  0  0  0
    8.3367  -15.8904   26.7982 C   0  0  0  0  0  0  0  0  0  0  0  0
    9.0491  -16.3430   25.5194 C   0  0  2  0  0  0  0  0  0  0  0  0
    8.0408  -16.4627   24.5181 N   0  0  0  0  0  0  0  0  0  0  0  0
    9.7458  -17.6032   25.8254 C   0  0  0  0  0  0  0  0  0  0  0  0
    9.2941  -18.7139   25.4322 O   0  0  0  0  0  0  0  0  0  0  0  0
    6.4417  -14.2524   26.8592 C   0  0  0  0  0  0  0  0  0  0  0  0
    5.9150  -12.9888   26.7186 C   0  0  0  0  0  0  0  0  0  0  0  0
   10.9198  -17.6332   26.5520 O   0  0  0  0  0  0  0  0  0  0  0  0
  2  1  1  1
  3  2  1  0
  3  4  1  0
  4  5  2  0
  4  8  1  0
  5  6  1  0
  6  7  1  0
  8  7  2  0
  9  2  1  0
 10  9  2  0
 11  9  1  0
 12 11  1  0
 13 12  1  0
 14 13  1  0
 15 14  1  0
 15 11  1  0
 15 16  1  1
 17 16  2  0
 19 20  2  0
 19 18  1  0
 21 20  1  0
 22 21  2  0
 23 22  1  0
 24 23  1  1
 24 25  1  0
 25 16  1  0
 26 24  1  0
 26 30  1  0
 27 26  2  0
 28 22  1  0
 28 29  2  0
 29 19  1  0
M  END
$$$$
