HPY.pdb
     RDKit          3D

 30 32  0  0  1  0  0  0  0  0999 V2000
   10.5382  -17.8678   21.1988 N   0  0  0  0  0  0  0  0  0  0  0  0
    9.2872  -17.1838   21.2503 C   0  0  1  0  0  0  0  0  0  0  0  0
    8.1974  -18.2103   21.5366 C   0  0  0  0  0  0  0  0  0  0  0  0
    7.6259  -18.6478   20.2103 C   0  0  0  0  0  0  0  0  0  0  0  0
    8.0023  -18.2134   18.9616 C   0  0  0  0  0  0  0  0  0  0  0  0
    7.2501  -18.8510   18.0454 N   0  0  0  0  0  0  0  0  0  0  0  0
    6.4092  -19.6755   18.6696 C   0  0  0  0  0  0  0  0  0  0  0  0
    6.6393  -19.5514   19.9918 N   0  0  0  0  0  0  0  0  0  0  0  0
    9.2261  -16.0110   22.1242 C   0  0  0  0  0  0  0  0  0  0  0  0
    9.6748  -16.1360   23.2867 O   0  0  0  0  0  0  0  0  0  0  0  0
    8.6884  -14.7256   21.7516 N   0  0  0  0  0  0  0  0  0  0  0  0
    8.5600  -14.3852   20.3551 C   0  0  0  0  0  0  0  0  0  0  0  0
    8.0526  -12.9594   20.3395 C   0  0  0  0  0  0  0  0  0  0  0  0
    7.2689  -12.8740   21.6420 C   0  0  0  0  0  0  0  0  0  0  0  0
    8.2397  -13.6477   22.5452 C   0  0  1  0  0  0  0  0  0  0  0  0
    7.5532  -13.9872   23.8133 C   0  0  0  0  0  0  0  0  0  0  0  0
    6.8157  -14.9804   23.8960 O   0  0  0  0  0  0  0  0  0  0  0  0
   11.7177  -17.0790   28.0323 O   0  0  0  0  0  0  0  0  0  0  0  0
   10.7483  -16.0939   27.8753 C   0  0  0  0  0  0  0  0  0  0  0  0
    9.4867  -16.1871   28.4144 C   0  0  0  0  0  0  0  0  0  0  0  0
    8.5182  -15.1959   28.2550 C   0  0  0  0  0  0  0  0  0  0  0  0
    8.8224  -14.0656   27.5276 C   0  0  0  0  0  0  0  0  0  0  0  0
    7.8085  -13.0028   27.3511 C   0  0  0  0  0  0  0  0  0  0  0  0
    6.8992  -13.3015   26.1547 C   0  0  2  0  0  0  0  0  0  0  0  0
    7.7143  -13.1835   24.9905 N   0  0  0  0  0  0  0  0  0  0  0  0
    5.7786  -12.3480   26.2037 C   0  0  0  0  0  0  0  0  0  0  0  0
    5.7520  -11.3293   25.4596 O   0  0  0  0  0  0  0  0  0  0  0  0
   10.0895  -13.9734   26.9871 C   0  0  0  0  0  0  0  0  0  0  0  0
   11.0381  -14.9571   27.1496 C   0  0  0  0  0  0  0  0  0  0  0  0
    4.7083  -12.5193   27.0594 O   0  0  0  0  0  0  0  0  0  0  0  0
  2  1  1  1
  3  2  1  0
  3  4  1  0
  4  5  2  0
  4  8  1  0
  5  6  1  0
  6  7  1  0
  8  7  2  0
  9  2  1  0
 10  9  2  0
 11  9  1  0
 12 11  1  0
 13 12  1  0
 14 13  1  0
 15 14  1  0
 15 11  1  0
 15 16  1  1
 17 16  2  0
 19 20  2  0
 19 18  1  0
 21 20  1  0
 22 21  2  0
 23 22  1  0
 24 23  1  1
 24 25  1  0
 25 16  1  0
 26 24  1  0
 26 30  1  0
 27 26  2  0
 28 22  1  0
 28 29  2  0
 29 19  1  0
M  END
$$$$
