HPY.pdb
     RDKit          3D

 30 32  0  0  1  0  0  0  0  0999 V2000
   11.0122  -14.8622   15.5635 N   0  0  0  0  0  0  0  0  0  0  0  0
    9.8473  -15.0320   16.3696 C   0  0  1  0  0  0  0  0  0  0  0  0
    9.2312  -16.3849   16.0328 C   0  0  0  0  0  0  0  0  0  0  0  0
    8.9051  -16.3813   14.5595 C   0  0  0  0  0  0  0  0  0  0  0  0
    7.8687  -15.7231   13.9413 C   0  0  0  0  0  0  0  0  0  0  0  0
    7.9324  -15.9755   12.6208 N   0  0  0  0  0  0  0  0  0  0  0  0
    8.9740  -16.7713   12.3792 C   0  0  0  0  0  0  0  0  0  0  0  0
    9.5682  -17.0186   13.5635 N   0  0  0  0  0  0  0  0  0  0  0  0
   10.0167  -14.8112   17.8067 C   0  0  0  0  0  0  0  0  0  0  0  0
   11.0177  -15.3277   18.3539 O   0  0  0  0  0  0  0  0  0  0  0  0
    9.1207  -14.0477   18.6402 N   0  0  0  0  0  0  0  0  0  0  0  0
    8.1708  -13.1498   18.0288 C   0  0  0  0  0  0  0  0  0  0  0  0
    7.4706  -12.4668   19.1837 C   0  0  0  0  0  0  0  0  0  0  0  0
    7.5486  -13.5165   20.2839 C   0  0  0  0  0  0  0  0  0  0  0  0
    8.9883  -13.9931   20.0447 C   0  0  1  0  0  0  0  0  0  0  0  0
    9.2097  -15.2541   20.7899 C   0  0  0  0  0  0  0  0  0  0  0  0
    8.7070  -16.3208   20.4069 O   0  0  0  0  0  0  0  0  0  0  0  0
   15.8874  -14.2515   20.2726 O   0  0  0  0  0  0  0  0  0  0  0  0
   14.7508  -14.9817   20.6035 C   0  0  0  0  0  0  0  0  0  0  0  0
   13.6108  -14.9890   19.8345 C   0  0  0  0  0  0  0  0  0  0  0  0
   12.4736  -15.7241   20.1702 C   0  0  0  0  0  0  0  0  0  0  0  0
   12.4754  -16.4826   21.3208 C   0  0  0  0  0  0  0  0  0  0  0  0
   11.2793  -17.2709   21.6905 C   0  0  0  0  0  0  0  0  0  0  0  0
   10.3811  -16.4900   22.6555 C   0  0  2  0  0  0  0  0  0  0  0  0
   10.0113  -15.2903   21.9791 N   0  0  0  0  0  0  0  0  0  0  0  0
   11.1485  -16.2711   23.8926 C   0  0  0  0  0  0  0  0  0  0  0  0
   11.4008  -15.1073   24.3099 O   0  0  0  0  0  0  0  0  0  0  0  0
   13.6207  -16.4743   22.0917 C   0  0  0  0  0  0  0  0  0  0  0  0
   14.7376  -15.7454   21.7523 C   0  0  0  0  0  0  0  0  0  0  0  0
   11.6266  -17.3201   24.6529 O   0  0  0  0  0  0  0  0  0  0  0  0
  2  1  1  6
  3  2  1  0
  3  4  1  0
  4  5  2  0
  4  8  1  0
  5  6  1  0
  6  7  1  0
  8  7  2  0
  9  2  1  0
 10  9  2  0
 11  9  1  0
 12 11  1  0
 13 12  1  0
 14 13  1  0
 15 14  1  0
 15 11  1  0
 15 16  1  1
 17 16  2  0
 19 20  2  0
 19 18  1  0
 21 20  1  0
 22 21  2  0
 23 22  1  0
 24 23  1  6
 24 25  1  0
 25 16  1  0
 26 24  1  0
 26 30  1  0
 27 26  2  0
 28 22  1  0
 28 29  2  0
 29 19  1  0
M  END
$$$$
