HPY.pdb
     RDKit          3D

 30 32  0  0  1  0  0  0  0  0999 V2000
    9.4702  -16.8846   16.9458 N   0  0  0  0  0  0  0  0  0  0  0  0
    9.3646  -17.5663   18.1947 C   0  0  1  0  0  0  0  0  0  0  0  0
   10.6163  -18.4167   18.3776 C   0  0  0  0  0  0  0  0  0  0  0  0
   10.5481  -19.5459   17.3791 C   0  0  0  0  0  0  0  0  0  0  0  0
    9.5818  -20.5198   17.2936 C   0  0  0  0  0  0  0  0  0  0  0  0
    9.8878  -21.3329   16.2655 N   0  0  0  0  0  0  0  0  0  0  0  0
   11.0153  -20.9085   15.6952 C   0  0  0  0  0  0  0  0  0  0  0  0
   11.4181  -19.8168   16.3752 N   0  0  0  0  0  0  0  0  0  0  0  0
    9.0483  -16.7382   19.3595 C   0  0  0  0  0  0  0  0  0  0  0  0
    9.8539  -15.8251   19.6519 O   0  0  0  0  0  0  0  0  0  0  0  0
    7.8837  -16.8931   20.1963 N   0  0  0  0  0  0  0  0  0  0  0  0
    6.8255  -17.7842   19.7857 C   0  0  0  0  0  0  0  0  0  0  0  0
    5.7493  -17.6338   20.8392 C   0  0  0  0  0  0  0  0  0  0  0  0
    6.5511  -17.2614   22.0788 C   0  0  0  0  0  0  0  0  0  0  0  0
    7.5442  -16.2892   21.4264 C   0  0  1  0  0  0  0  0  0  0  0  0
    8.6524  -16.0233   22.3728 C   0  0  0  0  0  0  0  0  0  0  0  0
    9.7431  -15.5876   21.9754 O   0  0  0  0  0  0  0  0  0  0  0  0
    5.2308  -11.6644   26.7703 O   0  0  0  0  0  0  0  0  0  0  0  0
    6.3261  -12.3421   26.2453 C   0  0  0  0  0  0  0  0  0  0  0  0
    6.6059  -12.3919   24.8999 C   0  0  0  0  0  0  0  0  0  0  0  0
    7.7065  -13.0722   24.3783 C   0  0  0  0  0  0  0  0  0  0  0  0
    8.5622  -13.7295   25.2357 C   0  0  0  0  0  0  0  0  0  0  0  0
    9.7361  -14.4533   24.7002 C   0  0  0  0  0  0  0  0  0  0  0  0
    9.5169  -15.9691   24.7455 C   0  0  2  0  0  0  0  0  0  0  0  0
    8.5077  -16.2585   23.7805 N   0  0  0  0  0  0  0  0  0  0  0  0
    9.1472  -16.3199   26.1266 C   0  0  0  0  0  0  0  0  0  0  0  0
    9.9770  -16.2217   27.0721 O   0  0  0  0  0  0  0  0  0  0  0  0
    8.2800  -13.6785   26.5862 C   0  0  0  0  0  0  0  0  0  0  0  0
    7.1913  -13.0049   27.0910 C   0  0  0  0  0  0  0  0  0  0  0  0
    7.8835  -16.7700   26.4544 O   0  0  0  0  0  0  0  0  0  0  0  0
  2  1  1  6
  3  2  1  0
  3  4  1  0
  4  5  2  0
  4  8  1  0
  5  6  1  0
  6  7  1  0
  8  7  2  0
  9  2  1  0
 10  9  2  0
 11  9  1  0
 12 11  1  0
 13 12  1  0
 14 13  1  0
 15 14  1  0
 15 11  1  0
 15 16  1  1
 17 16  2  0
 19 20  2  0
 19 18  1  0
 21 20  1  0
 22 21  2  0
 23 22  1  0
 24 23  1  1
 24 25  1  0
 25 16  1  0
 26 24  1  0
 26 30  1  0
 27 26  2  0
 28 22  1  0
 28 29  2  0
 29 19  1  0
M  END
$$$$
