HPY.pdb
     RDKit          3D

 30 32  0  0  1  0  0  0  0  0999 V2000
   12.2145  -13.7182   19.0490 N   0  0  0  0  0  0  0  0  0  0  0  0
   11.2215  -14.6928   19.3647 C   0  0  1  0  0  0  0  0  0  0  0  0
   11.8718  -16.0699   19.3000 C   0  0  0  0  0  0  0  0  0  0  0  0
   12.4055  -16.2548   17.9008 C   0  0  0  0  0  0  0  0  0  0  0  0
   11.6732  -16.4194   16.7492 C   0  0  0  0  0  0  0  0  0  0  0  0
   12.5276  -16.5476   15.7170 N   0  0  0  0  0  0  0  0  0  0  0  0
   13.7773  -16.4698   16.1739 C   0  0  0  0  0  0  0  0  0  0  0  0
   13.7024  -16.2906   17.5076 N   0  0  0  0  0  0  0  0  0  0  0  0
   10.4596  -14.4661   20.5938 C   0  0  0  0  0  0  0  0  0  0  0  0
   11.1039  -14.1475   21.6193 O   0  0  0  0  0  0  0  0  0  0  0  0
    9.0271  -14.5827   20.7157 N   0  0  0  0  0  0  0  0  0  0  0  0
    8.2031  -14.5030   19.5337 C   0  0  0  0  0  0  0  0  0  0  0  0
    6.7781  -14.5772   20.0379 C   0  0  0  0  0  0  0  0  0  0  0  0
    6.9214  -15.3988   21.3117 C   0  0  0  0  0  0  0  0  0  0  0  0
    8.2092  -14.7613   21.8524 C   0  0  1  0  0  0  0  0  0  0  0  0
    8.7477  -15.6093   22.9411 C   0  0  0  0  0  0  0  0  0  0  0  0
    9.9288  -15.9867   22.9341 O   0  0  0  0  0  0  0  0  0  0  0  0
    5.6512  -11.4540   27.6667 O   0  0  0  0  0  0  0  0  0  0  0  0
    6.4983  -12.4820   27.2664 C   0  0  0  0  0  0  0  0  0  0  0  0
    6.1106  -13.8004   27.2173 C   0  0  0  0  0  0  0  0  0  0  0  0
    6.9638  -14.8278   26.8140 C   0  0  0  0  0  0  0  0  0  0  0  0
    8.2568  -14.5258   26.4449 C   0  0  0  0  0  0  0  0  0  0  0  0
    9.1743  -15.6025   26.0115 C   0  0  0  0  0  0  0  0  0  0  0  0
    8.4277  -16.6734   25.2094 C   0  0  2  0  0  0  0  0  0  0  0  0
    7.9272  -16.0254   24.0418 N   0  0  0  0  0  0  0  0  0  0  0  0
    7.3820  -17.2298   26.0836 C   0  0  0  0  0  0  0  0  0  0  0  0
    6.1599  -16.9941   25.8754 O   0  0  0  0  0  0  0  0  0  0  0  0
    8.6445  -13.2017   26.4947 C   0  0  0  0  0  0  0  0  0  0  0  0
    7.7954  -12.1952   26.8944 C   0  0  0  0  0  0  0  0  0  0  0  0
    7.6833  -18.0318   27.1667 O   0  0  0  0  0  0  0  0  0  0  0  0
  2  1  1  1
  3  2  1  0
  3  4  1  0
  4  5  2  0
  4  8  1  0
  5  6  1  0
  6  7  1  0
  8  7  2  0
  9  2  1  0
 10  9  2  0
 11  9  1  0
 12 11  1  0
 13 12  1  0
 14 13  1  0
 15 14  1  0
 15 11  1  0
 15 16  1  1
 17 16  2  0
 19 20  2  0
 19 18  1  0
 21 20  1  0
 22 21  2  0
 23 22  1  0
 24 23  1  1
 24 25  1  0
 25 16  1  0
 26 24  1  0
 26 30  1  0
 27 26  2  0
 28 22  1  0
 28 29  2  0
 29 19  1  0
M  END
$$$$
