HPY.pdb
     RDKit          3D

 30 32  0  0  1  0  0  0  0  0999 V2000
   10.3018  -17.3665   17.8598 N   0  0  0  0  0  0  0  0  0  0  0  0
    9.1320  -16.9689   18.5734 C   0  0  1  0  0  0  0  0  0  0  0  0
    8.3621  -18.2266   18.9592 C   0  0  0  0  0  0  0  0  0  0  0  0
    7.6180  -18.6974   17.7338 C   0  0  0  0  0  0  0  0  0  0  0  0
    6.7496  -17.9658   16.9591 C   0  0  0  0  0  0  0  0  0  0  0  0
    6.3043  -18.7522   15.9616 N   0  0  0  0  0  0  0  0  0  0  0  0
    6.8605  -19.9581   16.0763 C   0  0  0  0  0  0  0  0  0  0  0  0
    7.6632  -19.9241   17.1585 N   0  0  0  0  0  0  0  0  0  0  0  0
    9.3379  -16.0467   19.6913 C   0  0  0  0  0  0  0  0  0  0  0  0
   10.3226  -16.2564   20.4361 O   0  0  0  0  0  0  0  0  0  0  0  0
    8.4952  -14.9181   20.0021 N   0  0  0  0  0  0  0  0  0  0  0  0
    7.6693  -14.3405   18.9693 C   0  0  0  0  0  0  0  0  0  0  0  0
    7.0000  -13.1478   19.6174 C   0  0  0  0  0  0  0  0  0  0  0  0
    6.9244  -13.5662   21.0794 C   0  0  0  0  0  0  0  0  0  0  0  0
    8.3144  -14.2055   21.2073 C   0  0  1  0  0  0  0  0  0  0  0  0
    8.3730  -14.9864   22.4647 C   0  0  0  0  0  0  0  0  0  0  0  0
    7.5772  -15.9123   22.6811 O   0  0  0  0  0  0  0  0  0  0  0  0
   10.2707  -16.1879   31.0502 O   0  0  0  0  0  0  0  0  0  0  0  0
   10.1829  -15.6913   29.7540 C   0  0  0  0  0  0  0  0  0  0  0  0
    9.7494  -14.4190   29.4634 C   0  0  0  0  0  0  0  0  0  0  0  0
    9.6642  -13.9251   28.1616 C   0  0  0  0  0  0  0  0  0  0  0  0
   10.0268  -14.7351   27.1072 C   0  0  0  0  0  0  0  0  0  0  0  0
    9.9457  -14.2266   25.7202 C   0  0  0  0  0  0  0  0  0  0  0  0
    9.3300  -15.2723   24.7848 C   0  0  2  0  0  0  0  0  0  0  0  0
    9.3489  -14.7033   23.4773 N   0  0  0  0  0  0  0  0  0  0  0  0
    7.9807  -15.5752   25.2896 C   0  0  0  0  0  0  0  0  0  0  0  0
    7.7457  -16.6315   25.9387 O   0  0  0  0  0  0  0  0  0  0  0  0
   10.4619  -16.0121   27.4005 C   0  0  0  0  0  0  0  0  0  0  0  0
   10.5421  -16.4904   28.6884 C   0  0  0  0  0  0  0  0  0  0  0  0
    6.9126  -14.7251   25.0805 O   0  0  0  0  0  0  0  0  0  0  0  0
  2  1  1  1
  3  2  1  0
  3  4  1  0
  4  5  2  0
  4  8  1  0
  5  6  1  0
  6  7  1  0
  8  7  2  0
  9  2  1  0
 10  9  2  0
 11  9  1  0
 12 11  1  0
 13 12  1  0
 14 13  1  0
 15 14  1  0
 15 11  1  0
 15 16  1  1
 17 16  2  0
 19 20  2  0
 19 18  1  0
 21 20  1  0
 22 21  2  0
 23 22  1  0
 24 23  1  1
 24 25  1  0
 25 16  1  0
 26 24  1  0
 26 30  1  0
 27 26  2  0
 28 22  1  0
 28 29  2  0
 29 19  1  0
M  END
$$$$
