HPY.pdb
     RDKit          3D

 30 32  0  0  1  0  0  0  0  0999 V2000
    9.9560  -17.6179   17.7959 N   0  0  0  0  0  0  0  0  0  0  0  0
    8.8638  -17.0543   18.5205 C   0  0  1  0  0  0  0  0  0  0  0  0
    7.9579  -18.1933   18.9740 C   0  0  0  0  0  0  0  0  0  0  0  0
    7.0623  -18.5507   17.8134 C   0  0  0  0  0  0  0  0  0  0  0  0
    6.9790  -17.9071   16.6015 C   0  0  0  0  0  0  0  0  0  0  0  0
    6.0637  -18.5416   15.8456 N   0  0  0  0  0  0  0  0  0  0  0  0
    5.5631  -19.5660   16.5359 C   0  0  0  0  0  0  0  0  0  0  0  0
    6.1735  -19.5715   17.7375 N   0  0  0  0  0  0  0  0  0  0  0  0
    9.2116  -16.1240   19.5958 C   0  0  0  0  0  0  0  0  0  0  0  0
   10.2091  -16.4049   20.2991 O   0  0  0  0  0  0  0  0  0  0  0  0
    8.4950  -14.9121   19.9089 N   0  0  0  0  0  0  0  0  0  0  0  0
    7.6941  -14.2754   18.8911 C   0  0  0  0  0  0  0  0  0  0  0  0
    7.1680  -13.0103   19.5342 C   0  0  0  0  0  0  0  0  0  0  0  0
    7.1030  -13.3914   21.0068 C   0  0  0  0  0  0  0  0  0  0  0  0
    8.4272  -14.1623   21.1032 C   0  0  1  0  0  0  0  0  0  0  0  0
    8.4528  -14.9212   22.3751 C   0  0  0  0  0  0  0  0  0  0  0  0
    7.5781  -15.7597   22.6382 O   0  0  0  0  0  0  0  0  0  0  0  0
   10.6993  -16.0848   30.8986 O   0  0  0  0  0  0  0  0  0  0  0  0
   10.5965  -15.6473   29.5823 C   0  0  0  0  0  0  0  0  0  0  0  0
   11.0116  -16.3957   28.5060 C   0  0  0  0  0  0  0  0  0  0  0  0
   10.9052  -15.9529   27.1874 C   0  0  0  0  0  0  0  0  0  0  0  0
   10.3622  -14.7119   26.9338 C   0  0  0  0  0  0  0  0  0  0  0  0
   10.2389  -14.2275   25.5413 C   0  0  0  0  0  0  0  0  0  0  0  0
    9.4321  -15.2095   24.6855 C   0  0  2  0  0  0  0  0  0  0  0  0
    9.4866  -14.7166   23.3485 N   0  0  0  0  0  0  0  0  0  0  0  0
    8.0735  -15.2721   25.2489 C   0  0  0  0  0  0  0  0  0  0  0  0
    7.7044  -16.2446   25.9633 O   0  0  0  0  0  0  0  0  0  0  0  0
    9.9458  -13.9617   28.0154 C   0  0  0  0  0  0  0  0  0  0  0  0
   10.0553  -14.4073   29.3129 C   0  0  0  0  0  0  0  0  0  0  0  0
    7.1419  -14.2772   25.0261 O   0  0  0  0  0  0  0  0  0  0  0  0
  2  1  1  1
  3  2  1  0
  3  4  1  0
  4  5  2  0
  4  8  1  0
  5  6  1  0
  6  7  1  0
  8  7  2  0
  9  2  1  0
 10  9  2  0
 11  9  1  0
 12 11  1  0
 13 12  1  0
 14 13  1  0
 15 14  1  0
 15 11  1  0
 15 16  1  1
 17 16  2  0
 19 20  2  0
 19 18  1  0
 21 20  1  0
 22 21  2  0
 23 22  1  0
 24 23  1  1
 24 25  1  0
 25 16  1  0
 26 24  1  0
 26 30  1  0
 27 26  2  0
 28 22  1  0
 28 29  2  0
 29 19  1  0
M  END
$$$$
