HPY.pdb
     RDKit          3D

 30 32  0  0  1  0  0  0  0  0999 V2000
    9.7049  -13.9028   21.6780 N   0  0  0  0  0  0  0  0  0  0  0  0
    8.5603  -13.9052   22.5298 C   0  0  1  0  0  0  0  0  0  0  0  0
    7.5649  -14.9219   21.9830 C   0  0  0  0  0  0  0  0  0  0  0  0
    7.3200  -14.5831   20.5331 C   0  0  0  0  0  0  0  0  0  0  0  0
    7.9196  -13.5853   19.8021 C   0  0  0  0  0  0  0  0  0  0  0  0
    7.4262  -13.6206   18.5503 N   0  0  0  0  0  0  0  0  0  0  0  0
    6.5340  -14.6068   18.4614 C   0  0  0  0  0  0  0  0  0  0  0  0
    6.4697  -15.1948   19.6725 N   0  0  0  0  0  0  0  0  0  0  0  0
    8.8197  -14.0571   23.9624 C   0  0  0  0  0  0  0  0  0  0  0  0
    9.8391  -14.7030   24.2969 O   0  0  0  0  0  0  0  0  0  0  0  0
    7.9929  -13.5231   25.0166 N   0  0  0  0  0  0  0  0  0  0  0  0
    6.8826  -12.6632   24.6844 C   0  0  0  0  0  0  0  0  0  0  0  0
    6.3042  -12.2306   26.0144 C   0  0  0  0  0  0  0  0  0  0  0  0
    6.6441  -13.4064   26.9200 C   0  0  0  0  0  0  0  0  0  0  0  0
    8.0691  -13.6785   26.4177 C   0  0  1  0  0  0  0  0  0  0  0  0
    8.5162  -14.9969   26.9241 C   0  0  0  0  0  0  0  0  0  0  0  0
    7.8462  -16.0206   26.7231 O   0  0  0  0  0  0  0  0  0  0  0  0
   11.7621  -17.6718   22.2735 O   0  0  0  0  0  0  0  0  0  0  0  0
   11.7209  -17.3971   23.6364 C   0  0  0  0  0  0  0  0  0  0  0  0
   11.9183  -16.1397   24.1568 C   0  0  0  0  0  0  0  0  0  0  0  0
   11.8748  -15.8691   25.5246 C   0  0  0  0  0  0  0  0  0  0  0  0
   11.6241  -16.8964   26.4084 C   0  0  0  0  0  0  0  0  0  0  0  0
   11.5713  -16.6269   27.8621 C   0  0  0  0  0  0  0  0  0  0  0  0
   10.1364  -16.3426   28.3183 C   0  0  2  0  0  0  0  0  0  0  0  0
    9.7370  -15.1403   27.6637 N   0  0  0  0  0  0  0  0  0  0  0  0
   10.1509  -16.2514   29.7876 C   0  0  0  0  0  0  0  0  0  0  0  0
    9.9723  -15.1503   30.3776 O   0  0  0  0  0  0  0  0  0  0  0  0
   11.4260  -18.1582   25.8843 C   0  0  0  0  0  0  0  0  0  0  0  0
   11.4713  -18.4152   24.5331 C   0  0  0  0  0  0  0  0  0  0  0  0
   10.3585  -17.3575   30.5879 O   0  0  0  0  0  0  0  0  0  0  0  0
  2  1  1  6
  3  2  1  0
  3  4  1  0
  4  5  2  0
  4  8  1  0
  5  6  1  0
  6  7  1  0
  8  7  2  0
  9  2  1  0
 10  9  2  0
 11  9  1  0
 12 11  1  0
 13 12  1  0
 14 13  1  0
 15 14  1  0
 15 11  1  0
 15 16  1  6
 17 16  2  0
 19 20  2  0
 19 18  1  0
 21 20  1  0
 22 21  2  0
 23 22  1  0
 24 23  1  6
 24 25  1  0
 25 16  1  0
 26 24  1  0
 26 30  1  0
 27 26  2  0
 28 22  1  0
 28 29  2  0
 29 19  1  0
M  END
$$$$
