HPY.pdb
     RDKit          3D

 30 32  0  0  1  0  0  0  0  0999 V2000
    7.0353  -18.6050   19.4673 N   0  0  0  0  0  0  0  0  0  0  0  0
    6.6637  -17.6281   20.4384 C   0  0  1  0  0  0  0  0  0  0  0  0
    5.8837  -18.3313   21.5433 C   0  0  0  0  0  0  0  0  0  0  0  0
    4.6217  -18.8837   20.9274 C   0  0  0  0  0  0  0  0  0  0  0  0
    3.6224  -18.1729   20.3064 C   0  0  0  0  0  0  0  0  0  0  0  0
    2.6781  -19.0390   19.8943 N   0  0  0  0  0  0  0  0  0  0  0  0
    3.0438  -20.2754   20.2321 C   0  0  0  0  0  0  0  0  0  0  0  0
    4.2312  -20.1802   20.8627 N   0  0  0  0  0  0  0  0  0  0  0  0
    7.7397  -16.7719   20.9401 C   0  0  0  0  0  0  0  0  0  0  0  0
    8.6689  -17.3260   21.5709 O   0  0  0  0  0  0  0  0  0  0  0  0
    7.8118  -15.3419   20.7662 N   0  0  0  0  0  0  0  0  0  0  0  0
    7.1106  -14.7220   19.6677 C   0  0  0  0  0  0  0  0  0  0  0  0
    7.4730  -13.2545   19.7435 C   0  0  0  0  0  0  0  0  0  0  0  0
    7.7288  -13.0545   21.2310 C   0  0  0  0  0  0  0  0  0  0  0  0
    8.4955  -14.3552   21.5091 C   0  0  1  0  0  0  0  0  0  0  0  0
    8.5856  -14.5591   22.9736 C   0  0  0  0  0  0  0  0  0  0  0  0
    7.8929  -13.8926   23.7566 O   0  0  0  0  0  0  0  0  0  0  0  0
    5.4490  -20.1051   24.3622 O   0  0  0  0  0  0  0  0  0  0  0  0
    6.2108  -18.9891   24.6921 C   0  0  0  0  0  0  0  0  0  0  0  0
    5.8177  -17.7009   24.4146 C   0  0  0  0  0  0  0  0  0  0  0  0
    6.5849  -16.5847   24.7485 C   0  0  0  0  0  0  0  0  0  0  0  0
    7.7940  -16.7626   25.3855 C   0  0  0  0  0  0  0  0  0  0  0  0
    8.6192  -15.5900   25.7499 C   0  0  0  0  0  0  0  0  0  0  0  0
    9.8949  -15.5292   24.9035 C   0  0  2  0  0  0  0  0  0  0  0  0
    9.4742  -15.5320   23.5410 N   0  0  0  0  0  0  0  0  0  0  0  0
   10.7280  -16.6837   25.2783 C   0  0  0  0  0  0  0  0  0  0  0  0
   10.9492  -17.6235   24.4657 O   0  0  0  0  0  0  0  0  0  0  0  0
    8.1872  -18.0565   25.6636 C   0  0  0  0  0  0  0  0  0  0  0  0
    7.4233  -19.1515   25.3296 C   0  0  0  0  0  0  0  0  0  0  0  0
   11.3052  -16.7953   26.5279 O   0  0  0  0  0  0  0  0  0  0  0  0
  2  1  1  6
  3  2  1  0
  3  4  1  0
  4  5  2  0
  4  8  1  0
  5  6  1  0
  6  7  1  0
  8  7  2  0
  9  2  1  0
 10  9  2  0
 11  9  1  0
 12 11  1  0
 13 12  1  0
 14 13  1  0
 15 14  1  0
 15 11  1  0
 15 16  1  1
 17 16  2  0
 19 20  2  0
 19 18  1  0
 21 20  1  0
 22 21  2  0
 23 22  1  0
 24 23  1  1
 24 25  1  0
 25 16  1  0
 26 24  1  0
 26 30  1  0
 27 26  2  0
 28 22  1  0
 28 29  2  0
 29 19  1  0
M  END
$$$$
