TKF.pdb
     RDKit          3D

 28 28  0  0  1  0  0  0  0  0999 V2000
    9.6322  -13.2771   17.5561 C   0  0  0  0  0  0  0  0  0  0  0  0
    9.5324  -13.8805   18.9349 C   0  0  1  0  0  0  0  0  0  0  0  0
    9.9205  -12.9310   19.8823 O   0  0  0  0  0  0  0  0  0  0  0  0
    8.1200  -14.3652   19.1898 C   0  0  2  0  0  0  0  0  0  0  0  0
    7.1701  -13.2902   19.0296 N   0  0  0  0  0  0  0  0  0  0  0  0
    7.9869  -15.0053   20.5397 C   0  0  0  0  0  0  0  0  0  0  0  0
    7.5476  -14.3553   21.5236 O   0  0  0  0  0  0  0  0  0  0  0  0
    8.3681  -16.3673   20.6905 N   0  0  0  0  0  0  0  0  0  0  0  0
    8.2539  -17.0763   21.9446 C   0  0  1  0  0  0  0  0  0  0  0  0
    8.3911  -18.5540   21.8192 C   0  0  0  0  0  0  0  0  0  0  0  0
    7.4166  -19.1763   20.8495 C   0  0  0  0  0  0  0  0  0  0  0  0
    7.6619  -20.6431   20.6396 C   0  0  0  0  0  0  0  0  0  0  0  0
    6.7477  -21.1970   19.5747 C   0  0  0  0  0  0  0  0  0  0  0  0
    7.0665  -22.5817   19.3384 N   0  0  0  0  0  0  0  0  0  0  0  0
    9.1815  -16.5125   22.9703 C   0  0  0  0  0  0  0  0  0  0  0  0
   10.3471  -16.2579   22.6199 O   0  0  0  0  0  0  0  0  0  0  0  0
    8.7986  -16.2614   24.2966 N   0  0  0  0  0  0  0  0  0  0  0  0
    9.7746  -15.7765   25.2811 C   0  0  1  0  0  0  0  0  0  0  0  0
    9.8824  -14.2894   25.2390 C   0  0  0  0  0  0  0  0  0  0  0  0
    8.6986  -13.5622   25.7096 C   0  0  0  0  0  0  0  0  0  0  0  0
    7.5566  -13.4767   24.9432 C   0  0  0  0  0  0  0  0  0  0  0  0
    6.4261  -12.8072   25.3698 C   0  0  0  0  0  0  0  0  0  0  0  0
    6.4667  -12.2096   26.6143 C   0  0  0  0  0  0  0  0  0  0  0  0
    7.6041  -12.2768   27.4143 C   0  0  0  0  0  0  0  0  0  0  0  0
    8.7193  -12.9598   26.9478 C   0  0  0  0  0  0  0  0  0  0  0  0
    9.4464  -16.3337   26.6142 C   0  0  0  0  0  0  0  0  0  0  0  0
    8.3901  -16.9934   26.7762 O   0  0  0  0  0  0  0  0  0  0  0  0
   10.3234  -16.1115   27.6589 O   0  0  0  0  0  0  0  0  0  0  0  0
  2  1  1  6
  3  2  1  0
  4  2  1  0
  4  6  1  0
  4  5  1  1
  6  8  1  0
  7  6  2  0
  8  9  1  0
  9 10  1  6
  9 15  1  0
 11 10  1  0
 12 11  1  0
 13 12  1  0
 14 13  1  0
 15 16  2  0
 15 17  1  0
 17 18  1  0
 18 26  1  0
 18 19  1  1
 19 20  1  0
 20 21  2  0
 20 25  1  0
 21 22  1  0
 22 23  2  0
 24 23  1  0
 25 24  2  0
 26 28  1  0
 27 26  2  0
M  END
$$$$
