TKF.pdb
     RDKit          3D

 28 28  0  0  1  0  0  0  0  0999 V2000
    9.1955  -14.6113   17.3572 C   0  0  0  0  0  0  0  0  0  0  0  0
    8.9724  -14.8823   18.8241 C   0  0  1  0  0  0  0  0  0  0  0  0
    9.9709  -14.2486   19.5665 O   0  0  0  0  0  0  0  0  0  0  0  0
    7.5949  -14.4065   19.2376 C   0  0  2  0  0  0  0  0  0  0  0  0
    7.4207  -13.0066   18.9322 N   0  0  0  0  0  0  0  0  0  0  0  0
    7.3243  -14.6796   20.6874 C   0  0  0  0  0  0  0  0  0  0  0  0
    7.5865  -13.8195   21.5677 O   0  0  0  0  0  0  0  0  0  0  0  0
    6.7635  -15.9345   21.0532 N   0  0  0  0  0  0  0  0  0  0  0  0
    6.5726  -16.3336   22.4289 C   0  0  1  0  0  0  0  0  0  0  0  0
    5.8529  -17.6277   22.5894 C   0  0  0  0  0  0  0  0  0  0  0  0
    6.3647  -18.7253   21.6889 C   0  0  0  0  0  0  0  0  0  0  0  0
    5.6270  -20.0203   21.8741 C   0  0  0  0  0  0  0  0  0  0  0  0
    6.1950  -21.0979   20.9837 C   0  0  0  0  0  0  0  0  0  0  0  0
    7.5829  -21.3083   21.3070 N   0  0  0  0  0  0  0  0  0  0  0  0
    7.8623  -16.3127   23.1815 C   0  0  0  0  0  0  0  0  0  0  0  0
    8.9025  -16.0776   22.5420 O   0  0  0  0  0  0  0  0  0  0  0  0
    7.9494  -16.5447   24.5626 N   0  0  0  0  0  0  0  0  0  0  0  0
    9.0689  -16.0057   25.3456 C   0  0  1  0  0  0  0  0  0  0  0  0
    9.1402  -14.5208   25.2239 C   0  0  0  0  0  0  0  0  0  0  0  0
    8.1054  -13.7821   25.9555 C   0  0  0  0  0  0  0  0  0  0  0  0
    8.2149  -13.5424   27.3080 C   0  0  0  0  0  0  0  0  0  0  0  0
    7.2590  -12.8399   28.0160 C   0  0  0  0  0  0  0  0  0  0  0  0
    6.1623  -12.3707   27.3199 C   0  0  0  0  0  0  0  0  0  0  0  0
    6.0205  -12.5950   25.9532 C   0  0  0  0  0  0  0  0  0  0  0  0
    7.0044  -13.3059   25.2792 C   0  0  0  0  0  0  0  0  0  0  0  0
    8.9819  -16.5071   26.7371 C   0  0  0  0  0  0  0  0  0  0  0  0
    9.8826  -16.2223   27.5645 O   0  0  0  0  0  0  0  0  0  0  0  0
    7.8967  -17.2850   27.0940 O   0  0  0  0  0  0  0  0  0  0  0  0
  2  1  1  6
  3  2  1  0
  4  2  1  0
  4  6  1  0
  4  5  1  1
  6  8  1  0
  7  6  2  0
  8  9  1  0
  9 10  1  6
  9 15  1  0
 11 10  1  0
 12 11  1  0
 13 12  1  0
 14 13  1  0
 15 16  2  0
 15 17  1  0
 17 18  1  0
 18 26  1  0
 18 19  1  1
 19 20  1  0
 20 21  2  0
 20 25  1  0
 21 22  1  0
 22 23  2  0
 24 23  1  0
 25 24  2  0
 26 28  1  0
 27 26  2  0
M  END
$$$$
