TKF.pdb
     RDKit          3D

 28 28  0  0  1  0  0  0  0  0999 V2000
    6.6025  -20.4588   21.8523 C   0  0  0  0  0  0  0  0  0  0  0  0
    7.4093  -19.1985   22.0416 C   0  0  1  0  0  0  0  0  0  0  0  0
    8.6905  -19.5340   22.4841 O   0  0  0  0  0  0  0  0  0  0  0  0
    7.4631  -18.4155   20.7460 C   0  0  2  0  0  0  0  0  0  0  0  0
    7.9624  -19.2363   19.6688 N   0  0  0  0  0  0  0  0  0  0  0  0
    8.2730  -17.1609   20.8876 C   0  0  0  0  0  0  0  0  0  0  0  0
    9.5275  -17.1865   20.7923 O   0  0  0  0  0  0  0  0  0  0  0  0
    7.5957  -15.9346   21.1335 N   0  0  0  0  0  0  0  0  0  0  0  0
    8.2921  -14.6849   21.3379 C   0  0  1  0  0  0  0  0  0  0  0  0
    7.5283  -13.4864   20.8923 C   0  0  0  0  0  0  0  0  0  0  0  0
    7.1101  -13.5347   19.4431 C   0  0  0  0  0  0  0  0  0  0  0  0
    8.2728  -13.4263   18.4986 C   0  0  0  0  0  0  0  0  0  0  0  0
    7.8047  -13.4152   17.0643 C   0  0  0  0  0  0  0  0  0  0  0  0
    8.9451  -13.3677   16.1855 N   0  0  0  0  0  0  0  0  0  0  0  0
    8.7658  -14.5549   22.7483 C   0  0  0  0  0  0  0  0  0  0  0  0
    8.2769  -13.6463   23.4423 O   0  0  0  0  0  0  0  0  0  0  0  0
    9.7277  -15.4037   23.3165 N   0  0  0  0  0  0  0  0  0  0  0  0
   10.2095  -15.1824   24.6861 C   0  0  1  0  0  0  0  0  0  0  0  0
    9.0942  -15.2964   25.6700 C   0  0  0  0  0  0  0  0  0  0  0  0
    9.4752  -15.1043   27.0734 C   0  0  0  0  0  0  0  0  0  0  0  0
   10.0723  -16.1115   27.7998 C   0  0  0  0  0  0  0  0  0  0  0  0
   10.4499  -15.9504   29.1188 C   0  0  0  0  0  0  0  0  0  0  0  0
   10.2095  -14.7251   29.7090 C   0  0  0  0  0  0  0  0  0  0  0  0
    9.6082  -13.6860   29.0040 C   0  0  0  0  0  0  0  0  0  0  0  0
    9.2439  -13.8896   27.6797 C   0  0  0  0  0  0  0  0  0  0  0  0
   11.3610  -16.0758   24.9526 C   0  0  0  0  0  0  0  0  0  0  0  0
   12.4195  -15.6074   25.4397 O   0  0  0  0  0  0  0  0  0  0  0  0
   11.2388  -17.4200   24.6554 O   0  0  0  0  0  0  0  0  0  0  0  0
  2  1  1  6
  3  2  1  0
  4  2  1  0
  4  6  1  0
  4  5  1  6
  6  8  1  0
  7  6  2  0
  8  9  1  0
  9 10  1  1
  9 15  1  0
 11 10  1  0
 12 11  1  0
 13 12  1  0
 14 13  1  0
 15 16  2  0
 15 17  1  0
 17 18  1  0
 18 26  1  0
 18 19  1  1
 19 20  1  0
 20 21  2  0
 20 25  1  0
 21 22  1  0
 22 23  2  0
 24 23  1  0
 25 24  2  0
 26 28  1  0
 27 26  2  0
M  END
$$$$
