TKF.pdb
     RDKit          3D

 28 28  0  0  1  0  0  0  0  0999 V2000
    9.7671  -12.9768   20.5487 C   0  0  0  0  0  0  0  0  0  0  0  0
    8.4499  -12.8020   19.8350 C   0  0  1  0  0  0  0  0  0  0  0  0
    8.6398  -12.0003   18.7076 O   0  0  0  0  0  0  0  0  0  0  0  0
    7.8789  -14.1536   19.4580 C   0  0  2  0  0  0  0  0  0  0  0  0
    6.7027  -14.0040   18.6348 N   0  0  0  0  0  0  0  0  0  0  0  0
    7.5871  -14.9909   20.6678 C   0  0  0  0  0  0  0  0  0  0  0  0
    6.5093  -14.8564   21.3032 O   0  0  0  0  0  0  0  0  0  0  0  0
    8.5547  -15.9450   21.0878 N   0  0  0  0  0  0  0  0  0  0  0  0
    8.2962  -16.9137   22.1287 C   0  0  1  0  0  0  0  0  0  0  0  0
    8.8260  -18.2742   21.8346 C   0  0  0  0  0  0  0  0  0  0  0  0
    8.4870  -18.7744   20.4518 C   0  0  0  0  0  0  0  0  0  0  0  0
    7.2262  -19.5900   20.4217 C   0  0  0  0  0  0  0  0  0  0  0  0
    6.9500  -20.1069   19.0313 C   0  0  0  0  0  0  0  0  0  0  0  0
    5.7065  -20.8339   19.0254 N   0  0  0  0  0  0  0  0  0  0  0  0
    8.7507  -16.4109   23.4594 C   0  0  0  0  0  0  0  0  0  0  0  0
    9.8854  -15.9077   23.5320 O   0  0  0  0  0  0  0  0  0  0  0  0
    7.9615  -16.4819   24.6175 N   0  0  0  0  0  0  0  0  0  0  0  0
    8.5130  -16.1077   25.9262 C   0  0  1  0  0  0  0  0  0  0  0  0
    7.4790  -15.4443   26.7721 C   0  0  0  0  0  0  0  0  0  0  0  0
    7.2429  -14.0271   26.4761 C   0  0  0  0  0  0  0  0  0  0  0  0
    5.9732  -13.5431   26.2475 C   0  0  0  0  0  0  0  0  0  0  0  0
    5.7252  -12.2110   25.9779 C   0  0  0  0  0  0  0  0  0  0  0  0
    6.8066  -11.3525   25.9417 C   0  0  0  0  0  0  0  0  0  0  0  0
    8.1024  -11.8084   26.1681 C   0  0  0  0  0  0  0  0  0  0  0  0
    8.3081  -13.1552   26.4357 C   0  0  0  0  0  0  0  0  0  0  0  0
    9.1513  -17.2918   26.5474 C   0  0  0  0  0  0  0  0  0  0  0  0
    8.9970  -18.4285   26.0364 O   0  0  0  0  0  0  0  0  0  0  0  0
    9.9113  -17.1125   27.6877 O   0  0  0  0  0  0  0  0  0  0  0  0
  2  1  1  6
  3  2  1  0
  4  2  1  0
  4  6  1  0
  4  5  1  1
  6  8  1  0
  7  6  2  0
  8  9  1  0
  9 10  1  6
  9 15  1  0
 11 10  1  0
 12 11  1  0
 13 12  1  0
 14 13  1  0
 15 16  2  0
 15 17  1  0
 17 18  1  0
 18 26  1  0
 18 19  1  1
 19 20  1  0
 20 21  2  0
 20 25  1  0
 21 22  1  0
 22 23  2  0
 24 23  1  0
 25 24  2  0
 26 28  1  0
 27 26  2  0
M  END
$$$$
