TKF.pdb
     RDKit          3D

 28 28  0  0  1  0  0  0  0  0999 V2000
    4.9520  -20.6401   24.6924 C   0  0  0  0  0  0  0  0  0  0  0  0
    5.8784  -19.5306   24.2611 C   0  0  1  0  0  0  0  0  0  0  0  0
    6.9983  -19.5154   25.0949 O   0  0  0  0  0  0  0  0  0  0  0  0
    6.2754  -19.7183   22.8113 C   0  0  2  0  0  0  0  0  0  0  0  0
    6.7967  -21.0457   22.5881 N   0  0  0  0  0  0  0  0  0  0  0  0
    7.2530  -18.6729   22.3627 C   0  0  0  0  0  0  0  0  0  0  0  0
    8.4918  -18.8924   22.3875 O   0  0  0  0  0  0  0  0  0  0  0  0
    6.7537  -17.4217   21.9064 N   0  0  0  0  0  0  0  0  0  0  0  0
    7.6166  -16.3131   21.5670 C   0  0  1  0  0  0  0  0  0  0  0  0
    7.0676  -15.4209   20.5083 C   0  0  0  0  0  0  0  0  0  0  0  0
    8.0851  -14.4731   19.9222 C   0  0  0  0  0  0  0  0  0  0  0  0
    7.5437  -13.6808   18.7668 C   0  0  0  0  0  0  0  0  0  0  0  0
    8.6226  -12.8318   18.1410 C   0  0  0  0  0  0  0  0  0  0  0  0
    8.0668  -12.0730   17.0500 N   0  0  0  0  0  0  0  0  0  0  0  0
    8.0230  -15.5520   22.7859 C   0  0  0  0  0  0  0  0  0  0  0  0
    7.5222  -14.4274   22.9606 O   0  0  0  0  0  0  0  0  0  0  0  0
    8.9355  -16.0457   23.7307 N   0  0  0  0  0  0  0  0  0  0  0  0
    9.0146  -15.4606   25.0754 C   0  0  1  0  0  0  0  0  0  0  0  0
    7.6756  -15.4478   25.7324 C   0  0  0  0  0  0  0  0  0  0  0  0
    7.2611  -14.1534   26.2841 C   0  0  0  0  0  0  0  0  0  0  0  0
    8.0179  -13.5021   27.2338 C   0  0  0  0  0  0  0  0  0  0  0  0
    7.6538  -12.2776   27.7596 C   0  0  0  0  0  0  0  0  0  0  0  0
    6.4836  -11.7055   27.3003 C   0  0  0  0  0  0  0  0  0  0  0  0
    5.6956  -12.3363   26.3415 C   0  0  0  0  0  0  0  0  0  0  0  0
    6.0976  -13.5665   25.8388 C   0  0  0  0  0  0  0  0  0  0  0  0
   10.0748  -16.1482   25.8490 C   0  0  0  0  0  0  0  0  0  0  0  0
   10.7620  -15.5055   26.6808 O   0  0  0  0  0  0  0  0  0  0  0  0
   10.2825  -17.4974   25.6334 O   0  0  0  0  0  0  0  0  0  0  0  0
  2  1  1  1
  3  2  1  0
  4  2  1  0
  4  6  1  0
  4  5  1  1
  6  8  1  0
  7  6  2  0
  8  9  1  0
  9 10  1  6
  9 15  1  0
 11 10  1  0
 12 11  1  0
 13 12  1  0
 14 13  1  0
 15 16  2  0
 15 17  1  0
 17 18  1  0
 18 26  1  0
 18 19  1  1
 19 20  1  0
 20 21  2  0
 20 25  1  0
 21 22  1  0
 22 23  2  0
 24 23  1  0
 25 24  2  0
 26 28  1  0
 27 26  2  0
M  END
$$$$
