TKF.pdb
     RDKit          3D

 28 28  0  0  1  0  0  0  0  0999 V2000
    9.7261  -14.7418   17.0347 C   0  0  0  0  0  0  0  0  0  0  0  0
    9.2504  -14.9822   18.4457 C   0  0  1  0  0  0  0  0  0  0  0  0
   10.2628  -14.6277   19.3397 O   0  0  0  0  0  0  0  0  0  0  0  0
    7.9840  -14.1939   18.7093 C   0  0  2  0  0  0  0  0  0  0  0  0
    8.1744  -12.7963   18.4027 N   0  0  0  0  0  0  0  0  0  0  0  0
    7.4988  -14.3755   20.1170 C   0  0  0  0  0  0  0  0  0  0  0  0
    7.6487  -13.4676   20.9753 O   0  0  0  0  0  0  0  0  0  0  0  0
    6.8631  -15.5985   20.4679 N   0  0  0  0  0  0  0  0  0  0  0  0
    6.4351  -15.8979   21.8155 C   0  0  1  0  0  0  0  0  0  0  0  0
    5.1183  -16.5895   21.8927 C   0  0  0  0  0  0  0  0  0  0  0  0
    5.0507  -17.8630   21.0859 C   0  0  0  0  0  0  0  0  0  0  0  0
    3.7499  -18.5933   21.2605 C   0  0  0  0  0  0  0  0  0  0  0  0
    3.6679  -19.7803   20.3326 C   0  0  0  0  0  0  0  0  0  0  0  0
    2.4393  -20.4939   20.5702 N   0  0  0  0  0  0  0  0  0  0  0  0
    7.4969  -16.6285   22.5697 C   0  0  0  0  0  0  0  0  0  0  0  0
    7.3594  -17.8548   22.7226 O   0  0  0  0  0  0  0  0  0  0  0  0
    8.6291  -15.9977   23.1074 N   0  0  0  0  0  0  0  0  0  0  0  0
    8.5572  -15.2959   24.3955 C   0  0  1  0  0  0  0  0  0  0  0  0
    7.6895  -14.0866   24.2976 C   0  0  0  0  0  0  0  0  0  0  0  0
    7.4138  -13.4092   25.5691 C   0  0  0  0  0  0  0  0  0  0  0  0
    8.3822  -12.6711   26.2142 C   0  0  0  0  0  0  0  0  0  0  0  0
    8.1429  -12.0154   27.4064 C   0  0  0  0  0  0  0  0  0  0  0  0
    6.8781  -12.1187   27.9518 C   0  0  0  0  0  0  0  0  0  0  0  0
    5.8766  -12.8561   27.3262 C   0  0  0  0  0  0  0  0  0  0  0  0
    6.1589  -13.5000   26.1290 C   0  0  0  0  0  0  0  0  0  0  0  0
    8.1638  -16.2533   25.4555 C   0  0  0  0  0  0  0  0  0  0  0  0
    7.1033  -16.9161   25.3408 O   0  0  0  0  0  0  0  0  0  0  0  0
    8.9854  -16.3953   26.5577 O   0  0  0  0  0  0  0  0  0  0  0  0
  2  1  1  6
  3  2  1  0
  4  2  1  0
  4  6  1  0
  4  5  1  1
  6  8  1  0
  7  6  2  0
  8  9  1  0
  9 10  1  6
  9 15  1  0
 11 10  1  0
 12 11  1  0
 13 12  1  0
 14 13  1  0
 15 16  2  0
 15 17  1  0
 17 18  1  0
 18 26  1  0
 18 19  1  6
 19 20  1  0
 20 21  2  0
 20 25  1  0
 21 22  1  0
 22 23  2  0
 24 23  1  0
 25 24  2  0
 26 28  1  0
 27 26  2  0
M  END
$$$$
