TKF.pdb
     RDKit          3D

 28 28  0  0  1  0  0  0  0  0999 V2000
    9.6039  -14.3619   16.9398 C   0  0  0  0  0  0  0  0  0  0  0  0
    9.2083  -14.6709   18.3622 C   0  0  1  0  0  0  0  0  0  0  0  0
   10.0687  -14.0019   19.2351 O   0  0  0  0  0  0  0  0  0  0  0  0
    7.7662  -14.2723   18.5995 C   0  0  2  0  0  0  0  0  0  0  0  0
    7.5602  -12.8775   18.2902 N   0  0  0  0  0  0  0  0  0  0  0  0
    7.3261  -14.5847   19.9990 C   0  0  0  0  0  0  0  0  0  0  0  0
    7.3256  -13.6967   20.8906 O   0  0  0  0  0  0  0  0  0  0  0  0
    6.9070  -15.9093   20.3036 N   0  0  0  0  0  0  0  0  0  0  0  0
    6.5761  -16.3351   21.6445 C   0  0  1  0  0  0  0  0  0  0  0  0
    5.9066  -17.6639   21.7097 C   0  0  0  0  0  0  0  0  0  0  0  0
    4.5882  -17.7184   20.9774 C   0  0  0  0  0  0  0  0  0  0  0  0
    4.0184  -19.1064   20.9088 C   0  0  0  0  0  0  0  0  0  0  0  0
    2.6227  -19.0899   20.3357 C   0  0  0  0  0  0  0  0  0  0  0  0
    2.1323  -20.4395   20.2223 N   0  0  0  0  0  0  0  0  0  0  0  0
    7.7665  -16.2627   22.5434 C   0  0  0  0  0  0  0  0  0  0  0  0
    8.8614  -16.6343   22.0860 O   0  0  0  0  0  0  0  0  0  0  0  0
    7.7027  -15.7994   23.8663 N   0  0  0  0  0  0  0  0  0  0  0  0
    8.9112  -15.7337   24.6982 C   0  0  1  0  0  0  0  0  0  0  0  0
    9.3386  -14.3203   24.9093 C   0  0  0  0  0  0  0  0  0  0  0  0
    8.3622  -13.4666   25.5945 C   0  0  0  0  0  0  0  0  0  0  0  0
    7.3591  -12.8241   24.9019 C   0  0  0  0  0  0  0  0  0  0  0  0
    6.4218  -12.0244   25.5268 C   0  0  0  0  0  0  0  0  0  0  0  0
    6.5148  -11.8792   26.8971 C   0  0  0  0  0  0  0  0  0  0  0  0
    7.5157  -12.5142   27.6274 C   0  0  0  0  0  0  0  0  0  0  0  0
    8.4380  -13.3094   26.9605 C   0  0  0  0  0  0  0  0  0  0  0  0
    8.6926  -16.5047   25.9444 C   0  0  0  0  0  0  0  0  0  0  0  0
    9.6123  -16.5978   26.7945 O   0  0  0  0  0  0  0  0  0  0  0  0
    7.4656  -17.1090   26.1426 O   0  0  0  0  0  0  0  0  0  0  0  0
  2  1  1  6
  3  2  1  0
  4  2  1  0
  4  6  1  0
  4  5  1  1
  6  8  1  0
  7  6  2  0
  8  9  1  0
  9 10  1  6
  9 15  1  0
 11 10  1  0
 12 11  1  0
 13 12  1  0
 14 13  1  0
 15 16  2  0
 15 17  1  0
 17 18  1  0
 18 26  1  0
 18 19  1  1
 19 20  1  0
 20 21  2  0
 20 25  1  0
 21 22  1  0
 22 23  2  0
 24 23  1  0
 25 24  2  0
 26 28  1  0
 27 26  2  0
M  END
$$$$
