TKF.pdb
     RDKit          3D

 28 28  0  0  1  0  0  0  0  0999 V2000
    7.6415  -14.2381   21.5760 C   0  0  0  0  0  0  0  0  0  0  0  0
    6.4938  -15.1273   21.9850 C   0  0  1  0  0  0  0  0  0  0  0  0
    5.3533  -14.7679   21.2639 O   0  0  0  0  0  0  0  0  0  0  0  0
    6.8539  -16.5806   21.7549 C   0  0  2  0  0  0  0  0  0  0  0  0
    5.6939  -17.4274   21.8992 N   0  0  0  0  0  0  0  0  0  0  0  0
    7.9638  -17.0284   22.6590 C   0  0  0  0  0  0  0  0  0  0  0  0
    7.7197  -17.4855   23.8057 O   0  0  0  0  0  0  0  0  0  0  0  0
    9.3049  -16.9267   22.1963 N   0  0  0  0  0  0  0  0  0  0  0  0
   10.4411  -17.3068   23.0045 C   0  0  1  0  0  0  0  0  0  0  0  0
   11.6745  -17.5907   22.2194 C   0  0  0  0  0  0  0  0  0  0  0  0
   12.8122  -18.1355   23.0477 C   0  0  0  0  0  0  0  0  0  0  0  0
   14.0607  -18.3608   22.2438 C   0  0  0  0  0  0  0  0  0  0  0  0
   15.1498  -18.9655   23.0951 C   0  0  0  0  0  0  0  0  0  0  0  0
   16.3056  -19.2356   22.2789 N   0  0  0  0  0  0  0  0  0  0  0  0
   10.6859  -16.3143   24.0932 C   0  0  0  0  0  0  0  0  0  0  0  0
   11.2696  -15.2580   23.7937 O   0  0  0  0  0  0  0  0  0  0  0  0
   10.2905  -16.5207   25.4235 N   0  0  0  0  0  0  0  0  0  0  0  0
   10.8043  -15.6652   26.5011 C   0  0  1  0  0  0  0  0  0  0  0  0
   10.5701  -14.2238   26.1969 C   0  0  0  0  0  0  0  0  0  0  0  0
    9.1817  -13.7719   26.3371 C   0  0  0  0  0  0  0  0  0  0  0  0
    8.7736  -13.0327   27.4260 C   0  0  0  0  0  0  0  0  0  0  0  0
    7.4746  -12.5867   27.5743 C   0  0  0  0  0  0  0  0  0  0  0  0
    6.5700  -12.9064   26.5807 C   0  0  0  0  0  0  0  0  0  0  0  0
    6.9489  -13.6514   25.4674 C   0  0  0  0  0  0  0  0  0  0  0  0
    8.2648  -14.0803   25.3570 C   0  0  0  0  0  0  0  0  0  0  0  0
   10.2491  -16.1203   27.7971 C   0  0  0  0  0  0  0  0  0  0  0  0
   10.5422  -15.5098   28.8547 O   0  0  0  0  0  0  0  0  0  0  0  0
    9.4107  -17.2189   27.8092 O   0  0  0  0  0  0  0  0  0  0  0  0
  2  1  1  6
  3  2  1  0
  4  2  1  0
  4  6  1  0
  4  5  1  1
  6  8  1  0
  7  6  2  0
  8  9  1  0
  9 10  1  6
  9 15  1  0
 11 10  1  0
 12 11  1  0
 13 12  1  0
 14 13  1  0
 15 16  2  0
 15 17  1  0
 17 18  1  0
 18 26  1  0
 18 19  1  6
 19 20  1  0
 20 21  2  0
 20 25  1  0
 21 22  1  0
 22 23  2  0
 24 23  1  0
 25 24  2  0
 26 28  1  0
 27 26  2  0
M  END
$$$$
