TKF.pdb
     RDKit          3D

 28 28  0  0  1  0  0  0  0  0999 V2000
    9.8018  -13.5747   17.0356 C   0  0  0  0  0  0  0  0  0  0  0  0
    9.5406  -14.2223   18.3726 C   0  0  1  0  0  0  0  0  0  0  0  0
   10.3715  -13.6441   19.3344 O   0  0  0  0  0  0  0  0  0  0  0  0
    8.0804  -14.0729   18.7467 C   0  0  2  0  0  0  0  0  0  0  0  0
    7.6695  -12.6910   18.6756 N   0  0  0  0  0  0  0  0  0  0  0  0
    7.7909  -14.6523   20.0996 C   0  0  0  0  0  0  0  0  0  0  0  0
    7.7711  -13.9231   21.1250 O   0  0  0  0  0  0  0  0  0  0  0  0
    7.5381  -16.0480   20.2052 N   0  0  0  0  0  0  0  0  0  0  0  0
    7.4301  -16.7284   21.4756 C   0  0  1  0  0  0  0  0  0  0  0  0
    7.1192  -18.1804   21.3601 C   0  0  0  0  0  0  0  0  0  0  0  0
    6.9359  -18.8719   22.6888 C   0  0  0  0  0  0  0  0  0  0  0  0
    6.5923  -20.3268   22.5444 C   0  0  0  0  0  0  0  0  0  0  0  0
    6.2610  -20.9393   23.8829 C   0  0  0  0  0  0  0  0  0  0  0  0
    6.0155  -22.3494   23.7203 N   0  0  0  0  0  0  0  0  0  0  0  0
    8.6320  -16.4787   22.3261 C   0  0  0  0  0  0  0  0  0  0  0  0
    9.6272  -15.9647   21.7861 O   0  0  0  0  0  0  0  0  0  0  0  0
    8.6857  -16.7961   23.6918 N   0  0  0  0  0  0  0  0  0  0  0  0
    8.7565  -15.7370   24.7068 C   0  0  1  0  0  0  0  0  0  0  0  0
    7.7221  -14.6909   24.4608 C   0  0  0  0  0  0  0  0  0  0  0  0
    7.5646  -13.7018   25.5325 C   0  0  0  0  0  0  0  0  0  0  0  0
    8.5088  -13.5636   26.5265 C   0  0  0  0  0  0  0  0  0  0  0  0
    8.3877  -12.6320   27.5394 C   0  0  0  0  0  0  0  0  0  0  0  0
    7.2699  -11.8209   27.5336 C   0  0  0  0  0  0  0  0  0  0  0  0
    6.2969  -11.9340   26.5443 C   0  0  0  0  0  0  0  0  0  0  0  0
    6.4570  -12.8835   25.5441 C   0  0  0  0  0  0  0  0  0  0  0  0
    8.7092  -16.3459   26.0567 C   0  0  0  0  0  0  0  0  0  0  0  0
    9.5847  -16.0535   26.9083 O   0  0  0  0  0  0  0  0  0  0  0  0
    7.6887  -17.2310   26.3485 O   0  0  0  0  0  0  0  0  0  0  0  0
  2  1  1  6
  3  2  1  0
  4  2  1  0
  4  6  1  0
  4  5  1  1
  6  8  1  0
  7  6  2  0
  8  9  1  0
  9 10  1  6
  9 15  1  0
 11 10  1  0
 12 11  1  0
 13 12  1  0
 14 13  1  0
 15 16  2  0
 15 17  1  0
 17 18  1  0
 18 26  1  0
 18 19  1  6
 19 20  1  0
 20 21  2  0
 20 25  1  0
 21 22  1  0
 22 23  2  0
 24 23  1  0
 25 24  2  0
 26 28  1  0
 27 26  2  0
M  END
$$$$
