TKF.pdb
     RDKit          3D

 28 28  0  0  1  0  0  0  0  0999 V2000
    5.6946  -18.3151   23.9770 C   0  0  0  0  0  0  0  0  0  0  0  0
    6.1071  -19.1497   22.7902 C   0  0  1  0  0  0  0  0  0  0  0  0
    5.1820  -20.1796   22.6077 O   0  0  0  0  0  0  0  0  0  0  0  0
    6.2123  -18.2804   21.5541 C   0  0  2  0  0  0  0  0  0  0  0  0
    6.3613  -19.0887   20.3676 N   0  0  0  0  0  0  0  0  0  0  0  0
    7.3258  -17.2821   21.6696 C   0  0  0  0  0  0  0  0  0  0  0  0
    8.5292  -17.6470   21.6241 O   0  0  0  0  0  0  0  0  0  0  0  0
    6.9971  -15.9079   21.8326 N   0  0  0  0  0  0  0  0  0  0  0  0
    7.9972  -14.8835   22.0300 C   0  0  1  0  0  0  0  0  0  0  0  0
    7.6261  -13.5578   21.4617 C   0  0  0  0  0  0  0  0  0  0  0  0
    7.2113  -13.6110   20.0117 C   0  0  0  0  0  0  0  0  0  0  0  0
    8.3061  -13.1811   19.0778 C   0  0  0  0  0  0  0  0  0  0  0  0
    7.8712  -13.3114   17.6389 C   0  0  0  0  0  0  0  0  0  0  0  0
    8.9580  -12.9367   16.7709 N   0  0  0  0  0  0  0  0  0  0  0  0
    8.3945  -14.7861   23.4663 C   0  0  0  0  0  0  0  0  0  0  0  0
    7.8201  -13.9370   24.1701 O   0  0  0  0  0  0  0  0  0  0  0  0
    9.3770  -15.6015   24.0483 N   0  0  0  0  0  0  0  0  0  0  0  0
    9.7314  -15.4550   25.4660 C   0  0  1  0  0  0  0  0  0  0  0  0
    8.5181  -15.5281   26.3306 C   0  0  0  0  0  0  0  0  0  0  0  0
    7.8377  -14.2498   26.5640 C   0  0  0  0  0  0  0  0  0  0  0  0
    6.4634  -14.1528   26.5389 C   0  0  0  0  0  0  0  0  0  0  0  0
    5.8001  -12.9625   26.7667 C   0  0  0  0  0  0  0  0  0  0  0  0
    6.5651  -11.8424   27.0271 C   0  0  0  0  0  0  0  0  0  0  0  0
    7.9555  -11.9054   27.0599 C   0  0  0  0  0  0  0  0  0  0  0  0
    8.5828  -13.1216   26.8255 C   0  0  0  0  0  0  0  0  0  0  0  0
   10.7938  -16.4287   25.8102 C   0  0  0  0  0  0  0  0  0  0  0  0
   11.2785  -16.4456   26.9686 O   0  0  0  0  0  0  0  0  0  0  0  0
   11.2293  -17.3058   24.8350 O   0  0  0  0  0  0  0  0  0  0  0  0
  2  1  1  1
  3  2  1  0
  4  2  1  0
  4  6  1  0
  4  5  1  6
  6  8  1  0
  7  6  2  0
  8  9  1  0
  9 10  1  1
  9 15  1  0
 11 10  1  0
 12 11  1  0
 13 12  1  0
 14 13  1  0
 15 16  2  0
 15 17  1  0
 17 18  1  0
 18 26  1  0
 18 19  1  1
 19 20  1  0
 20 21  2  0
 20 25  1  0
 21 22  1  0
 22 23  2  0
 24 23  1  0
 25 24  2  0
 26 28  1  0
 27 26  2  0
M  END
$$$$
