EMA.pdb
     RDKit          3D

 23 22  0  0  1  0  0  0  0  0999 V2000
   19.4624  -14.9740  -17.3264 N   0  0  0  0  0  0  0  0  0  0  0  0
   18.9427  -13.6446  -17.2000 C   0  0  1  0  0  0  0  0  0  0  0  0
   17.6952  -13.5777  -16.3919 C   0  0  0  0  0  0  0  0  0  0  0  0
   17.3722  -14.7872  -15.5875 C   0  0  0  0  0  0  0  0  0  0  0  0
   16.0348  -15.3614  -15.7344 C   0  0  0  0  0  0  0  0  0  0  0  0
   15.1591  -15.2177  -14.8654 O   0  0  0  0  0  0  0  0  0  0  0  0
   20.0312  -12.7954  -16.5920 C   0  0  0  0  0  0  0  0  0  0  0  0
   20.3532  -12.9971  -15.4000 O   0  0  0  0  0  0  0  0  0  0  0  0
   15.6633  -16.1038  -16.8578 O   0  0  0  0  0  0  0  0  0  0  0  0
   26.3635  -10.3216  -15.1450 C   0  0  0  0  0  0  0  0  0  0  0  0
   25.0693  -11.1995  -16.0424 S   0  0  0  0  0  0  0  0  0  0  0  0
   24.0798  -10.0847  -17.0582 C   0  0  0  0  0  0  0  0  0  0  0  0
   22.9027  -10.7741  -17.6991 C   0  0  0  0  0  0  0  0  0  0  0  0
   21.7506  -10.9625  -16.7434 C   0  0  2  0  0  0  0  0  0  0  0  0
   20.7079  -11.7831  -17.2961 N   0  0  0  0  0  0  0  0  0  0  0  0
   21.2707   -9.6071  -16.3674 C   0  0  0  0  0  0  0  0  0  0  0  0
   20.7282   -8.9045  -17.2538 O   0  0  0  0  0  0  0  0  0  0  0  0
   21.0336   -7.6738  -13.1645 C   0  0  0  0  0  0  0  0  0  0  0  0
   20.8596   -7.7674  -14.6656 C   0  0  2  0  0  0  0  0  0  0  0  0
   21.3881   -9.0575  -15.0673 N   0  0  0  0  0  0  0  0  0  0  0  0
   21.5927   -6.6428  -15.3145 C   0  0  0  0  0  0  0  0  0  0  0  0
   21.0409   -5.3817  -15.4205 O   0  0  0  0  0  0  0  0  0  0  0  0
   22.7382   -6.8258  -15.7805 O   0  0  0  0  0  0  0  0  0  0  0  0
  2  1  1  1
  2  7  1  0
  3  2  1  0
  4  3  1  0
  4  5  1  0
  5  6  2  0
  7  8  2  0
  9  5  1  0
 10 11  1  0
 11 12  1  0
 12 13  1  0
 14 13  1  6
 14 16  1  0
 15  7  1  0
 15 14  1  0
 16 17  2  0
 19 18  1  1
 19 21  1  0
 20 19  1  0
 20 16  1  0
 21 22  1  0
 23 21  2  0
M  END
$$$$
