EMA.pdb
     RDKit          3D

 23 22  0  0  1  0  0  0  0  0999 V2000
   26.5139  -10.4915  -18.2525 N   0  0  0  0  0  0  0  0  0  0  0  0
   27.5258   -9.5261  -18.5644 C   0  0  1  0  0  0  0  0  0  0  0  0
   27.0690   -8.1210  -18.3886 C   0  0  0  0  0  0  0  0  0  0  0  0
   26.0328   -7.6463  -19.3455 C   0  0  0  0  0  0  0  0  0  0  0  0
   25.4747   -6.3109  -19.1324 C   0  0  0  0  0  0  0  0  0  0  0  0
   25.8194   -5.6003  -18.1738 O   0  0  0  0  0  0  0  0  0  0  0  0
   28.7149   -9.8256  -17.6859 C   0  0  0  0  0  0  0  0  0  0  0  0
   28.5119  -10.2568  -16.5292 O   0  0  0  0  0  0  0  0  0  0  0  0
   24.5234   -5.7566  -19.9919 O   0  0  0  0  0  0  0  0  0  0  0  0
   30.4864  -15.3356  -18.0497 C   0  0  0  0  0  0  0  0  0  0  0  0
   31.6615  -13.9687  -18.0851 S   0  0  0  0  0  0  0  0  0  0  0  0
   30.9006  -12.4137  -17.5783 C   0  0  0  0  0  0  0  0  0  0  0  0
   31.8500  -11.2466  -17.6679 C   0  0  0  0  0  0  0  0  0  0  0  0
   31.1987   -9.9394  -17.2895 C   0  0  2  0  0  0  0  0  0  0  0  0
   30.0475   -9.6455  -18.0986 N   0  0  0  0  0  0  0  0  0  0  0  0
   32.2451   -8.8882  -17.3836 C   0  0  0  0  0  0  0  0  0  0  0  0
   32.5618   -8.4689  -18.5226 O   0  0  0  0  0  0  0  0  0  0  0  0
   34.2523   -6.9064  -14.9106 C   0  0  0  0  0  0  0  0  0  0  0  0
   33.9091   -7.2803  -16.3371 C   0  0  2  0  0  0  0  0  0  0  0  0
   32.9090   -8.3290  -16.2644 N   0  0  0  0  0  0  0  0  0  0  0  0
   35.1445   -7.7412  -17.0330 C   0  0  0  0  0  0  0  0  0  0  0  0
   36.0425   -6.8495  -17.5850 O   0  0  0  0  0  0  0  0  0  0  0  0
   35.3924   -8.9627  -17.1296 O   0  0  0  0  0  0  0  0  0  0  0  0
  2  1  1  1
  2  7  1  0
  3  2  1  0
  4  3  1  0
  4  5  1  0
  5  6  2  0
  7  8  2  0
  9  5  1  0
 10 11  1  0
 11 12  1  0
 12 13  1  0
 14 13  1  6
 14 16  1  0
 15  7  1  0
 15 14  1  0
 16 17  2  0
 19 18  1  1
 19 21  1  0
 20 19  1  0
 20 16  1  0
 21 22  1  0
 23 21  2  0
M  END
$$$$
