EMA.pdb
     RDKit          3D

 23 22  0  0  1  0  0  0  0  0999 V2000
   26.2391  -19.0393  -14.4708 N   0  0  0  0  0  0  0  0  0  0  0  0
   26.8851  -20.3178  -14.5103 C   0  0  1  0  0  0  0  0  0  0  0  0
   28.3433  -20.2288  -14.7925 C   0  0  0  0  0  0  0  0  0  0  0  0
   28.8300  -18.9212  -15.3099 C   0  0  0  0  0  0  0  0  0  0  0  0
   28.6596  -18.6517  -16.7377 C   0  0  0  0  0  0  0  0  0  0  0  0
   29.3762  -19.1897  -17.5978 O   0  0  0  0  0  0  0  0  0  0  0  0
   26.6273  -20.9896  -13.1846 C   0  0  0  0  0  0  0  0  0  0  0  0
   26.9944  -22.1759  -13.0325 O   0  0  0  0  0  0  0  0  0  0  0  0
   27.6834  -17.7756  -17.2179 O   0  0  0  0  0  0  0  0  0  0  0  0
   29.0695  -20.2476   -7.2205 C   0  0  0  0  0  0  0  0  0  0  0  0
   27.3308  -20.0502   -7.6551 S   0  0  0  0  0  0  0  0  0  0  0  0
   26.9606  -20.7406   -9.2799 C   0  0  0  0  0  0  0  0  0  0  0  0
   25.5342  -20.4985   -9.7022 C   0  0  0  0  0  0  0  0  0  0  0  0
   25.2406  -21.0297  -11.0835 C   0  0  2  0  0  0  0  0  0  0  0  0
   25.9929  -20.3515  -12.1034 N   0  0  0  0  0  0  0  0  0  0  0  0
   23.7729  -20.9198  -11.2894 C   0  0  0  0  0  0  0  0  0  0  0  0
   23.0423  -20.7833  -10.2789 O   0  0  0  0  0  0  0  0  0  0  0  0
   21.5031  -19.3016  -13.0194 C   0  0  0  0  0  0  0  0  0  0  0  0
   21.7236  -20.7807  -12.7829 C   0  0  2  0  0  0  0  0  0  0  0  0
   23.1458  -20.9599  -12.5587 N   0  0  0  0  0  0  0  0  0  0  0  0
   21.2509  -21.5428  -13.9741 C   0  0  0  0  0  0  0  0  0  0  0  0
   19.9075  -21.7439  -14.2212 O   0  0  0  0  0  0  0  0  0  0  0  0
   22.0765  -22.0197  -14.7827 O   0  0  0  0  0  0  0  0  0  0  0  0
  2  1  1  1
  2  7  1  0
  3  2  1  0
  4  3  1  0
  4  5  1  0
  5  6  2  0
  7  8  2  0
  9  5  1  0
 10 11  1  0
 11 12  1  0
 12 13  1  0
 14 13  1  1
 14 16  1  0
 15  7  1  0
 15 14  1  0
 16 17  2  0
 19 18  1  6
 19 21  1  0
 20 19  1  0
 20 16  1  0
 21 22  1  0
 23 21  2  0
M  END
$$$$
