EMA.pdb
     RDKit          3D

 23 22  0  0  1  0  0  0  0  0999 V2000
   19.1057  -14.9729  -18.5230 N   0  0  0  0  0  0  0  0  0  0  0  0
   18.9331  -13.5511  -18.5685 C   0  0  1  0  0  0  0  0  0  0  0  0
   17.5168  -13.1272  -18.4001 C   0  0  0  0  0  0  0  0  0  0  0  0
   16.5720  -13.5694  -19.4614 C   0  0  0  0  0  0  0  0  0  0  0  0
   15.1527  -13.2690  -19.2731 C   0  0  0  0  0  0  0  0  0  0  0  0
   14.7338  -12.6847  -18.2602 O   0  0  0  0  0  0  0  0  0  0  0  0
   19.8096  -12.9602  -17.4924 C   0  0  0  0  0  0  0  0  0  0  0  0
   19.7238  -13.4177  -16.3312 O   0  0  0  0  0  0  0  0  0  0  0  0
   14.1862  -13.6203  -20.2184 O   0  0  0  0  0  0  0  0  0  0  0  0
   26.6871  -10.4521  -14.9446 C   0  0  0  0  0  0  0  0  0  0  0  0
   25.6588  -11.1734  -16.2381 S   0  0  0  0  0  0  0  0  0  0  0  0
   23.9006  -10.9432  -15.9070 C   0  0  0  0  0  0  0  0  0  0  0  0
   23.0259  -11.5068  -16.9972 C   0  0  0  0  0  0  0  0  0  0  0  0
   21.5556  -11.3213  -16.7147 C   0  0  2  0  0  0  0  0  0  0  0  0
   20.7235  -11.9164  -17.7245 N   0  0  0  0  0  0  0  0  0  0  0  0
   21.3208   -9.8608  -16.5702 C   0  0  0  0  0  0  0  0  0  0  0  0
   21.5497   -9.1241  -17.5593 O   0  0  0  0  0  0  0  0  0  0  0  0
   19.9473   -7.6342  -13.8864 C   0  0  0  0  0  0  0  0  0  0  0  0
   20.6479   -7.8207  -15.2157 C   0  0  2  0  0  0  0  0  0  0  0  0
   20.8538   -9.2473  -15.3821 N   0  0  0  0  0  0  0  0  0  0  0  0
   21.9381   -7.0738  -15.1981 C   0  0  0  0  0  0  0  0  0  0  0  0
   23.1548   -7.7253  -15.2393 O   0  0  0  0  0  0  0  0  0  0  0  0
   21.9401   -5.8248  -15.1455 O   0  0  0  0  0  0  0  0  0  0  0  0
  2  1  1  1
  2  7  1  0
  3  2  1  0
  4  3  1  0
  4  5  1  0
  5  6  2  0
  7  8  2  0
  9  5  1  0
 10 11  1  0
 11 12  1  0
 12 13  1  0
 14 13  1  6
 14 16  1  0
 15  7  1  0
 15 14  1  0
 16 17  2  0
 19 18  1  1
 19 21  1  0
 20 19  1  0
 20 16  1  0
 21 22  1  0
 23 21  2  0
M  END
$$$$
