EMA.pdb
     RDKit          3D

 23 22  0  0  1  0  0  0  0  0999 V2000
   20.6664  -19.4234  -13.4843 N   0  0  0  0  0  0  0  0  0  0  0  0
   21.3812  -20.5356  -12.9318 C   0  0  1  0  0  0  0  0  0  0  0  0
   21.1432  -21.8078  -13.6656 C   0  0  0  0  0  0  0  0  0  0  0  0
   19.8200  -22.4519  -13.4445 C   0  0  0  0  0  0  0  0  0  0  0  0
   19.5757  -23.7389  -14.0957 C   0  0  0  0  0  0  0  0  0  0  0  0
   18.5117  -24.3612  -13.9422 O   0  0  0  0  0  0  0  0  0  0  0  0
   22.8451  -20.1715  -12.9343 C   0  0  0  0  0  0  0  0  0  0  0  0
   23.2195  -19.1989  -13.6263 O   0  0  0  0  0  0  0  0  0  0  0  0
   20.5216  -24.3435  -14.9268 O   0  0  0  0  0  0  0  0  0  0  0  0
   27.0401  -20.2091   -7.9584 C   0  0  0  0  0  0  0  0  0  0  0  0
   28.1345  -20.7069   -9.3021 S   0  0  0  0  0  0  0  0  0  0  0  0
   27.3603  -20.4885  -10.9167 C   0  0  0  0  0  0  0  0  0  0  0  0
   25.9118  -20.9047  -10.9269 C   0  0  0  0  0  0  0  0  0  0  0  0
   25.2272  -20.5886  -12.2336 C   0  0  2  0  0  0  0  0  0  0  0  0
   23.8181  -20.8702  -12.1969 N   0  0  0  0  0  0  0  0  0  0  0  0
   25.9344  -21.3551  -13.2924 C   0  0  0  0  0  0  0  0  0  0  0  0
   25.9314  -22.6074  -13.2183 O   0  0  0  0  0  0  0  0  0  0  0  0
   27.5631  -20.4648  -16.5444 C   0  0  0  0  0  0  0  0  0  0  0  0
   27.1971  -21.4897  -15.4918 C   0  0  2  0  0  0  0  0  0  0  0  0
   26.6137  -20.7584  -14.3826 N   0  0  0  0  0  0  0  0  0  0  0  0
   28.4245  -22.2300  -15.0817 C   0  0  0  0  0  0  0  0  0  0  0  0
   28.9420  -23.2573  -15.8455 O   0  0  0  0  0  0  0  0  0  0  0  0
   29.0159  -21.9279  -14.0225 O   0  0  0  0  0  0  0  0  0  0  0  0
  2  1  1  6
  2  7  1  0
  3  2  1  0
  4  3  1  0
  4  5  1  0
  5  6  2  0
  7  8  2  0
  9  5  1  0
 10 11  1  0
 11 12  1  0
 12 13  1  0
 14 13  1  1
 14 16  1  0
 15  7  1  0
 15 14  1  0
 16 17  2  0
 19 18  1  6
 19 21  1  0
 20 19  1  0
 20 16  1  0
 21 22  1  0
 23 21  2  0
M  END
$$$$
