EMA.pdb
     RDKit          3D

 23 22  0  0  1  0  0  0  0  0999 V2000
   26.8817  -21.5517  -15.3089 N   0  0  0  0  0  0  0  0  0  0  0  0
   26.6701  -20.4794  -14.3822 C   0  0  1  0  0  0  0  0  0  0  0  0
   25.7128  -19.4551  -14.8802 C   0  0  0  0  0  0  0  0  0  0  0  0
   24.8331  -19.8750  -16.0046 C   0  0  0  0  0  0  0  0  0  0  0  0
   23.9941  -18.8511  -16.6273 C   0  0  0  0  0  0  0  0  0  0  0  0
   24.4755  -17.8164  -17.1178 O   0  0  0  0  0  0  0  0  0  0  0  0
   26.1877  -21.0932  -13.0914 C   0  0  0  0  0  0  0  0  0  0  0  0
   25.5259  -22.1537  -13.1427 O   0  0  0  0  0  0  0  0  0  0  0  0
   22.6051  -18.9752  -16.7073 O   0  0  0  0  0  0  0  0  0  0  0  0
   27.2984  -18.4911   -6.9471 C   0  0  0  0  0  0  0  0  0  0  0  0
   26.8342  -20.2071   -6.6457 S   0  0  0  0  0  0  0  0  0  0  0  0
   26.0381  -20.9514   -8.0831 C   0  0  0  0  0  0  0  0  0  0  0  0
   26.5231  -20.3649   -9.3839 C   0  0  0  0  0  0  0  0  0  0  0  0
   25.9270  -21.0520  -10.5875 C   0  0  2  0  0  0  0  0  0  0  0  0
   26.4426  -20.5350  -11.8257 N   0  0  0  0  0  0  0  0  0  0  0  0
   24.4511  -20.9127  -10.4819 C   0  0  0  0  0  0  0  0  0  0  0  0
   23.8915  -21.3225   -9.4367 O   0  0  0  0  0  0  0  0  0  0  0  0
   21.8161  -19.0043  -12.2361 C   0  0  0  0  0  0  0  0  0  0  0  0
   22.1920  -20.2156  -11.4092 C   0  0  2  0  0  0  0  0  0  0  0  0
   23.6349  -20.3449  -11.4905 N   0  0  0  0  0  0  0  0  0  0  0  0
   21.4972  -21.4162  -11.9558 C   0  0  0  0  0  0  0  0  0  0  0  0
   20.1273  -21.5647  -11.8690 O   0  0  0  0  0  0  0  0  0  0  0  0
   22.1541  -22.3232  -12.5115 O   0  0  0  0  0  0  0  0  0  0  0  0
  2  1  1  6
  2  7  1  0
  3  2  1  0
  4  3  1  0
  4  5  1  0
  5  6  2  0
  7  8  2  0
  9  5  1  0
 10 11  1  0
 11 12  1  0
 12 13  1  0
 14 13  1  1
 14 16  1  0
 15  7  1  0
 15 14  1  0
 16 17  2  0
 19 18  1  6
 19 21  1  0
 20 19  1  0
 20 16  1  0
 21 22  1  0
 23 21  2  0
M  END
$$$$
