EMA.pdb
     RDKit          3D

 23 22  0  0  1  0  0  0  0  0999 V2000
   20.6070  -11.7048  -18.0145 N   0  0  0  0  0  0  0  0  0  0  0  0
   19.6808  -11.2042  -17.0425 C   0  0  1  0  0  0  0  0  0  0  0  0
   19.2900  -12.2201  -16.0281 C   0  0  0  0  0  0  0  0  0  0  0  0
   18.6713  -13.4663  -16.5561 C   0  0  0  0  0  0  0  0  0  0  0  0
   18.4195  -14.5519  -15.6085 C   0  0  0  0  0  0  0  0  0  0  0  0
   17.4953  -14.4997  -14.7802 O   0  0  0  0  0  0  0  0  0  0  0  0
   20.3216  -10.0037  -16.3916 C   0  0  0  0  0  0  0  0  0  0  0  0
   19.7036   -9.4177  -15.4753 O   0  0  0  0  0  0  0  0  0  0  0  0
   19.2011  -15.7092  -15.5783 O   0  0  0  0  0  0  0  0  0  0  0  0
   26.7534  -11.2301  -14.7336 C   0  0  0  0  0  0  0  0  0  0  0  0
   26.1086   -9.7651  -15.5637 S   0  0  0  0  0  0  0  0  0  0  0  0
   24.3078   -9.6885  -15.4915 C   0  0  0  0  0  0  0  0  0  0  0  0
   23.7480   -8.4939  -16.2201 C   0  0  0  0  0  0  0  0  0  0  0  0
   22.2456   -8.4033  -16.1159 C   0  0  2  0  0  0  0  0  0  0  0  0
   21.5835   -9.5041  -16.7610 N   0  0  0  0  0  0  0  0  0  0  0  0
   21.8483   -7.0879  -16.6823 C   0  0  0  0  0  0  0  0  0  0  0  0
   22.0290   -6.8928  -17.9082 O   0  0  0  0  0  0  0  0  0  0  0  0
   19.4082   -4.5706  -16.0398 C   0  0  0  0  0  0  0  0  0  0  0  0
   20.8478   -4.7637  -16.4670 C   0  0  2  0  0  0  0  0  0  0  0  0
   21.2773   -6.0381  -15.9223 N   0  0  0  0  0  0  0  0  0  0  0  0
   21.6690   -3.6340  -15.9451 C   0  0  0  0  0  0  0  0  0  0  0  0
   21.8109   -2.4541  -16.6480 O   0  0  0  0  0  0  0  0  0  0  0  0
   22.2519   -3.7374  -14.8440 O   0  0  0  0  0  0  0  0  0  0  0  0
  2  1  1  6
  2  7  1  0
  3  2  1  0
  4  3  1  0
  4  5  1  0
  5  6  2  0
  7  8  2  0
  9  5  1  0
 10 11  1  0
 11 12  1  0
 12 13  1  0
 14 13  1  6
 14 16  1  0
 15  7  1  0
 15 14  1  0
 16 17  2  0
 19 18  1  1
 19 21  1  0
 20 19  1  0
 20 16  1  0
 21 22  1  0
 23 21  2  0
M  END
$$$$
