EMA.pdb
     RDKit          3D

 23 22  0  0  1  0  0  0  0  0999 V2000
   26.4086  -19.2709  -18.0010 N   0  0  0  0  0  0  0  0  0  0  0  0
   26.6121  -18.0653  -17.2538 C   0  0  1  0  0  0  0  0  0  0  0  0
   26.1829  -16.8430  -17.9856 C   0  0  0  0  0  0  0  0  0  0  0  0
   27.2101  -15.7767  -18.1354 C   0  0  0  0  0  0  0  0  0  0  0  0
   27.0814  -14.8670  -19.2738 C   0  0  0  0  0  0  0  0  0  0  0  0
   26.3095  -13.8941  -19.2532 O   0  0  0  0  0  0  0  0  0  0  0  0
   25.8611  -18.2133  -15.9540 C   0  0  0  0  0  0  0  0  0  0  0  0
   25.9106  -17.2789  -15.1235 O   0  0  0  0  0  0  0  0  0  0  0  0
   27.8167  -15.0376  -20.4491 O   0  0  0  0  0  0  0  0  0  0  0  0
   19.1539  -19.1482  -15.9910 C   0  0  0  0  0  0  0  0  0  0  0  0
   20.4104  -20.1997  -15.2384 S   0  0  0  0  0  0  0  0  0  0  0  0
   22.0023  -19.3609  -15.1119 C   0  0  0  0  0  0  0  0  0  0  0  0
   23.0869  -20.2535  -14.5657 C   0  0  0  0  0  0  0  0  0  0  0  0
   24.3972  -19.5282  -14.3832 C   0  0  2  0  0  0  0  0  0  0  0  0
   25.1035  -19.3512  -15.6225 N   0  0  0  0  0  0  0  0  0  0  0  0
   25.1842  -20.2958  -13.3830 C   0  0  0  0  0  0  0  0  0  0  0  0
   25.6796  -21.3930  -13.7356 O   0  0  0  0  0  0  0  0  0  0  0  0
   26.2458  -19.7417   -9.8286 C   0  0  0  0  0  0  0  0  0  0  0  0
   26.1110  -20.6357  -11.0431 C   0  0  2  0  0  0  0  0  0  0  0  0
   25.4101  -19.8647  -12.0529 N   0  0  0  0  0  0  0  0  0  0  0  0
   25.3579  -21.8655  -10.6644 C   0  0  0  0  0  0  0  0  0  0  0  0
   25.9738  -22.9293  -10.0357 O   0  0  0  0  0  0  0  0  0  0  0  0
   24.1361  -21.9554  -10.9134 O   0  0  0  0  0  0  0  0  0  0  0  0
  2  1  1  6
  2  7  1  0
  3  2  1  0
  4  3  1  0
  4  5  1  0
  5  6  2  0
  7  8  2  0
  9  5  1  0
 10 11  1  0
 11 12  1  0
 12 13  1  0
 14 13  1  6
 14 16  1  0
 15  7  1  0
 15 14  1  0
 16 17  2  0
 19 18  1  1
 19 21  1  0
 20 19  1  0
 20 16  1  0
 21 22  1  0
 23 21  2  0
M  END
$$$$
