EMA.pdb
     RDKit          3D

 23 22  0  0  1  0  0  0  0  0999 V2000
   22.9580  -12.4621  -17.3364 N   0  0  0  0  0  0  0  0  0  0  0  0
   22.2396  -11.3870  -17.9538 C   0  0  1  0  0  0  0  0  0  0  0  0
   20.8182  -11.7206  -18.2406 C   0  0  0  0  0  0  0  0  0  0  0  0
   20.5895  -12.8181  -19.2193 C   0  0  0  0  0  0  0  0  0  0  0  0
   19.6979  -12.5457  -20.3466 C   0  0  0  0  0  0  0  0  0  0  0  0
   19.5630  -11.4038  -20.8164 O   0  0  0  0  0  0  0  0  0  0  0  0
   22.3440  -10.1946  -17.0356 C   0  0  0  0  0  0  0  0  0  0  0  0
   21.8570  -10.2788  -15.8864 O   0  0  0  0  0  0  0  0  0  0  0  0
   18.9468  -13.5506  -20.9606 O   0  0  0  0  0  0  0  0  0  0  0  0
   26.8243  -10.8479  -14.9931 C   0  0  0  0  0  0  0  0  0  0  0  0
   25.9725   -9.7798  -16.1697 S   0  0  0  0  0  0  0  0  0  0  0  0
   25.2476   -8.3366  -15.3660 C   0  0  0  0  0  0  0  0  0  0  0  0
   24.5267   -7.4341  -16.3341 C   0  0  0  0  0  0  0  0  0  0  0  0
   23.0891   -7.8403  -16.5445 C   0  0  2  0  0  0  0  0  0  0  0  0
   22.9627   -8.9861  -17.4033 N   0  0  0  0  0  0  0  0  0  0  0  0
   22.3731   -6.6499  -17.0730 C   0  0  0  0  0  0  0  0  0  0  0  0
   22.5028   -6.3734  -18.2897 O   0  0  0  0  0  0  0  0  0  0  0  0
   19.8736   -4.2206  -15.7098 C   0  0  0  0  0  0  0  0  0  0  0  0
   20.8587   -4.6319  -16.7835 C   0  0  2  0  0  0  0  0  0  0  0  0
   21.5516   -5.8058  -16.2865 N   0  0  0  0  0  0  0  0  0  0  0  0
   21.7982   -3.5039  -17.0440 C   0  0  0  0  0  0  0  0  0  0  0  0
   21.4848   -2.4860  -17.9226 O   0  0  0  0  0  0  0  0  0  0  0  0
   22.9034   -3.4596  -16.4612 O   0  0  0  0  0  0  0  0  0  0  0  0
  2  1  1  1
  2  7  1  0
  3  2  1  0
  4  3  1  0
  4  5  1  0
  5  6  2  0
  7  8  2  0
  9  5  1  0
 10 11  1  0
 11 12  1  0
 12 13  1  0
 14 13  1  6
 14 16  1  0
 15  7  1  0
 15 14  1  0
 16 17  2  0
 19 18  1  1
 19 21  1  0
 20 19  1  0
 20 16  1  0
 21 22  1  0
 23 21  2  0
M  END
$$$$
