EMA.pdb
     RDKit          3D

 23 22  0  0  1  0  0  0  0  0999 V2000
   28.0840  -20.8185  -15.7337 N   0  0  0  0  0  0  0  0  0  0  0  0
   27.8987  -19.9558  -14.6047 C   0  0  1  0  0  0  0  0  0  0  0  0
   27.3218  -18.6330  -14.9666 C   0  0  0  0  0  0  0  0  0  0  0  0
   27.0708  -18.4041  -16.4155 C   0  0  0  0  0  0  0  0  0  0  0  0
   28.1747  -17.8800  -17.2198 C   0  0  0  0  0  0  0  0  0  0  0  0
   28.5494  -18.4386  -18.2640 O   0  0  0  0  0  0  0  0  0  0  0  0
   27.0138  -20.6859  -13.6252 C   0  0  0  0  0  0  0  0  0  0  0  0
   26.2409  -21.5690  -14.0588 O   0  0  0  0  0  0  0  0  0  0  0  0
   28.8715  -16.7234  -16.8626 O   0  0  0  0  0  0  0  0  0  0  0  0
   27.2230  -19.7264   -7.0458 C   0  0  0  0  0  0  0  0  0  0  0  0
   25.6415  -20.5745   -7.2207 S   0  0  0  0  0  0  0  0  0  0  0  0
   25.3691  -21.1494   -8.9086 C   0  0  0  0  0  0  0  0  0  0  0  0
   26.2947  -20.4943   -9.9014 C   0  0  0  0  0  0  0  0  0  0  0  0
   26.0437  -20.9517  -11.3170 C   0  0  2  0  0  0  0  0  0  0  0  0
   27.0099  -20.4264  -12.2427 N   0  0  0  0  0  0  0  0  0  0  0  0
   24.6522  -20.5592  -11.6613 C   0  0  0  0  0  0  0  0  0  0  0  0
   24.3592  -19.3397  -11.6409 O   0  0  0  0  0  0  0  0  0  0  0  0
   21.8199  -22.2289  -13.3567 C   0  0  0  0  0  0  0  0  0  0  0  0
   22.3057  -21.1070  -12.4634 C   0  0  2  0  0  0  0  0  0  0  0  0
   23.6334  -21.4787  -12.0115 N   0  0  0  0  0  0  0  0  0  0  0  0
   21.3588  -20.9441  -11.3233 C   0  0  0  0  0  0  0  0  0  0  0  0
   20.0826  -20.4492  -11.5044 O   0  0  0  0  0  0  0  0  0  0  0  0
   21.7098  -21.2586  -10.1654 O   0  0  0  0  0  0  0  0  0  0  0  0
  2  1  1  6
  2  7  1  0
  3  2  1  0
  4  3  1  0
  4  5  1  0
  5  6  2  0
  7  8  2  0
  9  5  1  0
 10 11  1  0
 11 12  1  0
 12 13  1  0
 14 13  1  1
 14 16  1  0
 15  7  1  0
 15 14  1  0
 16 17  2  0
 19 18  1  6
 19 21  1  0
 20 19  1  0
 20 16  1  0
 21 22  1  0
 23 21  2  0
M  END
$$$$
