EMA.pdb
     RDKit          3D

 23 22  0  0  1  0  0  0  0  0999 V2000
   20.0048  -21.5736  -13.4568 N   0  0  0  0  0  0  0  0  0  0  0  0
   21.1707  -22.0026  -14.1710 C   0  0  1  0  0  0  0  0  0  0  0  0
   21.0498  -21.8349  -15.6445 C   0  0  0  0  0  0  0  0  0  0  0  0
   20.5638  -20.5088  -16.1134 C   0  0  0  0  0  0  0  0  0  0  0  0
   19.1329  -20.3683  -16.3832 C   0  0  0  0  0  0  0  0  0  0  0  0
   18.5160  -21.1784  -17.0945 O   0  0  0  0  0  0  0  0  0  0  0  0
   22.3402  -21.2196  -13.6283 C   0  0  0  0  0  0  0  0  0  0  0  0
   22.1914  -19.9976  -13.4050 O   0  0  0  0  0  0  0  0  0  0  0  0
   18.3768  -19.3174  -15.8587 O   0  0  0  0  0  0  0  0  0  0  0  0
   26.5513  -19.6091   -8.4863 C   0  0  0  0  0  0  0  0  0  0  0  0
   25.5645  -20.6754   -9.5540 S   0  0  0  0  0  0  0  0  0  0  0  0
   26.4752  -21.1820  -11.0263 C   0  0  0  0  0  0  0  0  0  0  0  0
   25.6243  -21.9620  -11.9954 C   0  0  0  0  0  0  0  0  0  0  0  0
   24.7185  -21.0761  -12.8144 C   0  0  2  0  0  0  0  0  0  0  0  0
   23.5965  -21.7915  -13.3581 N   0  0  0  0  0  0  0  0  0  0  0  0
   25.5590  -20.4485  -13.8673 C   0  0  0  0  0  0  0  0  0  0  0  0
   25.9810  -21.1751  -14.7987 O   0  0  0  0  0  0  0  0  0  0  0  0
   27.1522  -17.1107  -14.3946 C   0  0  0  0  0  0  0  0  0  0  0  0
   26.6613  -18.4318  -14.9478 C   0  0  2  0  0  0  0  0  0  0  0  0
   25.9143  -19.0776  -13.8846 N   0  0  0  0  0  0  0  0  0  0  0  0
   27.8327  -19.2488  -15.3760 C   0  0  0  0  0  0  0  0  0  0  0  0
   28.3490  -19.1640  -16.6537 O   0  0  0  0  0  0  0  0  0  0  0  0
   28.3764  -20.0368  -14.5720 O   0  0  0  0  0  0  0  0  0  0  0  0
  2  1  1  1
  2  7  1  0
  3  2  1  0
  4  3  1  0
  4  5  1  0
  5  6  2  0
  7  8  2  0
  9  5  1  0
 10 11  1  0
 11 12  1  0
 12 13  1  0
 14 13  1  6
 14 16  1  0
 15  7  1  0
 15 14  1  0
 16 17  2  0
 19 18  1  1
 19 21  1  0
 20 19  1  0
 20 16  1  0
 21 22  1  0
 23 21  2  0
M  END
$$$$
