ISQ.pdb
     RDKit          3D

 24 23  0  0  1  0  0  0  0  0999 V2000
   22.8469  -22.6990  -18.9284 C   0  0  0  0  0  0  0  0  0  0  0  0
   23.7369  -23.0294  -17.7517 C   0  0  0  0  0  0  0  0  0  0  0  0
   24.8032  -24.0376  -18.1557 C   0  0  2  0  0  0  0  0  0  0  0  0
   24.1781  -25.3592  -18.5379 C   0  0  0  0  0  0  0  0  0  0  0  0
   25.7554  -24.2786  -16.9958 C   0  0  2  0  0  0  0  0  0  0  0  0
   26.3660  -23.0511  -16.5422 N   0  0  0  0  0  0  0  0  0  0  0  0
   26.7645  -25.2983  -17.3675 C   0  0  0  0  0  0  0  0  0  0  0  0
   27.4381  -25.1922  -18.4191 O   0  0  0  0  0  0  0  0  0  0  0  0
   29.6807  -28.9091  -16.0448 O   0  0  0  0  0  0  0  0  0  0  0  0
   28.6578  -28.0471  -15.7056 C   0  0  0  0  0  0  0  0  0  0  0  0
   28.0379  -27.3723  -16.9068 C   0  0  2  0  0  0  0  0  0  0  0  0
   27.0045  -26.4313  -16.5467 N   0  0  0  0  0  0  0  0  0  0  0  0
   27.5228  -28.4341  -17.8166 C   0  0  0  0  0  0  0  0  0  0  0  0
   26.3968  -28.9452  -17.7390 O   0  0  0  0  0  0  0  0  0  0  0  0
   30.6459  -29.1413  -23.0921 N   0  0  0  0  0  0  0  0  0  0  0  0
   29.5428  -30.0031  -23.3079 C   0  0  0  0  0  0  0  0  0  0  0  0
   29.4503  -30.5211  -24.4760 O   0  0  0  0  0  0  0  0  0  0  0  0
   28.5228  -30.3358  -22.2869 C   0  0  0  0  0  0  0  0  0  0  0  0
   28.8233  -29.6541  -21.0138 C   0  0  0  0  0  0  0  0  0  0  0  0
   27.9578  -29.9013  -19.8381 C   0  0  2  0  0  0  0  0  0  0  0  0
   28.3877  -28.8865  -18.8415 N   0  0  0  0  0  0  0  0  0  0  0  0
   27.9193  -31.1996  -19.2153 C   0  0  0  0  0  0  0  0  0  0  0  0
   27.2791  -32.3216  -19.7216 O   0  0  0  0  0  0  0  0  0  0  0  0
   28.5031  -31.3981  -18.0908 O   0  0  0  0  0  0  0  0  0  0  0  0
  1  2  1  0
  3  5  1  0
  3  2  1  0
  3  4  1  1
  5  7  1  0
  5  6  1  6
  7  8  2  0
 10  9  1  0
 11 10  1  1
 12 11  1  0
 12  7  1  0
 13 21  1  0
 13 11  1  0
 14 13  2  0
 16 17  2  0
 16 15  1  0
 18 16  1  0
 19 18  1  0
 20 21  1  0
 20 19  1  6
 22 20  1  0
 23 22  1  0
 24 22  2  0
M  END
$$$$
