ISQ.pdb
     RDKit          3D

 24 23  0  0  1  0  0  0  0  0999 V2000
   28.3800  -25.7241  -19.7767 C   0  0  0  0  0  0  0  0  0  0  0  0
   29.1093  -24.8399  -18.7907 C   0  0  0  0  0  0  0  0  0  0  0  0
   28.1725  -23.7790  -18.2310 C   0  0  2  0  0  0  0  0  0  0  0  0
   27.6319  -22.9006  -19.3353 C   0  0  0  0  0  0  0  0  0  0  0  0
   28.9184  -22.8973  -17.2427 C   0  0  2  0  0  0  0  0  0  0  0  0
   29.4249  -23.6583  -16.1248 N   0  0  0  0  0  0  0  0  0  0  0  0
   28.0540  -21.7753  -16.8066 C   0  0  0  0  0  0  0  0  0  0  0  0
   27.2309  -21.9150  -15.8719 O   0  0  0  0  0  0  0  0  0  0  0  0
   27.9383  -18.1062  -18.9059 O   0  0  0  0  0  0  0  0  0  0  0  0
   27.5958  -18.1048  -17.5690 C   0  0  0  0  0  0  0  0  0  0  0  0
   27.1866  -19.4699  -17.0678 C   0  0  2  0  0  0  0  0  0  0  0  0
   28.1268  -20.5028  -17.4315 N   0  0  0  0  0  0  0  0  0  0  0  0
   25.8208  -19.7610  -17.5876 C   0  0  0  0  0  0  0  0  0  0  0  0
   25.5548  -20.6376  -18.4218 O   0  0  0  0  0  0  0  0  0  0  0  0
   22.2578  -23.0757  -16.0849 N   0  0  0  0  0  0  0  0  0  0  0  0
   22.2174  -21.9802  -15.1880 C   0  0  0  0  0  0  0  0  0  0  0  0
   21.8271  -22.2400  -13.9958 O   0  0  0  0  0  0  0  0  0  0  0  0
   22.5965  -20.5920  -15.5381 C   0  0  0  0  0  0  0  0  0  0  0  0
   22.9805  -20.5032  -16.9595 C   0  0  0  0  0  0  0  0  0  0  0  0
   23.3517  -19.1875  -17.5284 C   0  0  2  0  0  0  0  0  0  0  0  0
   24.7549  -18.9756  -17.0875 N   0  0  0  0  0  0  0  0  0  0  0  0
   22.5725  -18.0130  -17.2308 C   0  0  0  0  0  0  0  0  0  0  0  0
   21.3001  -17.7424  -17.7131 O   0  0  0  0  0  0  0  0  0  0  0  0
   23.0429  -17.0984  -16.4648 O   0  0  0  0  0  0  0  0  0  0  0  0
  1  2  1  0
  3  5  1  0
  3  2  1  0
  3  4  1  6
  5  7  1  0
  5  6  1  1
  7  8  2  0
 10  9  1  0
 11 10  1  6
 12 11  1  0
 12  7  1  0
 13 21  1  0
 13 11  1  0
 14 13  2  0
 16 17  2  0
 16 15  1  0
 18 16  1  0
 19 18  1  0
 20 21  1  0
 20 19  1  1
 22 20  1  0
 23 22  1  0
 24 22  2  0
M  END
$$$$
