ISQ.pdb
     RDKit          3D

 24 23  0  0  1  0  0  0  0  0999 V2000
   26.6669  -20.5604   -8.2985 C   0  0  0  0  0  0  0  0  0  0  0  0
   26.1382  -21.3048   -9.5036 C   0  0  0  0  0  0  0  0  0  0  0  0
   25.5847  -20.3295  -10.5326 C   0  0  2  0  0  0  0  0  0  0  0  0
   24.3723  -19.6068   -9.9927 C   0  0  0  0  0  0  0  0  0  0  0  0
   25.1723  -21.0792  -11.7889 C   0  0  2  0  0  0  0  0  0  0  0  0
   26.1641  -22.0534  -12.1792 N   0  0  0  0  0  0  0  0  0  0  0  0
   24.8731  -20.1215  -12.8795 C   0  0  0  0  0  0  0  0  0  0  0  0
   23.9224  -19.3099  -12.7885 O   0  0  0  0  0  0  0  0  0  0  0  0
   25.9790  -18.2120  -17.2149 O   0  0  0  0  0  0  0  0  0  0  0  0
   26.3273  -19.0932  -16.2116 C   0  0  0  0  0  0  0  0  0  0  0  0
   25.2470  -19.2480  -15.1670 C   0  0  2  0  0  0  0  0  0  0  0  0
   25.6518  -20.0888  -14.0660 N   0  0  0  0  0  0  0  0  0  0  0  0
   24.0265  -19.7737  -15.8412 C   0  0  0  0  0  0  0  0  0  0  0  0
   23.7864  -20.9742  -16.0312 O   0  0  0  0  0  0  0  0  0  0  0  0
   19.5276  -22.8882  -14.9058 N   0  0  0  0  0  0  0  0  0  0  0  0
   19.9114  -21.5930  -14.4798 C   0  0  0  0  0  0  0  0  0  0  0  0
   20.3721  -21.5036  -13.2877 O   0  0  0  0  0  0  0  0  0  0  0  0
   19.8194  -20.3718  -15.3126 C   0  0  0  0  0  0  0  0  0  0  0  0
   21.1088  -19.6557  -15.3253 C   0  0  0  0  0  0  0  0  0  0  0  0
   21.6789  -19.2135  -16.6184 C   0  0  2  0  0  0  0  0  0  0  0  0
   23.0767  -18.8272  -16.2944 N   0  0  0  0  0  0  0  0  0  0  0  0
   21.0525  -18.1595  -17.3744 C   0  0  0  0  0  0  0  0  0  0  0  0
   19.9488  -18.3035  -18.2028 O   0  0  0  0  0  0  0  0  0  0  0  0
   21.5117  -16.9632  -17.3246 O   0  0  0  0  0  0  0  0  0  0  0  0
  1  2  1  0
  3  5  1  0
  3  2  1  0
  3  4  1  1
  5  7  1  0
  5  6  1  6
  7  8  2  0
 10  9  1  0
 11 10  1  6
 12 11  1  0
 12  7  1  0
 13 21  1  0
 13 11  1  0
 14 13  2  0
 16 17  2  0
 16 15  1  0
 18 16  1  0
 19 18  1  0
 20 21  1  0
 20 19  1  1
 22 20  1  0
 23 22  1  0
 24 22  2  0
M  END
$$$$
