ISQ.pdb
     RDKit          3D

 24 23  0  0  1  0  0  0  0  0999 V2000
   16.0565  -15.0243  -14.8176 C   0  0  0  0  0  0  0  0  0  0  0  0
   16.5528  -14.8597  -16.2362 C   0  0  0  0  0  0  0  0  0  0  0  0
   17.2743  -13.5295  -16.3981 C   0  0  2  0  0  0  0  0  0  0  0  0
   16.3418  -12.3732  -16.1204 C   0  0  0  0  0  0  0  0  0  0  0  0
   17.7949  -13.3910  -17.8193 C   0  0  2  0  0  0  0  0  0  0  0  0
   18.6790  -14.4769  -18.1724 N   0  0  0  0  0  0  0  0  0  0  0  0
   18.4378  -12.0682  -18.0007 C   0  0  0  0  0  0  0  0  0  0  0  0
   19.5772  -11.8307  -17.5358 O   0  0  0  0  0  0  0  0  0  0  0  0
   16.5162   -8.5035  -19.5795 O   0  0  0  0  0  0  0  0  0  0  0  0
   17.7909   -8.8928  -19.9373 C   0  0  0  0  0  0  0  0  0  0  0  0
   18.4549   -9.7568  -18.8909 C   0  0  2  0  0  0  0  0  0  0  0  0
   17.7869  -11.0228  -18.7068 N   0  0  0  0  0  0  0  0  0  0  0  0
   18.5170   -8.9776  -17.6223 C   0  0  0  0  0  0  0  0  0  0  0  0
   17.8316   -9.2099  -16.6167 O   0  0  0  0  0  0  0  0  0  0  0  0
   22.1210   -9.5209  -13.9239 N   0  0  0  0  0  0  0  0  0  0  0  0
   21.6969   -8.2690  -13.4148 C   0  0  0  0  0  0  0  0  0  0  0  0
   22.0866   -7.9797  -12.2291 O   0  0  0  0  0  0  0  0  0  0  0  0
   20.8579   -7.2998  -14.1565 C   0  0  0  0  0  0  0  0  0  0  0  0
   20.4634   -7.8525  -15.4659 C   0  0  0  0  0  0  0  0  0  0  0  0
   19.5800   -7.0589  -16.3505 C   0  0  2  0  0  0  0  0  0  0  0  0
   19.4277   -7.8954  -17.5691 N   0  0  0  0  0  0  0  0  0  0  0  0
   19.9374   -5.7164  -16.7313 C   0  0  0  0  0  0  0  0  0  0  0  0
   19.6508   -4.5669  -16.0092 O   0  0  0  0  0  0  0  0  0  0  0  0
   20.5708   -5.4983  -17.8248 O   0  0  0  0  0  0  0  0  0  0  0  0
  1  2  1  0
  3  5  1  0
  3  2  1  0
  3  4  1  6
  5  7  1  0
  5  6  1  1
  7  8  2  0
 10  9  1  0
 11 10  1  6
 12 11  1  0
 12  7  1  0
 13 21  1  0
 13 11  1  0
 14 13  2  0
 16 17  2  0
 16 15  1  0
 18 16  1  0
 19 18  1  0
 20 21  1  0
 20 19  1  1
 22 20  1  0
 23 22  1  0
 24 22  2  0
M  END
$$$$
