ISQ.pdb
     RDKit          3D

 24 23  0  0  1  0  0  0  0  0999 V2000
   18.1579  -15.5261  -19.8758 C   0  0  0  0  0  0  0  0  0  0  0  0
   19.5753  -15.3474  -19.3810 C   0  0  0  0  0  0  0  0  0  0  0  0
   19.6582  -14.1782  -18.4102 C   0  0  2  0  0  0  0  0  0  0  0  0
   20.2656  -12.9659  -19.0773 C   0  0  0  0  0  0  0  0  0  0  0  0
   20.5264  -14.5523  -17.2201 C   0  0  2  0  0  0  0  0  0  0  0  0
   19.9904  -15.6856  -16.5034 N   0  0  0  0  0  0  0  0  0  0  0  0
   20.7184  -13.3763  -16.3389 C   0  0  0  0  0  0  0  0  0  0  0  0
   19.7578  -12.8700  -15.7130 O   0  0  0  0  0  0  0  0  0  0  0  0
   24.4922  -11.4140  -15.8118 O   0  0  0  0  0  0  0  0  0  0  0  0
   23.5576  -11.4675  -14.7978 C   0  0  0  0  0  0  0  0  0  0  0  0
   22.1461  -11.6330  -15.3104 C   0  0  2  0  0  0  0  0  0  0  0  0
   21.9963  -12.7812  -16.1719 N   0  0  0  0  0  0  0  0  0  0  0  0
   21.7565  -10.3717  -16.0017 C   0  0  0  0  0  0  0  0  0  0  0  0
   21.9193  -10.1491  -17.2096 O   0  0  0  0  0  0  0  0  0  0  0  0
   16.5509   -7.8915  -14.7382 N   0  0  0  0  0  0  0  0  0  0  0  0
   16.9020   -7.8895  -16.1104 C   0  0  0  0  0  0  0  0  0  0  0  0
   15.9286   -7.8592  -16.9428 O   0  0  0  0  0  0  0  0  0  0  0  0
   18.2912   -7.9130  -16.6233 C   0  0  0  0  0  0  0  0  0  0  0  0
   19.2522   -8.0238  -15.5098 C   0  0  0  0  0  0  0  0  0  0  0  0
   20.7020   -8.0741  -15.8068 C   0  0  2  0  0  0  0  0  0  0  0  0
   21.1571   -9.3590  -15.2153 N   0  0  0  0  0  0  0  0  0  0  0  0
   21.5761   -7.0122  -15.3786 C   0  0  0  0  0  0  0  0  0  0  0  0
   21.6136   -5.7310  -15.9098 O   0  0  0  0  0  0  0  0  0  0  0  0
   22.4199   -7.2071  -14.4329 O   0  0  0  0  0  0  0  0  0  0  0  0
  1  2  1  0
  3  5  1  0
  3  2  1  0
  3  4  1  6
  5  7  1  0
  5  6  1  1
  7  8  2  0
 10  9  1  0
 11 10  1  6
 12 11  1  0
 12  7  1  0
 13 21  1  0
 13 11  1  0
 14 13  2  0
 16 17  2  0
 16 15  1  0
 18 16  1  0
 19 18  1  0
 20 21  1  0
 20 19  1  1
 22 20  1  0
 23 22  1  0
 24 22  2  0
M  END
$$$$
