ISQ.pdb
     RDKit          3D

 24 23  0  0  1  0  0  0  0  0999 V2000
   28.9236  -10.5995  -16.8359 C   0  0  0  0  0  0  0  0  0  0  0  0
   27.7802  -11.4202  -16.2836 C   0  0  0  0  0  0  0  0  0  0  0  0
   26.4667  -10.6631  -16.4170 C   0  0  2  0  0  0  0  0  0  0  0  0
   26.5133   -9.3633  -15.6478 C   0  0  0  0  0  0  0  0  0  0  0  0
   25.3257  -11.5024  -15.8658 C   0  0  2  0  0  0  0  0  0  0  0  0
   25.2998  -12.8208  -16.4543 N   0  0  0  0  0  0  0  0  0  0  0  0
   24.0379  -10.7898  -16.0395 C   0  0  0  0  0  0  0  0  0  0  0  0
   23.5579  -10.5841  -17.1788 O   0  0  0  0  0  0  0  0  0  0  0  0
   19.8393   -9.3126  -14.1841 O   0  0  0  0  0  0  0  0  0  0  0  0
   21.0983   -9.8247  -13.9453 C   0  0  0  0  0  0  0  0  0  0  0  0
   22.0284   -9.6667  -15.1252 C   0  0  2  0  0  0  0  0  0  0  0  0
   23.3021  -10.3144  -14.9224 N   0  0  0  0  0  0  0  0  0  0  0  0
   22.1884   -8.2097  -15.3936 C   0  0  0  0  0  0  0  0  0  0  0  0
   23.0399   -7.4832  -14.8623 O   0  0  0  0  0  0  0  0  0  0  0  0
   22.7200   -6.4114  -20.7625 N   0  0  0  0  0  0  0  0  0  0  0  0
   22.5616   -5.1353  -20.1687 C   0  0  0  0  0  0  0  0  0  0  0  0
   22.8491   -4.1286  -20.9071 O   0  0  0  0  0  0  0  0  0  0  0  0
   22.0892   -4.9045  -18.7841 C   0  0  0  0  0  0  0  0  0  0  0  0
   21.8527   -6.1882  -18.0973 C   0  0  0  0  0  0  0  0  0  0  0  0
   21.3904   -6.1824  -16.6906 C   0  0  2  0  0  0  0  0  0  0  0  0
   21.3001   -7.6197  -16.3242 N   0  0  0  0  0  0  0  0  0  0  0  0
   20.1677   -5.5155  -16.3227 C   0  0  0  0  0  0  0  0  0  0  0  0
   20.0384   -4.1653  -16.0309 O   0  0  0  0  0  0  0  0  0  0  0  0
   19.0705   -6.1734  -16.2336 O   0  0  0  0  0  0  0  0  0  0  0  0
  1  2  1  0
  3  5  1  0
  3  2  1  0
  3  4  1  1
  5  7  1  0
  5  6  1  6
  7  8  2  0
 10  9  1  0
 11 10  1  1
 12 11  1  0
 12  7  1  0
 13 21  1  0
 13 11  1  0
 14 13  2  0
 16 17  2  0
 16 15  1  0
 18 16  1  0
 19 18  1  0
 20 21  1  0
 20 19  1  6
 22 20  1  0
 23 22  1  0
 24 22  2  0
M  END
$$$$
