MIN.pdb
     RDKit          3D

 25 24  0  0  1  0  0  0  0  0999 V2000
    6.3404  -11.2891   26.3952 C   0  0  0  0  0  0  0  0  0  0  0  0
    7.1295  -12.6797   27.1798 S   0  0  0  0  0  0  0  0  0  0  0  0
    6.1886  -14.1920   27.2011 C   0  0  0  0  0  0  0  0  0  0  0  0
    6.2556  -14.8940   25.8902 C   0  0  0  0  0  0  0  0  0  0  0  0
    7.4545  -15.7405   25.6538 C   0  0  2  0  0  0  0  0  0  0  0  0
    8.6829  -15.0893   26.0816 N   0  0  0  0  0  0  0  0  0  0  0  0
    7.5199  -15.9728   24.1615 C   0  0  0  0  0  0  0  0  0  0  0  0
    6.6190  -16.6400   23.6074 O   0  0  0  0  0  0  0  0  0  0  0  0
    8.1386  -12.1569   20.7657 C   0  0  0  0  0  0  0  0  0  0  0  0
    8.6978  -13.2921   21.6275 C   0  0  0  0  0  0  0  0  0  0  0  0
    8.0918  -14.6010   21.2485 C   0  0  2  0  0  0  0  0  0  0  0  0
    6.5841  -14.5991   21.3286 C   0  0  0  0  0  0  0  0  0  0  0  0
    8.7209  -15.7617   21.9343 C   0  0  2  0  0  0  0  0  0  0  0  0
    8.5626  -15.4602   23.3857 N   0  0  0  0  0  0  0  0  0  0  0  0
   10.1476  -15.9688   21.7234 C   0  0  0  0  0  0  0  0  0  0  0  0
   10.9676  -14.9787   21.7378 O   0  0  0  0  0  0  0  0  0  0  0  0
   14.7558  -16.3229   22.2233 N   0  0  0  0  0  0  0  0  0  0  0  0
   13.5920  -15.7890   22.8265 C   0  0  0  0  0  0  0  0  0  0  0  0
   13.5128  -14.5521   23.0020 O   0  0  0  0  0  0  0  0  0  0  0  0
   12.5034  -16.7199   23.2277 C   0  0  0  0  0  0  0  0  0  0  0  0
   12.0828  -17.5739   22.0496 C   0  0  2  0  0  0  0  0  0  0  0  0
   10.8041  -17.2148   21.4896 N   0  0  0  0  0  0  0  0  0  0  0  0
   12.2146  -19.0208   22.2865 C   0  0  0  0  0  0  0  0  0  0  0  0
   11.4752  -19.5691   23.3257 O   0  0  0  0  0  0  0  0  0  0  0  0
   12.9621  -19.7671   21.5927 O   0  0  0  0  0  0  0  0  0  0  0  0
  1  2  1  0
  3  2  1  0
  4  5  1  0
  4  3  1  0
  5  6  1  6
  7  5  1  0
  8  7  2  0
  9 10  1  0
 10 11  1  0
 11 13  1  0
 11 12  1  1
 13 14  1  1
 14  7  1  0
 15 22  1  0
 15 13  1  0
 16 15  2  0
 17 18  1  0
 18 19  2  0
 18 20  1  0
 21 20  1  1
 21 23  1  0
 21 22  1  0
 23 24  1  0
 25 23  2  0
M  END
$$$$
