MIN.pdb
     RDKit          3D

 25 24  0  0  1  0  0  0  0  0999 V2000
    6.9938  -20.5655   26.9955 C   0  0  0  0  0  0  0  0  0  0  0  0
    6.5228  -21.2745   25.4311 S   0  0  0  0  0  0  0  0  0  0  0  0
    6.0801  -20.1114   24.1568 C   0  0  0  0  0  0  0  0  0  0  0  0
    6.4811  -18.7250   24.5212 C   0  0  0  0  0  0  0  0  0  0  0  0
    6.0187  -17.6426   23.6132 C   0  0  2  0  0  0  0  0  0  0  0  0
    6.0441  -18.0461   22.2158 N   0  0  0  0  0  0  0  0  0  0  0  0
    6.9788  -16.4910   23.8056 C   0  0  0  0  0  0  0  0  0  0  0  0
    7.8757  -16.2954   22.9564 O   0  0  0  0  0  0  0  0  0  0  0  0
    5.1027  -12.2162   26.4101 C   0  0  0  0  0  0  0  0  0  0  0  0
    5.9988  -12.9276   25.3927 C   0  0  0  0  0  0  0  0  0  0  0  0
    7.1403  -13.6092   26.0684 C   0  0  2  0  0  0  0  0  0  0  0  0
    8.0451  -12.6532   26.8079 C   0  0  0  0  0  0  0  0  0  0  0  0
    7.8723  -14.5521   25.1804 C   0  0  2  0  0  0  0  0  0  0  0  0
    6.8888  -15.6393   24.9094 N   0  0  0  0  0  0  0  0  0  0  0  0
    9.0509  -15.2087   25.7304 C   0  0  0  0  0  0  0  0  0  0  0  0
   10.1825  -14.6005   25.7799 O   0  0  0  0  0  0  0  0  0  0  0  0
    9.0405  -19.7970   28.7930 N   0  0  0  0  0  0  0  0  0  0  0  0
    8.9261  -18.4608   28.3406 C   0  0  0  0  0  0  0  0  0  0  0  0
    7.7932  -18.0128   28.0528 O   0  0  0  0  0  0  0  0  0  0  0  0
   10.1591  -17.6366   28.2264 C   0  0  0  0  0  0  0  0  0  0  0  0
   10.3164  -17.1215   26.8108 C   0  0  2  0  0  0  0  0  0  0  0  0
    9.1208  -16.5313   26.2634 N   0  0  0  0  0  0  0  0  0  0  0  0
   10.9472  -18.0849   25.8938 C   0  0  0  0  0  0  0  0  0  0  0  0
   10.3241  -18.3092   24.6736 O   0  0  0  0  0  0  0  0  0  0  0  0
   12.0134  -18.7037   26.1716 O   0  0  0  0  0  0  0  0  0  0  0  0
  1  2  1  0
  3  2  1  0
  4  5  1  0
  4  3  1  0
  5  6  1  6
  7  5  1  0
  8  7  2  0
  9 10  1  0
 10 11  1  0
 11 13  1  0
 11 12  1  6
 13 14  1  1
 14  7  1  0
 15 22  1  0
 15 13  1  0
 16 15  2  0
 17 18  1  0
 18 19  2  0
 18 20  1  0
 21 20  1  1
 21 23  1  0
 21 22  1  0
 23 24  1  0
 25 23  2  0
M  END
$$$$
