MIN.pdb
     RDKit          3D

 25 24  0  0  1  0  0  0  0  0999 V2000
    5.3046  -19.2057   23.1278 C   0  0  0  0  0  0  0  0  0  0  0  0
    5.0822  -18.8471   21.3975 S   0  0  0  0  0  0  0  0  0  0  0  0
    5.5597  -17.2113   20.8791 C   0  0  0  0  0  0  0  0  0  0  0  0
    6.3313  -16.5071   21.9395 C   0  0  0  0  0  0  0  0  0  0  0  0
    6.5681  -15.0545   21.7307 C   0  0  2  0  0  0  0  0  0  0  0  0
    7.0560  -14.7617   20.3918 N   0  0  0  0  0  0  0  0  0  0  0  0
    7.6244  -14.6503   22.7337 C   0  0  0  0  0  0  0  0  0  0  0  0
    8.7968  -14.4599   22.3424 O   0  0  0  0  0  0  0  0  0  0  0  0
    5.7497  -11.5618   26.7520 C   0  0  0  0  0  0  0  0  0  0  0  0
    6.6780  -12.0932   25.6563 C   0  0  0  0  0  0  0  0  0  0  0  0
    7.4147  -13.3044   26.1192 C   0  0  2  0  0  0  0  0  0  0  0  0
    8.1200  -13.0985   27.4382 C   0  0  0  0  0  0  0  0  0  0  0  0
    8.2826  -13.9027   25.0694 C   0  0  2  0  0  0  0  0  0  0  0  0
    7.3230  -14.4843   24.0878 N   0  0  0  0  0  0  0  0  0  0  0  0
    9.1564  -14.9978   25.4696 C   0  0  0  0  0  0  0  0  0  0  0  0
   10.1145  -14.8061   26.3051 O   0  0  0  0  0  0  0  0  0  0  0  0
   12.1156  -16.6357   22.6210 N   0  0  0  0  0  0  0  0  0  0  0  0
   11.1717  -17.3809   23.3674 C   0  0  0  0  0  0  0  0  0  0  0  0
   10.2523  -17.9758   22.7609 O   0  0  0  0  0  0  0  0  0  0  0  0
   11.3098  -17.4311   24.8476 C   0  0  0  0  0  0  0  0  0  0  0  0
    9.9445  -17.4072   25.5029 C   0  0  2  0  0  0  0  0  0  0  0  0
    9.0827  -16.3536   25.0286 N   0  0  0  0  0  0  0  0  0  0  0  0
    9.9881  -17.4891   26.9720 C   0  0  0  0  0  0  0  0  0  0  0  0
   10.5768  -16.4332   27.6546 O   0  0  0  0  0  0  0  0  0  0  0  0
    9.5195  -18.4665   27.6217 O   0  0  0  0  0  0  0  0  0  0  0  0
  1  2  1  0
  3  2  1  0
  4  5  1  0
  4  3  1  0
  5  6  1  6
  7  5  1  0
  8  7  2  0
  9 10  1  0
 10 11  1  0
 11 13  1  0
 11 12  1  1
 13 14  1  6
 14  7  1  0
 15 22  1  0
 15 13  1  0
 16 15  2  0
 17 18  1  0
 18 19  2  0
 18 20  1  0
 21 20  1  1
 21 23  1  0
 21 22  1  0
 23 24  1  0
 25 23  2  0
M  END
$$$$
