MIN.pdb
     RDKit          3D

 25 24  0  0  1  0  0  0  0  0999 V2000
    9.9897  -12.7640   28.3294 C   0  0  0  0  0  0  0  0  0  0  0  0
   10.3422  -14.5043   28.4677 S   0  0  0  0  0  0  0  0  0  0  0  0
    9.0462  -15.6011   27.9291 C   0  0  0  0  0  0  0  0  0  0  0  0
    8.6619  -15.3379   26.5153 C   0  0  0  0  0  0  0  0  0  0  0  0
    7.4684  -16.0646   26.0082 C   0  0  2  0  0  0  0  0  0  0  0  0
    7.2418  -17.3152   26.7158 N   0  0  0  0  0  0  0  0  0  0  0  0
    7.7465  -16.3706   24.5542 C   0  0  0  0  0  0  0  0  0  0  0  0
    7.7578  -17.5613   24.1722 O   0  0  0  0  0  0  0  0  0  0  0  0
    6.6713  -12.2510   21.3561 C   0  0  0  0  0  0  0  0  0  0  0  0
    6.7391  -13.7040   21.8343 C   0  0  0  0  0  0  0  0  0  0  0  0
    8.0658  -14.3095   21.5219 C   0  0  2  0  0  0  0  0  0  0  0  0
    8.3739  -14.3264   20.0439 C   0  0  0  0  0  0  0  0  0  0  0  0
    8.2862  -15.6208   22.1890 C   0  0  2  0  0  0  0  0  0  0  0  0
    7.9915  -15.3554   23.6261 N   0  0  0  0  0  0  0  0  0  0  0  0
    9.6355  -16.1695   22.1535 C   0  0  0  0  0  0  0  0  0  0  0  0
    9.9293  -17.1492   21.3746 O   0  0  0  0  0  0  0  0  0  0  0  0
   12.4546  -16.0078   20.2156 N   0  0  0  0  0  0  0  0  0  0  0  0
   13.3062  -15.2385   21.0439 C   0  0  0  0  0  0  0  0  0  0  0  0
   14.1387  -14.4705   20.5109 O   0  0  0  0  0  0  0  0  0  0  0  0
   13.1777  -15.3701   22.5199 C   0  0  0  0  0  0  0  0  0  0  0  0
   12.0631  -16.3358   22.8653 C   0  0  2  0  0  0  0  0  0  0  0  0
   10.7563  -15.7302   22.9210 N   0  0  0  0  0  0  0  0  0  0  0  0
   12.3495  -17.1806   24.0363 C   0  0  0  0  0  0  0  0  0  0  0  0
   13.5691  -17.8433   24.0645 O   0  0  0  0  0  0  0  0  0  0  0  0
   11.5413  -17.3226   24.9974 O   0  0  0  0  0  0  0  0  0  0  0  0
  1  2  1  0
  3  2  1  0
  4  5  1  0
  4  3  1  0
  5  6  1  1
  7  5  1  0
  8  7  2  0
  9 10  1  0
 10 11  1  0
 11 13  1  0
 11 12  1  6
 13 14  1  1
 14  7  1  0
 15 22  1  0
 15 13  1  0
 16 15  2  0
 17 18  1  0
 18 19  2  0
 18 20  1  0
 21 20  1  1
 21 23  1  0
 21 22  1  0
 23 24  1  0
 25 23  2  0
M  END
$$$$
