MIN.pdb
     RDKit          3D

 25 24  0  0  1  0  0  0  0  0999 V2000
    8.2439  -11.4718   19.3089 C   0  0  0  0  0  0  0  0  0  0  0  0
    7.3773  -12.7914   18.4846 S   0  0  0  0  0  0  0  0  0  0  0  0
    7.1815  -14.2927   19.4229 C   0  0  0  0  0  0  0  0  0  0  0  0
    7.9761  -14.2565   20.6811 C   0  0  0  0  0  0  0  0  0  0  0  0
    7.9002  -15.4631   21.5460 C   0  0  2  0  0  0  0  0  0  0  0  0
    6.5281  -15.8386   21.8504 N   0  0  0  0  0  0  0  0  0  0  0  0
    8.6047  -15.1042   22.8344 C   0  0  0  0  0  0  0  0  0  0  0  0
    9.8426  -14.9274   22.8245 O   0  0  0  0  0  0  0  0  0  0  0  0
    6.0262  -11.8945   26.0090 C   0  0  0  0  0  0  0  0  0  0  0  0
    7.2066  -12.5950   25.3304 C   0  0  0  0  0  0  0  0  0  0  0  0
    7.5950  -13.8296   26.0715 C   0  0  2  0  0  0  0  0  0  0  0  0
    7.9875  -13.5596   27.5042 C   0  0  0  0  0  0  0  0  0  0  0  0
    8.5753  -14.6735   25.3366 C   0  0  2  0  0  0  0  0  0  0  0  0
    7.9065  -14.9651   24.0365 N   0  0  0  0  0  0  0  0  0  0  0  0
    8.9060  -15.9695   25.9144 C   0  0  0  0  0  0  0  0  0  0  0  0
    7.9960  -16.8562   26.1106 O   0  0  0  0  0  0  0  0  0  0  0  0
   11.2843  -20.9091   25.4008 N   0  0  0  0  0  0  0  0  0  0  0  0
   11.8830  -19.7710   25.9922 C   0  0  0  0  0  0  0  0  0  0  0  0
   12.7613  -19.9345   26.8691 O   0  0  0  0  0  0  0  0  0  0  0  0
   11.4467  -18.4207   25.5465 C   0  0  0  0  0  0  0  0  0  0  0  0
   10.5318  -17.7974   26.5802 C   0  0  2  0  0  0  0  0  0  0  0  0
   10.1995  -16.4197   26.3173 N   0  0  0  0  0  0  0  0  0  0  0  0
   10.9621  -18.0241   27.9695 C   0  0  0  0  0  0  0  0  0  0  0  0
   10.7276  -19.2789   28.5155 O   0  0  0  0  0  0  0  0  0  0  0  0
   11.5252  -17.1357   28.6700 O   0  0  0  0  0  0  0  0  0  0  0  0
  1  2  1  0
  3  2  1  0
  4  5  1  0
  4  3  1  0
  5  6  1  1
  7  5  1  0
  8  7  2  0
  9 10  1  0
 10 11  1  0
 11 13  1  0
 11 12  1  1
 13 14  1  6
 14  7  1  0
 15 22  1  0
 15 13  1  0
 16 15  2  0
 17 18  1  0
 18 19  2  0
 18 20  1  0
 21 20  1  6
 21 23  1  0
 21 22  1  0
 23 24  1  0
 25 23  2  0
M  END
$$$$
