MIN.pdb
     RDKit          3D

 25 24  0  0  1  0  0  0  0  0999 V2000
    6.1709  -11.7647   27.1064 C   0  0  0  0  0  0  0  0  0  0  0  0
    7.8223  -12.4280   27.0352 S   0  0  0  0  0  0  0  0  0  0  0  0
    7.9421  -14.1670   26.6689 C   0  0  0  0  0  0  0  0  0  0  0  0
    6.8995  -14.5919   25.6952 C   0  0  0  0  0  0  0  0  0  0  0  0
    6.8861  -16.0321   25.3272 C   0  0  2  0  0  0  0  0  0  0  0  0
    7.9689  -16.7726   25.9561 N   0  0  0  0  0  0  0  0  0  0  0  0
    7.0651  -16.0865   23.8272 C   0  0  0  0  0  0  0  0  0  0  0  0
    6.0689  -16.2953   23.1006 O   0  0  0  0  0  0  0  0  0  0  0  0
    7.7881  -12.3409   20.0689 C   0  0  0  0  0  0  0  0  0  0  0  0
    7.6000  -13.8534   20.2152 C   0  0  0  0  0  0  0  0  0  0  0  0
    7.7517  -14.2771   21.6370 C   0  0  2  0  0  0  0  0  0  0  0  0
    8.2634  -13.1731   22.5309 C   0  0  0  0  0  0  0  0  0  0  0  0
    8.4913  -15.5584   21.7938 C   0  0  2  0  0  0  0  0  0  0  0  0
    8.3167  -15.9091   23.2322 N   0  0  0  0  0  0  0  0  0  0  0  0
    9.9295  -15.5318   21.5617 C   0  0  0  0  0  0  0  0  0  0  0  0
   10.5787  -14.4222   21.5678 O   0  0  0  0  0  0  0  0  0  0  0  0
   14.5485  -15.6207   23.6692 N   0  0  0  0  0  0  0  0  0  0  0  0
   13.4267  -16.4256   23.9810 C   0  0  0  0  0  0  0  0  0  0  0  0
   13.5620  -17.3640   24.7983 O   0  0  0  0  0  0  0  0  0  0  0  0
   12.1259  -16.1235   23.3259 C   0  0  0  0  0  0  0  0  0  0  0  0
   11.9662  -16.9538   22.0692 C   0  0  2  0  0  0  0  0  0  0  0  0
   10.7752  -16.6551   21.3142 N   0  0  0  0  0  0  0  0  0  0  0  0
   12.1584  -18.3977   22.2817 C   0  0  0  0  0  0  0  0  0  0  0  0
   11.1131  -19.1041   22.8611 O   0  0  0  0  0  0  0  0  0  0  0  0
   13.2196  -19.0055   21.9632 O   0  0  0  0  0  0  0  0  0  0  0  0
  1  2  1  0
  3  2  1  0
  4  5  1  0
  4  3  1  0
  5  6  1  1
  7  5  1  0
  8  7  2  0
  9 10  1  0
 10 11  1  0
 11 13  1  0
 11 12  1  1
 13 14  1  1
 14  7  1  0
 15 22  1  0
 15 13  1  0
 16 15  2  0
 17 18  1  0
 18 19  2  0
 18 20  1  0
 21 20  1  1
 21 23  1  0
 21 22  1  0
 23 24  1  0
 25 23  2  0
M  END
$$$$
