MIN.pdb
     RDKit          3D

 25 24  0  0  1  0  0  0  0  0999 V2000
    8.4158  -11.4674   19.4829 C   0  0  0  0  0  0  0  0  0  0  0  0
    7.4236  -12.7622   18.7679 S   0  0  0  0  0  0  0  0  0  0  0  0
    7.4983  -14.3389   19.5931 C   0  0  0  0  0  0  0  0  0  0  0  0
    8.5126  -14.3363   20.6826 C   0  0  0  0  0  0  0  0  0  0  0  0
    8.6128  -15.5767   21.4957 C   0  0  2  0  0  0  0  0  0  0  0  0
    7.3436  -16.2818   21.5856 N   0  0  0  0  0  0  0  0  0  0  0  0
    9.0274  -15.1403   22.8824 C   0  0  0  0  0  0  0  0  0  0  0  0
   10.0973  -14.5099   23.0297 O   0  0  0  0  0  0  0  0  0  0  0  0
    6.3222  -11.8217   25.7245 C   0  0  0  0  0  0  0  0  0  0  0  0
    7.5367  -12.6508   25.2979 C   0  0  0  0  0  0  0  0  0  0  0  0
    7.3935  -14.0714   25.7286 C   0  0  2  0  0  0  0  0  0  0  0  0
    6.9704  -14.2115   27.1711 C   0  0  0  0  0  0  0  0  0  0  0  0
    8.5639  -14.9165   25.3689 C   0  0  2  0  0  0  0  0  0  0  0  0
    8.2443  -15.4240   24.0041 N   0  0  0  0  0  0  0  0  0  0  0  0
    8.8110  -16.0975   26.1857 C   0  0  0  0  0  0  0  0  0  0  0  0
    9.1483  -15.9867   27.4213 O   0  0  0  0  0  0  0  0  0  0  0  0
   11.3940  -20.7823   24.4191 N   0  0  0  0  0  0  0  0  0  0  0  0
   11.7404  -19.4379   24.6944 C   0  0  0  0  0  0  0  0  0  0  0  0
   12.9190  -19.1697   25.0198 O   0  0  0  0  0  0  0  0  0  0  0  0
   10.6888  -18.3917   24.5839 C   0  0  0  0  0  0  0  0  0  0  0  0
    9.8109  -18.3981   25.8181 C   0  0  2  0  0  0  0  0  0  0  0  0
    8.7182  -17.4594   25.7675 N   0  0  0  0  0  0  0  0  0  0  0  0
   10.5616  -18.3304   27.0825 C   0  0  0  0  0  0  0  0  0  0  0  0
   10.7050  -19.5069   27.8055 O   0  0  0  0  0  0  0  0  0  0  0  0
   11.0694  -17.2614   27.5258 O   0  0  0  0  0  0  0  0  0  0  0  0
  1  2  1  0
  3  2  1  0
  4  5  1  0
  4  3  1  0
  5  6  1  1
  7  5  1  0
  8  7  2  0
  9 10  1  0
 10 11  1  0
 11 13  1  0
 11 12  1  1
 13 14  1  6
 14  7  1  0
 15 22  1  0
 15 13  1  0
 16 15  2  0
 17 18  1  0
 18 19  2  0
 18 20  1  0
 21 20  1  6
 21 23  1  0
 21 22  1  0
 23 24  1  0
 25 23  2  0
M  END
$$$$
