MWP.pdb
     RDKit          3D

 30 32  0  0  1  0  0  0  0  0999 V2000
   26.8299  -21.0957  -19.8845 C   0  0  0  0  0  0  0  0  0  0  0  0
   28.5837  -20.6393  -19.9727 S   0  0  0  0  0  0  0  0  0  0  0  0
   29.4468  -21.1578  -18.4402 C   0  0  0  0  0  0  0  0  0  0  0  0
   28.3827  -21.4765  -17.4210 C   0  0  0  0  0  0  0  0  0  0  0  0
   28.9880  -21.8032  -16.0781 C   0  0  2  0  0  0  0  0  0  0  0  0
   29.8033  -22.9965  -16.1276 N   0  0  0  0  0  0  0  0  0  0  0  0
   27.9422  -21.9190  -15.0120 C   0  0  0  0  0  0  0  0  0  0  0  0
   27.3240  -23.0080  -14.9333 O   0  0  0  0  0  0  0  0  0  0  0  0
   27.6440  -20.8738  -14.1249 N   0  0  0  0  0  0  0  0  0  0  0  0
   26.5257  -20.8846  -13.1563 C   0  0  1  0  0  0  0  0  0  0  0  0
   27.0077  -20.0595  -12.0326 C   0  0  0  0  0  0  0  0  0  0  0  0
   27.9570  -20.5727  -11.0802 C   0  0  0  0  0  0  0  0  0  0  0  0
   29.1174  -21.2723  -11.3217 C   0  0  0  0  0  0  0  0  0  0  0  0
   29.6923  -21.5680  -10.1308 N   0  0  0  0  0  0  0  0  0  0  0  0
   28.9495  -21.0871   -9.1360 C   0  0  0  0  0  0  0  0  0  0  0  0
   29.1466  -21.1359   -7.7713 C   0  0  0  0  0  0  0  0  0  0  0  0
   28.2234  -20.5368   -6.9184 C   0  0  0  0  0  0  0  0  0  0  0  0
   27.1358  -19.9105   -7.4643 C   0  0  0  0  0  0  0  0  0  0  0  0
   26.9621  -19.8763   -8.8251 C   0  0  0  0  0  0  0  0  0  0  0  0
   27.8552  -20.4587   -9.7074 C   0  0  0  0  0  0  0  0  0  0  0  0
   25.2444  -20.5584  -13.7779 C   0  0  0  0  0  0  0  0  0  0  0  0
   25.2267  -19.7594  -14.7520 O   0  0  0  0  0  0  0  0  0  0  0  0
   23.9858  -21.0749  -13.3923 N   0  0  0  0  0  0  0  0  0  0  0  0
   23.7806  -22.0378  -12.3251 C   0  0  0  0  0  0  0  0  0  0  0  0
   22.6697  -22.9408  -12.8414 C   0  0  0  0  0  0  0  0  0  0  0  0
   22.2256  -22.3118  -14.1169 C   0  0  0  0  0  0  0  0  0  0  0  0
   22.6745  -20.8401  -13.9659 C   0  0  1  0  0  0  0  0  0  0  0  0
   21.6949  -20.2448  -13.0419 C   0  0  0  0  0  0  0  0  0  0  0  0
   22.0986  -20.0556  -11.7214 O   0  0  0  0  0  0  0  0  0  0  0  0
   20.5347  -19.8942  -13.3348 O   0  0  0  0  0  0  0  0  0  0  0  0
  1  2  1  0
  3  2  1  0
  4  3  1  0
  5  6  1  6
  5  4  1  0
  7  5  1  0
  8  7  2  0
  9  7  1  0
 10 21  1  0
 10  9  1  0
 11 12  1  0
 10 11  1  1
 12 13  2  0
 14 13  1  0
 15 14  1  0
 16 15  2  0
 17 16  1  0
 18 19  1  0
 18 17  2  0
 19 20  2  0
 20 15  1  0
 20 12  1  0
 21 22  2  0
 23 24  1  0
 23 21  1  0
 25 24  1  0
 26 27  1  0
 26 25  1  0
 27 23  1  0
 27 28  1  1
 28 29  1  0
 30 28  2  0
M  END
$$$$
