MWP.pdb
     RDKit          3D

 30 32  0  0  1  0  0  0  0  0999 V2000
   20.8158  -22.0391  -14.9393 C   0  0  0  0  0  0  0  0  0  0  0  0
   19.6518  -20.6479  -14.8978 S   0  0  0  0  0  0  0  0  0  0  0  0
   20.5428  -19.0727  -15.1927 C   0  0  0  0  0  0  0  0  0  0  0  0
   22.0071  -19.4103  -15.3144 C   0  0  0  0  0  0  0  0  0  0  0  0
   22.8668  -18.3903  -14.6094 C   0  0  2  0  0  0  0  0  0  0  0  0
   22.4414  -17.0370  -14.8901 N   0  0  0  0  0  0  0  0  0  0  0  0
   24.3180  -18.5685  -14.9349 C   0  0  0  0  0  0  0  0  0  0  0  0
   24.7655  -17.9328  -15.9197 O   0  0  0  0  0  0  0  0  0  0  0  0
   25.1659  -19.4021  -14.1902 N   0  0  0  0  0  0  0  0  0  0  0  0
   26.5422  -19.7734  -14.5862 C   0  0  1  0  0  0  0  0  0  0  0  0
   27.3136  -19.7088  -13.3305 C   0  0  0  0  0  0  0  0  0  0  0  0
   26.7056  -20.0126  -12.0618 C   0  0  0  0  0  0  0  0  0  0  0  0
   25.3677  -20.0425  -11.7402 C   0  0  0  0  0  0  0  0  0  0  0  0
   25.2518  -20.3625  -10.4286 N   0  0  0  0  0  0  0  0  0  0  0  0
   26.4591  -20.5393   -9.8958 C   0  0  0  0  0  0  0  0  0  0  0  0
   26.8256  -20.8841   -8.6112 C   0  0  0  0  0  0  0  0  0  0  0  0
   28.1734  -21.0278   -8.2926 C   0  0  0  0  0  0  0  0  0  0  0  0
   29.1053  -20.8205   -9.2732 C   0  0  0  0  0  0  0  0  0  0  0  0
   28.7152  -20.4776  -10.5434 C   0  0  0  0  0  0  0  0  0  0  0  0
   27.3871  -20.3248  -10.9017 C   0  0  0  0  0  0  0  0  0  0  0  0
   26.5840  -20.9974  -15.3826 C   0  0  0  0  0  0  0  0  0  0  0  0
   25.6153  -21.8004  -15.3153 O   0  0  0  0  0  0  0  0  0  0  0  0
   27.6282  -21.3766  -16.2575 N   0  0  0  0  0  0  0  0  0  0  0  0
   28.9432  -20.7619  -16.2882 C   0  0  0  0  0  0  0  0  0  0  0  0
   29.3114  -20.7342  -17.7646 C   0  0  0  0  0  0  0  0  0  0  0  0
   28.2205  -21.4861  -18.4461 C   0  0  0  0  0  0  0  0  0  0  0  0
   27.6328  -22.3654  -17.3185 C   0  0  1  0  0  0  0  0  0  0  0  0
   28.6113  -23.4517  -17.1448 C   0  0  0  0  0  0  0  0  0  0  0  0
   28.6200  -24.4605  -18.1064 O   0  0  0  0  0  0  0  0  0  0  0  0
   29.4342  -23.5506  -16.2132 O   0  0  0  0  0  0  0  0  0  0  0  0
  1  2  1  0
  3  2  1  0
  4  3  1  0
  5  6  1  6
  5  4  1  0
  7  5  1  0
  8  7  2  0
  9  7  1  0
 10 21  1  0
 10  9  1  0
 11 12  1  0
 10 11  1  1
 12 13  2  0
 14 13  1  0
 15 14  1  0
 16 15  2  0
 17 16  1  0
 18 19  1  0
 18 17  2  0
 19 20  2  0
 20 15  1  0
 20 12  1  0
 21 22  2  0
 23 24  1  0
 23 21  1  0
 25 24  1  0
 26 27  1  0
 26 25  1  0
 27 23  1  0
 27 28  1  1
 28 29  1  0
 30 28  2  0
M  END
$$$$
