MWP.pdb
     RDKit          3D

 30 32  0  0  1  0  0  0  0  0999 V2000
   25.6337  -14.1892  -14.7939 C   0  0  0  0  0  0  0  0  0  0  0  0
   25.4748  -14.9274  -16.4436 S   0  0  0  0  0  0  0  0  0  0  0  0
   26.0789  -16.6585  -16.4194 C   0  0  0  0  0  0  0  0  0  0  0  0
   27.5467  -16.6088  -16.0792 C   0  0  0  0  0  0  0  0  0  0  0  0
   28.1726  -17.9801  -16.1430 C   0  0  2  0  0  0  0  0  0  0  0  0
   28.4101  -18.4039  -17.5050 N   0  0  0  0  0  0  0  0  0  0  0  0
   27.3565  -18.9969  -15.4056 C   0  0  0  0  0  0  0  0  0  0  0  0
   26.4682  -19.5982  -16.0564 O   0  0  0  0  0  0  0  0  0  0  0  0
   27.5527  -19.2870  -14.0471 N   0  0  0  0  0  0  0  0  0  0  0  0
   26.7492  -20.2547  -13.2680 C   0  0  1  0  0  0  0  0  0  0  0  0
   27.5094  -20.4374  -12.0172 C   0  0  0  0  0  0  0  0  0  0  0  0
   26.8775  -20.9323  -10.8225 C   0  0  0  0  0  0  0  0  0  0  0  0
   26.1697  -22.1001  -10.6506 C   0  0  0  0  0  0  0  0  0  0  0  0
   25.7423  -22.1541   -9.3658 N   0  0  0  0  0  0  0  0  0  0  0  0
   26.1467  -21.0703   -8.7067 C   0  0  0  0  0  0  0  0  0  0  0  0
   25.9595  -20.7058   -7.3893 C   0  0  0  0  0  0  0  0  0  0  0  0
   26.5009  -19.5120   -6.9195 C   0  0  0  0  0  0  0  0  0  0  0  0
   27.2100  -18.7266   -7.7873 C   0  0  0  0  0  0  0  0  0  0  0  0
   27.3815  -19.1111   -9.0934 C   0  0  0  0  0  0  0  0  0  0  0  0
   26.8607  -20.2889   -9.6003 C   0  0  0  0  0  0  0  0  0  0  0  0
   25.3394  -19.8788  -13.1932 C   0  0  0  0  0  0  0  0  0  0  0  0
   25.0353  -18.6561  -13.1862 O   0  0  0  0  0  0  0  0  0  0  0  0
   24.2485  -20.7768  -13.1390 N   0  0  0  0  0  0  0  0  0  0  0  0
   24.3684  -22.2236  -13.1647 C   0  0  0  0  0  0  0  0  0  0  0  0
   23.1802  -22.6850  -13.9961 C   0  0  0  0  0  0  0  0  0  0  0  0
   22.3870  -21.4497  -14.2504 C   0  0  0  0  0  0  0  0  0  0  0  0
   22.8246  -20.5019  -13.1101 C   0  0  1  0  0  0  0  0  0  0  0  0
   22.1236  -21.0055  -11.9173 C   0  0  0  0  0  0  0  0  0  0  0  0
   20.7688  -20.7004  -11.7990 O   0  0  0  0  0  0  0  0  0  0  0  0
   22.6336  -21.6813  -11.0019 O   0  0  0  0  0  0  0  0  0  0  0  0
  1  2  1  0
  3  2  1  0
  4  3  1  0
  5  6  1  6
  5  4  1  0
  7  5  1  0
  8  7  2  0
  9  7  1  0
 10 21  1  0
 10  9  1  0
 11 12  1  0
 10 11  1  1
 12 13  2  0
 14 13  1  0
 15 14  1  0
 16 15  2  0
 17 16  1  0
 18 19  1  0
 18 17  2  0
 19 20  2  0
 20 15  1  0
 20 12  1  0
 21 22  2  0
 23 24  1  0
 23 21  1  0
 25 24  1  0
 26 27  1  0
 26 25  1  0
 27 23  1  0
 27 28  1  1
 28 29  1  0
 30 28  2  0
M  END
$$$$
