MWP.pdb
     RDKit          3D

 30 32  0  0  1  0  0  0  0  0999 V2000
   23.4101  -14.0681  -16.5942 C   0  0  0  0  0  0  0  0  0  0  0  0
   22.6948  -14.9722  -17.9952 S   0  0  0  0  0  0  0  0  0  0  0  0
   23.9690  -15.2443  -19.2853 C   0  0  0  0  0  0  0  0  0  0  0  0
   24.8932  -16.3193  -18.7725 C   0  0  0  0  0  0  0  0  0  0  0  0
   25.8432  -15.7776  -17.7330 C   0  0  2  0  0  0  0  0  0  0  0  0
   26.7577  -14.8054  -18.2896 N   0  0  0  0  0  0  0  0  0  0  0  0
   26.5920  -16.8748  -17.0409 C   0  0  0  0  0  0  0  0  0  0  0  0
   27.4487  -17.4961  -17.7150 O   0  0  0  0  0  0  0  0  0  0  0  0
   26.3685  -17.2166  -15.6987 N   0  0  0  0  0  0  0  0  0  0  0  0
   26.8116  -18.4784  -15.0659 C   0  0  1  0  0  0  0  0  0  0  0  0
   26.5083  -18.2952  -13.6340 C   0  0  0  0  0  0  0  0  0  0  0  0
   26.6903  -19.3640  -12.6874 C   0  0  0  0  0  0  0  0  0  0  0  0
   25.7286  -20.0995  -12.0330 C   0  0  0  0  0  0  0  0  0  0  0  0
   26.3510  -20.9918  -11.2250 N   0  0  0  0  0  0  0  0  0  0  0  0
   27.6713  -20.8595  -11.3343 C   0  0  0  0  0  0  0  0  0  0  0  0
   28.6915  -21.5547  -10.7184 C   0  0  0  0  0  0  0  0  0  0  0  0
   30.0161  -21.2402  -11.0106 C   0  0  0  0  0  0  0  0  0  0  0  0
   30.2701  -20.2400  -11.9094 C   0  0  0  0  0  0  0  0  0  0  0  0
   29.2376  -19.5628  -12.5081 C   0  0  0  0  0  0  0  0  0  0  0  0
   27.9081  -19.8439  -12.2461 C   0  0  0  0  0  0  0  0  0  0  0  0
   26.2978  -19.6599  -15.7547 C   0  0  0  0  0  0  0  0  0  0  0  0
   25.1860  -19.5857  -16.3428 O   0  0  0  0  0  0  0  0  0  0  0  0
   26.9487  -20.9123  -15.8407 N   0  0  0  0  0  0  0  0  0  0  0  0
   28.2527  -21.2054  -15.2734 C   0  0  0  0  0  0  0  0  0  0  0  0
   28.9092  -22.1239  -16.2937 C   0  0  0  0  0  0  0  0  0  0  0  0
   27.8462  -22.4014  -17.3001 C   0  0  0  0  0  0  0  0  0  0  0  0
   26.5378  -22.1232  -16.5251 C   0  0  1  0  0  0  0  0  0  0  0  0
   26.3651  -23.2963  -15.6524 C   0  0  0  0  0  0  0  0  0  0  0  0
   26.0241  -24.5009  -16.2651 O   0  0  0  0  0  0  0  0  0  0  0  0
   26.4964  -23.3093  -14.4125 O   0  0  0  0  0  0  0  0  0  0  0  0
  1  2  1  0
  3  2  1  0
  4  3  1  0
  5  6  1  6
  5  4  1  0
  7  5  1  0
  8  7  2  0
  9  7  1  0
 10 21  1  0
 10  9  1  0
 11 12  1  0
 10 11  1  1
 12 13  2  0
 14 13  1  0
 15 14  1  0
 16 15  2  0
 17 16  1  0
 18 19  1  0
 18 17  2  0
 19 20  2  0
 20 15  1  0
 20 12  1  0
 21 22  2  0
 23 24  1  0
 23 21  1  0
 25 24  1  0
 26 27  1  0
 26 25  1  0
 27 23  1  0
 27 28  1  1
 28 29  1  0
 30 28  2  0
M  END
$$$$
