MWP.pdb
     RDKit          3D

 30 32  0  0  1  0  0  0  0  0999 V2000
   24.9504  -19.3190  -20.3233 C   0  0  0  0  0  0  0  0  0  0  0  0
   25.2824  -17.8350  -21.3129 S   0  0  0  0  0  0  0  0  0  0  0  0
   26.0403  -16.5358  -20.2643 C   0  0  0  0  0  0  0  0  0  0  0  0
   26.9624  -17.2325  -19.2963 C   0  0  0  0  0  0  0  0  0  0  0  0
   26.5251  -17.0171  -17.8684 C   0  0  2  0  0  0  0  0  0  0  0  0
   27.1952  -15.8885  -17.2614 N   0  0  0  0  0  0  0  0  0  0  0  0
   26.7088  -18.2515  -17.0401 C   0  0  0  0  0  0  0  0  0  0  0  0
   26.7609  -19.3468  -17.6499 O   0  0  0  0  0  0  0  0  0  0  0  0
   26.8213  -18.2174  -15.6421 N   0  0  0  0  0  0  0  0  0  0  0  0
   26.6572  -19.3901  -14.7551 C   0  0  1  0  0  0  0  0  0  0  0  0
   27.4739  -19.0687  -13.5696 C   0  0  0  0  0  0  0  0  0  0  0  0
   27.5563  -19.9700  -12.4504 C   0  0  0  0  0  0  0  0  0  0  0  0
   28.5418  -20.8860  -12.1611 C   0  0  0  0  0  0  0  0  0  0  0  0
   28.2037  -21.5286  -11.0170 N   0  0  0  0  0  0  0  0  0  0  0  0
   27.0429  -21.0628  -10.5605 C   0  0  0  0  0  0  0  0  0  0  0  0
   26.3251  -21.4062   -9.4334 C   0  0  0  0  0  0  0  0  0  0  0  0
   25.1257  -20.7564   -9.1540 C   0  0  0  0  0  0  0  0  0  0  0  0
   24.6891  -19.7861  -10.0147 C   0  0  0  0  0  0  0  0  0  0  0  0
   25.4211  -19.4633  -11.1296 C   0  0  0  0  0  0  0  0  0  0  0  0
   26.6175  -20.0841  -11.4437 C   0  0  0  0  0  0  0  0  0  0  0  0
   25.2560  -19.7612  -14.5723 C   0  0  0  0  0  0  0  0  0  0  0  0
   24.3739  -18.8650  -14.6523 O   0  0  0  0  0  0  0  0  0  0  0  0
   24.7750  -21.0667  -14.3195 N   0  0  0  0  0  0  0  0  0  0  0  0
   25.6168  -22.2360  -14.1400 C   0  0  0  0  0  0  0  0  0  0  0  0
   24.8489  -23.3605  -14.8196 C   0  0  0  0  0  0  0  0  0  0  0  0
   23.5423  -22.7559  -15.2028 C   0  0  0  0  0  0  0  0  0  0  0  0
   23.4100  -21.5509  -14.2432 C   0  0  1  0  0  0  0  0  0  0  0  0
   23.0379  -22.1449  -12.9485 C   0  0  0  0  0  0  0  0  0  0  0  0
   21.6821  -22.3715  -12.7181 O   0  0  0  0  0  0  0  0  0  0  0  0
   23.8278  -22.4638  -12.0378 O   0  0  0  0  0  0  0  0  0  0  0  0
  1  2  1  0
  3  2  1  0
  4  3  1  0
  5  6  1  1
  5  4  1  0
  7  5  1  0
  8  7  2  0
  9  7  1  0
 10 21  1  0
 10  9  1  0
 11 12  1  0
 10 11  1  1
 12 13  2  0
 14 13  1  0
 15 14  1  0
 16 15  2  0
 17 16  1  0
 18 19  1  0
 18 17  2  0
 19 20  2  0
 20 15  1  0
 20 12  1  0
 21 22  2  0
 23 24  1  0
 23 21  1  0
 25 24  1  0
 26 27  1  0
 26 25  1  0
 27 23  1  0
 27 28  1  1
 28 29  1  0
 30 28  2  0
M  END
$$$$
