MWP.pdb
     RDKit          3D

 30 32  0  0  1  0  0  0  0  0999 V2000
   21.3144  -24.4883  -12.6666 C   0  0  0  0  0  0  0  0  0  0  0  0
   20.2804  -23.3969  -11.6510 S   0  0  0  0  0  0  0  0  0  0  0  0
   20.1982  -21.7272  -12.4045 C   0  0  0  0  0  0  0  0  0  0  0  0
   21.6077  -21.1945  -12.4510 C   0  0  0  0  0  0  0  0  0  0  0  0
   21.9312  -20.3871  -11.2181 C   0  0  2  0  0  0  0  0  0  0  0  0
   21.0664  -19.2360  -11.0826 N   0  0  0  0  0  0  0  0  0  0  0  0
   23.3711  -19.9755  -11.1870 C   0  0  0  0  0  0  0  0  0  0  0  0
   23.7213  -19.0603  -11.9705 O   0  0  0  0  0  0  0  0  0  0  0  0
   24.3112  -20.5678  -10.3304 N   0  0  0  0  0  0  0  0  0  0  0  0
   25.7781  -20.4870  -10.5051 C   0  0  1  0  0  0  0  0  0  0  0  0
   26.3252  -20.9197   -9.2054 C   0  0  0  0  0  0  0  0  0  0  0  0
   26.6809  -19.9659   -8.1879 C   0  0  0  0  0  0  0  0  0  0  0  0
   26.4487  -18.6094   -8.1689 C   0  0  0  0  0  0  0  0  0  0  0  0
   26.9669  -18.1044   -7.0232 N   0  0  0  0  0  0  0  0  0  0  0  0
   27.5213  -19.0802   -6.3067 C   0  0  0  0  0  0  0  0  0  0  0  0
   28.1505  -19.0389   -5.0796 C   0  0  0  0  0  0  0  0  0  0  0  0
   28.6429  -20.2131   -4.5161 C   0  0  0  0  0  0  0  0  0  0  0  0
   28.4870  -21.3864   -5.2033 C   0  0  0  0  0  0  0  0  0  0  0  0
   27.8580  -21.4009   -6.4228 C   0  0  0  0  0  0  0  0  0  0  0  0
   27.3543  -20.2573   -7.0177 C   0  0  0  0  0  0  0  0  0  0  0  0
   26.2336  -21.1518  -11.7237 C   0  0  0  0  0  0  0  0  0  0  0  0
   25.7085  -22.2496  -12.0504 O   0  0  0  0  0  0  0  0  0  0  0  0
   27.2256  -20.6659  -12.6065 N   0  0  0  0  0  0  0  0  0  0  0  0
   28.2937  -19.7580  -12.2284 C   0  0  0  0  0  0  0  0  0  0  0  0
   28.4519  -18.8408  -13.4325 C   0  0  0  0  0  0  0  0  0  0  0  0
   27.5476  -19.4108  -14.4704 C   0  0  0  0  0  0  0  0  0  0  0  0
   27.3826  -20.8841  -14.0318 C   0  0  1  0  0  0  0  0  0  0  0  0
   28.6459  -21.5323  -14.4208 C   0  0  0  0  0  0  0  0  0  0  0  0
   29.5486  -21.8308  -13.4016 O   0  0  0  0  0  0  0  0  0  0  0  0
   28.9818  -21.8388  -15.5819 O   0  0  0  0  0  0  0  0  0  0  0  0
  1  2  1  0
  3  2  1  0
  4  3  1  0
  5  6  1  6
  5  4  1  0
  7  5  1  0
  8  7  2  0
  9  7  1  0
 10 21  1  0
 10  9  1  0
 11 12  1  0
 10 11  1  1
 12 13  2  0
 14 13  1  0
 15 14  1  0
 16 15  2  0
 17 16  1  0
 18 19  1  0
 18 17  2  0
 19 20  2  0
 20 15  1  0
 20 12  1  0
 21 22  2  0
 23 24  1  0
 23 21  1  0
 25 24  1  0
 26 27  1  0
 26 25  1  0
 27 23  1  0
 27 28  1  1
 28 29  1  0
 30 28  2  0
M  END
$$$$
