MWP.pdb
     RDKit          3D

 30 32  0  0  1  0  0  0  0  0999 V2000
   21.8443  -21.9227  -15.3176 C   0  0  0  0  0  0  0  0  0  0  0  0
   23.3682  -21.7199  -16.2812 S   0  0  0  0  0  0  0  0  0  0  0  0
   24.5902  -20.7404  -15.3275 C   0  0  0  0  0  0  0  0  0  0  0  0
   25.0545  -21.6069  -14.1846 C   0  0  0  0  0  0  0  0  0  0  0  0
   25.8813  -20.8193  -13.1983 C   0  0  2  0  0  0  0  0  0  0  0  0
   27.1963  -20.5138  -13.7166 N   0  0  0  0  0  0  0  0  0  0  0  0
   25.9810  -21.5170  -11.8766 C   0  0  0  0  0  0  0  0  0  0  0  0
   26.1207  -22.7637  -11.8971 O   0  0  0  0  0  0  0  0  0  0  0  0
   25.9244  -20.8345  -10.6521 N   0  0  0  0  0  0  0  0  0  0  0  0
   25.7194  -21.4801   -9.3368 C   0  0  1  0  0  0  0  0  0  0  0  0
   27.0173  -21.3333   -8.6515 C   0  0  0  0  0  0  0  0  0  0  0  0
   27.2941  -20.2013   -7.8067 C   0  0  0  0  0  0  0  0  0  0  0  0
   26.9128  -18.8905   -7.9816 C   0  0  0  0  0  0  0  0  0  0  0  0
   27.4048  -18.1624   -6.9500 N   0  0  0  0  0  0  0  0  0  0  0  0
   28.0851  -18.9514   -6.1210 C   0  0  0  0  0  0  0  0  0  0  0  0
   28.7414  -18.6545   -4.9443 C   0  0  0  0  0  0  0  0  0  0  0  0
   29.3777  -19.6688   -4.2336 C   0  0  0  0  0  0  0  0  0  0  0  0
   29.3335  -20.9440   -4.7283 C   0  0  0  0  0  0  0  0  0  0  0  0
   28.6747  -21.2135   -5.9015 C   0  0  0  0  0  0  0  0  0  0  0  0
   28.0296  -20.2353   -6.6381 C   0  0  0  0  0  0  0  0  0  0  0  0
   24.5069  -21.0141   -8.6681 C   0  0  0  0  0  0  0  0  0  0  0  0
   23.9129  -20.0001   -9.1226 O   0  0  0  0  0  0  0  0  0  0  0  0
   23.9082  -21.6125   -7.5354 N   0  0  0  0  0  0  0  0  0  0  0  0
   24.3998  -22.8102   -6.8780 C   0  0  0  0  0  0  0  0  0  0  0  0
   23.1396  -23.5593   -6.4694 C   0  0  0  0  0  0  0  0  0  0  0  0
   22.0193  -22.6348   -6.8008 C   0  0  0  0  0  0  0  0  0  0  0  0
   22.6970  -21.2455   -6.8270 C   0  0  1  0  0  0  0  0  0  0  0  0
   22.8926  -20.8996   -5.4094 C   0  0  0  0  0  0  0  0  0  0  0  0
   21.7736  -20.4689   -4.6988 O   0  0  0  0  0  0  0  0  0  0  0  0
   23.9711  -20.9571   -4.7861 O   0  0  0  0  0  0  0  0  0  0  0  0
  1  2  1  0
  3  2  1  0
  4  3  1  0
  5  6  1  6
  5  4  1  0
  7  5  1  0
  8  7  2  0
  9  7  1  0
 10 21  1  0
 10  9  1  0
 11 12  1  0
 10 11  1  1
 12 13  2  0
 14 13  1  0
 15 14  1  0
 16 15  2  0
 17 16  1  0
 18 19  1  0
 18 17  2  0
 19 20  2  0
 20 15  1  0
 20 12  1  0
 21 22  2  0
 23 24  1  0
 23 21  1  0
 25 24  1  0
 26 27  1  0
 26 25  1  0
 27 23  1  0
 27 28  1  1
 28 29  1  0
 30 28  2  0
M  END
$$$$
