MWP.pdb
     RDKit          3D

 30 32  0  0  1  0  0  0  0  0999 V2000
   29.3515  -15.6379  -16.2706 C   0  0  0  0  0  0  0  0  0  0  0  0
   29.1156  -16.6878  -17.7313 S   0  0  0  0  0  0  0  0  0  0  0  0
   27.3504  -17.1577  -17.8903 C   0  0  0  0  0  0  0  0  0  0  0  0
   27.2149  -18.5554  -17.3418 C   0  0  0  0  0  0  0  0  0  0  0  0
   28.0446  -18.7395  -16.0951 C   0  0  2  0  0  0  0  0  0  0  0  0
   29.3858  -19.1870  -16.3985 N   0  0  0  0  0  0  0  0  0  0  0  0
   27.3837  -19.6660  -15.1212 C   0  0  0  0  0  0  0  0  0  0  0  0
   27.3718  -20.8866  -15.4110 O   0  0  0  0  0  0  0  0  0  0  0  0
   26.7953  -19.2193  -13.9284 N   0  0  0  0  0  0  0  0  0  0  0  0
   26.0846  -20.0869  -12.9635 C   0  0  1  0  0  0  0  0  0  0  0  0
   26.4912  -19.5731  -11.6419 C   0  0  0  0  0  0  0  0  0  0  0  0
   27.3941  -20.3101  -10.7975 C   0  0  0  0  0  0  0  0  0  0  0  0
   28.4252  -21.1424  -11.1694 C   0  0  0  0  0  0  0  0  0  0  0  0
   29.0014  -21.6350  -10.0461 N   0  0  0  0  0  0  0  0  0  0  0  0
   28.3833  -21.1531   -8.9698 C   0  0  0  0  0  0  0  0  0  0  0  0
   28.6306  -21.3653   -7.6292 C   0  0  0  0  0  0  0  0  0  0  0  0
   27.8457  -20.7268   -6.6726 C   0  0  0  0  0  0  0  0  0  0  0  0
   26.8410  -19.8989   -7.0945 C   0  0  0  0  0  0  0  0  0  0  0  0
   26.6146  -19.7049   -8.4340 C   0  0  0  0  0  0  0  0  0  0  0  0
   27.3710  -20.3196   -9.4165 C   0  0  0  0  0  0  0  0  0  0  0  0
   24.6615  -20.2139  -13.2686 C   0  0  0  0  0  0  0  0  0  0  0  0
   24.0222  -19.1889  -13.6265 O   0  0  0  0  0  0  0  0  0  0  0  0
   23.9100  -21.4104  -13.2129 N   0  0  0  0  0  0  0  0  0  0  0  0
   24.4448  -22.7037  -12.8260 C   0  0  0  0  0  0  0  0  0  0  0  0
   23.7357  -23.6928  -13.7397 C   0  0  0  0  0  0  0  0  0  0  0  0
   22.7291  -22.8795  -14.4780 C   0  0  0  0  0  0  0  0  0  0  0  0
   22.5233  -21.6490  -13.5648 C   0  0  1  0  0  0  0  0  0  0  0  0
   21.6828  -22.1409  -12.4607 C   0  0  0  0  0  0  0  0  0  0  0  0
   20.3102  -22.2169  -12.6905 O   0  0  0  0  0  0  0  0  0  0  0  0
   22.0889  -22.4961  -11.3365 O   0  0  0  0  0  0  0  0  0  0  0  0
  1  2  1  0
  3  2  1  0
  4  3  1  0
  5  6  1  6
  5  4  1  0
  7  5  1  0
  8  7  2  0
  9  7  1  0
 10 21  1  0
 10  9  1  0
 11 12  1  0
 10 11  1  1
 12 13  2  0
 14 13  1  0
 15 14  1  0
 16 15  2  0
 17 16  1  0
 18 19  1  0
 18 17  2  0
 19 20  2  0
 20 15  1  0
 20 12  1  0
 21 22  2  0
 23 24  1  0
 23 21  1  0
 25 24  1  0
 26 27  1  0
 26 25  1  0
 27 23  1  0
 27 28  1  1
 28 29  1  0
 30 28  2  0
M  END
$$$$
