MWP.pdb
     RDKit          3D

 30 32  0  0  1  0  0  0  0  0999 V2000
   18.9883  -17.0826  -17.6248 C   0  0  0  0  0  0  0  0  0  0  0  0
   19.2812  -18.6990  -18.3952 S   0  0  0  0  0  0  0  0  0  0  0  0
   20.9732  -18.7635  -19.0989 C   0  0  0  0  0  0  0  0  0  0  0  0
   21.5502  -17.3752  -18.9882 C   0  0  0  0  0  0  0  0  0  0  0  0
   21.9314  -17.0501  -17.5650 C   0  0  2  0  0  0  0  0  0  0  0  0
   21.6567  -15.6697  -17.2329 N   0  0  0  0  0  0  0  0  0  0  0  0
   23.3630  -17.3888  -17.2834 C   0  0  0  0  0  0  0  0  0  0  0  0
   24.2023  -17.1101  -18.1733 O   0  0  0  0  0  0  0  0  0  0  0  0
   23.7789  -17.9912  -16.0865 N   0  0  0  0  0  0  0  0  0  0  0  0
   25.1619  -18.4335  -15.8025 C   0  0  1  0  0  0  0  0  0  0  0  0
   25.3599  -18.1198  -14.3748 C   0  0  0  0  0  0  0  0  0  0  0  0
   26.4608  -18.6747  -13.6321 C   0  0  0  0  0  0  0  0  0  0  0  0
   27.8095  -18.5039  -13.8467 C   0  0  0  0  0  0  0  0  0  0  0  0
   28.4834  -19.2217  -12.9156 N   0  0  0  0  0  0  0  0  0  0  0  0
   27.6234  -19.8453  -12.1129 C   0  0  0  0  0  0  0  0  0  0  0  0
   27.8505  -20.6670  -11.0282 C   0  0  0  0  0  0  0  0  0  0  0  0
   26.7717  -21.1965  -10.3250 C   0  0  0  0  0  0  0  0  0  0  0  0
   25.5040  -20.8834  -10.7348 C   0  0  0  0  0  0  0  0  0  0  0  0
   25.3044  -20.0643  -11.8176 C   0  0  0  0  0  0  0  0  0  0  0  0
   26.3482  -19.5173  -12.5433 C   0  0  0  0  0  0  0  0  0  0  0  0
   25.4224  -19.7917  -16.2736 C   0  0  0  0  0  0  0  0  0  0  0  0
   24.4615  -20.6029  -16.3529 O   0  0  0  0  0  0  0  0  0  0  0  0
   26.6804  -20.2986  -16.6734 N   0  0  0  0  0  0  0  0  0  0  0  0
   27.9199  -19.5427  -16.6506 C   0  0  0  0  0  0  0  0  0  0  0  0
   28.6631  -20.0009  -17.8971 C   0  0  0  0  0  0  0  0  0  0  0  0
   27.8355  -21.1088  -18.4517 C   0  0  0  0  0  0  0  0  0  0  0  0
   27.0213  -21.5938  -17.2303 C   0  0  1  0  0  0  0  0  0  0  0  0
   27.9788  -22.3759  -16.4310 C   0  0  0  0  0  0  0  0  0  0  0  0
   28.3349  -23.6334  -16.9154 O   0  0  0  0  0  0  0  0  0  0  0  0
   28.5008  -22.0143  -15.3578 O   0  0  0  0  0  0  0  0  0  0  0  0
  1  2  1  0
  3  2  1  0
  4  3  1  0
  5  6  1  6
  5  4  1  0
  7  5  1  0
  8  7  2  0
  9  7  1  0
 10 21  1  0
 10  9  1  0
 11 12  1  0
 10 11  1  1
 12 13  2  0
 14 13  1  0
 15 14  1  0
 16 15  2  0
 17 16  1  0
 18 19  1  0
 18 17  2  0
 19 20  2  0
 20 15  1  0
 20 12  1  0
 21 22  2  0
 23 24  1  0
 23 21  1  0
 25 24  1  0
 26 27  1  0
 26 25  1  0
 27 23  1  0
 27 28  1  1
 28 29  1  0
 30 28  2  0
M  END
$$$$
