MWP.pdb
     RDKit          3D

 30 32  0  0  1  0  0  0  0  0999 V2000
   21.1798  -16.3967  -17.0300 C   0  0  0  0  0  0  0  0  0  0  0  0
   21.4857  -14.7754  -17.7847 S   0  0  0  0  0  0  0  0  0  0  0  0
   23.1615  -14.1796  -17.3387 C   0  0  0  0  0  0  0  0  0  0  0  0
   23.9879  -15.3957  -17.0060 C   0  0  0  0  0  0  0  0  0  0  0  0
   25.3084  -15.0103  -16.3860 C   0  0  2  0  0  0  0  0  0  0  0  0
   26.0020  -14.0106  -17.1675 N   0  0  0  0  0  0  0  0  0  0  0  0
   26.1826  -16.2047  -16.1563 C   0  0  0  0  0  0  0  0  0  0  0  0
   26.6282  -16.7911  -17.1720 O   0  0  0  0  0  0  0  0  0  0  0  0
   26.5075  -16.6718  -14.8738 N   0  0  0  0  0  0  0  0  0  0  0  0
   26.9591  -18.0471  -14.5679 C   0  0  1  0  0  0  0  0  0  0  0  0
   27.1514  -18.0515  -13.1054 C   0  0  0  0  0  0  0  0  0  0  0  0
   27.3513  -19.2786  -12.3802 C   0  0  0  0  0  0  0  0  0  0  0  0
   28.3981  -20.1671  -12.4754 C   0  0  0  0  0  0  0  0  0  0  0  0
   28.1676  -21.1905  -11.6175 N   0  0  0  0  0  0  0  0  0  0  0  0
   27.0173  -20.9952  -10.9762 C   0  0  0  0  0  0  0  0  0  0  0  0
   26.3924  -21.7594  -10.0123 C   0  0  0  0  0  0  0  0  0  0  0  0
   25.1829  -21.3331   -9.4700 C   0  0  0  0  0  0  0  0  0  0  0  0
   24.6432  -20.1564   -9.9138 C   0  0  0  0  0  0  0  0  0  0  0  0
   25.2841  -19.4146  -10.8741 C   0  0  0  0  0  0  0  0  0  0  0  0
   26.4869  -19.8020  -11.4385 C   0  0  0  0  0  0  0  0  0  0  0  0
   26.1039  -19.0645  -15.1744 C   0  0  0  0  0  0  0  0  0  0  0  0
   24.8718  -18.8303  -15.2952 O   0  0  0  0  0  0  0  0  0  0  0  0
   26.5354  -20.3182  -15.6656 N   0  0  0  0  0  0  0  0  0  0  0  0
   27.9135  -20.7755  -15.6638 C   0  0  0  0  0  0  0  0  0  0  0  0
   28.0573  -21.5425  -16.9703 C   0  0  0  0  0  0  0  0  0  0  0  0
   26.6827  -21.5855  -17.5432 C   0  0  0  0  0  0  0  0  0  0  0  0
   25.7741  -21.3707  -16.3110 C   0  0  1  0  0  0  0  0  0  0  0  0
   25.7896  -22.6635  -15.6067 C   0  0  0  0  0  0  0  0  0  0  0  0
   25.0282  -23.6952  -16.1530 O   0  0  0  0  0  0  0  0  0  0  0  0
   26.4234  -22.9190  -14.5637 O   0  0  0  0  0  0  0  0  0  0  0  0
  1  2  1  0
  3  2  1  0
  4  3  1  0
  5  6  1  6
  5  4  1  0
  7  5  1  0
  8  7  2  0
  9  7  1  0
 10 21  1  0
 10  9  1  0
 11 12  1  0
 10 11  1  1
 12 13  2  0
 14 13  1  0
 15 14  1  0
 16 15  2  0
 17 16  1  0
 18 19  1  0
 18 17  2  0
 19 20  2  0
 20 15  1  0
 20 12  1  0
 21 22  2  0
 23 24  1  0
 23 21  1  0
 25 24  1  0
 26 27  1  0
 26 25  1  0
 27 23  1  0
 27 28  1  1
 28 29  1  0
 30 28  2  0
M  END
$$$$
