TKN.pdb
     RDKit          3D

 25 24  0  0  1  0  0  0  0  0999 V2000
   21.8151  -12.5133  -14.0092 C   0  0  0  0  0  0  0  0  0  0  0  0
   23.1082  -12.9587  -14.6460 C   0  0  1  0  0  0  0  0  0  0  0  0
   23.4775  -14.2392  -14.3097 O   0  0  0  0  0  0  0  0  0  0  0  0
   22.9531  -12.8306  -16.1467 C   0  0  2  0  0  0  0  0  0  0  0  0
   24.1889  -13.2177  -16.8134 N   0  0  0  0  0  0  0  0  0  0  0  0
   22.6258  -11.4589  -16.5895 C   0  0  0  0  0  0  0  0  0  0  0  0
   23.5360  -10.6235  -16.8225 O   0  0  0  0  0  0  0  0  0  0  0  0
   21.2696  -11.0047  -16.7789 N   0  0  0  0  0  0  0  0  0  0  0  0
   20.9709   -9.6853  -17.2484 C   0  0  1  0  0  0  0  0  0  0  0  0
   19.6261   -9.7561  -17.9747 C   0  0  0  0  0  0  0  0  0  0  0  0
   19.7664  -10.3250  -19.3522 C   0  0  0  0  0  0  0  0  0  0  0  0
   18.4557  -10.4329  -20.0719 C   0  0  0  0  0  0  0  0  0  0  0  0
   18.6035  -10.9844  -21.4564 C   0  0  0  0  0  0  0  0  0  0  0  0
   17.3134  -11.1805  -22.1056 N   0  0  0  0  0  0  0  0  0  0  0  0
   20.8610   -8.6770  -16.1247 C   0  0  0  0  0  0  0  0  0  0  0  0
   20.2322   -8.9790  -15.0866 O   0  0  0  0  0  0  0  0  0  0  0  0
   21.5615   -4.2828  -13.3720 N   0  0  0  0  0  0  0  0  0  0  0  0
   22.5653   -4.4274  -14.3301 C   0  0  0  0  0  0  0  0  0  0  0  0
   23.5032   -3.5550  -14.3030 O   0  0  0  0  0  0  0  0  0  0  0  0
   22.6151   -5.4766  -15.3317 C   0  0  0  0  0  0  0  0  0  0  0  0
   21.4537   -6.4168  -15.2179 C   0  0  2  0  0  0  0  0  0  0  0  0
   21.4754   -7.4110  -16.2788 N   0  0  0  0  0  0  0  0  0  0  0  0
   20.1269   -5.7754  -15.2255 C   0  0  0  0  0  0  0  0  0  0  0  0
   19.5316   -5.5093  -16.4751 O   0  0  0  0  0  0  0  0  0  0  0  0
   19.4633   -5.4385  -14.2207 O   0  0  0  0  0  0  0  0  0  0  0  0
  2  1  1  1
  3  2  1  0
  4  2  1  0
  4  5  1  6
  6  4  1  0
  6  8  1  0
  7  6  2  0
  9  8  1  0
 10 11  1  0
  9 10  1  1
 12 13  1  0
 12 11  1  0
 13 14  1  0
 15  9  1  0
 16 15  2  0
 18 17  1  0
 19 18  2  0
 20 18  1  0
 21 20  1  6
 21 23  1  0
 21 22  1  0
 22 15  1  0
 23 24  1  0
 25 23  2  0
M  END
$$$$
