TKN.pdb
     RDKit          3D

 25 24  0  0  1  0  0  0  0  0999 V2000
   26.4952  -10.5594  -14.8313 C   0  0  0  0  0  0  0  0  0  0  0  0
   27.0774  -10.7453  -16.2106 C   0  0  1  0  0  0  0  0  0  0  0  0
   28.2905  -11.3916  -16.2158 O   0  0  0  0  0  0  0  0  0  0  0  0
   26.0678  -11.5103  -17.0399 C   0  0  2  0  0  0  0  0  0  0  0  0
   26.5934  -11.7462  -18.3777 N   0  0  0  0  0  0  0  0  0  0  0  0
   24.7772  -10.8062  -17.1925 C   0  0  0  0  0  0  0  0  0  0  0  0
   24.6713   -9.8158  -17.9595 O   0  0  0  0  0  0  0  0  0  0  0  0
   23.5842  -11.2054  -16.4862 N   0  0  0  0  0  0  0  0  0  0  0  0
   22.3683  -10.4534  -16.5670 C   0  0  1  0  0  0  0  0  0  0  0  0
   21.2184  -11.4172  -16.2672 C   0  0  0  0  0  0  0  0  0  0  0  0
   19.8856  -10.7434  -16.3706 C   0  0  0  0  0  0  0  0  0  0  0  0
   18.7395  -11.6951  -16.2030 C   0  0  0  0  0  0  0  0  0  0  0  0
   17.4100  -11.0068  -16.2416 C   0  0  0  0  0  0  0  0  0  0  0  0
   16.3043  -11.9506  -16.1372 N   0  0  0  0  0  0  0  0  0  0  0  0
   22.3183   -9.3159  -15.5696 C   0  0  0  0  0  0  0  0  0  0  0  0
   22.6599   -9.5217  -14.3841 O   0  0  0  0  0  0  0  0  0  0  0  0
   21.6873   -4.4397  -13.7173 N   0  0  0  0  0  0  0  0  0  0  0  0
   22.7522   -4.7118  -14.5766 C   0  0  0  0  0  0  0  0  0  0  0  0
   23.6897   -3.8390  -14.6098 O   0  0  0  0  0  0  0  0  0  0  0  0
   22.8647   -5.8910  -15.4154 C   0  0  0  0  0  0  0  0  0  0  0  0
   21.8095   -6.9071  -15.0996 C   0  0  2  0  0  0  0  0  0  0  0  0
   21.8831   -8.0416  -16.0062 N   0  0  0  0  0  0  0  0  0  0  0  0
   20.4261   -6.3993  -15.1212 C   0  0  0  0  0  0  0  0  0  0  0  0
   19.8172   -6.0956  -13.8868 O   0  0  0  0  0  0  0  0  0  0  0  0
   19.7258   -6.2058  -16.1388 O   0  0  0  0  0  0  0  0  0  0  0  0
  2  1  1  1
  3  2  1  0
  4  2  1  0
  4  5  1  6
  6  4  1  0
  6  8  1  0
  7  6  2  0
  9  8  1  0
 10 11  1  0
  9 10  1  1
 12 13  1  0
 12 11  1  0
 13 14  1  0
 15  9  1  0
 16 15  2  0
 18 17  1  0
 19 18  2  0
 20 18  1  0
 21 20  1  6
 21 23  1  0
 21 22  1  0
 22 15  1  0
 23 24  1  0
 25 23  2  0
M  END
$$$$
