TKN.pdb
     RDKit          3D

 25 24  0  0  1  0  0  0  0  0999 V2000
   17.0443  -11.9602  -15.4473 C   0  0  0  0  0  0  0  0  0  0  0  0
   17.9604  -12.5629  -16.4833 C   0  0  1  0  0  0  0  0  0  0  0  0
   17.3099  -13.3433  -17.4091 O   0  0  0  0  0  0  0  0  0  0  0  0
   18.6926  -11.4291  -17.1693 C   0  0  2  0  0  0  0  0  0  0  0  0
   19.4482  -11.9358  -18.3069 N   0  0  0  0  0  0  0  0  0  0  0  0
   19.6465  -10.7252  -16.2866 C   0  0  0  0  0  0  0  0  0  0  0  0
   19.3242  -10.4085  -15.1134 O   0  0  0  0  0  0  0  0  0  0  0  0
   20.9790  -10.3671  -16.7082 N   0  0  0  0  0  0  0  0  0  0  0  0
   21.8592   -9.6065  -15.8735 C   0  0  1  0  0  0  0  0  0  0  0  0
   23.2900   -9.9372  -16.3031 C   0  0  0  0  0  0  0  0  0  0  0  0
   23.6971  -11.3120  -15.8726 C   0  0  0  0  0  0  0  0  0  0  0  0
   25.0885  -11.6669  -16.3034 C   0  0  0  0  0  0  0  0  0  0  0  0
   25.4397  -13.0903  -15.9977 C   0  0  0  0  0  0  0  0  0  0  0  0
   26.8071  -13.4102  -16.3876 N   0  0  0  0  0  0  0  0  0  0  0  0
   21.6468   -8.1139  -16.0085 C   0  0  0  0  0  0  0  0  0  0  0  0
   21.6869   -7.5868  -17.1420 O   0  0  0  0  0  0  0  0  0  0  0  0
   20.5028   -3.1719  -15.0096 N   0  0  0  0  0  0  0  0  0  0  0  0
   19.5288   -4.1314  -14.7317 C   0  0  0  0  0  0  0  0  0  0  0  0
   18.3583   -3.6871  -14.4596 O   0  0  0  0  0  0  0  0  0  0  0  0
   19.7499   -5.5659  -14.7308 C   0  0  0  0  0  0  0  0  0  0  0  0
   21.1983   -5.9107  -14.9008 C   0  0  2  0  0  0  0  0  0  0  0  0
   21.4075   -7.3484  -14.8419 N   0  0  0  0  0  0  0  0  0  0  0  0
   22.1093   -5.2803  -13.9289 C   0  0  0  0  0  0  0  0  0  0  0  0
   22.5925   -3.9890  -14.2214 O   0  0  0  0  0  0  0  0  0  0  0  0
   22.5033   -5.7810  -12.8530 O   0  0  0  0  0  0  0  0  0  0  0  0
  2  1  1  1
  3  2  1  0
  4  2  1  0
  4  5  1  6
  6  4  1  0
  6  8  1  0
  7  6  2  0
  9  8  1  0
 10 11  1  0
  9 10  1  6
 12 13  1  0
 12 11  1  0
 13 14  1  0
 15  9  1  0
 16 15  2  0
 18 17  1  0
 19 18  2  0
 20 18  1  0
 21 20  1  1
 21 23  1  0
 21 22  1  0
 22 15  1  0
 23 24  1  0
 25 23  2  0
M  END
$$$$
