TKN.pdb
     RDKit          3D

 25 24  0  0  1  0  0  0  0  0999 V2000
   18.7929  -11.3459  -14.8547 C   0  0  0  0  0  0  0  0  0  0  0  0
   17.8933  -12.2877  -15.6160 C   0  0  1  0  0  0  0  0  0  0  0  0
   18.4857  -13.4890  -15.9249 O   0  0  0  0  0  0  0  0  0  0  0  0
   16.6478  -12.5113  -14.7847 C   0  0  2  0  0  0  0  0  0  0  0  0
   15.7889  -13.4990  -15.4238 N   0  0  0  0  0  0  0  0  0  0  0  0
   15.8419  -11.2875  -14.5913 C   0  0  0  0  0  0  0  0  0  0  0  0
   15.1916  -10.7879  -15.5441 O   0  0  0  0  0  0  0  0  0  0  0  0
   15.7530  -10.6062  -13.3226 N   0  0  0  0  0  0  0  0  0  0  0  0
   15.0223   -9.3845  -13.1681 C   0  0  1  0  0  0  0  0  0  0  0  0
   14.2478   -9.4828  -11.8522 C   0  0  0  0  0  0  0  0  0  0  0  0
   12.9333  -10.1766  -12.0301 C   0  0  0  0  0  0  0  0  0  0  0  0
   12.2510  -10.4704  -10.7279 C   0  0  0  0  0  0  0  0  0  0  0  0
   10.9887  -11.2567  -10.9046 C   0  0  0  0  0  0  0  0  0  0  0  0
   10.3084  -11.4876   -9.6365 N   0  0  0  0  0  0  0  0  0  0  0  0
   15.9229   -8.1693  -13.1093 C   0  0  0  0  0  0  0  0  0  0  0  0
   16.8612   -8.1384  -12.2829 O   0  0  0  0  0  0  0  0  0  0  0  0
   18.3170   -3.8038  -14.6698 N   0  0  0  0  0  0  0  0  0  0  0  0
   18.2408   -4.8812  -15.5529 C   0  0  0  0  0  0  0  0  0  0  0  0
   18.9837   -4.8127  -16.5946 O   0  0  0  0  0  0  0  0  0  0  0  0
   17.3950   -6.0469  -15.3728 C   0  0  0  0  0  0  0  0  0  0  0  0
   16.5966   -5.9709  -14.1069 C   0  0  2  0  0  0  0  0  0  0  0  0
   15.6784   -7.0928  -13.9955 N   0  0  0  0  0  0  0  0  0  0  0  0
   15.8198   -4.7308  -13.9311 C   0  0  0  0  0  0  0  0  0  0  0  0
   14.4138   -4.8286  -13.9369 O   0  0  0  0  0  0  0  0  0  0  0  0
   16.2876   -3.5820  -13.7734 O   0  0  0  0  0  0  0  0  0  0  0  0
  2  1  1  1
  3  2  1  0
  4  2  1  0
  4  5  1  6
  6  4  1  0
  6  8  1  0
  7  6  2  0
  9  8  1  0
 10 11  1  0
  9 10  1  1
 12 13  1  0
 12 11  1  0
 13 14  1  0
 15  9  1  0
 16 15  2  0
 18 17  1  0
 19 18  2  0
 20 18  1  0
 21 20  1  6
 21 23  1  0
 21 22  1  0
 22 15  1  0
 23 24  1  0
 25 23  2  0
M  END
$$$$
