TKN.pdb
     RDKit          3D

 25 24  0  0  1  0  0  0  0  0999 V2000
   24.1276  -11.3553  -18.1499 C   0  0  0  0  0  0  0  0  0  0  0  0
   25.4744  -10.9111  -17.6353 C   0  0  1  0  0  0  0  0  0  0  0  0
   25.4079  -10.1762  -16.4757 O   0  0  0  0  0  0  0  0  0  0  0  0
   26.3219  -12.1486  -17.4286 C   0  0  2  0  0  0  0  0  0  0  0  0
   25.7813  -12.9504  -16.3393 N   0  0  0  0  0  0  0  0  0  0  0  0
   27.7304  -11.8484  -17.0963 C   0  0  0  0  0  0  0  0  0  0  0  0
   28.1072  -11.7728  -15.8993 O   0  0  0  0  0  0  0  0  0  0  0  0
   28.7387  -11.6297  -18.1048 N   0  0  0  0  0  0  0  0  0  0  0  0
   30.1234  -11.4804  -17.7721 C   0  0  1  0  0  0  0  0  0  0  0  0
   30.9157  -12.3957  -18.7079 C   0  0  0  0  0  0  0  0  0  0  0  0
   32.3862  -12.3334  -18.4344 C   0  0  0  0  0  0  0  0  0  0  0  0
   33.1777  -13.2672  -19.3000 C   0  0  0  0  0  0  0  0  0  0  0  0
   34.6502  -13.1827  -19.0408 C   0  0  0  0  0  0  0  0  0  0  0  0
   35.4147  -14.0110  -19.9647 N   0  0  0  0  0  0  0  0  0  0  0  0
   30.6171  -10.0609  -17.9521 C   0  0  0  0  0  0  0  0  0  0  0  0
   30.2734   -9.4139  -18.9657 O   0  0  0  0  0  0  0  0  0  0  0  0
   33.7906   -5.6344  -14.9262 N   0  0  0  0  0  0  0  0  0  0  0  0
   33.1380   -6.3312  -15.9435 C   0  0  0  0  0  0  0  0  0  0  0  0
   33.0143   -5.7167  -17.0610 O   0  0  0  0  0  0  0  0  0  0  0  0
   32.6030   -7.6749  -15.8215 C   0  0  0  0  0  0  0  0  0  0  0  0
   32.0434   -8.1761  -17.1181 C   0  0  2  0  0  0  0  0  0  0  0  0
   31.4603   -9.4991  -16.9634 N   0  0  0  0  0  0  0  0  0  0  0  0
   33.0047   -8.2325  -18.2338 C   0  0  0  0  0  0  0  0  0  0  0  0
   33.8183   -9.3781  -18.3442 O   0  0  0  0  0  0  0  0  0  0  0  0
   33.1747   -7.3547  -19.1079 O   0  0  0  0  0  0  0  0  0  0  0  0
  2  1  1  1
  3  2  1  0
  4  2  1  0
  4  5  1  1
  6  4  1  0
  6  8  1  0
  7  6  2  0
  9  8  1  0
 10 11  1  0
  9 10  1  6
 12 13  1  0
 12 11  1  0
 13 14  1  0
 15  9  1  0
 16 15  2  0
 18 17  1  0
 19 18  2  0
 20 18  1  0
 21 20  1  1
 21 23  1  0
 21 22  1  0
 22 15  1  0
 23 24  1  0
 25 23  2  0
M  END
$$$$
