TKN.pdb
     RDKit          3D

 25 24  0  0  1  0  0  0  0  0999 V2000
   16.2074  -12.5826  -16.5482 C   0  0  0  0  0  0  0  0  0  0  0  0
   16.6445  -13.9034  -15.9647 C   0  0  1  0  0  0  0  0  0  0  0  0
   15.6161  -14.7992  -15.7934 O   0  0  0  0  0  0  0  0  0  0  0  0
   17.7045  -14.4841  -16.8766 C   0  0  2  0  0  0  0  0  0  0  0  0
   18.1449  -15.7781  -16.3733 N   0  0  0  0  0  0  0  0  0  0  0  0
   18.9043  -13.6301  -17.0027 C   0  0  0  0  0  0  0  0  0  0  0  0
   19.6616  -13.4349  -16.0184 O   0  0  0  0  0  0  0  0  0  0  0  0
   19.2728  -12.9829  -18.2384 N   0  0  0  0  0  0  0  0  0  0  0  0
   20.3928  -12.0949  -18.3240 C   0  0  1  0  0  0  0  0  0  0  0  0
   20.6753  -11.8633  -19.8098 C   0  0  0  0  0  0  0  0  0  0  0  0
   21.8473  -10.9558  -20.0191 C   0  0  0  0  0  0  0  0  0  0  0  0
   22.1592  -10.7354  -21.4688 C   0  0  0  0  0  0  0  0  0  0  0  0
   23.3444   -9.8430  -21.6729 C   0  0  0  0  0  0  0  0  0  0  0  0
   23.4732   -9.4167  -23.0607 N   0  0  0  0  0  0  0  0  0  0  0  0
   20.1280  -10.7567  -17.6679 C   0  0  0  0  0  0  0  0  0  0  0  0
   19.0082  -10.2162  -17.8029 O   0  0  0  0  0  0  0  0  0  0  0  0
   20.2762   -7.6127  -13.1625 N   0  0  0  0  0  0  0  0  0  0  0  0
   21.3786   -7.8579  -13.9818 C   0  0  0  0  0  0  0  0  0  0  0  0
   22.2713   -6.9396  -14.0190 O   0  0  0  0  0  0  0  0  0  0  0  0
   21.5754   -9.0569  -14.7757 C   0  0  0  0  0  0  0  0  0  0  0  0
   20.9243   -8.9522  -16.1214 C   0  0  2  0  0  0  0  0  0  0  0  0
   21.1604  -10.1475  -16.9148 N   0  0  0  0  0  0  0  0  0  0  0  0
   21.3340   -7.7868  -16.9252 C   0  0  0  0  0  0  0  0  0  0  0  0
   22.2192   -8.0069  -17.9997 O   0  0  0  0  0  0  0  0  0  0  0  0
   20.9700   -6.6035  -16.7499 O   0  0  0  0  0  0  0  0  0  0  0  0
  2  1  1  6
  3  2  1  0
  4  2  1  0
  4  5  1  1
  6  4  1  0
  6  8  1  0
  7  6  2  0
  9  8  1  0
 10 11  1  0
  9 10  1  6
 12 13  1  0
 12 11  1  0
 13 14  1  0
 15  9  1  0
 16 15  2  0
 18 17  1  0
 19 18  2  0
 20 18  1  0
 21 20  1  1
 21 23  1  0
 21 22  1  0
 22 15  1  0
 23 24  1  0
 25 23  2  0
M  END
$$$$
