TKN.pdb
     RDKit          3D

 25 24  0  0  1  0  0  0  0  0999 V2000
   26.8864  -10.7623  -15.0850 C   0  0  0  0  0  0  0  0  0  0  0  0
   27.4428  -10.6221  -16.4802 C   0  0  1  0  0  0  0  0  0  0  0  0
   28.7046  -11.1470  -16.6273 O   0  0  0  0  0  0  0  0  0  0  0  0
   26.4769  -11.2938  -17.4332 C   0  0  2  0  0  0  0  0  0  0  0  0
   26.9918  -11.2334  -18.7944 N   0  0  0  0  0  0  0  0  0  0  0  0
   25.1345  -10.6755  -17.4434 C   0  0  0  0  0  0  0  0  0  0  0  0
   24.9098   -9.6360  -18.1137 O   0  0  0  0  0  0  0  0  0  0  0  0
   24.0222  -11.2169  -16.7008 N   0  0  0  0  0  0  0  0  0  0  0  0
   22.7429  -10.5742  -16.6760 C   0  0  1  0  0  0  0  0  0  0  0  0
   21.6993  -11.6528  -16.3784 C   0  0  0  0  0  0  0  0  0  0  0  0
   20.3045  -11.1146  -16.4555 C   0  0  0  0  0  0  0  0  0  0  0  0
   19.2646  -12.1527  -16.1581 C   0  0  0  0  0  0  0  0  0  0  0  0
   17.8704  -11.6144  -16.2550 C   0  0  0  0  0  0  0  0  0  0  0  0
   16.8802  -12.5795  -15.7943 N   0  0  0  0  0  0  0  0  0  0  0  0
   22.6485   -9.5031  -15.6106 C   0  0  0  0  0  0  0  0  0  0  0  0
   23.0639   -9.7455  -14.4561 O   0  0  0  0  0  0  0  0  0  0  0  0
   21.9431   -4.7618  -13.4858 N   0  0  0  0  0  0  0  0  0  0  0  0
   22.6561   -4.7887  -14.6848 C   0  0  0  0  0  0  0  0  0  0  0  0
   23.2824   -3.7148  -14.9948 O   0  0  0  0  0  0  0  0  0  0  0  0
   22.7327   -5.9267  -15.5824 C   0  0  0  0  0  0  0  0  0  0  0  0
   22.0679   -7.1405  -15.0077 C   0  0  2  0  0  0  0  0  0  0  0  0
   22.0887   -8.2478  -15.9499 N   0  0  0  0  0  0  0  0  0  0  0  0
   20.6739   -6.9428  -14.5721 C   0  0  0  0  0  0  0  0  0  0  0  0
   20.4477   -6.6063  -13.2222 O   0  0  0  0  0  0  0  0  0  0  0  0
   19.6544   -7.0433  -15.2891 O   0  0  0  0  0  0  0  0  0  0  0  0
  2  1  1  1
  3  2  1  0
  4  2  1  0
  4  5  1  6
  6  4  1  0
  6  8  1  0
  7  6  2  0
  9  8  1  0
 10 11  1  0
  9 10  1  1
 12 13  1  0
 12 11  1  0
 13 14  1  0
 15  9  1  0
 16 15  2  0
 18 17  1  0
 19 18  2  0
 20 18  1  0
 21 20  1  6
 21 23  1  0
 21 22  1  0
 22 15  1  0
 23 24  1  0
 25 23  2  0
M  END
$$$$
