WWD.pdb
     RDKit          3D

 37 40  0  0  1  0  0  0  0  0999 V2000
    5.3572  -19.1861   22.1569 N   0  0  0  0  0  0  0  0  0  0  0  0
    6.3863  -18.7562   23.0347 C   0  0  1  0  0  0  0  0  0  0  0  0
    7.3208  -19.9038   23.4381 C   0  0  0  0  0  0  0  0  0  0  0  0
    6.9103  -20.5195   24.7230 C   0  0  0  0  0  0  0  0  0  0  0  0
    6.1974  -21.6876   24.9495 C   0  0  0  0  0  0  0  0  0  0  0  0
    6.0557  -21.8882   26.2711 N   0  0  0  0  0  0  0  0  0  0  0  0
    6.6527  -20.8889   26.9579 C   0  0  0  0  0  0  0  0  0  0  0  0
    6.7960  -20.6064   28.3027 C   0  0  0  0  0  0  0  0  0  0  0  0
    7.4585  -19.4911   28.7541 C   0  0  0  0  0  0  0  0  0  0  0  0
    7.9837  -18.6492   27.8086 C   0  0  0  0  0  0  0  0  0  0  0  0
    7.8486  -18.9190   26.4516 C   0  0  0  0  0  0  0  0  0  0  0  0
    7.1890  -20.0294   26.0050 C   0  0  0  0  0  0  0  0  0  0  0  0
    7.2255  -17.6251   22.4951 C   0  0  0  0  0  0  0  0  0  0  0  0
    7.7105  -17.8151   21.3385 O   0  0  0  0  0  0  0  0  0  0  0  0
    7.4905  -16.4297   23.1596 N   0  0  0  0  0  0  0  0  0  0  0  0
    8.6355  -16.0258   23.9020 C   0  0  1  0  0  0  0  0  0  0  0  0
    8.4213  -15.9170   25.3306 C   0  0  0  0  0  0  0  0  0  0  0  0
    7.3589  -14.9498   25.6992 C   0  0  0  0  0  0  0  0  0  0  0  0
    6.0423  -15.2680   26.0654 C   0  0  0  0  0  0  0  0  0  0  0  0
    5.3744  -14.1467   26.3561 N   0  0  0  0  0  0  0  0  0  0  0  0
    6.1816  -13.0577   26.2024 C   0  0  0  0  0  0  0  0  0  0  0  0
    5.9731  -11.7074   26.3581 C   0  0  0  0  0  0  0  0  0  0  0  0
    6.9658  -10.8003   26.1198 C   0  0  0  0  0  0  0  0  0  0  0  0
    8.2076  -11.3228   25.7060 C   0  0  0  0  0  0  0  0  0  0  0  0
    8.4040  -12.6707   25.5552 C   0  0  0  0  0  0  0  0  0  0  0  0
    7.4051  -13.5736   25.7964 C   0  0  0  0  0  0  0  0  0  0  0  0
    9.9172  -16.6010   23.4447 C   0  0  0  0  0  0  0  0  0  0  0  0
    9.9873  -17.8222   23.2118 O   0  0  0  0  0  0  0  0  0  0  0  0
   11.0970  -15.8589   23.2491 N   0  0  0  0  0  0  0  0  0  0  0  0
   12.3141  -16.5362   22.8254 C   0  0  1  0  0  0  0  0  0  0  0  0
   13.2663  -15.6045   22.1375 C   0  0  0  0  0  0  0  0  0  0  0  0
   14.5566  -16.2251   21.7643 C   0  0  0  0  0  0  0  0  0  0  0  0
   14.6132  -17.2841   21.1151 O   0  0  0  0  0  0  0  0  0  0  0  0
   12.9891  -16.9118   24.1330 C   0  0  0  0  0  0  0  0  0  0  0  0
   12.4130  -16.5576   25.3397 O   0  0  0  0  0  0  0  0  0  0  0  0
   15.7456  -15.5951   22.1592 O   0  0  0  0  0  0  0  0  0  0  0  0
   14.0659  -17.5405   24.1912 O   0  0  0  0  0  0  0  0  0  0  0  0
  2  1  1  6
  3  2  1  0
  3  4  1  0
  4  5  2  0
  5  6  1  0
  7  6  1  0
  8  7  2  0
  9  8  1  0
 10 11  1  0
 10  9  2  0
 11 12  2  0
 12  4  1  0
 12  7  1  0
 13  2  1  0
 13 14  2  0
 15 13  1  0
 16 17  1  1
 16 15  1  0
 18 26  1  0
 18 17  1  0
 19 18  2  0
 20 19  1  0
 20 21  1  0
 21 22  1  0
 21 26  2  0
 22 23  2  0
 23 24  1  0
 25 24  2  0
 26 25  1  0
 27 16  1  0
 28 27  2  0
 29 27  1  0
 30 29  1  0
 30 31  1  6
 32 31  1  0
 33 32  2  0
 34 30  1  0
 34 35  1  0
 36 32  1  0
 37 34  2  0
M  END
$$$$
