WWD.pdb
     RDKit          3D

 37 40  0  0  1  0  0  0  0  0999 V2000
    8.4702  -18.2357   23.1329 N   0  0  0  0  0  0  0  0  0  0  0  0
    8.9127  -17.4215   22.0579 C   0  0  1  0  0  0  0  0  0  0  0  0
    7.7582  -16.6593   21.3950 C   0  0  0  0  0  0  0  0  0  0  0  0
    7.1611  -15.6607   22.3140 C   0  0  0  0  0  0  0  0  0  0  0  0
    6.4908  -15.8593   23.5121 C   0  0  0  0  0  0  0  0  0  0  0  0
    6.1260  -14.6755   24.0341 N   0  0  0  0  0  0  0  0  0  0  0  0
    6.5281  -13.6694   23.2262 C   0  0  0  0  0  0  0  0  0  0  0  0
    6.4097  -12.2941   23.2816 C   0  0  0  0  0  0  0  0  0  0  0  0
    6.9116  -11.4719   22.3023 C   0  0  0  0  0  0  0  0  0  0  0  0
    7.5465  -12.0715   21.2460 C   0  0  0  0  0  0  0  0  0  0  0  0
    7.6744  -13.4539   21.1753 C   0  0  0  0  0  0  0  0  0  0  0  0
    7.1743  -14.2698   22.1509 C   0  0  0  0  0  0  0  0  0  0  0  0
    9.9843  -16.4295   22.4353 C   0  0  0  0  0  0  0  0  0  0  0  0
    9.7426  -15.2251   22.1190 O   0  0  0  0  0  0  0  0  0  0  0  0
   11.1765  -16.7393   23.0860 N   0  0  0  0  0  0  0  0  0  0  0  0
   11.5041  -16.7015   24.4704 C   0  0  1  0  0  0  0  0  0  0  0  0
   10.3883  -16.9452   25.3617 C   0  0  0  0  0  0  0  0  0  0  0  0
   10.1336  -15.8341   26.3107 C   0  0  0  0  0  0  0  0  0  0  0  0
   10.6993  -15.6907   27.5867 C   0  0  0  0  0  0  0  0  0  0  0  0
   10.2628  -14.5574   28.1460 N   0  0  0  0  0  0  0  0  0  0  0  0
    9.4099  -13.9074   27.3026 C   0  0  0  0  0  0  0  0  0  0  0  0
    8.6964  -12.7369   27.4106 C   0  0  0  0  0  0  0  0  0  0  0  0
    7.8804  -12.3036   26.4048 C   0  0  0  0  0  0  0  0  0  0  0  0
    7.8099  -13.1197   25.2579 C   0  0  0  0  0  0  0  0  0  0  0  0
    8.5265  -14.2838   25.1612 C   0  0  0  0  0  0  0  0  0  0  0  0
    9.3425  -14.7113   26.1724 C   0  0  0  0  0  0  0  0  0  0  0  0
   12.8065  -17.3017   24.8257 C   0  0  0  0  0  0  0  0  0  0  0  0
   13.1497  -17.3464   26.0218 O   0  0  0  0  0  0  0  0  0  0  0  0
   13.7150  -17.8387   23.8944 N   0  0  0  0  0  0  0  0  0  0  0  0
   14.9615  -18.4295   24.3600 C   0  0  1  0  0  0  0  0  0  0  0  0
   15.6866  -19.1505   23.2635 C   0  0  0  0  0  0  0  0  0  0  0  0
   14.9371  -19.2257   21.9899 C   0  0  0  0  0  0  0  0  0  0  0  0
   13.9944  -20.0202   21.8281 O   0  0  0  0  0  0  0  0  0  0  0  0
   15.8259  -17.2261   24.6936 C   0  0  0  0  0  0  0  0  0  0  0  0
   15.3351  -15.9456   24.5122 O   0  0  0  0  0  0  0  0  0  0  0  0
   15.3079  -18.3740   20.9394 O   0  0  0  0  0  0  0  0  0  0  0  0
   16.9894  -17.3210   25.1358 O   0  0  0  0  0  0  0  0  0  0  0  0
  2  1  1  1
  3  2  1  0
  3  4  1  0
  4  5  2  0
  5  6  1  0
  7  6  1  0
  8  7  2  0
  9  8  1  0
 10 11  1  0
 10  9  2  0
 11 12  2  0
 12  4  1  0
 12  7  1  0
 13  2  1  0
 13 14  2  0
 15 13  1  0
 16 17  1  1
 16 15  1  0
 18 26  1  0
 18 17  1  0
 19 18  2  0
 20 19  1  0
 20 21  1  0
 21 22  1  0
 21 26  2  0
 22 23  2  0
 23 24  1  0
 25 24  2  0
 26 25  1  0
 27 16  1  0
 28 27  2  0
 29 27  1  0
 30 29  1  0
 30 31  1  6
 32 31  1  0
 33 32  2  0
 34 30  1  0
 34 35  1  0
 36 32  1  0
 37 34  2  0
M  END
$$$$
