WWD.pdb
     RDKit          3D

 37 40  0  0  1  0  0  0  0  0999 V2000
    8.6270  -16.7228   21.3524 N   0  0  0  0  0  0  0  0  0  0  0  0
    8.8721  -15.4872   22.0065 C   0  0  1  0  0  0  0  0  0  0  0  0
    7.6605  -14.5484   21.9441 C   0  0  0  0  0  0  0  0  0  0  0  0
    7.6017  -13.8137   20.6575 C   0  0  0  0  0  0  0  0  0  0  0  0
    6.6263  -12.9492   20.1830 C   0  0  0  0  0  0  0  0  0  0  0  0
    6.9752  -12.4871   18.9699 N   0  0  0  0  0  0  0  0  0  0  0  0
    8.1645  -13.0113   18.5990 C   0  0  0  0  0  0  0  0  0  0  0  0
    8.9573  -12.8810   17.4751 C   0  0  0  0  0  0  0  0  0  0  0  0
   10.1510  -13.5460   17.3351 C   0  0  0  0  0  0  0  0  0  0  0  0
   10.5387  -14.3605   18.3670 C   0  0  0  0  0  0  0  0  0  0  0  0
    9.7528  -14.5024   19.5048 C   0  0  0  0  0  0  0  0  0  0  0  0
    8.5656  -13.8396   19.6417 C   0  0  0  0  0  0  0  0  0  0  0  0
    9.2949  -15.6248   23.4477 C   0  0  0  0  0  0  0  0  0  0  0  0
   10.0672  -14.7136   23.8745 O   0  0  0  0  0  0  0  0  0  0  0  0
    8.9048  -16.6488   24.3080 N   0  0  0  0  0  0  0  0  0  0  0  0
    9.2624  -16.8962   25.6630 C   0  0  1  0  0  0  0  0  0  0  0  0
    8.1720  -16.7681   26.6082 C   0  0  0  0  0  0  0  0  0  0  0  0
    7.2589  -15.6377   26.3109 C   0  0  0  0  0  0  0  0  0  0  0  0
    5.9707  -15.7376   25.7640 C   0  0  0  0  0  0  0  0  0  0  0  0
    5.4321  -14.5183   25.6596 N   0  0  0  0  0  0  0  0  0  0  0  0
    6.3034  -13.5719   26.1138 C   0  0  0  0  0  0  0  0  0  0  0  0
    6.2354  -12.2014   26.2032 C   0  0  0  0  0  0  0  0  0  0  0  0
    7.2770  -11.4659   26.6925 C   0  0  0  0  0  0  0  0  0  0  0  0
    8.4190  -12.1862   27.0964 C   0  0  0  0  0  0  0  0  0  0  0  0
    8.4749  -13.5524   27.0037 C   0  0  0  0  0  0  0  0  0  0  0  0
    7.4275  -14.2826   26.5132 C   0  0  0  0  0  0  0  0  0  0  0  0
   10.2197  -18.0024   25.8695 C   0  0  0  0  0  0  0  0  0  0  0  0
    9.7949  -19.1141   26.2356 O   0  0  0  0  0  0  0  0  0  0  0  0
   11.6105  -17.8955   25.6828 N   0  0  0  0  0  0  0  0  0  0  0  0
   12.4741  -19.0142   26.0328 C   0  0  1  0  0  0  0  0  0  0  0  0
   13.8900  -18.7913   25.5930 C   0  0  0  0  0  0  0  0  0  0  0  0
   14.0512  -18.6302   24.1309 C   0  0  0  0  0  0  0  0  0  0  0  0
   13.2358  -19.1085   23.3232 O   0  0  0  0  0  0  0  0  0  0  0  0
   12.5113  -18.9771   27.5506 C   0  0  0  0  0  0  0  0  0  0  0  0
   13.2648  -19.9022   28.2506 O   0  0  0  0  0  0  0  0  0  0  0  0
   15.1591  -17.9174   23.6504 O   0  0  0  0  0  0  0  0  0  0  0  0
   11.8851  -18.1378   28.2300 O   0  0  0  0  0  0  0  0  0  0  0  0
  2  1  1  1
  3  2  1  0
  3  4  1  0
  4  5  2  0
  5  6  1  0
  7  6  1  0
  8  7  2  0
  9  8  1  0
 10 11  1  0
 10  9  2  0
 11 12  2  0
 12  4  1  0
 12  7  1  0
 13  2  1  0
 13 14  2  0
 15 13  1  0
 16 17  1  1
 16 15  1  0
 18 26  1  0
 18 17  1  0
 19 18  2  0
 20 19  1  0
 20 21  1  0
 21 22  1  0
 21 26  2  0
 22 23  2  0
 23 24  1  0
 25 24  2  0
 26 25  1  0
 27 16  1  0
 28 27  2  0
 29 27  1  0
 30 29  1  0
 30 31  1  6
 32 31  1  0
 33 32  2  0
 34 30  1  0
 34 35  1  0
 36 32  1  0
 37 34  2  0
M  END
$$$$
