WWD.pdb
     RDKit          3D

 37 40  0  0  1  0  0  0  0  0999 V2000
    7.5816  -18.8402   21.7166 N   0  0  0  0  0  0  0  0  0  0  0  0
    8.0083  -17.5495   21.3087 C   0  0  1  0  0  0  0  0  0  0  0  0
    6.8338  -16.6571   20.8878 C   0  0  0  0  0  0  0  0  0  0  0  0
    7.2914  -15.4750   20.1185 C   0  0  0  0  0  0  0  0  0  0  0  0
    7.6157  -15.3735   18.7737 C   0  0  0  0  0  0  0  0  0  0  0  0
    7.9695  -14.1098   18.4823 N   0  0  0  0  0  0  0  0  0  0  0  0
    7.8964  -13.3409   19.5915 C   0  0  0  0  0  0  0  0  0  0  0  0
    8.1506  -12.0075   19.8483 C   0  0  0  0  0  0  0  0  0  0  0  0
    8.0036  -11.4574   21.0983 C   0  0  0  0  0  0  0  0  0  0  0  0
    7.5885  -12.2907   22.1042 C   0  0  0  0  0  0  0  0  0  0  0  0
    7.3282  -13.6346   21.8626 C   0  0  0  0  0  0  0  0  0  0  0  0
    7.4751  -14.1795   20.6180 C   0  0  0  0  0  0  0  0  0  0  0  0
    8.8204  -16.8120   22.3438 C   0  0  0  0  0  0  0  0  0  0  0  0
    9.6449  -15.9655   21.8824 O   0  0  0  0  0  0  0  0  0  0  0  0
    8.7253  -16.9927   23.7218 N   0  0  0  0  0  0  0  0  0  0  0  0
    9.6171  -16.6089   24.7623 C   0  0  1  0  0  0  0  0  0  0  0  0
    8.9751  -16.2932   26.0219 C   0  0  0  0  0  0  0  0  0  0  0  0
    7.7887  -15.4145   25.8793 C   0  0  0  0  0  0  0  0  0  0  0  0
    6.4746  -15.8348   25.6244 C   0  0  0  0  0  0  0  0  0  0  0  0
    5.6635  -14.7725   25.5865 N   0  0  0  0  0  0  0  0  0  0  0  0
    6.3695  -13.6257   25.8044 C   0  0  0  0  0  0  0  0  0  0  0  0
    6.0112  -12.2988   25.8488 C   0  0  0  0  0  0  0  0  0  0  0  0
    6.9344  -11.3178   26.0734 C   0  0  0  0  0  0  0  0  0  0  0  0
    8.2671  -11.7394   26.2542 C   0  0  0  0  0  0  0  0  0  0  0  0
    8.6122  -13.0649   26.2089 C   0  0  0  0  0  0  0  0  0  0  0  0
    7.6819  -14.0421   25.9841 C   0  0  0  0  0  0  0  0  0  0  0  0
   10.8873  -17.3618   24.8122 C   0  0  0  0  0  0  0  0  0  0  0  0
   10.8567  -18.5970   24.9666 O   0  0  0  0  0  0  0  0  0  0  0  0
   12.1628  -16.7777   24.6989 N   0  0  0  0  0  0  0  0  0  0  0  0
   13.3514  -17.5970   24.8875 C   0  0  1  0  0  0  0  0  0  0  0  0
   14.5980  -16.8900   24.4467 C   0  0  0  0  0  0  0  0  0  0  0  0
   14.5431  -16.3739   23.0611 C   0  0  0  0  0  0  0  0  0  0  0  0
   13.5584  -16.5666   22.3265 O   0  0  0  0  0  0  0  0  0  0  0  0
   13.4673  -17.7183   26.3969 C   0  0  0  0  0  0  0  0  0  0  0  0
   12.5419  -17.0987   27.2174 O   0  0  0  0  0  0  0  0  0  0  0  0
   15.6378  -15.6488   22.5690 O   0  0  0  0  0  0  0  0  0  0  0  0
   14.3738  -18.3624   26.9640 O   0  0  0  0  0  0  0  0  0  0  0  0
  2  1  1  1
  3  2  1  0
  3  4  1  0
  4  5  2  0
  5  6  1  0
  7  6  1  0
  8  7  2  0
  9  8  1  0
 10 11  1  0
 10  9  2  0
 11 12  2  0
 12  4  1  0
 12  7  1  0
 13  2  1  0
 13 14  2  0
 15 13  1  0
 16 17  1  1
 16 15  1  0
 18 26  1  0
 18 17  1  0
 19 18  2  0
 20 19  1  0
 20 21  1  0
 21 22  1  0
 21 26  2  0
 22 23  2  0
 23 24  1  0
 25 24  2  0
 26 25  1  0
 27 16  1  0
 28 27  2  0
 29 27  1  0
 30 29  1  0
 30 31  1  1
 32 31  1  0
 33 32  2  0
 34 30  1  0
 34 35  1  0
 36 32  1  0
 37 34  2  0
M  END
$$$$
