WWD.pdb
     RDKit          3D

 37 40  0  0  1  0  0  0  0  0999 V2000
    8.6257  -17.2910   21.4633 N   0  0  0  0  0  0  0  0  0  0  0  0
    8.3147  -16.0654   22.1080 C   0  0  1  0  0  0  0  0  0  0  0  0
    6.9853  -15.4753   21.6206 C   0  0  0  0  0  0  0  0  0  0  0  0
    7.0591  -15.0569   20.2000 C   0  0  0  0  0  0  0  0  0  0  0  0
    6.6021  -15.7122   19.0661 C   0  0  0  0  0  0  0  0  0  0  0  0
    6.8592  -14.9712   17.9744 N   0  0  0  0  0  0  0  0  0  0  0  0
    7.4805  -13.8244   18.3289 C   0  0  0  0  0  0  0  0  0  0  0  0
    7.9618  -12.7402   17.6208 C   0  0  0  0  0  0  0  0  0  0  0  0
    8.5775  -11.6757   18.2328 C   0  0  0  0  0  0  0  0  0  0  0  0
    8.7025  -11.7243   19.5968 C   0  0  0  0  0  0  0  0  0  0  0  0
    8.2234  -12.8077   20.3242 C   0  0  0  0  0  0  0  0  0  0  0  0
    7.6111  -13.8655   19.7129 C   0  0  0  0  0  0  0  0  0  0  0  0
    8.2744  -16.1525   23.6132 C   0  0  0  0  0  0  0  0  0  0  0  0
    7.7896  -15.1385   24.2012 O   0  0  0  0  0  0  0  0  0  0  0  0
    8.7169  -17.2351   24.3702 N   0  0  0  0  0  0  0  0  0  0  0  0
    9.0287  -17.3205   25.7561 C   0  0  1  0  0  0  0  0  0  0  0  0
    8.0280  -16.7526   26.6362 C   0  0  0  0  0  0  0  0  0  0  0  0
    8.2932  -15.3400   27.0028 C   0  0  0  0  0  0  0  0  0  0  0  0
    9.3192  -14.8829   27.8436 C   0  0  0  0  0  0  0  0  0  0  0  0
    9.2708  -13.5493   27.9258 N   0  0  0  0  0  0  0  0  0  0  0  0
    8.2435  -13.0622   27.1718 C   0  0  0  0  0  0  0  0  0  0  0  0
    7.7723  -11.7915   26.9392 C   0  0  0  0  0  0  0  0  0  0  0  0
    6.6903  -11.5678   26.1365 C   0  0  0  0  0  0  0  0  0  0  0  0
    6.0866  -12.7058   25.5649 C   0  0  0  0  0  0  0  0  0  0  0  0
    6.5658  -13.9675   25.8030 C   0  0  0  0  0  0  0  0  0  0  0  0
    7.6505  -14.1839   26.6077 C   0  0  0  0  0  0  0  0  0  0  0  0
    9.6759  -18.5795   26.1792 C   0  0  0  0  0  0  0  0  0  0  0  0
    9.0025  -19.6260   26.2197 O   0  0  0  0  0  0  0  0  0  0  0  0
   11.0283  -18.6918   26.5525 N   0  0  0  0  0  0  0  0  0  0  0  0
   11.5551  -19.9806   26.9782 C   0  0  1  0  0  0  0  0  0  0  0  0
   12.7481  -20.3955   26.1705 C   0  0  0  0  0  0  0  0  0  0  0  0
   13.5410  -19.2654   25.6379 C   0  0  0  0  0  0  0  0  0  0  0  0
   14.5278  -19.4438   24.9026 O   0  0  0  0  0  0  0  0  0  0  0  0
   12.0868  -19.7070   28.3742 C   0  0  0  0  0  0  0  0  0  0  0  0
   12.5827  -20.7432   29.1449 O   0  0  0  0  0  0  0  0  0  0  0  0
   13.1631  -17.9586   25.9782 O   0  0  0  0  0  0  0  0  0  0  0  0
   12.1061  -18.5697   28.8883 O   0  0  0  0  0  0  0  0  0  0  0  0
  2  1  1  6
  3  2  1  0
  3  4  1  0
  4  5  2  0
  5  6  1  0
  7  6  1  0
  8  7  2  0
  9  8  1  0
 10 11  1  0
 10  9  2  0
 11 12  2  0
 12  4  1  0
 12  7  1  0
 13  2  1  0
 13 14  2  0
 15 13  1  0
 16 17  1  1
 16 15  1  0
 18 26  1  0
 18 17  1  0
 19 18  2  0
 20 19  1  0
 20 21  1  0
 21 22  1  0
 21 26  2  0
 22 23  2  0
 23 24  1  0
 25 24  2  0
 26 25  1  0
 27 16  1  0
 28 27  2  0
 29 27  1  0
 30 29  1  0
 30 31  1  6
 32 31  1  0
 33 32  2  0
 34 30  1  0
 34 35  1  0
 36 32  1  0
 37 34  2  0
M  END
$$$$
