MTS.pdb
     RDKit          3D

 22 21  0  0  1  0  0  0  0  0999 V2000
    7.3750  -12.4170   20.7973 C   0  0  0  0  0  0  0  0  0  0  0  0
    8.1368  -12.2212   19.1578 S   0  0  0  0  0  0  0  0  0  0  0  0
    7.4051  -13.4172   17.9777 C   0  0  0  0  0  0  0  0  0  0  0  0
    7.4971  -14.7912   18.6102 C   0  0  0  0  0  0  0  0  0  0  0  0
    8.5998  -15.6178   18.0272 C   0  0  2  0  0  0  0  0  0  0  0  0
    8.1559  -16.2772   16.8360 N   0  0  0  0  0  0  0  0  0  0  0  0
    9.2196  -16.5394   19.0036 C   0  0  0  0  0  0  0  0  0  0  0  0
    8.5385  -17.4905   19.4655 O   0  0  0  0  0  0  0  0  0  0  0  0
   11.4649  -19.0434   18.7478 C   0  0  0  0  0  0  0  0  0  0  0  0
   12.1637  -18.2546   19.8342 C   0  0  1  0  0  0  0  0  0  0  0  0
   13.1337  -17.4701   19.1983 O   0  0  0  0  0  0  0  0  0  0  0  0
   11.1606  -17.2922   20.4310 C   0  0  2  0  0  0  0  0  0  0  0  0
   10.5574  -16.4297   19.4708 N   0  0  0  0  0  0  0  0  0  0  0  0
   11.7300  -16.5605   21.5939 C   0  0  0  0  0  0  0  0  0  0  0  0
   12.1299  -15.3708   21.5173 O   0  0  0  0  0  0  0  0  0  0  0  0
   10.5550  -16.9625   25.3342 O   0  0  0  0  0  0  0  0  0  0  0  0
   11.9486  -17.1094   25.2721 C   0  0  0  0  0  0  0  0  0  0  0  0
   12.4368  -16.4415   24.0038 C   0  0  2  0  0  0  0  0  0  0  0  0
   11.8560  -17.1793   22.8844 N   0  0  0  0  0  0  0  0  0  0  0  0
   13.8974  -16.4167   23.9489 C   0  0  0  0  0  0  0  0  0  0  0  0
   14.4978  -17.1379   23.1159 O   0  0  0  0  0  0  0  0  0  0  0  0
   14.6599  -15.6217   24.7865 O   0  0  0  0  0  0  0  0  0  0  0  0
  2  1  1  0
  3  2  1  0
  4  3  1  0
  5  6  1  6
  5  4  1  0
  7  5  1  0
  8  7  2  0
 10  9  1  6
 10 12  1  0
 10 11  1  0
 12 13  1  6
 13  7  1  0
 14 15  2  0
 14 12  1  0
 16 17  1  0
 18 17  1  1
 18 20  1  0
 18 19  1  0
 19 14  1  0
 20 22  1  0
 21 20  2  0
M  END
$$$$
