MTS.pdb
     RDKit          3D

 22 21  0  0  1  0  0  0  0  0999 V2000
   18.2418  -16.4137   16.4478 C   0  0  0  0  0  0  0  0  0  0  0  0
   17.1113  -15.1501   17.1050 S   0  0  0  0  0  0  0  0  0  0  0  0
   15.3721  -15.6616   16.8361 C   0  0  0  0  0  0  0  0  0  0  0  0
   14.4913  -14.6812   17.5841 C   0  0  0  0  0  0  0  0  0  0  0  0
   13.0334  -14.9538   17.3854 C   0  0  2  0  0  0  0  0  0  0  0  0
   12.6469  -14.6570   16.0388 N   0  0  0  0  0  0  0  0  0  0  0  0
   12.1727  -14.2984   18.3937 C   0  0  0  0  0  0  0  0  0  0  0  0
   12.4252  -13.1154   18.7382 O   0  0  0  0  0  0  0  0  0  0  0  0
    8.8275  -13.2408   18.1695 C   0  0  0  0  0  0  0  0  0  0  0  0
    8.7647  -14.1153   19.4032 C   0  0  1  0  0  0  0  0  0  0  0  0
    8.3561  -15.3841   18.9740 O   0  0  0  0  0  0  0  0  0  0  0  0
   10.1724  -14.2769   19.9331 C   0  0  2  0  0  0  0  0  0  0  0  0
   11.0559  -14.9178   19.0176 N   0  0  0  0  0  0  0  0  0  0  0  0
   10.1801  -14.9012   21.2830 C   0  0  0  0  0  0  0  0  0  0  0  0
   10.7740  -15.9824   21.5271 O   0  0  0  0  0  0  0  0  0  0  0  0
    8.4712  -14.7779   25.8320 O   0  0  0  0  0  0  0  0  0  0  0  0
    8.5619  -14.1362   24.5880 C   0  0  0  0  0  0  0  0  0  0  0  0
    9.3914  -15.0070   23.6680 C   0  0  2  0  0  0  0  0  0  0  0  0
    9.5019  -14.2967   22.3960 N   0  0  0  0  0  0  0  0  0  0  0  0
    8.7905  -16.3303   23.5099 C   0  0  0  0  0  0  0  0  0  0  0  0
    7.9534  -16.5246   22.5955 O   0  0  0  0  0  0  0  0  0  0  0  0
    9.1078  -17.3948   24.3350 O   0  0  0  0  0  0  0  0  0  0  0  0
  2  1  1  0
  3  2  1  0
  4  3  1  0
  5  6  1  6
  5  4  1  0
  7  5  1  0
  8  7  2  0
 10  9  1  6
 10 12  1  0
 10 11  1  0
 12 13  1  6
 13  7  1  0
 14 15  2  0
 14 12  1  0
 16 17  1  0
 18 17  1  1
 18 20  1  0
 18 19  1  0
 19 14  1  0
 20 22  1  0
 21 20  2  0
M  END
$$$$
