MTS.pdb
     RDKit          3D

 22 21  0  0  1  0  0  0  0  0999 V2000
    7.1436  -11.7181   27.1999 C   0  0  0  0  0  0  0  0  0  0  0  0
    5.8556  -11.5681   25.9251 S   0  0  0  0  0  0  0  0  0  0  0  0
    6.4907  -12.1714   24.3154 C   0  0  0  0  0  0  0  0  0  0  0  0
    7.2171  -13.4756   24.5756 C   0  0  0  0  0  0  0  0  0  0  0  0
    7.7334  -14.1044   23.3197 C   0  0  2  0  0  0  0  0  0  0  0  0
    6.8726  -13.8004   22.2164 N   0  0  0  0  0  0  0  0  0  0  0  0
    8.0085  -15.5507   23.4595 C   0  0  0  0  0  0  0  0  0  0  0  0
    7.1222  -16.3776   23.1239 O   0  0  0  0  0  0  0  0  0  0  0  0
   10.5827  -17.7883   22.1270 C   0  0  0  0  0  0  0  0  0  0  0  0
   10.6779  -18.0444   23.6157 C   0  0  1  0  0  0  0  0  0  0  0  0
   11.7636  -17.2933   24.0824 O   0  0  0  0  0  0  0  0  0  0  0  0
    9.4439  -17.4625   24.2693 C   0  0  2  0  0  0  0  0  0  0  0  0
    9.2263  -16.0900   23.9556 N   0  0  0  0  0  0  0  0  0  0  0  0
    9.4188  -17.7364   25.7309 C   0  0  0  0  0  0  0  0  0  0  0  0
    9.7510  -16.8782   26.5878 O   0  0  0  0  0  0  0  0  0  0  0  0
    6.8908  -19.8371   27.8357 O   0  0  0  0  0  0  0  0  0  0  0  0
    8.1689  -20.3854   28.0178 C   0  0  0  0  0  0  0  0  0  0  0  0
    9.1910  -19.3250   27.6664 C   0  0  2  0  0  0  0  0  0  0  0  0
    9.0085  -19.0113   26.2511 N   0  0  0  0  0  0  0  0  0  0  0  0
   10.5483  -19.7826   27.9588 C   0  0  0  0  0  0  0  0  0  0  0  0
   11.3832  -19.8787   27.0271 O   0  0  0  0  0  0  0  0  0  0  0  0
   10.9607  -20.1196   29.2360 O   0  0  0  0  0  0  0  0  0  0  0  0
  2  1  1  0
  3  2  1  0
  4  3  1  0
  5  6  1  6
  5  4  1  0
  7  5  1  0
  8  7  2  0
 10  9  1  6
 10 12  1  0
 10 11  1  0
 12 13  1  1
 13  7  1  0
 14 15  2  0
 14 12  1  0
 16 17  1  0
 18 17  1  6
 18 20  1  0
 18 19  1  0
 19 14  1  0
 20 22  1  0
 21 20  2  0
M  END
$$$$
