MTS.pdb
     RDKit          3D

 22 21  0  0  1  0  0  0  0  0999 V2000
    6.3491  -12.3322   27.7361 C   0  0  0  0  0  0  0  0  0  0  0  0
    5.8842  -11.3817   26.2573 S   0  0  0  0  0  0  0  0  0  0  0  0
    6.9704  -11.8338   24.8522 C   0  0  0  0  0  0  0  0  0  0  0  0
    7.2287  -13.3244   24.9411 C   0  0  0  0  0  0  0  0  0  0  0  0
    8.2331  -13.7929   23.9358 C   0  0  2  0  0  0  0  0  0  0  0  0
    7.8681  -13.3564   22.6216 N   0  0  0  0  0  0  0  0  0  0  0  0
    8.5025  -15.2451   24.0105 C   0  0  0  0  0  0  0  0  0  0  0  0
    8.2152  -15.8676   25.0649 O   0  0  0  0  0  0  0  0  0  0  0  0
    8.6148  -17.7385   20.8056 C   0  0  0  0  0  0  0  0  0  0  0  0
    9.7804  -18.0181   21.7298 C   0  0  1  0  0  0  0  0  0  0  0  0
   10.8847  -17.3415   21.1973 O   0  0  0  0  0  0  0  0  0  0  0  0
    9.4847  -17.3689   23.0638 C   0  0  2  0  0  0  0  0  0  0  0  0
    9.0747  -16.0087   22.9571 N   0  0  0  0  0  0  0  0  0  0  0  0
   10.6004  -17.5665   24.0272 C   0  0  0  0  0  0  0  0  0  0  0  0
   11.5367  -16.7377   24.1604 O   0  0  0  0  0  0  0  0  0  0  0  0
   12.0695  -18.5743   28.1987 O   0  0  0  0  0  0  0  0  0  0  0  0
   11.1529  -18.3043   27.1719 C   0  0  0  0  0  0  0  0  0  0  0  0
   11.7217  -18.8470   25.8777 C   0  0  2  0  0  0  0  0  0  0  0  0
   10.6712  -18.7285   24.8692 N   0  0  0  0  0  0  0  0  0  0  0  0
   12.1775  -20.2266   26.0390 C   0  0  0  0  0  0  0  0  0  0  0  0
   11.4739  -21.1666   25.5966 O   0  0  0  0  0  0  0  0  0  0  0  0
   13.3680  -20.5481   26.6669 O   0  0  0  0  0  0  0  0  0  0  0  0
  2  1  1  0
  3  2  1  0
  4  3  1  0
  5  6  1  6
  5  4  1  0
  7  5  1  0
  8  7  2  0
 10  9  1  6
 10 12  1  0
 10 11  1  0
 12 13  1  6
 13  7  1  0
 14 15  2  0
 14 12  1  0
 16 17  1  0
 18 17  1  1
 18 20  1  0
 18 19  1  0
 19 14  1  0
 20 22  1  0
 21 20  2  0
M  END
$$$$
