MTS.pdb
     RDKit          3D

 22 21  0  0  1  0  0  0  0  0999 V2000
    7.2808  -12.6028   20.6485 C   0  0  0  0  0  0  0  0  0  0  0  0
    8.2872  -12.0835   19.2258 S   0  0  0  0  0  0  0  0  0  0  0  0
    9.3781  -13.4562   18.6928 C   0  0  0  0  0  0  0  0  0  0  0  0
    9.3065  -14.5311   19.7585 C   0  0  0  0  0  0  0  0  0  0  0  0
   10.1787  -15.7063   19.4467 C   0  0  2  0  0  0  0  0  0  0  0  0
   10.0124  -16.1057   18.0815 N   0  0  0  0  0  0  0  0  0  0  0  0
   10.0185  -16.8240   20.4016 C   0  0  0  0  0  0  0  0  0  0  0  0
    9.2909  -16.6639   21.4150 O   0  0  0  0  0  0  0  0  0  0  0  0
    9.4201  -20.5712   19.4399 C   0  0  0  0  0  0  0  0  0  0  0  0
   10.5172  -20.5398   20.4821 C   0  0  1  0  0  0  0  0  0  0  0  0
   11.7313  -20.6003   19.7871 O   0  0  0  0  0  0  0  0  0  0  0  0
   10.4797  -19.1873   21.1588 C   0  0  2  0  0  0  0  0  0  0  0  0
   10.6384  -18.0949   20.2582 N   0  0  0  0  0  0  0  0  0  0  0  0
   11.4133  -19.1285   22.3150 C   0  0  0  0  0  0  0  0  0  0  0  0
   12.5346  -18.5627   22.2537 O   0  0  0  0  0  0  0  0  0  0  0  0
   10.5546  -18.3804   25.8783 O   0  0  0  0  0  0  0  0  0  0  0  0
   11.2872  -19.5738   25.9582 C   0  0  0  0  0  0  0  0  0  0  0  0
   12.0599  -19.7399   24.6666 C   0  0  2  0  0  0  0  0  0  0  0  0
   11.0820  -19.7214   23.5811 N   0  0  0  0  0  0  0  0  0  0  0  0
   12.8479  -20.9712   24.6775 C   0  0  0  0  0  0  0  0  0  0  0  0
   12.5557  -21.9000   23.8860 O   0  0  0  0  0  0  0  0  0  0  0  0
   13.9180  -21.1619   25.5338 O   0  0  0  0  0  0  0  0  0  0  0  0
  2  1  1  0
  3  2  1  0
  4  3  1  0
  5  6  1  6
  5  4  1  0
  7  5  1  0
  8  7  2  0
 10  9  1  6
 10 12  1  0
 10 11  1  0
 12 13  1  6
 13  7  1  0
 14 15  2  0
 14 12  1  0
 16 17  1  0
 18 17  1  1
 18 20  1  0
 18 19  1  0
 19 14  1  0
 20 22  1  0
 21 20  2  0
M  END
$$$$
