MTS.pdb
     RDKit          3D

 22 21  0  0  1  0  0  0  0  0999 V2000
    6.6405  -10.7675   25.7716 C   0  0  0  0  0  0  0  0  0  0  0  0
    7.0539  -12.1893   26.8272 S   0  0  0  0  0  0  0  0  0  0  0  0
    5.6304  -13.3399   26.9180 C   0  0  0  0  0  0  0  0  0  0  0  0
    5.8296  -14.3919   25.8456 C   0  0  0  0  0  0  0  0  0  0  0  0
    6.9517  -15.3293   26.1638 C   0  0  2  0  0  0  0  0  0  0  0  0
    8.0174  -14.6316   26.8182 N   0  0  0  0  0  0  0  0  0  0  0  0
    7.4046  -16.1174   24.9973 C   0  0  0  0  0  0  0  0  0  0  0  0
    6.5754  -16.8403   24.3876 O   0  0  0  0  0  0  0  0  0  0  0  0
    8.1986  -15.4616   21.8306 C   0  0  0  0  0  0  0  0  0  0  0  0
    9.4469  -16.2549   22.1518 C   0  0  1  0  0  0  0  0  0  0  0  0
   10.4660  -15.3222   22.3806 O   0  0  0  0  0  0  0  0  0  0  0  0
    9.2204  -16.9703   23.4653 C   0  0  2  0  0  0  0  0  0  0  0  0
    8.7365  -16.1203   24.5011 N   0  0  0  0  0  0  0  0  0  0  0  0
   10.4137  -17.7600   23.8706 C   0  0  0  0  0  0  0  0  0  0  0  0
   11.2264  -17.3618   24.7436 O   0  0  0  0  0  0  0  0  0  0  0  0
   11.3037  -20.9594   21.6946 O   0  0  0  0  0  0  0  0  0  0  0  0
   11.8655  -21.1051   22.9715 C   0  0  0  0  0  0  0  0  0  0  0  0
   11.9488  -19.7340   23.6089 C   0  0  2  0  0  0  0  0  0  0  0  0
   10.7075  -19.0367   23.2807 N   0  0  0  0  0  0  0  0  0  0  0  0
   13.1288  -19.0068   23.1443 C   0  0  0  0  0  0  0  0  0  0  0  0
   13.0097  -18.1506   22.2348 O   0  0  0  0  0  0  0  0  0  0  0  0
   14.3904  -19.2226   23.6701 O   0  0  0  0  0  0  0  0  0  0  0  0
  2  1  1  0
  3  2  1  0
  4  3  1  0
  5  6  1  6
  5  4  1  0
  7  5  1  0
  8  7  2  0
 10  9  1  1
 10 12  1  0
 10 11  1  0
 12 13  1  1
 13  7  1  0
 14 15  2  0
 14 12  1  0
 16 17  1  0
 18 17  1  6
 18 20  1  0
 18 19  1  0
 19 14  1  0
 20 22  1  0
 21 20  2  0
M  END
$$$$
