MTS.pdb
     RDKit          3D

 22 21  0  0  1  0  0  0  0  0999 V2000
    7.8627  -11.3863   26.8953 C   0  0  0  0  0  0  0  0  0  0  0  0
    6.2602  -11.5791   26.0577 S   0  0  0  0  0  0  0  0  0  0  0  0
    6.4867  -12.4446   24.4584 C   0  0  0  0  0  0  0  0  0  0  0  0
    7.0801  -13.8059   24.7605 C   0  0  0  0  0  0  0  0  0  0  0  0
    7.4081  -14.5761   23.5202 C   0  0  2  0  0  0  0  0  0  0  0  0
    6.2340  -14.7649   22.7222 N   0  0  0  0  0  0  0  0  0  0  0  0
    8.1356  -15.8354   23.7884 C   0  0  0  0  0  0  0  0  0  0  0  0
    7.4807  -16.8916   23.9817 O   0  0  0  0  0  0  0  0  0  0  0  0
   12.1576  -18.6184   23.7690 C   0  0  0  0  0  0  0  0  0  0  0  0
   11.6464  -17.2054   23.5880 C   0  0  1  0  0  0  0  0  0  0  0  0
   11.4800  -17.0132   22.2110 O   0  0  0  0  0  0  0  0  0  0  0  0
   10.2651  -17.1266   24.1999 C   0  0  2  0  0  0  0  0  0  0  0  0
    9.5515  -15.9456   23.8457 N   0  0  0  0  0  0  0  0  0  0  0  0
   10.3028  -17.3657   25.6673 C   0  0  0  0  0  0  0  0  0  0  0  0
   10.7191  -16.5053   26.4845 O   0  0  0  0  0  0  0  0  0  0  0  0
    8.8900  -20.8839   27.1441 O   0  0  0  0  0  0  0  0  0  0  0  0
    8.6820  -19.7667   27.9662 C   0  0  0  0  0  0  0  0  0  0  0  0
    9.7848  -18.7665   27.6899 C   0  0  2  0  0  0  0  0  0  0  0  0
    9.8603  -18.6070   26.2396 N   0  0  0  0  0  0  0  0  0  0  0  0
   11.0549  -19.2097   28.2624 C   0  0  0  0  0  0  0  0  0  0  0  0
   11.9863  -19.5659   27.5007 O   0  0  0  0  0  0  0  0  0  0  0  0
   11.2804  -19.2546   29.6269 O   0  0  0  0  0  0  0  0  0  0  0  0
  2  1  1  0
  3  2  1  0
  4  3  1  0
  5  6  1  1
  5  4  1  0
  7  5  1  0
  8  7  2  0
 10  9  1  6
 10 12  1  0
 10 11  1  0
 12 13  1  1
 13  7  1  0
 14 15  2  0
 14 12  1  0
 16 17  1  0
 18 17  1  6
 18 20  1  0
 18 19  1  0
 19 14  1  0
 20 22  1  0
 21 20  2  0
M  END
$$$$
