MTS.pdb
     RDKit          3D

 22 21  0  0  1  0  0  0  0  0999 V2000
    7.6602  -10.2904   26.2752 C   0  0  0  0  0  0  0  0  0  0  0  0
    6.5610  -11.2138   27.3912 S   0  0  0  0  0  0  0  0  0  0  0  0
    5.7473  -12.5815   26.4825 C   0  0  0  0  0  0  0  0  0  0  0  0
    6.8265  -13.5720   26.0943 C   0  0  0  0  0  0  0  0  0  0  0  0
    6.2867  -14.7337   25.3208 C   0  0  2  0  0  0  0  0  0  0  0  0
    5.2890  -15.4229   26.0825 N   0  0  0  0  0  0  0  0  0  0  0  0
    7.3409  -15.6305   24.7997 C   0  0  0  0  0  0  0  0  0  0  0  0
    7.6727  -16.6405   25.4718 O   0  0  0  0  0  0  0  0  0  0  0  0
    7.8434  -15.8888   20.8740 C   0  0  0  0  0  0  0  0  0  0  0  0
    9.1896  -16.1329   21.5210 C   0  0  1  0  0  0  0  0  0  0  0  0
    9.9162  -14.9426   21.3947 O   0  0  0  0  0  0  0  0  0  0  0  0
    8.9649  -16.3406   23.0025 C   0  0  2  0  0  0  0  0  0  0  0  0
    8.0234  -15.4336   23.5687 N   0  0  0  0  0  0  0  0  0  0  0  0
   10.2502  -16.3865   23.7493 C   0  0  0  0  0  0  0  0  0  0  0  0
   10.7050  -15.3973   24.3786 O   0  0  0  0  0  0  0  0  0  0  0  0
   11.3903  -19.2517   25.9727 O   0  0  0  0  0  0  0  0  0  0  0  0
   12.4601  -19.0006   25.1011 C   0  0  0  0  0  0  0  0  0  0  0  0
   12.3016  -17.5983   24.5523 C   0  0  2  0  0  0  0  0  0  0  0  0
   11.0527  -17.5773   23.7942 N   0  0  0  0  0  0  0  0  0  0  0  0
   13.4507  -17.2196   23.7317 C   0  0  0  0  0  0  0  0  0  0  0  0
   13.2802  -16.9356   22.5214 O   0  0  0  0  0  0  0  0  0  0  0  0
   14.7376  -17.1587   24.2368 O   0  0  0  0  0  0  0  0  0  0  0  0
  2  1  1  0
  3  2  1  0
  4  3  1  0
  5  6  1  1
  5  4  1  0
  7  5  1  0
  8  7  2  0
 10  9  1  6
 10 12  1  0
 10 11  1  0
 12 13  1  1
 13  7  1  0
 14 15  2  0
 14 12  1  0
 16 17  1  0
 18 17  1  6
 18 20  1  0
 18 19  1  0
 19 14  1  0
 20 22  1  0
 21 20  2  0
M  END
$$$$
