FTY.pdb
     RDKit          3D

 31 32  0  0  1  0  0  0  0  0999 V2000
    8.6801  -16.5766   19.2728 N   0  0  0  0  0  0  0  0  0  0  0  0
    9.7622  -16.4491   20.2273 C   0  0  1  0  0  0  0  0  0  0  0  0
   10.2487  -15.0220   20.1620 C   0  0  0  0  0  0  0  0  0  0  0  0
    9.1084  -14.1504   20.5378 C   0  0  0  0  0  0  0  0  0  0  0  0
    8.9007  -13.8100   21.8542 C   0  0  0  0  0  0  0  0  0  0  0  0
    7.8415  -12.9944   22.2441 C   0  0  0  0  0  0  0  0  0  0  0  0
    6.9642  -12.5032   21.3015 C   0  0  0  0  0  0  0  0  0  0  0  0
    7.1741  -12.8470   19.9728 C   0  0  0  0  0  0  0  0  0  0  0  0
    8.2327  -13.6604   19.5950 C   0  0  0  0  0  0  0  0  0  0  0  0
    9.2987  -16.8513   21.5493 C   0  0  0  0  0  0  0  0  0  0  0  0
    8.0694  -16.9962   21.7612 O   0  0  0  0  0  0  0  0  0  0  0  0
    9.1301  -19.9354   22.8918 C   0  0  0  0  0  0  0  0  0  0  0  0
    9.9437  -19.1877   23.9219 C   0  0  1  0  0  0  0  0  0  0  0  0
   11.3120  -19.3598   23.7547 O   0  0  0  0  0  0  0  0  0  0  0  0
    9.6525  -17.7034   23.8995 C   0  0  2  0  0  0  0  0  0  0  0  0
   10.1550  -17.1025   22.6601 N   0  0  0  0  0  0  0  0  0  0  0  0
   10.2452  -16.9693   25.0412 C   0  0  0  0  0  0  0  0  0  0  0  0
   11.3277  -16.3162   24.8611 O   0  0  0  0  0  0  0  0  0  0  0  0
    6.2074  -11.7203   25.2500 O   0  0  0  0  0  0  0  0  0  0  0  0
    6.9410  -12.6491   25.9864 C   0  0  0  0  0  0  0  0  0  0  0  0
    6.5015  -13.9538   26.1161 C   0  0  0  0  0  0  0  0  0  0  0  0
    7.2169  -14.8828   26.8414 C   0  0  0  0  0  0  0  0  0  0  0  0
    8.3947  -14.5591   27.4670 C   0  0  0  0  0  0  0  0  0  0  0  0
    9.1688  -15.5516   28.2473 C   0  0  0  0  0  0  0  0  0  0  0  0
   10.3102  -16.1548   27.4218 C   0  0  2  0  0  0  0  0  0  0  0  0
    9.6990  -16.9298   26.3448 N   0  0  0  0  0  0  0  0  0  0  0  0
   11.0939  -17.0520   28.2874 C   0  0  0  0  0  0  0  0  0  0  0  0
   10.9831  -18.3030   28.1406 O   0  0  0  0  0  0  0  0  0  0  0  0
    8.8535  -13.2434   27.3458 C   0  0  0  0  0  0  0  0  0  0  0  0
    8.1222  -12.3328   26.6164 C   0  0  0  0  0  0  0  0  0  0  0  0
   11.9439  -16.5329   29.2528 O   0  0  0  0  0  0  0  0  0  0  0  0
  2  1  1  6
  2 10  1  0
  3  2  1  0
  3  4  1  0
  4  9  1  0
  4  5  2  0
  5  6  1  0
  7  6  2  0
  8  7  1  0
  9  8  2  0
 10 11  2  0
 13 12  1  6
 13 15  1  0
 14 13  1  0
 15 17  1  0
 15 16  1  6
 16 10  1  0
 17 26  1  0
 17 18  2  0
 19 20  1  0
 20 30  2  0
 20 21  1  0
 21 22  2  0
 22 23  1  0
 23 24  1  0
 25 24  1  1
 25 27  1  0
 26 25  1  0
 27 28  2  0
 27 31  1  0
 29 23  2  0
 30 29  1  0
M  END
$$$$
