FTY.pdb
     RDKit          3D

 31 32  0  0  1  0  0  0  0  0999 V2000
    6.3278  -15.8881   20.8899 N   0  0  0  0  0  0  0  0  0  0  0  0
    7.4711  -16.4112   21.6091 C   0  0  1  0  0  0  0  0  0  0  0  0
    8.4785  -15.2928   21.7193 C   0  0  0  0  0  0  0  0  0  0  0  0
    8.2509  -14.3805   20.5718 C   0  0  0  0  0  0  0  0  0  0  0  0
    7.1314  -13.5824   20.5320 C   0  0  0  0  0  0  0  0  0  0  0  0
    6.8848  -12.7143   19.4715 C   0  0  0  0  0  0  0  0  0  0  0  0
    7.7740  -12.6361   18.4214 C   0  0  0  0  0  0  0  0  0  0  0  0
    8.9039  -13.4418   18.4617 C   0  0  0  0  0  0  0  0  0  0  0  0
    9.1401  -14.3034   19.5232 C   0  0  0  0  0  0  0  0  0  0  0  0
    7.0392  -16.9411   22.8963 C   0  0  0  0  0  0  0  0  0  0  0  0
    6.0580  -16.4239   23.4854 O   0  0  0  0  0  0  0  0  0  0  0  0
    6.0634  -20.3685   24.5005 C   0  0  0  0  0  0  0  0  0  0  0  0
    7.2698  -19.8021   25.2119 C   0  0  1  0  0  0  0  0  0  0  0  0
    8.4571  -20.4104   24.8246 O   0  0  0  0  0  0  0  0  0  0  0  0
    7.4102  -18.3134   24.9830 C   0  0  2  0  0  0  0  0  0  0  0  0
    7.6598  -18.0355   23.5651 N   0  0  0  0  0  0  0  0  0  0  0  0
    8.5005  -17.6960   25.7726 C   0  0  0  0  0  0  0  0  0  0  0  0
    9.5510  -17.2945   25.1677 O   0  0  0  0  0  0  0  0  0  0  0  0
    6.4384  -11.7312   25.5019 O   0  0  0  0  0  0  0  0  0  0  0  0
    7.0495  -12.7033   26.2924 C   0  0  0  0  0  0  0  0  0  0  0  0
    6.3055  -13.7183   26.8653 C   0  0  0  0  0  0  0  0  0  0  0  0
    6.8969  -14.6862   27.6493 C   0  0  0  0  0  0  0  0  0  0  0  0
    8.2465  -14.6889   27.8978 C   0  0  0  0  0  0  0  0  0  0  0  0
    8.8888  -15.7254   28.7383 C   0  0  0  0  0  0  0  0  0  0  0  0
    9.5453  -16.8174   27.8872 C   0  0  2  0  0  0  0  0  0  0  0  0
    8.4742  -17.5088   27.1740 N   0  0  0  0  0  0  0  0  0  0  0  0
   10.2287  -17.7652   28.7833 C   0  0  0  0  0  0  0  0  0  0  0  0
    9.7638  -18.9336   28.9161 O   0  0  0  0  0  0  0  0  0  0  0  0
    9.0137  -13.6690   27.3258 C   0  0  0  0  0  0  0  0  0  0  0  0
    8.4014  -12.7132   26.5464 C   0  0  0  0  0  0  0  0  0  0  0  0
   11.3690  -17.3829   29.4743 O   0  0  0  0  0  0  0  0  0  0  0  0
  2  1  1  1
  2 10  1  0
  3  2  1  0
  3  4  1  0
  4  9  1  0
  4  5  2  0
  5  6  1  0
  7  6  2  0
  8  7  1  0
  9  8  2  0
 10 11  2  0
 13 12  1  6
 13 15  1  0
 14 13  1  0
 15 17  1  0
 15 16  1  6
 16 10  1  0
 17 26  1  0
 17 18  2  0
 19 20  1  0
 20 30  2  0
 20 21  1  0
 21 22  2  0
 22 23  1  0
 23 24  1  0
 25 24  1  1
 25 27  1  0
 26 25  1  0
 27 28  2  0
 27 31  1  0
 29 23  2  0
 30 29  1  0
M  END
$$$$
