FTY.pdb
     RDKit          3D

 31 32  0  0  1  0  0  0  0  0999 V2000
    8.1333  -17.1309   19.2623 N   0  0  0  0  0  0  0  0  0  0  0  0
    8.4397  -16.0928   20.2248 C   0  0  1  0  0  0  0  0  0  0  0  0
    7.3151  -15.0878   20.1701 C   0  0  0  0  0  0  0  0  0  0  0  0
    7.6411  -14.0091   21.1351 C   0  0  0  0  0  0  0  0  0  0  0  0
    8.3330  -12.8947   20.7213 C   0  0  0  0  0  0  0  0  0  0  0  0
    8.6564  -11.8627   21.5985 C   0  0  0  0  0  0  0  0  0  0  0  0
    8.2829  -11.9388   22.9229 C   0  0  0  0  0  0  0  0  0  0  0  0
    7.5845  -13.0638   23.3403 C   0  0  0  0  0  0  0  0  0  0  0  0
    7.2673  -14.0865   22.4580 C   0  0  0  0  0  0  0  0  0  0  0  0
    8.6318  -16.6873   21.5416 C   0  0  0  0  0  0  0  0  0  0  0  0
    7.7615  -17.4635   22.0078 O   0  0  0  0  0  0  0  0  0  0  0  0
   10.5297  -19.3746   22.1829 C   0  0  0  0  0  0  0  0  0  0  0  0
   11.0936  -18.3560   23.1455 C   0  0  1  0  0  0  0  0  0  0  0  0
   12.2100  -17.7005   22.6416 O   0  0  0  0  0  0  0  0  0  0  0  0
   10.0676  -17.3104   23.5229 C   0  0  2  0  0  0  0  0  0  0  0  0
    9.7650  -16.4526   22.3729 N   0  0  0  0  0  0  0  0  0  0  0  0
   10.4950  -16.4433   24.6449 C   0  0  0  0  0  0  0  0  0  0  0  0
   11.3227  -15.4983   24.4154 O   0  0  0  0  0  0  0  0  0  0  0  0
    5.4672  -12.1271   25.6907 O   0  0  0  0  0  0  0  0  0  0  0  0
    6.4301  -12.9582   26.2610 C   0  0  0  0  0  0  0  0  0  0  0  0
    7.5785  -12.4288   26.8205 C   0  0  0  0  0  0  0  0  0  0  0  0
    8.5391  -13.2391   27.3879 C   0  0  0  0  0  0  0  0  0  0  0  0
    8.4025  -14.6040   27.4247 C   0  0  0  0  0  0  0  0  0  0  0  0
    9.4297  -15.4806   28.0328 C   0  0  0  0  0  0  0  0  0  0  0  0
   10.5849  -15.7549   27.0642 C   0  0  2  0  0  0  0  0  0  0  0  0
   10.0519  -16.5774   25.9810 N   0  0  0  0  0  0  0  0  0  0  0  0
   11.6309  -16.5049   27.7797 C   0  0  0  0  0  0  0  0  0  0  0  0
   11.7775  -17.7382   27.5427 O   0  0  0  0  0  0  0  0  0  0  0  0
    7.2466  -15.1559   26.8630 C   0  0  0  0  0  0  0  0  0  0  0  0
    6.3010  -14.3270   26.3019 C   0  0  0  0  0  0  0  0  0  0  0  0
   12.4467  -15.8678   28.7031 O   0  0  0  0  0  0  0  0  0  0  0  0
  2  1  1  6
  2 10  1  0
  3  2  1  0
  3  4  1  0
  4  9  1  0
  4  5  2  0
  5  6  1  0
  7  6  2  0
  8  7  1  0
  9  8  2  0
 10 11  2  0
 13 12  1  6
 13 15  1  0
 14 13  1  0
 15 17  1  0
 15 16  1  6
 16 10  1  0
 17 26  1  0
 17 18  2  0
 19 20  1  0
 20 30  2  0
 20 21  1  0
 21 22  2  0
 22 23  1  0
 23 24  1  0
 25 24  1  1
 25 27  1  0
 26 25  1  0
 27 28  2  0
 27 31  1  0
 29 23  2  0
 30 29  1  0
M  END
$$$$
