FTY.pdb
     RDKit          3D

 31 32  0  0  1  0  0  0  0  0999 V2000
    7.1235  -17.0590   17.9115 N   0  0  0  0  0  0  0  0  0  0  0  0
    7.6594  -16.1723   18.9238 C   0  0  1  0  0  0  0  0  0  0  0  0
    6.5111  -15.3419   19.4427 C   0  0  0  0  0  0  0  0  0  0  0  0
    7.0594  -14.4284   20.4751 C   0  0  0  0  0  0  0  0  0  0  0  0
    6.9292  -14.7331   21.8100 C   0  0  0  0  0  0  0  0  0  0  0  0
    7.4310  -13.9000   22.8065 C   0  0  0  0  0  0  0  0  0  0  0  0
    8.0802  -12.7321   22.4688 C   0  0  0  0  0  0  0  0  0  0  0  0
    8.2115  -12.4247   21.1213 C   0  0  0  0  0  0  0  0  0  0  0  0
    7.7077  -13.2619   20.1362 C   0  0  0  0  0  0  0  0  0  0  0  0
    8.3306  -16.9547   19.9542 C   0  0  0  0  0  0  0  0  0  0  0  0
    7.6572  -17.6997   20.7084 O   0  0  0  0  0  0  0  0  0  0  0  0
   10.9764  -19.6138   19.6786 C   0  0  0  0  0  0  0  0  0  0  0  0
   11.4781  -18.5916   20.6714 C   0  0  1  0  0  0  0  0  0  0  0  0
   12.4187  -17.7277   20.1246 O   0  0  0  0  0  0  0  0  0  0  0  0
   10.3506  -17.7577   21.2386 C   0  0  2  0  0  0  0  0  0  0  0  0
    9.7365  -16.9438   20.1849 N   0  0  0  0  0  0  0  0  0  0  0  0
   10.7784  -16.8526   22.3301 C   0  0  0  0  0  0  0  0  0  0  0  0
   10.5016  -15.6088   22.2458 O   0  0  0  0  0  0  0  0  0  0  0  0
    9.8976  -13.5756   30.2017 O   0  0  0  0  0  0  0  0  0  0  0  0
    9.9482  -14.2599   28.9884 C   0  0  0  0  0  0  0  0  0  0  0  0
    9.8187  -13.5832   27.7895 C   0  0  0  0  0  0  0  0  0  0  0  0
    9.8668  -14.2474   26.5823 C   0  0  0  0  0  0  0  0  0  0  0  0
   10.0448  -15.6063   26.5123 C   0  0  0  0  0  0  0  0  0  0  0  0
   10.0981  -16.3265   25.2194 C   0  0  0  0  0  0  0  0  0  0  0  0
   11.5334  -16.4448   24.6962 C   0  0  2  0  0  0  0  0  0  0  0  0
   11.4840  -17.2608   23.4855 N   0  0  0  0  0  0  0  0  0  0  0  0
   12.3505  -17.1269   25.7138 C   0  0  0  0  0  0  0  0  0  0  0  0
   13.1837  -16.4557   26.3876 O   0  0  0  0  0  0  0  0  0  0  0  0
   10.1776  -16.3062   27.7159 C   0  0  0  0  0  0  0  0  0  0  0  0
   10.1263  -15.6216   28.9096 C   0  0  0  0  0  0  0  0  0  0  0  0
   12.2094  -18.4895   25.9319 O   0  0  0  0  0  0  0  0  0  0  0  0
  2  1  1  6
  2 10  1  0
  3  2  1  0
  3  4  1  0
  4  9  1  0
  4  5  2  0
  5  6  1  0
  7  6  2  0
  8  7  1  0
  9  8  2  0
 10 11  2  0
 13 12  1  6
 13 15  1  0
 14 13  1  0
 15 17  1  0
 15 16  1  6
 16 10  1  0
 17 26  1  0
 17 18  2  0
 19 20  1  0
 20 30  2  0
 20 21  1  0
 21 22  2  0
 22 23  1  0
 23 24  1  0
 25 24  1  1
 25 27  1  0
 26 25  1  0
 27 28  2  0
 27 31  1  0
 29 23  2  0
 30 29  1  0
M  END
$$$$
