FTY.pdb
     RDKit          3D

 31 32  0  0  1  0  0  0  0  0999 V2000
    5.6753  -18.2275   20.2669 N   0  0  0  0  0  0  0  0  0  0  0  0
    6.5898  -17.1130   20.4074 C   0  0  1  0  0  0  0  0  0  0  0  0
    5.7691  -15.9097   20.8027 C   0  0  0  0  0  0  0  0  0  0  0  0
    6.6980  -14.7575   20.9049 C   0  0  0  0  0  0  0  0  0  0  0  0
    7.0345  -14.2455   22.1364 C   0  0  0  0  0  0  0  0  0  0  0  0
    7.9029  -13.1653   22.2710 C   0  0  0  0  0  0  0  0  0  0  0  0
    8.4524  -12.5769   21.1524 C   0  0  0  0  0  0  0  0  0  0  0  0
    8.1126  -13.0938   19.9095 C   0  0  0  0  0  0  0  0  0  0  0  0
    7.2463  -14.1705   19.7865 C   0  0  0  0  0  0  0  0  0  0  0  0
    7.6324  -17.4533   21.3673 C   0  0  0  0  0  0  0  0  0  0  0  0
    7.3282  -17.6732   22.5658 O   0  0  0  0  0  0  0  0  0  0  0  0
   10.6546  -20.0750   20.9602 C   0  0  0  0  0  0  0  0  0  0  0  0
   11.1338  -18.7236   21.4358 C   0  0  1  0  0  0  0  0  0  0  0  0
   11.6952  -17.9634   20.4176 O   0  0  0  0  0  0  0  0  0  0  0  0
   10.0157  -17.9178   22.0595 C   0  0  2  0  0  0  0  0  0  0  0  0
    9.0167  -17.5608   21.0474 N   0  0  0  0  0  0  0  0  0  0  0  0
   10.4799  -16.6704   22.7093 C   0  0  0  0  0  0  0  0  0  0  0  0
   10.4930  -15.5883   22.0314 O   0  0  0  0  0  0  0  0  0  0  0  0
   10.1221  -16.7813   30.6724 O   0  0  0  0  0  0  0  0  0  0  0  0
   10.2087  -16.2643   29.3808 C   0  0  0  0  0  0  0  0  0  0  0  0
   11.0044  -15.1659   29.1113 C   0  0  0  0  0  0  0  0  0  0  0  0
   11.0993  -14.6442   27.8386 C   0  0  0  0  0  0  0  0  0  0  0  0
   10.4119  -15.1873   26.7824 C   0  0  0  0  0  0  0  0  0  0  0  0
   10.5094  -14.6327   25.4127 C   0  0  0  0  0  0  0  0  0  0  0  0
   11.5589  -15.3721   24.5761 C   0  0  2  0  0  0  0  0  0  0  0  0
   10.9194  -16.5756   24.0499 N   0  0  0  0  0  0  0  0  0  0  0  0
   12.6765  -15.7554   25.4550 C   0  0  0  0  0  0  0  0  0  0  0  0
   12.8121  -16.9678   25.7876 O   0  0  0  0  0  0  0  0  0  0  0  0
    9.6024  -16.2988   27.0378 C   0  0  0  0  0  0  0  0  0  0  0  0
    9.5230  -16.8026   28.3168 C   0  0  0  0  0  0  0  0  0  0  0  0
   13.5709  -14.7995   25.9135 O   0  0  0  0  0  0  0  0  0  0  0  0
  2  1  1  1
  2 10  1  0
  3  2  1  0
  3  4  1  0
  4  9  1  0
  4  5  2  0
  5  6  1  0
  7  6  2  0
  8  7  1  0
  9  8  2  0
 10 11  2  0
 13 12  1  6
 13 15  1  0
 14 13  1  0
 15 17  1  0
 15 16  1  6
 16 10  1  0
 17 26  1  0
 17 18  2  0
 19 20  1  0
 20 30  2  0
 20 21  1  0
 21 22  2  0
 22 23  1  0
 23 24  1  0
 25 24  1  1
 25 27  1  0
 26 25  1  0
 27 28  2  0
 27 31  1  0
 29 23  2  0
 30 29  1  0
M  END
$$$$
