FTY.pdb
     RDKit          3D

 31 32  0  0  1  0  0  0  0  0999 V2000
    7.9602  -17.0236   18.3607 N   0  0  0  0  0  0  0  0  0  0  0  0
    8.1513  -16.0407   19.4075 C   0  0  1  0  0  0  0  0  0  0  0  0
    7.0125  -15.0555   19.3075 C   0  0  0  0  0  0  0  0  0  0  0  0
    7.1936  -14.0615   20.3938 C   0  0  0  0  0  0  0  0  0  0  0  0
    6.6553  -14.2895   21.6389 C   0  0  0  0  0  0  0  0  0  0  0  0
    6.8049  -13.3795   22.6822 C   0  0  0  0  0  0  0  0  0  0  0  0
    7.5081  -12.2108   22.4844 C   0  0  0  0  0  0  0  0  0  0  0  0
    8.0514  -11.9809   21.2276 C   0  0  0  0  0  0  0  0  0  0  0  0
    7.8965  -12.8943   20.1948 C   0  0  0  0  0  0  0  0  0  0  0  0
    8.2358  -16.7110   20.6989 C   0  0  0  0  0  0  0  0  0  0  0  0
    7.3562  -17.5454   21.0265 O   0  0  0  0  0  0  0  0  0  0  0  0
    9.7170  -19.4878   21.5106 C   0  0  0  0  0  0  0  0  0  0  0  0
   10.3650  -18.5193   22.4720 C   0  0  1  0  0  0  0  0  0  0  0  0
   11.5528  -17.9901   21.9831 O   0  0  0  0  0  0  0  0  0  0  0  0
    9.4459  -17.3678   22.8153 C   0  0  2  0  0  0  0  0  0  0  0  0
    9.2699  -16.4903   21.6539 N   0  0  0  0  0  0  0  0  0  0  0  0
    9.9308  -16.5438   23.9464 C   0  0  0  0  0  0  0  0  0  0  0  0
   10.8048  -15.6400   23.7227 O   0  0  0  0  0  0  0  0  0  0  0  0
    5.7645  -11.3041   25.8566 O   0  0  0  0  0  0  0  0  0  0  0  0
    6.5804  -12.3659   26.2441 C   0  0  0  0  0  0  0  0  0  0  0  0
    6.0971  -13.6614   26.2534 C   0  0  0  0  0  0  0  0  0  0  0  0
    6.8930  -14.7210   26.6343 C   0  0  0  0  0  0  0  0  0  0  0  0
    8.1974  -14.5419   27.0210 C   0  0  0  0  0  0  0  0  0  0  0  0
    9.0583  -15.6750   27.4310 C   0  0  0  0  0  0  0  0  0  0  0  0
   10.1415  -15.9690   26.3878 C   0  0  2  0  0  0  0  0  0  0  0  0
    9.4957  -16.6772   25.2852 N   0  0  0  0  0  0  0  0  0  0  0  0
   11.1600  -16.8391   26.9993 C   0  0  0  0  0  0  0  0  0  0  0  0
   11.2051  -18.0599   26.6731 O   0  0  0  0  0  0  0  0  0  0  0  0
    8.7020  -13.2374   27.0174 C   0  0  0  0  0  0  0  0  0  0  0  0
    7.8887  -12.1949   26.6331 C   0  0  0  0  0  0  0  0  0  0  0  0
   12.0600  -16.3276   27.9225 O   0  0  0  0  0  0  0  0  0  0  0  0
  2  1  1  6
  2 10  1  0
  3  2  1  0
  3  4  1  0
  4  9  1  0
  4  5  2  0
  5  6  1  0
  7  6  2  0
  8  7  1  0
  9  8  2  0
 10 11  2  0
 13 12  1  6
 13 15  1  0
 14 13  1  0
 15 17  1  0
 15 16  1  6
 16 10  1  0
 17 26  1  0
 17 18  2  0
 19 20  1  0
 20 30  2  0
 20 21  1  0
 21 22  2  0
 22 23  1  0
 23 24  1  0
 25 24  1  1
 25 27  1  0
 26 25  1  0
 27 28  2  0
 27 31  1  0
 29 23  2  0
 30 29  1  0
M  END
$$$$
