FTY.pdb
     RDKit          3D

 31 32  0  0  1  0  0  0  0  0999 V2000
    6.4991  -15.7752   25.5124 N   0  0  0  0  0  0  0  0  0  0  0  0
    7.0563  -15.1824   24.3140 C   0  0  1  0  0  0  0  0  0  0  0  0
    7.9451  -14.0437   24.7514 C   0  0  0  0  0  0  0  0  0  0  0  0
    7.0687  -13.0041   25.3448 C   0  0  0  0  0  0  0  0  0  0  0  0
    5.7570  -12.8929   24.9461 C   0  0  0  0  0  0  0  0  0  0  0  0
    4.9054  -11.9297   25.4808 C   0  0  0  0  0  0  0  0  0  0  0  0
    5.3683  -11.0525   26.4377 C   0  0  0  0  0  0  0  0  0  0  0  0
    6.6923  -11.1649   26.8401 C   0  0  0  0  0  0  0  0  0  0  0  0
    7.5326  -12.1283   26.3008 C   0  0  0  0  0  0  0  0  0  0  0  0
    7.7497  -16.2039   23.5394 C   0  0  0  0  0  0  0  0  0  0  0  0
    7.8440  -17.3717   23.9916 O   0  0  0  0  0  0  0  0  0  0  0  0
    8.4370  -16.7914   19.5439 C   0  0  0  0  0  0  0  0  0  0  0  0
    9.7124  -16.5741   20.3238 C   0  0  1  0  0  0  0  0  0  0  0  0
   10.2564  -15.3116   20.1239 O   0  0  0  0  0  0  0  0  0  0  0  0
    9.5021  -16.7632   21.8099 C   0  0  2  0  0  0  0  0  0  0  0  0
    8.3504  -15.9793   22.2671 N   0  0  0  0  0  0  0  0  0  0  0  0
   10.6763  -16.3758   22.6252 C   0  0  0  0  0  0  0  0  0  0  0  0
   10.9392  -15.1358   22.7804 O   0  0  0  0  0  0  0  0  0  0  0  0
   12.0667  -16.6252   31.0422 O   0  0  0  0  0  0  0  0  0  0  0  0
   11.7444  -16.7110   29.6887 C   0  0  0  0  0  0  0  0  0  0  0  0
   11.5093  -17.9374   29.0947 C   0  0  0  0  0  0  0  0  0  0  0  0
   11.1897  -18.0368   27.7572 C   0  0  0  0  0  0  0  0  0  0  0  0
   11.0899  -16.9285   26.9542 C   0  0  0  0  0  0  0  0  0  0  0  0
   10.7465  -17.0274   25.5171 C   0  0  0  0  0  0  0  0  0  0  0  0
   12.0005  -17.1002   24.6394 C   0  0  2  0  0  0  0  0  0  0  0  0
   11.5510  -17.2863   23.2619 N   0  0  0  0  0  0  0  0  0  0  0  0
   12.7994  -18.2650   25.0557 C   0  0  0  0  0  0  0  0  0  0  0  0
   12.4293  -19.4231   24.7082 O   0  0  0  0  0  0  0  0  0  0  0  0
   11.3246  -15.6800   27.5394 C   0  0  0  0  0  0  0  0  0  0  0  0
   11.6423  -15.6051   28.8771 C   0  0  0  0  0  0  0  0  0  0  0  0
   13.9445  -18.0960   25.8200 O   0  0  0  0  0  0  0  0  0  0  0  0
  2  1  1  1
  2 10  1  0
  3  2  1  0
  3  4  1  0
  4  9  1  0
  4  5  2  0
  5  6  1  0
  7  6  2  0
  8  7  1  0
  9  8  2  0
 10 11  2  0
 13 12  1  6
 13 15  1  0
 14 13  1  0
 15 17  1  0
 15 16  1  1
 16 10  1  0
 17 26  1  0
 17 18  2  0
 19 20  1  0
 20 30  2  0
 20 21  1  0
 21 22  2  0
 22 23  1  0
 23 24  1  0
 25 24  1  1
 25 27  1  0
 26 25  1  0
 27 28  2  0
 27 31  1  0
 29 23  2  0
 30 29  1  0
M  END
$$$$
