FTY.pdb
     RDKit          3D

 31 32  0  0  1  0  0  0  0  0999 V2000
    7.1261  -16.9115   17.4963 N   0  0  0  0  0  0  0  0  0  0  0  0
    7.5905  -16.0407   18.5566 C   0  0  1  0  0  0  0  0  0  0  0  0
    6.3900  -15.2838   19.0700 C   0  0  0  0  0  0  0  0  0  0  0  0
    6.8502  -14.4452   20.2040 C   0  0  0  0  0  0  0  0  0  0  0  0
    7.4173  -13.2141   19.9702 C   0  0  0  0  0  0  0  0  0  0  0  0
    7.8605  -12.3998   21.0092 C   0  0  0  0  0  0  0  0  0  0  0  0
    7.7375  -12.8189   22.3164 C   0  0  0  0  0  0  0  0  0  0  0  0
    7.1650  -14.0616   22.5521 C   0  0  0  0  0  0  0  0  0  0  0  0
    6.7266  -14.8652   21.5095 C   0  0  0  0  0  0  0  0  0  0  0  0
    8.2670  -16.8306   19.5778 C   0  0  0  0  0  0  0  0  0  0  0  0
    7.6614  -17.7798   20.1341 O   0  0  0  0  0  0  0  0  0  0  0  0
   10.6121  -19.3568   19.3701 C   0  0  0  0  0  0  0  0  0  0  0  0
   11.2685  -18.3760   20.3131 C   0  0  1  0  0  0  0  0  0  0  0  0
   12.1999  -17.5626   19.6800 O   0  0  0  0  0  0  0  0  0  0  0  0
   10.2533  -17.4838   20.9929 C   0  0  2  0  0  0  0  0  0  0  0  0
    9.6054  -16.6071   20.0123 N   0  0  0  0  0  0  0  0  0  0  0  0
   10.8348  -16.6343   22.0576 C   0  0  0  0  0  0  0  0  0  0  0  0
   10.7190  -15.3656   21.9685 O   0  0  0  0  0  0  0  0  0  0  0  0
    9.9651  -13.4448   29.9236 O   0  0  0  0  0  0  0  0  0  0  0  0
   10.0028  -14.0968   28.6921 C   0  0  0  0  0  0  0  0  0  0  0  0
   10.8767  -13.6869   27.7020 C   0  0  0  0  0  0  0  0  0  0  0  0
   10.9245  -14.3227   26.4795 C   0  0  0  0  0  0  0  0  0  0  0  0
   10.1106  -15.3883   26.1874 C   0  0  0  0  0  0  0  0  0  0  0  0
   10.1567  -16.0763   24.8768 C   0  0  0  0  0  0  0  0  0  0  0  0
   11.5964  -16.3697   24.4419 C   0  0  2  0  0  0  0  0  0  0  0  0
   11.5232  -17.1225   23.1921 N   0  0  0  0  0  0  0  0  0  0  0  0
   12.2408  -17.1973   25.4755 C   0  0  0  0  0  0  0  0  0  0  0  0
   11.8864  -18.4037   25.6095 O   0  0  0  0  0  0  0  0  0  0  0  0
    9.2206  -15.8157   27.1780 C   0  0  0  0  0  0  0  0  0  0  0  0
    9.1905  -15.1654   28.3914 C   0  0  0  0  0  0  0  0  0  0  0  0
   13.2250  -16.6618   26.2932 O   0  0  0  0  0  0  0  0  0  0  0  0
  2  1  1  6
  2 10  1  0
  3  2  1  0
  3  4  1  0
  4  9  1  0
  4  5  2  0
  5  6  1  0
  7  6  2  0
  8  7  1  0
  9  8  2  0
 10 11  2  0
 13 12  1  6
 13 15  1  0
 14 13  1  0
 15 17  1  0
 15 16  1  6
 16 10  1  0
 17 26  1  0
 17 18  2  0
 19 20  1  0
 20 30  2  0
 20 21  1  0
 21 22  2  0
 22 23  1  0
 23 24  1  0
 25 24  1  1
 25 27  1  0
 26 25  1  0
 27 28  2  0
 27 31  1  0
 29 23  2  0
 30 29  1  0
M  END
$$$$
