FTY.pdb
     RDKit          3D

 31 32  0  0  1  0  0  0  0  0999 V2000
    5.7790  -18.3699   20.8956 N   0  0  0  0  0  0  0  0  0  0  0  0
    6.5985  -17.1757   20.9207 C   0  0  1  0  0  0  0  0  0  0  0  0
    5.7553  -16.0684   21.5042 C   0  0  0  0  0  0  0  0  0  0  0  0
    6.5852  -14.8386   21.5084 C   0  0  0  0  0  0  0  0  0  0  0  0
    6.9820  -14.2741   22.6982 C   0  0  0  0  0  0  0  0  0  0  0  0
    7.7610  -13.1207   22.7410 C   0  0  0  0  0  0  0  0  0  0  0  0
    8.1570  -12.5105   21.5704 C   0  0  0  0  0  0  0  0  0  0  0  0
    7.7563  -13.0804   20.3694 C   0  0  0  0  0  0  0  0  0  0  0  0
    6.9801  -14.2300   20.3380 C   0  0  0  0  0  0  0  0  0  0  0  0
    7.8223  -17.4375   21.6678 C   0  0  0  0  0  0  0  0  0  0  0  0
    7.7551  -17.9339   22.8195 O   0  0  0  0  0  0  0  0  0  0  0  0
   12.6375  -18.4822   21.8064 C   0  0  0  0  0  0  0  0  0  0  0  0
   11.3619  -18.1715   21.0592 C   0  0  1  0  0  0  0  0  0  0  0  0
   10.7865  -19.2985   20.4859 O   0  0  0  0  0  0  0  0  0  0  0  0
   10.3293  -17.5229   21.9546 C   0  0  2  0  0  0  0  0  0  0  0  0
    9.1344  -17.1673   21.1828 N   0  0  0  0  0  0  0  0  0  0  0  0
   10.8210  -16.3011   22.6321 C   0  0  0  0  0  0  0  0  0  0  0  0
   10.8552  -15.2038   21.9799 O   0  0  0  0  0  0  0  0  0  0  0  0
    9.7001  -16.8931   30.1279 O   0  0  0  0  0  0  0  0  0  0  0  0
   10.1083  -16.2434   28.9641 C   0  0  0  0  0  0  0  0  0  0  0  0
   10.9350  -16.8767   28.0543 C   0  0  0  0  0  0  0  0  0  0  0  0
   11.3464  -16.2460   26.8993 C   0  0  0  0  0  0  0  0  0  0  0  0
   10.9571  -14.9651   26.5980 C   0  0  0  0  0  0  0  0  0  0  0  0
   11.3944  -14.2816   25.3592 C   0  0  0  0  0  0  0  0  0  0  0  0
   12.1905  -15.2198   24.4460 C   0  0  2  0  0  0  0  0  0  0  0  0
   11.2656  -16.2470   23.9734 N   0  0  0  0  0  0  0  0  0  0  0  0
   13.2605  -15.8505   25.2371 C   0  0  0  0  0  0  0  0  0  0  0  0
   13.1455  -17.0638   25.5741 O   0  0  0  0  0  0  0  0  0  0  0  0
   10.1207  -14.3102   27.5078 C   0  0  0  0  0  0  0  0  0  0  0  0
    9.7226  -14.9599   28.6547 C   0  0  0  0  0  0  0  0  0  0  0  0
   14.3820  -15.1240   25.6092 O   0  0  0  0  0  0  0  0  0  0  0  0
  2  1  1  1
  2 10  1  0
  3  2  1  0
  3  4  1  0
  4  9  1  0
  4  5  2  0
  5  6  1  0
  7  6  2  0
  8  7  1  0
  9  8  2  0
 10 11  2  0
 13 12  1  1
 13 15  1  0
 14 13  1  0
 15 17  1  0
 15 16  1  6
 16 10  1  0
 17 26  1  0
 17 18  2  0
 19 20  1  0
 20 30  2  0
 20 21  1  0
 21 22  2  0
 22 23  1  0
 23 24  1  0
 25 24  1  1
 25 27  1  0
 26 25  1  0
 27 28  2  0
 27 31  1  0
 29 23  2  0
 30 29  1  0
M  END
$$$$
