FTY.pdb
     RDKit          3D

 31 32  0  0  1  0  0  0  0  0999 V2000
    7.0927  -15.4783   19.9762 N   0  0  0  0  0  0  0  0  0  0  0  0
    7.5554  -14.9987   21.2622 C   0  0  1  0  0  0  0  0  0  0  0  0
    6.3323  -14.6515   22.0752 C   0  0  0  0  0  0  0  0  0  0  0  0
    6.8007  -14.2374   23.4206 C   0  0  0  0  0  0  0  0  0  0  0  0
    7.4546  -13.0390   23.5885 C   0  0  0  0  0  0  0  0  0  0  0  0
    7.9083  -12.6177   24.8358 C   0  0  0  0  0  0  0  0  0  0  0  0
    7.7075  -13.4076   25.9472 C   0  0  0  0  0  0  0  0  0  0  0  0
    7.0475  -14.6172   25.7775 C   0  0  0  0  0  0  0  0  0  0  0  0
    6.5994  -15.0276   24.5302 C   0  0  0  0  0  0  0  0  0  0  0  0
    8.4064  -16.0059   21.8832 C   0  0  0  0  0  0  0  0  0  0  0  0
    7.9446  -17.1486   22.1248 O   0  0  0  0  0  0  0  0  0  0  0  0
   10.3961  -18.0774   20.4746 C   0  0  0  0  0  0  0  0  0  0  0  0
   11.3560  -17.4864   21.4803 C   0  0  1  0  0  0  0  0  0  0  0  0
   12.1610  -16.4935   20.9362 O   0  0  0  0  0  0  0  0  0  0  0  0
   10.6316  -16.9006   22.6723 C   0  0  2  0  0  0  0  0  0  0  0  0
    9.7663  -15.7942   22.2516 N   0  0  0  0  0  0  0  0  0  0  0  0
   11.5423  -16.3984   23.7268 C   0  0  0  0  0  0  0  0  0  0  0  0
   11.5683  -15.1463   23.9763 O   0  0  0  0  0  0  0  0  0  0  0  0
    9.3933  -12.8466   29.6023 O   0  0  0  0  0  0  0  0  0  0  0  0
    9.7744  -13.9356   28.8201 C   0  0  0  0  0  0  0  0  0  0  0  0
    8.9283  -14.4384   27.8488 C   0  0  0  0  0  0  0  0  0  0  0  0
    9.2925  -15.5150   27.0681 C   0  0  0  0  0  0  0  0  0  0  0  0
   10.5068  -16.1367   27.2164 C   0  0  0  0  0  0  0  0  0  0  0  0
   10.9049  -17.2930   26.3812 C   0  0  0  0  0  0  0  0  0  0  0  0
   12.3757  -17.2071   25.9599 C   0  0  2  0  0  0  0  0  0  0  0  0
   12.4055  -17.2094   24.4993 N   0  0  0  0  0  0  0  0  0  0  0  0
   13.0805  -18.3967   26.4662 C   0  0  0  0  0  0  0  0  0  0  0  0
   14.0591  -18.2460   27.2527 O   0  0  0  0  0  0  0  0  0  0  0  0
   11.3746  -15.6405   28.1945 C   0  0  0  0  0  0  0  0  0  0  0  0
   10.9895  -14.5644   28.9624 C   0  0  0  0  0  0  0  0  0  0  0  0
   12.6774  -19.6683   26.0861 O   0  0  0  0  0  0  0  0  0  0  0  0
  2  1  1  6
  2 10  1  0
  3  2  1  0
  3  4  1  0
  4  9  1  0
  4  5  2  0
  5  6  1  0
  7  6  2  0
  8  7  1  0
  9  8  2  0
 10 11  2  0
 13 12  1  6
 13 15  1  0
 14 13  1  0
 15 17  1  0
 15 16  1  6
 16 10  1  0
 17 26  1  0
 17 18  2  0
 19 20  1  0
 20 30  2  0
 20 21  1  0
 21 22  2  0
 22 23  1  0
 23 24  1  0
 25 24  1  6
 25 27  1  0
 26 25  1  0
 27 28  2  0
 27 31  1  0
 29 23  2  0
 30 29  1  0
M  END
$$$$
