FTY.pdb
     RDKit          3D

 31 32  0  0  1  0  0  0  0  0999 V2000
    8.1133  -17.1222   20.6114 N   0  0  0  0  0  0  0  0  0  0  0  0
    8.5928  -16.2896   21.6953 C   0  0  1  0  0  0  0  0  0  0  0  0
    7.4789  -15.3354   22.0511 C   0  0  0  0  0  0  0  0  0  0  0  0
    7.5075  -14.2348   21.0568 C   0  0  0  0  0  0  0  0  0  0  0  0
    8.6608  -13.5132   20.8544 C   0  0  0  0  0  0  0  0  0  0  0  0
    8.7248  -12.4738   19.9300 C   0  0  0  0  0  0  0  0  0  0  0  0
    7.6134  -12.1413   19.1858 C   0  0  0  0  0  0  0  0  0  0  0  0
    6.4494  -12.8698   19.3903 C   0  0  0  0  0  0  0  0  0  0  0  0
    6.3963  -13.9037   20.3140 C   0  0  0  0  0  0  0  0  0  0  0  0
    9.0223  -17.1305   22.8055 C   0  0  0  0  0  0  0  0  0  0  0  0
    8.1965  -17.8940   23.3646 O   0  0  0  0  0  0  0  0  0  0  0  0
   11.5304  -19.9150   23.4597 C   0  0  0  0  0  0  0  0  0  0  0  0
   11.8529  -18.7690   24.3897 C   0  0  1  0  0  0  0  0  0  0  0  0
   12.9242  -18.0030   23.9476 O   0  0  0  0  0  0  0  0  0  0  0  0
   10.6672  -17.8492   24.5811 C   0  0  2  0  0  0  0  0  0  0  0  0
   10.3478  -17.1592   23.3274 N   0  0  0  0  0  0  0  0  0  0  0  0
   10.8791  -16.8251   25.6299 C   0  0  0  0  0  0  0  0  0  0  0  0
   11.6554  -15.8411   25.3851 O   0  0  0  0  0  0  0  0  0  0  0  0
    7.1910  -11.7350   24.6151 O   0  0  0  0  0  0  0  0  0  0  0  0
    7.7326  -12.5886   25.5748 C   0  0  0  0  0  0  0  0  0  0  0  0
    8.5939  -13.6069   25.2094 C   0  0  0  0  0  0  0  0  0  0  0  0
    9.1369  -14.4584   26.1481 C   0  0  0  0  0  0  0  0  0  0  0  0
    8.8501  -14.3371   27.4846 C   0  0  0  0  0  0  0  0  0  0  0  0
    9.4299  -15.2476   28.4985 C   0  0  0  0  0  0  0  0  0  0  0  0
   10.6934  -15.9417   27.9793 C   0  0  2  0  0  0  0  0  0  0  0  0
   10.2786  -16.8462   26.9098 N   0  0  0  0  0  0  0  0  0  0  0  0
   11.2870  -16.7219   29.0782 C   0  0  0  0  0  0  0  0  0  0  0  0
   11.2458  -17.9848   29.0307 O   0  0  0  0  0  0  0  0  0  0  0  0
    7.9805  -13.3122   27.8713 C   0  0  0  0  0  0  0  0  0  0  0  0
    7.4504  -12.4739   26.9162 C   0  0  0  0  0  0  0  0  0  0  0  0
   11.8847  -16.0810   30.1533 O   0  0  0  0  0  0  0  0  0  0  0  0
  2  1  1  6
  2 10  1  0
  3  2  1  0
  3  4  1  0
  4  9  1  0
  4  5  2  0
  5  6  1  0
  7  6  2  0
  8  7  1  0
  9  8  2  0
 10 11  2  0
 13 12  1  6
 13 15  1  0
 14 13  1  0
 15 17  1  0
 15 16  1  6
 16 10  1  0
 17 26  1  0
 17 18  2  0
 19 20  1  0
 20 30  2  0
 20 21  1  0
 21 22  2  0
 22 23  1  0
 23 24  1  0
 25 24  1  1
 25 27  1  0
 26 25  1  0
 27 28  2  0
 27 31  1  0
 29 23  2  0
 30 29  1  0
M  END
$$$$
