QHT.pdb
     RDKit          3D

 27 27  0  0  1  0  0  0  0  0999 V2000
    7.8616  -20.3477   19.9275 N   0  0  0  0  0  0  0  0  0  0  0  0
    9.2555  -20.1026   20.2134 C   0  0  0  0  0  0  0  0  0  0  0  0
    9.9496  -21.1093   20.4543 O   0  0  0  0  0  0  0  0  0  0  0  0
    9.6890  -18.7086   20.1859 C   0  0  0  0  0  0  0  0  0  0  0  0
    8.5437  -17.7888   19.9464 C   0  0  0  0  0  0  0  0  0  0  0  0
    9.0360  -16.3611   19.9464 C   0  0  2  0  0  0  0  0  0  0  0  0
   10.3785  -16.3970   19.3848 N   0  0  0  0  0  0  0  0  0  0  0  0
    9.0700  -15.9458   21.3797 C   0  0  0  0  0  0  0  0  0  0  0  0
   10.1857  -16.0416   21.9689 O   0  0  0  0  0  0  0  0  0  0  0  0
    7.9196  -15.4694   22.0497 N   0  0  0  0  0  0  0  0  0  0  0  0
    8.1141  -14.9542   23.4190 C   0  0  1  0  0  0  0  0  0  0  0  0
    6.8588  -14.2490   23.7897 C   0  0  0  0  0  0  0  0  0  0  0  0
    6.9508  -13.5678   25.0886 C   0  0  0  0  0  0  0  0  0  0  0  0
    8.0766  -13.6384   25.9283 C   0  0  0  0  0  0  0  0  0  0  0  0
    7.8657  -12.9142   27.0443 N   0  0  0  0  0  0  0  0  0  0  0  0
    6.6420  -12.3919   26.9297 C   0  0  0  0  0  0  0  0  0  0  0  0
    6.1097  -12.7851   25.7686 N   0  0  0  0  0  0  0  0  0  0  0  0
    8.5075  -16.0792   24.2954 C   0  0  0  0  0  0  0  0  0  0  0  0
    7.9363  -17.1722   24.2203 O   0  0  0  0  0  0  0  0  0  0  0  0
   12.0168  -18.4769   26.3984 C   0  0  0  0  0  0  0  0  0  0  0  0
   11.5075  -17.2985   25.5946 C   0  0  1  0  0  0  0  0  0  0  0  0
   11.6257  -17.5272   24.2383 O   0  0  0  0  0  0  0  0  0  0  0  0
   10.0474  -17.0868   26.0134 C   0  0  2  0  0  0  0  0  0  0  0  0
    9.5607  -15.9670   25.2699 N   0  0  0  0  0  0  0  0  0  0  0  0
    9.9359  -16.8917   27.4766 C   0  0  0  0  0  0  0  0  0  0  0  0
   10.1013  -17.9713   28.3113 O   0  0  0  0  0  0  0  0  0  0  0  0
    9.6932  -15.7532   27.9460 O   0  0  0  0  0  0  0  0  0  0  0  0
  2  1  1  0
  3  2  2  0
  4  2  1  0
  5  4  1  0
  6  5  1  0
  6  7  1  1
  8  6  1  0
  8  9  2  0
 10 11  1  0
 10  8  1  0
 11 12  1  1
 12 13  1  0
 13 14  2  0
 13 17  1  0
 14 15  1  0
 15 16  1  0
 17 16  2  0
 18 11  1  0
 19 18  2  0
 21 20  1  1
 22 21  1  0
 23 21  1  0
 23 24  1  6
 24 18  1  0
 25 26  1  0
 25 23  1  0
 27 25  2  0
M  END
$$$$
