QHT.pdb
     RDKit          3D

 27 27  0  0  1  0  0  0  0  0999 V2000
    8.3863  -12.2948   18.5325 N   0  0  0  0  0  0  0  0  0  0  0  0
    8.6163  -13.6010   17.9618 C   0  0  0  0  0  0  0  0  0  0  0  0
    8.1037  -13.8077   16.8447 O   0  0  0  0  0  0  0  0  0  0  0  0
    9.4211  -14.5245   18.7563 C   0  0  0  0  0  0  0  0  0  0  0  0
    9.8058  -13.9236   20.0623 C   0  0  0  0  0  0  0  0  0  0  0  0
   10.6268  -14.9160   20.8509 C   0  0  2  0  0  0  0  0  0  0  0  0
   10.5020  -16.1877   20.1536 N   0  0  0  0  0  0  0  0  0  0  0  0
    9.9911  -14.9845   22.1998 C   0  0  0  0  0  0  0  0  0  0  0  0
    9.9963  -13.9183   22.8812 O   0  0  0  0  0  0  0  0  0  0  0  0
    9.4118  -16.1752   22.6958 N   0  0  0  0  0  0  0  0  0  0  0  0
    8.7962  -16.1062   24.0354 C   0  0  1  0  0  0  0  0  0  0  0  0
    7.6683  -17.0749   24.0348 C   0  0  0  0  0  0  0  0  0  0  0  0
    6.6745  -16.7910   22.9900 C   0  0  0  0  0  0  0  0  0  0  0  0
    6.8146  -15.7648   22.0387 C   0  0  0  0  0  0  0  0  0  0  0  0
    5.7481  -15.7500   21.2160 N   0  0  0  0  0  0  0  0  0  0  0  0
    4.9440  -16.7355   21.6226 C   0  0  0  0  0  0  0  0  0  0  0  0
    5.5020  -17.3450   22.6730 N   0  0  0  0  0  0  0  0  0  0  0  0
    9.8471  -16.3372   25.0506 C   0  0  0  0  0  0  0  0  0  0  0  0
   11.0425  -16.3382   24.7380 O   0  0  0  0  0  0  0  0  0  0  0  0
    9.1649  -14.3248   27.9610 C   0  0  0  0  0  0  0  0  0  0  0  0
   10.5699  -14.8028   27.6584 C   0  0  1  0  0  0  0  0  0  0  0  0
   11.4481  -14.4482   28.6627 O   0  0  0  0  0  0  0  0  0  0  0  0
   10.4824  -16.3243   27.4866 C   0  0  2  0  0  0  0  0  0  0  0  0
    9.5426  -16.5701   26.4379 N   0  0  0  0  0  0  0  0  0  0  0  0
   10.1041  -16.9829   28.7573 C   0  0  0  0  0  0  0  0  0  0  0  0
   11.0190  -17.0390   29.7817 O   0  0  0  0  0  0  0  0  0  0  0  0
    8.9610  -17.4830   28.8944 O   0  0  0  0  0  0  0  0  0  0  0  0
  2  1  1  0
  3  2  2  0
  4  2  1  0
  5  4  1  0
  6  5  1  0
  6  7  1  6
  8  6  1  0
  8  9  2  0
 10 11  1  0
 10  8  1  0
 11 12  1  6
 12 13  1  0
 13 14  2  0
 13 17  1  0
 14 15  1  0
 15 16  1  0
 17 16  2  0
 18 11  1  0
 19 18  2  0
 21 20  1  1
 22 21  1  0
 23 21  1  0
 23 24  1  6
 24 18  1  0
 25 26  1  0
 25 23  1  0
 27 25  2  0
M  END
$$$$
