QHT.pdb
     RDKit          3D

 27 27  0  0  1  0  0  0  0  0999 V2000
    8.2561  -11.9015   18.0483 N   0  0  0  0  0  0  0  0  0  0  0  0
    7.9710  -13.1787   18.6585 C   0  0  0  0  0  0  0  0  0  0  0  0
    7.0530  -13.1893   19.5015 O   0  0  0  0  0  0  0  0  0  0  0  0
    8.7876  -14.3060   18.2178 C   0  0  0  0  0  0  0  0  0  0  0  0
    9.8864  -13.8611   17.3181 C   0  0  0  0  0  0  0  0  0  0  0  0
   10.6512  -15.0657   16.8233 C   0  0  2  0  0  0  0  0  0  0  0  0
    9.6648  -15.9501   16.2200 N   0  0  0  0  0  0  0  0  0  0  0  0
   11.2519  -15.6898   18.0390 C   0  0  0  0  0  0  0  0  0  0  0  0
   10.7084  -16.7542   18.4544 O   0  0  0  0  0  0  0  0  0  0  0  0
   12.3697  -15.1260   18.6965 N   0  0  0  0  0  0  0  0  0  0  0  0
   12.9290  -15.8899   19.8286 C   0  0  1  0  0  0  0  0  0  0  0  0
   14.4069  -15.7481   19.7476 C   0  0  0  0  0  0  0  0  0  0  0  0
   15.0382  -16.8116   18.9537 C   0  0  0  0  0  0  0  0  0  0  0  0
   14.6176  -18.1533   18.9729 C   0  0  0  0  0  0  0  0  0  0  0  0
   15.3852  -18.8890   18.1460 N   0  0  0  0  0  0  0  0  0  0  0  0
   16.2741  -18.0495   17.6092 C   0  0  0  0  0  0  0  0  0  0  0  0
   16.0596  -16.8227   18.0941 N   0  0  0  0  0  0  0  0  0  0  0  0
   12.3004  -15.4100   21.0787 C   0  0  0  0  0  0  0  0  0  0  0  0
   12.8757  -14.5934   21.8059 O   0  0  0  0  0  0  0  0  0  0  0  0
    8.8458  -14.0355   21.6175 C   0  0  0  0  0  0  0  0  0  0  0  0
    8.9422  -15.2404   22.5302 C   0  0  1  0  0  0  0  0  0  0  0  0
    8.3245  -16.3425   21.9737 O   0  0  0  0  0  0  0  0  0  0  0  0
   10.4372  -15.4837   22.7703 C   0  0  2  0  0  0  0  0  0  0  0  0
   11.0037  -15.8593   21.5127 N   0  0  0  0  0  0  0  0  0  0  0  0
   10.6487  -16.5065   23.8194 C   0  0  0  0  0  0  0  0  0  0  0  0
   10.2435  -16.2411   25.1058 O   0  0  0  0  0  0  0  0  0  0  0  0
   11.1917  -17.6017   23.5343 O   0  0  0  0  0  0  0  0  0  0  0  0
  2  1  1  0
  3  2  2  0
  4  2  1  0
  5  4  1  0
  6  5  1  0
  6  7  1  1
  8  6  1  0
  8  9  2  0
 10 11  1  0
 10  8  1  0
 11 12  1  1
 12 13  1  0
 13 14  2  0
 13 17  1  0
 14 15  1  0
 15 16  1  0
 17 16  2  0
 18 11  1  0
 19 18  2  0
 21 20  1  6
 22 21  1  0
 23 21  1  0
 23 24  1  6
 24 18  1  0
 25 26  1  0
 25 23  1  0
 27 25  2  0
M  END
$$$$
