QHT.pdb
     RDKit          3D

 27 27  0  0  1  0  0  0  0  0999 V2000
    9.7776  -13.5546   19.9095 N   0  0  0  0  0  0  0  0  0  0  0  0
    8.7699  -13.0669   18.9976 C   0  0  0  0  0  0  0  0  0  0  0  0
    9.1849  -12.6312   17.9061 O   0  0  0  0  0  0  0  0  0  0  0  0
    7.3863  -13.1417   19.4579 C   0  0  0  0  0  0  0  0  0  0  0  0
    7.3035  -13.6800   20.8429 C   0  0  0  0  0  0  0  0  0  0  0  0
    7.3467  -15.1890   20.8001 C   0  0  2  0  0  0  0  0  0  0  0  0
    6.1760  -15.6049   20.0415 N   0  0  0  0  0  0  0  0  0  0  0  0
    7.2462  -15.6362   22.2207 C   0  0  0  0  0  0  0  0  0  0  0  0
    6.1127  -15.5187   22.7708 O   0  0  0  0  0  0  0  0  0  0  0  0
    8.3555  -16.1644   22.9206 N   0  0  0  0  0  0  0  0  0  0  0  0
    8.0973  -16.6888   24.2757 C   0  0  1  0  0  0  0  0  0  0  0  0
    8.1046  -18.1716   24.1657 C   0  0  0  0  0  0  0  0  0  0  0  0
    7.9229  -18.8396   25.4620 C   0  0  0  0  0  0  0  0  0  0  0  0
    7.3722  -18.2109   26.5929 C   0  0  0  0  0  0  0  0  0  0  0  0
    7.3338  -19.0731   27.6270 N   0  0  0  0  0  0  0  0  0  0  0  0
    7.8437  -20.2231   27.1788 C   0  0  0  0  0  0  0  0  0  0  0  0
    8.1891  -20.0736   25.8964 N   0  0  0  0  0  0  0  0  0  0  0  0
    9.0883  -16.1039   25.2053 C   0  0  0  0  0  0  0  0  0  0  0  0
    9.9252  -15.2860   24.8088 O   0  0  0  0  0  0  0  0  0  0  0  0
    9.8860  -13.6755   28.9114 C   0  0  0  0  0  0  0  0  0  0  0  0
    9.1454  -14.3913   27.8008 C   0  0  1  0  0  0  0  0  0  0  0  0
    9.0797  -13.6162   26.6604 O   0  0  0  0  0  0  0  0  0  0  0  0
    9.8967  -15.7057   27.5561 C   0  0  2  0  0  0  0  0  0  0  0  0
    9.1338  -16.4483   26.6021 N   0  0  0  0  0  0  0  0  0  0  0  0
   10.1024  -16.4454   28.8218 C   0  0  0  0  0  0  0  0  0  0  0  0
   11.1563  -16.1023   29.6350 O   0  0  0  0  0  0  0  0  0  0  0  0
    9.3223  -17.3738   29.1455 O   0  0  0  0  0  0  0  0  0  0  0  0
  2  1  1  0
  3  2  2  0
  4  2  1  0
  5  4  1  0
  6  5  1  0
  6  7  1  6
  8  6  1  0
  8  9  2  0
 10 11  1  0
 10  8  1  0
 11 12  1  6
 12 13  1  0
 13 14  2  0
 13 17  1  0
 14 15  1  0
 15 16  1  0
 17 16  2  0
 18 11  1  0
 19 18  2  0
 21 20  1  1
 22 21  1  0
 23 21  1  0
 23 24  1  6
 24 18  1  0
 25 26  1  0
 25 23  1  0
 27 25  2  0
M  END
$$$$
