QHT.pdb
     RDKit          3D

 27 27  0  0  1  0  0  0  0  0999 V2000
   11.9556  -22.0640   19.3946 N   0  0  0  0  0  0  0  0  0  0  0  0
   11.4728  -22.0296   18.0343 C   0  0  0  0  0  0  0  0  0  0  0  0
   11.5380  -23.1026   17.4035 O   0  0  0  0  0  0  0  0  0  0  0  0
   10.9647  -20.7465   17.5574 C   0  0  0  0  0  0  0  0  0  0  0  0
   11.0194  -19.7108   18.6247 C   0  0  0  0  0  0  0  0  0  0  0  0
   10.1931  -18.5165   18.2103 C   0  0  2  0  0  0  0  0  0  0  0  0
   10.8676  -17.9398   17.0564 N   0  0  0  0  0  0  0  0  0  0  0  0
   10.2289  -17.5784   19.3709 C   0  0  0  0  0  0  0  0  0  0  0  0
   11.3581  -17.0905   19.6678 O   0  0  0  0  0  0  0  0  0  0  0  0
    9.0658  -17.2482   20.1040 N   0  0  0  0  0  0  0  0  0  0  0  0
    9.2317  -16.2951   21.2186 C   0  0  1  0  0  0  0  0  0  0  0  0
    7.9823  -15.4913   21.2794 C   0  0  0  0  0  0  0  0  0  0  0  0
    7.8666  -14.5341   20.1703 C   0  0  0  0  0  0  0  0  0  0  0  0
    8.8600  -14.3500   19.1922 C   0  0  0  0  0  0  0  0  0  0  0  0
    8.4702  -13.4094   18.3103 N   0  0  0  0  0  0  0  0  0  0  0  0
    7.2627  -12.9984   18.7058 C   0  0  0  0  0  0  0  0  0  0  0  0
    6.9153  -13.6706   19.8075 N   0  0  0  0  0  0  0  0  0  0  0  0
    9.5735  -17.0535   22.4417 C   0  0  0  0  0  0  0  0  0  0  0  0
    8.6993  -17.6341   23.0939 O   0  0  0  0  0  0  0  0  0  0  0  0
   11.1406  -19.9614   22.8769 C   0  0  0  0  0  0  0  0  0  0  0  0
   12.0701  -19.0962   23.7025 C   0  0  1  0  0  0  0  0  0  0  0  0
   13.1959  -18.7430   22.9858 O   0  0  0  0  0  0  0  0  0  0  0  0
   11.2553  -17.8688   24.1285 C   0  0  2  0  0  0  0  0  0  0  0  0
   10.9219  -17.1572   22.9343 N   0  0  0  0  0  0  0  0  0  0  0  0
   12.0087  -17.0387   25.0954 C   0  0  0  0  0  0  0  0  0  0  0  0
   12.2437  -17.5278   26.3585 O   0  0  0  0  0  0  0  0  0  0  0  0
   12.4264  -15.9028   24.7628 O   0  0  0  0  0  0  0  0  0  0  0  0
  2  1  1  0
  3  2  2  0
  4  2  1  0
  5  4  1  0
  6  5  1  0
  6  7  1  6
  8  6  1  0
  8  9  2  0
 10 11  1  0
 10  8  1  0
 11 12  1  1
 12 13  1  0
 13 14  2  0
 13 17  1  0
 14 15  1  0
 15 16  1  0
 17 16  2  0
 18 11  1  0
 19 18  2  0
 21 20  1  6
 22 21  1  0
 23 21  1  0
 23 24  1  6
 24 18  1  0
 25 26  1  0
 25 23  1  0
 27 25  2  0
M  END
$$$$
