QHT.pdb
     RDKit          3D

 27 27  0  0  1  0  0  0  0  0999 V2000
   12.7864  -19.5918   12.4658 N   0  0  0  0  0  0  0  0  0  0  0  0
   12.1559  -20.2380   13.5926 C   0  0  0  0  0  0  0  0  0  0  0  0
   12.3226  -21.4701   13.6801 O   0  0  0  0  0  0  0  0  0  0  0  0
   11.3999  -19.3758   14.4965 C   0  0  0  0  0  0  0  0  0  0  0  0
   12.1639  -19.0925   15.7418 C   0  0  0  0  0  0  0  0  0  0  0  0
   11.7989  -20.1078   16.7985 C   0  0  2  0  0  0  0  0  0  0  0  0
   10.3786  -20.3765   16.6267 N   0  0  0  0  0  0  0  0  0  0  0  0
   12.0591  -19.4395   18.1076 C   0  0  0  0  0  0  0  0  0  0  0  0
   13.2536  -19.0896   18.3353 O   0  0  0  0  0  0  0  0  0  0  0  0
   11.0293  -19.2066   19.0482 N   0  0  0  0  0  0  0  0  0  0  0  0
   11.4320  -18.6248   20.3434 C   0  0  1  0  0  0  0  0  0  0  0  0
   10.4152  -17.5937   20.6801 C   0  0  0  0  0  0  0  0  0  0  0  0
   10.6113  -17.0160   22.0172 C   0  0  0  0  0  0  0  0  0  0  0  0
    9.7478  -17.2501   23.1021 C   0  0  0  0  0  0  0  0  0  0  0  0
   10.1856  -16.5887   24.1908 N   0  0  0  0  0  0  0  0  0  0  0  0
   11.2970  -15.9473   23.8214 C   0  0  0  0  0  0  0  0  0  0  0  0
   11.5397  -16.2072   22.5331 N   0  0  0  0  0  0  0  0  0  0  0  0
   11.5919  -19.7207   21.3241 C   0  0  0  0  0  0  0  0  0  0  0  0
   10.8867  -20.7335   21.2650 O   0  0  0  0  0  0  0  0  0  0  0  0
   14.3052  -21.9090   24.7393 C   0  0  0  0  0  0  0  0  0  0  0  0
   14.1863  -20.9215   23.5970 C   0  0  1  0  0  0  0  0  0  0  0  0
   14.8170  -21.3889   22.4615 O   0  0  0  0  0  0  0  0  0  0  0  0
   12.6857  -20.7023   23.3681 C   0  0  2  0  0  0  0  0  0  0  0  0
   12.5621  -19.6709   22.3860 N   0  0  0  0  0  0  0  0  0  0  0  0
   11.9967  -20.3688   24.6352 C   0  0  0  0  0  0  0  0  0  0  0  0
   12.1580  -19.1153   25.1761 O   0  0  0  0  0  0  0  0  0  0  0  0
   11.2749  -21.2223   25.2061 O   0  0  0  0  0  0  0  0  0  0  0  0
  2  1  1  0
  3  2  2  0
  4  2  1  0
  5  4  1  0
  6  5  1  0
  6  7  1  1
  8  6  1  0
  8  9  2  0
 10 11  1  0
 10  8  1  0
 11 12  1  1
 12 13  1  0
 13 14  2  0
 13 17  1  0
 14 15  1  0
 15 16  1  0
 17 16  2  0
 18 11  1  0
 19 18  2  0
 21 20  1  1
 22 21  1  0
 23 21  1  0
 23 24  1  6
 24 18  1  0
 25 26  1  0
 25 23  1  0
 27 25  2  0
M  END
$$$$
