QHT.pdb
     RDKit          3D

 27 27  0  0  1  0  0  0  0  0999 V2000
   10.2159  -19.2160   16.5814 N   0  0  0  0  0  0  0  0  0  0  0  0
    8.8114  -19.5338   16.6870 C   0  0  0  0  0  0  0  0  0  0  0  0
    8.0654  -19.0023   15.8418 O   0  0  0  0  0  0  0  0  0  0  0  0
    8.4295  -20.4388   17.7673 C   0  0  0  0  0  0  0  0  0  0  0  0
    9.0674  -20.0477   19.0538 C   0  0  0  0  0  0  0  0  0  0  0  0
    8.0678  -19.3014   19.9050 C   0  0  2  0  0  0  0  0  0  0  0  0
    7.7954  -18.0534   19.2070 N   0  0  0  0  0  0  0  0  0  0  0  0
    8.7561  -19.0446   21.2044 C   0  0  0  0  0  0  0  0  0  0  0  0
    9.3075  -20.0401   21.7576 O   0  0  0  0  0  0  0  0  0  0  0  0
    8.7936  -17.7589   21.7917 N   0  0  0  0  0  0  0  0  0  0  0  0
    9.4544  -17.6484   23.1067 C   0  0  1  0  0  0  0  0  0  0  0  0
    9.8533  -16.2246   23.2632 C   0  0  0  0  0  0  0  0  0  0  0  0
   10.4157  -15.9334   24.5893 C   0  0  0  0  0  0  0  0  0  0  0  0
    9.6616  -15.4241   25.6615 C   0  0  0  0  0  0  0  0  0  0  0  0
   10.4486  -15.2613   26.7424 N   0  0  0  0  0  0  0  0  0  0  0  0
   11.6729  -15.6529   26.3805 C   0  0  0  0  0  0  0  0  0  0  0  0
   11.6419  -16.0487   25.1043 N   0  0  0  0  0  0  0  0  0  0  0  0
    8.5410  -18.1820   24.1406 C   0  0  0  0  0  0  0  0  0  0  0  0
    7.3158  -18.0762   24.0212 O   0  0  0  0  0  0  0  0  0  0  0  0
    6.8422  -20.3800   24.5310 C   0  0  0  0  0  0  0  0  0  0  0  0
    7.6012  -20.6965   25.8030 C   0  0  1  0  0  0  0  0  0  0  0  0
    8.6139  -21.6053   25.5705 O   0  0  0  0  0  0  0  0  0  0  0  0
    8.1414  -19.3609   26.3289 C   0  0  2  0  0  0  0  0  0  0  0  0
    9.0190  -18.8444   25.3257 N   0  0  0  0  0  0  0  0  0  0  0  0
    8.8112  -19.5355   27.6375 C   0  0  0  0  0  0  0  0  0  0  0  0
    8.0537  -19.8432   28.7426 O   0  0  0  0  0  0  0  0  0  0  0  0
   10.0557  -19.4036   27.7333 O   0  0  0  0  0  0  0  0  0  0  0  0
  2  1  1  0
  3  2  2  0
  4  2  1  0
  5  4  1  0
  6  5  1  0
  6  7  1  6
  8  6  1  0
  8  9  2  0
 10 11  1  0
 10  8  1  0
 11 12  1  1
 12 13  1  0
 13 14  2  0
 13 17  1  0
 14 15  1  0
 15 16  1  0
 17 16  2  0
 18 11  1  0
 19 18  2  0
 21 20  1  6
 22 21  1  0
 23 21  1  0
 23 24  1  6
 24 18  1  0
 25 26  1  0
 25 23  1  0
 27 25  2  0
M  END
$$$$
