QHT.pdb
     RDKit          3D

 27 27  0  0  1  0  0  0  0  0999 V2000
   13.2248  -19.9765   18.3037 N   0  0  0  0  0  0  0  0  0  0  0  0
   12.2263  -20.7520   17.6062 C   0  0  0  0  0  0  0  0  0  0  0  0
   12.6572  -21.6173   16.8194 O   0  0  0  0  0  0  0  0  0  0  0  0
   10.8325  -20.4345   17.9035 C   0  0  0  0  0  0  0  0  0  0  0  0
   10.7272  -19.3802   18.9486 C   0  0  0  0  0  0  0  0  0  0  0  0
   10.0403  -18.1655   18.3710 C   0  0  2  0  0  0  0  0  0  0  0  0
   10.8859  -17.7044   17.2795 N   0  0  0  0  0  0  0  0  0  0  0  0
   10.0014  -17.1609   19.4744 C   0  0  0  0  0  0  0  0  0  0  0  0
   11.1111  -16.6644   19.8253 O   0  0  0  0  0  0  0  0  0  0  0  0
    8.7913  -16.7797   20.0988 N   0  0  0  0  0  0  0  0  0  0  0  0
    8.8921  -15.8067   21.2039 C   0  0  1  0  0  0  0  0  0  0  0  0
    7.7059  -14.9169   21.0957 C   0  0  0  0  0  0  0  0  0  0  0  0
    7.6767  -14.1575   19.8378 C   0  0  0  0  0  0  0  0  0  0  0  0
    8.2235  -12.8703   19.6911 C   0  0  0  0  0  0  0  0  0  0  0  0
    8.0448  -12.4344   18.4291 N   0  0  0  0  0  0  0  0  0  0  0  0
    7.4026  -13.4092   17.7805 C   0  0  0  0  0  0  0  0  0  0  0  0
    7.1898  -14.4241   18.6236 N   0  0  0  0  0  0  0  0  0  0  0  0
    9.0302  -16.5493   22.4758 C   0  0  0  0  0  0  0  0  0  0  0  0
    8.0979  -17.2283   22.9191 O   0  0  0  0  0  0  0  0  0  0  0  0
   11.5641  -19.2542   25.3526 C   0  0  0  0  0  0  0  0  0  0  0  0
   11.3363  -18.4716   24.0759 C   0  0  1  0  0  0  0  0  0  0  0  0
   10.7948  -19.2694   23.0879 O   0  0  0  0  0  0  0  0  0  0  0  0
   10.4089  -17.3062   24.4417 C   0  0  2  0  0  0  0  0  0  0  0  0
   10.2386  -16.5240   23.2573 N   0  0  0  0  0  0  0  0  0  0  0  0
   10.9595  -16.5210   25.5694 C   0  0  0  0  0  0  0  0  0  0  0  0
   11.8035  -15.4687   25.3046 O   0  0  0  0  0  0  0  0  0  0  0  0
   10.6574  -16.8151   26.7516 O   0  0  0  0  0  0  0  0  0  0  0  0
  2  1  1  0
  3  2  2  0
  4  2  1  0
  5  4  1  0
  6  5  1  0
  6  7  1  6
  8  6  1  0
  8  9  2  0
 10 11  1  0
 10  8  1  0
 11 12  1  1
 12 13  1  0
 13 14  2  0
 13 17  1  0
 14 15  1  0
 15 16  1  0
 17 16  2  0
 18 11  1  0
 19 18  2  0
 21 20  1  1
 22 21  1  0
 23 21  1  0
 23 24  1  6
 24 18  1  0
 25 26  1  0
 25 23  1  0
 27 25  2  0
M  END
$$$$
