QHT.pdb
     RDKit          3D

 27 27  0  0  1  0  0  0  0  0999 V2000
   11.8165  -20.3901   17.2452 N   0  0  0  0  0  0  0  0  0  0  0  0
   10.9839  -20.1626   16.0877 C   0  0  0  0  0  0  0  0  0  0  0  0
    9.8630  -20.7074   16.1046 O   0  0  0  0  0  0  0  0  0  0  0  0
   11.5492  -19.3223   15.0359 C   0  0  0  0  0  0  0  0  0  0  0  0
   11.9422  -17.9864   15.5610 C   0  0  0  0  0  0  0  0  0  0  0  0
   10.7047  -17.1521   15.7920 C   0  0  2  0  0  0  0  0  0  0  0  0
   10.4814  -16.4113   14.5590 N   0  0  0  0  0  0  0  0  0  0  0  0
   11.0445  -16.2277   16.9137 C   0  0  0  0  0  0  0  0  0  0  0  0
   11.9481  -15.3717   16.6858 O   0  0  0  0  0  0  0  0  0  0  0  0
   10.3945  -16.2995   18.1674 N   0  0  0  0  0  0  0  0  0  0  0  0
   10.8476  -15.3534   19.2055 C   0  0  1  0  0  0  0  0  0  0  0  0
    9.6806  -15.1056   20.0927 C   0  0  0  0  0  0  0  0  0  0  0  0
    8.6062  -14.3578   19.4246 C   0  0  0  0  0  0  0  0  0  0  0  0
    7.3257  -14.8845   19.1788 C   0  0  0  0  0  0  0  0  0  0  0  0
    6.5619  -13.9674   18.5543 N   0  0  0  0  0  0  0  0  0  0  0  0
    7.3246  -12.8820   18.4012 C   0  0  0  0  0  0  0  0  0  0  0  0
    8.5324  -13.1241   18.9198 N   0  0  0  0  0  0  0  0  0  0  0  0
   12.0512  -15.9113   19.8600 C   0  0  0  0  0  0  0  0  0  0  0  0
   12.1865  -17.1306   20.0069 O   0  0  0  0  0  0  0  0  0  0  0  0
   16.6542  -15.1606   21.3958 C   0  0  0  0  0  0  0  0  0  0  0  0
   15.4079  -14.5778   20.7622 C   0  0  1  0  0  0  0  0  0  0  0  0
   15.6103  -14.2917   19.4270 O   0  0  0  0  0  0  0  0  0  0  0  0
   14.2950  -15.6140   20.9623 C   0  0  2  0  0  0  0  0  0  0  0  0
   13.1164  -15.0795   20.3550 N   0  0  0  0  0  0  0  0  0  0  0  0
   14.1069  -15.9231   22.3977 C   0  0  0  0  0  0  0  0  0  0  0  0
   12.9801  -15.4671   23.0396 O   0  0  0  0  0  0  0  0  0  0  0  0
   14.9677  -16.5936   23.0182 O   0  0  0  0  0  0  0  0  0  0  0  0
  2  1  1  0
  3  2  2  0
  4  2  1  0
  5  4  1  0
  6  5  1  0
  6  7  1  6
  8  6  1  0
  8  9  2  0
 10 11  1  0
 10  8  1  0
 11 12  1  1
 12 13  1  0
 13 14  2  0
 13 17  1  0
 14 15  1  0
 15 16  1  0
 17 16  2  0
 18 11  1  0
 19 18  2  0
 21 20  1  6
 22 21  1  0
 23 21  1  0
 23 24  1  1
 24 18  1  0
 25 26  1  0
 25 23  1  0
 27 25  2  0
M  END
$$$$
