QHT.pdb
     RDKit          3D

 27 27  0  0  1  0  0  0  0  0999 V2000
   16.7398  -21.3170   12.6340 N   0  0  0  0  0  0  0  0  0  0  0  0
   15.6067  -21.2072   11.7459 C   0  0  0  0  0  0  0  0  0  0  0  0
   15.7602  -21.6787   10.6024 O   0  0  0  0  0  0  0  0  0  0  0  0
   14.4160  -20.5598   12.2890 C   0  0  0  0  0  0  0  0  0  0  0  0
   14.6000  -20.1991   13.7212 C   0  0  0  0  0  0  0  0  0  0  0  0
   13.3379  -19.5556   14.2445 C   0  0  2  0  0  0  0  0  0  0  0  0
   13.1229  -18.3681   13.4305 N   0  0  0  0  0  0  0  0  0  0  0  0
   13.6314  -19.1839   15.6601 C   0  0  0  0  0  0  0  0  0  0  0  0
   13.9981  -17.9905   15.8661 O   0  0  0  0  0  0  0  0  0  0  0  0
   13.5080  -20.1119   16.7198 N   0  0  0  0  0  0  0  0  0  0  0  0
   13.7901  -19.6096   18.0786 C   0  0  1  0  0  0  0  0  0  0  0  0
   12.6926  -20.1050   18.9508 C   0  0  0  0  0  0  0  0  0  0  0  0
   12.8689  -19.7246   20.3593 C   0  0  0  0  0  0  0  0  0  0  0  0
   13.9472  -18.9543   20.8300 C   0  0  0  0  0  0  0  0  0  0  0  0
   13.8365  -18.7700   22.1597 N   0  0  0  0  0  0  0  0  0  0  0  0
   12.7218  -19.4013   22.5368 C   0  0  0  0  0  0  0  0  0  0  0  0
   12.1572  -19.9628   21.4634 N   0  0  0  0  0  0  0  0  0  0  0  0
   15.1577  -20.0241   18.4609 C   0  0  0  0  0  0  0  0  0  0  0  0
   15.5456  -21.1822   18.2742 O   0  0  0  0  0  0  0  0  0  0  0  0
   18.2515  -18.4162   17.3835 C   0  0  0  0  0  0  0  0  0  0  0  0
   18.3640  -18.4012   18.8939 C   0  0  1  0  0  0  0  0  0  0  0  0
   18.0321  -17.1645   19.4098 O   0  0  0  0  0  0  0  0  0  0  0  0
   17.4313  -19.5043   19.4089 C   0  0  2  0  0  0  0  0  0  0  0  0
   16.0996  -19.1170   19.0622 N   0  0  0  0  0  0  0  0  0  0  0  0
   17.6042  -19.7115   20.8645 C   0  0  0  0  0  0  0  0  0  0  0  0
   18.7029  -20.4024   21.3174 O   0  0  0  0  0  0  0  0  0  0  0  0
   16.7561  -19.2606   21.6725 O   0  0  0  0  0  0  0  0  0  0  0  0
  2  1  1  0
  3  2  2  0
  4  2  1  0
  5  4  1  0
  6  5  1  0
  6  7  1  6
  8  6  1  0
  8  9  2  0
 10 11  1  0
 10  8  1  0
 11 12  1  1
 12 13  1  0
 13 14  2  0
 13 17  1  0
 14 15  1  0
 15 16  1  0
 17 16  2  0
 18 11  1  0
 19 18  2  0
 21 20  1  6
 22 21  1  0
 23 21  1  0
 23 24  1  1
 24 18  1  0
 25 26  1  0
 25 23  1  0
 27 25  2  0
M  END
$$$$
