QHT.pdb
     RDKit          3D

 27 27  0  0  1  0  0  0  0  0999 V2000
    8.5641  -16.0775   15.4135 N   0  0  0  0  0  0  0  0  0  0  0  0
    9.0250  -16.7349   16.6136 C   0  0  0  0  0  0  0  0  0  0  0  0
   10.2127  -17.1126   16.6087 O   0  0  0  0  0  0  0  0  0  0  0  0
    8.0497  -16.8793   17.6906 C   0  0  0  0  0  0  0  0  0  0  0  0
    8.5327  -16.2470   18.9484 C   0  0  0  0  0  0  0  0  0  0  0  0
    8.4654  -17.2508   20.0747 C   0  0  2  0  0  0  0  0  0  0  0  0
    7.1425  -17.8536   19.9997 N   0  0  0  0  0  0  0  0  0  0  0  0
    8.6186  -16.4591   21.3308 C   0  0  0  0  0  0  0  0  0  0  0  0
    9.7444  -15.9136   21.5205 O   0  0  0  0  0  0  0  0  0  0  0  0
    7.5649  -16.3221   22.2638 N   0  0  0  0  0  0  0  0  0  0  0  0
    7.8848  -15.6360   23.5307 C   0  0  1  0  0  0  0  0  0  0  0  0
    6.6594  -14.8971   23.9346 C   0  0  0  0  0  0  0  0  0  0  0  0
    6.8649  -14.0620   25.1263 C   0  0  0  0  0  0  0  0  0  0  0  0
    8.0726  -14.0123   25.8449 C   0  0  0  0  0  0  0  0  0  0  0  0
    7.9569  -13.1615   26.8828 N   0  0  0  0  0  0  0  0  0  0  0  0
    6.7136  -12.6766   26.8366 C   0  0  0  0  0  0  0  0  0  0  0  0
    6.0762  -13.2162   25.7932 N   0  0  0  0  0  0  0  0  0  0  0  0
    8.3845  -16.6380   24.4974 C   0  0  0  0  0  0  0  0  0  0  0  0
    7.6920  -17.6090   24.8204 O   0  0  0  0  0  0  0  0  0  0  0  0
   11.1205  -18.7393   24.2580 C   0  0  0  0  0  0  0  0  0  0  0  0
   11.4548  -18.0639   25.5718 C   0  0  1  0  0  0  0  0  0  0  0  0
   12.4308  -17.1016   25.4076 O   0  0  0  0  0  0  0  0  0  0  0  0
   10.1442  -17.4648   26.0968 C   0  0  2  0  0  0  0  0  0  0  0  0
    9.6845  -16.5411   25.1073 N   0  0  0  0  0  0  0  0  0  0  0  0
   10.3404  -16.8318   27.4205 C   0  0  0  0  0  0  0  0  0  0  0  0
   10.5748  -17.6281   28.5163 O   0  0  0  0  0  0  0  0  0  0  0  0
   10.2929  -15.5830   27.5374 O   0  0  0  0  0  0  0  0  0  0  0  0
  2  1  1  0
  3  2  2  0
  4  2  1  0
  5  4  1  0
  6  5  1  0
  6  7  1  1
  8  6  1  0
  8  9  2  0
 10 11  1  0
 10  8  1  0
 11 12  1  1
 12 13  1  0
 13 14  2  0
 13 17  1  0
 14 15  1  0
 15 16  1  0
 17 16  2  0
 18 11  1  0
 19 18  2  0
 21 20  1  6
 22 21  1  0
 23 21  1  0
 23 24  1  6
 24 18  1  0
 25 26  1  0
 25 23  1  0
 27 25  2  0
M  END
$$$$
