TPM.pdb
     RDKit          3D

 23 23  0  0  1  0  0  0  0  0999 V2000
   27.2516  -15.3865  -16.0298 C   0  0  0  0  0  0  0  0  0  0  0  0
   26.8346  -16.3268  -14.9615 C   0  0  1  0  0  0  0  0  0  0  0  0
   25.9569  -15.6631  -14.0703 O   0  0  0  0  0  0  0  0  0  0  0  0
   26.0719  -17.5490  -15.4267 C   0  0  2  0  0  0  0  0  0  0  0  0
   24.8550  -16.9798  -16.0371 N   0  0  0  0  0  0  0  0  0  0  0  0
   25.7205  -18.4858  -14.3508 C   0  0  0  0  0  0  0  0  0  0  0  0
   24.6543  -18.1909  -13.6950 O   0  0  0  0  0  0  0  0  0  0  0  0
   26.4300  -19.6473  -13.9881 N   0  0  0  0  0  0  0  0  0  0  0  0
   27.5553  -20.2112  -14.6791 C   0  0  0  0  0  0  0  0  0  0  0  0
   27.1936  -21.7034  -14.6470 C   0  0  0  0  0  0  0  0  0  0  0  0
   26.8537  -21.8360  -13.1555 C   0  0  0  0  0  0  0  0  0  0  0  0
   26.1556  -20.5131  -12.8679 C   0  0  1  0  0  0  0  0  0  0  0  0
   26.6676  -19.8912  -11.6176 C   0  0  0  0  0  0  0  0  0  0  0  0
   27.7751  -19.2665  -11.5682 O   0  0  0  0  0  0  0  0  0  0  0  0
   28.4553  -18.6856   -4.4283 C   0  0  0  0  0  0  0  0  0  0  0  0
   27.7038  -18.1365   -5.9832 S   0  0  0  0  0  0  0  0  0  0  0  0
   27.3249  -19.6274   -6.9618 C   0  0  0  0  0  0  0  0  0  0  0  0
   26.7930  -19.2732   -8.3009 C   0  0  0  0  0  0  0  0  0  0  0  0
   26.5602  -20.4848   -9.1665 C   0  0  2  0  0  0  0  0  0  0  0  0
   25.9539  -19.9522  -10.3911 N   0  0  0  0  0  0  0  0  0  0  0  0
   25.6692  -21.4205   -8.4892 C   0  0  0  0  0  0  0  0  0  0  0  0
   24.4785  -21.5334   -8.8475 O   0  0  0  0  0  0  0  0  0  0  0  0
   26.0948  -22.2197   -7.4285 O   0  0  0  0  0  0  0  0  0  0  0  0
  2  1  1  6
  2  3  1  0
  4  2  1  0
  4  6  1  0
  4  5  1  1
  6  7  2  0
  8  6  1  0
  8 12  1  0
  9 10  1  0
  9  8  1  0
 10 11  1  0
 11 12  1  0
 12 13  1  1
 13 20  1  0
 14 13  2  0
 16 15  1  0
 17 16  1  0
 18 17  1  0
 19 20  1  0
 19 18  1  1
 21 19  1  0
 22 21  2  0
 23 21  1  0
M  END
$$$$
