TPM.pdb
     RDKit          3D

 23 23  0  0  1  0  0  0  0  0999 V2000
   13.4649   -9.8927  -14.2170 C   0  0  0  0  0  0  0  0  0  0  0  0
   13.8544  -11.3217  -14.1440 C   0  0  1  0  0  0  0  0  0  0  0  0
   13.3671  -11.9986  -15.2884 O   0  0  0  0  0  0  0  0  0  0  0  0
   15.3435  -11.5942  -14.1307 C   0  0  2  0  0  0  0  0  0  0  0  0
   15.4203  -13.0661  -14.0613 N   0  0  0  0  0  0  0  0  0  0  0  0
   16.0574  -10.9858  -12.9998 C   0  0  0  0  0  0  0  0  0  0  0  0
   15.8259  -11.5221  -11.8542 O   0  0  0  0  0  0  0  0  0  0  0  0
   16.9500   -9.8979  -13.0619 N   0  0  0  0  0  0  0  0  0  0  0  0
   17.4811   -9.2959  -14.2524 C   0  0  0  0  0  0  0  0  0  0  0  0
   18.9515   -9.1114  -13.8494 C   0  0  0  0  0  0  0  0  0  0  0  0
   18.7437   -8.4457  -12.4814 C   0  0  0  0  0  0  0  0  0  0  0  0
   17.5258   -9.1878  -11.9465 C   0  0  1  0  0  0  0  0  0  0  0  0
   16.5228   -8.2460  -11.3813 C   0  0  0  0  0  0  0  0  0  0  0  0
   15.6711   -7.6382  -12.1056 O   0  0  0  0  0  0  0  0  0  0  0  0
   10.7152   -7.1123   -6.9073 C   0  0  0  0  0  0  0  0  0  0  0  0
   12.1804   -8.1126   -7.2772 S   0  0  0  0  0  0  0  0  0  0  0  0
   13.3402   -7.0572   -8.2072 C   0  0  0  0  0  0  0  0  0  0  0  0
   14.5589   -7.8081   -8.5973 C   0  0  0  0  0  0  0  0  0  0  0  0
   15.4915   -6.9880   -9.4512 C   0  0  2  0  0  0  0  0  0  0  0  0
   16.4471   -7.9601   -9.9922 N   0  0  0  0  0  0  0  0  0  0  0  0
   16.1569   -5.9767   -8.6371 C   0  0  0  0  0  0  0  0  0  0  0  0
   17.2731   -6.2076   -8.1276 O   0  0  0  0  0  0  0  0  0  0  0  0
   15.5903   -4.7261   -8.3923 O   0  0  0  0  0  0  0  0  0  0  0  0
  2  1  1  6
  2  3  1  0
  4  2  1  0
  4  6  1  0
  4  5  1  1
  6  7  2  0
  8  6  1  0
  8 12  1  0
  9 10  1  0
  9  8  1  0
 10 11  1  0
 11 12  1  0
 12 13  1  6
 13 20  1  0
 14 13  2  0
 16 15  1  0
 17 16  1  0
 18 17  1  0
 19 20  1  0
 19 18  1  1
 21 19  1  0
 22 21  2  0
 23 21  1  0
M  END
$$$$
