TPM.pdb
     RDKit          3D

 23 23  0  0  1  0  0  0  0  0999 V2000
   26.7310  -15.2379  -16.5095 C   0  0  0  0  0  0  0  0  0  0  0  0
   26.2884  -16.3243  -15.6023 C   0  0  1  0  0  0  0  0  0  0  0  0
   24.9944  -16.0257  -15.1110 O   0  0  0  0  0  0  0  0  0  0  0  0
   26.1622  -17.6941  -16.2347 C   0  0  2  0  0  0  0  0  0  0  0  0
   25.0325  -17.5348  -17.1705 N   0  0  0  0  0  0  0  0  0  0  0  0
   25.8925  -18.7767  -15.2788 C   0  0  0  0  0  0  0  0  0  0  0  0
   24.6506  -19.0718  -15.1224 O   0  0  0  0  0  0  0  0  0  0  0  0
   26.8506  -19.4998  -14.5418 N   0  0  0  0  0  0  0  0  0  0  0  0
   28.2746  -19.3207  -14.5852 C   0  0  0  0  0  0  0  0  0  0  0  0
   28.7470  -20.7816  -14.6137 C   0  0  0  0  0  0  0  0  0  0  0  0
   27.9115  -21.3270  -13.4467 C   0  0  0  0  0  0  0  0  0  0  0  0
   26.5967  -20.5768  -13.6169 C   0  0  1  0  0  0  0  0  0  0  0  0
   26.1180  -20.0224  -12.3224 C   0  0  0  0  0  0  0  0  0  0  0  0
   26.5444  -18.9199  -11.8511 O   0  0  0  0  0  0  0  0  0  0  0  0
   20.1338  -19.8622   -9.8139 C   0  0  0  0  0  0  0  0  0  0  0  0
   21.0637  -20.7090   -8.5091 S   0  0  0  0  0  0  0  0  0  0  0  0
   22.8120  -20.2218   -8.6819 C   0  0  0  0  0  0  0  0  0  0  0  0
   23.3521  -20.6110  -10.0080 C   0  0  0  0  0  0  0  0  0  0  0  0
   24.7953  -20.2125  -10.1809 C   0  0  2  0  0  0  0  0  0  0  0  0
   25.1506  -20.6867  -11.5225 N   0  0  0  0  0  0  0  0  0  0  0  0
   25.6158  -20.8439   -9.1532 C   0  0  0  0  0  0  0  0  0  0  0  0
   25.9890  -22.0286   -9.2802 O   0  0  0  0  0  0  0  0  0  0  0  0
   26.0164  -20.1688   -8.0006 O   0  0  0  0  0  0  0  0  0  0  0  0
  2  1  1  6
  2  3  1  0
  4  2  1  0
  4  6  1  0
  4  5  1  6
  6  7  2  0
  8  6  1  0
  8 12  1  0
  9 10  1  0
  9  8  1  0
 10 11  1  0
 11 12  1  0
 12 13  1  1
 13 20  1  0
 14 13  2  0
 16 15  1  0
 17 16  1  0
 18 17  1  0
 19 20  1  0
 19 18  1  1
 21 19  1  0
 22 21  2  0
 23 21  1  0
M  END
$$$$
