TPM.pdb
     RDKit          3D

 23 23  0  0  1  0  0  0  0  0999 V2000
   22.7686  -19.0376  -14.2544 C   0  0  0  0  0  0  0  0  0  0  0  0
   23.4967  -19.4475  -13.0293 C   0  0  1  0  0  0  0  0  0  0  0  0
   22.6605  -19.2579  -11.9024 O   0  0  0  0  0  0  0  0  0  0  0  0
   23.9113  -20.9024  -12.9705 C   0  0  2  0  0  0  0  0  0  0  0  0
   22.6242  -21.6240  -12.9675 N   0  0  0  0  0  0  0  0  0  0  0  0
   24.7044  -21.2557  -11.7852 C   0  0  0  0  0  0  0  0  0  0  0  0
   24.0379  -21.7751  -10.8158 O   0  0  0  0  0  0  0  0  0  0  0  0
   26.0929  -21.0812  -11.6255 N   0  0  0  0  0  0  0  0  0  0  0  0
   26.9832  -20.4303  -12.5450 C   0  0  0  0  0  0  0  0  0  0  0  0
   28.1745  -21.3992  -12.5259 C   0  0  0  0  0  0  0  0  0  0  0  0
   28.3443  -21.5410  -11.0065 C   0  0  0  0  0  0  0  0  0  0  0  0
   26.9002  -21.5398  -10.5219 C   0  0  1  0  0  0  0  0  0  0  0  0
   26.7201  -20.6309   -9.3585 C   0  0  0  0  0  0  0  0  0  0  0  0
   26.5297  -19.3796   -9.4911 O   0  0  0  0  0  0  0  0  0  0  0  0
   27.6464  -19.0354   -2.1329 C   0  0  0  0  0  0  0  0  0  0  0  0
   26.8795  -20.1888   -3.3015 S   0  0  0  0  0  0  0  0  0  0  0  0
   28.0968  -20.5215   -4.6174 C   0  0  0  0  0  0  0  0  0  0  0  0
   27.4653  -21.1946   -5.7791 C   0  0  0  0  0  0  0  0  0  0  0  0
   27.1658  -20.2385   -6.9051 C   0  0  2  0  0  0  0  0  0  0  0  0
   26.7483  -21.0982   -8.0175 N   0  0  0  0  0  0  0  0  0  0  0  0
   28.3592  -19.4690   -7.2395 C   0  0  0  0  0  0  0  0  0  0  0  0
   29.2517  -19.9650   -7.9580 O   0  0  0  0  0  0  0  0  0  0  0  0
   28.5584  -18.1667   -6.7822 O   0  0  0  0  0  0  0  0  0  0  0  0
  2  1  1  6
  2  3  1  0
  4  2  1  0
  4  6  1  0
  4  5  1  1
  6  7  2  0
  8  6  1  0
  8 12  1  0
  9 10  1  0
  9  8  1  0
 10 11  1  0
 11 12  1  0
 12 13  1  1
 13 20  1  0
 14 13  2  0
 16 15  1  0
 17 16  1  0
 18 17  1  0
 19 20  1  0
 19 18  1  1
 21 19  1  0
 22 21  2  0
 23 21  1  0
M  END
$$$$
