TPM.pdb
     RDKit          3D

 23 23  0  0  1  0  0  0  0  0999 V2000
   23.7824  -19.4131  -11.8982 C   0  0  0  0  0  0  0  0  0  0  0  0
   23.5512  -20.7971  -12.3780 C   0  0  1  0  0  0  0  0  0  0  0  0
   22.7068  -20.7636  -13.5142 O   0  0  0  0  0  0  0  0  0  0  0  0
   24.7860  -21.5485  -12.8280 C   0  0  2  0  0  0  0  0  0  0  0  0
   24.2467  -22.8371  -13.3035 N   0  0  0  0  0  0  0  0  0  0  0  0
   25.7801  -21.7642  -11.7679 C   0  0  0  0  0  0  0  0  0  0  0  0
   25.4957  -22.7003  -10.9332 O   0  0  0  0  0  0  0  0  0  0  0  0
   26.9846  -21.0551  -11.5939 N   0  0  0  0  0  0  0  0  0  0  0  0
   27.4855  -20.0037  -12.4338 C   0  0  0  0  0  0  0  0  0  0  0  0
   28.9667  -20.3967  -12.5334 C   0  0  0  0  0  0  0  0  0  0  0  0
   29.2576  -20.6167  -11.0419 C   0  0  0  0  0  0  0  0  0  0  0  0
   27.9643  -21.2575  -10.5551 C   0  0  1  0  0  0  0  0  0  0  0  0
   27.4912  -20.6305   -9.2921 C   0  0  0  0  0  0  0  0  0  0  0  0
   26.6520  -19.6741   -9.2758 O   0  0  0  0  0  0  0  0  0  0  0  0
   29.6167  -19.6672   -1.9437 C   0  0  0  0  0  0  0  0  0  0  0  0
   29.3265  -21.0047   -3.1316 S   0  0  0  0  0  0  0  0  0  0  0  0
   28.1461  -20.3833   -4.3744 C   0  0  0  0  0  0  0  0  0  0  0  0
   28.4150  -20.9654   -5.7124 C   0  0  0  0  0  0  0  0  0  0  0  0
   27.5144  -20.3968   -6.7788 C   0  0  2  0  0  0  0  0  0  0  0  0
   27.9446  -21.0573   -8.0155 N   0  0  0  0  0  0  0  0  0  0  0  0
   27.6817  -18.9497   -6.8565 C   0  0  0  0  0  0  0  0  0  0  0  0
   28.6084  -18.4547   -7.5311 O   0  0  0  0  0  0  0  0  0  0  0  0
   26.8316  -18.0647   -6.1940 O   0  0  0  0  0  0  0  0  0  0  0  0
  2  1  1  6
  2  3  1  0
  4  2  1  0
  4  6  1  0
  4  5  1  1
  6  7  2  0
  8  6  1  0
  8 12  1  0
  9 10  1  0
  9  8  1  0
 10 11  1  0
 11 12  1  0
 12 13  1  1
 13 20  1  0
 14 13  2  0
 16 15  1  0
 17 16  1  0
 18 17  1  0
 19 20  1  0
 19 18  1  1
 21 19  1  0
 22 21  2  0
 23 21  1  0
M  END
$$$$
