TPM.pdb
     RDKit          3D

 23 23  0  0  1  0  0  0  0  0999 V2000
   16.1642  -10.6836  -19.4763 C   0  0  0  0  0  0  0  0  0  0  0  0
   17.2425   -9.8032  -18.9651 C   0  0  1  0  0  0  0  0  0  0  0  0
   17.8475  -10.4103  -17.8379 O   0  0  0  0  0  0  0  0  0  0  0  0
   18.3813   -9.5374  -19.9268 C   0  0  2  0  0  0  0  0  0  0  0  0
   18.8687  -10.8897  -20.2602 N   0  0  0  0  0  0  0  0  0  0  0  0
   19.4662   -8.7211  -19.3653 C   0  0  0  0  0  0  0  0  0  0  0  0
   20.4929   -9.3803  -18.9588 O   0  0  0  0  0  0  0  0  0  0  0  0
   19.4784   -7.3182  -19.2399 N   0  0  0  0  0  0  0  0  0  0  0  0
   18.4333   -6.4164  -19.6350 C   0  0  0  0  0  0  0  0  0  0  0  0
   19.2524   -5.3030  -20.3041 C   0  0  0  0  0  0  0  0  0  0  0  0
   20.3047   -5.0867  -19.2071 C   0  0  0  0  0  0  0  0  0  0  0  0
   20.5482   -6.5070  -18.7133 C   0  0  1  0  0  0  0  0  0  0  0  0
   20.5410   -6.5725  -17.2274 C   0  0  0  0  0  0  0  0  0  0  0  0
   19.4961   -6.8605  -16.5606 O   0  0  0  0  0  0  0  0  0  0  0  0
   21.8183   -9.2765  -10.9396 C   0  0  0  0  0  0  0  0  0  0  0  0
   21.6358   -9.0771  -12.7316 S   0  0  0  0  0  0  0  0  0  0  0  0
   22.8569   -7.8344  -13.2688 C   0  0  0  0  0  0  0  0  0  0  0  0
   22.7228   -7.5367  -14.7162 C   0  0  0  0  0  0  0  0  0  0  0  0
   21.7046   -6.4598  -14.9902 C   0  0  2  0  0  0  0  0  0  0  0  0
   21.7019   -6.3176  -16.4499 N   0  0  0  0  0  0  0  0  0  0  0  0
   22.0976   -5.2195  -14.3304 C   0  0  0  0  0  0  0  0  0  0  0  0
   22.7024   -4.3295  -14.9636 O   0  0  0  0  0  0  0  0  0  0  0  0
   21.8226   -4.9711  -12.9860 O   0  0  0  0  0  0  0  0  0  0  0  0
  2  1  1  6
  2  3  1  0
  4  2  1  0
  4  6  1  0
  4  5  1  1
  6  7  2  0
  8  6  1  0
  8 12  1  0
  9 10  1  0
  9  8  1  0
 10 11  1  0
 11 12  1  0
 12 13  1  1
 13 20  1  0
 14 13  2  0
 16 15  1  0
 17 16  1  0
 18 17  1  0
 19 20  1  0
 19 18  1  6
 21 19  1  0
 22 21  2  0
 23 21  1  0
M  END
$$$$
