TPM.pdb
     RDKit          3D

 23 23  0  0  1  0  0  0  0  0999 V2000
   19.6479   -8.9426  -17.1819 C   0  0  0  0  0  0  0  0  0  0  0  0
   20.8013   -9.8072  -16.8338 C   0  0  1  0  0  0  0  0  0  0  0  0
   21.4616  -10.2070  -18.0209 O   0  0  0  0  0  0  0  0  0  0  0  0
   21.8747   -9.1567  -15.9871 C   0  0  2  0  0  0  0  0  0  0  0  0
   22.8785  -10.2265  -15.8281 N   0  0  0  0  0  0  0  0  0  0  0  0
   21.4064   -8.6885  -14.6756 C   0  0  0  0  0  0  0  0  0  0  0  0
   21.1332   -9.6169  -13.8287 O   0  0  0  0  0  0  0  0  0  0  0  0
   21.2384   -7.3480  -14.2772 N   0  0  0  0  0  0  0  0  0  0  0  0
   21.4503   -6.1828  -15.0891 C   0  0  0  0  0  0  0  0  0  0  0  0
   22.1930   -5.2739  -14.0988 C   0  0  0  0  0  0  0  0  0  0  0  0
   21.2512   -5.4116  -12.8939 C   0  0  0  0  0  0  0  0  0  0  0  0
   20.8440   -6.8772  -12.9723 C   0  0  1  0  0  0  0  0  0  0  0  0
   19.3752   -7.0410  -12.8041 C   0  0  0  0  0  0  0  0  0  0  0  0
   18.5522   -6.8487  -13.7554 O   0  0  0  0  0  0  0  0  0  0  0  0
   13.6198  -11.2165  -10.0696 C   0  0  0  0  0  0  0  0  0  0  0  0
   15.4077  -10.9495  -10.1977 S   0  0  0  0  0  0  0  0  0  0  0  0
   15.6665   -9.2051  -10.6600 C   0  0  0  0  0  0  0  0  0  0  0  0
   17.1054   -8.9103  -10.8702 C   0  0  0  0  0  0  0  0  0  0  0  0
   17.3367   -7.5158  -11.3932 C   0  0  2  0  0  0  0  0  0  0  0  0
   18.7899   -7.4238  -11.5679 N   0  0  0  0  0  0  0  0  0  0  0  0
   16.8480   -6.5331  -10.4322 C   0  0  0  0  0  0  0  0  0  0  0  0
   15.6972   -6.0607  -10.5392 O   0  0  0  0  0  0  0  0  0  0  0  0
   17.6267   -6.0812   -9.3672 O   0  0  0  0  0  0  0  0  0  0  0  0
  2  1  1  6
  2  3  1  0
  4  2  1  0
  4  6  1  0
  4  5  1  1
  6  7  2  0
  8  6  1  0
  8 12  1  0
  9 10  1  0
  9  8  1  0
 10 11  1  0
 11 12  1  0
 12 13  1  6
 13 20  1  0
 14 13  2  0
 16 15  1  0
 17 16  1  0
 18 17  1  0
 19 20  1  0
 19 18  1  1
 21 19  1  0
 22 21  2  0
 23 21  1  0
M  END
$$$$
