TPM.pdb
     RDKit          3D

 23 23  0  0  1  0  0  0  0  0999 V2000
   17.0577  -11.1616  -11.6331 C   0  0  0  0  0  0  0  0  0  0  0  0
   15.7054  -10.9281  -12.1953 C   0  0  1  0  0  0  0  0  0  0  0  0
   14.8895  -12.0559  -11.9358 O   0  0  0  0  0  0  0  0  0  0  0  0
   14.9486   -9.7533  -11.6129 C   0  0  2  0  0  0  0  0  0  0  0  0
   13.7115   -9.7126  -12.4161 N   0  0  0  0  0  0  0  0  0  0  0  0
   15.6636   -8.4727  -11.7002 C   0  0  0  0  0  0  0  0  0  0  0  0
   15.7644   -7.9819  -12.8846 O   0  0  0  0  0  0  0  0  0  0  0  0
   16.2299   -7.7561  -10.6279 N   0  0  0  0  0  0  0  0  0  0  0  0
   16.1396   -8.0912   -9.2346 C   0  0  0  0  0  0  0  0  0  0  0  0
   15.8632   -6.7094   -8.6243 C   0  0  0  0  0  0  0  0  0  0  0  0
   16.9754   -5.9123   -9.3210 C   0  0  0  0  0  0  0  0  0  0  0  0
   16.9912   -6.5341  -10.7114 C   0  0  1  0  0  0  0  0  0  0  0  0
   18.3786   -6.8381  -11.1530 C   0  0  0  0  0  0  0  0  0  0  0  0
   19.0239   -7.8510  -10.7320 O   0  0  0  0  0  0  0  0  0  0  0  0
   23.5130   -9.5887  -13.4769 C   0  0  0  0  0  0  0  0  0  0  0  0
   21.8617   -9.3500  -14.1844 S   0  0  0  0  0  0  0  0  0  0  0  0
   21.5876   -7.5538  -14.3348 C   0  0  0  0  0  0  0  0  0  0  0  0
   20.2861   -7.1553  -13.7443 C   0  0  0  0  0  0  0  0  0  0  0  0
   20.4501   -6.3213  -12.4997 C   0  0  2  0  0  0  0  0  0  0  0  0
   19.0793   -6.0172  -12.0763 N   0  0  0  0  0  0  0  0  0  0  0  0
   21.1996   -5.1077  -12.8052 C   0  0  0  0  0  0  0  0  0  0  0  0
   22.4444   -5.1384  -12.8970 O   0  0  0  0  0  0  0  0  0  0  0  0
   20.5752   -3.8770  -13.0060 O   0  0  0  0  0  0  0  0  0  0  0  0
  2  1  1  1
  2  3  1  0
  4  2  1  0
  4  6  1  0
  4  5  1  6
  6  7  2  0
  8  6  1  0
  8 12  1  0
  9 10  1  0
  9  8  1  0
 10 11  1  0
 11 12  1  0
 12 13  1  1
 13 20  1  0
 14 13  2  0
 16 15  1  0
 17 16  1  0
 18 17  1  0
 19 20  1  0
 19 18  1  6
 21 19  1  0
 22 21  2  0
 23 21  1  0
M  END
$$$$
