TPM.pdb
     RDKit          3D

 23 23  0  0  1  0  0  0  0  0999 V2000
   24.9761  -23.1679  -16.7164 C   0  0  0  0  0  0  0  0  0  0  0  0
   26.3452  -23.6404  -17.0350 C   0  0  1  0  0  0  0  0  0  0  0  0
   26.3607  -24.1824  -18.3431 O   0  0  0  0  0  0  0  0  0  0  0  0
   27.4208  -22.5751  -17.0383 C   0  0  2  0  0  0  0  0  0  0  0  0
   28.6417  -23.3242  -17.3928 N   0  0  0  0  0  0  0  0  0  0  0  0
   27.5921  -21.8876  -15.7512 C   0  0  0  0  0  0  0  0  0  0  0  0
   28.2974  -22.5208  -14.8821 O   0  0  0  0  0  0  0  0  0  0  0  0
   27.0667  -20.6291  -15.3987 N   0  0  0  0  0  0  0  0  0  0  0  0
   26.2204  -19.7995  -16.2095 C   0  0  0  0  0  0  0  0  0  0  0  0
   26.8525  -18.4210  -15.9673 C   0  0  0  0  0  0  0  0  0  0  0  0
   26.9287  -18.4579  -14.4342 C   0  0  0  0  0  0  0  0  0  0  0  0
   27.2911  -19.9131  -14.1671 C   0  0  1  0  0  0  0  0  0  0  0  0
   26.4452  -20.4930  -13.0899 C   0  0  0  0  0  0  0  0  0  0  0  0
   25.3302  -21.0591  -13.3260 O   0  0  0  0  0  0  0  0  0  0  0  0
   28.0675  -19.2238   -7.1672 C   0  0  0  0  0  0  0  0  0  0  0  0
   26.4835  -19.9577   -6.6806 S   0  0  0  0  0  0  0  0  0  0  0  0
   25.6872  -20.5885   -8.1945 C   0  0  0  0  0  0  0  0  0  0  0  0
   26.4959  -20.2778   -9.3992 C   0  0  0  0  0  0  0  0  0  0  0  0
   25.9167  -20.8822  -10.6525 C   0  0  2  0  0  0  0  0  0  0  0  0
   26.8247  -20.4543  -11.7218 N   0  0  0  0  0  0  0  0  0  0  0  0
   24.5618  -20.3861  -10.8678 C   0  0  0  0  0  0  0  0  0  0  0  0
   24.3707  -19.2998  -11.4527 O   0  0  0  0  0  0  0  0  0  0  0  0
   23.4349  -21.0871  -10.4395 O   0  0  0  0  0  0  0  0  0  0  0  0
  2  1  1  6
  2  3  1  0
  4  2  1  0
  4  6  1  0
  4  5  1  1
  6  7  2  0
  8  6  1  0
  8 12  1  0
  9 10  1  0
  9  8  1  0
 10 11  1  0
 11 12  1  0
 12 13  1  1
 13 20  1  0
 14 13  2  0
 16 15  1  0
 17 16  1  0
 18 17  1  0
 19 20  1  0
 19 18  1  1
 21 19  1  0
 22 21  2  0
 23 21  1  0
M  END
$$$$
