TPM.pdb
     RDKit          3D

 23 23  0  0  1  0  0  0  0  0999 V2000
   22.0790  -12.2462  -21.0883 C   0  0  0  0  0  0  0  0  0  0  0  0
   22.0054  -11.3214  -19.9313 C   0  0  1  0  0  0  0  0  0  0  0  0
   21.2404  -11.9206  -18.9013 O   0  0  0  0  0  0  0  0  0  0  0  0
   23.3301  -10.9744  -19.2858 C   0  0  2  0  0  0  0  0  0  0  0  0
   23.8567  -12.2859  -18.8616 N   0  0  0  0  0  0  0  0  0  0  0  0
   23.2208  -10.0654  -18.1368 C   0  0  0  0  0  0  0  0  0  0  0  0
   23.1668  -10.6400  -16.9876 O   0  0  0  0  0  0  0  0  0  0  0  0
   23.1739   -8.6584  -18.1848 N   0  0  0  0  0  0  0  0  0  0  0  0
   23.2133   -7.8425  -19.3656 C   0  0  0  0  0  0  0  0  0  0  0  0
   24.1814   -6.7372  -18.9189 C   0  0  0  0  0  0  0  0  0  0  0  0
   23.5418   -6.3899  -17.5669 C   0  0  0  0  0  0  0  0  0  0  0  0
   23.1009   -7.7574  -17.0611 C   0  0  1  0  0  0  0  0  0  0  0  0
   21.7083   -7.7190  -16.5402 C   0  0  0  0  0  0  0  0  0  0  0  0
   20.6977   -7.9749  -17.2701 O   0  0  0  0  0  0  0  0  0  0  0  0
   17.1839   -9.7222  -10.7033 C   0  0  0  0  0  0  0  0  0  0  0  0
   18.8622   -9.5472  -11.3643 S   0  0  0  0  0  0  0  0  0  0  0  0
   18.7640   -8.4505  -12.8174 C   0  0  0  0  0  0  0  0  0  0  0  0
   20.0746   -8.3477  -13.5054 C   0  0  0  0  0  0  0  0  0  0  0  0
   20.0373   -7.3985  -14.6755 C   0  0  2  0  0  0  0  0  0  0  0  0
   21.4106   -7.3934  -15.1901 N   0  0  0  0  0  0  0  0  0  0  0  0
   19.6253   -6.0716  -14.2310 C   0  0  0  0  0  0  0  0  0  0  0  0
   20.4779   -5.2208  -13.9023 O   0  0  0  0  0  0  0  0  0  0  0  0
   18.2849   -5.6948  -14.1528 O   0  0  0  0  0  0  0  0  0  0  0  0
  2  1  1  6
  2  3  1  0
  4  2  1  0
  4  6  1  0
  4  5  1  1
  6  7  2  0
  8  6  1  0
  8 12  1  0
  9 10  1  0
  9  8  1  0
 10 11  1  0
 11 12  1  0
 12 13  1  6
 13 20  1  0
 14 13  2  0
 16 15  1  0
 17 16  1  0
 18 17  1  0
 19 20  1  0
 19 18  1  1
 21 19  1  0
 22 21  2  0
 23 21  1  0
M  END
$$$$
