TPM.pdb
     RDKit          3D

 23 23  0  0  1  0  0  0  0  0999 V2000
   23.9457  -22.4077  -18.2248 C   0  0  0  0  0  0  0  0  0  0  0  0
   24.5971  -22.0964  -16.9294 C   0  0  1  0  0  0  0  0  0  0  0  0
   24.5667  -23.2453  -16.1023 O   0  0  0  0  0  0  0  0  0  0  0  0
   26.0582  -21.7078  -17.0085 C   0  0  2  0  0  0  0  0  0  0  0  0
   26.7049  -22.9202  -17.5462 N   0  0  0  0  0  0  0  0  0  0  0  0
   26.6531  -21.3339  -15.7182 C   0  0  0  0  0  0  0  0  0  0  0  0
   27.4185  -22.2224  -15.1905 O   0  0  0  0  0  0  0  0  0  0  0  0
   26.4640  -20.1192  -15.0306 N   0  0  0  0  0  0  0  0  0  0  0  0
   25.6709  -19.0049  -15.4679 C   0  0  0  0  0  0  0  0  0  0  0  0
   26.6007  -17.8347  -15.1152 C   0  0  0  0  0  0  0  0  0  0  0  0
   26.9416  -18.2260  -13.6701 C   0  0  0  0  0  0  0  0  0  0  0  0
   27.0452  -19.7427  -13.7656 C   0  0  1  0  0  0  0  0  0  0  0  0
   26.3069  -20.4068  -12.6583 C   0  0  0  0  0  0  0  0  0  0  0  0
   25.1802  -20.9727  -12.8303 O   0  0  0  0  0  0  0  0  0  0  0  0
   27.5839  -18.6900   -6.5233 C   0  0  0  0  0  0  0  0  0  0  0  0
   27.0235  -20.3931   -6.2596 S   0  0  0  0  0  0  0  0  0  0  0  0
   26.0575  -20.8823   -7.7264 C   0  0  0  0  0  0  0  0  0  0  0  0
   26.7813  -20.5606   -8.9810 C   0  0  0  0  0  0  0  0  0  0  0  0
   25.9987  -20.9430  -10.2110 C   0  0  2  0  0  0  0  0  0  0  0  0
   26.8100  -20.4547  -11.3309 N   0  0  0  0  0  0  0  0  0  0  0  0
   24.6840  -20.3113  -10.1846 C   0  0  0  0  0  0  0  0  0  0  0  0
   24.5344  -19.1429  -10.5985 O   0  0  0  0  0  0  0  0  0  0  0  0
   23.5512  -20.9683   -9.7051 O   0  0  0  0  0  0  0  0  0  0  0  0
  2  1  1  6
  2  3  1  0
  4  2  1  0
  4  6  1  0
  4  5  1  1
  6  7  2  0
  8  6  1  0
  8 12  1  0
  9 10  1  0
  9  8  1  0
 10 11  1  0
 11 12  1  0
 12 13  1  1
 13 20  1  0
 14 13  2  0
 16 15  1  0
 17 16  1  0
 18 17  1  0
 19 20  1  0
 19 18  1  1
 21 19  1  0
 22 21  2  0
 23 21  1  0
M  END
$$$$
