FQL.pdb
     RDKit          3D

 29 29  0  0  1  0  0  0  0  0999 V2000
   27.4587  -21.4586  -14.6080 N   0  0  0  0  0  0  0  0  0  0  0  0
   26.4299  -21.5300  -13.5870 C   0  0  1  0  0  0  0  0  0  0  0  0
   26.6025  -20.3853  -12.6023 C   0  0  0  0  0  0  0  0  0  0  0  0
   27.8366  -20.6276  -11.8162 C   0  0  0  0  0  0  0  0  0  0  0  0
   27.7985  -21.2982  -10.6333 C   0  0  0  0  0  0  0  0  0  0  0  0
   28.9061  -21.5565   -9.8547 C   0  0  0  0  0  0  0  0  0  0  0  0
   30.1326  -21.1092  -10.2981 C   0  0  0  0  0  0  0  0  0  0  0  0
   30.2185  -20.4230  -11.4952 C   0  0  0  0  0  0  0  0  0  0  0  0
   29.0759  -20.1814  -12.2541 C   0  0  0  0  0  0  0  0  0  0  0  0
   25.1148  -21.4783  -14.2548 C   0  0  0  0  0  0  0  0  0  0  0  0
   24.8930  -20.5757  -15.0886 O   0  0  0  0  0  0  0  0  0  0  0  0
   24.3178  -25.7964  -14.5628 N   0  0  0  0  0  0  0  0  0  0  0  0
   24.2392  -25.3408  -15.9206 C   0  0  0  0  0  0  0  0  0  0  0  0
   24.9912  -25.8634  -16.7484 O   0  0  0  0  0  0  0  0  0  0  0  0
   23.2730  -24.2808  -16.2500 C   0  0  0  0  0  0  0  0  0  0  0  0
   22.5285  -23.8037  -15.0597 C   0  0  0  0  0  0  0  0  0  0  0  0
   22.8419  -22.3656  -14.7358 C   0  0  2  0  0  0  0  0  0  0  0  0
   24.1120  -22.4234  -13.9701 N   0  0  0  0  0  0  0  0  0  0  0  0
   21.8388  -21.7592  -13.8340 C   0  0  0  0  0  0  0  0  0  0  0  0
   22.1523  -21.5563  -12.6245 O   0  0  0  0  0  0  0  0  0  0  0  0
   20.0500  -16.7435  -14.1084 C   0  0  0  0  0  0  0  0  0  0  0  0
   20.3765  -17.7638  -12.9644 C   0  0  1  0  0  0  0  0  0  0  0  0
   19.2450  -17.6310  -12.0211 C   0  0  0  0  0  0  0  0  0  0  0  0
   20.7045  -19.0240  -13.5941 C   0  0  0  0  0  0  0  0  0  0  0  0
   19.8882  -20.2399  -13.4920 C   0  0  2  0  0  0  0  0  0  0  0  0
   20.5344  -21.3626  -14.1814 N   0  0  0  0  0  0  0  0  0  0  0  0
   18.5307  -20.1632  -14.0280 C   0  0  0  0  0  0  0  0  0  0  0  0
   17.5615  -19.9893  -13.2460 O   0  0  0  0  0  0  0  0  0  0  0  0
   18.1856  -20.2616  -15.3654 O   0  0  0  0  0  0  0  0  0  0  0  0
  2  1  1  6
  2  3  1  0
  3  4  1  0
  4  9  2  0
  5  4  1  0
  5  6  2  0
  6  7  1  0
  7  8  2  0
  9  8  1  0
 10 18  1  0
 10  2  1  0
 11 10  2  0
 13 12  1  0
 13 15  1  0
 14 13  2  0
 16 15  1  0
 17 16  1  1
 17 18  1  0
 19 26  1  0
 19 17  1  0
 20 19  2  0
 22 21  1  6
 22 24  1  0
 23 22  1  0
 25 24  1  6
 25 26  1  0
 25 27  1  0
 27 29  1  0
 28 27  2  0
M  END
$$$$
