FQL.pdb
     RDKit          3D

 29 29  0  0  1  0  0  0  0  0999 V2000
   28.7719  -21.3197   -9.7702 N   0  0  0  0  0  0  0  0  0  0  0  0
   27.3836  -20.9883   -9.5084 C   0  0  1  0  0  0  0  0  0  0  0  0
   27.3013  -19.6571   -8.7798 C   0  0  0  0  0  0  0  0  0  0  0  0
   27.7774  -19.8556   -7.3893 C   0  0  0  0  0  0  0  0  0  0  0  0
   26.9033  -19.9402   -6.3503 C   0  0  0  0  0  0  0  0  0  0  0  0
   27.2786  -20.1237   -5.0369 C   0  0  0  0  0  0  0  0  0  0  0  0
   28.6236  -20.2288   -4.7525 C   0  0  0  0  0  0  0  0  0  0  0  0
   29.5478  -20.1485   -5.7775 C   0  0  0  0  0  0  0  0  0  0  0  0
   29.1291  -19.9626   -7.0927 C   0  0  0  0  0  0  0  0  0  0  0  0
   26.6695  -20.9459  -10.7993 C   0  0  0  0  0  0  0  0  0  0  0  0
   27.2031  -20.3679  -11.7690 O   0  0  0  0  0  0  0  0  0  0  0  0
   25.3147  -24.9219  -14.1612 N   0  0  0  0  0  0  0  0  0  0  0  0
   24.2768  -24.1141  -14.7335 C   0  0  0  0  0  0  0  0  0  0  0  0
   23.8988  -24.3864  -15.8768 O   0  0  0  0  0  0  0  0  0  0  0  0
   23.7238  -23.0110  -13.9318 C   0  0  0  0  0  0  0  0  0  0  0  0
   24.3773  -22.8918  -12.6061 C   0  0  0  0  0  0  0  0  0  0  0  0
   24.7410  -21.4659  -12.2811 C   0  0  2  0  0  0  0  0  0  0  0  0
   25.4047  -21.5425  -10.9558 N   0  0  0  0  0  0  0  0  0  0  0  0
   23.5505  -20.6070  -12.1021 C   0  0  0  0  0  0  0  0  0  0  0  0
   23.6267  -19.6185  -11.3150 O   0  0  0  0  0  0  0  0  0  0  0  0
   22.2149  -18.1451  -16.5819 C   0  0  0  0  0  0  0  0  0  0  0  0
   22.3394  -17.7654  -15.0664 C   0  0  1  0  0  0  0  0  0  0  0  0
   21.1388  -16.9453  -14.7945 C   0  0  0  0  0  0  0  0  0  0  0  0
   22.6140  -18.9854  -14.3396 C   0  0  0  0  0  0  0  0  0  0  0  0
   21.6689  -19.6364  -13.4240 C   0  0  2  0  0  0  0  0  0  0  0  0
   22.3034  -20.7653  -12.7338 N   0  0  0  0  0  0  0  0  0  0  0  0
   20.4412  -20.1630  -14.0170 C   0  0  0  0  0  0  0  0  0  0  0  0
   19.3266  -19.7291  -13.6291 O   0  0  0  0  0  0  0  0  0  0  0  0
   20.3744  -21.1281  -15.0076 O   0  0  0  0  0  0  0  0  0  0  0  0
  2  1  1  6
  2  3  1  0
  3  4  1  0
  4  9  2  0
  5  4  1  0
  5  6  2  0
  6  7  1  0
  7  8  2  0
  9  8  1  0
 10 18  1  0
 10  2  1  0
 11 10  2  0
 13 12  1  0
 13 15  1  0
 14 13  2  0
 16 15  1  0
 17 16  1  1
 17 18  1  0
 19 26  1  0
 19 17  1  0
 20 19  2  0
 22 21  1  6
 22 24  1  0
 23 22  1  0
 25 24  1  6
 25 26  1  0
 25 27  1  0
 27 29  1  0
 28 27  2  0
M  END
$$$$
