FQL.pdb
     RDKit          3D

 29 29  0  0  1  0  0  0  0  0999 V2000
   24.2029  -16.3722  -17.1705 N   0  0  0  0  0  0  0  0  0  0  0  0
   25.0945  -17.3912  -16.6487 C   0  0  1  0  0  0  0  0  0  0  0  0
   26.4568  -16.7830  -16.3589 C   0  0  0  0  0  0  0  0  0  0  0  0
   27.1634  -16.5847  -17.6477 C   0  0  0  0  0  0  0  0  0  0  0  0
   27.7808  -17.6192  -18.2795 C   0  0  0  0  0  0  0  0  0  0  0  0
   28.4538  -17.5034  -19.4767 C   0  0  0  0  0  0  0  0  0  0  0  0
   28.5076  -16.2630  -20.0762 C   0  0  0  0  0  0  0  0  0  0  0  0
   27.8939  -15.1829  -19.4696 C   0  0  0  0  0  0  0  0  0  0  0  0
   27.2232  -15.3400  -18.2592 C   0  0  0  0  0  0  0  0  0  0  0  0
   24.4828  -17.9580  -15.4310 C   0  0  0  0  0  0  0  0  0  0  0  0
   24.0023  -17.1842  -14.5770 O   0  0  0  0  0  0  0  0  0  0  0  0
   20.4173  -20.0426  -13.7983 N   0  0  0  0  0  0  0  0  0  0  0  0
   20.9464  -21.0737  -12.9534 C   0  0  0  0  0  0  0  0  0  0  0  0
   20.2816  -21.4101  -11.9690 O   0  0  0  0  0  0  0  0  0  0  0  0
   22.2456  -21.6696  -13.3035 C   0  0  0  0  0  0  0  0  0  0  0  0
   22.8995  -20.9748  -14.4386 C   0  0  0  0  0  0  0  0  0  0  0  0
   23.7936  -19.8534  -13.9758 C   0  0  2  0  0  0  0  0  0  0  0  0
   24.4314  -19.3478  -15.2170 N   0  0  0  0  0  0  0  0  0  0  0  0
   24.8916  -20.3295  -13.1070 C   0  0  0  0  0  0  0  0  0  0  0  0
   25.7086  -21.1785  -13.5697 O   0  0  0  0  0  0  0  0  0  0  0  0
   28.8531  -20.1088   -9.2339 C   0  0  0  0  0  0  0  0  0  0  0  0
   27.3736  -20.1987   -8.7243 C   0  0  1  0  0  0  0  0  0  0  0  0
   27.3964  -19.5181   -7.4113 C   0  0  0  0  0  0  0  0  0  0  0  0
   26.5203  -19.7521   -9.8035 C   0  0  0  0  0  0  0  0  0  0  0  0
   26.2390  -20.5311  -11.0156 C   0  0  2  0  0  0  0  0  0  0  0  0
   25.1435  -19.9270  -11.7826 N   0  0  0  0  0  0  0  0  0  0  0  0
   25.8726  -21.9327  -10.8220 C   0  0  0  0  0  0  0  0  0  0  0  0
   24.7259  -22.2232  -10.3955 O   0  0  0  0  0  0  0  0  0  0  0  0
   26.6899  -23.0215  -11.0744 O   0  0  0  0  0  0  0  0  0  0  0  0
  2  1  1  1
  2  3  1  0
  3  4  1  0
  4  9  2  0
  5  4  1  0
  5  6  2  0
  6  7  1  0
  7  8  2  0
  9  8  1  0
 10 18  1  0
 10  2  1  0
 11 10  2  0
 13 12  1  0
 13 15  1  0
 14 13  2  0
 16 15  1  0
 17 16  1  6
 17 18  1  0
 19 26  1  0
 19 17  1  0
 20 19  2  0
 22 21  1  6
 22 24  1  0
 23 22  1  0
 25 24  1  1
 25 26  1  0
 25 27  1  0
 27 29  1  0
 28 27  2  0
M  END
$$$$
