FQL.pdb
     RDKit          3D

 29 29  0  0  1  0  0  0  0  0999 V2000
   25.6323  -22.4199  -12.3160 N   0  0  0  0  0  0  0  0  0  0  0  0
   24.7350  -21.2800  -12.2813 C   0  0  1  0  0  0  0  0  0  0  0  0
   25.3879  -20.1345  -11.5256 C   0  0  0  0  0  0  0  0  0  0  0  0
   25.3178  -20.4324  -10.0744 C   0  0  0  0  0  0  0  0  0  0  0  0
   26.4456  -20.6343   -9.3409 C   0  0  0  0  0  0  0  0  0  0  0  0
   26.4508  -20.9146   -7.9915 C   0  0  0  0  0  0  0  0  0  0  0  0
   25.2390  -20.9968   -7.3388 C   0  0  0  0  0  0  0  0  0  0  0  0
   24.0670  -20.7988   -8.0447 C   0  0  0  0  0  0  0  0  0  0  0  0
   24.1030  -20.5173   -9.4083 C   0  0  0  0  0  0  0  0  0  0  0  0
   24.4176  -20.9020  -13.6722 C   0  0  0  0  0  0  0  0  0  0  0  0
   25.2546  -21.1330  -14.5696 O   0  0  0  0  0  0  0  0  0  0  0  0
   20.0927  -22.5906  -14.3164 N   0  0  0  0  0  0  0  0  0  0  0  0
   20.8673  -23.0429  -15.4357 C   0  0  0  0  0  0  0  0  0  0  0  0
   20.8568  -24.2500  -15.6938 O   0  0  0  0  0  0  0  0  0  0  0  0
   21.6286  -22.0491  -16.2093 C   0  0  0  0  0  0  0  0  0  0  0  0
   21.5273  -20.6859  -15.6346 C   0  0  0  0  0  0  0  0  0  0  0  0
   22.8810  -20.0547  -15.4346 C   0  0  2  0  0  0  0  0  0  0  0  0
   23.1948  -20.2894  -14.0030 N   0  0  0  0  0  0  0  0  0  0  0  0
   22.8521  -18.5877  -15.6198 C   0  0  0  0  0  0  0  0  0  0  0  0
   22.1365  -17.8906  -14.8423 O   0  0  0  0  0  0  0  0  0  0  0  0
   27.0199  -15.0328  -16.5226 C   0  0  0  0  0  0  0  0  0  0  0  0
   25.7451  -15.6414  -15.8437 C   0  0  1  0  0  0  0  0  0  0  0  0
   25.5470  -14.8175  -14.6313 C   0  0  0  0  0  0  0  0  0  0  0  0
   24.7282  -15.7564  -16.8659 C   0  0  0  0  0  0  0  0  0  0  0  0
   23.4212  -16.3951  -16.6680 C   0  0  2  0  0  0  0  0  0  0  0  0
   23.5589  -17.8540  -16.5901 N   0  0  0  0  0  0  0  0  0  0  0  0
   22.4066  -16.1382  -17.6881 C   0  0  0  0  0  0  0  0  0  0  0  0
   22.1679  -17.0100  -18.5622 O   0  0  0  0  0  0  0  0  0  0  0  0
   21.6443  -14.9872  -17.7945 O   0  0  0  0  0  0  0  0  0  0  0  0
  2  1  1  6
  2  3  1  0
  3  4  1  0
  4  9  2  0
  5  4  1  0
  5  6  2  0
  6  7  1  0
  7  8  2  0
  9  8  1  0
 10 18  1  0
 10  2  1  0
 11 10  2  0
 13 12  1  0
 13 15  1  0
 14 13  2  0
 16 15  1  0
 17 16  1  1
 17 18  1  0
 19 26  1  0
 19 17  1  0
 20 19  2  0
 22 21  1  6
 22 24  1  0
 23 22  1  0
 25 24  1  6
 25 26  1  0
 25 27  1  0
 27 29  1  0
 28 27  2  0
M  END
$$$$
