FQL.pdb
     RDKit          3D

 29 29  0  0  1  0  0  0  0  0999 V2000
   24.9597  -19.4938  -18.3471 N   0  0  0  0  0  0  0  0  0  0  0  0
   25.5052  -19.8470  -17.0497 C   0  0  1  0  0  0  0  0  0  0  0  0
   25.2635  -18.7149  -16.0648 C   0  0  0  0  0  0  0  0  0  0  0  0
   26.1382  -17.5768  -16.4379 C   0  0  0  0  0  0  0  0  0  0  0  0
   27.4425  -17.7703  -16.7724 C   0  0  0  0  0  0  0  0  0  0  0  0
   28.3081  -16.7584  -17.1279 C   0  0  0  0  0  0  0  0  0  0  0  0
   27.8268  -15.4665  -17.1473 C   0  0  0  0  0  0  0  0  0  0  0  0
   26.5073  -15.2230  -16.8145 C   0  0  0  0  0  0  0  0  0  0  0  0
   25.6632  -16.2728  -16.4604 C   0  0  0  0  0  0  0  0  0  0  0  0
   24.8627  -21.0993  -16.6060 C   0  0  0  0  0  0  0  0  0  0  0  0
   23.7408  -21.4008  -17.0638 O   0  0  0  0  0  0  0  0  0  0  0  0
   24.6770  -26.4308  -16.0816 N   0  0  0  0  0  0  0  0  0  0  0  0
   25.7341  -25.8662  -16.8696 C   0  0  0  0  0  0  0  0  0  0  0  0
   26.0032  -26.4076  -17.9459 O   0  0  0  0  0  0  0  0  0  0  0  0
   26.4367  -24.6803  -16.3540 C   0  0  0  0  0  0  0  0  0  0  0  0
   25.8771  -24.2067  -15.0651 C   0  0  0  0  0  0  0  0  0  0  0  0
   24.7814  -23.1912  -15.2635 C   0  0  2  0  0  0  0  0  0  0  0  0
   25.4889  -21.9552  -15.6811 N   0  0  0  0  0  0  0  0  0  0  0  0
   24.0803  -22.8646  -14.0030 C   0  0  0  0  0  0  0  0  0  0  0  0
   23.9836  -23.7584  -13.1117 O   0  0  0  0  0  0  0  0  0  0  0  0
   26.1672  -20.0322  -10.0958 C   0  0  0  0  0  0  0  0  0  0  0  0
   24.8594  -20.8903  -10.1963 C   0  0  1  0  0  0  0  0  0  0  0  0
   23.8595  -20.1264   -9.4187 C   0  0  0  0  0  0  0  0  0  0  0  0
   24.6620  -21.2094  -11.5932 C   0  0  0  0  0  0  0  0  0  0  0  0
   23.3561  -21.2272  -12.2638 C   0  0  2  0  0  0  0  0  0  0  0  0
   23.4952  -21.6297  -13.6681 N   0  0  0  0  0  0  0  0  0  0  0  0
   22.6094  -19.9709  -12.2750 C   0  0  0  0  0  0  0  0  0  0  0  0
   22.9037  -19.0792  -13.1112 O   0  0  0  0  0  0  0  0  0  0  0  0
   21.5633  -19.6478  -11.4273 O   0  0  0  0  0  0  0  0  0  0  0  0
  2  1  1  6
  2  3  1  0
  3  4  1  0
  4  9  2  0
  5  4  1  0
  5  6  2  0
  6  7  1  0
  7  8  2  0
  9  8  1  0
 10 18  1  0
 10  2  1  0
 11 10  2  0
 13 12  1  0
 13 15  1  0
 14 13  2  0
 16 15  1  0
 17 16  1  1
 17 18  1  0
 19 26  1  0
 19 17  1  0
 20 19  2  0
 22 21  1  6
 22 24  1  0
 23 22  1  0
 25 24  1  6
 25 26  1  0
 25 27  1  0
 27 29  1  0
 28 27  2  0
M  END
$$$$
