IWA.pdb
     RDKit          3D

 28 29  0  0  1  0  0  0  0  0999 V2000
    7.5156  -12.6812   18.1482 C   0  0  0  0  0  0  0  0  0  0  0  0
    7.1798  -13.8361   19.0430 C   0  0  0  0  0  0  0  0  0  0  0  0
    8.0120  -13.7771   20.3247 C   0  0  2  0  0  0  0  0  0  0  0  0
    9.4634  -13.7752   19.8940 C   0  0  0  0  0  0  0  0  0  0  0  0
    7.7917  -15.0464   21.1233 C   0  0  2  0  0  0  0  0  0  0  0  0
    6.3548  -15.1716   21.2822 N   0  0  0  0  0  0  0  0  0  0  0  0
    8.3873  -14.9484   22.4777 C   0  0  0  0  0  0  0  0  0  0  0  0
    8.4880  -13.8566   23.0534 O   0  0  0  0  0  0  0  0  0  0  0  0
    8.8653  -16.1250   23.1601 N   0  0  0  0  0  0  0  0  0  0  0  0
    9.6646  -16.0467   24.3485 C   0  0  1  0  0  0  0  0  0  0  0  0
    8.9270  -16.3435   25.6237 C   0  0  0  0  0  0  0  0  0  0  0  0
    7.7511  -15.5359   25.8872 C   0  0  0  0  0  0  0  0  0  0  0  0
    6.4323  -15.9230   25.7613 C   0  0  0  0  0  0  0  0  0  0  0  0
    5.6206  -14.8981   26.0763 N   0  0  0  0  0  0  0  0  0  0  0  0
    6.3655  -13.8326   26.4108 C   0  0  0  0  0  0  0  0  0  0  0  0
    5.9814  -12.5718   26.8065 C   0  0  0  0  0  0  0  0  0  0  0  0
    6.9748  -11.6620   27.1004 C   0  0  0  0  0  0  0  0  0  0  0  0
    8.3183  -12.0109   26.9991 C   0  0  0  0  0  0  0  0  0  0  0  0
    8.6467  -13.2767   26.6013 C   0  0  0  0  0  0  0  0  0  0  0  0
    7.7065  -14.2235   26.2954 C   0  0  0  0  0  0  0  0  0  0  0  0
   10.8944  -16.8519   24.2005 C   0  0  0  0  0  0  0  0  0  0  0  0
   10.7836  -18.0422   23.8140 O   0  0  0  0  0  0  0  0  0  0  0  0
   14.5427  -16.1686   24.0638 C   0  0  0  0  0  0  0  0  0  0  0  0
   13.3929  -17.1604   24.2767 C   0  0  2  0  0  0  0  0  0  0  0  0
   12.1928  -16.3695   24.4662 N   0  0  0  0  0  0  0  0  0  0  0  0
   13.6869  -18.0331   25.4141 C   0  0  0  0  0  0  0  0  0  0  0  0
   12.9879  -18.0183   26.4571 O   0  0  0  0  0  0  0  0  0  0  0  0
   14.7600  -18.9080   25.3632 O   0  0  0  0  0  0  0  0  0  0  0  0
  2  1  1  0
  3  2  1  0
  3  5  1  0
  3  4  1  6
  5  7  1  0
  5  6  1  1
  7  8  2  0
  9 10  1  0
  9  7  1  0
 10 11  1  1
 11 12  1  0
 12 20  1  0
 13 14  1  0
 13 12  2  0
 14 15  1  0
 15 20  2  0
 15 16  1  0
 16 17  2  0
 17 18  1  0
 19 18  2  0
 20 19  1  0
 21 10  1  0
 22 21  2  0
 24 23  1  1
 24 26  1  0
 24 25  1  0
 25 21  1  0
 26 28  1  0
 27 26  2  0
M  END
$$$$
