IWA.pdb
     RDKit          3D

 28 29  0  0  1  0  0  0  0  0999 V2000
    7.4737  -12.3543   18.1297 C   0  0  0  0  0  0  0  0  0  0  0  0
    7.2525  -13.6026   18.9296 C   0  0  0  0  0  0  0  0  0  0  0  0
    8.0886  -13.5708   20.2097 C   0  0  2  0  0  0  0  0  0  0  0  0
    9.5351  -13.4676   19.7748 C   0  0  0  0  0  0  0  0  0  0  0  0
    7.9410  -14.8924   20.9369 C   0  0  2  0  0  0  0  0  0  0  0  0
    6.5154  -15.0835   21.1284 N   0  0  0  0  0  0  0  0  0  0  0  0
    8.5735  -14.8505   22.2774 C   0  0  0  0  0  0  0  0  0  0  0  0
    8.9490  -13.7795   22.7729 O   0  0  0  0  0  0  0  0  0  0  0  0
    8.7675  -16.0588   23.0395 N   0  0  0  0  0  0  0  0  0  0  0  0
    9.5272  -16.0807   24.2560 C   0  0  1  0  0  0  0  0  0  0  0  0
    8.7167  -16.3120   25.5001 C   0  0  0  0  0  0  0  0  0  0  0  0
    7.6291  -15.3822   25.7389 C   0  0  0  0  0  0  0  0  0  0  0  0
    6.2776  -15.6376   25.6245 C   0  0  0  0  0  0  0  0  0  0  0  0
    5.5745  -14.5270   25.9083 N   0  0  0  0  0  0  0  0  0  0  0  0
    6.4241  -13.5326   26.2108 C   0  0  0  0  0  0  0  0  0  0  0  0
    6.1705  -12.2282   26.5683 C   0  0  0  0  0  0  0  0  0  0  0  0
    7.2516  -11.4150   26.8347 C   0  0  0  0  0  0  0  0  0  0  0  0
    8.5527  -11.9008   26.7442 C   0  0  0  0  0  0  0  0  0  0  0  0
    8.7503  -13.2046   26.3848 C   0  0  0  0  0  0  0  0  0  0  0  0
    7.7185  -14.0603   26.1074 C   0  0  0  0  0  0  0  0  0  0  0  0
   10.6687  -17.0111   24.1380 C   0  0  0  0  0  0  0  0  0  0  0  0
   10.4302  -18.2143   23.8655 O   0  0  0  0  0  0  0  0  0  0  0  0
   14.4035  -16.7555   24.1931 C   0  0  0  0  0  0  0  0  0  0  0  0
   13.1162  -17.5806   24.3070 C   0  0  2  0  0  0  0  0  0  0  0  0
   12.0169  -16.6356   24.3120 N   0  0  0  0  0  0  0  0  0  0  0  0
   13.1586  -18.4132   25.5099 C   0  0  0  0  0  0  0  0  0  0  0  0
   12.3592  -18.2402   26.4626 O   0  0  0  0  0  0  0  0  0  0  0  0
   14.0970  -19.4260   25.6246 O   0  0  0  0  0  0  0  0  0  0  0  0
  2  1  1  0
  3  2  1  0
  3  5  1  0
  3  4  1  6
  5  7  1  0
  5  6  1  1
  7  8  2  0
  9 10  1  0
  9  7  1  0
 10 11  1  1
 11 12  1  0
 12 20  1  0
 13 14  1  0
 13 12  2  0
 14 15  1  0
 15 20  2  0
 15 16  1  0
 16 17  2  0
 17 18  1  0
 19 18  2  0
 20 19  1  0
 21 10  1  0
 22 21  2  0
 24 23  1  1
 24 26  1  0
 24 25  1  0
 25 21  1  0
 26 28  1  0
 27 26  2  0
M  END
$$$$
