IWA.pdb
     RDKit          3D

 28 29  0  0  1  0  0  0  0  0999 V2000
    6.8263  -12.3841   19.2481 C   0  0  0  0  0  0  0  0  0  0  0  0
    7.1516  -13.8101   19.5768 C   0  0  0  0  0  0  0  0  0  0  0  0
    8.1435  -13.8766   20.7388 C   0  0  2  0  0  0  0  0  0  0  0  0
    9.4420  -13.2887   20.2284 C   0  0  0  0  0  0  0  0  0  0  0  0
    8.4207  -15.3277   21.0778 C   0  0  2  0  0  0  0  0  0  0  0  0
    7.1213  -15.9562   21.2264 N   0  0  0  0  0  0  0  0  0  0  0  0
    9.1343  -15.4585   22.3710 C   0  0  0  0  0  0  0  0  0  0  0  0
   10.1328  -14.7700   22.6216 O   0  0  0  0  0  0  0  0  0  0  0  0
    8.6825  -16.3929   23.3716 N   0  0  0  0  0  0  0  0  0  0  0  0
    9.2894  -16.4757   24.6685 C   0  0  1  0  0  0  0  0  0  0  0  0
    8.3202  -16.4954   25.8168 C   0  0  0  0  0  0  0  0  0  0  0  0
    7.3234  -15.4416   25.8327 C   0  0  0  0  0  0  0  0  0  0  0  0
    5.9872  -15.5570   25.5071 C   0  0  0  0  0  0  0  0  0  0  0  0
    5.3811  -14.3622   25.6233 N   0  0  0  0  0  0  0  0  0  0  0  0
    6.2808  -13.4482   26.0199 C   0  0  0  0  0  0  0  0  0  0  0  0
    6.1261  -12.1049   26.2749 C   0  0  0  0  0  0  0  0  0  0  0  0
    7.2374  -11.3977   26.6820 C   0  0  0  0  0  0  0  0  0  0  0  0
    8.4712  -12.0248   26.8288 C   0  0  0  0  0  0  0  0  0  0  0  0
    8.5715  -13.3617   26.5626 C   0  0  0  0  0  0  0  0  0  0  0  0
    7.5052  -14.1170   26.1547 C   0  0  0  0  0  0  0  0  0  0  0  0
   10.2556  -17.5923   24.7187 C   0  0  0  0  0  0  0  0  0  0  0  0
    9.8757  -18.7259   24.3326 O   0  0  0  0  0  0  0  0  0  0  0  0
   13.9003  -18.0334   25.3806 C   0  0  0  0  0  0  0  0  0  0  0  0
   12.4752  -18.5983   25.3547 C   0  0  2  0  0  0  0  0  0  0  0  0
   11.5846  -17.4688   25.1743 N   0  0  0  0  0  0  0  0  0  0  0  0
   12.2087  -19.3445   26.5851 C   0  0  0  0  0  0  0  0  0  0  0  0
   11.3587  -18.9558   27.4235 O   0  0  0  0  0  0  0  0  0  0  0  0
   12.8999  -20.5146   26.8551 O   0  0  0  0  0  0  0  0  0  0  0  0
  2  1  1  0
  3  2  1  0
  3  5  1  0
  3  4  1  6
  5  7  1  0
  5  6  1  1
  7  8  2  0
  9 10  1  0
  9  7  1  0
 10 11  1  1
 11 12  1  0
 12 20  1  0
 13 14  1  0
 13 12  2  0
 14 15  1  0
 15 20  2  0
 15 16  1  0
 16 17  2  0
 17 18  1  0
 19 18  2  0
 20 19  1  0
 21 10  1  0
 22 21  2  0
 24 23  1  1
 24 26  1  0
 24 25  1  0
 25 21  1  0
 26 28  1  0
 27 26  2  0
M  END
$$$$
