IWA.pdb
     RDKit          3D

 28 29  0  0  1  0  0  0  0  0999 V2000
    7.6346  -12.4695   18.1417 C   0  0  0  0  0  0  0  0  0  0  0  0
    7.2784  -13.6702   18.9655 C   0  0  0  0  0  0  0  0  0  0  0  0
    8.0576  -13.6644   20.2813 C   0  0  2  0  0  0  0  0  0  0  0  0
    9.5239  -13.7388   19.9119 C   0  0  0  0  0  0  0  0  0  0  0  0
    7.7353  -14.9246   21.0594 C   0  0  2  0  0  0  0  0  0  0  0  0
    6.2914  -14.9456   21.2014 N   0  0  0  0  0  0  0  0  0  0  0  0
    8.3209  -14.8890   22.4212 C   0  0  0  0  0  0  0  0  0  0  0  0
    8.3512  -13.8382   23.0758 O   0  0  0  0  0  0  0  0  0  0  0  0
    8.8712  -16.0801   23.0188 N   0  0  0  0  0  0  0  0  0  0  0  0
    9.6599  -16.0393   24.2161 C   0  0  1  0  0  0  0  0  0  0  0  0
    8.8996  -16.3245   25.4806 C   0  0  0  0  0  0  0  0  0  0  0  0
    7.7635  -15.4648   25.7534 C   0  0  0  0  0  0  0  0  0  0  0  0
    6.4282  -15.8089   25.6944 C   0  0  0  0  0  0  0  0  0  0  0  0
    5.6653  -14.7431   25.9955 N   0  0  0  0  0  0  0  0  0  0  0  0
    6.4591  -13.6922   26.2555 C   0  0  0  0  0  0  0  0  0  0  0  0
    6.1347  -12.4030   26.6109 C   0  0  0  0  0  0  0  0  0  0  0  0
    7.1696  -11.5181   26.8275 C   0  0  0  0  0  0  0  0  0  0  0  0
    8.4953  -11.9193   26.6904 C   0  0  0  0  0  0  0  0  0  0  0  0
    8.7639  -13.2115   26.3353 C   0  0  0  0  0  0  0  0  0  0  0  0
    7.7803  -14.1357   26.1063 C   0  0  0  0  0  0  0  0  0  0  0  0
   10.8646  -16.8824   24.0727 C   0  0  0  0  0  0  0  0  0  0  0  0
   10.7155  -18.0773   23.7139 O   0  0  0  0  0  0  0  0  0  0  0  0
   14.5627  -16.3597   24.1197 C   0  0  0  0  0  0  0  0  0  0  0  0
   13.3459  -17.2871   24.2221 C   0  0  2  0  0  0  0  0  0  0  0  0
   12.1791  -16.4317   24.3133 N   0  0  0  0  0  0  0  0  0  0  0  0
   13.4907  -18.1796   25.3728 C   0  0  0  0  0  0  0  0  0  0  0  0
   12.7504  -18.0827   26.3824 O   0  0  0  0  0  0  0  0  0  0  0  0
   14.4633  -19.1664   25.3724 O   0  0  0  0  0  0  0  0  0  0  0  0
  2  1  1  0
  3  2  1  0
  3  5  1  0
  3  4  1  6
  5  7  1  0
  5  6  1  1
  7  8  2  0
  9 10  1  0
  9  7  1  0
 10 11  1  1
 11 12  1  0
 12 20  1  0
 13 14  1  0
 13 12  2  0
 14 15  1  0
 15 20  2  0
 15 16  1  0
 16 17  2  0
 17 18  1  0
 19 18  2  0
 20 19  1  0
 21 10  1  0
 22 21  2  0
 24 23  1  1
 24 26  1  0
 24 25  1  0
 25 21  1  0
 26 28  1  0
 27 26  2  0
M  END
$$$$
