IWA.pdb
     RDKit          3D

 28 29  0  0  1  0  0  0  0  0999 V2000
    7.6971  -12.0335   20.3616 C   0  0  0  0  0  0  0  0  0  0  0  0
    7.6820  -13.4340   20.8960 C   0  0  0  0  0  0  0  0  0  0  0  0
    8.4757  -14.3639   19.9774 C   0  0  2  0  0  0  0  0  0  0  0  0
    7.6634  -14.5086   18.7080 C   0  0  0  0  0  0  0  0  0  0  0  0
    8.5565  -15.7402   20.6073 C   0  0  2  0  0  0  0  0  0  0  0  0
    7.1884  -16.1231   20.9023 N   0  0  0  0  0  0  0  0  0  0  0  0
    9.3017  -15.7101   21.8888 C   0  0  0  0  0  0  0  0  0  0  0  0
   10.4297  -15.2038   21.9597 O   0  0  0  0  0  0  0  0  0  0  0  0
    8.7302  -16.2710   23.0877 N   0  0  0  0  0  0  0  0  0  0  0  0
    9.4367  -16.2856   24.3359 C   0  0  1  0  0  0  0  0  0  0  0  0
    8.5608  -16.3726   25.5539 C   0  0  0  0  0  0  0  0  0  0  0  0
    7.4895  -15.3986   25.6441 C   0  0  0  0  0  0  0  0  0  0  0  0
    6.1524  -15.6070   25.3731 C   0  0  0  0  0  0  0  0  0  0  0  0
    5.4642  -14.4654   25.5509 N   0  0  0  0  0  0  0  0  0  0  0  0
    6.3098  -13.4963   25.9354 C   0  0  0  0  0  0  0  0  0  0  0  0
    6.0664  -12.1758   26.2368 C   0  0  0  0  0  0  0  0  0  0  0  0
    7.1388  -11.3970   26.6166 C   0  0  0  0  0  0  0  0  0  0  0  0
    8.4215  -11.9319   26.6913 C   0  0  0  0  0  0  0  0  0  0  0  0
    8.6097  -13.2496   26.3813 C   0  0  0  0  0  0  0  0  0  0  0  0
    7.5858  -14.0730   25.9973 C   0  0  0  0  0  0  0  0  0  0  0  0
   10.4957  -17.3157   24.3205 C   0  0  0  0  0  0  0  0  0  0  0  0
   10.1652  -18.5057   24.0898 O   0  0  0  0  0  0  0  0  0  0  0  0
   14.1925  -17.4167   24.1526 C   0  0  0  0  0  0  0  0  0  0  0  0
   12.8805  -18.0803   24.5875 C   0  0  2  0  0  0  0  0  0  0  0  0
   11.8618  -17.0497   24.5490 N   0  0  0  0  0  0  0  0  0  0  0  0
   13.0366  -18.6793   25.9137 C   0  0  0  0  0  0  0  0  0  0  0  0
   13.8278  -19.6322   26.1201 O   0  0  0  0  0  0  0  0  0  0  0  0
   12.3028  -18.1997   26.9866 O   0  0  0  0  0  0  0  0  0  0  0  0
  2  1  1  0
  3  2  1  0
  3  5  1  0
  3  4  1  6
  5  7  1  0
  5  6  1  1
  7  8  2  0
  9 10  1  0
  9  7  1  0
 10 11  1  1
 11 12  1  0
 12 20  1  0
 13 14  1  0
 13 12  2  0
 14 15  1  0
 15 20  2  0
 15 16  1  0
 16 17  2  0
 17 18  1  0
 19 18  2  0
 20 19  1  0
 21 10  1  0
 22 21  2  0
 24 23  1  1
 24 26  1  0
 24 25  1  0
 25 21  1  0
 26 28  1  0
 27 26  2  0
M  END
$$$$
