IWA.pdb
     RDKit          3D

 28 29  0  0  1  0  0  0  0  0999 V2000
    6.6775  -12.5701   19.0971 C   0  0  0  0  0  0  0  0  0  0  0  0
    7.2438  -13.9321   19.3642 C   0  0  0  0  0  0  0  0  0  0  0  0
    8.0542  -13.9276   20.6612 C   0  0  2  0  0  0  0  0  0  0  0  0
    9.2695  -13.0620   20.4046 C   0  0  0  0  0  0  0  0  0  0  0  0
    8.5623  -15.3284   20.9387 C   0  0  2  0  0  0  0  0  0  0  0  0
    7.3835  -16.1712   21.0133 N   0  0  0  0  0  0  0  0  0  0  0  0
    9.2555  -15.4075   22.2471 C   0  0  0  0  0  0  0  0  0  0  0  0
   10.3114  -14.7925   22.4483 O   0  0  0  0  0  0  0  0  0  0  0  0
    8.7160  -16.2044   23.3206 N   0  0  0  0  0  0  0  0  0  0  0  0
    9.3495  -16.2845   24.6050 C   0  0  1  0  0  0  0  0  0  0  0  0
    8.4033  -16.3513   25.7704 C   0  0  0  0  0  0  0  0  0  0  0  0
    7.3599  -15.3441   25.8078 C   0  0  0  0  0  0  0  0  0  0  0  0
    6.0259  -15.5181   25.5001 C   0  0  0  0  0  0  0  0  0  0  0  0
    5.3678  -14.3529   25.6334 N   0  0  0  0  0  0  0  0  0  0  0  0
    6.2306  -13.4016   26.0240 C   0  0  0  0  0  0  0  0  0  0  0  0
    6.0187  -12.0684   26.2909 C   0  0  0  0  0  0  0  0  0  0  0  0
    7.1024  -11.3140   26.6876 C   0  0  0  0  0  0  0  0  0  0  0  0
    8.3654  -11.8853   26.8125 C   0  0  0  0  0  0  0  0  0  0  0  0
    8.5225  -13.2144   26.5353 C   0  0  0  0  0  0  0  0  0  0  0  0
    7.4860  -14.0148   26.1368 C   0  0  0  0  0  0  0  0  0  0  0  0
   10.3524  -17.3693   24.6219 C   0  0  0  0  0  0  0  0  0  0  0  0
   10.0043  -18.5080   24.2209 O   0  0  0  0  0  0  0  0  0  0  0  0
   14.0272  -17.6872   25.0977 C   0  0  0  0  0  0  0  0  0  0  0  0
   12.6261  -18.3060   25.1662 C   0  0  2  0  0  0  0  0  0  0  0  0
   11.6831  -17.2100   25.0611 N   0  0  0  0  0  0  0  0  0  0  0  0
   12.4756  -19.0716   26.4043 C   0  0  0  0  0  0  0  0  0  0  0  0
   11.6502  -18.7404   27.2907 O   0  0  0  0  0  0  0  0  0  0  0  0
   13.2533  -20.1963   26.6281 O   0  0  0  0  0  0  0  0  0  0  0  0
  2  1  1  0
  3  2  1  0
  3  5  1  0
  3  4  1  6
  5  7  1  0
  5  6  1  1
  7  8  2  0
  9 10  1  0
  9  7  1  0
 10 11  1  1
 11 12  1  0
 12 20  1  0
 13 14  1  0
 13 12  2  0
 14 15  1  0
 15 20  2  0
 15 16  1  0
 16 17  2  0
 17 18  1  0
 19 18  2  0
 20 19  1  0
 21 10  1  0
 22 21  2  0
 24 23  1  1
 24 26  1  0
 24 25  1  0
 25 21  1  0
 26 28  1  0
 27 26  2  0
M  END
$$$$
