IWA.pdb
     RDKit          3D

 28 29  0  0  1  0  0  0  0  0999 V2000
    7.7980  -12.5738   18.1520 C   0  0  0  0  0  0  0  0  0  0  0  0
    7.2410  -13.6131   19.0776 C   0  0  0  0  0  0  0  0  0  0  0  0
    8.1582  -13.7963   20.2874 C   0  0  2  0  0  0  0  0  0  0  0  0
    9.4989  -14.2445   19.7453 C   0  0  0  0  0  0  0  0  0  0  0  0
    7.6313  -14.9272   21.1482 C   0  0  2  0  0  0  0  0  0  0  0  0
    6.2067  -14.6897   21.2879 N   0  0  0  0  0  0  0  0  0  0  0  0
    8.2270  -14.9018   22.5058 C   0  0  0  0  0  0  0  0  0  0  0  0
    8.2265  -13.8656   23.1840 O   0  0  0  0  0  0  0  0  0  0  0  0
    8.8234  -16.0861   23.0719 N   0  0  0  0  0  0  0  0  0  0  0  0
    9.5888  -16.0507   24.2844 C   0  0  1  0  0  0  0  0  0  0  0  0
    8.8132  -16.3822   25.5281 C   0  0  0  0  0  0  0  0  0  0  0  0
    7.6962  -15.5104   25.8387 C   0  0  0  0  0  0  0  0  0  0  0  0
    6.3573  -15.8452   25.8435 C   0  0  0  0  0  0  0  0  0  0  0  0
    5.6159  -14.7697   26.1631 N   0  0  0  0  0  0  0  0  0  0  0  0
    6.4276  -13.7213   26.3730 C   0  0  0  0  0  0  0  0  0  0  0  0
    6.1281  -12.4250   26.7243 C   0  0  0  0  0  0  0  0  0  0  0  0
    7.1777  -11.5451   26.8826 C   0  0  0  0  0  0  0  0  0  0  0  0
    8.4932  -11.9580   26.6928 C   0  0  0  0  0  0  0  0  0  0  0  0
    8.7369  -13.2570   26.3443 C   0  0  0  0  0  0  0  0  0  0  0  0
    7.7378  -14.1767   26.1719 C   0  0  0  0  0  0  0  0  0  0  0  0
   10.8174  -16.8594   24.1461 C   0  0  0  0  0  0  0  0  0  0  0  0
   10.8443  -17.9970   24.6787 O   0  0  0  0  0  0  0  0  0  0  0  0
   14.1458  -16.4502   22.4578 C   0  0  0  0  0  0  0  0  0  0  0  0
   13.1953  -17.2075   23.3926 C   0  0  2  0  0  0  0  0  0  0  0  0
   11.9694  -16.4361   23.4512 N   0  0  0  0  0  0  0  0  0  0  0  0
   13.8193  -17.3879   24.7040 C   0  0  0  0  0  0  0  0  0  0  0  0
   13.3285  -16.8856   25.7449 O   0  0  0  0  0  0  0  0  0  0  0  0
   14.9837  -18.1288   24.8267 O   0  0  0  0  0  0  0  0  0  0  0  0
  2  1  1  0
  3  2  1  0
  3  5  1  0
  3  4  1  6
  5  7  1  0
  5  6  1  1
  7  8  2  0
  9 10  1  0
  9  7  1  0
 10 11  1  1
 11 12  1  0
 12 20  1  0
 13 14  1  0
 13 12  2  0
 14 15  1  0
 15 20  2  0
 15 16  1  0
 16 17  2  0
 17 18  1  0
 19 18  2  0
 20 19  1  0
 21 10  1  0
 22 21  2  0
 24 23  1  6
 24 26  1  0
 24 25  1  0
 25 21  1  0
 26 28  1  0
 27 26  2  0
M  END
$$$$
