IWA.pdb
     RDKit          3D

 28 29  0  0  1  0  0  0  0  0999 V2000
    6.7254  -12.5878   19.3917 C   0  0  0  0  0  0  0  0  0  0  0  0
    7.1820  -13.9561   19.7996 C   0  0  0  0  0  0  0  0  0  0  0  0
    8.2021  -13.8614   20.9350 C   0  0  2  0  0  0  0  0  0  0  0  0
    9.3714  -13.0652   20.3957 C   0  0  0  0  0  0  0  0  0  0  0  0
    8.7242  -15.2478   21.2556 C   0  0  2  0  0  0  0  0  0  0  0  0
    7.5510  -16.0795   21.4484 N   0  0  0  0  0  0  0  0  0  0  0  0
    9.4973  -15.2598   22.5209 C   0  0  0  0  0  0  0  0  0  0  0  0
   10.4840  -14.5272   22.6732 O   0  0  0  0  0  0  0  0  0  0  0  0
    9.1183  -16.1270   23.6085 N   0  0  0  0  0  0  0  0  0  0  0  0
    9.8271  -16.1424   24.8554 C   0  0  1  0  0  0  0  0  0  0  0  0
    8.9524  -16.2044   26.0758 C   0  0  0  0  0  0  0  0  0  0  0  0
    7.7813  -15.3483   26.0694 C   0  0  0  0  0  0  0  0  0  0  0  0
    6.4776  -15.7259   25.8191 C   0  0  0  0  0  0  0  0  0  0  0  0
    5.6683  -14.6538   25.8838 N   0  0  0  0  0  0  0  0  0  0  0  0
    6.4000  -13.5659   26.1723 C   0  0  0  0  0  0  0  0  0  0  0  0
    6.0121  -12.2567   26.3428 C   0  0  0  0  0  0  0  0  0  0  0  0
    6.9898  -11.3329   26.6454 C   0  0  0  0  0  0  0  0  0  0  0  0
    8.3218  -11.7156   26.7730 C   0  0  0  0  0  0  0  0  0  0  0  0
    8.6546  -13.0291   26.5936 C   0  0  0  0  0  0  0  0  0  0  0  0
    7.7299  -13.9921   26.2913 C   0  0  0  0  0  0  0  0  0  0  0  0
   10.8690  -17.1898   24.8469 C   0  0  0  0  0  0  0  0  0  0  0  0
   11.5523  -17.3581   25.8878 O   0  0  0  0  0  0  0  0  0  0  0  0
   12.8819  -18.9000   22.3463 C   0  0  0  0  0  0  0  0  0  0  0  0
   12.2194  -18.9961   23.7257 C   0  0  2  0  0  0  0  0  0  0  0  0
   11.1491  -18.0185   23.7406 N   0  0  0  0  0  0  0  0  0  0  0  0
   13.2129  -18.7708   24.7764 C   0  0  0  0  0  0  0  0  0  0  0  0
   13.8155  -17.6754   24.8930 O   0  0  0  0  0  0  0  0  0  0  0  0
   13.5143  -19.7777   25.6791 O   0  0  0  0  0  0  0  0  0  0  0  0
  2  1  1  0
  3  2  1  0
  3  5  1  0
  3  4  1  6
  5  7  1  0
  5  6  1  1
  7  8  2  0
  9 10  1  0
  9  7  1  0
 10 11  1  1
 11 12  1  0
 12 20  1  0
 13 14  1  0
 13 12  2  0
 14 15  1  0
 15 20  2  0
 15 16  1  0
 16 17  2  0
 17 18  1  0
 19 18  2  0
 20 19  1  0
 21 10  1  0
 22 21  2  0
 24 23  1  6
 24 26  1  0
 24 25  1  0
 25 21  1  0
 26 28  1  0
 27 26  2  0
M  END
$$$$
