IWA.pdb
     RDKit          3D

 28 29  0  0  1  0  0  0  0  0999 V2000
    6.8032  -12.4445   19.3799 C   0  0  0  0  0  0  0  0  0  0  0  0
    7.1982  -13.8595   19.6782 C   0  0  0  0  0  0  0  0  0  0  0  0
    8.1309  -13.9087   20.8891 C   0  0  2  0  0  0  0  0  0  0  0  0
    9.3715  -13.1296   20.5070 C   0  0  0  0  0  0  0  0  0  0  0  0
    8.5666  -15.3408   21.1273 C   0  0  2  0  0  0  0  0  0  0  0  0
    7.3444  -16.1084   21.2767 N   0  0  0  0  0  0  0  0  0  0  0  0
    9.3381  -15.4734   22.3866 C   0  0  0  0  0  0  0  0  0  0  0  0
   10.4316  -14.9097   22.5278 O   0  0  0  0  0  0  0  0  0  0  0  0
    8.8329  -16.2641   23.4812 N   0  0  0  0  0  0  0  0  0  0  0  0
    9.5024  -16.3305   24.7480 C   0  0  1  0  0  0  0  0  0  0  0  0
    8.5940  -16.2748   25.9437 C   0  0  0  0  0  0  0  0  0  0  0  0
    7.5163  -15.3054   25.8857 C   0  0  0  0  0  0  0  0  0  0  0  0
    6.2010  -15.5450   25.5430 C   0  0  0  0  0  0  0  0  0  0  0  0
    5.4993  -14.3985   25.5846 N   0  0  0  0  0  0  0  0  0  0  0  0
    6.3145  -13.3957   25.9477 C   0  0  0  0  0  0  0  0  0  0  0  0
    6.0477  -12.0578   26.1279 C   0  0  0  0  0  0  0  0  0  0  0  0
    7.0900  -11.2431   26.5164 C   0  0  0  0  0  0  0  0  0  0  0  0
    8.3663  -11.7603   26.7182 C   0  0  0  0  0  0  0  0  0  0  0  0
    8.5785  -13.0967   26.5255 C   0  0  0  0  0  0  0  0  0  0  0  0
    7.5850  -13.9556   26.1397 C   0  0  0  0  0  0  0  0  0  0  0  0
   10.4259  -17.4831   24.7867 C   0  0  0  0  0  0  0  0  0  0  0  0
    9.9870  -18.6093   24.4438 O   0  0  0  0  0  0  0  0  0  0  0  0
   14.0839  -18.0333   25.1768 C   0  0  0  0  0  0  0  0  0  0  0  0
   12.6473  -18.5557   25.2952 C   0  0  2  0  0  0  0  0  0  0  0  0
   11.7762  -17.4021   25.1858 N   0  0  0  0  0  0  0  0  0  0  0  0
   12.4790  -19.2803   26.5555 C   0  0  0  0  0  0  0  0  0  0  0  0
   11.6480  -18.9148   27.4229 O   0  0  0  0  0  0  0  0  0  0  0  0
   13.2456  -20.4031   26.8224 O   0  0  0  0  0  0  0  0  0  0  0  0
  2  1  1  0
  3  2  1  0
  3  5  1  0
  3  4  1  6
  5  7  1  0
  5  6  1  1
  7  8  2  0
  9 10  1  0
  9  7  1  0
 10 11  1  1
 11 12  1  0
 12 20  1  0
 13 14  1  0
 13 12  2  0
 14 15  1  0
 15 20  2  0
 15 16  1  0
 16 17  2  0
 17 18  1  0
 19 18  2  0
 20 19  1  0
 21 10  1  0
 22 21  2  0
 24 23  1  1
 24 26  1  0
 24 25  1  0
 25 21  1  0
 26 28  1  0
 27 26  2  0
M  END
$$$$
