IWA.pdb
     RDKit          3D

 28 29  0  0  1  0  0  0  0  0999 V2000
    7.0023  -12.2263   18.9429 C   0  0  0  0  0  0  0  0  0  0  0  0
    7.2020  -13.6219   19.4523 C   0  0  0  0  0  0  0  0  0  0  0  0
    8.0693  -13.6109   20.7118 C   0  0  2  0  0  0  0  0  0  0  0  0
    9.4320  -13.1036   20.2897 C   0  0  0  0  0  0  0  0  0  0  0  0
    8.2610  -15.0330   21.2000 C   0  0  2  0  0  0  0  0  0  0  0  0
    6.9298  -15.6014   21.3004 N   0  0  0  0  0  0  0  0  0  0  0  0
    8.8684  -15.0677   22.5522 C   0  0  0  0  0  0  0  0  0  0  0  0
    9.3873  -14.0571   23.0452 O   0  0  0  0  0  0  0  0  0  0  0  0
    8.8700  -16.2823   23.3290 N   0  0  0  0  0  0  0  0  0  0  0  0
    9.5502  -16.3827   24.5878 C   0  0  1  0  0  0  0  0  0  0  0  0
    8.6484  -16.5350   25.7802 C   0  0  0  0  0  0  0  0  0  0  0  0
    7.6019  -15.5407   25.9237 C   0  0  0  0  0  0  0  0  0  0  0  0
    6.2538  -15.7127   25.6831 C   0  0  0  0  0  0  0  0  0  0  0  0
    5.5963  -14.5614   25.9083 N   0  0  0  0  0  0  0  0  0  0  0  0
    6.4731  -13.6214   26.2950 C   0  0  0  0  0  0  0  0  0  0  0  0
    6.2673  -12.3043   26.6365 C   0  0  0  0  0  0  0  0  0  0  0  0
    7.3664  -11.5592   27.0075 C   0  0  0  0  0  0  0  0  0  0  0  0
    8.6383  -12.1236   27.0343 C   0  0  0  0  0  0  0  0  0  0  0  0
    8.7888  -13.4366   26.6857 C   0  0  0  0  0  0  0  0  0  0  0  0
    7.7370  -14.2272   26.3082 C   0  0  0  0  0  0  0  0  0  0  0  0
   10.5986  -17.4220   24.5294 C   0  0  0  0  0  0  0  0  0  0  0  0
   10.2413  -18.6247   24.4616 O   0  0  0  0  0  0  0  0  0  0  0  0
   14.3362  -17.4850   24.2735 C   0  0  0  0  0  0  0  0  0  0  0  0
   12.9986  -18.1857   24.5390 C   0  0  2  0  0  0  0  0  0  0  0  0
   11.9827  -17.1516   24.5449 N   0  0  0  0  0  0  0  0  0  0  0  0
   13.0629  -18.9298   25.7975 C   0  0  0  0  0  0  0  0  0  0  0  0
   12.3627  -18.6123   26.7902 O   0  0  0  0  0  0  0  0  0  0  0  0
   13.9115  -20.0179   25.9222 O   0  0  0  0  0  0  0  0  0  0  0  0
  2  1  1  0
  3  2  1  0
  3  5  1  0
  3  4  1  6
  5  7  1  0
  5  6  1  1
  7  8  2  0
  9 10  1  0
  9  7  1  0
 10 11  1  1
 11 12  1  0
 12 20  1  0
 13 14  1  0
 13 12  2  0
 14 15  1  0
 15 20  2  0
 15 16  1  0
 16 17  2  0
 17 18  1  0
 19 18  2  0
 20 19  1  0
 21 10  1  0
 22 21  2  0
 24 23  1  1
 24 26  1  0
 24 25  1  0
 25 21  1  0
 26 28  1  0
 27 26  2  0
M  END
$$$$
