LYN.pdb
     RDKit          3D

 29 29  0  0  1  0  0  0  0  0999 V2000
    7.2425  -12.5649   18.6652 C   0  0  0  0  0  0  0  0  0  0  0  0
    7.2669  -13.6417   19.7311 C   0  0  2  0  0  0  0  0  0  0  0  0
    7.1839  -13.0989   21.1194 C   0  0  0  0  0  0  0  0  0  0  0  0
    8.5147  -14.4704   19.4858 C   0  0  0  0  0  0  0  0  0  0  0  0
    8.4355  -15.6567   20.4210 C   0  0  2  0  0  0  0  0  0  0  0  0
    7.0145  -15.8478   20.7134 N   0  0  0  0  0  0  0  0  0  0  0  0
    9.2005  -15.4678   21.6546 C   0  0  0  0  0  0  0  0  0  0  0  0
   10.4152  -15.1664   21.5779 O   0  0  0  0  0  0  0  0  0  0  0  0
   10.3955  -14.7003   30.5203 O   0  0  0  0  0  0  0  0  0  0  0  0
    9.8992  -14.8207   29.2307 C   0  0  0  0  0  0  0  0  0  0  0  0
    9.2773  -15.9839   28.8164 C   0  0  0  0  0  0  0  0  0  0  0  0
    8.7938  -16.0739   27.5276 C   0  0  0  0  0  0  0  0  0  0  0  0
    8.8936  -15.0617   26.6143 C   0  0  0  0  0  0  0  0  0  0  0  0
    8.3948  -15.1356   25.2582 C   0  0  0  0  0  0  0  0  0  0  0  0
    9.3199  -15.5256   24.1725 C   0  0  2  0  0  0  0  0  0  0  0  0
    8.5593  -15.6278   22.9026 N   0  0  0  0  0  0  0  0  0  0  0  0
   10.0645  -16.7818   24.2953 C   0  0  0  0  0  0  0  0  0  0  0  0
    9.5872  -17.8817   23.8142 O   0  0  0  0  0  0  0  0  0  0  0  0
    9.5274  -13.8938   27.0578 C   0  0  0  0  0  0  0  0  0  0  0  0
   10.0196  -13.7714   28.3330 C   0  0  0  0  0  0  0  0  0  0  0  0
   13.1775  -20.8451   23.3098 N   0  0  0  0  0  0  0  0  0  0  0  0
   13.6875  -19.6197   23.8379 C   0  0  0  0  0  0  0  0  0  0  0  0
   14.8358  -19.6466   24.2975 O   0  0  0  0  0  0  0  0  0  0  0  0
   12.8663  -18.4057   23.8221 C   0  0  0  0  0  0  0  0  0  0  0  0
   11.9806  -18.2511   25.0204 C   0  0  2  0  0  0  0  0  0  0  0  0
   11.3318  -16.9365   24.9138 N   0  0  0  0  0  0  0  0  0  0  0  0
   12.6303  -18.4197   26.3167 C   0  0  0  0  0  0  0  0  0  0  0  0
   12.9021  -17.4864   27.1330 O   0  0  0  0  0  0  0  0  0  0  0  0
   12.9958  -19.7074   26.7214 O   0  0  0  0  0  0  0  0  0  0  0  0
  2  1  1  6
  2  3  1  0
  2  4  1  0
  5  4  1  0
  5  7  1  0
  5  6  1  1
  7  8  2  0
  9 10  1  0
 10 11  2  0
 10 20  1  0
 11 12  1  0
 12 13  2  0
 13 14  1  0
 15 14  1  1
 15 17  1  0
 16 15  1  0
 16  7  1  0
 17 18  2  0
 17 26  1  0
 19 13  1  0
 20 19  2  0
 21 22  1  0
 22 24  1  0
 23 22  2  0
 25 24  1  6
 25 27  1  0
 26 25  1  0
 27 28  2  0
 27 29  1  0
M  END
$$$$
