LYN.pdb
     RDKit          3D

 29 29  0  0  1  0  0  0  0  0999 V2000
    8.9598  -15.3301   16.8445 C   0  0  0  0  0  0  0  0  0  0  0  0
    8.0585  -14.5742   17.7999 C   0  0  2  0  0  0  0  0  0  0  0  0
    7.2226  -13.5371   17.1256 C   0  0  0  0  0  0  0  0  0  0  0  0
    8.9528  -14.0080   18.8878 C   0  0  0  0  0  0  0  0  0  0  0  0
    9.3584  -15.1734   19.7627 C   0  0  2  0  0  0  0  0  0  0  0  0
    8.3274  -16.1956   19.5794 N   0  0  0  0  0  0  0  0  0  0  0  0
    9.4895  -14.8130   21.1754 C   0  0  0  0  0  0  0  0  0  0  0  0
   10.4735  -14.1269   21.5402 O   0  0  0  0  0  0  0  0  0  0  0  0
    6.6366  -11.7605   28.9087 O   0  0  0  0  0  0  0  0  0  0  0  0
    6.7685  -12.3889   27.6793 C   0  0  0  0  0  0  0  0  0  0  0  0
    6.0781  -13.5540   27.4012 C   0  0  0  0  0  0  0  0  0  0  0  0
    6.2298  -14.1560   26.1693 C   0  0  0  0  0  0  0  0  0  0  0  0
    7.0384  -13.6611   25.1846 C   0  0  0  0  0  0  0  0  0  0  0  0
    7.2127  -14.2769   23.8870 C   0  0  0  0  0  0  0  0  0  0  0  0
    8.5443  -14.8001   23.5129 C   0  0  2  0  0  0  0  0  0  0  0  0
    8.5096  -15.2427   22.0971 N   0  0  0  0  0  0  0  0  0  0  0  0
    9.1003  -15.9248   24.2703 C   0  0  0  0  0  0  0  0  0  0  0  0
    8.9595  -15.9908   25.5528 O   0  0  0  0  0  0  0  0  0  0  0  0
    7.7271  -12.4802   25.4902 C   0  0  0  0  0  0  0  0  0  0  0  0
    7.5988  -11.8558   26.7057 C   0  0  0  0  0  0  0  0  0  0  0  0
    8.6148  -19.7070   21.9442 N   0  0  0  0  0  0  0  0  0  0  0  0
    8.8897  -19.6476   23.3447 C   0  0  0  0  0  0  0  0  0  0  0  0
    7.9358  -19.8419   24.1082 O   0  0  0  0  0  0  0  0  0  0  0  0
   10.2465  -19.3682   23.8237 C   0  0  0  0  0  0  0  0  0  0  0  0
   10.3763  -18.0779   24.5739 C   0  0  2  0  0  0  0  0  0  0  0  0
    9.8132  -17.0215   23.7210 N   0  0  0  0  0  0  0  0  0  0  0  0
   11.7225  -17.7370   25.0235 C   0  0  0  0  0  0  0  0  0  0  0  0
   12.6894  -17.4034   24.2718 O   0  0  0  0  0  0  0  0  0  0  0  0
   12.0012  -17.7714   26.3935 O   0  0  0  0  0  0  0  0  0  0  0  0
  2  1  1  6
  2  3  1  0
  2  4  1  0
  5  4  1  0
  5  7  1  0
  5  6  1  1
  7  8  2  0
  9 10  1  0
 10 11  2  0
 10 20  1  0
 11 12  1  0
 12 13  2  0
 13 14  1  0
 15 14  1  1
 15 17  1  0
 16 15  1  0
 16  7  1  0
 17 18  2  0
 17 26  1  0
 19 13  1  0
 20 19  2  0
 21 22  1  0
 22 24  1  0
 23 22  2  0
 25 24  1  6
 25 27  1  0
 26 25  1  0
 27 28  2  0
 27 29  1  0
M  END
$$$$
