LYN.pdb
     RDKit          3D

 29 29  0  0  1  0  0  0  0  0999 V2000
    7.8519  -14.5242   18.1406 C   0  0  0  0  0  0  0  0  0  0  0  0
    7.2621  -13.5718   19.1612 C   0  0  2  0  0  0  0  0  0  0  0  0
    6.8253  -12.2719   18.5709 C   0  0  0  0  0  0  0  0  0  0  0  0
    8.2978  -13.4128   20.2593 C   0  0  0  0  0  0  0  0  0  0  0  0
    8.5083  -14.7869   20.8559 C   0  0  2  0  0  0  0  0  0  0  0  0
    7.1726  -15.3199   21.1266 N   0  0  0  0  0  0  0  0  0  0  0  0
    9.3180  -14.7659   22.0752 C   0  0  0  0  0  0  0  0  0  0  0  0
   10.4939  -14.3345   22.0181 O   0  0  0  0  0  0  0  0  0  0  0  0
   10.7271  -15.4111   30.9247 O   0  0  0  0  0  0  0  0  0  0  0  0
   10.2232  -15.2935   29.6378 C   0  0  0  0  0  0  0  0  0  0  0  0
   10.1965  -14.0691   28.9962 C   0  0  0  0  0  0  0  0  0  0  0  0
    9.6892  -13.9837   27.7162 C   0  0  0  0  0  0  0  0  0  0  0  0
    9.2003  -15.0584   27.0275 C   0  0  0  0  0  0  0  0  0  0  0  0
    8.6629  -14.9907   25.6859 C   0  0  0  0  0  0  0  0  0  0  0  0
    9.5603  -15.2460   24.5386 C   0  0  2  0  0  0  0  0  0  0  0  0
    8.7623  -15.2299   23.2877 N   0  0  0  0  0  0  0  0  0  0  0  0
   10.3296  -16.4929   24.5065 C   0  0  0  0  0  0  0  0  0  0  0  0
    9.7484  -17.6210   24.2646 O   0  0  0  0  0  0  0  0  0  0  0  0
    9.2381  -16.2875   27.6985 C   0  0  0  0  0  0  0  0  0  0  0  0
    9.7361  -16.4073   28.9718 C   0  0  0  0  0  0  0  0  0  0  0  0
   12.3185  -18.0567   21.9556 N   0  0  0  0  0  0  0  0  0  0  0  0
   13.5680  -17.7536   22.5781 C   0  0  0  0  0  0  0  0  0  0  0  0
   14.5108  -17.4743   21.8273 O   0  0  0  0  0  0  0  0  0  0  0  0
   13.6960  -17.7803   24.0380 C   0  0  0  0  0  0  0  0  0  0  0  0
   12.3925  -17.9192   24.7634 C   0  0  2  0  0  0  0  0  0  0  0  0
   11.7279  -16.6091   24.7162 N   0  0  0  0  0  0  0  0  0  0  0  0
   12.4770  -18.4235   26.1307 C   0  0  0  0  0  0  0  0  0  0  0  0
   12.9315  -19.5586   26.4718 O   0  0  0  0  0  0  0  0  0  0  0  0
   12.0270  -17.6096   27.1750 O   0  0  0  0  0  0  0  0  0  0  0  0
  2  1  1  6
  2  3  1  0
  2  4  1  0
  5  4  1  0
  5  7  1  0
  5  6  1  1
  7  8  2  0
  9 10  1  0
 10 11  2  0
 10 20  1  0
 11 12  1  0
 12 13  2  0
 13 14  1  0
 15 14  1  1
 15 17  1  0
 16 15  1  0
 16  7  1  0
 17 18  2  0
 17 26  1  0
 19 13  1  0
 20 19  2  0
 21 22  1  0
 22 24  1  0
 23 22  2  0
 25 24  1  1
 25 27  1  0
 26 25  1  0
 27 28  2  0
 27 29  1  0
M  END
$$$$
