LYN.pdb
     RDKit          3D

 29 29  0  0  1  0  0  0  0  0999 V2000
    8.8103  -21.2787   19.6455 C   0  0  0  0  0  0  0  0  0  0  0  0
    8.5315  -19.8725   19.1544 C   0  0  2  0  0  0  0  0  0  0  0  0
    8.5863  -19.7455   17.6679 C   0  0  0  0  0  0  0  0  0  0  0  0
    9.5096  -18.9585   19.8699 C   0  0  0  0  0  0  0  0  0  0  0  0
    9.0681  -17.5414   19.5783 C   0  0  2  0  0  0  0  0  0  0  0  0
    9.8216  -17.1173   18.3977 N   0  0  0  0  0  0  0  0  0  0  0  0
    9.2959  -16.6267   20.6981 C   0  0  0  0  0  0  0  0  0  0  0  0
   10.4562  -16.2021   20.9115 O   0  0  0  0  0  0  0  0  0  0  0  0
    6.6062  -11.8430   27.8497 O   0  0  0  0  0  0  0  0  0  0  0  0
    6.7411  -12.5252   26.6496 C   0  0  0  0  0  0  0  0  0  0  0  0
    7.3119  -11.9152   25.5479 C   0  0  0  0  0  0  0  0  0  0  0  0
    7.4324  -12.6194   24.3678 C   0  0  0  0  0  0  0  0  0  0  0  0
    7.0133  -13.9116   24.2167 C   0  0  0  0  0  0  0  0  0  0  0  0
    7.1290  -14.6676   22.9886 C   0  0  0  0  0  0  0  0  0  0  0  0
    8.4076  -15.3423   22.6777 C   0  0  2  0  0  0  0  0  0  0  0  0
    8.2096  -16.2411   21.5139 N   0  0  0  0  0  0  0  0  0  0  0  0
    9.0443  -16.1617   23.7125 C   0  0  0  0  0  0  0  0  0  0  0  0
    8.6246  -17.3586   23.9578 O   0  0  0  0  0  0  0  0  0  0  0  0
    6.4386  -14.5077   25.3467 C   0  0  0  0  0  0  0  0  0  0  0  0
    6.3036  -13.8355   26.5357 C   0  0  0  0  0  0  0  0  0  0  0  0
   14.2526  -17.4201   26.3709 N   0  0  0  0  0  0  0  0  0  0  0  0
   12.9827  -17.7989   25.8376 C   0  0  0  0  0  0  0  0  0  0  0  0
   12.5877  -18.9419   26.0986 O   0  0  0  0  0  0  0  0  0  0  0  0
   12.2083  -16.8571   25.0241 C   0  0  0  0  0  0  0  0  0  0  0  0
   10.7820  -16.7050   25.4565 C   0  0  2  0  0  0  0  0  0  0  0  0
   10.1423  -15.7693   24.5207 N   0  0  0  0  0  0  0  0  0  0  0  0
   10.5787  -16.2933   26.8421 C   0  0  0  0  0  0  0  0  0  0  0  0
   10.1037  -15.1780   27.2186 O   0  0  0  0  0  0  0  0  0  0  0  0
   10.9269  -17.1822   27.8640 O   0  0  0  0  0  0  0  0  0  0  0  0
  2  1  1  6
  2  3  1  0
  2  4  1  0
  5  4  1  0
  5  7  1  0
  5  6  1  6
  7  8  2  0
  9 10  1  0
 10 11  2  0
 10 20  1  0
 11 12  1  0
 12 13  2  0
 13 14  1  0
 15 14  1  1
 15 17  1  0
 16 15  1  0
 16  7  1  0
 17 18  2  0
 17 26  1  0
 19 13  1  0
 20 19  2  0
 21 22  1  0
 22 24  1  0
 23 22  2  0
 25 24  1  6
 25 27  1  0
 26 25  1  0
 27 28  2  0
 27 29  1  0
M  END
$$$$
