LYN.pdb
     RDKit          3D

 29 29  0  0  1  0  0  0  0  0999 V2000
    8.8674  -14.0830   18.5652 C   0  0  0  0  0  0  0  0  0  0  0  0
    7.6818  -13.4445   19.2602 C   0  0  2  0  0  0  0  0  0  0  0  0
    7.3446  -12.0914   18.7271 C   0  0  0  0  0  0  0  0  0  0  0  0
    7.9961  -13.4418   20.7452 C   0  0  0  0  0  0  0  0  0  0  0  0
    8.3970  -14.8556   21.1039 C   0  0  2  0  0  0  0  0  0  0  0  0
    7.1606  -15.6382   21.1096 N   0  0  0  0  0  0  0  0  0  0  0  0
    9.0789  -14.9491   22.3957 C   0  0  0  0  0  0  0  0  0  0  0  0
   10.2120  -14.4281   22.5256 O   0  0  0  0  0  0  0  0  0  0  0  0
    5.7721  -10.4598   27.0925 O   0  0  0  0  0  0  0  0  0  0  0  0
    6.2866  -11.7085   26.7765 C   0  0  0  0  0  0  0  0  0  0  0  0
    5.4522  -12.7437   26.3977 C   0  0  0  0  0  0  0  0  0  0  0  0
    5.9934  -13.9745   26.0895 C   0  0  0  0  0  0  0  0  0  0  0  0
    7.3334  -14.2401   26.1362 C   0  0  0  0  0  0  0  0  0  0  0  0
    7.9215  -15.5232   25.8184 C   0  0  0  0  0  0  0  0  0  0  0  0
    9.0243  -15.5846   24.8352 C   0  0  2  0  0  0  0  0  0  0  0  0
    8.4509  -15.6214   23.4671 N   0  0  0  0  0  0  0  0  0  0  0  0
    9.9704  -16.7017   24.9028 C   0  0  0  0  0  0  0  0  0  0  0  0
    9.6349  -17.8771   24.4846 O   0  0  0  0  0  0  0  0  0  0  0  0
    8.1580  -13.1756   26.5225 C   0  0  0  0  0  0  0  0  0  0  0  0
    7.6522  -11.9388   26.8358 C   0  0  0  0  0  0  0  0  0  0  0  0
   14.0718  -15.4147   23.6986 N   0  0  0  0  0  0  0  0  0  0  0  0
   13.6310  -16.7693   23.8042 C   0  0  0  0  0  0  0  0  0  0  0  0
   13.3423  -17.3450   22.7479 O   0  0  0  0  0  0  0  0  0  0  0  0
   13.5357  -17.4190   25.1146 C   0  0  0  0  0  0  0  0  0  0  0  0
   12.1459  -17.8308   25.4931 C   0  0  2  0  0  0  0  0  0  0  0  0
   11.2978  -16.6340   25.3989 N   0  0  0  0  0  0  0  0  0  0  0  0
   12.0073  -18.4795   26.7935 C   0  0  0  0  0  0  0  0  0  0  0  0
   11.3322  -18.0346   27.7720 O   0  0  0  0  0  0  0  0  0  0  0  0
   12.6622  -19.6961   27.0094 O   0  0  0  0  0  0  0  0  0  0  0  0
  2  1  1  6
  2  3  1  0
  2  4  1  0
  5  4  1  0
  5  7  1  0
  5  6  1  1
  7  8  2  0
  9 10  1  0
 10 11  2  0
 10 20  1  0
 11 12  1  0
 12 13  2  0
 13 14  1  0
 15 14  1  1
 15 17  1  0
 16 15  1  0
 16  7  1  0
 17 18  2  0
 17 26  1  0
 19 13  1  0
 20 19  2  0
 21 22  1  0
 22 24  1  0
 23 22  2  0
 25 24  1  1
 25 27  1  0
 26 25  1  0
 27 28  2  0
 27 29  1  0
M  END
$$$$
