LYN.pdb
     RDKit          3D

 29 29  0  0  1  0  0  0  0  0999 V2000
    8.2772  -12.4273   18.3674 C   0  0  0  0  0  0  0  0  0  0  0  0
    8.1794  -13.7760   19.0513 C   0  0  2  0  0  0  0  0  0  0  0  0
    6.8009  -14.0976   19.5260 C   0  0  0  0  0  0  0  0  0  0  0  0
    9.2114  -13.7767   20.1644 C   0  0  0  0  0  0  0  0  0  0  0  0
    9.2682  -15.1906   20.6991 C   0  0  2  0  0  0  0  0  0  0  0  0
    7.9831  -15.8035   20.3610 N   0  0  0  0  0  0  0  0  0  0  0  0
    9.5105  -15.2501   22.1415 C   0  0  0  0  0  0  0  0  0  0  0  0
   10.5401  -14.7084   22.6090 O   0  0  0  0  0  0  0  0  0  0  0  0
    6.4439  -10.4475   27.2478 O   0  0  0  0  0  0  0  0  0  0  0  0
    6.6935  -11.7036   26.7151 C   0  0  0  0  0  0  0  0  0  0  0  0
    7.8814  -12.3610   26.9764 C   0  0  0  0  0  0  0  0  0  0  0  0
    8.1009  -13.6094   26.4323 C   0  0  0  0  0  0  0  0  0  0  0  0
    7.1967  -14.2513   25.6330 C   0  0  0  0  0  0  0  0  0  0  0  0
    7.4072  -15.5593   25.0515 C   0  0  0  0  0  0  0  0  0  0  0  0
    8.7217  -15.8765   24.4530 C   0  0  2  0  0  0  0  0  0  0  0  0
    8.5842  -15.9133   22.9760 N   0  0  0  0  0  0  0  0  0  0  0  0
    9.3837  -17.1300   24.8247 C   0  0  0  0  0  0  0  0  0  0  0  0
    9.4795  -18.1019   23.9790 O   0  0  0  0  0  0  0  0  0  0  0  0
    6.0013  -13.5651   25.3830 C   0  0  0  0  0  0  0  0  0  0  0  0
    5.7511  -12.3222   25.9085 C   0  0  0  0  0  0  0  0  0  0  0  0
   12.6516  -20.2365   24.8386 N   0  0  0  0  0  0  0  0  0  0  0  0
   12.9334  -18.8584   24.5900 C   0  0  0  0  0  0  0  0  0  0  0  0
   13.8148  -18.6116   23.7576 O   0  0  0  0  0  0  0  0  0  0  0  0
   12.1972  -17.8099   25.3021 C   0  0  0  0  0  0  0  0  0  0  0  0
   11.1203  -18.3259   26.2068 C   0  0  2  0  0  0  0  0  0  0  0  0
    9.9751  -17.4129   26.0828 N   0  0  0  0  0  0  0  0  0  0  0  0
   11.5005  -18.5154   27.6033 C   0  0  0  0  0  0  0  0  0  0  0  0
   11.7995  -19.6248   28.1428 O   0  0  0  0  0  0  0  0  0  0  0  0
   11.5488  -17.3981   28.4430 O   0  0  0  0  0  0  0  0  0  0  0  0
  2  1  1  1
  2  3  1  0
  2  4  1  0
  5  4  1  0
  5  7  1  0
  5  6  1  1
  7  8  2  0
  9 10  1  0
 10 11  2  0
 10 20  1  0
 11 12  1  0
 12 13  2  0
 13 14  1  0
 15 14  1  1
 15 17  1  0
 16 15  1  0
 16  7  1  0
 17 18  2  0
 17 26  1  0
 19 13  1  0
 20 19  2  0
 21 22  1  0
 22 24  1  0
 23 22  2  0
 25 24  1  6
 25 27  1  0
 26 25  1  0
 27 28  2  0
 27 29  1  0
M  END
$$$$
