LYN.pdb
     RDKit          3D

 29 29  0  0  1  0  0  0  0  0999 V2000
    7.8718  -14.4050   18.0143 C   0  0  0  0  0  0  0  0  0  0  0  0
    7.3194  -13.7242   19.2503 C   0  0  2  0  0  0  0  0  0  0  0  0
    6.6508  -12.4220   18.9569 C   0  0  0  0  0  0  0  0  0  0  0  0
    8.4713  -13.5984   20.2308 C   0  0  0  0  0  0  0  0  0  0  0  0
    8.6593  -14.9643   20.8529 C   0  0  2  0  0  0  0  0  0  0  0  0
    7.3148  -15.4755   21.1218 N   0  0  0  0  0  0  0  0  0  0  0  0
    9.4594  -14.9322   22.0784 C   0  0  0  0  0  0  0  0  0  0  0  0
   10.6239  -14.4695   22.0336 O   0  0  0  0  0  0  0  0  0  0  0  0
   10.8696  -15.3257   30.9261 O   0  0  0  0  0  0  0  0  0  0  0  0
   10.3676  -15.2704   29.6343 C   0  0  0  0  0  0  0  0  0  0  0  0
    9.8473  -16.3983   29.0272 C   0  0  0  0  0  0  0  0  0  0  0  0
    9.3554  -16.3120   27.7413 C   0  0  0  0  0  0  0  0  0  0  0  0
    9.3504  -15.1548   27.0138 C   0  0  0  0  0  0  0  0  0  0  0  0
    8.8409  -15.0428   25.6643 C   0  0  0  0  0  0  0  0  0  0  0  0
    9.7042  -15.4482   24.5343 C   0  0  2  0  0  0  0  0  0  0  0  0
    8.9073  -15.4207   23.2829 N   0  0  0  0  0  0  0  0  0  0  0  0
   10.3453  -16.7655   24.5716 C   0  0  0  0  0  0  0  0  0  0  0  0
    9.6919  -17.8275   24.2336 O   0  0  0  0  0  0  0  0  0  0  0  0
    9.8827  -14.0262   27.6503 C   0  0  0  0  0  0  0  0  0  0  0  0
   10.3801  -14.0775   28.9285 C   0  0  0  0  0  0  0  0  0  0  0  0
   14.0683  -17.0472   22.2907 N   0  0  0  0  0  0  0  0  0  0  0  0
   13.3154  -18.1165   22.8654 C   0  0  0  0  0  0  0  0  0  0  0  0
   12.5409  -18.7197   22.1125 O   0  0  0  0  0  0  0  0  0  0  0  0
   13.4743  -18.4590   24.2817 C   0  0  0  0  0  0  0  0  0  0  0  0
   12.2036  -18.3940   25.0727 C   0  0  2  0  0  0  0  0  0  0  0  0
   11.6874  -17.0230   24.9528 N   0  0  0  0  0  0  0  0  0  0  0  0
   12.3033  -18.8042   26.4700 C   0  0  0  0  0  0  0  0  0  0  0  0
   11.9868  -18.0928   27.4724 O   0  0  0  0  0  0  0  0  0  0  0  0
   12.7847  -20.0846   26.7606 O   0  0  0  0  0  0  0  0  0  0  0  0
  2  1  1  6
  2  3  1  0
  2  4  1  0
  5  4  1  0
  5  7  1  0
  5  6  1  1
  7  8  2  0
  9 10  1  0
 10 11  2  0
 10 20  1  0
 11 12  1  0
 12 13  2  0
 13 14  1  0
 15 14  1  1
 15 17  1  0
 16 15  1  0
 16  7  1  0
 17 18  2  0
 17 26  1  0
 19 13  1  0
 20 19  2  0
 21 22  1  0
 22 24  1  0
 23 22  2  0
 25 24  1  1
 25 27  1  0
 26 25  1  0
 27 28  2  0
 27 29  1  0
M  END
$$$$
