LYN.pdb
     RDKit          3D

 29 29  0  0  1  0  0  0  0  0999 V2000
    6.4919  -18.2981   18.3572 C   0  0  0  0  0  0  0  0  0  0  0  0
    7.8133  -19.0352   18.4405 C   0  0  2  0  0  0  0  0  0  0  0  0
    7.6576  -20.5185   18.5064 C   0  0  0  0  0  0  0  0  0  0  0  0
    8.5607  -18.4581   19.6289 C   0  0  0  0  0  0  0  0  0  0  0  0
    8.5599  -16.9560   19.4509 C   0  0  2  0  0  0  0  0  0  0  0  0
    9.5400  -16.6718   18.4021 N   0  0  0  0  0  0  0  0  0  0  0  0
    8.8872  -16.2317   20.6801 C   0  0  0  0  0  0  0  0  0  0  0  0
   10.0915  -16.0685   20.9887 O   0  0  0  0  0  0  0  0  0  0  0  0
    6.9286  -11.7237   28.2163 O   0  0  0  0  0  0  0  0  0  0  0  0
    6.9166  -12.3663   26.9872 C   0  0  0  0  0  0  0  0  0  0  0  0
    6.3018  -13.5954   26.8360 C   0  0  0  0  0  0  0  0  0  0  0  0
    6.3063  -14.2100   25.6010 C   0  0  0  0  0  0  0  0  0  0  0  0
    6.8941  -13.6673   24.4927 C   0  0  0  0  0  0  0  0  0  0  0  0
    6.9115  -14.2951   23.1894 C   0  0  0  0  0  0  0  0  0  0  0  0
    8.1385  -14.9886   22.7421 C   0  0  2  0  0  0  0  0  0  0  0  0
    7.8453  -15.7323   21.4921 N   0  0  0  0  0  0  0  0  0  0  0  0
    8.7728  -15.9548   23.6431 C   0  0  0  0  0  0  0  0  0  0  0  0
    8.3107  -17.1561   23.7539 O   0  0  0  0  0  0  0  0  0  0  0  0
    7.5102  -12.4219   24.6712 C   0  0  0  0  0  0  0  0  0  0  0  0
    7.5239  -11.7833   25.8860 C   0  0  0  0  0  0  0  0  0  0  0  0
   11.5471  -19.4226   25.0511 N   0  0  0  0  0  0  0  0  0  0  0  0
   12.3531  -18.3913   24.4790 C   0  0  0  0  0  0  0  0  0  0  0  0
   13.4079  -18.7447   23.9376 O   0  0  0  0  0  0  0  0  0  0  0  0
   11.9248  -16.9912   24.5459 C   0  0  0  0  0  0  0  0  0  0  0  0
   10.5841  -16.7918   25.1842 C   0  0  2  0  0  0  0  0  0  0  0  0
    9.9119  -15.7088   24.4523 N   0  0  0  0  0  0  0  0  0  0  0  0
   10.5965  -16.5347   26.6210 C   0  0  0  0  0  0  0  0  0  0  0  0
   11.0294  -17.3311   27.5096 O   0  0  0  0  0  0  0  0  0  0  0  0
   10.0955  -15.3158   27.0888 O   0  0  0  0  0  0  0  0  0  0  0  0
  2  1  1  1
  2  3  1  0
  2  4  1  0
  5  4  1  0
  5  7  1  0
  5  6  1  6
  7  8  2  0
  9 10  1  0
 10 11  2  0
 10 20  1  0
 11 12  1  0
 12 13  2  0
 13 14  1  0
 15 14  1  1
 15 17  1  0
 16 15  1  0
 16  7  1  0
 17 18  2  0
 17 26  1  0
 19 13  1  0
 20 19  2  0
 21 22  1  0
 22 24  1  0
 23 22  2  0
 25 24  1  6
 25 27  1  0
 26 25  1  0
 27 28  2  0
 27 29  1  0
M  END
$$$$
