LYN.pdb
     RDKit          3D

 29 29  0  0  1  0  0  0  0  0999 V2000
    7.1495  -19.9856   18.1501 C   0  0  0  0  0  0  0  0  0  0  0  0
    8.1921  -18.9280   17.8486 C   0  0  2  0  0  0  0  0  0  0  0  0
    9.2918  -19.4192   16.9664 C   0  0  0  0  0  0  0  0  0  0  0  0
    8.6850  -18.4074   19.1865 C   0  0  0  0  0  0  0  0  0  0  0  0
    8.6485  -16.8976   19.1018 C   0  0  2  0  0  0  0  0  0  0  0  0
    9.5931  -16.5281   18.0469 N   0  0  0  0  0  0  0  0  0  0  0  0
    8.9950  -16.2427   20.3643 C   0  0  0  0  0  0  0  0  0  0  0  0
   10.1886  -16.2528   20.7482 O   0  0  0  0  0  0  0  0  0  0  0  0
    7.1020  -11.8032   27.9728 O   0  0  0  0  0  0  0  0  0  0  0  0
    7.1205  -12.3633   26.7040 C   0  0  0  0  0  0  0  0  0  0  0  0
    7.7725  -11.7329   25.6605 C   0  0  0  0  0  0  0  0  0  0  0  0
    7.7736  -12.3145   24.4096 C   0  0  0  0  0  0  0  0  0  0  0  0
    7.1561  -13.5019   24.1316 C   0  0  0  0  0  0  0  0  0  0  0  0
    7.1439  -14.1283   22.8275 C   0  0  0  0  0  0  0  0  0  0  0  0
    8.2903  -14.9707   22.4241 C   0  0  2  0  0  0  0  0  0  0  0  0
    7.9831  -15.6146   21.1231 N   0  0  0  0  0  0  0  0  0  0  0  0
    8.7207  -16.0524   23.3143 C   0  0  0  0  0  0  0  0  0  0  0  0
    8.1820  -17.2241   23.2377 O   0  0  0  0  0  0  0  0  0  0  0  0
    6.5025  -14.1210   25.2049 C   0  0  0  0  0  0  0  0  0  0  0  0
    6.4823  -13.5696   26.4615 C   0  0  0  0  0  0  0  0  0  0  0  0
   13.3948  -18.9699   24.7747 N   0  0  0  0  0  0  0  0  0  0  0  0
   11.9781  -18.9193   24.5991 C   0  0  0  0  0  0  0  0  0  0  0  0
   11.3425  -19.9357   24.9049 O   0  0  0  0  0  0  0  0  0  0  0  0
   11.3371  -17.7078   24.0798 C   0  0  0  0  0  0  0  0  0  0  0  0
   10.2709  -17.1498   24.9722 C   0  0  2  0  0  0  0  0  0  0  0  0
    9.7293  -15.9560   24.3073 N   0  0  0  0  0  0  0  0  0  0  0  0
   10.6790  -16.8560   26.3426 C   0  0  0  0  0  0  0  0  0  0  0  0
   10.6908  -15.7054   26.8786 O   0  0  0  0  0  0  0  0  0  0  0  0
   11.0971  -17.9115   27.1591 O   0  0  0  0  0  0  0  0  0  0  0  0
  2  1  1  1
  2  3  1  0
  2  4  1  0
  5  4  1  0
  5  7  1  0
  5  6  1  6
  7  8  2  0
  9 10  1  0
 10 11  2  0
 10 20  1  0
 11 12  1  0
 12 13  2  0
 13 14  1  0
 15 14  1  1
 15 17  1  0
 16 15  1  0
 16  7  1  0
 17 18  2  0
 17 26  1  0
 19 13  1  0
 20 19  2  0
 21 22  1  0
 22 24  1  0
 23 22  2  0
 25 24  1  6
 25 27  1  0
 26 25  1  0
 27 28  2  0
 27 29  1  0
M  END
$$$$
