LYN.pdb
     RDKit          3D

 29 29  0  0  1  0  0  0  0  0999 V2000
    6.1345  -13.0358   26.4940 C   0  0  0  0  0  0  0  0  0  0  0  0
    7.0908  -13.6489   27.4970 C   0  0  2  0  0  0  0  0  0  0  0  0
    7.9957  -12.6483   28.1363 C   0  0  0  0  0  0  0  0  0  0  0  0
    7.8371  -14.7528   26.7700 C   0  0  0  0  0  0  0  0  0  0  0  0
    6.8228  -15.4552   25.8948 C   0  0  2  0  0  0  0  0  0  0  0  0
    6.5073  -16.7142   26.5706 N   0  0  0  0  0  0  0  0  0  0  0  0
    7.3086  -15.7007   24.5359 C   0  0  0  0  0  0  0  0  0  0  0  0
    7.5738  -16.8754   24.1868 O   0  0  0  0  0  0  0  0  0  0  0  0
    9.1627  -13.4904   16.0126 O   0  0  0  0  0  0  0  0  0  0  0  0
    8.7650  -13.5458   17.3402 C   0  0  0  0  0  0  0  0  0  0  0  0
    7.7931  -14.4387   17.7522 C   0  0  0  0  0  0  0  0  0  0  0  0
    7.4184  -14.4704   19.0794 C   0  0  0  0  0  0  0  0  0  0  0  0
    7.9605  -13.6558   20.0339 C   0  0  0  0  0  0  0  0  0  0  0  0
    7.5814  -13.6718   21.4300 C   0  0  0  0  0  0  0  0  0  0  0  0
    7.9791  -14.8223   22.2695 C   0  0  2  0  0  0  0  0  0  0  0  0
    7.4687  -14.6149   23.6473 N   0  0  0  0  0  0  0  0  0  0  0  0
    9.4040  -15.1335   22.4132 C   0  0  0  0  0  0  0  0  0  0  0  0
   10.0934  -14.6363   23.3860 O   0  0  0  0  0  0  0  0  0  0  0  0
    8.9429  -12.7602   19.5919 C   0  0  0  0  0  0  0  0  0  0  0  0
    9.3387  -12.7027   18.2791 C   0  0  0  0  0  0  0  0  0  0  0  0
   13.7463  -18.9623   22.4397 N   0  0  0  0  0  0  0  0  0  0  0  0
   13.2713  -18.0269   21.4701 C   0  0  0  0  0  0  0  0  0  0  0  0
   14.1090  -17.5636   20.6863 O   0  0  0  0  0  0  0  0  0  0  0  0
   11.8545  -17.6536   21.4304 C   0  0  0  0  0  0  0  0  0  0  0  0
   11.5892  -16.2223   21.7844 C   0  0  2  0  0  0  0  0  0  0  0  0
   10.1579  -15.9771   21.5573 N   0  0  0  0  0  0  0  0  0  0  0  0
   12.4137  -15.2341   21.0955 C   0  0  0  0  0  0  0  0  0  0  0  0
   13.4570  -14.6858   21.5669 O   0  0  0  0  0  0  0  0  0  0  0  0
   12.0488  -14.8383   19.8049 O   0  0  0  0  0  0  0  0  0  0  0  0
  2  1  1  6
  2  3  1  0
  2  4  1  0
  5  4  1  0
  5  7  1  0
  5  6  1  1
  7  8  2  0
  9 10  1  0
 10 11  2  0
 10 20  1  0
 11 12  1  0
 12 13  2  0
 13 14  1  0
 15 14  1  6
 15 17  1  0
 16 15  1  0
 16  7  1  0
 17 18  2  0
 17 26  1  0
 19 13  1  0
 20 19  2  0
 21 22  1  0
 22 24  1  0
 23 22  2  0
 25 24  1  6
 25 27  1  0
 26 25  1  0
 27 28  2  0
 27 29  1  0
M  END
$$$$
