LYN.pdb
     RDKit          3D

 29 29  0  0  1  0  0  0  0  0999 V2000
    8.9984  -15.6174   16.0388 C   0  0  0  0  0  0  0  0  0  0  0  0
    7.8557  -14.7750   16.5689 C   0  0  2  0  0  0  0  0  0  0  0  0
    7.3523  -13.7758   15.5805 C   0  0  0  0  0  0  0  0  0  0  0  0
    8.3407  -14.1460   17.8624 C   0  0  0  0  0  0  0  0  0  0  0  0
    8.7639  -15.2848   18.7636 C   0  0  2  0  0  0  0  0  0  0  0  0
    7.6803  -16.2668   18.7115 N   0  0  0  0  0  0  0  0  0  0  0  0
    9.0186  -14.8624   20.1419 C   0  0  0  0  0  0  0  0  0  0  0  0
   10.0997  -14.2881   20.4130 O   0  0  0  0  0  0  0  0  0  0  0  0
    7.0393  -12.7372   28.5904 O   0  0  0  0  0  0  0  0  0  0  0  0
    7.0254  -13.1518   27.2668 C   0  0  0  0  0  0  0  0  0  0  0  0
    6.5080  -14.3849   26.9158 C   0  0  0  0  0  0  0  0  0  0  0  0
    6.5081  -14.7695   25.5910 C   0  0  0  0  0  0  0  0  0  0  0  0
    6.9989  -13.9898   24.5813 C   0  0  0  0  0  0  0  0  0  0  0  0
    7.0097  -14.3741   23.1865 C   0  0  0  0  0  0  0  0  0  0  0  0
    8.2932  -14.7473   22.5539 C   0  0  2  0  0  0  0  0  0  0  0  0
    8.0464  -15.1085   21.1361 N   0  0  0  0  0  0  0  0  0  0  0  0
    9.0647  -15.8567   23.1211 C   0  0  0  0  0  0  0  0  0  0  0  0
    8.8462  -17.0730   22.7448 O   0  0  0  0  0  0  0  0  0  0  0  0
    7.5174  -12.7454   24.9621 C   0  0  0  0  0  0  0  0  0  0  0  0
    7.5326  -12.3321   26.2708 C   0  0  0  0  0  0  0  0  0  0  0  0
   13.5868  -18.7892   23.8442 N   0  0  0  0  0  0  0  0  0  0  0  0
   13.1822  -17.7352   24.7193 C   0  0  0  0  0  0  0  0  0  0  0  0
   13.6257  -17.7688   25.8738 O   0  0  0  0  0  0  0  0  0  0  0  0
   12.2843  -16.6788   24.2437 C   0  0  0  0  0  0  0  0  0  0  0  0
   10.8401  -16.9130   24.5662 C   0  0  2  0  0  0  0  0  0  0  0  0
   10.0935  -15.7395   24.0909 N   0  0  0  0  0  0  0  0  0  0  0  0
   10.5404  -17.2030   25.9651 C   0  0  0  0  0  0  0  0  0  0  0  0
   10.2718  -18.3491   26.4401 O   0  0  0  0  0  0  0  0  0  0  0  0
   10.5423  -16.1490   26.8841 O   0  0  0  0  0  0  0  0  0  0  0  0
  2  1  1  6
  2  3  1  0
  2  4  1  0
  5  4  1  0
  5  7  1  0
  5  6  1  1
  7  8  2  0
  9 10  1  0
 10 11  2  0
 10 20  1  0
 11 12  1  0
 12 13  2  0
 13 14  1  0
 15 14  1  1
 15 17  1  0
 16 15  1  0
 16  7  1  0
 17 18  2  0
 17 26  1  0
 19 13  1  0
 20 19  2  0
 21 22  1  0
 22 24  1  0
 23 22  2  0
 25 24  1  1
 25 27  1  0
 26 25  1  0
 27 28  2  0
 27 29  1  0
M  END
$$$$
