RYA.pdb
     RDKit          3D

 29 29  0  0  1  0  0  0  0  0999 V2000
   26.3132  -32.3122   -7.2448 N   0  0  0  0  0  0  0  0  0  0  0  0
   25.8403  -32.7824   -8.4981 C   0  0  0  0  0  0  0  0  0  0  0  0
   25.4224  -31.9724   -9.4262 N   0  0  0  0  0  0  0  0  0  0  0  0
   25.8156  -34.1787   -8.7646 N   0  0  0  0  0  0  0  0  0  0  0  0
   26.3688  -35.0731   -7.7368 C   0  0  0  0  0  0  0  0  0  0  0  0
   27.8147  -35.2812   -8.0027 C   0  0  0  0  0  0  0  0  0  0  0  0
   28.5235  -36.2432   -7.1293 C   0  0  0  0  0  0  0  0  0  0  0  0
   29.9875  -36.4083   -7.3654 C   0  0  2  0  0  0  0  0  0  0  0  0
   30.2125  -37.7849   -7.7644 N   0  0  0  0  0  0  0  0  0  0  0  0
   30.6498  -36.2723   -6.0179 C   0  0  0  0  0  0  0  0  0  0  0  0
   30.5207  -37.2882   -5.2524 O   0  0  0  0  0  0  0  0  0  0  0  0
   25.1301  -32.4018  -10.3235 O   0  0  0  0  0  0  0  0  0  0  0  0
   35.9878  -33.3716    0.4041 C   0  0  0  0  0  0  0  0  0  0  0  0
   35.2334  -33.5147   -0.7673 C   0  0  0  0  0  0  0  0  0  0  0  0
   35.5312  -34.5179   -1.6504 C   0  0  0  0  0  0  0  0  0  0  0  0
   34.7822  -34.6480   -2.7978 C   0  0  0  0  0  0  0  0  0  0  0  0
   33.7420  -33.7955   -3.0805 C   0  0  0  0  0  0  0  0  0  0  0  0
   32.9640  -33.9473   -4.3111 C   0  0  2  0  0  0  0  0  0  0  0  0
   31.9537  -35.0719   -4.2822 N   0  0  0  0  0  0  0  0  0  0  0  0
   31.3617  -35.1207   -5.6154 C   0  0  0  0  0  0  0  0  0  0  0  0
   30.9342  -34.8072   -3.2610 O   0  0  0  0  0  0  0  0  0  0  0  0
   30.0842  -33.8895   -3.3819 C   0  0  0  0  0  0  0  0  0  0  0  0
   33.4457  -32.7905   -2.1936 C   0  0  0  0  0  0  0  0  0  0  0  0
   34.1920  -32.6612   -1.0498 C   0  0  0  0  0  0  0  0  0  0  0  0
   29.0412  -36.5449   -0.8025 C   0  0  1  0  0  0  0  0  0  0  0  0
   29.8900  -35.2863   -1.0050 N   0  0  0  0  0  0  0  0  0  0  0  0
   30.8290  -35.5732   -2.0484 C   0  0  0  0  0  0  0  0  0  0  0  0
   30.5338  -34.8701    0.2575 O   0  0  0  0  0  0  0  0  0  0  0  0
   31.7778  -34.9134    0.4214 O   0  0  0  0  0  0  0  0  0  0  0  0
  1  2  1  0
  2  3  2  0
  4  5  1  0
  4  2  1  0
  6  5  1  0
  7  6  1  0
  8 10  1  0
  8  7  1  0
  8  9  1  1
 10 11  2  0
 12 13  1  0
 13 23  2  0
 13 14  1  0
 14 15  2  0
 15 16  1  0
 16 17  1  0
 18 17  1  6
 19 18  1  0
 19 10  1  0
 20 18  1  0
 20 21  2  0
 22 16  2  0
 23 22  1  0
 25 24  1  6
 25 27  1  0
 25 26  1  0
 26 20  1  0
 27 29  1  0
 28 27  2  0
M  END
$$$$
