RYA.pdb
     RDKit          3D

 29 29  0  0  1  0  0  0  0  0999 V2000
   26.8406  -22.4012  -15.9605 N   0  0  0  0  0  0  0  0  0  0  0  0
   26.5988  -23.7965  -16.0620 C   0  0  0  0  0  0  0  0  0  0  0  0
   27.5150  -24.6285  -16.4625 N   0  0  0  0  0  0  0  0  0  0  0  0
   25.3214  -24.3183  -15.7194 N   0  0  0  0  0  0  0  0  0  0  0  0
   24.2868  -23.3579  -15.3079 C   0  0  0  0  0  0  0  0  0  0  0  0
   24.0208  -23.5243  -13.8565 C   0  0  0  0  0  0  0  0  0  0  0  0
   22.9764  -22.6585  -13.2647 C   0  0  0  0  0  0  0  0  0  0  0  0
   21.6919  -22.5504  -14.0164 C   0  0  2  0  0  0  0  0  0  0  0  0
   21.7324  -21.3138  -14.7739 N   0  0  0  0  0  0  0  0  0  0  0  0
   20.6140  -22.3473  -12.9821 C   0  0  0  0  0  0  0  0  0  0  0  0
   20.6676  -21.2289  -12.3649 O   0  0  0  0  0  0  0  0  0  0  0  0
   27.2545  -25.6317  -16.4905 O   0  0  0  0  0  0  0  0  0  0  0  0
   16.2084  -26.6159  -16.3946 C   0  0  0  0  0  0  0  0  0  0  0  0
   16.4803  -25.6699  -15.3981 C   0  0  0  0  0  0  0  0  0  0  0  0
   17.1331  -24.5102  -15.7205 C   0  0  0  0  0  0  0  0  0  0  0  0
   17.3942  -23.5886  -14.7321 C   0  0  0  0  0  0  0  0  0  0  0  0
   17.0163  -23.8029  -13.4282 C   0  0  0  0  0  0  0  0  0  0  0  0
   17.3118  -22.8124  -12.3916 C   0  0  1  0  0  0  0  0  0  0  0  0
   18.6225  -23.0290  -11.6695 N   0  0  0  0  0  0  0  0  0  0  0  0
   19.6149  -23.3060  -12.7033 C   0  0  0  0  0  0  0  0  0  0  0  0
   18.5036  -24.1548  -10.7364 O   0  0  0  0  0  0  0  0  0  0  0  0
   18.6466  -25.3486  -11.1019 C   0  0  0  0  0  0  0  0  0  0  0  0
   16.3623  -24.9665  -13.1078 C   0  0  0  0  0  0  0  0  0  0  0  0
   16.1017  -25.8848  -14.0930 C   0  0  0  0  0  0  0  0  0  0  0  0
   17.8067  -24.4530   -7.0356 C   0  0  1  0  0  0  0  0  0  0  0  0
   18.0919  -25.0650   -8.4102 N   0  0  0  0  0  0  0  0  0  0  0  0
   18.2156  -23.9805   -9.3383 C   0  0  0  0  0  0  0  0  0  0  0  0
   17.0448  -26.0360   -8.7877 O   0  0  0  0  0  0  0  0  0  0  0  0
   17.1008  -27.2453   -8.4548 O   0  0  0  0  0  0  0  0  0  0  0  0
  1  2  1  0
  2  3  2  0
  4  5  1  0
  4  2  1  0
  6  5  1  0
  7  6  1  0
  8 10  1  0
  8  7  1  0
  8  9  1  6
 10 11  2  0
 12 13  1  0
 13 23  2  0
 13 14  1  0
 14 15  2  0
 15 16  1  0
 16 17  1  0
 18 17  1  6
 19 18  1  0
 19 10  1  0
 20 18  1  0
 20 21  2  0
 22 16  2  0
 23 22  1  0
 25 24  1  1
 25 27  1  0
 25 26  1  0
 26 20  1  0
 27 29  1  0
 28 27  2  0
M  END
$$$$
