RYA.pdb
     RDKit          3D

 29 29  0  0  1  0  0  0  0  0999 V2000
   29.7927  -23.6023  -18.3709 N   0  0  0  0  0  0  0  0  0  0  0  0
   29.6305  -25.0078  -18.2532 C   0  0  0  0  0  0  0  0  0  0  0  0
   30.5765  -25.8411  -18.5739 N   0  0  0  0  0  0  0  0  0  0  0  0
   28.4028  -25.5388  -17.7715 N   0  0  0  0  0  0  0  0  0  0  0  0
   27.3585  -24.5802  -17.3807 C   0  0  0  0  0  0  0  0  0  0  0  0
   27.5038  -24.2673  -15.9364 C   0  0  0  0  0  0  0  0  0  0  0  0
   26.2631  -23.9569  -15.1915 C   0  0  0  0  0  0  0  0  0  0  0  0
   25.2037  -23.2151  -15.9358 C   0  0  2  0  0  0  0  0  0  0  0  0
   25.7525  -21.9238  -16.3044 N   0  0  0  0  0  0  0  0  0  0  0  0
   24.1176  -22.9137  -14.9345 C   0  0  0  0  0  0  0  0  0  0  0  0
   23.6177  -23.9410  -14.3606 O   0  0  0  0  0  0  0  0  0  0  0  0
   30.3972  -26.8451  -18.3872 O   0  0  0  0  0  0  0  0  0  0  0  0
   26.6020  -20.7621   -8.6876 C   0  0  0  0  0  0  0  0  0  0  0  0
   25.6907  -20.6095   -9.7403 C   0  0  0  0  0  0  0  0  0  0  0  0
   26.1071  -20.0710  -10.9283 C   0  0  0  0  0  0  0  0  0  0  0  0
   25.2017  -19.9265  -11.9551 C   0  0  0  0  0  0  0  0  0  0  0  0
   23.8888  -20.3092  -11.8180 C   0  0  0  0  0  0  0  0  0  0  0  0
   22.9412  -20.1387  -12.9206 C   0  0  2  0  0  0  0  0  0  0  0  0
   22.6060  -21.4115  -13.6648 N   0  0  0  0  0  0  0  0  0  0  0  0
   23.6743  -21.6053  -14.6402 C   0  0  0  0  0  0  0  0  0  0  0  0
   21.3036  -21.2796  -14.3272 O   0  0  0  0  0  0  0  0  0  0  0  0
   21.1181  -20.5012  -15.2962 C   0  0  0  0  0  0  0  0  0  0  0  0
   23.4741  -20.8487  -10.6258 C   0  0  0  0  0  0  0  0  0  0  0  0
   24.3765  -20.9929   -9.6027 C   0  0  0  0  0  0  0  0  0  0  0  0
   18.0217  -23.1021  -14.1018 C   0  0  1  0  0  0  0  0  0  0  0  0
   18.8561  -21.8931  -14.5344 N   0  0  0  0  0  0  0  0  0  0  0  0
   20.1440  -22.0270  -13.9210 C   0  0  0  0  0  0  0  0  0  0  0  0
   18.1773  -20.6274  -14.1895 O   0  0  0  0  0  0  0  0  0  0  0  0
   18.4109  -20.0112  -13.1208 O   0  0  0  0  0  0  0  0  0  0  0  0
  1  2  1  0
  2  3  2  0
  4  5  1  0
  4  2  1  0
  6  5  1  0
  7  6  1  0
  8 10  1  0
  8  7  1  0
  8  9  1  1
 10 11  2  0
 12 13  1  0
 13 23  2  0
 13 14  1  0
 14 15  2  0
 15 16  1  0
 16 17  1  0
 18 17  1  1
 19 18  1  0
 19 10  1  0
 20 18  1  0
 20 21  2  0
 22 16  2  0
 23 22  1  0
 25 24  1  6
 25 27  1  0
 25 26  1  0
 26 20  1  0
 27 29  1  0
 28 27  2  0
M  END
$$$$
