RYA.pdb
     RDKit          3D

 29 29  0  0  1  0  0  0  0  0999 V2000
   26.0847  -21.8776  -12.5034 N   0  0  0  0  0  0  0  0  0  0  0  0
   25.4961  -21.2240  -11.3890 C   0  0  0  0  0  0  0  0  0  0  0  0
   26.2068  -20.5691  -10.5183 N   0  0  0  0  0  0  0  0  0  0  0  0
   24.0875  -21.2764  -11.2029 N   0  0  0  0  0  0  0  0  0  0  0  0
   23.3031  -22.0352  -12.1883 C   0  0  0  0  0  0  0  0  0  0  0  0
   22.7342  -21.0925  -13.1846 C   0  0  0  0  0  0  0  0  0  0  0  0
   22.9146  -21.4393  -14.6121 C   0  0  0  0  0  0  0  0  0  0  0  0
   24.2516  -21.1484  -15.2074 C   0  0  2  0  0  0  0  0  0  0  0  0
   24.9357  -20.2307  -14.3160 N   0  0  0  0  0  0  0  0  0  0  0  0
   23.9903  -20.3593  -16.4652 C   0  0  0  0  0  0  0  0  0  0  0  0
   23.3836  -21.0053  -17.3867 O   0  0  0  0  0  0  0  0  0  0  0  0
   25.6900  -20.1027   -9.7500 O   0  0  0  0  0  0  0  0  0  0  0  0
   17.9224  -19.0446  -16.1981 C   0  0  0  0  0  0  0  0  0  0  0  0
   19.2065  -18.5892  -16.5231 C   0  0  0  0  0  0  0  0  0  0  0  0
   19.5804  -18.4877  -17.8365 C   0  0  0  0  0  0  0  0  0  0  0  0
   20.8450  -18.0387  -18.1427 C   0  0  0  0  0  0  0  0  0  0  0  0
   21.7432  -17.6894  -17.1628 C   0  0  0  0  0  0  0  0  0  0  0  0
   23.0859  -17.2221  -17.5113 C   0  0  2  0  0  0  0  0  0  0  0  0
   24.0594  -18.3201  -17.8761 N   0  0  0  0  0  0  0  0  0  0  0  0
   24.3778  -19.0111  -16.6305 C   0  0  0  0  0  0  0  0  0  0  0  0
   25.2643  -17.7439  -18.4832 O   0  0  0  0  0  0  0  0  0  0  0  0
   26.1046  -17.0883  -17.8174 C   0  0  0  0  0  0  0  0  0  0  0  0
   21.3657  -17.7923  -15.8470 C   0  0  0  0  0  0  0  0  0  0  0  0
   20.1052  -18.2395  -15.5419 C   0  0  0  0  0  0  0  0  0  0  0  0
   26.9731  -18.1023  -21.8016 C   0  0  1  0  0  0  0  0  0  0  0  0
   26.7523  -17.3409  -20.4914 N   0  0  0  0  0  0  0  0  0  0  0  0
   25.5755  -17.8836  -19.8802 C   0  0  0  0  0  0  0  0  0  0  0  0
   26.6644  -15.8859  -20.7301 O   0  0  0  0  0  0  0  0  0  0  0  0
   25.5647  -15.2876  -20.8258 O   0  0  0  0  0  0  0  0  0  0  0  0
  1  2  1  0
  2  3  2  0
  4  5  1  0
  4  2  1  0
  6  5  1  0
  7  6  1  0
  8 10  1  0
  8  7  1  0
  8  9  1  1
 10 11  2  0
 12 13  1  0
 13 23  2  0
 13 14  1  0
 14 15  2  0
 15 16  1  0
 16 17  1  0
 18 17  1  6
 19 18  1  0
 19 10  1  0
 20 18  1  0
 20 21  2  0
 22 16  2  0
 23 22  1  0
 25 24  1  1
 25 27  1  0
 25 26  1  0
 26 20  1  0
 27 29  1  0
 28 27  2  0
M  END
$$$$
