RYA.pdb
     RDKit          3D

 29 29  0  0  1  0  0  0  0  0999 V2000
   29.0137  -24.3930  -16.3486 N   0  0  0  0  0  0  0  0  0  0  0  0
   29.5064  -23.8470  -17.5629 C   0  0  0  0  0  0  0  0  0  0  0  0
   30.4435  -24.4298  -18.2517 N   0  0  0  0  0  0  0  0  0  0  0  0
   28.9709  -22.6260  -18.0565 N   0  0  0  0  0  0  0  0  0  0  0  0
   27.8900  -21.9994  -17.2812 C   0  0  0  0  0  0  0  0  0  0  0  0
   28.4076  -20.7652  -16.6380 C   0  0  0  0  0  0  0  0  0  0  0  0
   27.4553  -19.9943  -15.8076 C   0  0  0  0  0  0  0  0  0  0  0  0
   26.0382  -19.9585  -16.2735 C   0  0  2  0  0  0  0  0  0  0  0  0
   25.8741  -18.7638  -17.0799 N   0  0  0  0  0  0  0  0  0  0  0  0
   25.1962  -19.7268  -15.0446 C   0  0  0  0  0  0  0  0  0  0  0  0
   25.1470  -18.5116  -14.6501 O   0  0  0  0  0  0  0  0  0  0  0  0
   30.6944  -23.9956  -19.1592 O   0  0  0  0  0  0  0  0  0  0  0  0
   19.2186  -17.8554  -16.9128 C   0  0  0  0  0  0  0  0  0  0  0  0
   19.9941  -18.6355  -16.0456 C   0  0  0  0  0  0  0  0  0  0  0  0
   19.9936  -18.3657  -14.7031 C   0  0  0  0  0  0  0  0  0  0  0  0
   20.7598  -19.1397  -13.8615 C   0  0  0  0  0  0  0  0  0  0  0  0
   21.5266  -20.1775  -14.3346 C   0  0  0  0  0  0  0  0  0  0  0  0
   22.3404  -20.9825  -13.4222 C   0  0  2  0  0  0  0  0  0  0  0  0
   23.7306  -20.4414  -13.1751 N   0  0  0  0  0  0  0  0  0  0  0  0
   24.5082  -20.7587  -14.3689 C   0  0  0  0  0  0  0  0  0  0  0  0
   24.3115  -21.0703  -11.9838 O   0  0  0  0  0  0  0  0  0  0  0  0
   24.2537  -22.3093  -11.7820 C   0  0  0  0  0  0  0  0  0  0  0  0
   21.5254  -20.4456  -15.6809 C   0  0  0  0  0  0  0  0  0  0  0  0
   20.7614  -19.6744  -16.5196 C   0  0  0  0  0  0  0  0  0  0  0  0
   26.1656  -19.8094   -8.9483 C   0  0  1  0  0  0  0  0  0  0  0  0
   25.2841  -20.8415   -9.6576 N   0  0  0  0  0  0  0  0  0  0  0  0
   24.9887  -20.3216  -10.9596 C   0  0  0  0  0  0  0  0  0  0  0  0
   24.0750  -21.1430   -8.8647 O   0  0  0  0  0  0  0  0  0  0  0  0
   22.9610  -20.6216   -9.1166 O   0  0  0  0  0  0  0  0  0  0  0  0
  1  2  1  0
  2  3  2  0
  4  5  1  0
  4  2  1  0
  6  5  1  0
  7  6  1  0
  8 10  1  0
  8  7  1  0
  8  9  1  6
 10 11  2  0
 12 13  1  0
 13 23  2  0
 13 14  1  0
 14 15  2  0
 15 16  1  0
 16 17  1  0
 18 17  1  6
 19 18  1  0
 19 10  1  0
 20 18  1  0
 20 21  2  0
 22 16  2  0
 23 22  1  0
 25 24  1  6
 25 27  1  0
 25 26  1  0
 26 20  1  0
 27 29  1  0
 28 27  2  0
M  END
$$$$
