RYA.pdb
     RDKit          3D

 29 29  0  0  1  0  0  0  0  0999 V2000
   12.8832  -29.1919   -4.3813 N   0  0  0  0  0  0  0  0  0  0  0  0
   11.9849  -28.3609   -5.1008 C   0  0  0  0  0  0  0  0  0  0  0  0
   10.9888  -28.8477   -5.7813 N   0  0  0  0  0  0  0  0  0  0  0  0
   12.1641  -26.9505   -5.0887 N   0  0  0  0  0  0  0  0  0  0  0  0
   13.5412  -26.4448   -4.9894 C   0  0  0  0  0  0  0  0  0  0  0  0
   13.8540  -26.1672   -3.5646 C   0  0  0  0  0  0  0  0  0  0  0  0
   13.5274  -24.8148   -3.0597 C   0  0  0  0  0  0  0  0  0  0  0  0
   14.5324  -23.7429   -3.3196 C   0  0  2  0  0  0  0  0  0  0  0  0
   15.6984  -24.3721   -3.9106 N   0  0  0  0  0  0  0  0  0  0  0  0
   14.9872  -23.2547   -1.9677 C   0  0  0  0  0  0  0  0  0  0  0  0
   16.0760  -23.7773   -1.5477 O   0  0  0  0  0  0  0  0  0  0  0  0
   10.3861  -28.1663   -6.2788 O   0  0  0  0  0  0  0  0  0  0  0  0
   16.0232  -17.7926    4.9033 C   0  0  0  0  0  0  0  0  0  0  0  0
   15.5807  -18.4475    3.7469 C   0  0  0  0  0  0  0  0  0  0  0  0
   16.4832  -19.0860    2.9389 C   0  0  0  0  0  0  0  0  0  0  0  0
   16.0356  -19.7260    1.8054 C   0  0  0  0  0  0  0  0  0  0  0  0
   14.7046  -19.7402    1.4632 C   0  0  0  0  0  0  0  0  0  0  0  0
   14.2520  -20.4202    0.2485 C   0  0  1  0  0  0  0  0  0  0  0  0
   14.8615  -21.7862    0.0277 N   0  0  0  0  0  0  0  0  0  0  0  0
   14.2794  -22.2956   -1.2100 C   0  0  0  0  0  0  0  0  0  0  0  0
   14.5495  -22.6660    1.1594 O   0  0  0  0  0  0  0  0  0  0  0  0
   13.4208  -23.1990    1.3051 C   0  0  0  0  0  0  0  0  0  0  0  0
   13.8021  -19.0991    2.2750 C   0  0  0  0  0  0  0  0  0  0  0  0
   14.2482  -18.4616    3.4049 C   0  0  0  0  0  0  0  0  0  0  0  0
   16.4979  -24.6039    3.6299 C   0  0  1  0  0  0  0  0  0  0  0  0
   15.2179  -23.8274    3.3074 N   0  0  0  0  0  0  0  0  0  0  0  0
   15.5060  -22.9850    2.1848 C   0  0  0  0  0  0  0  0  0  0  0  0
   14.7382  -23.0791    4.4871 O   0  0  0  0  0  0  0  0  0  0  0  0
   14.2000  -21.9489    4.3905 O   0  0  0  0  0  0  0  0  0  0  0  0
  1  2  1  0
  2  3  2  0
  4  5  1  0
  4  2  1  0
  6  5  1  0
  7  6  1  0
  8 10  1  0
  8  7  1  0
  8  9  1  1
 10 11  2  0
 12 13  1  0
 13 23  2  0
 13 14  1  0
 14 15  2  0
 15 16  1  0
 16 17  1  0
 18 17  1  6
 19 18  1  0
 19 10  1  0
 20 18  1  0
 20 21  2  0
 22 16  2  0
 23 22  1  0
 25 24  1  6
 25 27  1  0
 25 26  1  0
 26 20  1  0
 27 29  1  0
 28 27  2  0
M  END
$$$$
