RYA.pdb
     RDKit          3D

 29 29  0  0  1  0  0  0  0  0999 V2000
   22.9987  -26.6199  -15.6575 N   0  0  0  0  0  0  0  0  0  0  0  0
   21.7410  -26.2109  -15.1415 C   0  0  0  0  0  0  0  0  0  0  0  0
   20.8282  -27.0676  -14.7880 N   0  0  0  0  0  0  0  0  0  0  0  0
   21.4527  -24.8259  -14.9998 N   0  0  0  0  0  0  0  0  0  0  0  0
   22.5523  -23.8787  -15.2362 C   0  0  0  0  0  0  0  0  0  0  0  0
   22.0217  -22.6879  -15.9471 C   0  0  0  0  0  0  0  0  0  0  0  0
   21.9657  -21.4223  -15.1816 C   0  0  0  0  0  0  0  0  0  0  0  0
   22.5207  -21.4529  -13.7968 C   0  0  2  0  0  0  0  0  0  0  0  0
   21.4482  -21.0916  -12.8891 N   0  0  0  0  0  0  0  0  0  0  0  0
   23.5100  -20.3183  -13.7141 C   0  0  0  0  0  0  0  0  0  0  0  0
   23.0097  -19.1957  -13.3615 O   0  0  0  0  0  0  0  0  0  0  0  0
   19.9474  -26.6791  -14.4030 O   0  0  0  0  0  0  0  0  0  0  0  0
   25.4539  -20.7828   -7.5352 C   0  0  0  0  0  0  0  0  0  0  0  0
   25.8123  -20.5520   -8.8694 C   0  0  0  0  0  0  0  0  0  0  0  0
   25.9846  -21.6106   -9.7207 C   0  0  0  0  0  0  0  0  0  0  0  0
   26.3366  -21.3705  -11.0295 C   0  0  0  0  0  0  0  0  0  0  0  0
   26.5201  -20.0939  -11.5043 C   0  0  0  0  0  0  0  0  0  0  0  0
   26.9025  -19.8623  -12.8982 C   0  0  2  0  0  0  0  0  0  0  0  0
   25.7889  -19.3405  -13.7779 N   0  0  0  0  0  0  0  0  0  0  0  0
   24.8854  -20.4651  -13.9997 C   0  0  0  0  0  0  0  0  0  0  0  0
   26.3378  -18.8461  -15.0454 O   0  0  0  0  0  0  0  0  0  0  0  0
   26.6306  -19.6141  -15.9961 C   0  0  0  0  0  0  0  0  0  0  0  0
   26.3469  -19.0345  -10.6487 C   0  0  0  0  0  0  0  0  0  0  0  0
   25.9957  -19.2739   -9.3444 C   0  0  0  0  0  0  0  0  0  0  0  0
   27.3978  -15.4540  -16.3159 C   0  0  1  0  0  0  0  0  0  0  0  0
   27.1316  -16.9482  -16.5209 N   0  0  0  0  0  0  0  0  0  0  0  0
   26.5823  -17.4514  -15.2971 C   0  0  0  0  0  0  0  0  0  0  0  0
   28.3592  -17.6545  -16.9404 O   0  0  0  0  0  0  0  0  0  0  0  0
   29.0503  -18.3306  -16.1394 O   0  0  0  0  0  0  0  0  0  0  0  0
  1  2  1  0
  2  3  2  0
  4  5  1  0
  4  2  1  0
  6  5  1  0
  7  6  1  0
  8 10  1  0
  8  7  1  0
  8  9  1  1
 10 11  2  0
 12 13  1  0
 13 23  2  0
 13 14  1  0
 14 15  2  0
 15 16  1  0
 16 17  1  0
 18 17  1  1
 19 18  1  0
 19 10  1  0
 20 18  1  0
 20 21  2  0
 22 16  2  0
 23 22  1  0
 25 24  1  6
 25 27  1  0
 25 26  1  0
 26 20  1  0
 27 29  1  0
 28 27  2  0
M  END
$$$$
