RYA.pdb
     RDKit          3D

 29 29  0  0  1  0  0  0  0  0999 V2000
   21.1157  -11.1115  -17.8802 N   0  0  0  0  0  0  0  0  0  0  0  0
   20.9335  -12.5084  -18.0562 C   0  0  0  0  0  0  0  0  0  0  0  0
   21.8969  -13.2851  -18.4571 N   0  0  0  0  0  0  0  0  0  0  0  0
   19.6654  -13.0939  -17.7908 N   0  0  0  0  0  0  0  0  0  0  0  0
   18.5643  -12.1880  -17.4315 C   0  0  0  0  0  0  0  0  0  0  0  0
   17.3403  -12.9895  -17.1783 C   0  0  0  0  0  0  0  0  0  0  0  0
   16.1140  -12.2422  -16.8199 C   0  0  0  0  0  0  0  0  0  0  0  0
   15.4791  -12.5853  -15.5139 C   0  0  2  0  0  0  0  0  0  0  0  0
   14.6173  -13.7311  -15.7356 N   0  0  0  0  0  0  0  0  0  0  0  0
   14.5480  -11.4459  -15.1856 C   0  0  0  0  0  0  0  0  0  0  0  0
   13.4306  -11.4712  -15.8065 O   0  0  0  0  0  0  0  0  0  0  0  0
   21.6539  -14.2777  -18.6325 O   0  0  0  0  0  0  0  0  0  0  0  0
    9.5138  -13.1993  -11.6764 C   0  0  0  0  0  0  0  0  0  0  0  0
   10.5011  -12.2368  -11.9232 C   0  0  0  0  0  0  0  0  0  0  0  0
   10.1609  -11.0485  -12.5125 C   0  0  0  0  0  0  0  0  0  0  0  0
   11.1404  -10.1109  -12.7494 C   0  0  0  0  0  0  0  0  0  0  0  0
   12.4527  -10.3372  -12.4095 C   0  0  0  0  0  0  0  0  0  0  0  0
   13.4793   -9.3290  -12.6783 C   0  0  2  0  0  0  0  0  0  0  0  0
   13.9617   -9.2885  -14.1108 N   0  0  0  0  0  0  0  0  0  0  0  0
   14.8677  -10.4221  -14.2667 C   0  0  0  0  0  0  0  0  0  0  0  0
   14.6516   -8.0209  -14.3744 O   0  0  0  0  0  0  0  0  0  0  0  0
   14.0659   -6.9109  -14.3103 C   0  0  0  0  0  0  0  0  0  0  0  0
   12.7909  -11.5294  -11.8189 C   0  0  0  0  0  0  0  0  0  0  0  0
   11.8146  -12.4636  -11.5825 C   0  0  0  0  0  0  0  0  0  0  0  0
   16.7928   -6.6361  -16.5703 C   0  0  1  0  0  0  0  0  0  0  0  0
   16.7243   -6.7300  -15.0432 N   0  0  0  0  0  0  0  0  0  0  0  0
   16.0446   -7.9505  -14.7249 C   0  0  0  0  0  0  0  0  0  0  0  0
   16.0748   -5.5358  -14.4655 O   0  0  0  0  0  0  0  0  0  0  0  0
   14.8446   -5.4958  -14.2178 O   0  0  0  0  0  0  0  0  0  0  0  0
  1  2  1  0
  2  3  2  0
  4  5  1  0
  4  2  1  0
  6  5  1  0
  7  6  1  0
  8 10  1  0
  8  7  1  0
  8  9  1  6
 10 11  2  0
 12 13  1  0
 13 23  2  0
 13 14  1  0
 14 15  2  0
 15 16  1  0
 16 17  1  0
 18 17  1  6
 19 18  1  0
 19 10  1  0
 20 18  1  0
 20 21  2  0
 22 16  2  0
 23 22  1  0
 25 24  1  1
 25 27  1  0
 25 26  1  0
 26 20  1  0
 27 29  1  0
 28 27  2  0
M  END
$$$$
