RYA.pdb
     RDKit          3D

 29 29  0  0  1  0  0  0  0  0999 V2000
   29.0586  -20.2318  -22.5225 N   0  0  0  0  0  0  0  0  0  0  0  0
   28.5670  -19.0977  -21.8242 C   0  0  0  0  0  0  0  0  0  0  0  0
   28.3932  -17.9489  -22.4091 N   0  0  0  0  0  0  0  0  0  0  0  0
   28.2495  -19.2025  -20.4423 N   0  0  0  0  0  0  0  0  0  0  0  0
   28.4238  -20.5167  -19.8062 C   0  0  0  0  0  0  0  0  0  0  0  0
   27.1077  -21.2010  -19.7393 C   0  0  0  0  0  0  0  0  0  0  0  0
   26.6379  -21.6170  -18.3989 C   0  0  0  0  0  0  0  0  0  0  0  0
   27.6566  -22.2190  -17.4899 C   0  0  2  0  0  0  0  0  0  0  0  0
   27.8065  -23.6125  -17.8647 N   0  0  0  0  0  0  0  0  0  0  0  0
   27.0350  -22.2420  -16.1166 C   0  0  0  0  0  0  0  0  0  0  0  0
   26.4266  -23.3272  -15.8219 O   0  0  0  0  0  0  0  0  0  0  0  0
   27.9869  -17.1886  -21.8330 O   0  0  0  0  0  0  0  0  0  0  0  0
   25.4674  -20.1076   -7.6695 C   0  0  0  0  0  0  0  0  0  0  0  0
   25.9332  -20.1844   -8.9882 C   0  0  0  0  0  0  0  0  0  0  0  0
   26.5910  -21.3076   -9.4133 C   0  0  0  0  0  0  0  0  0  0  0  0
   27.0436  -21.3708  -10.7117 C   0  0  0  0  0  0  0  0  0  0  0  0
   26.8522  -20.3340  -11.5934 C   0  0  0  0  0  0  0  0  0  0  0  0
   27.3494  -20.4195  -12.9675 C   0  0  1  0  0  0  0  0  0  0  0  0
   26.5211  -21.2921  -13.8833 N   0  0  0  0  0  0  0  0  0  0  0  0
   27.1091  -21.1593  -15.2126 C   0  0  0  0  0  0  0  0  0  0  0  0
   25.1237  -20.8453  -13.8769 O   0  0  0  0  0  0  0  0  0  0  0  0
   24.7154  -19.9050  -14.6038 C   0  0  0  0  0  0  0  0  0  0  0  0
   26.1926  -19.2091  -11.1645 C   0  0  0  0  0  0  0  0  0  0  0  0
   25.7412  -19.1464   -9.8705 C   0  0  0  0  0  0  0  0  0  0  0  0
   22.7725  -19.4850  -12.8443 C   0  0  2  0  0  0  0  0  0  0  0  0
   22.7542  -21.0083  -13.0006 N   0  0  0  0  0  0  0  0  0  0  0  0
   24.1180  -21.4454  -13.0424 C   0  0  0  0  0  0  0  0  0  0  0  0
   21.9783  -21.4116  -14.1911 O   0  0  0  0  0  0  0  0  0  0  0  0
   20.7510  -21.1722  -14.3039 O   0  0  0  0  0  0  0  0  0  0  0  0
  1  2  1  0
  2  3  2  0
  4  5  1  0
  4  2  1  0
  6  5  1  0
  7  6  1  0
  8 10  1  0
  8  7  1  0
  8  9  1  6
 10 11  2  0
 12 13  1  0
 13 23  2  0
 13 14  1  0
 14 15  2  0
 15 16  1  0
 16 17  1  0
 18 17  1  1
 19 18  1  0
 19 10  1  0
 20 18  1  0
 20 21  2  0
 22 16  2  0
 23 22  1  0
 25 24  1  1
 25 27  1  0
 25 26  1  0
 26 20  1  0
 27 29  1  0
 28 27  2  0
M  END
$$$$
