FCK.pdb
     RDKit          3D

 27 27  0  0  1  0  0  0  0  0999 V2000
    6.0317  -17.9258   25.6147 N   0  0  0  0  0  0  0  0  0  0  0  0
    6.4743  -16.5764   25.4227 C   0  0  1  0  0  0  0  0  0  0  0  0
    7.0198  -16.0125   26.7172 C   0  0  0  0  0  0  0  0  0  0  0  0
    6.9495  -14.5340   26.6322 C   0  0  0  0  0  0  0  0  0  0  0  0
    8.0862  -13.7883   26.4112 C   0  0  0  0  0  0  0  0  0  0  0  0
    8.0314  -12.4081   26.3323 C   0  0  0  0  0  0  0  0  0  0  0  0
    6.8083  -11.7437   26.4775 C   0  0  0  0  0  0  0  0  0  0  0  0
    5.6918  -12.5013   26.6963 C   0  0  0  0  0  0  0  0  0  0  0  0
    5.7552  -13.8911   26.7745 C   0  0  0  0  0  0  0  0  0  0  0  0
    7.5087  -16.5442   24.3463 C   0  0  0  0  0  0  0  0  0  0  0  0
    8.4381  -17.3880   24.2823 O   0  0  0  0  0  0  0  0  0  0  0  0
    7.5032  -15.5393   23.3105 N   0  0  0  0  0  0  0  0  0  0  0  0
    8.4906  -15.5449   22.2526 C   0  0  1  0  0  0  0  0  0  0  0  0
    8.0938  -14.6174   21.1200 C   0  0  0  0  0  0  0  0  0  0  0  0
    6.4214  -15.0135   20.5157 S   0  0  0  0  0  0  0  0  0  0  0  0
    9.8530  -15.3075   22.7380 C   0  0  0  0  0  0  0  0  0  0  0  0
   10.0529  -14.4733   23.6817 O   0  0  0  0  0  0  0  0  0  0  0  0
   11.0133  -15.9295   22.2522 N   0  0  0  0  0  0  0  0  0  0  0  0
   12.0991  -16.4855   22.9483 C   0  0  1  0  0  0  0  0  0  0  0  0
   11.8440  -17.6980   23.7727 C   0  0  0  0  0  0  0  0  0  0  0  0
   13.0675  -18.2458   24.4651 C   0  0  0  0  0  0  0  0  0  0  0  0
   12.8313  -18.3641   25.9468 C   0  0  0  0  0  0  0  0  0  0  0  0
   13.9855  -18.9693   26.7059 C   0  0  0  0  0  0  0  0  0  0  0  0
   13.6288  -20.2870   27.2126 N   0  0  0  0  0  0  0  0  0  0  0  0
   13.1863  -16.8287   21.9952 C   0  0  0  0  0  0  0  0  0  0  0  0
   14.3590  -16.5661   22.3018 O   0  0  0  0  0  0  0  0  0  0  0  0
   12.8818  -17.4304   20.7909 O   0  0  0  0  0  0  0  0  0  0  0  0
  2  1  1  1
  2 10  1  0
  2  3  1  0
  3  4  1  0
  4  5  2  0
  4  9  1  0
  5  6  1  0
  6  7  2  0
  8  7  1  0
  9  8  2  0
 10 12  1  0
 11 10  2  0
 13 12  1  0
 13 14  1  6
 13 16  1  0
 14 15  1  0
 16 18  1  0
 16 17  2  0
 18 19  1  0
 19 25  1  0
 19 20  1  6
 21 20  1  0
 22 21  1  0
 23 22  1  0
 24 23  1  0
 25 26  2  0
 25 27  1  0
M  END
$$$$
