FCK.pdb
     RDKit          3D

 27 27  0  0  1  0  0  0  0  0999 V2000
    5.9560  -17.8603   25.4035 N   0  0  0  0  0  0  0  0  0  0  0  0
    6.4625  -16.5271   25.2623 C   0  0  1  0  0  0  0  0  0  0  0  0
    7.0703  -16.0544   26.5655 C   0  0  0  0  0  0  0  0  0  0  0  0
    7.0221  -14.5727   26.5764 C   0  0  0  0  0  0  0  0  0  0  0  0
    5.8233  -13.9100   26.7200 C   0  0  0  0  0  0  0  0  0  0  0  0
    5.7674  -12.5276   26.7295 C   0  0  0  0  0  0  0  0  0  0  0  0
    6.9397  -11.7758   26.5917 C   0  0  0  0  0  0  0  0  0  0  0  0
    8.1193  -12.4518   26.4502 C   0  0  0  0  0  0  0  0  0  0  0  0
    8.1672  -13.8444   26.4417 C   0  0  0  0  0  0  0  0  0  0  0  0
    7.4684  -16.4952   24.1593 C   0  0  0  0  0  0  0  0  0  0  0  0
    8.3666  -17.3669   24.0437 O   0  0  0  0  0  0  0  0  0  0  0  0
    7.4696  -15.4584   23.1554 N   0  0  0  0  0  0  0  0  0  0  0  0
    8.4928  -15.4028   22.1335 C   0  0  1  0  0  0  0  0  0  0  0  0
    8.1329  -14.4119   21.0430 C   0  0  0  0  0  0  0  0  0  0  0  0
    6.5804  -14.8921   20.2196 S   0  0  0  0  0  0  0  0  0  0  0  0
    9.8372  -15.1932   22.6783 C   0  0  0  0  0  0  0  0  0  0  0  0
   10.0608  -14.2028   23.4498 O   0  0  0  0  0  0  0  0  0  0  0  0
   10.9550  -16.0043   22.4295 N   0  0  0  0  0  0  0  0  0  0  0  0
   12.2112  -16.0283   23.0572 C   0  0  1  0  0  0  0  0  0  0  0  0
   12.2707  -16.5008   24.4672 C   0  0  0  0  0  0  0  0  0  0  0  0
   11.6471  -17.8559   24.6939 C   0  0  0  0  0  0  0  0  0  0  0  0
   11.7847  -18.2699   26.1343 C   0  0  0  0  0  0  0  0  0  0  0  0
   11.0142  -19.5164   26.4909 C   0  0  0  0  0  0  0  0  0  0  0  0
   11.3118  -19.9281   27.8555 N   0  0  0  0  0  0  0  0  0  0  0  0
   13.1493  -16.8748   22.2751 C   0  0  0  0  0  0  0  0  0  0  0  0
   12.7120  -17.5267   21.3149 O   0  0  0  0  0  0  0  0  0  0  0  0
   14.4842  -16.9254   22.6225 O   0  0  0  0  0  0  0  0  0  0  0  0
  2  1  1  1
  2 10  1  0
  2  3  1  0
  3  4  1  0
  4  5  2  0
  4  9  1  0
  5  6  1  0
  6  7  2  0
  8  7  1  0
  9  8  2  0
 10 12  1  0
 11 10  2  0
 13 12  1  0
 13 14  1  6
 13 16  1  0
 14 15  1  0
 16 18  1  0
 16 17  2  0
 18 19  1  0
 19 25  1  0
 19 20  1  1
 21 20  1  0
 22 21  1  0
 23 22  1  0
 24 23  1  0
 25 26  2  0
 25 27  1  0
M  END
$$$$
