FCK.pdb
     RDKit          3D

 27 27  0  0  1  0  0  0  0  0999 V2000
    6.4143  -17.0508   25.9053 N   0  0  0  0  0  0  0  0  0  0  0  0
    6.9674  -15.8949   25.2638 C   0  0  1  0  0  0  0  0  0  0  0  0
    7.7436  -15.0610   26.2605 C   0  0  0  0  0  0  0  0  0  0  0  0
    6.9944  -13.7999   26.4764 C   0  0  0  0  0  0  0  0  0  0  0  0
    6.2299  -13.2558   25.4683 C   0  0  0  0  0  0  0  0  0  0  0  0
    5.5288  -12.0784   25.6591 C   0  0  0  0  0  0  0  0  0  0  0  0
    5.5873  -11.4172   26.8911 C   0  0  0  0  0  0  0  0  0  0  0  0
    6.3514  -11.9730   27.8788 C   0  0  0  0  0  0  0  0  0  0  0  0
    7.0547  -13.1592   27.6788 C   0  0  0  0  0  0  0  0  0  0  0  0
    7.8407  -16.3280   24.1327 C   0  0  0  0  0  0  0  0  0  0  0  0
    8.5224  -17.3832   24.1762 O   0  0  0  0  0  0  0  0  0  0  0  0
    7.9543  -15.5591   22.9167 N   0  0  0  0  0  0  0  0  0  0  0  0
    8.9690  -15.8595   21.9296 C   0  0  1  0  0  0  0  0  0  0  0  0
    8.8187  -14.9872   20.6980 C   0  0  0  0  0  0  0  0  0  0  0  0
    7.1661  -15.1912   19.9589 S   0  0  0  0  0  0  0  0  0  0  0  0
   10.3272  -15.8456   22.4802 C   0  0  0  0  0  0  0  0  0  0  0  0
   10.7425  -14.8212   23.1161 O   0  0  0  0  0  0  0  0  0  0  0  0
   11.2612  -16.8879   22.3772 N   0  0  0  0  0  0  0  0  0  0  0  0
   12.4639  -17.0950   23.0725 C   0  0  1  0  0  0  0  0  0  0  0  0
   12.6919  -18.4366   23.6750 C   0  0  0  0  0  0  0  0  0  0  0  0
   13.9988  -18.5691   24.4171 C   0  0  0  0  0  0  0  0  0  0  0  0
   14.1597  -19.9613   24.9658 C   0  0  0  0  0  0  0  0  0  0  0  0
   15.3945  -20.1490   25.8110 C   0  0  0  0  0  0  0  0  0  0  0  0
   15.5471  -21.5469   26.1892 N   0  0  0  0  0  0  0  0  0  0  0  0
   13.6175  -16.8186   22.1775 C   0  0  0  0  0  0  0  0  0  0  0  0
   13.5375  -17.1320   20.9803 O   0  0  0  0  0  0  0  0  0  0  0  0
   14.7542  -16.2214   22.6838 O   0  0  0  0  0  0  0  0  0  0  0  0
  2  1  1  1
  2 10  1  0
  2  3  1  0
  3  4  1  0
  4  5  2  0
  4  9  1  0
  5  6  1  0
  6  7  2  0
  8  7  1  0
  9  8  2  0
 10 12  1  0
 11 10  2  0
 13 12  1  0
 13 14  1  6
 13 16  1  0
 14 15  1  0
 16 18  1  0
 16 17  2  0
 18 19  1  0
 19 25  1  0
 19 20  1  6
 21 20  1  0
 22 21  1  0
 23 22  1  0
 24 23  1  0
 25 26  2  0
 25 27  1  0
M  END
$$$$
