FCK.pdb
     RDKit          3D

 27 27  0  0  1  0  0  0  0  0999 V2000
    9.6863  -15.5358   21.9232 N   0  0  0  0  0  0  0  0  0  0  0  0
    9.1446  -14.8799   23.0766 C   0  0  1  0  0  0  0  0  0  0  0  0
    7.6326  -14.9490   23.0593 C   0  0  0  0  0  0  0  0  0  0  0  0
    7.1271  -14.0789   24.1481 C   0  0  0  0  0  0  0  0  0  0  0  0
    6.4227  -14.6129   25.2043 C   0  0  0  0  0  0  0  0  0  0  0  0
    5.9450  -13.8091   26.2241 C   0  0  0  0  0  0  0  0  0  0  0  0
    6.1730  -12.4286   26.1965 C   0  0  0  0  0  0  0  0  0  0  0  0
    6.8739  -11.9179   25.1399 C   0  0  0  0  0  0  0  0  0  0  0  0
    7.3517  -12.7341   24.1166 C   0  0  0  0  0  0  0  0  0  0  0  0
    9.6959  -15.5149   24.3104 C   0  0  0  0  0  0  0  0  0  0  0  0
   10.1688  -16.6795   24.3127 O   0  0  0  0  0  0  0  0  0  0  0  0
    9.7199  -14.8271   25.5789 N   0  0  0  0  0  0  0  0  0  0  0  0
   10.4730  -15.3453   26.7007 C   0  0  1  0  0  0  0  0  0  0  0  0
   10.3266  -14.4587   27.9227 C   0  0  0  0  0  0  0  0  0  0  0  0
    9.9080  -12.7533   27.4378 S   0  0  0  0  0  0  0  0  0  0  0  0
   10.1909  -16.7564   26.9786 C   0  0  0  0  0  0  0  0  0  0  0  0
    8.9898  -17.1828   26.9351 O   0  0  0  0  0  0  0  0  0  0  0  0
   11.1462  -17.7322   27.3019 N   0  0  0  0  0  0  0  0  0  0  0  0
   10.9870  -19.1062   27.5459 C   0  0  1  0  0  0  0  0  0  0  0  0
   11.8213  -20.0503   26.7537 C   0  0  0  0  0  0  0  0  0  0  0  0
   11.7026  -21.4921   27.1820 C   0  0  0  0  0  0  0  0  0  0  0  0
   12.5449  -22.3783   26.3045 C   0  0  0  0  0  0  0  0  0  0  0  0
   12.3680  -23.8522   26.5703 C   0  0  0  0  0  0  0  0  0  0  0  0
   13.1166  -24.6397   25.6009 N   0  0  0  0  0  0  0  0  0  0  0  0
   11.2450  -19.3965   28.9803 C   0  0  0  0  0  0  0  0  0  0  0  0
   10.8067  -20.4489   29.4685 O   0  0  0  0  0  0  0  0  0  0  0  0
   11.9631  -18.5001   29.7459 O   0  0  0  0  0  0  0  0  0  0  0  0
  2  1  1  6
  2 10  1  0
  2  3  1  0
  3  4  1  0
  4  5  2  0
  4  9  1  0
  5  6  1  0
  6  7  2  0
  8  7  1  0
  9  8  2  0
 10 12  1  0
 11 10  2  0
 13 12  1  0
 13 14  1  1
 13 16  1  0
 14 15  1  0
 16 18  1  0
 16 17  2  0
 18 19  1  0
 19 25  1  0
 19 20  1  6
 21 20  1  0
 22 21  1  0
 23 22  1  0
 24 23  1  0
 25 26  2  0
 25 27  1  0
M  END
$$$$
