FCK.pdb
     RDKit          3D

 27 27  0  0  1  0  0  0  0  0999 V2000
    5.7841  -17.8225   25.5234 N   0  0  0  0  0  0  0  0  0  0  0  0
    6.2906  -16.4942   25.3419 C   0  0  1  0  0  0  0  0  0  0  0  0
    6.9366  -15.9986   26.6180 C   0  0  0  0  0  0  0  0  0  0  0  0
    6.8670  -14.5176   26.6151 C   0  0  0  0  0  0  0  0  0  0  0  0
    7.9600  -13.7639   26.2489 C   0  0  0  0  0  0  0  0  0  0  0  0
    7.9059  -12.3814   26.2449 C   0  0  0  0  0  0  0  0  0  0  0  0
    6.7283  -11.7230   26.6168 C   0  0  0  0  0  0  0  0  0  0  0  0
    5.6548  -12.4886   26.9770 C   0  0  0  0  0  0  0  0  0  0  0  0
    5.7172  -13.8806   26.9784 C   0  0  0  0  0  0  0  0  0  0  0  0
    7.2650  -16.4873   24.2105 C   0  0  0  0  0  0  0  0  0  0  0  0
    8.1831  -17.3399   24.1094 O   0  0  0  0  0  0  0  0  0  0  0  0
    7.2107  -15.4985   23.1607 N   0  0  0  0  0  0  0  0  0  0  0  0
    8.2464  -15.4140   22.1535 C   0  0  1  0  0  0  0  0  0  0  0  0
    7.9144  -14.3702   21.1043 C   0  0  0  0  0  0  0  0  0  0  0  0
    9.2195  -14.2908   19.8357 S   0  0  0  0  0  0  0  0  0  0  0  0
    9.5874  -15.2501   22.7217 C   0  0  0  0  0  0  0  0  0  0  0  0
    9.8644  -14.2071   23.4012 O   0  0  0  0  0  0  0  0  0  0  0  0
   10.6469  -16.1611   22.5912 N   0  0  0  0  0  0  0  0  0  0  0  0
   11.9741  -16.0737   23.0424 C   0  0  1  0  0  0  0  0  0  0  0  0
   12.3058  -16.7162   24.3432 C   0  0  0  0  0  0  0  0  0  0  0  0
   11.3951  -17.8583   24.7208 C   0  0  0  0  0  0  0  0  0  0  0  0
   11.7933  -18.4380   26.0514 C   0  0  0  0  0  0  0  0  0  0  0  0
   11.0239  -19.6767   26.4363 C   0  0  0  0  0  0  0  0  0  0  0  0
   11.5447  -20.2373   27.6751 N   0  0  0  0  0  0  0  0  0  0  0  0
   12.8911  -16.6514   22.0257 C   0  0  0  0  0  0  0  0  0  0  0  0
   14.1140  -16.4998   22.1647 O   0  0  0  0  0  0  0  0  0  0  0  0
   12.3762  -17.3439   20.9485 O   0  0  0  0  0  0  0  0  0  0  0  0
  2  1  1  1
  2 10  1  0
  2  3  1  0
  3  4  1  0
  4  5  2  0
  4  9  1  0
  5  6  1  0
  6  7  2  0
  8  7  1  0
  9  8  2  0
 10 12  1  0
 11 10  2  0
 13 12  1  0
 13 14  1  6
 13 16  1  0
 14 15  1  0
 16 18  1  0
 16 17  2  0
 18 19  1  0
 19 25  1  0
 19 20  1  1
 21 20  1  0
 22 21  1  0
 23 22  1  0
 24 23  1  0
 25 26  2  0
 25 27  1  0
M  END
$$$$
