FCK.pdb
     RDKit          3D

 27 27  0  0  1  0  0  0  0  0999 V2000
    6.2287  -17.1463   25.7522 N   0  0  0  0  0  0  0  0  0  0  0  0
    6.9268  -15.9884   25.2770 C   0  0  1  0  0  0  0  0  0  0  0  0
    7.7438  -15.3722   26.3924 C   0  0  0  0  0  0  0  0  0  0  0  0
    7.2219  -14.0057   26.6342 C   0  0  0  0  0  0  0  0  0  0  0  0
    7.9498  -13.0955   27.3682 C   0  0  0  0  0  0  0  0  0  0  0  0
    7.4707  -11.8187   27.6011 C   0  0  0  0  0  0  0  0  0  0  0  0
    6.2274  -11.4302   27.0893 C   0  0  0  0  0  0  0  0  0  0  0  0
    5.5203  -12.3477   26.3637 C   0  0  0  0  0  0  0  0  0  0  0  0
    6.0097  -13.6319   26.1334 C   0  0  0  0  0  0  0  0  0  0  0  0
    7.7963  -16.3737   24.1259 C   0  0  0  0  0  0  0  0  0  0  0  0
    8.3581  -17.4958   24.0544 O   0  0  0  0  0  0  0  0  0  0  0  0
    8.0443  -15.4780   23.0218 N   0  0  0  0  0  0  0  0  0  0  0  0
    9.0139  -15.7993   21.9967 C   0  0  1  0  0  0  0  0  0  0  0  0
    8.8762  -14.8812   20.7972 C   0  0  0  0  0  0  0  0  0  0  0  0
    7.1812  -14.9366   20.1317 S   0  0  0  0  0  0  0  0  0  0  0  0
   10.3856  -15.8741   22.5074 C   0  0  0  0  0  0  0  0  0  0  0  0
   10.7995  -15.0026   23.3413 O   0  0  0  0  0  0  0  0  0  0  0  0
   11.3347  -16.8478   22.1602 N   0  0  0  0  0  0  0  0  0  0  0  0
   12.4765  -17.2835   22.8523 C   0  0  1  0  0  0  0  0  0  0  0  0
   12.4921  -18.6875   23.3456 C   0  0  0  0  0  0  0  0  0  0  0  0
   13.7965  -19.1088   23.9759 C   0  0  0  0  0  0  0  0  0  0  0  0
   13.7102  -20.5240   24.4807 C   0  0  0  0  0  0  0  0  0  0  0  0
   14.9201  -20.9720   25.2618 C   0  0  0  0  0  0  0  0  0  0  0  0
   14.7110  -22.3058   25.8072 N   0  0  0  0  0  0  0  0  0  0  0  0
   13.6803  -17.1092   21.9987 C   0  0  0  0  0  0  0  0  0  0  0  0
   14.8000  -17.1110   22.5318 O   0  0  0  0  0  0  0  0  0  0  0  0
   13.5401  -16.9490   20.6349 O   0  0  0  0  0  0  0  0  0  0  0  0
  2  1  1  1
  2 10  1  0
  2  3  1  0
  3  4  1  0
  4  5  2  0
  4  9  1  0
  5  6  1  0
  6  7  2  0
  8  7  1  0
  9  8  2  0
 10 12  1  0
 11 10  2  0
 13 12  1  0
 13 14  1  6
 13 16  1  0
 14 15  1  0
 16 18  1  0
 16 17  2  0
 18 19  1  0
 19 25  1  0
 19 20  1  6
 21 20  1  0
 22 21  1  0
 23 22  1  0
 24 23  1  0
 25 26  2  0
 25 27  1  0
M  END
$$$$
