FCK.pdb
     RDKit          3D

 27 27  0  0  1  0  0  0  0  0999 V2000
   10.5060  -15.4780   21.5841 N   0  0  0  0  0  0  0  0  0  0  0  0
    9.8129  -14.7926   22.6347 C   0  0  1  0  0  0  0  0  0  0  0  0
    8.3205  -15.0138   22.5120 C   0  0  0  0  0  0  0  0  0  0  0  0
    7.8197  -14.1329   21.4297 C   0  0  0  0  0  0  0  0  0  0  0  0
    7.8072  -12.7647   21.5872 C   0  0  0  0  0  0  0  0  0  0  0  0
    7.3400  -11.9341   20.5841 C   0  0  0  0  0  0  0  0  0  0  0  0
    6.8688  -12.4778   19.3838 C   0  0  0  0  0  0  0  0  0  0  0  0
    6.8893  -13.8377   19.2469 C   0  0  0  0  0  0  0  0  0  0  0  0
    7.3614  -14.6675   20.2619 C   0  0  0  0  0  0  0  0  0  0  0  0
   10.3187  -15.2723   23.9551 C   0  0  0  0  0  0  0  0  0  0  0  0
   11.0019  -16.3209   24.0722 O   0  0  0  0  0  0  0  0  0  0  0  0
   10.0536  -14.5579   25.1807 N   0  0  0  0  0  0  0  0  0  0  0  0
   10.6413  -14.9746   26.4358 C   0  0  1  0  0  0  0  0  0  0  0  0
   10.3499  -13.9781   27.5415 C   0  0  0  0  0  0  0  0  0  0  0  0
    8.5597  -13.6695   27.6784 S   0  0  0  0  0  0  0  0  0  0  0  0
   10.2992  -16.3523   26.8003 C   0  0  0  0  0  0  0  0  0  0  0  0
    9.1431  -16.8128   26.5219 O   0  0  0  0  0  0  0  0  0  0  0  0
   11.1481  -17.2596   27.4526 N   0  0  0  0  0  0  0  0  0  0  0  0
   10.9188  -18.5881   27.8465 C   0  0  1  0  0  0  0  0  0  0  0  0
   11.7697  -19.6465   27.2377 C   0  0  0  0  0  0  0  0  0  0  0  0
   11.5125  -21.0333   27.7732 C   0  0  0  0  0  0  0  0  0  0  0  0
   12.3923  -22.0410   27.0836 C   0  0  0  0  0  0  0  0  0  0  0  0
   12.0955  -23.4719   27.4561 C   0  0  0  0  0  0  0  0  0  0  0  0
   12.8410  -24.3870   26.6035 N   0  0  0  0  0  0  0  0  0  0  0  0
   11.0631  -18.7087   29.3206 C   0  0  0  0  0  0  0  0  0  0  0  0
   10.6278  -19.7232   29.8857 O   0  0  0  0  0  0  0  0  0  0  0  0
   11.6744  -17.7000   30.0374 O   0  0  0  0  0  0  0  0  0  0  0  0
  2  1  1  6
  2 10  1  0
  2  3  1  0
  3  4  1  0
  4  5  2  0
  4  9  1  0
  5  6  1  0
  6  7  2  0
  8  7  1  0
  9  8  2  0
 10 12  1  0
 11 10  2  0
 13 12  1  0
 13 14  1  1
 13 16  1  0
 14 15  1  0
 16 18  1  0
 16 17  2  0
 18 19  1  0
 19 25  1  0
 19 20  1  6
 21 20  1  0
 22 21  1  0
 23 22  1  0
 24 23  1  0
 25 26  2  0
 25 27  1  0
M  END
$$$$
