FCK.pdb
     RDKit          3D

 27 27  0  0  1  0  0  0  0  0999 V2000
    6.4807  -16.3701   25.3049 N   0  0  0  0  0  0  0  0  0  0  0  0
    7.7006  -15.6798   25.0064 C   0  0  1  0  0  0  0  0  0  0  0  0
    8.1761  -14.9047   26.2166 C   0  0  0  0  0  0  0  0  0  0  0  0
    7.4158  -13.6329   26.2670 C   0  0  0  0  0  0  0  0  0  0  0  0
    7.5731  -12.6811   25.2840 C   0  0  0  0  0  0  0  0  0  0  0  0
    6.8698  -11.4903   25.3230 C   0  0  0  0  0  0  0  0  0  0  0  0
    5.9801  -11.2335   26.3723 C   0  0  0  0  0  0  0  0  0  0  0  0
    5.8380  -12.1903   27.3381 C   0  0  0  0  0  0  0  0  0  0  0  0
    6.5500  -13.3872   27.2917 C   0  0  0  0  0  0  0  0  0  0  0  0
    8.7305  -16.6659   24.5633 C   0  0  0  0  0  0  0  0  0  0  0  0
    8.7220  -17.8635   24.9449 O   0  0  0  0  0  0  0  0  0  0  0  0
    9.8011  -16.3024   23.6663 N   0  0  0  0  0  0  0  0  0  0  0  0
   10.7456  -17.2875   23.1851 C   0  0  1  0  0  0  0  0  0  0  0  0
   10.3074  -17.8715   21.8557 C   0  0  0  0  0  0  0  0  0  0  0  0
   11.3546  -19.2895   21.3957 S   0  0  0  0  0  0  0  0  0  0  0  0
   12.1271  -16.7983   23.1694 C   0  0  0  0  0  0  0  0  0  0  0  0
   12.4022  -15.6956   22.5910 O   0  0  0  0  0  0  0  0  0  0  0  0
   13.2292  -17.4444   23.7504 N   0  0  0  0  0  0  0  0  0  0  0  0
   14.5564  -17.0093   23.8984 C   0  0  1  0  0  0  0  0  0  0  0  0
   15.4457  -17.7957   24.7959 C   0  0  0  0  0  0  0  0  0  0  0  0
   15.2106  -17.5563   26.2668 C   0  0  0  0  0  0  0  0  0  0  0  0
   16.0785  -18.4622   27.0981 C   0  0  0  0  0  0  0  0  0  0  0  0
   15.9589  -18.2331   28.5840 C   0  0  0  0  0  0  0  0  0  0  0  0
   16.7703  -19.1953   29.3162 N   0  0  0  0  0  0  0  0  0  0  0  0
   15.2194  -16.9532   22.5696 C   0  0  0  0  0  0  0  0  0  0  0  0
   14.7870  -17.6665   21.6519 O   0  0  0  0  0  0  0  0  0  0  0  0
   16.2987  -16.1154   22.3735 O   0  0  0  0  0  0  0  0  0  0  0  0
  2  1  1  1
  2 10  1  0
  2  3  1  0
  3  4  1  0
  4  5  2  0
  4  9  1  0
  5  6  1  0
  6  7  2  0
  8  7  1  0
  9  8  2  0
 10 12  1  0
 11 10  2  0
 13 12  1  0
 13 14  1  6
 13 16  1  0
 14 15  1  0
 16 18  1  0
 16 17  2  0
 18 19  1  0
 19 25  1  0
 19 20  1  1
 21 20  1  0
 22 21  1  0
 23 22  1  0
 24 23  1  0
 25 26  2  0
 25 27  1  0
M  END
$$$$
