FCK.pdb
     RDKit          3D

 27 27  0  0  1  0  0  0  0  0999 V2000
    8.2581  -16.8030   20.8531 N   0  0  0  0  0  0  0  0  0  0  0  0
    9.3646  -16.6120   21.7435 C   0  0  1  0  0  0  0  0  0  0  0  0
   10.0946  -15.3292   21.4078 C   0  0  0  0  0  0  0  0  0  0  0  0
    9.1159  -14.3978   20.7971 C   0  0  0  0  0  0  0  0  0  0  0  0
    8.5681  -13.3718   21.5346 C   0  0  0  0  0  0  0  0  0  0  0  0
    7.6526  -12.4986   20.9746 C   0  0  0  0  0  0  0  0  0  0  0  0
    7.2663  -12.6473   19.6377 C   0  0  0  0  0  0  0  0  0  0  0  0
    7.8211  -13.6716   18.9226 C   0  0  0  0  0  0  0  0  0  0  0  0
    8.7426  -14.5469   19.4939 C   0  0  0  0  0  0  0  0  0  0  0  0
    8.8680  -16.5930   23.1515 C   0  0  0  0  0  0  0  0  0  0  0  0
    8.4104  -15.5528   23.6885 O   0  0  0  0  0  0  0  0  0  0  0  0
    8.8828  -17.7722   23.9834 N   0  0  0  0  0  0  0  0  0  0  0  0
    8.5711  -17.7004   25.3947 C   0  0  1  0  0  0  0  0  0  0  0  0
    7.8419  -18.9445   25.8647 C   0  0  0  0  0  0  0  0  0  0  0  0
    7.0010  -18.6403   27.4519 S   0  0  0  0  0  0  0  0  0  0  0  0
    9.7340  -17.3696   26.2231 C   0  0  0  0  0  0  0  0  0  0  0  0
   10.4370  -18.3049   26.7305 O   0  0  0  0  0  0  0  0  0  0  0  0
   10.1760  -16.0737   26.5307 N   0  0  0  0  0  0  0  0  0  0  0  0
   10.2068  -15.3983   27.7618 C   0  0  1  0  0  0  0  0  0  0  0  0
    8.9923  -14.6377   28.1637 C   0  0  0  0  0  0  0  0  0  0  0  0
    8.4296  -13.7506   27.0808 C   0  0  0  0  0  0  0  0  0  0  0  0
    7.1903  -13.0454   27.5620 C   0  0  0  0  0  0  0  0  0  0  0  0
    6.5947  -12.0944   26.5543 C   0  0  0  0  0  0  0  0  0  0  0  0
    5.3972  -11.4643   27.0921 N   0  0  0  0  0  0  0  0  0  0  0  0
   10.5001  -16.3593   28.8566 C   0  0  0  0  0  0  0  0  0  0  0  0
   10.8980  -15.9238   29.9475 O   0  0  0  0  0  0  0  0  0  0  0  0
   10.3277  -17.7129   28.6492 O   0  0  0  0  0  0  0  0  0  0  0  0
  2  1  1  6
  2 10  1  0
  2  3  1  0
  3  4  1  0
  4  5  2  0
  4  9  1  0
  5  6  1  0
  6  7  2  0
  8  7  1  0
  9  8  2  0
 10 12  1  0
 11 10  2  0
 13 12  1  0
 13 14  1  1
 13 16  1  0
 14 15  1  0
 16 18  1  0
 16 17  2  0
 18 19  1  0
 19 25  1  0
 19 20  1  1
 21 20  1  0
 22 21  1  0
 23 22  1  0
 24 23  1  0
 25 26  2  0
 25 27  1  0
M  END
$$$$
