FCK.pdb
     RDKit          3D

 27 27  0  0  1  0  0  0  0  0999 V2000
    5.7879  -17.2970   26.0082 N   0  0  0  0  0  0  0  0  0  0  0  0
    6.4538  -16.0909   25.6138 C   0  0  1  0  0  0  0  0  0  0  0  0
    7.4198  -15.6468   26.6913 C   0  0  0  0  0  0  0  0  0  0  0  0
    7.2678  -14.1817   26.8598 C   0  0  0  0  0  0  0  0  0  0  0  0
    6.0174  -13.6097   26.9382 C   0  0  0  0  0  0  0  0  0  0  0  0
    5.8649  -12.2433   27.0934 C   0  0  0  0  0  0  0  0  0  0  0  0
    6.9902  -11.4151   27.1733 C   0  0  0  0  0  0  0  0  0  0  0  0
    8.2222  -12.0017   27.0933 C   0  0  0  0  0  0  0  0  0  0  0  0
    8.3675  -13.3787   26.9371 C   0  0  0  0  0  0  0  0  0  0  0  0
    7.1628  -16.3186   24.3196 C   0  0  0  0  0  0  0  0  0  0  0  0
    7.7468  -17.3997   24.0546 O   0  0  0  0  0  0  0  0  0  0  0  0
    7.2197  -15.3080   23.2909 N   0  0  0  0  0  0  0  0  0  0  0  0
    8.0204  -15.4924   22.0996 C   0  0  1  0  0  0  0  0  0  0  0  0
    7.7460  -14.4084   21.0748 C   0  0  0  0  0  0  0  0  0  0  0  0
    8.7240  -14.6854   19.5630 S   0  0  0  0  0  0  0  0  0  0  0  0
    9.4474  -15.6614   22.3879 C   0  0  0  0  0  0  0  0  0  0  0  0
   10.0182  -14.8952   23.2326 O   0  0  0  0  0  0  0  0  0  0  0  0
   10.2903  -16.6210   21.8064 N   0  0  0  0  0  0  0  0  0  0  0  0
   11.6163  -16.9649   22.1161 C   0  0  1  0  0  0  0  0  0  0  0  0
   12.0306  -18.3790   21.9076 C   0  0  0  0  0  0  0  0  0  0  0  0
   13.4608  -18.6692   22.2905 C   0  0  0  0  0  0  0  0  0  0  0  0
   13.8064  -20.1059   22.0053 C   0  0  0  0  0  0  0  0  0  0  0  0
   15.2453  -20.4588   22.2873 C   0  0  0  0  0  0  0  0  0  0  0  0
   15.4447  -21.8985   22.2004 N   0  0  0  0  0  0  0  0  0  0  0  0
   12.5528  -16.1175   21.3330 C   0  0  0  0  0  0  0  0  0  0  0  0
   13.6516  -15.8223   21.8265 O   0  0  0  0  0  0  0  0  0  0  0  0
   12.1927  -15.6730   20.0769 O   0  0  0  0  0  0  0  0  0  0  0  0
  2  1  1  1
  2 10  1  0
  2  3  1  0
  3  4  1  0
  4  5  2  0
  4  9  1  0
  5  6  1  0
  6  7  2  0
  8  7  1  0
  9  8  2  0
 10 12  1  0
 11 10  2  0
 13 12  1  0
 13 14  1  6
 13 16  1  0
 14 15  1  0
 16 18  1  0
 16 17  2  0
 18 19  1  0
 19 25  1  0
 19 20  1  6
 21 20  1  0
 22 21  1  0
 23 22  1  0
 24 23  1  0
 25 26  2  0
 25 27  1  0
M  END
$$$$
