FCK.pdb
     RDKit          3D

 27 27  0  0  1  0  0  0  0  0999 V2000
    6.2423  -16.9175   26.0862 N   0  0  0  0  0  0  0  0  0  0  0  0
    6.6924  -15.7655   25.3623 C   0  0  1  0  0  0  0  0  0  0  0  0
    7.6441  -14.9497   26.2108 C   0  0  0  0  0  0  0  0  0  0  0  0
    6.9960  -13.6464   26.4925 C   0  0  0  0  0  0  0  0  0  0  0  0
    7.5092  -12.7989   27.4491 C   0  0  0  0  0  0  0  0  0  0  0  0
    6.9106  -11.5814   27.7207 C   0  0  0  0  0  0  0  0  0  0  0  0
    5.7638  -11.1903   27.0205 C   0  0  0  0  0  0  0  0  0  0  0  0
    5.2698  -12.0452   26.0753 C   0  0  0  0  0  0  0  0  0  0  0  0
    5.8784  -13.2697   25.8075 C   0  0  0  0  0  0  0  0  0  0  0  0
    7.3471  -16.2038   24.0939 C   0  0  0  0  0  0  0  0  0  0  0  0
    8.0926  -17.2142   24.0370 O   0  0  0  0  0  0  0  0  0  0  0  0
    7.1620  -15.4918   22.8523 N   0  0  0  0  0  0  0  0  0  0  0  0
    8.0651  -15.6784   21.7371 C   0  0  1  0  0  0  0  0  0  0  0  0
    7.8170  -14.6540   20.6464 C   0  0  0  0  0  0  0  0  0  0  0  0
    8.8363  -15.0116   19.1794 S   0  0  0  0  0  0  0  0  0  0  0  0
    9.4711  -15.7542   22.1438 C   0  0  0  0  0  0  0  0  0  0  0  0
   10.0131  -14.7644   22.7378 O   0  0  0  0  0  0  0  0  0  0  0  0
   10.3226  -16.8509   21.9395 N   0  0  0  0  0  0  0  0  0  0  0  0
   11.6652  -17.0332   22.3094 C   0  0  1  0  0  0  0  0  0  0  0  0
   11.9920  -18.1999   23.1735 C   0  0  0  0  0  0  0  0  0  0  0  0
   11.5047  -18.0739   24.5959 C   0  0  0  0  0  0  0  0  0  0  0  0
   11.7325  -19.3556   25.3512 C   0  0  0  0  0  0  0  0  0  0  0  0
   11.2490  -19.3207   26.7793 C   0  0  0  0  0  0  0  0  0  0  0  0
   11.5206  -20.5885   27.4418 N   0  0  0  0  0  0  0  0  0  0  0  0
   12.5126  -17.1418   21.0935 C   0  0  0  0  0  0  0  0  0  0  0  0
   11.9639  -17.2540   19.9870 O   0  0  0  0  0  0  0  0  0  0  0  0
   13.8879  -17.1165   21.2081 O   0  0  0  0  0  0  0  0  0  0  0  0
  2  1  1  1
  2 10  1  0
  2  3  1  0
  3  4  1  0
  4  5  2  0
  4  9  1  0
  5  6  1  0
  6  7  2  0
  8  7  1  0
  9  8  2  0
 10 12  1  0
 11 10  2  0
 13 12  1  0
 13 14  1  6
 13 16  1  0
 14 15  1  0
 16 18  1  0
 16 17  2  0
 18 19  1  0
 19 25  1  0
 19 20  1  6
 21 20  1  0
 22 21  1  0
 23 22  1  0
 24 23  1  0
 25 26  2  0
 25 27  1  0
M  END
$$$$
