FCK.pdb
     RDKit          3D

 27 27  0  0  1  0  0  0  0  0999 V2000
    5.7941  -18.0877   25.4240 N   0  0  0  0  0  0  0  0  0  0  0  0
    6.2096  -16.7183   25.3458 C   0  0  1  0  0  0  0  0  0  0  0  0
    6.5569  -16.1945   26.7228 C   0  0  0  0  0  0  0  0  0  0  0  0
    6.8268  -14.7419   26.5999 C   0  0  0  0  0  0  0  0  0  0  0  0
    5.7972  -13.8290   26.6568 C   0  0  0  0  0  0  0  0  0  0  0  0
    6.0383  -12.4715   26.5411 C   0  0  0  0  0  0  0  0  0  0  0  0
    7.3447  -12.0024   26.3627 C   0  0  0  0  0  0  0  0  0  0  0  0
    8.3527  -12.9240   26.3086 C   0  0  0  0  0  0  0  0  0  0  0  0
    8.1016  -14.2897   26.4260 C   0  0  0  0  0  0  0  0  0  0  0  0
    7.3765  -16.6083   24.4207 C   0  0  0  0  0  0  0  0  0  0  0  0
    8.3348  -17.4212   24.4485 O   0  0  0  0  0  0  0  0  0  0  0  0
    7.4743  -15.5588   23.4349 N   0  0  0  0  0  0  0  0  0  0  0  0
    8.5707  -15.5136   22.4915 C   0  0  1  0  0  0  0  0  0  0  0  0
    8.2899  -14.5404   21.3626 C   0  0  0  0  0  0  0  0  0  0  0  0
    6.5750  -14.7122   20.7722 S   0  0  0  0  0  0  0  0  0  0  0  0
    9.8699  -15.2900   23.1320 C   0  0  0  0  0  0  0  0  0  0  0  0
   10.0615  -14.2372   23.8256 O   0  0  0  0  0  0  0  0  0  0  0  0
   10.9755  -16.1513   23.0594 N   0  0  0  0  0  0  0  0  0  0  0  0
   12.2240  -16.0742   23.6982 C   0  0  1  0  0  0  0  0  0  0  0  0
   12.5679  -17.1429   24.6751 C   0  0  0  0  0  0  0  0  0  0  0  0
   11.6250  -17.2364   25.8493 C   0  0  0  0  0  0  0  0  0  0  0  0
   12.0216  -18.3665   26.7606 C   0  0  0  0  0  0  0  0  0  0  0  0
   11.0822  -18.5776   27.9214 C   0  0  0  0  0  0  0  0  0  0  0  0
   11.5641  -19.6501   28.7803 N   0  0  0  0  0  0  0  0  0  0  0  0
   13.3088  -16.0479   22.6828 C   0  0  0  0  0  0  0  0  0  0  0  0
   13.0250  -16.2634   21.4950 O   0  0  0  0  0  0  0  0  0  0  0  0
   14.6076  -15.7860   23.0695 O   0  0  0  0  0  0  0  0  0  0  0  0
  2  1  1  1
  2 10  1  0
  2  3  1  0
  3  4  1  0
  4  5  2  0
  4  9  1  0
  5  6  1  0
  6  7  2  0
  8  7  1  0
  9  8  2  0
 10 12  1  0
 11 10  2  0
 13 12  1  0
 13 14  1  6
 13 16  1  0
 14 15  1  0
 16 18  1  0
 16 17  2  0
 18 19  1  0
 19 25  1  0
 19 20  1  1
 21 20  1  0
 22 21  1  0
 23 22  1  0
 24 23  1  0
 25 26  2  0
 25 27  1  0
M  END
$$$$
