PDS.pdb
     RDKit          3D

 22 22  0  0  1  0  0  0  0  0999 V2000
   25.6274  -11.6086  -16.2661 N   0  0  0  0  0  0  0  0  0  0  0  0
   26.3373  -12.8737  -16.2868 C   0  0  0  0  0  0  0  0  0  0  0  0
   25.4774  -13.7586  -17.1633 C   0  0  0  0  0  0  0  0  0  0  0  0
   24.7671  -12.8131  -18.1138 C   0  0  0  0  0  0  0  0  0  0  0  0
   25.0849  -11.4300  -17.5970 C   0  0  1  0  0  0  0  0  0  0  0  0
   23.8734  -10.5831  -17.4660 C   0  0  0  0  0  0  0  0  0  0  0  0
   23.1704  -10.2854  -18.4643 O   0  0  0  0  0  0  0  0  0  0  0  0
   23.4330  -10.0598  -16.2204 N   0  0  0  0  0  0  0  0  0  0  0  0
   22.2395   -9.2448  -16.0672 C   0  0  1  0  0  0  0  0  0  0  0  0
   21.3919   -9.9501  -15.0338 C   0  0  0  0  0  0  0  0  0  0  0  0
   20.5603  -11.0287  -15.5699 C   0  0  0  0  0  0  0  0  0  0  0  0
   21.0252  -12.1899  -15.6226 O   0  0  0  0  0  0  0  0  0  0  0  0
   22.6421   -7.9036  -15.5702 C   0  0  0  0  0  0  0  0  0  0  0  0
   23.6870   -7.7423  -14.9143 O   0  0  0  0  0  0  0  0  0  0  0  0
   19.2804  -10.7961  -16.0178 O   0  0  0  0  0  0  0  0  0  0  0  0
   21.8432   -3.0979  -15.5503 O   0  0  0  0  0  0  0  0  0  0  0  0
   21.3834   -4.3705  -15.9485 C   0  0  0  0  0  0  0  0  0  0  0  0
   22.3103   -5.4451  -15.3875 C   0  0  2  0  0  0  0  0  0  0  0  0
   21.8383   -6.7361  -15.8287 N   0  0  0  0  0  0  0  0  0  0  0  0
   22.2546   -5.3062  -13.9105 C   0  0  0  0  0  0  0  0  0  0  0  0
   21.4247   -6.0091  -13.2853 O   0  0  0  0  0  0  0  0  0  0  0  0
   23.0693   -4.4459  -13.2064 O   0  0  0  0  0  0  0  0  0  0  0  0
  2  1  1  0
  3  4  1  0
  3  2  1  0
  4  5  1  0
  5  6  1  1
  5  1  1  0
  6  7  2  0
  8  9  1  0
  8  6  1  0
  9 13  1  0
 10 11  1  0
  9 10  1  1
 11 12  2  0
 13 19  1  0
 13 14  2  0
 15 11  1  0
 16 17  1  0
 18 20  1  0
 18 17  1  6
 19 18  1  0
 20 22  1  0
 21 20  2  0
M  END
$$$$
