PDS.pdb
     RDKit          3D

 22 22  0  0  1  0  0  0  0  0999 V2000
   38.9650   -9.6284   -7.3675 N   0  0  0  0  0  0  0  0  0  0  0  0
   38.6351  -10.9982   -7.0218 C   0  0  0  0  0  0  0  0  0  0  0  0
   38.9526  -11.7771   -8.2800 C   0  0  0  0  0  0  0  0  0  0  0  0
   40.0478  -10.9890   -8.9740 C   0  0  0  0  0  0  0  0  0  0  0  0
   40.1494   -9.6973   -8.1982 C   0  0  1  0  0  0  0  0  0  0  0  0
   40.1349   -8.5047   -9.0812 C   0  0  0  0  0  0  0  0  0  0  0  0
   41.0964   -8.2446   -9.8476 O   0  0  0  0  0  0  0  0  0  0  0  0
   39.0480   -7.5901   -9.1192 N   0  0  0  0  0  0  0  0  0  0  0  0
   39.0185   -6.4106   -9.9678 C   0  0  1  0  0  0  0  0  0  0  0  0
   37.7861   -6.5572  -10.8300 C   0  0  0  0  0  0  0  0  0  0  0  0
   37.9788   -7.3843  -12.0222 C   0  0  0  0  0  0  0  0  0  0  0  0
   39.0970   -7.3933  -12.5850 O   0  0  0  0  0  0  0  0  0  0  0  0
   38.8986   -5.2078   -9.1035 C   0  0  0  0  0  0  0  0  0  0  0  0
   37.9095   -5.0336   -8.3691 O   0  0  0  0  0  0  0  0  0  0  0  0
   36.9599   -8.1510  -12.5388 O   0  0  0  0  0  0  0  0  0  0  0  0
   41.4552   -3.9554   -6.6945 O   0  0  0  0  0  0  0  0  0  0  0  0
   41.1311   -2.8394   -7.4939 C   0  0  0  0  0  0  0  0  0  0  0  0
   39.7883   -3.0769   -8.1789 C   0  0  2  0  0  0  0  0  0  0  0  0
   39.9236   -4.1955   -9.0815 N   0  0  0  0  0  0  0  0  0  0  0  0
   39.4642   -1.8182   -8.8961 C   0  0  0  0  0  0  0  0  0  0  0  0
   39.6100   -1.7975  -10.1419 O   0  0  0  0  0  0  0  0  0  0  0  0
   39.0140   -0.6839   -8.2553 O   0  0  0  0  0  0  0  0  0  0  0  0
  2  1  1  0
  3  4  1  0
  3  2  1  0
  4  5  1  0
  5  6  1  6
  5  1  1  0
  6  7  2  0
  8  9  1  0
  8  6  1  0
  9 13  1  0
 10 11  1  0
  9 10  1  6
 11 12  2  0
 13 19  1  0
 13 14  2  0
 15 11  1  0
 16 17  1  0
 18 20  1  0
 18 17  1  6
 19 18  1  0
 20 22  1  0
 21 20  2  0
M  END
$$$$
