PDS.pdb
     RDKit          3D

 22 22  0  0  1  0  0  0  0  0999 V2000
   20.9178  -10.4800  -16.8241 N   0  0  0  0  0  0  0  0  0  0  0  0
   20.8415  -11.8773  -17.2070 C   0  0  0  0  0  0  0  0  0  0  0  0
   19.6837  -12.4142  -16.3936 C   0  0  0  0  0  0  0  0  0  0  0  0
   18.7704  -11.2250  -16.1620 C   0  0  0  0  0  0  0  0  0  0  0  0
   19.5501  -10.0321  -16.6621 C   0  0  1  0  0  0  0  0  0  0  0  0
   19.5675   -8.9171  -15.6829 C   0  0  0  0  0  0  0  0  0  0  0  0
   18.6379   -8.7595  -14.8520 O   0  0  0  0  0  0  0  0  0  0  0  0
   20.6220   -7.9667  -15.6198 N   0  0  0  0  0  0  0  0  0  0  0  0
   20.6279   -6.8309  -14.7131 C   0  0  1  0  0  0  0  0  0  0  0  0
   22.0776   -6.6029  -14.3520 C   0  0  0  0  0  0  0  0  0  0  0  0
   22.3030   -5.4777  -13.4434 C   0  0  0  0  0  0  0  0  0  0  0  0
   22.7661   -4.4077  -13.8994 O   0  0  0  0  0  0  0  0  0  0  0  0
   20.0872   -5.6480  -15.4317 C   0  0  0  0  0  0  0  0  0  0  0  0
   20.4739   -5.3528  -16.5768 O   0  0  0  0  0  0  0  0  0  0  0  0
   22.0188   -5.5687  -12.1004 O   0  0  0  0  0  0  0  0  0  0  0  0
   16.4193   -4.7237  -15.6939 O   0  0  0  0  0  0  0  0  0  0  0  0
   17.0833   -3.5453  -15.2940 C   0  0  0  0  0  0  0  0  0  0  0  0
   18.5755   -3.6785  -15.5842 C   0  0  2  0  0  0  0  0  0  0  0  0
   19.0929   -4.7958  -14.8307 N   0  0  0  0  0  0  0  0  0  0  0  0
   19.1916   -2.3932  -15.1692 C   0  0  0  0  0  0  0  0  0  0  0  0
   20.0858   -2.4272  -14.2900 O   0  0  0  0  0  0  0  0  0  0  0  0
   18.8249   -1.1775  -15.7054 O   0  0  0  0  0  0  0  0  0  0  0  0
  2  1  1  0
  3  4  1  0
  3  2  1  0
  4  5  1  0
  5  6  1  1
  5  1  1  0
  6  7  2  0
  8  9  1  0
  8  6  1  0
  9 13  1  0
 10 11  1  0
  9 10  1  6
 11 12  2  0
 13 19  1  0
 13 14  2  0
 15 11  1  0
 16 17  1  0
 18 20  1  0
 18 17  1  1
 19 18  1  0
 20 22  1  0
 21 20  2  0
M  END
$$$$
