PDS.pdb
     RDKit          3D

 22 22  0  0  1  0  0  0  0  0999 V2000
   21.9686   -9.3972  -17.4287 N   0  0  0  0  0  0  0  0  0  0  0  0
   22.5988  -10.5975  -17.9453 C   0  0  0  0  0  0  0  0  0  0  0  0
   22.0724  -10.7039  -19.3603 C   0  0  0  0  0  0  0  0  0  0  0  0
   21.7720   -9.2787  -19.7849 C   0  0  0  0  0  0  0  0  0  0  0  0
   21.9335   -8.4559  -18.5287 C   0  0  1  0  0  0  0  0  0  0  0  0
   20.7814   -7.5505  -18.2937 C   0  0  0  0  0  0  0  0  0  0  0  0
   20.5350   -6.5892  -19.0647 O   0  0  0  0  0  0  0  0  0  0  0  0
   19.8918   -7.7081  -17.1969 N   0  0  0  0  0  0  0  0  0  0  0  0
   18.7806   -6.8112  -16.9272 C   0  0  1  0  0  0  0  0  0  0  0  0
   17.6506   -7.6921  -16.4467 C   0  0  0  0  0  0  0  0  0  0  0  0
   17.0710   -8.5486  -17.4826 C   0  0  0  0  0  0  0  0  0  0  0  0
   16.9335   -8.0971  -18.6421 O   0  0  0  0  0  0  0  0  0  0  0  0
   19.1843   -5.8657  -15.8544 C   0  0  0  0  0  0  0  0  0  0  0  0
   18.4376   -5.6235  -14.8892 O   0  0  0  0  0  0  0  0  0  0  0  0
   16.6734   -9.8375  -17.2116 O   0  0  0  0  0  0  0  0  0  0  0  0
   22.1565   -6.0265  -13.7457 O   0  0  0  0  0  0  0  0  0  0  0  0
   21.0421   -5.1844  -13.5492 C   0  0  0  0  0  0  0  0  0  0  0  0
   20.8262   -4.3275  -14.7933 C   0  0  2  0  0  0  0  0  0  0  0  0
   20.4575   -5.1919  -15.8892 N   0  0  0  0  0  0  0  0  0  0  0  0
   22.1134   -3.6311  -15.0416 C   0  0  0  0  0  0  0  0  0  0  0  0
   22.5189   -2.8193  -14.1754 O   0  0  0  0  0  0  0  0  0  0  0  0
   22.8729   -3.8386  -16.1730 O   0  0  0  0  0  0  0  0  0  0  0  0
  2  1  1  0
  3  4  1  0
  3  2  1  0
  4  5  1  0
  5  6  1  1
  5  1  1  0
  6  7  2  0
  8  9  1  0
  8  6  1  0
  9 13  1  0
 10 11  1  0
  9 10  1  1
 11 12  2  0
 13 19  1  0
 13 14  2  0
 15 11  1  0
 16 17  1  0
 18 20  1  0
 18 17  1  1
 19 18  1  0
 20 22  1  0
 21 20  2  0
M  END
$$$$
