PDS.pdb
     RDKit          3D

 22 22  0  0  1  0  0  0  0  0999 V2000
   20.4077  -11.6492  -15.7230 N   0  0  0  0  0  0  0  0  0  0  0  0
   20.4338  -13.0371  -16.1446 C   0  0  0  0  0  0  0  0  0  0  0  0
   20.4000  -12.9586  -17.6556 C   0  0  0  0  0  0  0  0  0  0  0  0
   21.0453  -11.6301  -18.0029 C   0  0  0  0  0  0  0  0  0  0  0  0
   21.2173  -10.9230  -16.6795 C   0  0  1  0  0  0  0  0  0  0  0  0
   20.7103   -9.5287  -16.7132 C   0  0  0  0  0  0  0  0  0  0  0  0
   21.2715   -8.6435  -17.4066 O   0  0  0  0  0  0  0  0  0  0  0  0
   19.5718   -9.1073  -15.9746 N   0  0  0  0  0  0  0  0  0  0  0  0
   19.1013   -7.7328  -15.9366 C   0  0  1  0  0  0  0  0  0  0  0  0
   17.6112   -7.8165  -15.6993 C   0  0  0  0  0  0  0  0  0  0  0  0
   16.8443   -8.3055  -16.8461 C   0  0  0  0  0  0  0  0  0  0  0  0
   16.9713   -7.7358  -17.9536 O   0  0  0  0  0  0  0  0  0  0  0  0
   19.7621   -7.0369  -14.8021 C   0  0  0  0  0  0  0  0  0  0  0  0
   20.2089   -7.6672  -13.8268 O   0  0  0  0  0  0  0  0  0  0  0  0
   15.9869   -9.3757  -16.7351 O   0  0  0  0  0  0  0  0  0  0  0  0
   23.3495   -4.8119  -13.8609 O   0  0  0  0  0  0  0  0  0  0  0  0
   22.3085   -5.4694  -14.5491 C   0  0  0  0  0  0  0  0  0  0  0  0
   20.9629   -5.0150  -13.9909 C   0  0  2  0  0  0  0  0  0  0  0  0
   19.9121   -5.6040  -14.7867 N   0  0  0  0  0  0  0  0  0  0  0  0
   20.9618   -3.5329  -14.0754 C   0  0  0  0  0  0  0  0  0  0  0  0
   21.4875   -2.8906  -13.1348 O   0  0  0  0  0  0  0  0  0  0  0  0
   20.4129   -2.8420  -15.1342 O   0  0  0  0  0  0  0  0  0  0  0  0
  2  1  1  0
  3  4  1  0
  3  2  1  0
  4  5  1  0
  5  6  1  6
  5  1  1  0
  6  7  2  0
  8  9  1  0
  8  6  1  0
  9 13  1  0
 10 11  1  0
  9 10  1  1
 11 12  2  0
 13 19  1  0
 13 14  2  0
 15 11  1  0
 16 17  1  0
 18 20  1  0
 18 17  1  6
 19 18  1  0
 20 22  1  0
 21 20  2  0
M  END
$$$$
