PDS.pdb
     RDKit          3D

 22 22  0  0  1  0  0  0  0  0999 V2000
   24.4232  -10.8140  -15.4267 N   0  0  0  0  0  0  0  0  0  0  0  0
   25.1602  -12.0621  -15.4888 C   0  0  0  0  0  0  0  0  0  0  0  0
   24.5224  -12.8035  -16.6439 C   0  0  0  0  0  0  0  0  0  0  0  0
   23.9912  -11.7245  -17.5689 C   0  0  0  0  0  0  0  0  0  0  0  0
   24.1562  -10.4358  -16.7989 C   0  0  1  0  0  0  0  0  0  0  0  0
   22.9184   -9.6172  -16.7947 C   0  0  0  0  0  0  0  0  0  0  0  0
   22.4573   -9.1203  -17.8529 O   0  0  0  0  0  0  0  0  0  0  0  0
   22.1818   -9.3446  -15.6105 N   0  0  0  0  0  0  0  0  0  0  0  0
   20.9833   -8.5233  -15.5799 C   0  0  1  0  0  0  0  0  0  0  0  0
   19.9955   -9.2723  -14.7156 C   0  0  0  0  0  0  0  0  0  0  0  0
   19.3061  -10.3681  -15.3985 C   0  0  0  0  0  0  0  0  0  0  0  0
   19.1073  -10.2902  -16.6320 O   0  0  0  0  0  0  0  0  0  0  0  0
   21.3200   -7.2165  -14.9576 C   0  0  0  0  0  0  0  0  0  0  0  0
   21.8431   -7.1510  -13.8307 O   0  0  0  0  0  0  0  0  0  0  0  0
   18.8710  -11.4810  -14.7165 O   0  0  0  0  0  0  0  0  0  0  0  0
   23.0762   -2.9714  -15.1738 O   0  0  0  0  0  0  0  0  0  0  0  0
   22.6260   -4.1512  -15.8024 C   0  0  0  0  0  0  0  0  0  0  0  0
   21.4563   -4.7334  -15.0140 C   0  0  2  0  0  0  0  0  0  0  0  0
   21.0544   -5.9731  -15.6353 N   0  0  0  0  0  0  0  0  0  0  0  0
   20.3800   -3.7121  -15.0605 C   0  0  0  0  0  0  0  0  0  0  0  0
   19.5683   -3.7571  -16.0159 O   0  0  0  0  0  0  0  0  0  0  0  0
   20.2381   -2.7275  -14.1064 O   0  0  0  0  0  0  0  0  0  0  0  0
  2  1  1  0
  3  4  1  0
  3  2  1  0
  4  5  1  0
  5  6  1  1
  5  1  1  0
  6  7  2  0
  8  9  1  0
  8  6  1  0
  9 13  1  0
 10 11  1  0
  9 10  1  1
 11 12  2  0
 13 19  1  0
 13 14  2  0
 15 11  1  0
 16 17  1  0
 18 20  1  0
 18 17  1  6
 19 18  1  0
 20 22  1  0
 21 20  2  0
M  END
$$$$
