PDS.pdb
     RDKit          3D

 22 22  0  0  1  0  0  0  0  0999 V2000
   26.8186  -19.3585  -15.2332 N   0  0  0  0  0  0  0  0  0  0  0  0
   28.2566  -19.3806  -15.0416 C   0  0  0  0  0  0  0  0  0  0  0  0
   28.5698  -20.8430  -14.8099 C   0  0  0  0  0  0  0  0  0  0  0  0
   27.4879  -21.6072  -15.5497 C   0  0  0  0  0  0  0  0  0  0  0  0
   26.4942  -20.5551  -15.9818 C   0  0  1  0  0  0  0  0  0  0  0  0
   25.0977  -20.9213  -15.6384 C   0  0  0  0  0  0  0  0  0  0  0  0
   24.5280  -21.9062  -16.1720 O   0  0  0  0  0  0  0  0  0  0  0  0
   24.3222  -20.1934  -14.6960 N   0  0  0  0  0  0  0  0  0  0  0  0
   22.9635  -20.5513  -14.3248 C   0  0  1  0  0  0  0  0  0  0  0  0
   22.7430  -19.9549  -12.9538 C   0  0  0  0  0  0  0  0  0  0  0  0
   21.4332  -20.2504  -12.3710 C   0  0  0  0  0  0  0  0  0  0  0  0
   20.6614  -21.0339  -12.9689 O   0  0  0  0  0  0  0  0  0  0  0  0
   22.0281  -19.9411  -15.3050 C   0  0  0  0  0  0  0  0  0  0  0  0
   22.1019  -18.7366  -15.6080 O   0  0  0  0  0  0  0  0  0  0  0  0
   21.0305  -19.6867  -11.1824 O   0  0  0  0  0  0  0  0  0  0  0  0
   19.2062  -22.2767  -17.2253 O   0  0  0  0  0  0  0  0  0  0  0  0
   19.6799  -21.1434  -17.9187 C   0  0  0  0  0  0  0  0  0  0  0  0
   20.1387  -20.0883  -16.9162 C   0  0  2  0  0  0  0  0  0  0  0  0
   20.9984  -20.7205  -15.9439 N   0  0  0  0  0  0  0  0  0  0  0  0
   18.9038  -19.5440  -16.2979 C   0  0  0  0  0  0  0  0  0  0  0  0
   18.7780  -19.6406  -15.0535 O   0  0  0  0  0  0  0  0  0  0  0  0
   17.9010  -18.9428  -17.0280 O   0  0  0  0  0  0  0  0  0  0  0  0
  2  1  1  0
  3  4  1  0
  3  2  1  0
  4  5  1  0
  5  6  1  1
  5  1  1  0
  6  7  2  0
  8  9  1  0
  8  6  1  0
  9 13  1  0
 10 11  1  0
  9 10  1  1
 11 12  2  0
 13 19  1  0
 13 14  2  0
 15 11  1  0
 16 17  1  0
 18 20  1  0
 18 17  1  6
 19 18  1  0
 20 22  1  0
 21 20  2  0
M  END
$$$$
