PDS.pdb
     RDKit          3D

 22 22  0  0  1  0  0  0  0  0999 V2000
   21.6545  -12.3070  -16.7556 N   0  0  0  0  0  0  0  0  0  0  0  0
   21.6069  -13.7168  -17.0949 C   0  0  0  0  0  0  0  0  0  0  0  0
   20.3972  -13.8327  -17.9971 C   0  0  0  0  0  0  0  0  0  0  0  0
   20.2613  -12.4758  -18.6622 C   0  0  0  0  0  0  0  0  0  0  0  0
   21.2584  -11.5920  -17.9511 C   0  0  1  0  0  0  0  0  0  0  0  0
   20.6625  -10.3049  -17.5143 C   0  0  0  0  0  0  0  0  0  0  0  0
   20.2850   -9.4415  -18.3458 O   0  0  0  0  0  0  0  0  0  0  0  0
   20.4810   -9.9676  -16.1459 N   0  0  0  0  0  0  0  0  0  0  0  0
   19.9378   -8.6970  -15.6959 C   0  0  1  0  0  0  0  0  0  0  0  0
   18.8297   -9.0449  -14.7289 C   0  0  0  0  0  0  0  0  0  0  0  0
   17.6484   -9.6414  -15.3545 C   0  0  0  0  0  0  0  0  0  0  0  0
   16.9336   -8.9384  -16.1042 O   0  0  0  0  0  0  0  0  0  0  0  0
   21.0107   -7.9443  -14.9956 C   0  0  0  0  0  0  0  0  0  0  0  0
   22.1410   -8.4353  -14.8244 O   0  0  0  0  0  0  0  0  0  0  0  0
   17.3051  -10.9558  -15.1372 O   0  0  0  0  0  0  0  0  0  0  0  0
   23.6830   -4.5945  -15.3980 O   0  0  0  0  0  0  0  0  0  0  0  0
   22.5541   -5.4148  -15.6032 C   0  0  0  0  0  0  0  0  0  0  0  0
   21.9155   -5.7478  -14.2578 C   0  0  2  0  0  0  0  0  0  0  0  0
   20.7845   -6.6152  -14.4873 N   0  0  0  0  0  0  0  0  0  0  0  0
   21.5106   -4.4498  -13.6622 C   0  0  0  0  0  0  0  0  0  0  0  0
   20.3954   -3.9765  -13.9878 O   0  0  0  0  0  0  0  0  0  0  0  0
   22.3017   -3.7517  -12.7753 O   0  0  0  0  0  0  0  0  0  0  0  0
  2  1  1  0
  3  4  1  0
  3  2  1  0
  4  5  1  0
  5  6  1  1
  5  1  1  0
  6  7  2  0
  8  9  1  0
  8  6  1  0
  9 13  1  0
 10 11  1  0
  9 10  1  1
 11 12  2  0
 13 19  1  0
 13 14  2  0
 15 11  1  0
 16 17  1  0
 18 20  1  0
 18 17  1  6
 19 18  1  0
 20 22  1  0
 21 20  2  0
M  END
$$$$
