TVE.pdb
     RDKit          3D

 24 23  0  0  1  0  0  0  0  0999 V2000
   23.8495  -10.1578  -14.5607 C   0  0  0  0  0  0  0  0  0  0  0  0
   23.9109  -11.2948  -15.5183 C   0  0  1  0  0  0  0  0  0  0  0  0
   24.9393  -12.1552  -15.2180 O   0  0  0  0  0  0  0  0  0  0  0  0
   22.5948  -12.0807  -15.5141 C   0  0  2  0  0  0  0  0  0  0  0  0
   22.6949  -13.1913  -16.4339 N   0  0  0  0  0  0  0  0  0  0  0  0
   21.5120  -11.1764  -16.0220 C   0  0  0  0  0  0  0  0  0  0  0  0
   21.4377  -10.8206  -17.2257 O   0  0  0  0  0  0  0  0  0  0  0  0
   17.8099  -11.8465  -15.5616 C   0  0  0  0  0  0  0  0  0  0  0  0
   18.1632  -10.4964  -15.0094 C   0  0  2  0  0  0  0  0  0  0  0  0
   16.9998   -9.5584  -15.0719 C   0  0  0  0  0  0  0  0  0  0  0  0
   19.4117   -9.9173  -15.6351 C   0  0  2  0  0  0  0  0  0  0  0  0
   20.5362  -10.7033  -15.1093 N   0  0  0  0  0  0  0  0  0  0  0  0
   19.6116   -8.4944  -15.3969 C   0  0  0  0  0  0  0  0  0  0  0  0
   20.0035   -8.0196  -14.2738 O   0  0  0  0  0  0  0  0  0  0  0  0
   19.3875   -7.5315  -16.4020 N   0  0  0  0  0  0  0  0  0  0  0  0
   19.6030   -6.0974  -16.0999 C   0  0  1  0  0  0  0  0  0  0  0  0
   20.5510   -5.6637  -17.2288 C   0  0  0  0  0  0  0  0  0  0  0  0
   20.8367   -4.1972  -17.1992 C   0  0  0  0  0  0  0  0  0  0  0  0
   21.6616   -3.8340  -18.4005 C   0  0  0  0  0  0  0  0  0  0  0  0
   22.0409   -4.6973  -19.2322 O   0  0  0  0  0  0  0  0  0  0  0  0
   18.3085   -5.4000  -16.1963 C   0  0  0  0  0  0  0  0  0  0  0  0
   18.0943   -4.2054  -15.5053 O   0  0  0  0  0  0  0  0  0  0  0  0
   22.0144   -2.4936  -18.5887 O   0  0  0  0  0  0  0  0  0  0  0  0
   17.3878   -5.8870  -16.9044 O   0  0  0  0  0  0  0  0  0  0  0  0
  2  1  1  1
  2  3  1  0
  4  5  1  6
  4  6  1  0
  4  2  1  0
  6  7  2  0
  9  8  1  6
  9 10  1  0
  9 11  1  0
 11 13  1  0
 12  6  1  0
 11 12  1  1
 13 14  2  0
 13 15  1  0
 15 16  1  0
 16 21  1  0
 16 17  1  6
 18 17  1  0
 19 20  2  0
 19 18  1  0
 21 24  2  0
 21 22  1  0
 23 19  1  0
M  END
$$$$
