TVE.pdb
     RDKit          3D

 24 23  0  0  1  0  0  0  0  0999 V2000
   23.0357   -9.8146  -20.4225 C   0  0  0  0  0  0  0  0  0  0  0  0
   22.2286  -11.0632  -20.4779 C   0  0  1  0  0  0  0  0  0  0  0  0
   22.6558  -11.8985  -21.4818 O   0  0  0  0  0  0  0  0  0  0  0  0
   22.3021  -11.8174  -19.1455 C   0  0  2  0  0  0  0  0  0  0  0  0
   21.5093  -13.0232  -19.2310 N   0  0  0  0  0  0  0  0  0  0  0  0
   21.6863  -10.9522  -18.0871 C   0  0  0  0  0  0  0  0  0  0  0  0
   20.4703  -10.6327  -18.0983 O   0  0  0  0  0  0  0  0  0  0  0  0
   23.6773  -10.5396  -14.4119 C   0  0  0  0  0  0  0  0  0  0  0  0
   22.2018  -10.4474  -14.6708 C   0  0  2  0  0  0  0  0  0  0  0  0
   21.5491  -11.7914  -14.5999 C   0  0  0  0  0  0  0  0  0  0  0  0
   21.8776   -9.7100  -15.9501 C   0  0  2  0  0  0  0  0  0  0  0  0
   22.5075  -10.4749  -17.0350 N   0  0  0  0  0  0  0  0  0  0  0  0
   22.3022   -8.3170  -15.9774 C   0  0  0  0  0  0  0  0  0  0  0  0
   23.4962   -7.9534  -16.2647 O   0  0  0  0  0  0  0  0  0  0  0  0
   21.4139   -7.2610  -15.6891 N   0  0  0  0  0  0  0  0  0  0  0  0
   21.9152   -5.8671  -15.6814 C   0  0  1  0  0  0  0  0  0  0  0  0
   20.8988   -5.1485  -16.5825 C   0  0  0  0  0  0  0  0  0  0  0  0
   21.1474   -3.6769  -16.6586 C   0  0  0  0  0  0  0  0  0  0  0  0
   20.0901   -3.0449  -17.5178 C   0  0  0  0  0  0  0  0  0  0  0  0
   19.2832   -2.1951  -17.0620 O   0  0  0  0  0  0  0  0  0  0  0  0
   21.8546   -5.3565  -14.3004 C   0  0  0  0  0  0  0  0  0  0  0  0
   21.1117   -6.0297  -13.3282 O   0  0  0  0  0  0  0  0  0  0  0  0
   20.0082   -3.4214  -18.8625 O   0  0  0  0  0  0  0  0  0  0  0  0
   22.4746   -4.3034  -13.9961 O   0  0  0  0  0  0  0  0  0  0  0  0
  2  1  1  1
  2  3  1  0
  4  5  1  6
  4  6  1  0
  4  2  1  0
  6  7  2  0
  9  8  1  6
  9 10  1  0
  9 11  1  0
 11 13  1  0
 12  6  1  0
 11 12  1  6
 13 14  2  0
 13 15  1  0
 15 16  1  0
 16 21  1  0
 16 17  1  6
 18 17  1  0
 19 20  2  0
 19 18  1  0
 21 24  2  0
 21 22  1  0
 23 19  1  0
M  END
$$$$
