TVE.pdb
     RDKit          3D

 24 23  0  0  1  0  0  0  0  0999 V2000
   18.6673   -8.1339  -17.6328 C   0  0  0  0  0  0  0  0  0  0  0  0
   18.0472   -9.4210  -17.2177 C   0  0  1  0  0  0  0  0  0  0  0  0
   17.2001   -9.9097  -18.1830 O   0  0  0  0  0  0  0  0  0  0  0  0
   19.1227  -10.4740  -16.9280 C   0  0  2  0  0  0  0  0  0  0  0  0
   18.4914  -11.7505  -16.6793 N   0  0  0  0  0  0  0  0  0  0  0  0
   19.8358  -10.0761  -15.6706 C   0  0  0  0  0  0  0  0  0  0  0  0
   19.3053  -10.1687  -14.5344 O   0  0  0  0  0  0  0  0  0  0  0  0
   24.0410   -9.0644  -15.8250 C   0  0  0  0  0  0  0  0  0  0  0  0
   23.3121   -9.8700  -14.7894 C   0  0  2  0  0  0  0  0  0  0  0  0
   23.3377  -11.3298  -15.1144 C   0  0  0  0  0  0  0  0  0  0  0  0
   21.9145   -9.3569  -14.5267 C   0  0  2  0  0  0  0  0  0  0  0  0
   21.1579   -9.5745  -15.7673 N   0  0  0  0  0  0  0  0  0  0  0  0
   21.8431   -7.9637  -14.1081 C   0  0  0  0  0  0  0  0  0  0  0  0
   22.3747   -7.5279  -13.0274 O   0  0  0  0  0  0  0  0  0  0  0  0
   21.1779   -6.9872  -14.8773 N   0  0  0  0  0  0  0  0  0  0  0  0
   21.0163   -5.6176  -14.3367 C   0  0  1  0  0  0  0  0  0  0  0  0
   22.1576   -4.8557  -15.0285 C   0  0  0  0  0  0  0  0  0  0  0  0
   21.9158   -4.6761  -16.4922 C   0  0  0  0  0  0  0  0  0  0  0  0
   23.0066   -3.8192  -17.0677 C   0  0  0  0  0  0  0  0  0  0  0  0
   22.9716   -2.5642  -17.0006 O   0  0  0  0  0  0  0  0  0  0  0  0
   19.7018   -5.1014  -14.7573 C   0  0  0  0  0  0  0  0  0  0  0  0
   19.2259   -3.8862  -14.2601 O   0  0  0  0  0  0  0  0  0  0  0  0
   24.0876   -4.4460  -17.6966 O   0  0  0  0  0  0  0  0  0  0  0  0
   19.0014   -5.7629  -15.5684 O   0  0  0  0  0  0  0  0  0  0  0  0
  2  1  1  6
  2  3  1  0
  4  5  1  1
  4  6  1  0
  4  2  1  0
  6  7  2  0
  9  8  1  6
  9 10  1  0
  9 11  1  0
 11 13  1  0
 12  6  1  0
 11 12  1  6
 13 14  2  0
 13 15  1  0
 15 16  1  0
 16 21  1  0
 16 17  1  6
 18 17  1  0
 19 20  2  0
 19 18  1  0
 21 24  2  0
 21 22  1  0
 23 19  1  0
M  END
$$$$
