TVE.pdb
     RDKit          3D

 24 23  0  0  1  0  0  0  0  0999 V2000
   26.8643  -16.3257  -18.0036 C   0  0  0  0  0  0  0  0  0  0  0  0
   26.3927  -17.4266  -17.1210 C   0  0  1  0  0  0  0  0  0  0  0  0
   25.3823  -18.1493  -17.7083 O   0  0  0  0  0  0  0  0  0  0  0  0
   27.5436  -18.3791  -16.7778 C   0  0  2  0  0  0  0  0  0  0  0  0
   27.9667  -19.0727  -17.9735 N   0  0  0  0  0  0  0  0  0  0  0  0
   27.0235  -19.4115  -15.8230 C   0  0  0  0  0  0  0  0  0  0  0  0
   26.3824  -20.4234  -16.2051 O   0  0  0  0  0  0  0  0  0  0  0  0
   29.1011  -20.9386  -12.9611 C   0  0  0  0  0  0  0  0  0  0  0  0
   27.8000  -20.4103  -12.4313 C   0  0  2  0  0  0  0  0  0  0  0  0
   27.3163  -21.2154  -11.2672 C   0  0  0  0  0  0  0  0  0  0  0  0
   26.7501  -20.2554  -13.5079 C   0  0  2  0  0  0  0  0  0  0  0  0
   27.2623  -19.2385  -14.4367 N   0  0  0  0  0  0  0  0  0  0  0  0
   25.4239  -19.8995  -13.0223 C   0  0  0  0  0  0  0  0  0  0  0  0
   25.1155  -18.7218  -12.6243 O   0  0  0  0  0  0  0  0  0  0  0  0
   24.3754  -20.8399  -12.9603 N   0  0  0  0  0  0  0  0  0  0  0  0
   23.0573  -20.4291  -12.4237 C   0  0  1  0  0  0  0  0  0  0  0  0
   22.0813  -21.1948  -13.3307 C   0  0  0  0  0  0  0  0  0  0  0  0
   20.6573  -21.0109  -12.9165 C   0  0  0  0  0  0  0  0  0  0  0  0
   20.1119  -19.7745  -13.5717 C   0  0  0  0  0  0  0  0  0  0  0  0
   20.3963  -19.4701  -14.7581 O   0  0  0  0  0  0  0  0  0  0  0  0
   22.9571  -20.8896  -11.0275 C   0  0  0  0  0  0  0  0  0  0  0  0
   22.0082  -20.3358  -10.1653 O   0  0  0  0  0  0  0  0  0  0  0  0
   19.2653  -18.9432  -12.8307 O   0  0  0  0  0  0  0  0  0  0  0  0
   23.7353  -21.7866  -10.6083 O   0  0  0  0  0  0  0  0  0  0  0  0
  2  1  1  6
  2  3  1  0
  4  5  1  6
  4  6  1  0
  4  2  1  0
  6  7  2  0
  9  8  1  6
  9 10  1  0
  9 11  1  0
 11 13  1  0
 12  6  1  0
 11 12  1  6
 13 14  2  0
 13 15  1  0
 15 16  1  0
 16 21  1  0
 16 17  1  6
 18 17  1  0
 19 20  2  0
 19 18  1  0
 21 24  2  0
 21 22  1  0
 23 19  1  0
M  END
$$$$
