TVE.pdb
     RDKit          3D

 24 23  0  0  1  0  0  0  0  0999 V2000
   17.0091  -10.8789  -18.1747 C   0  0  0  0  0  0  0  0  0  0  0  0
   17.9593  -10.1142  -17.3228 C   0  0  1  0  0  0  0  0  0  0  0  0
   17.3689   -8.9977  -16.7815 O   0  0  0  0  0  0  0  0  0  0  0  0
   18.4935  -10.9896  -16.1835 C   0  0  2  0  0  0  0  0  0  0  0  0
   17.4067  -11.3424  -15.2980 N   0  0  0  0  0  0  0  0  0  0  0  0
   19.4698  -10.1745  -15.3896 C   0  0  0  0  0  0  0  0  0  0  0  0
   19.1459   -9.5693  -14.3362 O   0  0  0  0  0  0  0  0  0  0  0  0
   23.5756  -10.4809  -16.2379 C   0  0  0  0  0  0  0  0  0  0  0  0
   23.0118   -9.9787  -14.9407 C   0  0  2  0  0  0  0  0  0  0  0  0
   22.8728  -11.0826  -13.9410 C   0  0  0  0  0  0  0  0  0  0  0  0
   21.7319   -9.1952  -15.1239 C   0  0  2  0  0  0  0  0  0  0  0  0
   20.8085  -10.0814  -15.8458 N   0  0  0  0  0  0  0  0  0  0  0  0
   21.8869   -7.9242  -15.8180 C   0  0  0  0  0  0  0  0  0  0  0  0
   22.1009   -7.8345  -17.0776 O   0  0  0  0  0  0  0  0  0  0  0  0
   21.8070   -6.6903  -15.1408 N   0  0  0  0  0  0  0  0  0  0  0  0
   21.9896   -5.4296  -15.8969 C   0  0  1  0  0  0  0  0  0  0  0  0
   20.6029   -4.7770  -15.7853 C   0  0  0  0  0  0  0  0  0  0  0  0
   20.5318   -3.4673  -16.5015 C   0  0  0  0  0  0  0  0  0  0  0  0
   19.1530   -2.8945  -16.3401 C   0  0  0  0  0  0  0  0  0  0  0  0
   18.2606   -3.4853  -15.6802 O   0  0  0  0  0  0  0  0  0  0  0  0
   23.0141   -4.6197  -15.2143 C   0  0  0  0  0  0  0  0  0  0  0  0
   23.7486   -3.6647  -15.9207 O   0  0  0  0  0  0  0  0  0  0  0  0
   18.8632   -1.6682  -16.9476 O   0  0  0  0  0  0  0  0  0  0  0  0
   23.2309   -4.7928  -13.9859 O   0  0  0  0  0  0  0  0  0  0  0  0
  2  1  1  1
  2  3  1  0
  4  5  1  1
  4  6  1  0
  4  2  1  0
  6  7  2  0
  9  8  1  6
  9 10  1  0
  9 11  1  0
 11 13  1  0
 12  6  1  0
 11 12  1  6
 13 14  2  0
 13 15  1  0
 15 16  1  0
 16 21  1  0
 16 17  1  1
 18 17  1  0
 19 20  2  0
 19 18  1  0
 21 24  2  0
 21 22  1  0
 23 19  1  0
M  END
$$$$
