TVE.pdb
     RDKit          3D

 24 23  0  0  1  0  0  0  0  0999 V2000
   26.6799  -13.5499  -15.6599 C   0  0  0  0  0  0  0  0  0  0  0  0
   25.8348  -12.4269  -16.1480 C   0  0  1  0  0  0  0  0  0  0  0  0
   26.3884  -11.8173  -17.2480 O   0  0  0  0  0  0  0  0  0  0  0  0
   24.4312  -12.9222  -16.5141 C   0  0  2  0  0  0  0  0  0  0  0  0
   24.5056  -13.7442  -17.7009 N   0  0  0  0  0  0  0  0  0  0  0  0
   23.5899  -11.7275  -16.8503 C   0  0  0  0  0  0  0  0  0  0  0  0
   23.6031  -11.1897  -17.9867 O   0  0  0  0  0  0  0  0  0  0  0  0
   20.2238  -10.8005  -14.4572 C   0  0  0  0  0  0  0  0  0  0  0  0
   20.4555  -10.5361  -15.9163 C   0  0  2  0  0  0  0  0  0  0  0  0
   20.0517  -11.7070  -16.7550 C   0  0  0  0  0  0  0  0  0  0  0  0
   21.8628  -10.0683  -16.2095 C   0  0  2  0  0  0  0  0  0  0  0  0
   22.7491  -11.1830  -15.8476 N   0  0  0  0  0  0  0  0  0  0  0  0
   22.2556   -8.8444  -15.5245 C   0  0  0  0  0  0  0  0  0  0  0  0
   22.8776   -8.8359  -14.4050 O   0  0  0  0  0  0  0  0  0  0  0  0
   21.9765   -7.5694  -16.0574 N   0  0  0  0  0  0  0  0  0  0  0  0
   22.4772   -6.3617  -15.3610 C   0  0  1  0  0  0  0  0  0  0  0  0
   22.2293   -5.2576  -16.4007 C   0  0  0  0  0  0  0  0  0  0  0  0
   22.5834   -3.9007  -15.8842 C   0  0  0  0  0  0  0  0  0  0  0  0
   22.2177   -2.8726  -16.9161 C   0  0  0  0  0  0  0  0  0  0  0  0
   22.8387   -2.7732  -18.0048 O   0  0  0  0  0  0  0  0  0  0  0  0
   21.6607   -6.1466  -14.1532 C   0  0  0  0  0  0  0  0  0  0  0  0
   22.2045   -5.5117  -13.0345 O   0  0  0  0  0  0  0  0  0  0  0  0
   21.1548   -2.0040  -16.6469 O   0  0  0  0  0  0  0  0  0  0  0  0
   20.4651   -6.5416  -14.1291 O   0  0  0  0  0  0  0  0  0  0  0  0
  2  1  1  6
  2  3  1  0
  4  5  1  6
  4  6  1  0
  4  2  1  0
  6  7  2  0
  9  8  1  1
  9 10  1  0
  9 11  1  0
 11 13  1  0
 12  6  1  0
 11 12  1  1
 13 14  2  0
 13 15  1  0
 15 16  1  0
 16 21  1  0
 16 17  1  6
 18 17  1  0
 19 20  2  0
 19 18  1  0
 21 24  2  0
 21 22  1  0
 23 19  1  0
M  END
$$$$
