SMK.pdb
     RDKit          3D

 24 23  0  0  1  0  0  0  0  0999 V2000
    7.8406  -17.8613   20.8968 O   0  0  0  0  0  0  0  0  0  0  0  0
    7.1000  -16.7036   20.6349 C   0  0  0  0  0  0  0  0  0  0  0  0
    7.9890  -15.4804   20.7107 C   0  0  2  0  0  0  0  0  0  0  0  0
    9.0440  -15.6109   19.7480 N   0  0  0  0  0  0  0  0  0  0  0  0
    8.5519  -15.2784   22.0622 C   0  0  0  0  0  0  0  0  0  0  0  0
    9.7560  -15.5532   22.2560 O   0  0  0  0  0  0  0  0  0  0  0  0
    5.4026  -11.5285   27.1123 C   0  0  0  0  0  0  0  0  0  0  0  0
    7.1077  -11.4032   26.5422 S   0  0  0  0  0  0  0  0  0  0  0  0
    7.3168  -12.3900   25.0071 C   0  0  0  0  0  0  0  0  0  0  0  0
    7.3834  -13.8475   25.3714 C   0  0  0  0  0  0  0  0  0  0  0  0
    8.2795  -14.6702   24.5147 C   0  0  2  0  0  0  0  0  0  0  0  0
    7.7924  -14.7870   23.1524 N   0  0  0  0  0  0  0  0  0  0  0  0
    8.6193  -16.0071   25.0567 C   0  0  0  0  0  0  0  0  0  0  0  0
    7.8271  -16.9794   25.0110 O   0  0  0  0  0  0  0  0  0  0  0  0
    9.8914  -16.2685   25.6729 N   0  0  0  0  0  0  0  0  0  0  0  0
   10.2486  -17.5876   26.1820 C   0  0  1  0  0  0  0  0  0  0  0  0
   11.4966  -18.0483   25.5048 C   0  0  0  0  0  0  0  0  0  0  0  0
   11.9314  -19.3953   25.9689 C   0  0  0  0  0  0  0  0  0  0  0  0
   13.1953  -19.7877   25.2426 C   0  0  0  0  0  0  0  0  0  0  0  0
   13.7005  -21.1479   25.7447 C   0  0  0  0  0  0  0  0  0  0  0  0
   14.7383  -21.5623   24.8188 N   0  0  0  0  0  0  0  0  0  0  0  0
   10.3149  -17.5852   27.6606 C   0  0  0  0  0  0  0  0  0  0  0  0
   10.3470  -18.7387   28.4165 O   0  0  0  0  0  0  0  0  0  0  0  0
   10.3438  -16.4832   28.2889 O   0  0  0  0  0  0  0  0  0  0  0  0
  2  1  1  0
  3  2  1  0
  3  4  1  6
  5  6  2  0
  5  3  1  0
  7  8  1  0
  8  9  1  0
  9 10  1  0
 11 10  1  1
 11 12  1  0
 12  5  1  0
 13 15  1  0
 13 11  1  0
 14 13  2  0
 16 22  1  0
 16 15  1  0
 16 17  1  6
 17 18  1  0
 18 19  1  0
 19 20  1  0
 20 21  1  0
 22 23  1  0
 24 22  2  0
M  END
$$$$
