SMK.pdb
     RDKit          3D

 24 23  0  0  1  0  0  0  0  0999 V2000
    7.7958  -17.9662   20.7234 O   0  0  0  0  0  0  0  0  0  0  0  0
    7.1155  -16.9815   19.9989 C   0  0  0  0  0  0  0  0  0  0  0  0
    7.8614  -15.6658   20.0683 C   0  0  2  0  0  0  0  0  0  0  0  0
    8.9763  -15.7143   19.1674 N   0  0  0  0  0  0  0  0  0  0  0  0
    8.3231  -15.3538   21.4372 C   0  0  0  0  0  0  0  0  0  0  0  0
    9.5281  -15.5338   21.7178 O   0  0  0  0  0  0  0  0  0  0  0  0
    6.6909  -11.5452   28.1879 C   0  0  0  0  0  0  0  0  0  0  0  0
    6.2104  -12.0248   26.5184 S   0  0  0  0  0  0  0  0  0  0  0  0
    7.1997  -13.4787   25.9876 C   0  0  0  0  0  0  0  0  0  0  0  0
    6.8281  -13.8294   24.5734 C   0  0  0  0  0  0  0  0  0  0  0  0
    7.8774  -14.5559   23.8085 C   0  0  2  0  0  0  0  0  0  0  0  0
    7.4654  -14.8590   22.4502 N   0  0  0  0  0  0  0  0  0  0  0  0
    8.4128  -15.7706   24.4677 C   0  0  0  0  0  0  0  0  0  0  0  0
    7.7769  -16.8514   24.5185 O   0  0  0  0  0  0  0  0  0  0  0  0
    9.7067  -15.7791   25.0937 N   0  0  0  0  0  0  0  0  0  0  0  0
   10.2417  -16.9669   25.7494 C   0  0  1  0  0  0  0  0  0  0  0  0
   11.6312  -17.2078   25.2599 C   0  0  0  0  0  0  0  0  0  0  0  0
   11.7236  -18.4038   24.3768 C   0  0  0  0  0  0  0  0  0  0  0  0
   13.1454  -18.5562   23.8928 C   0  0  0  0  0  0  0  0  0  0  0  0
   13.2476  -19.7134   22.8889 C   0  0  0  0  0  0  0  0  0  0  0  0
   14.6418  -19.7850   22.4926 N   0  0  0  0  0  0  0  0  0  0  0  0
   10.1162  -16.8624   27.2204 C   0  0  0  0  0  0  0  0  0  0  0  0
   10.3726  -17.9134   28.0763 O   0  0  0  0  0  0  0  0  0  0  0  0
    9.7562  -15.7653   27.7464 O   0  0  0  0  0  0  0  0  0  0  0  0
  2  1  1  0
  3  2  1  0
  3  4  1  6
  5  6  2  0
  5  3  1  0
  7  8  1  0
  8  9  1  0
  9 10  1  0
 11 10  1  1
 11 12  1  0
 12  5  1  0
 13 15  1  0
 13 11  1  0
 14 13  2  0
 16 22  1  0
 16 15  1  0
 16 17  1  1
 17 18  1  0
 18 19  1  0
 19 20  1  0
 20 21  1  0
 22 23  1  0
 24 22  2  0
M  END
$$$$
