SMK.pdb
     RDKit          3D

 24 23  0  0  1  0  0  0  0  0999 V2000
    6.1875  -17.8034   19.6247 O   0  0  0  0  0  0  0  0  0  0  0  0
    7.5027  -17.5842   20.0485 C   0  0  0  0  0  0  0  0  0  0  0  0
    7.8338  -16.1077   19.9986 C   0  0  2  0  0  0  0  0  0  0  0  0
    8.7772  -15.8772   18.9433 N   0  0  0  0  0  0  0  0  0  0  0  0
    8.3703  -15.6089   21.2823 C   0  0  0  0  0  0  0  0  0  0  0  0
    9.5928  -15.7373   21.5101 O   0  0  0  0  0  0  0  0  0  0  0  0
    6.8830  -11.2804   27.8174 C   0  0  0  0  0  0  0  0  0  0  0  0
    6.3536  -11.8858   26.2045 S   0  0  0  0  0  0  0  0  0  0  0  0
    7.5398  -13.1532   25.6039 C   0  0  0  0  0  0  0  0  0  0  0  0
    7.1261  -13.5922   24.2264 C   0  0  0  0  0  0  0  0  0  0  0  0
    8.0338  -14.5788   23.5810 C   0  0  2  0  0  0  0  0  0  0  0  0
    7.5654  -14.9903   22.2703 N   0  0  0  0  0  0  0  0  0  0  0  0
    8.3663  -15.7649   24.4052 C   0  0  0  0  0  0  0  0  0  0  0  0
    7.5103  -16.6185   24.7424 O   0  0  0  0  0  0  0  0  0  0  0  0
    9.7046  -16.0072   24.8703 N   0  0  0  0  0  0  0  0  0  0  0  0
   10.0720  -17.2354   25.5658 C   0  0  1  0  0  0  0  0  0  0  0  0
   11.1999  -17.8876   24.8371 C   0  0  0  0  0  0  0  0  0  0  0  0
   11.6398  -19.1539   25.4866 C   0  0  0  0  0  0  0  0  0  0  0  0
   12.7678  -19.7580   24.6855 C   0  0  0  0  0  0  0  0  0  0  0  0
   13.1378  -21.1406   25.2412 C   0  0  0  0  0  0  0  0  0  0  0  0
   14.2406  -21.6222   24.4301 N   0  0  0  0  0  0  0  0  0  0  0  0
   10.3331  -16.9751   26.9991 C   0  0  0  0  0  0  0  0  0  0  0  0
   10.5566  -15.7127   27.5085 O   0  0  0  0  0  0  0  0  0  0  0  0
   10.3593  -17.9413   27.8211 O   0  0  0  0  0  0  0  0  0  0  0  0
  2  1  1  0
  3  2  1  0
  3  4  1  6
  5  6  2  0
  5  3  1  0
  7  8  1  0
  8  9  1  0
  9 10  1  0
 11 10  1  1
 11 12  1  0
 12  5  1  0
 13 15  1  0
 13 11  1  0
 14 13  2  0
 16 22  1  0
 16 15  1  0
 16 17  1  6
 17 18  1  0
 18 19  1  0
 19 20  1  0
 20 21  1  0
 22 23  1  0
 24 22  2  0
M  END
$$$$
