SMK.pdb
     RDKit          3D

 24 23  0  0  1  0  0  0  0  0999 V2000
    7.6341  -15.9071   19.3326 O   0  0  0  0  0  0  0  0  0  0  0  0
    6.7120  -14.8717   19.1452 C   0  0  0  0  0  0  0  0  0  0  0  0
    7.3396  -13.5378   19.4904 C   0  0  2  0  0  0  0  0  0  0  0  0
    8.2948  -13.1960   18.4765 N   0  0  0  0  0  0  0  0  0  0  0  0
    7.9861  -13.5486   20.8194 C   0  0  0  0  0  0  0  0  0  0  0  0
    9.2288  -13.6722   20.8792 O   0  0  0  0  0  0  0  0  0  0  0  0
    5.6863  -12.4356   27.9219 C   0  0  0  0  0  0  0  0  0  0  0  0
    6.6200  -11.4387   26.7460 S   0  0  0  0  0  0  0  0  0  0  0  0
    7.6712  -12.5329   25.7107 C   0  0  0  0  0  0  0  0  0  0  0  0
    7.0883  -12.5989   24.3261 C   0  0  0  0  0  0  0  0  0  0  0  0
    7.8650  -13.4152   23.3544 C   0  0  2  0  0  0  0  0  0  0  0  0
    7.2653  -13.4252   22.0326 N   0  0  0  0  0  0  0  0  0  0  0  0
    8.1700  -14.7979   23.7922 C   0  0  0  0  0  0  0  0  0  0  0  0
    7.3156  -15.7171   23.7817 O   0  0  0  0  0  0  0  0  0  0  0  0
    9.4779  -15.1684   24.2594 N   0  0  0  0  0  0  0  0  0  0  0  0
    9.8054  -16.5380   24.6386 C   0  0  1  0  0  0  0  0  0  0  0  0
   10.9882  -16.9914   23.8487 C   0  0  0  0  0  0  0  0  0  0  0  0
   11.3555  -18.4061   24.1361 C   0  0  0  0  0  0  0  0  0  0  0  0
   12.5917  -18.7687   23.3492 C   0  0  0  0  0  0  0  0  0  0  0  0
   12.9926  -20.2251   23.6238 C   0  0  0  0  0  0  0  0  0  0  0  0
   14.0368  -20.5457   22.6684 N   0  0  0  0  0  0  0  0  0  0  0  0
    9.9608  -16.6593   26.1054 C   0  0  0  0  0  0  0  0  0  0  0  0
    9.8830  -17.8625   26.7757 O   0  0  0  0  0  0  0  0  0  0  0  0
   10.1760  -15.6227   26.8048 O   0  0  0  0  0  0  0  0  0  0  0  0
  2  1  1  0
  3  2  1  0
  3  4  1  6
  5  6  2  0
  5  3  1  0
  7  8  1  0
  8  9  1  0
  9 10  1  0
 11 10  1  1
 11 12  1  0
 12  5  1  0
 13 15  1  0
 13 11  1  0
 14 13  2  0
 16 22  1  0
 16 15  1  0
 16 17  1  6
 17 18  1  0
 18 19  1  0
 19 20  1  0
 20 21  1  0
 22 23  1  0
 24 22  2  0
M  END
$$$$
