SMK.pdb
     RDKit          3D

 24 23  0  0  1  0  0  0  0  0999 V2000
    7.7120  -17.5801   20.6792 O   0  0  0  0  0  0  0  0  0  0  0  0
    6.8129  -16.5810   20.2905 C   0  0  0  0  0  0  0  0  0  0  0  0
    7.4346  -15.2125   20.4716 C   0  0  2  0  0  0  0  0  0  0  0  0
    8.3996  -14.9980   19.4326 N   0  0  0  0  0  0  0  0  0  0  0  0
    8.0672  -15.0544   21.7980 C   0  0  0  0  0  0  0  0  0  0  0  0
    9.3148  -15.0824   21.8729 O   0  0  0  0  0  0  0  0  0  0  0  0
    5.9871  -10.2116   26.4865 C   0  0  0  0  0  0  0  0  0  0  0  0
    6.3941  -11.9505   26.7289 S   0  0  0  0  0  0  0  0  0  0  0  0
    6.6314  -12.7597   25.0971 C   0  0  0  0  0  0  0  0  0  0  0  0
    6.9702  -14.2081   25.3174 C   0  0  0  0  0  0  0  0  0  0  0  0
    7.9069  -14.7942   24.3209 C   0  0  2  0  0  0  0  0  0  0  0  0
    7.3277  -14.8717   22.9923 N   0  0  0  0  0  0  0  0  0  0  0  0
    8.4995  -16.0983   24.7015 C   0  0  0  0  0  0  0  0  0  0  0  0
    7.9014  -17.1893   24.5372 O   0  0  0  0  0  0  0  0  0  0  0  0
    9.8089  -16.1878   25.2875 N   0  0  0  0  0  0  0  0  0  0  0  0
   10.4041  -17.4657   25.6614 C   0  0  1  0  0  0  0  0  0  0  0  0
   11.6949  -17.6329   24.9304 C   0  0  0  0  0  0  0  0  0  0  0  0
   12.3272  -18.9567   25.1885 C   0  0  0  0  0  0  0  0  0  0  0  0
   13.6272  -19.0442   24.4262 C   0  0  0  0  0  0  0  0  0  0  0  0
   14.3206  -20.3858   24.7031 C   0  0  0  0  0  0  0  0  0  0  0  0
   15.5381  -20.3840   23.9136 N   0  0  0  0  0  0  0  0  0  0  0  0
   10.5082  -17.5919   27.1324 C   0  0  0  0  0  0  0  0  0  0  0  0
   10.7223  -18.7946   27.7734 O   0  0  0  0  0  0  0  0  0  0  0  0
   10.3981  -16.5607   27.8633 O   0  0  0  0  0  0  0  0  0  0  0  0
  2  1  1  0
  3  2  1  0
  3  4  1  6
  5  6  2  0
  5  3  1  0
  7  8  1  0
  8  9  1  0
  9 10  1  0
 11 10  1  1
 11 12  1  0
 12  5  1  0
 13 15  1  0
 13 11  1  0
 14 13  2  0
 16 22  1  0
 16 15  1  0
 16 17  1  6
 17 18  1  0
 18 19  1  0
 19 20  1  0
 20 21  1  0
 22 23  1  0
 24 22  2  0
M  END
$$$$
