SMK.pdb
     RDKit          3D

 24 23  0  0  1  0  0  0  0  0999 V2000
    8.6938  -20.7154   18.7491 O   0  0  0  0  0  0  0  0  0  0  0  0
    7.7556  -20.0639   17.9412 C   0  0  0  0  0  0  0  0  0  0  0  0
    8.3800  -18.8545   17.2781 C   0  0  2  0  0  0  0  0  0  0  0  0
    9.3889  -19.2959   16.3594 N   0  0  0  0  0  0  0  0  0  0  0  0
    8.9583  -17.9124   18.2591 C   0  0  0  0  0  0  0  0  0  0  0  0
   10.1874  -17.9611   18.4826 O   0  0  0  0  0  0  0  0  0  0  0  0
    7.6303  -11.3017   22.5322 C   0  0  0  0  0  0  0  0  0  0  0  0
    7.0557  -12.5183   21.3330 S   0  0  0  0  0  0  0  0  0  0  0  0
    8.3272  -13.8280   21.1285 C   0  0  0  0  0  0  0  0  0  0  0  0
    7.8219  -14.8466   20.1444 C   0  0  0  0  0  0  0  0  0  0  0  0
    8.7163  -16.0170   19.9347 C   0  0  2  0  0  0  0  0  0  0  0  0
    8.1866  -16.9537   18.9605 N   0  0  0  0  0  0  0  0  0  0  0  0
    9.1221  -16.7312   21.1683 C   0  0  0  0  0  0  0  0  0  0  0  0
    8.5242  -17.7508   21.5901 O   0  0  0  0  0  0  0  0  0  0  0  0
   10.2373  -16.2905   21.9610 N   0  0  0  0  0  0  0  0  0  0  0  0
   10.7566  -17.0789   23.0727 C   0  0  1  0  0  0  0  0  0  0  0  0
   11.2183  -18.4013   22.5567 C   0  0  0  0  0  0  0  0  0  0  0  0
   11.7621  -19.2739   23.6346 C   0  0  0  0  0  0  0  0  0  0  0  0
   12.3072  -20.5410   23.0212 C   0  0  0  0  0  0  0  0  0  0  0  0
   12.8059  -21.4941   24.1169 C   0  0  0  0  0  0  0  0  0  0  0  0
   13.0903  -22.7558   23.4586 N   0  0  0  0  0  0  0  0  0  0  0  0
   11.7791  -16.3210   23.8280 C   0  0  0  0  0  0  0  0  0  0  0  0
   12.2363  -15.0784   23.4411 O   0  0  0  0  0  0  0  0  0  0  0  0
   12.2769  -16.8148   24.8855 O   0  0  0  0  0  0  0  0  0  0  0  0
  2  1  1  0
  3  2  1  0
  3  4  1  6
  5  6  2  0
  5  3  1  0
  7  8  1  0
  8  9  1  0
  9 10  1  0
 11 10  1  1
 11 12  1  0
 12  5  1  0
 13 15  1  0
 13 11  1  0
 14 13  2  0
 16 22  1  0
 16 15  1  0
 16 17  1  6
 17 18  1  0
 18 19  1  0
 19 20  1  0
 20 21  1  0
 22 23  1  0
 24 22  2  0
M  END
$$$$
