SMK.pdb
     RDKit          3D

 24 23  0  0  1  0  0  0  0  0999 V2000
    7.6456  -17.1187   20.9345 O   0  0  0  0  0  0  0  0  0  0  0  0
    6.6971  -16.1954   20.4815 C   0  0  0  0  0  0  0  0  0  0  0  0
    7.2499  -14.7882   20.5637 C   0  0  2  0  0  0  0  0  0  0  0  0
    8.0852  -14.5484   19.4228 N   0  0  0  0  0  0  0  0  0  0  0  0
    8.0080  -14.5549   21.8108 C   0  0  0  0  0  0  0  0  0  0  0  0
    9.2572  -14.5544   21.7603 O   0  0  0  0  0  0  0  0  0  0  0  0
    5.3634  -12.2963   27.3901 C   0  0  0  0  0  0  0  0  0  0  0  0
    6.6176  -11.2253   26.6634 S   0  0  0  0  0  0  0  0  0  0  0  0
    7.3104  -12.0220   25.1602 C   0  0  0  0  0  0  0  0  0  0  0  0
    7.3343  -13.5113   25.3665 C   0  0  0  0  0  0  0  0  0  0  0  0
    8.0855  -14.2776   24.3358 C   0  0  2  0  0  0  0  0  0  0  0  0
    7.3875  -14.3306   23.0643 N   0  0  0  0  0  0  0  0  0  0  0  0
    8.5133  -15.6362   24.7456 C   0  0  0  0  0  0  0  0  0  0  0  0
    7.7563  -16.6349   24.6794 O   0  0  0  0  0  0  0  0  0  0  0  0
    9.8360  -15.8892   25.2482 N   0  0  0  0  0  0  0  0  0  0  0  0
   10.2662  -17.2206   25.6600 C   0  0  1  0  0  0  0  0  0  0  0  0
   11.3973  -17.6568   24.7889 C   0  0  0  0  0  0  0  0  0  0  0  0
   11.8548  -19.0396   25.1010 C   0  0  0  0  0  0  0  0  0  0  0  0
   12.9857  -19.4109   24.1723 C   0  0  0  0  0  0  0  0  0  0  0  0
   13.5136  -20.8134   24.5064 C   0  0  0  0  0  0  0  0  0  0  0  0
   14.4301  -21.1671   23.4383 N   0  0  0  0  0  0  0  0  0  0  0  0
   10.5557  -17.2591   27.1109 C   0  0  0  0  0  0  0  0  0  0  0  0
   10.6734  -18.4328   27.8261 O   0  0  0  0  0  0  0  0  0  0  0  0
   10.7066  -16.1752   27.7530 O   0  0  0  0  0  0  0  0  0  0  0  0
  2  1  1  0
  3  2  1  0
  3  4  1  6
  5  6  2  0
  5  3  1  0
  7  8  1  0
  8  9  1  0
  9 10  1  0
 11 10  1  1
 11 12  1  0
 12  5  1  0
 13 15  1  0
 13 11  1  0
 14 13  2  0
 16 22  1  0
 16 15  1  0
 16 17  1  6
 17 18  1  0
 18 19  1  0
 19 20  1  0
 20 21  1  0
 22 23  1  0
 24 22  2  0
M  END
$$$$
