SMK.pdb
     RDKit          3D

 24 23  0  0  1  0  0  0  0  0999 V2000
    7.5128  -17.5448   21.6480 O   0  0  0  0  0  0  0  0  0  0  0  0
    7.1107  -16.7433   20.5740 C   0  0  0  0  0  0  0  0  0  0  0  0
    7.9805  -15.5073   20.4838 C   0  0  2  0  0  0  0  0  0  0  0  0
    9.1036  -15.7888   19.6374 N   0  0  0  0  0  0  0  0  0  0  0  0
    8.4422  -15.0477   21.8105 C   0  0  0  0  0  0  0  0  0  0  0  0
    9.6395  -15.2270   22.1223 O   0  0  0  0  0  0  0  0  0  0  0  0
    6.1816  -11.1722   28.3823 C   0  0  0  0  0  0  0  0  0  0  0  0
    6.1461  -11.2903   26.5843 S   0  0  0  0  0  0  0  0  0  0  0  0
    7.4330  -12.4734   26.0203 C   0  0  0  0  0  0  0  0  0  0  0  0
    7.1018  -12.9227   24.6239 C   0  0  0  0  0  0  0  0  0  0  0  0
    8.0024  -13.9691   24.0691 C   0  0  2  0  0  0  0  0  0  0  0  0
    7.5928  -14.4119   22.7490 N   0  0  0  0  0  0  0  0  0  0  0  0
    8.2366  -15.1349   24.9538 C   0  0  0  0  0  0  0  0  0  0  0  0
    8.6556  -15.0200   26.1312 O   0  0  0  0  0  0  0  0  0  0  0  0
    7.9940  -16.4795   24.5074 N   0  0  0  0  0  0  0  0  0  0  0  0
    8.1736  -17.6308   25.3845 C   0  0  1  0  0  0  0  0  0  0  0  0
    7.4968  -18.8147   24.7772 C   0  0  0  0  0  0  0  0  0  0  0  0
    7.6146  -20.0339   25.6248 C   0  0  0  0  0  0  0  0  0  0  0  0
    6.9736  -21.1997   24.9111 C   0  0  0  0  0  0  0  0  0  0  0  0
    7.0403  -22.4623   25.7822 C   0  0  0  0  0  0  0  0  0  0  0  0
    6.5235  -23.5457   24.9668 N   0  0  0  0  0  0  0  0  0  0  0  0
    9.6040  -17.8358   25.7043 C   0  0  0  0  0  0  0  0  0  0  0  0
   10.0470  -18.2725   26.9356 O   0  0  0  0  0  0  0  0  0  0  0  0
   10.4868  -17.6055   24.8225 O   0  0  0  0  0  0  0  0  0  0  0  0
  2  1  1  0
  3  2  1  0
  3  4  1  6
  5  6  2  0
  5  3  1  0
  7  8  1  0
  8  9  1  0
  9 10  1  0
 11 10  1  1
 11 12  1  0
 12  5  1  0
 13 15  1  0
 13 11  1  0
 14 13  2  0
 16 22  1  0
 16 15  1  0
 16 17  1  6
 17 18  1  0
 18 19  1  0
 19 20  1  0
 20 21  1  0
 22 23  1  0
 24 22  2  0
M  END
$$$$
