SMK.pdb
     RDKit          3D

 24 23  0  0  1  0  0  0  0  0999 V2000
    8.2628  -18.2899   21.3937 O   0  0  0  0  0  0  0  0  0  0  0  0
    7.5210  -17.5738   20.4479 C   0  0  0  0  0  0  0  0  0  0  0  0
    7.9993  -16.1390   20.3789 C   0  0  2  0  0  0  0  0  0  0  0  0
    9.0470  -16.0436   19.4042 N   0  0  0  0  0  0  0  0  0  0  0  0
    8.4715  -15.6411   21.6879 C   0  0  0  0  0  0  0  0  0  0  0  0
    9.6965  -15.6770   21.9352 O   0  0  0  0  0  0  0  0  0  0  0  0
    6.4747  -11.5570   28.2494 C   0  0  0  0  0  0  0  0  0  0  0  0
    6.0140  -12.2358   26.6447 S   0  0  0  0  0  0  0  0  0  0  0  0
    7.3897  -13.2647   25.9945 C   0  0  0  0  0  0  0  0  0  0  0  0
    7.0088  -13.7830   24.6352 C   0  0  0  0  0  0  0  0  0  0  0  0
    8.0231  -14.6586   23.9884 C   0  0  2  0  0  0  0  0  0  0  0  0
    7.6022  -15.1234   22.6793 N   0  0  0  0  0  0  0  0  0  0  0  0
    8.4929  -15.7970   24.8128 C   0  0  0  0  0  0  0  0  0  0  0  0
    7.7648  -16.7813   25.0886 O   0  0  0  0  0  0  0  0  0  0  0  0
    9.8257  -15.8383   25.3496 N   0  0  0  0  0  0  0  0  0  0  0  0
   10.2908  -16.9408   26.1834 C   0  0  1  0  0  0  0  0  0  0  0  0
   11.6385  -17.3737   25.7093 C   0  0  0  0  0  0  0  0  0  0  0  0
   11.5821  -18.0684   24.3929 C   0  0  0  0  0  0  0  0  0  0  0  0
   12.9707  -18.5185   24.0081 C   0  0  0  0  0  0  0  0  0  0  0  0
   12.9508  -19.1963   22.6306 C   0  0  0  0  0  0  0  0  0  0  0  0
   14.3257  -19.5542   22.3345 N   0  0  0  0  0  0  0  0  0  0  0  0
   10.2278  -16.5836   27.6183 C   0  0  0  0  0  0  0  0  0  0  0  0
   10.2867  -17.5175   28.6319 O   0  0  0  0  0  0  0  0  0  0  0  0
   10.1132  -15.3673   27.9610 O   0  0  0  0  0  0  0  0  0  0  0  0
  2  1  1  0
  3  2  1  0
  3  4  1  6
  5  6  2  0
  5  3  1  0
  7  8  1  0
  8  9  1  0
  9 10  1  0
 11 10  1  1
 11 12  1  0
 12  5  1  0
 13 15  1  0
 13 11  1  0
 14 13  2  0
 16 22  1  0
 16 15  1  0
 16 17  1  6
 17 18  1  0
 18 19  1  0
 19 20  1  0
 20 21  1  0
 22 23  1  0
 24 22  2  0
M  END
$$$$
