CKW.pdb
     RDKit          3D

 30 31  0  0  1  0  0  0  0  0999 V2000
   29.6566  -16.9743  -17.5033 N   0  0  0  0  0  0  0  0  0  0  0  0
   28.9064  -18.1868  -17.4723 C   0  0  1  0  0  0  0  0  0  0  0  0
   29.8330  -19.3812  -17.3921 C   0  0  0  0  0  0  0  0  0  0  0  0
   30.7446  -19.6165  -18.9425 S   0  0  0  0  0  0  0  0  0  0  0  0
   27.9232  -18.2747  -16.3798 C   0  0  0  0  0  0  0  0  0  0  0  0
   28.1603  -17.6307  -15.3301 O   0  0  0  0  0  0  0  0  0  0  0  0
   26.7315  -19.0369  -16.4383 N   0  0  0  0  0  0  0  0  0  0  0  0
   25.7904  -18.9405  -15.3594 C   0  0  1  0  0  0  0  0  0  0  0  0
   24.4375  -18.4363  -15.8086 C   0  0  0  0  0  0  0  0  0  0  0  0
   24.4972  -17.1193  -16.5020 C   0  0  0  0  0  0  0  0  0  0  0  0
   24.1278  -17.3099  -17.9528 C   0  0  0  0  0  0  0  0  0  0  0  0
   23.3917  -16.1398  -18.5507 C   0  0  0  0  0  0  0  0  0  0  0  0
   23.1340  -16.3354  -19.9585 N   0  0  0  0  0  0  0  0  0  0  0  0
   25.6831  -20.2689  -14.6807 C   0  0  0  0  0  0  0  0  0  0  0  0
   26.2909  -21.2845  -15.1040 O   0  0  0  0  0  0  0  0  0  0  0  0
   24.8807  -20.4156  -13.5258 N   0  0  0  0  0  0  0  0  0  0  0  0
   24.7779  -21.7140  -12.8267 C   0  0  1  0  0  0  0  0  0  0  0  0
   26.0775  -21.9130  -12.0937 C   0  0  0  0  0  0  0  0  0  0  0  0
   26.1163  -21.0714  -10.8715 C   0  0  0  0  0  0  0  0  0  0  0  0
   25.0588  -20.2481  -10.4516 C   0  0  0  0  0  0  0  0  0  0  0  0
   25.4336  -19.7011   -9.2986 N   0  0  0  0  0  0  0  0  0  0  0  0
   26.6693  -20.1125   -8.9370 C   0  0  0  0  0  0  0  0  0  0  0  0
   27.4773  -19.8249   -7.8601 C   0  0  0  0  0  0  0  0  0  0  0  0
   28.7284  -20.3930   -7.7583 C   0  0  0  0  0  0  0  0  0  0  0  0
   29.1638  -21.2474   -8.7384 C   0  0  0  0  0  0  0  0  0  0  0  0
   28.3692  -21.5358   -9.8054 C   0  0  0  0  0  0  0  0  0  0  0  0
   27.0942  -20.9674   -9.9211 C   0  0  0  0  0  0  0  0  0  0  0  0
   23.5882  -21.6681  -11.9848 C   0  0  0  0  0  0  0  0  0  0  0  0
   22.8876  -20.4935  -11.7865 O   0  0  0  0  0  0  0  0  0  0  0  0
   23.1749  -22.7050  -11.4194 O   0  0  0  0  0  0  0  0  0  0  0  0
  2  3  1  0
  2  5  1  0
  2  1  1  1
  4  3  1  0
  5  6  2  0
  7  8  1  0
  7  5  1  0
  8 14  1  0
  8  9  1  6
 10  9  1  0
 11 12  1  0
 11 10  1  0
 13 12  1  0
 14 15  2  0
 14 16  1  0
 16 17  1  0
 17 28  1  0
 17 18  1  1
 19 18  1  0
 20 19  2  0
 21 20  1  0
 22 21  1  0
 22 27  2  0
 23 22  1  0
 24 23  2  0
 24 25  1  0
 25 26  2  0
 26 27  1  0
 27 19  1  0
 28 30  2  0
 28 29  1  0
M  END
$$$$
