CKW.pdb
     RDKit          3D

 30 31  0  0  1  0  0  0  0  0999 V2000
   23.0576  -19.6065  -15.8849 N   0  0  0  0  0  0  0  0  0  0  0  0
   23.4823  -19.5352  -14.5253 C   0  0  1  0  0  0  0  0  0  0  0  0
   22.3704  -19.9793  -13.5989 C   0  0  0  0  0  0  0  0  0  0  0  0
   20.7778  -19.2597  -14.0846 S   0  0  0  0  0  0  0  0  0  0  0  0
   24.6949  -20.3117  -14.2176 C   0  0  0  0  0  0  0  0  0  0  0  0
   24.8215  -21.4340  -14.7629 O   0  0  0  0  0  0  0  0  0  0  0  0
   25.7235  -19.8740  -13.3487 N   0  0  0  0  0  0  0  0  0  0  0  0
   26.9103  -20.6702  -13.2191 C   0  0  1  0  0  0  0  0  0  0  0  0
   28.1046  -20.0543  -13.9125 C   0  0  0  0  0  0  0  0  0  0  0  0
   27.8552  -18.6702  -14.4030 C   0  0  0  0  0  0  0  0  0  0  0  0
   28.2700  -18.5790  -15.8511 C   0  0  0  0  0  0  0  0  0  0  0  0
   28.1132  -17.2026  -16.4422 C   0  0  0  0  0  0  0  0  0  0  0  0
   28.5508  -17.1606  -17.8182 N   0  0  0  0  0  0  0  0  0  0  0  0
   27.1830  -20.9132  -11.7688 C   0  0  0  0  0  0  0  0  0  0  0  0
   28.1638  -20.3935  -11.1790 O   0  0  0  0  0  0  0  0  0  0  0  0
   26.3279  -21.7487  -11.0138 N   0  0  0  0  0  0  0  0  0  0  0  0
   25.9728  -21.4168   -9.6178 C   0  0  1  0  0  0  0  0  0  0  0  0
   27.1190  -20.6163   -9.0601 C   0  0  0  0  0  0  0  0  0  0  0  0
   27.0153  -20.5247   -7.5820 C   0  0  0  0  0  0  0  0  0  0  0  0
   25.8449  -20.8059   -6.8584 C   0  0  0  0  0  0  0  0  0  0  0  0
   26.1494  -20.6730   -5.5706 N   0  0  0  0  0  0  0  0  0  0  0  0
   27.4440  -20.3217   -5.4043 C   0  0  0  0  0  0  0  0  0  0  0  0
   28.2108  -20.0603   -4.2912 C   0  0  0  0  0  0  0  0  0  0  0  0
   29.5333  -19.6988   -4.4273 C   0  0  0  0  0  0  0  0  0  0  0  0
   30.0810  -19.6005   -5.6805 C   0  0  0  0  0  0  0  0  0  0  0  0
   29.3279  -19.8580   -6.7848 C   0  0  0  0  0  0  0  0  0  0  0  0
   27.9826  -20.2286   -6.6617 C   0  0  0  0  0  0  0  0  0  0  0  0
   24.6865  -20.7303   -9.6418 C   0  0  0  0  0  0  0  0  0  0  0  0
   23.6756  -21.0575   -8.7581 O   0  0  0  0  0  0  0  0  0  0  0  0
   24.4722  -19.8208  -10.4739 O   0  0  0  0  0  0  0  0  0  0  0  0
  2  3  1  0
  2  5  1  0
  2  1  1  6
  4  3  1  0
  5  6  2  0
  7  8  1  0
  7  5  1  0
  8 14  1  0
  8  9  1  1
 10  9  1  0
 11 12  1  0
 11 10  1  0
 13 12  1  0
 14 15  2  0
 14 16  1  0
 16 17  1  0
 17 28  1  0
 17 18  1  6
 19 18  1  0
 20 19  2  0
 21 20  1  0
 22 21  1  0
 22 27  2  0
 23 22  1  0
 24 23  2  0
 24 25  1  0
 25 26  2  0
 26 27  1  0
 27 19  1  0
 28 30  2  0
 28 29  1  0
M  END
$$$$
