CKW.pdb
     RDKit          3D

 30 31  0  0  1  0  0  0  0  0999 V2000
   10.1178  -25.7120    0.6720 N   0  0  0  0  0  0  0  0  0  0  0  0
   10.9647  -24.6508    0.2356 C   0  0  1  0  0  0  0  0  0  0  0  0
   10.9649  -23.5235    1.2460 C   0  0  0  0  0  0  0  0  0  0  0  0
   11.0380  -24.1572    2.9440 S   0  0  0  0  0  0  0  0  0  0  0  0
   12.3571  -25.0460   -0.0349 C   0  0  0  0  0  0  0  0  0  0  0  0
   12.7270  -26.1790    0.3555 O   0  0  0  0  0  0  0  0  0  0  0  0
   13.3017  -24.2317   -0.7050 N   0  0  0  0  0  0  0  0  0  0  0  0
   14.5311  -24.8190   -1.1554 C   0  0  1  0  0  0  0  0  0  0  0  0
   14.9359  -24.3413   -2.5318 C   0  0  0  0  0  0  0  0  0  0  0  0
   16.0498  -25.1303   -3.1281 C   0  0  0  0  0  0  0  0  0  0  0  0
   16.5427  -24.4260   -4.3684 C   0  0  0  0  0  0  0  0  0  0  0  0
   17.7709  -25.0524   -4.9747 C   0  0  0  0  0  0  0  0  0  0  0  0
   18.2862  -24.2636   -6.0695 N   0  0  0  0  0  0  0  0  0  0  0  0
   15.6017  -24.5531   -0.1455 C   0  0  0  0  0  0  0  0  0  0  0  0
   16.8226  -24.6016   -0.4402 O   0  0  0  0  0  0  0  0  0  0  0  0
   15.2585  -24.2351    1.1889 N   0  0  0  0  0  0  0  0  0  0  0  0
   15.6023  -22.9218    1.7739 C   0  0  1  0  0  0  0  0  0  0  0  0
   15.0581  -21.8768    0.8372 C   0  0  0  0  0  0  0  0  0  0  0  0
   15.2417  -20.5205    1.4121 C   0  0  0  0  0  0  0  0  0  0  0  0
   16.4368  -20.0715    1.9977 C   0  0  0  0  0  0  0  0  0  0  0  0
   16.2414  -18.8016    2.3414 N   0  0  0  0  0  0  0  0  0  0  0  0
   14.9947  -18.3904    2.0196 C   0  0  0  0  0  0  0  0  0  0  0  0
   14.3289  -17.1961    2.1798 C   0  0  0  0  0  0  0  0  0  0  0  0
   13.0230  -17.0664    1.7603 C   0  0  0  0  0  0  0  0  0  0  0  0
   12.3901  -18.1366    1.1819 C   0  0  0  0  0  0  0  0  0  0  0  0
   13.0433  -19.3199    1.0206 C   0  0  0  0  0  0  0  0  0  0  0  0
   14.3718  -19.4657    1.4403 C   0  0  0  0  0  0  0  0  0  0  0  0
   15.0618  -22.8876    3.1277 C   0  0  0  0  0  0  0  0  0  0  0  0
   15.6714  -22.1592    4.1316 O   0  0  0  0  0  0  0  0  0  0  0  0
   14.0227  -23.5256    3.4086 O   0  0  0  0  0  0  0  0  0  0  0  0
  2  3  1  0
  2  5  1  0
  2  1  1  1
  4  3  1  0
  5  6  2  0
  7  8  1  0
  7  5  1  0
  8 14  1  0
  8  9  1  6
 10  9  1  0
 11 12  1  0
 11 10  1  0
 13 12  1  0
 14 15  2  0
 14 16  1  0
 16 17  1  0
 17 28  1  0
 17 18  1  6
 19 18  1  0
 20 19  2  0
 21 20  1  0
 22 21  1  0
 22 27  2  0
 23 22  1  0
 24 23  2  0
 24 25  1  0
 25 26  2  0
 26 27  1  0
 27 19  1  0
 28 30  2  0
 28 29  1  0
M  END
$$$$
