CKW.pdb
     RDKit          3D

 30 31  0  0  1  0  0  0  0  0999 V2000
   27.4885  -24.4780  -16.9867 N   0  0  0  0  0  0  0  0  0  0  0  0
   26.6775  -23.4009  -16.5217 C   0  0  1  0  0  0  0  0  0  0  0  0
   25.2846  -23.8918  -16.1891 C   0  0  0  0  0  0  0  0  0  0  0  0
   24.4988  -24.6744  -17.6244 S   0  0  0  0  0  0  0  0  0  0  0  0
   27.2182  -22.6819  -15.3560 C   0  0  0  0  0  0  0  0  0  0  0  0
   27.7082  -23.3660  -14.4260 O   0  0  0  0  0  0  0  0  0  0  0  0
   27.2204  -21.2728  -15.2185 N   0  0  0  0  0  0  0  0  0  0  0  0
   27.7238  -20.6930  -14.0062 C   0  0  1  0  0  0  0  0  0  0  0  0
   27.9987  -19.2120  -14.1381 C   0  0  0  0  0  0  0  0  0  0  0  0
   26.7911  -18.4153  -14.4928 C   0  0  0  0  0  0  0  0  0  0  0  0
   27.1835  -16.9655  -14.6388 C   0  0  0  0  0  0  0  0  0  0  0  0
   26.0221  -16.0469  -14.9143 C   0  0  0  0  0  0  0  0  0  0  0  0
   26.4607  -14.6930  -15.1617 N   0  0  0  0  0  0  0  0  0  0  0  0
   26.7674  -20.9764  -12.8919 C   0  0  0  0  0  0  0  0  0  0  0  0
   25.5219  -20.9454  -13.0586 O   0  0  0  0  0  0  0  0  0  0  0  0
   27.2513  -21.2917  -11.6012 N   0  0  0  0  0  0  0  0  0  0  0  0
   26.3241  -21.5303  -10.4748 C   0  0  1  0  0  0  0  0  0  0  0  0
   27.1769  -21.8011   -9.2644 C   0  0  0  0  0  0  0  0  0  0  0  0
   27.1527  -20.6371   -8.3434 C   0  0  0  0  0  0  0  0  0  0  0  0
   26.1810  -19.6238   -8.3847 C   0  0  0  0  0  0  0  0  0  0  0  0
   26.4503  -18.7937   -7.3811 N   0  0  0  0  0  0  0  0  0  0  0  0
   27.5367  -19.1978   -6.6857 C   0  0  0  0  0  0  0  0  0  0  0  0
   28.2010  -18.6798   -5.5967 C   0  0  0  0  0  0  0  0  0  0  0  0
   29.3190  -19.3126   -5.0988 C   0  0  0  0  0  0  0  0  0  0  0  0
   29.7663  -20.4629   -5.6964 C   0  0  0  0  0  0  0  0  0  0  0  0
   29.1135  -20.9799   -6.7732 C   0  0  0  0  0  0  0  0  0  0  0  0
   27.9743  -20.3486   -7.2890 C   0  0  0  0  0  0  0  0  0  0  0  0
   25.4474  -20.3697  -10.3726 C   0  0  0  0  0  0  0  0  0  0  0  0
   24.1171  -20.4971  -10.0199 O   0  0  0  0  0  0  0  0  0  0  0  0
   25.8894  -19.2225  -10.6053 O   0  0  0  0  0  0  0  0  0  0  0  0
  2  3  1  0
  2  5  1  0
  2  1  1  1
  4  3  1  0
  5  6  2  0
  7  8  1  0
  7  5  1  0
  8 14  1  0
  8  9  1  6
 10  9  1  0
 11 12  1  0
 11 10  1  0
 13 12  1  0
 14 15  2  0
 14 16  1  0
 16 17  1  0
 17 28  1  0
 17 18  1  1
 19 18  1  0
 20 19  2  0
 21 20  1  0
 22 21  1  0
 22 27  2  0
 23 22  1  0
 24 23  2  0
 24 25  1  0
 25 26  2  0
 26 27  1  0
 27 19  1  0
 28 30  2  0
 28 29  1  0
M  END
$$$$
