CKW.pdb
     RDKit          3D

 30 31  0  0  1  0  0  0  0  0999 V2000
   31.1484  -24.7798  -15.6381 N   0  0  0  0  0  0  0  0  0  0  0  0
   30.6132  -24.7035  -16.9578 C   0  0  1  0  0  0  0  0  0  0  0  0
   30.5696  -26.0773  -17.5921 C   0  0  0  0  0  0  0  0  0  0  0  0
   32.2065  -26.8589  -17.5907 S   0  0  0  0  0  0  0  0  0  0  0  0
   29.2739  -24.0978  -17.0449 C   0  0  0  0  0  0  0  0  0  0  0  0
   28.5158  -24.2164  -16.0529 O   0  0  0  0  0  0  0  0  0  0  0  0
   28.7890  -23.3926  -18.1727 N   0  0  0  0  0  0  0  0  0  0  0  0
   27.4794  -22.8085  -18.1177 C   0  0  1  0  0  0  0  0  0  0  0  0
   27.4949  -21.3172  -18.3672 C   0  0  0  0  0  0  0  0  0  0  0  0
   26.1404  -20.6982  -18.3370 C   0  0  0  0  0  0  0  0  0  0  0  0
   26.2584  -19.2382  -18.7001 C   0  0  0  0  0  0  0  0  0  0  0  0
   24.9346  -18.5251  -18.7871 C   0  0  0  0  0  0  0  0  0  0  0  0
   25.1012  -17.1325  -19.1328 N   0  0  0  0  0  0  0  0  0  0  0  0
   26.5843  -23.5172  -19.0838 C   0  0  0  0  0  0  0  0  0  0  0  0
   26.9090  -23.6965  -20.2848 O   0  0  0  0  0  0  0  0  0  0  0  0
   25.3288  -24.0111  -18.6604 N   0  0  0  0  0  0  0  0  0  0  0  0
   24.4547  -24.7669  -19.5823 C   0  0  1  0  0  0  0  0  0  0  0  0
   25.2044  -26.0163  -19.9600 C   0  0  0  0  0  0  0  0  0  0  0  0
   25.3306  -26.9183  -18.7877 C   0  0  0  0  0  0  0  0  0  0  0  0
   24.3841  -26.9977  -17.7530 C   0  0  0  0  0  0  0  0  0  0  0  0
   24.8051  -27.9455  -16.9205 N   0  0  0  0  0  0  0  0  0  0  0  0
   25.9674  -28.4913  -17.3429 C   0  0  0  0  0  0  0  0  0  0  0  0
   26.7846  -29.4736  -16.8305 C   0  0  0  0  0  0  0  0  0  0  0  0
   27.9464  -29.8222  -17.4841 C   0  0  0  0  0  0  0  0  0  0  0  0
   28.2837  -29.1829  -18.6493 C   0  0  0  0  0  0  0  0  0  0  0  0
   27.4793  -28.2110  -19.1609 C   0  0  0  0  0  0  0  0  0  0  0  0
   26.2942  -27.8477  -18.5085 C   0  0  0  0  0  0  0  0  0  0  0  0
   23.1824  -24.9844  -18.9040 C   0  0  0  0  0  0  0  0  0  0  0  0
   22.1091  -25.5684  -19.5499 O   0  0  0  0  0  0  0  0  0  0  0  0
   23.0376  -24.6416  -17.7094 O   0  0  0  0  0  0  0  0  0  0  0  0
  2  3  1  0
  2  5  1  0
  2  1  1  1
  4  3  1  0
  5  6  2  0
  7  8  1  0
  7  5  1  0
  8 14  1  0
  8  9  1  6
 10  9  1  0
 11 12  1  0
 11 10  1  0
 13 12  1  0
 14 15  2  0
 14 16  1  0
 16 17  1  0
 17 28  1  0
 17 18  1  1
 19 18  1  0
 20 19  2  0
 21 20  1  0
 22 21  1  0
 22 27  2  0
 23 22  1  0
 24 23  2  0
 24 25  1  0
 25 26  2  0
 26 27  1  0
 27 19  1  0
 28 30  2  0
 28 29  1  0
M  END
$$$$
