CKW.pdb
     RDKit          3D

 30 31  0  0  1  0  0  0  0  0999 V2000
   27.7584  -18.5292  -17.3152 N   0  0  0  0  0  0  0  0  0  0  0  0
   28.1340  -18.8741  -15.9833 C   0  0  1  0  0  0  0  0  0  0  0  0
   28.4230  -17.6274  -15.1746 C   0  0  0  0  0  0  0  0  0  0  0  0
   29.9513  -16.8209  -15.7260 S   0  0  0  0  0  0  0  0  0  0  0  0
   27.1478  -19.6923  -15.2580 C   0  0  0  0  0  0  0  0  0  0  0  0
   25.9402  -19.3664  -15.3504 O   0  0  0  0  0  0  0  0  0  0  0  0
   27.4743  -20.8193  -14.4658 N   0  0  0  0  0  0  0  0  0  0  0  0
   26.4169  -21.5556  -13.8342 C   0  0  1  0  0  0  0  0  0  0  0  0
   26.3264  -22.9832  -14.3243 C   0  0  0  0  0  0  0  0  0  0  0  0
   26.0494  -23.0913  -15.7839 C   0  0  0  0  0  0  0  0  0  0  0  0
   26.0009  -24.5496  -16.1689 C   0  0  0  0  0  0  0  0  0  0  0  0
   25.8297  -24.7820  -17.6471 C   0  0  0  0  0  0  0  0  0  0  0  0
   25.8863  -26.1875  -17.9756 N   0  0  0  0  0  0  0  0  0  0  0  0
   26.5943  -21.4952  -12.3504 C   0  0  0  0  0  0  0  0  0  0  0  0
   27.6925  -21.7598  -11.7992 O   0  0  0  0  0  0  0  0  0  0  0  0
   25.5105  -21.1321  -11.5179 N   0  0  0  0  0  0  0  0  0  0  0  0
   25.6345  -21.1630  -10.0452 C   0  0  1  0  0  0  0  0  0  0  0  0
   26.8441  -20.3377   -9.6970 C   0  0  0  0  0  0  0  0  0  0  0  0
   26.8972  -20.0888   -8.2345 C   0  0  0  0  0  0  0  0  0  0  0  0
   25.7687  -19.8203   -7.4426 C   0  0  0  0  0  0  0  0  0  0  0  0
   26.1978  -19.7118   -6.1884 N   0  0  0  0  0  0  0  0  0  0  0  0
   27.5352  -19.8908   -6.1082 C   0  0  0  0  0  0  0  0  0  0  0  0
   28.4252  -19.8630   -5.0582 C   0  0  0  0  0  0  0  0  0  0  0  0
   29.7692  -20.0692   -5.2806 C   0  0  0  0  0  0  0  0  0  0  0  0
   30.2148  -20.3020   -6.5564 C   0  0  0  0  0  0  0  0  0  0  0  0
   29.3394  -20.3309   -7.5984 C   0  0  0  0  0  0  0  0  0  0  0  0
   27.9700  -20.1250   -7.3872 C   0  0  0  0  0  0  0  0  0  0  0  0
   24.3740  -20.6879   -9.4870 C   0  0  0  0  0  0  0  0  0  0  0  0
   23.3322  -20.2794  -10.2981 O   0  0  0  0  0  0  0  0  0  0  0  0
   24.2107  -20.6409   -8.2473 O   0  0  0  0  0  0  0  0  0  0  0  0
  2  3  1  0
  2  5  1  0
  2  1  1  6
  4  3  1  0
  5  6  2  0
  7  8  1  0
  7  5  1  0
  8 14  1  0
  8  9  1  6
 10  9  1  0
 11 12  1  0
 11 10  1  0
 13 12  1  0
 14 15  2  0
 14 16  1  0
 16 17  1  0
 17 28  1  0
 17 18  1  6
 19 18  1  0
 20 19  2  0
 21 20  1  0
 22 21  1  0
 22 27  2  0
 23 22  1  0
 24 23  2  0
 24 25  1  0
 25 26  2  0
 26 27  1  0
 27 19  1  0
 28 30  2  0
 28 29  1  0
M  END
$$$$
