CKW.pdb
     RDKit          3D

 30 31  0  0  1  0  0  0  0  0999 V2000
   25.8186  -14.2373  -16.9106 N   0  0  0  0  0  0  0  0  0  0  0  0
   24.7156  -14.8724  -16.2671 C   0  0  1  0  0  0  0  0  0  0  0  0
   23.5107  -13.9561  -16.2536 C   0  0  0  0  0  0  0  0  0  0  0  0
   23.8667  -12.4083  -15.3772 S   0  0  0  0  0  0  0  0  0  0  0  0
   24.3223  -16.1649  -16.8526 C   0  0  0  0  0  0  0  0  0  0  0  0
   24.2257  -16.2331  -18.1012 O   0  0  0  0  0  0  0  0  0  0  0  0
   24.0471  -17.3315  -16.0990 N   0  0  0  0  0  0  0  0  0  0  0  0
   24.5076  -18.5998  -16.5874 C   0  0  1  0  0  0  0  0  0  0  0  0
   25.9912  -18.6087  -16.8795 C   0  0  0  0  0  0  0  0  0  0  0  0
   26.3417  -17.9757  -18.1814 C   0  0  0  0  0  0  0  0  0  0  0  0
   26.1214  -18.9757  -19.2900 C   0  0  0  0  0  0  0  0  0  0  0  0
   26.4885  -18.4585  -20.6561 C   0  0  0  0  0  0  0  0  0  0  0  0
   26.2075  -19.4305  -21.6870 N   0  0  0  0  0  0  0  0  0  0  0  0
   24.1346  -19.6678  -15.6091 C   0  0  0  0  0  0  0  0  0  0  0  0
   24.4394  -20.8737  -15.7905 O   0  0  0  0  0  0  0  0  0  0  0  0
   23.4171  -19.3394  -14.4357 N   0  0  0  0  0  0  0  0  0  0  0  0
   23.3497  -20.2761  -13.2941 C   0  0  1  0  0  0  0  0  0  0  0  0
   23.8183  -19.5145  -12.0833 C   0  0  0  0  0  0  0  0  0  0  0  0
   23.6691  -20.3434  -10.8608 C   0  0  0  0  0  0  0  0  0  0  0  0
   24.6969  -21.1306  -10.3161 C   0  0  0  0  0  0  0  0  0  0  0  0
   24.2133  -21.6756   -9.2035 N   0  0  0  0  0  0  0  0  0  0  0  0
   22.9343  -21.2969   -8.9851 C   0  0  0  0  0  0  0  0  0  0  0  0
   22.0214  -21.5964   -7.9991 C   0  0  0  0  0  0  0  0  0  0  0  0
   20.7512  -21.0643   -8.0429 C   0  0  0  0  0  0  0  0  0  0  0  0
   20.4021  -20.2339   -9.0768 C   0  0  0  0  0  0  0  0  0  0  0  0
   21.3007  -19.9339  -10.0544 C   0  0  0  0  0  0  0  0  0  0  0  0
   22.5962  -20.4657  -10.0218 C   0  0  0  0  0  0  0  0  0  0  0  0
   21.9849  -20.7842  -13.2212 C   0  0  0  0  0  0  0  0  0  0  0  0
   20.9404  -20.1458  -13.8627 O   0  0  0  0  0  0  0  0  0  0  0  0
   21.7315  -21.8209  -12.5679 O   0  0  0  0  0  0  0  0  0  0  0  0
  2  3  1  0
  2  5  1  0
  2  1  1  6
  4  3  1  0
  5  6  2  0
  7  8  1  0
  7  5  1  0
  8 14  1  0
  8  9  1  1
 10  9  1  0
 11 12  1  0
 11 10  1  0
 13 12  1  0
 14 15  2  0
 14 16  1  0
 16 17  1  0
 17 28  1  0
 17 18  1  1
 19 18  1  0
 20 19  2  0
 21 20  1  0
 22 21  1  0
 22 27  2  0
 23 22  1  0
 24 23  2  0
 24 25  1  0
 25 26  2  0
 26 27  1  0
 27 19  1  0
 28 30  2  0
 28 29  1  0
M  END
$$$$
