VVT.pdb
     RDKit          3D

 22 21  0  0  1  0  0  0  0  0999 V2000
    6.4771  -16.4821   19.7070 C   0  0  0  0  0  0  0  0  0  0  0  0
    7.1400  -16.2793   21.0267 C   0  0  2  0  0  0  0  0  0  0  0  0
    6.3149  -16.9284   22.1438 C   0  0  0  0  0  0  0  0  0  0  0  0
    7.3339  -14.8276   21.3925 C   0  0  2  0  0  0  0  0  0  0  0  0
    8.0315  -14.1794   20.3368 N   0  0  0  0  0  0  0  0  0  0  0  0
    7.9147  -14.6406   22.7231 C   0  0  0  0  0  0  0  0  0  0  0  0
    9.1346  -14.9080   22.8800 O   0  0  0  0  0  0  0  0  0  0  0  0
    6.4713  -11.8378   25.3822 C   0  0  0  0  0  0  0  0  0  0  0  0
    6.9341  -13.0972   26.0444 C   0  0  2  0  0  0  0  0  0  0  0  0
    7.6369  -12.8758   27.3499 C   0  0  0  0  0  0  0  0  0  0  0  0
    7.8096  -13.9442   25.1501 C   0  0  2  0  0  0  0  0  0  0  0  0
    7.2070  -14.1781   23.8597 N   0  0  0  0  0  0  0  0  0  0  0  0
    7.9912  -15.2635   25.8126 C   0  0  0  0  0  0  0  0  0  0  0  0
    7.0037  -15.9840   26.1610 O   0  0  0  0  0  0  0  0  0  0  0  0
    9.6818  -18.1589   24.4863 C   0  0  0  0  0  0  0  0  0  0  0  0
   10.3838  -17.9323   25.8035 C   0  0  1  0  0  0  0  0  0  0  0  0
   11.5990  -17.3279   25.6003 O   0  0  0  0  0  0  0  0  0  0  0  0
    9.4727  -17.1020   26.7017 C   0  0  2  0  0  0  0  0  0  0  0  0
    9.2886  -15.7981   26.0963 N   0  0  0  0  0  0  0  0  0  0  0  0
   10.0519  -17.0131   28.0528 C   0  0  0  0  0  0  0  0  0  0  0  0
   10.2272  -18.1489   28.8263 O   0  0  0  0  0  0  0  0  0  0  0  0
   10.3981  -15.9107   28.5308 O   0  0  0  0  0  0  0  0  0  0  0  0
  2  1  1  6
  2  3  1  0
  4  2  1  0
  4  6  1  0
  4  5  1  6
  6  7  2  0
  6 12  1  0
  9 11  1  0
  9  8  1  6
 10  9  1  0
 11 13  1  0
 11 12  1  6
 13 19  1  0
 13 14  2  0
 16 15  1  6
 16 18  1  0
 17 16  1  0
 18 20  1  0
 18 19  1  6
 20 21  1  0
 22 20  2  0
M  END
$$$$
