VVT.pdb
     RDKit          3D

 22 21  0  0  1  0  0  0  0  0999 V2000
    7.4615  -14.4007   19.7082 C   0  0  0  0  0  0  0  0  0  0  0  0
    8.2050  -15.6385   19.3378 C   0  0  2  0  0  0  0  0  0  0  0  0
    7.5145  -16.3454   18.1659 C   0  0  0  0  0  0  0  0  0  0  0  0
    8.3212  -16.6373   20.4638 C   0  0  2  0  0  0  0  0  0  0  0  0
    7.0572  -17.2596   20.6549 N   0  0  0  0  0  0  0  0  0  0  0  0
    8.9221  -16.0748   21.6743 C   0  0  0  0  0  0  0  0  0  0  0  0
   10.0571  -15.5393   21.5785 O   0  0  0  0  0  0  0  0  0  0  0  0
    6.8547  -15.6773   25.5107 C   0  0  0  0  0  0  0  0  0  0  0  0
    8.0001  -14.8355   25.0435 C   0  0  2  0  0  0  0  0  0  0  0  0
    7.5846  -13.5713   24.3531 C   0  0  0  0  0  0  0  0  0  0  0  0
    8.9605  -15.5907   24.1543 C   0  0  2  0  0  0  0  0  0  0  0  0
    8.3227  -16.0849   22.9577 N   0  0  0  0  0  0  0  0  0  0  0  0
    9.4598  -16.7638   24.9206 C   0  0  0  0  0  0  0  0  0  0  0  0
    8.6936  -17.7159   25.2698 O   0  0  0  0  0  0  0  0  0  0  0  0
   13.3866  -19.4272   26.2986 C   0  0  0  0  0  0  0  0  0  0  0  0
   12.8602  -18.1374   25.7167 C   0  0  1  0  0  0  0  0  0  0  0  0
   13.1899  -18.0422   24.3880 O   0  0  0  0  0  0  0  0  0  0  0  0
   11.3522  -18.0854   25.9392 C   0  0  2  0  0  0  0  0  0  0  0  0
   10.8320  -16.8882   25.3092 N   0  0  0  0  0  0  0  0  0  0  0  0
   11.0599  -18.1286   27.3820 C   0  0  0  0  0  0  0  0  0  0  0  0
   10.6522  -16.9902   28.0581 O   0  0  0  0  0  0  0  0  0  0  0  0
   11.1734  -19.1933   28.0277 O   0  0  0  0  0  0  0  0  0  0  0  0
  2  1  1  1
  2  3  1  0
  4  2  1  0
  4  6  1  0
  4  5  1  1
  6  7  2  0
  6 12  1  0
  9 11  1  0
  9  8  1  6
 10  9  1  0
 11 13  1  0
 11 12  1  6
 13 19  1  0
 13 14  2  0
 16 15  1  6
 16 18  1  0
 17 16  1  0
 18 20  1  0
 18 19  1  1
 20 21  1  0
 22 20  2  0
M  END
$$$$
