VVT.pdb
     RDKit          3D

 22 21  0  0  1  0  0  0  0  0999 V2000
    6.6368  -15.5727   19.2816 C   0  0  0  0  0  0  0  0  0  0  0  0
    7.3871  -15.4273   20.5614 C   0  0  2  0  0  0  0  0  0  0  0  0
    6.7463  -16.2878   21.6565 C   0  0  0  0  0  0  0  0  0  0  0  0
    7.4428  -14.0089   21.0752 C   0  0  2  0  0  0  0  0  0  0  0  0
    7.9654  -13.1721   20.0515 N   0  0  0  0  0  0  0  0  0  0  0  0
    8.1125  -13.8908   22.3715 C   0  0  0  0  0  0  0  0  0  0  0  0
    9.3597  -14.0551   22.4112 O   0  0  0  0  0  0  0  0  0  0  0  0
    8.0981  -12.5423   27.1751 C   0  0  0  0  0  0  0  0  0  0  0  0
    7.3980  -12.6535   25.8575 C   0  0  2  0  0  0  0  0  0  0  0  0
    5.9763  -13.1177   25.9608 C   0  0  0  0  0  0  0  0  0  0  0  0
    8.1338  -13.5328   24.8731 C   0  0  2  0  0  0  0  0  0  0  0  0
    7.4630  -13.6034   23.5971 N   0  0  0  0  0  0  0  0  0  0  0  0
    8.1786  -14.9074   25.4395 C   0  0  0  0  0  0  0  0  0  0  0  0
    7.1255  -15.5951   25.6230 O   0  0  0  0  0  0  0  0  0  0  0  0
    9.5836  -17.8835   24.1575 C   0  0  0  0  0  0  0  0  0  0  0  0
   10.2867  -17.7643   25.4881 C   0  0  1  0  0  0  0  0  0  0  0  0
   11.5629  -17.2906   25.3142 O   0  0  0  0  0  0  0  0  0  0  0  0
    9.4576  -16.8610   26.3952 C   0  0  2  0  0  0  0  0  0  0  0  0
    9.4104  -15.5355   25.8108 N   0  0  0  0  0  0  0  0  0  0  0  0
   10.0331  -16.8529   27.7507 C   0  0  0  0  0  0  0  0  0  0  0  0
   10.0859  -18.0127   28.5066 O   0  0  0  0  0  0  0  0  0  0  0  0
   10.4865  -15.7994   28.2487 O   0  0  0  0  0  0  0  0  0  0  0  0
  2  1  1  6
  2  3  1  0
  4  2  1  0
  4  6  1  0
  4  5  1  6
  6  7  2  0
  6 12  1  0
  9 11  1  0
  9  8  1  1
 10  9  1  0
 11 13  1  0
 11 12  1  6
 13 19  1  0
 13 14  2  0
 16 15  1  6
 16 18  1  0
 17 16  1  0
 18 20  1  0
 18 19  1  6
 20 21  1  0
 22 20  2  0
M  END
$$$$
