VVT.pdb
     RDKit          3D

 22 21  0  0  1  0  0  0  0  0999 V2000
    7.4987  -16.8701   21.4424 C   0  0  0  0  0  0  0  0  0  0  0  0
    6.5412  -15.7287   21.3922 C   0  0  2  0  0  0  0  0  0  0  0  0
    5.7802  -15.7285   20.0614 C   0  0  0  0  0  0  0  0  0  0  0  0
    7.1984  -14.3775   21.5378 C   0  0  2  0  0  0  0  0  0  0  0  0
    7.9818  -14.1229   20.3789 N   0  0  0  0  0  0  0  0  0  0  0  0
    7.9051  -14.2137   22.8093 C   0  0  0  0  0  0  0  0  0  0  0  0
    9.1441  -14.4341   22.8312 O   0  0  0  0  0  0  0  0  0  0  0  0
    5.8721  -13.4647   26.5747 C   0  0  0  0  0  0  0  0  0  0  0  0
    7.2308  -12.9011   26.3009 C   0  0  2  0  0  0  0  0  0  0  0  0
    7.2199  -11.4613   25.8836 C   0  0  0  0  0  0  0  0  0  0  0  0
    8.0062  -13.7043   25.2825 C   0  0  2  0  0  0  0  0  0  0  0  0
    7.3003  -13.8232   24.0292 N   0  0  0  0  0  0  0  0  0  0  0  0
    8.1907  -15.0743   25.8317 C   0  0  0  0  0  0  0  0  0  0  0  0
    7.2056  -15.8342   26.0917 O   0  0  0  0  0  0  0  0  0  0  0  0
   10.1111  -17.7980   24.3480 C   0  0  0  0  0  0  0  0  0  0  0  0
   10.6835  -17.6857   25.7405 C   0  0  1  0  0  0  0  0  0  0  0  0
   11.8985  -17.0486   25.7084 O   0  0  0  0  0  0  0  0  0  0  0  0
    9.6752  -16.9553   26.6213 C   0  0  2  0  0  0  0  0  0  0  0  0
    9.4885  -15.6161   26.0993 N   0  0  0  0  0  0  0  0  0  0  0  0
   10.1453  -16.9495   28.0170 C   0  0  0  0  0  0  0  0  0  0  0  0
   10.4259  -15.7586   28.6667 O   0  0  0  0  0  0  0  0  0  0  0  0
   10.3014  -18.0191   28.6455 O   0  0  0  0  0  0  0  0  0  0  0  0
  2  1  1  6
  2  3  1  0
  4  2  1  0
  4  6  1  0
  4  5  1  6
  6  7  2  0
  6 12  1  0
  9 11  1  0
  9  8  1  6
 10  9  1  0
 11 13  1  0
 11 12  1  6
 13 19  1  0
 13 14  2  0
 16 15  1  6
 16 18  1  0
 17 16  1  0
 18 20  1  0
 18 19  1  6
 20 21  1  0
 22 20  2  0
M  END
$$$$
