VVT.pdb
     RDKit          3D

 22 21  0  0  1  0  0  0  0  0999 V2000
    7.7793  -20.7743   24.3547 C   0  0  0  0  0  0  0  0  0  0  0  0
    6.5835  -20.3488   25.1364 C   0  0  2  0  0  0  0  0  0  0  0  0
    5.7564  -21.5702   25.5539 C   0  0  0  0  0  0  0  0  0  0  0  0
    5.6655  -19.4167   24.3832 C   0  0  2  0  0  0  0  0  0  0  0  0
    4.9932  -20.1559   23.3718 N   0  0  0  0  0  0  0  0  0  0  0  0
    6.3337  -18.2001   23.9183 C   0  0  0  0  0  0  0  0  0  0  0  0
    6.8005  -18.1902   22.7495 O   0  0  0  0  0  0  0  0  0  0  0  0
    7.7865  -13.4615   24.6534 C   0  0  0  0  0  0  0  0  0  0  0  0
    7.0045  -14.6569   25.0987 C   0  0  2  0  0  0  0  0  0  0  0  0
    7.1750  -14.9897   26.5504 C   0  0  0  0  0  0  0  0  0  0  0  0
    7.2928  -15.8891   24.2727 C   0  0  2  0  0  0  0  0  0  0  0  0
    6.4986  -17.0211   24.6859 N   0  0  0  0  0  0  0  0  0  0  0  0
    8.7242  -16.2419   24.4706 C   0  0  0  0  0  0  0  0  0  0  0  0
    9.1656  -16.6666   25.5843 O   0  0  0  0  0  0  0  0  0  0  0  0
   10.6437  -18.3864   21.8776 C   0  0  0  0  0  0  0  0  0  0  0  0
   11.4896  -17.1789   22.2022 C   0  0  1  0  0  0  0  0  0  0  0  0
   11.3957  -16.2456   21.2005 O   0  0  0  0  0  0  0  0  0  0  0  0
   11.0422  -16.6219   23.5497 C   0  0  2  0  0  0  0  0  0  0  0  0
    9.6875  -16.1235   23.4182 N   0  0  0  0  0  0  0  0  0  0  0  0
   11.9805  -15.5769   23.9930 C   0  0  0  0  0  0  0  0  0  0  0  0
   13.2783  -15.8962   24.3577 O   0  0  0  0  0  0  0  0  0  0  0  0
   11.6262  -14.3791   24.0497 O   0  0  0  0  0  0  0  0  0  0  0  0
  2  1  1  6
  2  3  1  0
  4  2  1  0
  4  6  1  0
  4  5  1  6
  6  7  2  0
  6 12  1  0
  9 11  1  0
  9  8  1  6
 10  9  1  0
 11 13  1  0
 11 12  1  1
 13 19  1  0
 13 14  2  0
 16 15  1  6
 16 18  1  0
 17 16  1  0
 18 20  1  0
 18 19  1  6
 20 21  1  0
 22 20  2  0
M  END
$$$$
