VVT.pdb
     RDKit          3D

 22 21  0  0  1  0  0  0  0  0999 V2000
    7.7912  -20.1324   18.6474 C   0  0  0  0  0  0  0  0  0  0  0  0
    6.5816  -19.2651   18.5643 C   0  0  2  0  0  0  0  0  0  0  0  0
    5.4259  -20.0231   17.9010 C   0  0  0  0  0  0  0  0  0  0  0  0
    6.7983  -17.9938   17.7797 C   0  0  2  0  0  0  0  0  0  0  0  0
    7.1379  -18.3346   16.4418 N   0  0  0  0  0  0  0  0  0  0  0  0
    7.7199  -17.0627   18.4328 C   0  0  0  0  0  0  0  0  0  0  0  0
    8.9529  -17.2054   18.2244 O   0  0  0  0  0  0  0  0  0  0  0  0
    8.5228  -12.9316   21.1535 C   0  0  0  0  0  0  0  0  0  0  0  0
    7.5849  -13.8497   20.4351 C   0  0  2  0  0  0  0  0  0  0  0  0
    6.3663  -14.2169   21.2273 C   0  0  0  0  0  0  0  0  0  0  0  0
    8.2563  -15.1130   19.9484 C   0  0  2  0  0  0  0  0  0  0  0  0
    7.3314  -16.0034   19.2892 N   0  0  0  0  0  0  0  0  0  0  0  0
    8.8013  -15.8225   21.1368 C   0  0  0  0  0  0  0  0  0  0  0  0
    8.0456  -16.3669   22.0016 O   0  0  0  0  0  0  0  0  0  0  0  0
   12.0176  -18.1574   21.0924 C   0  0  0  0  0  0  0  0  0  0  0  0
   12.1402  -17.1325   22.1941 C   0  0  1  0  0  0  0  0  0  0  0  0
   12.9859  -16.1207   21.8143 O   0  0  0  0  0  0  0  0  0  0  0  0
   10.7455  -16.6177   22.5344 C   0  0  2  0  0  0  0  0  0  0  0  0
   10.2087  -15.9332   21.3751 N   0  0  0  0  0  0  0  0  0  0  0  0
   10.8124  -15.7430   23.7173 C   0  0  0  0  0  0  0  0  0  0  0  0
   11.1407  -16.2556   24.9618 O   0  0  0  0  0  0  0  0  0  0  0  0
   10.5744  -14.5190   23.6241 O   0  0  0  0  0  0  0  0  0  0  0  0
  2  1  1  6
  2  3  1  0
  4  2  1  0
  4  6  1  0
  4  5  1  6
  6  7  2  0
  6 12  1  0
  9 11  1  0
  9  8  1  1
 10  9  1  0
 11 13  1  0
 11 12  1  1
 13 19  1  0
 13 14  2  0
 16 15  1  6
 16 18  1  0
 17 16  1  0
 18 20  1  0
 18 19  1  6
 20 21  1  0
 22 20  2  0
M  END
$$$$
