VVT.pdb
     RDKit          3D

 22 21  0  0  1  0  0  0  0  0999 V2000
    6.7623  -16.5892   20.2508 C   0  0  0  0  0  0  0  0  0  0  0  0
    7.4817  -16.2676   21.5162 C   0  0  2  0  0  0  0  0  0  0  0  0
    6.7888  -16.9366   22.7089 C   0  0  0  0  0  0  0  0  0  0  0  0
    7.5620  -14.7892   21.8105 C   0  0  2  0  0  0  0  0  0  0  0  0
    8.1303  -14.1296   20.6865 N   0  0  0  0  0  0  0  0  0  0  0  0
    8.2037  -14.4901   23.0917 C   0  0  0  0  0  0  0  0  0  0  0  0
    9.4483  -14.6529   23.1833 O   0  0  0  0  0  0  0  0  0  0  0  0
    5.9776  -13.3121   26.6125 C   0  0  0  0  0  0  0  0  0  0  0  0
    7.3461  -12.7691   26.3457 C   0  0  2  0  0  0  0  0  0  0  0  0
    7.3497  -11.3965   25.7431 C   0  0  0  0  0  0  0  0  0  0  0  0
    8.1858  -13.6869   25.4878 C   0  0  2  0  0  0  0  0  0  0  0  0
    7.5294  -14.0274   24.2483 N   0  0  0  0  0  0  0  0  0  0  0  0
    8.4010  -14.9467   26.2489 C   0  0  0  0  0  0  0  0  0  0  0  0
    7.4504  -15.7514   26.5024 O   0  0  0  0  0  0  0  0  0  0  0  0
   10.4002  -17.6877   25.3031 C   0  0  0  0  0  0  0  0  0  0  0  0
   10.9498  -17.3878   26.6769 C   0  0  1  0  0  0  0  0  0  0  0  0
   12.1532  -16.7354   26.5788 O   0  0  0  0  0  0  0  0  0  0  0  0
    9.9153  -16.5719   27.4452 C   0  0  2  0  0  0  0  0  0  0  0  0
    9.6914  -15.3257   26.7398 N   0  0  0  0  0  0  0  0  0  0  0  0
   10.3775  -16.3558   28.8267 C   0  0  0  0  0  0  0  0  0  0  0  0
   10.5918  -15.0759   29.3116 O   0  0  0  0  0  0  0  0  0  0  0  0
   10.5866  -17.3225   29.5916 O   0  0  0  0  0  0  0  0  0  0  0  0
  2  1  1  6
  2  3  1  0
  4  2  1  0
  4  6  1  0
  4  5  1  6
  6  7  2  0
  6 12  1  0
  9 11  1  0
  9  8  1  6
 10  9  1  0
 11 13  1  0
 11 12  1  6
 13 19  1  0
 13 14  2  0
 16 15  1  6
 16 18  1  0
 17 16  1  0
 18 20  1  0
 18 19  1  6
 20 21  1  0
 22 20  2  0
M  END
$$$$
