VVT.pdb
     RDKit          3D

 22 21  0  0  1  0  0  0  0  0999 V2000
    7.5365  -20.5082   23.8480 C   0  0  0  0  0  0  0  0  0  0  0  0
    6.5027  -19.9488   24.7648 C   0  0  2  0  0  0  0  0  0  0  0  0
    5.4555  -21.0159   25.1031 C   0  0  0  0  0  0  0  0  0  0  0  0
    5.7684  -18.7579   24.1979 C   0  0  2  0  0  0  0  0  0  0  0  0
    4.9183  -19.2022   23.1485 N   0  0  0  0  0  0  0  0  0  0  0  0
    6.6549  -17.6473   23.8464 C   0  0  0  0  0  0  0  0  0  0  0  0
    7.0999  -17.5938   22.6703 O   0  0  0  0  0  0  0  0  0  0  0  0
    8.2589  -14.6769   26.7159 C   0  0  0  0  0  0  0  0  0  0  0  0
    7.8655  -14.3740   25.3045 C   0  0  2  0  0  0  0  0  0  0  0  0
    6.4906  -13.7924   25.1671 C   0  0  0  0  0  0  0  0  0  0  0  0
    7.9887  -15.5708   24.3900 C   0  0  2  0  0  0  0  0  0  0  0  0
    7.0560  -16.6176   24.7326 N   0  0  0  0  0  0  0  0  0  0  0  0
    9.3630  -16.1185   24.5440 C   0  0  0  0  0  0  0  0  0  0  0  0
    9.7356  -16.7156   25.6023 O   0  0  0  0  0  0  0  0  0  0  0  0
   10.8943  -18.5026   22.1422 C   0  0  0  0  0  0  0  0  0  0  0  0
   11.9019  -17.3871   22.2814 C   0  0  1  0  0  0  0  0  0  0  0  0
   11.8367  -16.5456   21.1993 O   0  0  0  0  0  0  0  0  0  0  0  0
   11.6375  -16.6563   23.5938 C   0  0  2  0  0  0  0  0  0  0  0  0
   10.3456  -16.0047   23.5090 N   0  0  0  0  0  0  0  0  0  0  0  0
   12.7271  -15.7022   23.8607 C   0  0  0  0  0  0  0  0  0  0  0  0
   14.0205  -16.1457   24.0835 O   0  0  0  0  0  0  0  0  0  0  0  0
   12.5085  -14.4714   23.8921 O   0  0  0  0  0  0  0  0  0  0  0  0
  2  1  1  6
  2  3  1  0
  4  2  1  0
  4  6  1  0
  4  5  1  6
  6  7  2  0
  6 12  1  0
  9 11  1  0
  9  8  1  1
 10  9  1  0
 11 13  1  0
 11 12  1  1
 13 19  1  0
 13 14  2  0
 16 15  1  6
 16 18  1  0
 17 16  1  0
 18 20  1  0
 18 19  1  6
 20 21  1  0
 22 20  2  0
M  END
$$$$
