VVT.pdb
     RDKit          3D

 22 21  0  0  1  0  0  0  0  0999 V2000
    8.1594  -19.8471   18.3065 C   0  0  0  0  0  0  0  0  0  0  0  0
    7.0376  -18.9612   17.8835 C   0  0  2  0  0  0  0  0  0  0  0  0
    6.1287  -19.6899   16.8870 C   0  0  0  0  0  0  0  0  0  0  0  0
    7.4902  -17.6785   17.2289 C   0  0  2  0  0  0  0  0  0  0  0  0
    8.1459  -17.9951   16.0077 N   0  0  0  0  0  0  0  0  0  0  0  0
    8.2477  -16.8074   18.1290 C   0  0  0  0  0  0  0  0  0  0  0  0
    9.4830  -17.0139   18.2526 O   0  0  0  0  0  0  0  0  0  0  0  0
    8.4358  -12.8114   21.1617 C   0  0  0  0  0  0  0  0  0  0  0  0
    7.6523  -13.7149   20.2625 C   0  0  2  0  0  0  0  0  0  0  0  0
    6.3770  -14.2195   20.8676 C   0  0  0  0  0  0  0  0  0  0  0  0
    8.4596  -14.8900   19.7614 C   0  0  2  0  0  0  0  0  0  0  0  0
    7.6964  -15.7401   18.8796 N   0  0  0  0  0  0  0  0  0  0  0  0
    8.8584  -15.7017   20.9424 C   0  0  0  0  0  0  0  0  0  0  0  0
    8.0078  -16.3365   21.6417 O   0  0  0  0  0  0  0  0  0  0  0  0
   11.9019  -18.1287   20.9585 C   0  0  0  0  0  0  0  0  0  0  0  0
   12.0075  -17.2304   22.1673 C   0  0  1  0  0  0  0  0  0  0  0  0
   12.9391  -16.2461   21.9521 O   0  0  0  0  0  0  0  0  0  0  0  0
   10.6261  -16.6579   22.4676 C   0  0  2  0  0  0  0  0  0  0  0  0
   10.2232  -15.8148   21.3597 N   0  0  0  0  0  0  0  0  0  0  0  0
   10.6579  -15.9242   23.7442 C   0  0  0  0  0  0  0  0  0  0  0  0
   10.8896  -16.5869   24.9384 O   0  0  0  0  0  0  0  0  0  0  0  0
   10.4764  -14.6874   23.7777 O   0  0  0  0  0  0  0  0  0  0  0  0
  2  1  1  6
  2  3  1  0
  4  2  1  0
  4  6  1  0
  4  5  1  6
  6  7  2  0
  6 12  1  0
  9 11  1  0
  9  8  1  1
 10  9  1  0
 11 13  1  0
 11 12  1  6
 13 19  1  0
 13 14  2  0
 16 15  1  6
 16 18  1  0
 17 16  1  0
 18 20  1  0
 18 19  1  6
 20 21  1  0
 22 20  2  0
M  END
$$$$
