VVT.pdb
     RDKit          3D

 22 21  0  0  1  0  0  0  0  0999 V2000
    6.0848  -17.3649   20.9342 C   0  0  0  0  0  0  0  0  0  0  0  0
    6.9731  -16.8582   22.0187 C   0  0  2  0  0  0  0  0  0  0  0  0
    6.5396  -17.4285   23.3740 C   0  0  0  0  0  0  0  0  0  0  0  0
    6.9827  -15.3538   22.1430 C   0  0  2  0  0  0  0  0  0  0  0  0
    7.2929  -14.7923   20.8742 N   0  0  0  0  0  0  0  0  0  0  0  0
    7.8094  -14.8717   23.2507 C   0  0  0  0  0  0  0  0  0  0  0  0
    9.0603  -14.9386   23.1292 O   0  0  0  0  0  0  0  0  0  0  0  0
    6.1873  -13.2633   26.9977 C   0  0  0  0  0  0  0  0  0  0  0  0
    7.4799  -12.8219   26.3869 C   0  0  2  0  0  0  0  0  0  0  0  0
    7.3692  -11.5745   25.5628 C   0  0  0  0  0  0  0  0  0  0  0  0
    8.1392  -13.9021   25.5610 C   0  0  2  0  0  0  0  0  0  0  0  0
    7.3095  -14.3305   24.4605 N   0  0  0  0  0  0  0  0  0  0  0  0
    8.3615  -15.0765   26.4464 C   0  0  0  0  0  0  0  0  0  0  0  0
    7.3964  -15.7348   26.9474 O   0  0  0  0  0  0  0  0  0  0  0  0
   10.2318  -18.1244   25.6525 C   0  0  0  0  0  0  0  0  0  0  0  0
   10.8759  -17.6261   26.9237 C   0  0  1  0  0  0  0  0  0  0  0  0
   12.0701  -17.0099   26.6453 O   0  0  0  0  0  0  0  0  0  0  0  0
    9.8980  -16.6914   27.6282 C   0  0  2  0  0  0  0  0  0  0  0  0
    9.6752  -15.5334   26.7855 N   0  0  0  0  0  0  0  0  0  0  0  0
   10.4268  -16.3240   28.9527 C   0  0  0  0  0  0  0  0  0  0  0  0
   10.6403  -17.2881   29.9243 O   0  0  0  0  0  0  0  0  0  0  0  0
   10.6943  -15.1342   29.2289 O   0  0  0  0  0  0  0  0  0  0  0  0
  2  1  1  6
  2  3  1  0
  4  2  1  0
  4  6  1  0
  4  5  1  6
  6  7  2  0
  6 12  1  0
  9 11  1  0
  9  8  1  6
 10  9  1  0
 11 13  1  0
 11 12  1  6
 13 19  1  0
 13 14  2  0
 16 15  1  6
 16 18  1  0
 17 16  1  0
 18 20  1  0
 18 19  1  6
 20 21  1  0
 22 20  2  0
M  END
$$$$
