VVT.pdb
     RDKit          3D

 22 21  0  0  1  0  0  0  0  0999 V2000
    7.6578  -12.3764   20.4821 C   0  0  0  0  0  0  0  0  0  0  0  0
    8.2007  -13.7105   20.0980 C   0  0  2  0  0  0  0  0  0  0  0  0
    7.5614  -14.1905   18.7900 C   0  0  0  0  0  0  0  0  0  0  0  0
    7.9684  -14.7824   21.1352 C   0  0  2  0  0  0  0  0  0  0  0  0
    6.6012  -15.1702   21.0935 N   0  0  0  0  0  0  0  0  0  0  0  0
    8.4670  -14.4186   22.4626 C   0  0  0  0  0  0  0  0  0  0  0  0
    9.7128  -14.3689   22.6344 O   0  0  0  0  0  0  0  0  0  0  0  0
    7.7989  -12.5498   27.0231 C   0  0  0  0  0  0  0  0  0  0  0  0
    7.2421  -12.9262   25.6864 C   0  0  2  0  0  0  0  0  0  0  0  0
    5.8767  -13.5422   25.7472 C   0  0  0  0  0  0  0  0  0  0  0  0
    8.1594  -13.8358   24.9023 C   0  0  2  0  0  0  0  0  0  0  0  0
    7.6517  -14.1149   23.5804 N   0  0  0  0  0  0  0  0  0  0  0  0
    8.2516  -15.1267   25.6354 C   0  0  0  0  0  0  0  0  0  0  0  0
    7.2217  -15.8155   25.9191 O   0  0  0  0  0  0  0  0  0  0  0  0
   10.0099  -18.0210   24.4972 C   0  0  0  0  0  0  0  0  0  0  0  0
   10.5839  -17.8230   25.8794 C   0  0  1  0  0  0  0  0  0  0  0  0
   11.8303  -17.2541   25.8029 O   0  0  0  0  0  0  0  0  0  0  0  0
    9.6125  -16.9710   26.6899 C   0  0  2  0  0  0  0  0  0  0  0  0
    9.5057  -15.6681   26.0640 N   0  0  0  0  0  0  0  0  0  0  0  0
   10.0727  -16.8832   28.0861 C   0  0  0  0  0  0  0  0  0  0  0  0
   10.1551  -18.0161   28.8791 O   0  0  0  0  0  0  0  0  0  0  0  0
   10.3988  -15.7844   28.5860 O   0  0  0  0  0  0  0  0  0  0  0  0
  2  1  1  1
  2  3  1  0
  4  2  1  0
  4  6  1  0
  4  5  1  1
  6  7  2  0
  6 12  1  0
  9 11  1  0
  9  8  1  1
 10  9  1  0
 11 13  1  0
 11 12  1  6
 13 19  1  0
 13 14  2  0
 16 15  1  6
 16 18  1  0
 17 16  1  0
 18 20  1  0
 18 19  1  6
 20 21  1  0
 22 20  2  0
M  END
$$$$
