EHQ.pdb
     RDKit          3D

 29 29  0  0  1  0  0  0  0  0999 V2000
   15.3262  -13.8429   18.0889 N   0  0  0  0  0  0  0  0  0  0  0  0
   14.5790  -14.9512   18.6127 C   0  0  1  0  0  0  0  0  0  0  0  0
   15.4948  -15.8853   19.3522 C   0  0  0  0  0  0  0  0  0  0  0  0
   16.5553  -16.4226   18.4493 C   0  0  0  0  0  0  0  0  0  0  0  0
   17.4833  -17.3389   19.1556 C   0  0  0  0  0  0  0  0  0  0  0  0
   18.5563  -16.9348   19.6719 O   0  0  0  0  0  0  0  0  0  0  0  0
   13.4586  -14.5058   19.4905 C   0  0  0  0  0  0  0  0  0  0  0  0
   13.5990  -13.5274   20.2465 O   0  0  0  0  0  0  0  0  0  0  0  0
   17.2089  -18.6915   19.2799 O   0  0  0  0  0  0  0  0  0  0  0  0
   12.2033  -15.1988   19.4762 N   0  0  0  0  0  0  0  0  0  0  0  0
   11.0779  -14.7585   20.2656 C   0  0  1  0  0  0  0  0  0  0  0  0
    9.7701  -15.0633   19.5898 C   0  0  0  0  0  0  0  0  0  0  0  0
    8.5994  -14.6763   20.3821 C   0  0  0  0  0  0  0  0  0  0  0  0
    8.6215  -14.1480   21.6460 C   0  0  0  0  0  0  0  0  0  0  0  0
    7.3519  -13.9312   22.0202 N   0  0  0  0  0  0  0  0  0  0  0  0
    6.5102  -14.3073   21.0275 C   0  0  0  0  0  0  0  0  0  0  0  0
    7.3093  -14.7631   20.0295 N   0  0  0  0  0  0  0  0  0  0  0  0
   11.1010  -15.5227   21.5598 C   0  0  0  0  0  0  0  0  0  0  0  0
   11.6574  -16.6475   21.5820 O   0  0  0  0  0  0  0  0  0  0  0  0
    9.3747  -13.1127   27.0031 N   0  0  0  0  0  0  0  0  0  0  0  0
    9.8197  -14.3890   27.5164 C   0  0  0  0  0  0  0  0  0  0  0  0
    9.8647  -14.5962   28.7495 O   0  0  0  0  0  0  0  0  0  0  0  0
   10.2056  -15.3934   26.5061 C   0  0  0  0  0  0  0  0  0  0  0  0
   10.1336  -14.7937   25.1364 C   0  0  0  0  0  0  0  0  0  0  0  0
   10.4965  -15.6788   24.0034 C   0  0  2  0  0  0  0  0  0  0  0  0
   10.5042  -14.9790   22.7341 N   0  0  0  0  0  0  0  0  0  0  0  0
    9.6590  -16.9279   23.9228 C   0  0  0  0  0  0  0  0  0  0  0  0
    8.6443  -16.9653   23.1831 O   0  0  0  0  0  0  0  0  0  0  0  0
    9.9514  -18.0730   24.6408 O   0  0  0  0  0  0  0  0  0  0  0  0
  2  1  1  1
  2  3  1  0
  2  7  1  0
  3  4  1  0
  4  5  1  0
  5  6  2  0
  7  8  2  0
  9  5  1  0
 10  7  1  0
 10 11  1  0
 11 12  1  6
 13 12  1  0
 14 13  2  0
 15 14  1  0
 16 15  1  0
 16 17  2  0
 17 13  1  0
 18 26  1  0
 18 11  1  0
 19 18  2  0
 20 21  1  0
 21 22  2  0
 23 24  1  0
 23 21  1  0
 25 24  1  1
 25 27  1  0
 25 26  1  0
 27 29  1  0
 28 27  2  0
M  END
$$$$
