EHQ.pdb
     RDKit          3D

 29 29  0  0  1  0  0  0  0  0999 V2000
   15.7308  -13.8511   16.8271 N   0  0  0  0  0  0  0  0  0  0  0  0
   14.5533  -14.6652   16.7192 C   0  0  1  0  0  0  0  0  0  0  0  0
   14.9337  -16.1188   16.6931 C   0  0  0  0  0  0  0  0  0  0  0  0
   15.7162  -16.4901   17.9090 C   0  0  0  0  0  0  0  0  0  0  0  0
   16.1932  -17.8936   17.8632 C   0  0  0  0  0  0  0  0  0  0  0  0
   16.9343  -18.3171   16.9398 O   0  0  0  0  0  0  0  0  0  0  0  0
   13.5825  -14.3935   17.8182 C   0  0  0  0  0  0  0  0  0  0  0  0
   13.9846  -14.0749   18.9519 O   0  0  0  0  0  0  0  0  0  0  0  0
   15.8417  -18.8092   18.8423 O   0  0  0  0  0  0  0  0  0  0  0  0
   12.1714  -14.4957   17.5844 N   0  0  0  0  0  0  0  0  0  0  0  0
   11.2045  -14.2692   18.6319 C   0  0  1  0  0  0  0  0  0  0  0  0
    9.7947  -14.3987   18.1262 C   0  0  0  0  0  0  0  0  0  0  0  0
    8.7817  -14.0418   19.1234 C   0  0  0  0  0  0  0  0  0  0  0  0
    9.0211  -13.7081   20.4305 C   0  0  0  0  0  0  0  0  0  0  0  0
    7.8390  -13.4499   21.0091 N   0  0  0  0  0  0  0  0  0  0  0  0
    6.8415  -13.6093   20.1064 C   0  0  0  0  0  0  0  0  0  0  0  0
    7.4542  -13.9748   18.9517 N   0  0  0  0  0  0  0  0  0  0  0  0
   11.4044  -15.3323   19.6756 C   0  0  0  0  0  0  0  0  0  0  0  0
   11.6584  -16.5022   19.2988 O   0  0  0  0  0  0  0  0  0  0  0  0
   15.6098  -15.1681   23.2092 N   0  0  0  0  0  0  0  0  0  0  0  0
   15.0835  -16.3684   23.8198 C   0  0  0  0  0  0  0  0  0  0  0  0
   15.8260  -17.1138   24.4970 O   0  0  0  0  0  0  0  0  0  0  0  0
   13.6510  -16.6374   23.5876 C   0  0  0  0  0  0  0  0  0  0  0  0
   13.1302  -15.7368   22.5113 C   0  0  0  0  0  0  0  0  0  0  0  0
   11.7180  -15.9347   22.1046 C   0  0  2  0  0  0  0  0  0  0  0  0
   11.3078  -15.0154   21.0616 N   0  0  0  0  0  0  0  0  0  0  0  0
   10.7495  -15.9054   23.2575 C   0  0  0  0  0  0  0  0  0  0  0  0
   10.8943  -16.6892   24.2284 O   0  0  0  0  0  0  0  0  0  0  0  0
    9.6737  -15.0380   23.3097 O   0  0  0  0  0  0  0  0  0  0  0  0
  2  1  1  1
  2  3  1  0
  2  7  1  0
  3  4  1  0
  4  5  1  0
  5  6  2  0
  7  8  2  0
  9  5  1  0
 10  7  1  0
 10 11  1  0
 11 12  1  6
 13 12  1  0
 14 13  2  0
 15 14  1  0
 16 15  1  0
 16 17  2  0
 17 13  1  0
 18 26  1  0
 18 11  1  0
 19 18  2  0
 20 21  1  0
 21 22  2  0
 23 24  1  0
 23 21  1  0
 25 24  1  1
 25 27  1  0
 25 26  1  0
 27 29  1  0
 28 27  2  0
M  END
$$$$
