EHQ.pdb
     RDKit          3D

 29 29  0  0  1  0  0  0  0  0999 V2000
   11.2289  -18.9108   18.9114 N   0  0  0  0  0  0  0  0  0  0  0  0
   12.0932  -18.7071   17.7834 C   0  0  1  0  0  0  0  0  0  0  0  0
   11.4218  -19.1872   16.5277 C   0  0  0  0  0  0  0  0  0  0  0  0
   10.3039  -20.1252   16.8424 C   0  0  0  0  0  0  0  0  0  0  0  0
    9.6468  -20.6467   15.6195 C   0  0  0  0  0  0  0  0  0  0  0  0
   10.0426  -20.3394   14.4661 O   0  0  0  0  0  0  0  0  0  0  0  0
   12.5092  -17.2814   17.6475 C   0  0  0  0  0  0  0  0  0  0  0  0
   13.2667  -16.9295   16.7251 O   0  0  0  0  0  0  0  0  0  0  0  0
    8.5590  -21.5022   15.6917 O   0  0  0  0  0  0  0  0  0  0  0  0
   12.0423  -16.2953   18.5780 N   0  0  0  0  0  0  0  0  0  0  0  0
   12.4294  -14.9082   18.4804 C   0  0  1  0  0  0  0  0  0  0  0  0
   11.2343  -13.9962   18.4636 C   0  0  0  0  0  0  0  0  0  0  0  0
   10.2902  -14.2909   17.3821 C   0  0  0  0  0  0  0  0  0  0  0  0
   10.5970  -14.3909   16.0505 C   0  0  0  0  0  0  0  0  0  0  0  0
    9.4635  -14.6708   15.3903 N   0  0  0  0  0  0  0  0  0  0  0  0
    8.4317  -14.7537   16.2643 C   0  0  0  0  0  0  0  0  0  0  0  0
    8.9728  -14.5146   17.4859 N   0  0  0  0  0  0  0  0  0  0  0  0
   13.2321  -14.5707   19.7057 C   0  0  0  0  0  0  0  0  0  0  0  0
   13.3931  -13.3620   20.0027 O   0  0  0  0  0  0  0  0  0  0  0  0
   12.7241  -17.0515   24.9820 N   0  0  0  0  0  0  0  0  0  0  0  0
   11.8370  -16.1477   24.2843 C   0  0  0  0  0  0  0  0  0  0  0  0
   10.6671  -15.9678   24.6899 O   0  0  0  0  0  0  0  0  0  0  0  0
   12.4000  -15.4786   23.0953 C   0  0  0  0  0  0  0  0  0  0  0  0
   13.8415  -15.8488   22.9355 C   0  0  0  0  0  0  0  0  0  0  0  0
   14.5312  -15.3303   21.7296 C   0  0  2  0  0  0  0  0  0  0  0  0
   13.7957  -15.6027   20.5106 N   0  0  0  0  0  0  0  0  0  0  0  0
   15.9602  -15.7901   21.6086 C   0  0  0  0  0  0  0  0  0  0  0  0
   16.3128  -16.5215   20.6501 O   0  0  0  0  0  0  0  0  0  0  0  0
   16.9382  -15.4435   22.5227 O   0  0  0  0  0  0  0  0  0  0  0  0
  2  1  1  1
  2  3  1  0
  2  7  1  0
  3  4  1  0
  4  5  1  0
  5  6  2  0
  7  8  2  0
  9  5  1  0
 10  7  1  0
 10 11  1  0
 11 12  1  1
 13 12  1  0
 14 13  2  0
 15 14  1  0
 16 15  1  0
 16 17  2  0
 17 13  1  0
 18 26  1  0
 18 11  1  0
 19 18  2  0
 20 21  1  0
 21 22  2  0
 23 24  1  0
 23 21  1  0
 25 24  1  1
 25 27  1  0
 25 26  1  0
 27 29  1  0
 28 27  2  0
M  END
$$$$
