EHQ.pdb
     RDKit          3D

 29 29  0  0  1  0  0  0  0  0999 V2000
   11.5745  -16.4003   16.4471 N   0  0  0  0  0  0  0  0  0  0  0  0
   11.1205  -17.2122   17.5406 C   0  0  1  0  0  0  0  0  0  0  0  0
   12.1582  -18.2446   17.8801 C   0  0  0  0  0  0  0  0  0  0  0  0
   12.2438  -19.2886   16.8165 C   0  0  0  0  0  0  0  0  0  0  0  0
   13.2039  -20.3650   17.1616 C   0  0  0  0  0  0  0  0  0  0  0  0
   14.4462  -20.1713   17.1787 O   0  0  0  0  0  0  0  0  0  0  0  0
   10.7774  -16.3946   18.7398 C   0  0  0  0  0  0  0  0  0  0  0  0
   11.5124  -15.4557   19.0956 O   0  0  0  0  0  0  0  0  0  0  0  0
   12.7733  -21.6424   17.4831 O   0  0  0  0  0  0  0  0  0  0  0  0
    9.5955  -16.6789   19.5004 N   0  0  0  0  0  0  0  0  0  0  0  0
    9.1746  -15.8437   20.5999 C   0  0  1  0  0  0  0  0  0  0  0  0
    7.7480  -15.3956   20.4448 C   0  0  0  0  0  0  0  0  0  0  0  0
    7.5448  -14.4719   19.3252 C   0  0  0  0  0  0  0  0  0  0  0  0
    8.4893  -14.1036   18.4036 C   0  0  0  0  0  0  0  0  0  0  0  0
    7.9121  -13.2483   17.5468 N   0  0  0  0  0  0  0  0  0  0  0  0
    6.6167  -13.0553   17.8934 C   0  0  0  0  0  0  0  0  0  0  0  0
    6.4192  -13.8237   18.9948 N   0  0  0  0  0  0  0  0  0  0  0  0
    9.2502  -16.6681   21.8546 C   0  0  0  0  0  0  0  0  0  0  0  0
    9.3295  -17.9161   21.7481 O   0  0  0  0  0  0  0  0  0  0  0  0
   13.2801  -19.2555   23.8031 N   0  0  0  0  0  0  0  0  0  0  0  0
   13.5147  -17.9054   24.2643 C   0  0  0  0  0  0  0  0  0  0  0  0
   14.6312  -17.3644   24.1022 O   0  0  0  0  0  0  0  0  0  0  0  0
   12.3732  -17.2389   24.9211 C   0  0  0  0  0  0  0  0  0  0  0  0
   11.4757  -16.6290   23.8901 C   0  0  0  0  0  0  0  0  0  0  0  0
   10.0407  -16.5104   24.2444 C   0  0  2  0  0  0  0  0  0  0  0  0
    9.2329  -16.0432   23.1352 N   0  0  0  0  0  0  0  0  0  0  0  0
    9.7912  -15.6815   25.4768 C   0  0  0  0  0  0  0  0  0  0  0  0
    9.2216  -14.5655   25.3868 O   0  0  0  0  0  0  0  0  0  0  0  0
   10.1668  -16.0909   26.7432 O   0  0  0  0  0  0  0  0  0  0  0  0
  2  1  1  6
  2  3  1  0
  2  7  1  0
  3  4  1  0
  4  5  1  0
  5  6  2  0
  7  8  2  0
  9  5  1  0
 10  7  1  0
 10 11  1  0
 11 12  1  6
 13 12  1  0
 14 13  2  0
 15 14  1  0
 16 15  1  0
 16 17  2  0
 17 13  1  0
 18 26  1  0
 18 11  1  0
 19 18  2  0
 20 21  1  0
 21 22  2  0
 23 24  1  0
 23 21  1  0
 25 24  1  6
 25 27  1  0
 25 26  1  0
 27 29  1  0
 28 27  2  0
M  END
$$$$
