EHQ.pdb
     RDKit          3D

 29 29  0  0  1  0  0  0  0  0999 V2000
   14.4905  -13.4505   17.5089 N   0  0  0  0  0  0  0  0  0  0  0  0
   14.0408  -14.7392   17.9536 C   0  0  1  0  0  0  0  0  0  0  0  0
   15.2203  -15.6292   18.2274 C   0  0  0  0  0  0  0  0  0  0  0  0
   14.7805  -16.9556   18.7525 C   0  0  0  0  0  0  0  0  0  0  0  0
   15.9225  -17.8698   18.9972 C   0  0  0  0  0  0  0  0  0  0  0  0
   15.9621  -18.6370   19.9926 O   0  0  0  0  0  0  0  0  0  0  0  0
   13.1632  -14.6416   19.1555 C   0  0  0  0  0  0  0  0  0  0  0  0
   13.5524  -14.0435   20.1750 O   0  0  0  0  0  0  0  0  0  0  0  0
   17.0057  -17.9208   18.1344 O   0  0  0  0  0  0  0  0  0  0  0  0
   11.8582  -15.2359   19.1537 N   0  0  0  0  0  0  0  0  0  0  0  0
   10.9716  -15.1369   20.2885 C   0  0  1  0  0  0  0  0  0  0  0  0
    9.5482  -15.4404   19.9115 C   0  0  0  0  0  0  0  0  0  0  0  0
    8.8875  -14.3449   19.1966 C   0  0  0  0  0  0  0  0  0  0  0  0
    9.4593  -13.1491   18.8499 C   0  0  0  0  0  0  0  0  0  0  0  0
    8.5305  -12.4223   18.2110 N   0  0  0  0  0  0  0  0  0  0  0  0
    7.3720  -13.1207   18.1370 C   0  0  0  0  0  0  0  0  0  0  0  0
    7.6231  -14.3034   18.7539 N   0  0  0  0  0  0  0  0  0  0  0  0
   11.3981  -16.1708   21.2929 C   0  0  0  0  0  0  0  0  0  0  0  0
   12.0176  -17.1831   20.8849 O   0  0  0  0  0  0  0  0  0  0  0  0
   15.9904  -15.4416   22.4241 N   0  0  0  0  0  0  0  0  0  0  0  0
   15.3279  -15.9359   23.6105 C   0  0  0  0  0  0  0  0  0  0  0  0
   15.9746  -16.5465   24.4905 O   0  0  0  0  0  0  0  0  0  0  0  0
   13.8779  -15.6744   23.6978 C   0  0  0  0  0  0  0  0  0  0  0  0
   13.1223  -16.9657   23.6482 C   0  0  0  0  0  0  0  0  0  0  0  0
   11.6434  -16.8728   23.7028 C   0  0  2  0  0  0  0  0  0  0  0  0
   11.1047  -16.0017   22.6771 N   0  0  0  0  0  0  0  0  0  0  0  0
   11.1134  -16.4946   25.0609 C   0  0  0  0  0  0  0  0  0  0  0  0
   11.4571  -17.1439   26.0799 O   0  0  0  0  0  0  0  0  0  0  0  0
   10.2403  -15.4403   25.2569 O   0  0  0  0  0  0  0  0  0  0  0  0
  2  1  1  1
  2  3  1  0
  2  7  1  0
  3  4  1  0
  4  5  1  0
  5  6  2  0
  7  8  2  0
  9  5  1  0
 10  7  1  0
 10 11  1  0
 11 12  1  6
 13 12  1  0
 14 13  2  0
 15 14  1  0
 16 15  1  0
 16 17  2  0
 17 13  1  0
 18 26  1  0
 18 11  1  0
 19 18  2  0
 20 21  1  0
 21 22  2  0
 23 24  1  0
 23 21  1  0
 25 24  1  1
 25 27  1  0
 25 26  1  0
 27 29  1  0
 28 27  2  0
M  END
$$$$
