NTW.pdb
     RDKit          3D

 30 31  0  0  1  0  0  0  0  0999 V2000
   14.3005  -18.8127   17.9836 N   0  0  0  0  0  0  0  0  0  0  0  0
   13.5996  -18.9009   19.2107 C   0  0  0  0  0  0  0  0  0  0  0  0
   13.5046  -20.0062   19.7785 O   0  0  0  0  0  0  0  0  0  0  0  0
   13.0046  -17.7051   19.7859 C   0  0  0  0  0  0  0  0  0  0  0  0
   11.5408  -17.7137   20.0201 C   0  0  2  0  0  0  0  0  0  0  0  0
   10.8861  -17.9284   18.7235 N   0  0  0  0  0  0  0  0  0  0  0  0
   10.9735  -16.5704   20.7345 C   0  0  0  0  0  0  0  0  0  0  0  0
   11.6016  -15.5251   21.0382 O   0  0  0  0  0  0  0  0  0  0  0  0
    6.9881  -15.2474   20.6860 C   0  0  0  0  0  0  0  0  0  0  0  0
    7.5625  -15.6160   22.0139 C   0  0  1  0  0  0  0  0  0  0  0  0
    7.0886  -16.8963   22.3477 O   0  0  0  0  0  0  0  0  0  0  0  0
    9.0598  -15.5680   22.0709 C   0  0  2  0  0  0  0  0  0  0  0  0
    9.5945  -16.5380   21.1702 N   0  0  0  0  0  0  0  0  0  0  0  0
    9.5283  -15.7073   23.4634 C   0  0  0  0  0  0  0  0  0  0  0  0
   10.5988  -15.1236   23.7764 O   0  0  0  0  0  0  0  0  0  0  0  0
    8.8789  -16.4409   24.4787 N   0  0  0  0  0  0  0  0  0  0  0  0
    9.3571  -16.4572   25.8690 C   0  0  1  0  0  0  0  0  0  0  0  0
    8.2455  -16.3198   26.8259 C   0  0  0  0  0  0  0  0  0  0  0  0
    7.3348  -15.2223   26.4773 C   0  0  0  0  0  0  0  0  0  0  0  0
    6.0501  -15.3554   25.9208 C   0  0  0  0  0  0  0  0  0  0  0  0
    5.5256  -14.1402   25.6907 N   0  0  0  0  0  0  0  0  0  0  0  0
    6.3935  -13.1900   26.0656 C   0  0  0  0  0  0  0  0  0  0  0  0
    6.2967  -11.8071   26.0420 C   0  0  0  0  0  0  0  0  0  0  0  0
    7.3262  -11.0278   26.5112 C   0  0  0  0  0  0  0  0  0  0  0  0
    8.4336  -11.6875   26.9946 C   0  0  0  0  0  0  0  0  0  0  0  0
    8.5423  -13.0571   27.0232 C   0  0  0  0  0  0  0  0  0  0  0  0
    7.5073  -13.8470   26.5503 C   0  0  0  0  0  0  0  0  0  0  0  0
   10.1870  -17.6416   26.0474 C   0  0  0  0  0  0  0  0  0  0  0  0
   10.7940  -17.9436   27.1027 O   0  0  0  0  0  0  0  0  0  0  0  0
   10.3628  -18.5603   24.9918 O   0  0  0  0  0  0  0  0  0  0  0  0
  1  2  1  0
  2  3  2  0
  4  5  1  0
  4  2  1  0
  5  7  1  0
  5  6  1  6
  7  8  2  0
 10  9  1  6
 10 11  1  0
 10 12  1  0
 12 13  1  6
 13  7  1  0
 14 15  2  0
 14 12  1  0
 16 14  1  0
 17 16  1  0
 17 28  1  0
 17 18  1  1
 19 27  1  0
 19 18  1  0
 20 19  2  0
 21 20  1  0
 21 22  1  0
 22 27  2  0
 23 22  1  0
 23 24  2  0
 24 25  1  0
 25 26  2  0
 27 26  1  0
 28 29  2  0
 28 30  1  0
M  END
$$$$
