NTW.pdb
     RDKit          3D

 30 31  0  0  1  0  0  0  0  0999 V2000
   11.9828  -17.4099   14.3604 N   0  0  0  0  0  0  0  0  0  0  0  0
   11.2111  -16.2545   14.0870 C   0  0  0  0  0  0  0  0  0  0  0  0
   11.2117  -15.7819   12.9339 O   0  0  0  0  0  0  0  0  0  0  0  0
   10.4337  -15.6412   15.1520 C   0  0  0  0  0  0  0  0  0  0  0  0
   10.4783  -16.2819   16.4881 C   0  0  2  0  0  0  0  0  0  0  0  0
    9.4690  -17.3483   16.5016 N   0  0  0  0  0  0  0  0  0  0  0  0
   10.3597  -15.4043   17.6522 C   0  0  0  0  0  0  0  0  0  0  0  0
   11.1515  -14.4705   17.9358 O   0  0  0  0  0  0  0  0  0  0  0  0
    7.9930  -12.9787   18.4853 C   0  0  0  0  0  0  0  0  0  0  0  0
    7.9872  -13.8530   19.6955 C   0  0  1  0  0  0  0  0  0  0  0  0
    6.7927  -14.5933   19.6863 O   0  0  0  0  0  0  0  0  0  0  0  0
    9.1770  -14.7585   19.8056 C   0  0  2  0  0  0  0  0  0  0  0  0
    9.2865  -15.5358   18.6132 N   0  0  0  0  0  0  0  0  0  0  0  0
    9.1071  -15.5544   21.0464 C   0  0  0  0  0  0  0  0  0  0  0  0
    8.2743  -16.4977   21.0843 O   0  0  0  0  0  0  0  0  0  0  0  0
    9.8948  -15.3495   22.1989 N   0  0  0  0  0  0  0  0  0  0  0  0
    9.3067  -15.0633   23.5158 C   0  0  1  0  0  0  0  0  0  0  0  0
    7.8646  -14.7802   23.4151 C   0  0  0  0  0  0  0  0  0  0  0  0
    7.2503  -14.5138   24.7216 C   0  0  0  0  0  0  0  0  0  0  0  0
    6.4381  -15.3993   25.4524 C   0  0  0  0  0  0  0  0  0  0  0  0
    6.0151  -14.8038   26.5798 N   0  0  0  0  0  0  0  0  0  0  0  0
    6.5028  -13.5570   26.6482 C   0  0  0  0  0  0  0  0  0  0  0  0
    6.3623  -12.5757   27.6174 C   0  0  0  0  0  0  0  0  0  0  0  0
    6.9889  -11.3613   27.4762 C   0  0  0  0  0  0  0  0  0  0  0  0
    7.7467  -11.1820   26.3410 C   0  0  0  0  0  0  0  0  0  0  0  0
    7.8937  -12.1460   25.3728 C   0  0  0  0  0  0  0  0  0  0  0  0
    7.2631  -13.3717   25.5103 C   0  0  0  0  0  0  0  0  0  0  0  0
    9.6644  -16.1517   24.4163 C   0  0  0  0  0  0  0  0  0  0  0  0
    9.6972  -17.3655   24.1019 O   0  0  0  0  0  0  0  0  0  0  0  0
   10.0115  -15.8885   25.7577 O   0  0  0  0  0  0  0  0  0  0  0  0
  1  2  1  0
  2  3  2  0
  4  5  1  0
  4  2  1  0
  5  7  1  0
  5  6  1  6
  7  8  2  0
 10  9  1  6
 10 11  1  0
 10 12  1  0
 12 13  1  6
 13  7  1  0
 14 15  2  0
 14 12  1  0
 16 14  1  0
 17 16  1  0
 17 28  1  0
 17 18  1  6
 19 27  1  0
 19 18  1  0
 20 19  2  0
 21 20  1  0
 21 22  1  0
 22 27  2  0
 23 22  1  0
 23 24  2  0
 24 25  1  0
 25 26  2  0
 27 26  1  0
 28 29  2  0
 28 30  1  0
M  END
$$$$
