NTW.pdb
     RDKit          3D

 30 31  0  0  1  0  0  0  0  0999 V2000
   13.8254  -18.2119   17.5971 N   0  0  0  0  0  0  0  0  0  0  0  0
   13.0321  -17.3136   16.8429 C   0  0  0  0  0  0  0  0  0  0  0  0
   13.4529  -16.9080   15.7422 O   0  0  0  0  0  0  0  0  0  0  0  0
   11.7449  -16.8811   17.3630 C   0  0  0  0  0  0  0  0  0  0  0  0
   11.3042  -17.4499   18.6592 C   0  0  2  0  0  0  0  0  0  0  0  0
   10.3739  -18.5478   18.3674 N   0  0  0  0  0  0  0  0  0  0  0  0
   10.7558  -16.5178   19.6439 C   0  0  0  0  0  0  0  0  0  0  0  0
   11.3312  -15.4778   20.0521 O   0  0  0  0  0  0  0  0  0  0  0  0
    6.9897  -15.2287   19.9255 C   0  0  0  0  0  0  0  0  0  0  0  0
    7.4613  -15.8274   21.2094 C   0  0  1  0  0  0  0  0  0  0  0  0
    6.8642  -17.0930   21.3394 O   0  0  0  0  0  0  0  0  0  0  0  0
    8.9523  -15.9242   21.3316 C   0  0  2  0  0  0  0  0  0  0  0  0
    9.4604  -16.7148   20.2569 N   0  0  0  0  0  0  0  0  0  0  0  0
    9.3302  -16.4073   22.6739 C   0  0  0  0  0  0  0  0  0  0  0  0
    9.9272  -17.5133   22.7455 O   0  0  0  0  0  0  0  0  0  0  0  0
    9.0793  -15.7356   23.8890 N   0  0  0  0  0  0  0  0  0  0  0  0
    9.3816  -16.3334   25.1979 C   0  0  1  0  0  0  0  0  0  0  0  0
    9.2251  -15.3561   26.2890 C   0  0  0  0  0  0  0  0  0  0  0  0
    7.9613  -14.6141   26.2034 C   0  0  0  0  0  0  0  0  0  0  0  0
    6.7059  -15.1501   25.8647 C   0  0  0  0  0  0  0  0  0  0  0  0
    5.7850  -14.1722   25.8402 N   0  0  0  0  0  0  0  0  0  0  0  0
    6.3567  -12.9991   26.1471 C   0  0  0  0  0  0  0  0  0  0  0  0
    5.8183  -11.7272   26.2676 C   0  0  0  0  0  0  0  0  0  0  0  0
    6.6127  -10.6645   26.6236 C   0  0  0  0  0  0  0  0  0  0  0  0
    7.9442  -10.9325   26.8481 C   0  0  0  0  0  0  0  0  0  0  0  0
    8.4903  -12.1881   26.7316 C   0  0  0  0  0  0  0  0  0  0  0  0
    7.6935  -13.2626   26.3720 C   0  0  0  0  0  0  0  0  0  0  0  0
    8.5883  -17.5482   25.3337 C   0  0  0  0  0  0  0  0  0  0  0  0
    7.5996  -17.8461   24.6217 O   0  0  0  0  0  0  0  0  0  0  0  0
    8.9033  -18.5043   26.3215 O   0  0  0  0  0  0  0  0  0  0  0  0
  1  2  1  0
  2  3  2  0
  4  5  1  0
  4  2  1  0
  5  7  1  0
  5  6  1  6
  7  8  2  0
 10  9  1  6
 10 11  1  0
 10 12  1  0
 12 13  1  6
 13  7  1  0
 14 15  2  0
 14 12  1  0
 16 14  1  0
 17 16  1  0
 17 28  1  0
 17 18  1  1
 19 27  1  0
 19 18  1  0
 20 19  2  0
 21 20  1  0
 21 22  1  0
 22 27  2  0
 23 22  1  0
 23 24  2  0
 24 25  1  0
 25 26  2  0
 27 26  1  0
 28 29  2  0
 28 30  1  0
M  END
$$$$
