NTW.pdb
     RDKit          3D

 30 31  0  0  1  0  0  0  0  0999 V2000
   10.0337  -15.2769   15.2159 N   0  0  0  0  0  0  0  0  0  0  0  0
    9.7043  -16.6193   15.5232 C   0  0  0  0  0  0  0  0  0  0  0  0
    9.9396  -17.5103   14.6843 O   0  0  0  0  0  0  0  0  0  0  0  0
    9.0993  -16.9347   16.8074 C   0  0  0  0  0  0  0  0  0  0  0  0
   10.0099  -17.1787   17.9515 C   0  0  2  0  0  0  0  0  0  0  0  0
   10.6614  -18.4758   17.7300 N   0  0  0  0  0  0  0  0  0  0  0  0
    9.4358  -17.0791   19.2931 C   0  0  0  0  0  0  0  0  0  0  0  0
    9.0912  -16.0081   19.8531 O   0  0  0  0  0  0  0  0  0  0  0  0
    7.0727  -20.1461   20.7441 C   0  0  0  0  0  0  0  0  0  0  0  0
    8.0515  -19.5847   21.7217 C   0  0  1  0  0  0  0  0  0  0  0  0
    9.1266  -20.4845   21.8197 O   0  0  0  0  0  0  0  0  0  0  0  0
    8.5363  -18.2067   21.3841 C   0  0  2  0  0  0  0  0  0  0  0  0
    9.2054  -18.2409   20.1235 N   0  0  0  0  0  0  0  0  0  0  0  0
    9.3475  -17.6596   22.4888 C   0  0  0  0  0  0  0  0  0  0  0  0
   10.5958  -17.6247   22.3298 O   0  0  0  0  0  0  0  0  0  0  0  0
    8.8444  -17.1707   23.7130 N   0  0  0  0  0  0  0  0  0  0  0  0
    9.7223  -16.7477   24.8141 C   0  0  1  0  0  0  0  0  0  0  0  0
    9.6347  -15.2962   25.0498 C   0  0  0  0  0  0  0  0  0  0  0  0
    8.2746  -14.8622   25.3917 C   0  0  0  0  0  0  0  0  0  0  0  0
    7.1354  -15.6838   25.4650 C   0  0  0  0  0  0  0  0  0  0  0  0
    6.0559  -14.9401   25.7590 N   0  0  0  0  0  0  0  0  0  0  0  0
    6.4096  -13.6537   25.8893 C   0  0  0  0  0  0  0  0  0  0  0  0
    5.6604  -12.5302   26.2032 C   0  0  0  0  0  0  0  0  0  0  0  0
    6.2600  -11.2984   26.3059 C   0  0  0  0  0  0  0  0  0  0  0  0
    7.6176  -11.2483   26.0833 C   0  0  0  0  0  0  0  0  0  0  0  0
    8.3715  -12.3540   25.7711 C   0  0  0  0  0  0  0  0  0  0  0  0
    7.7712  -13.5980   25.6655 C   0  0  0  0  0  0  0  0  0  0  0  0
    9.4299  -17.5835   25.9714 C   0  0  0  0  0  0  0  0  0  0  0  0
    8.4339  -18.3378   26.0819 O   0  0  0  0  0  0  0  0  0  0  0  0
   10.2929  -17.5921   27.0868 O   0  0  0  0  0  0  0  0  0  0  0  0
  1  2  1  0
  2  3  2  0
  4  5  1  0
  4  2  1  0
  5  7  1  0
  5  6  1  6
  7  8  2  0
 10  9  1  6
 10 11  1  0
 10 12  1  0
 12 13  1  6
 13  7  1  0
 14 15  2  0
 14 12  1  0
 16 14  1  0
 17 16  1  0
 17 28  1  0
 17 18  1  1
 19 27  1  0
 19 18  1  0
 20 19  2  0
 21 20  1  0
 21 22  1  0
 22 27  2  0
 23 22  1  0
 23 24  2  0
 24 25  1  0
 25 26  2  0
 27 26  1  0
 28 29  2  0
 28 30  1  0
M  END
$$$$
