NTW.pdb
     RDKit          3D

 30 31  0  0  1  0  0  0  0  0999 V2000
    7.9828  -12.3245   18.2814 N   0  0  0  0  0  0  0  0  0  0  0  0
    7.7172  -13.6174   17.7688 C   0  0  0  0  0  0  0  0  0  0  0  0
    6.5434  -14.0356   17.7527 O   0  0  0  0  0  0  0  0  0  0  0  0
    8.8141  -14.4325   17.2717 C   0  0  0  0  0  0  0  0  0  0  0  0
    9.7178  -15.0481   18.2727 C   0  0  2  0  0  0  0  0  0  0  0  0
   10.7495  -15.7924   17.5394 N   0  0  0  0  0  0  0  0  0  0  0  0
    9.0982  -15.8618   19.3184 C   0  0  0  0  0  0  0  0  0  0  0  0
    8.1192  -16.6313   19.1492 O   0  0  0  0  0  0  0  0  0  0  0  0
    8.2815  -18.3288   19.9750 C   0  0  0  0  0  0  0  0  0  0  0  0
    9.0434  -18.1135   21.2408 C   0  0  1  0  0  0  0  0  0  0  0  0
   10.3523  -18.5846   21.0410 O   0  0  0  0  0  0  0  0  0  0  0  0
    9.0532  -16.6925   21.7185 C   0  0  2  0  0  0  0  0  0  0  0  0
    9.5710  -15.8543   20.6855 N   0  0  0  0  0  0  0  0  0  0  0  0
    9.7684  -16.5851   23.0050 C   0  0  0  0  0  0  0  0  0  0  0  0
   10.8501  -15.9413   23.0152 O   0  0  0  0  0  0  0  0  0  0  0  0
    9.3445  -17.1437   24.2293 N   0  0  0  0  0  0  0  0  0  0  0  0
    9.9172  -16.7387   25.5215 C   0  0  1  0  0  0  0  0  0  0  0  0
    9.7835  -15.2884   25.7426 C   0  0  0  0  0  0  0  0  0  0  0  0
    8.3823  -14.8581   25.8250 C   0  0  0  0  0  0  0  0  0  0  0  0
    7.2536  -15.6495   25.5462 C   0  0  0  0  0  0  0  0  0  0  0  0
    6.1374  -14.9143   25.6812 N   0  0  0  0  0  0  0  0  0  0  0  0
    6.4561  -13.6623   26.0391 C   0  0  0  0  0  0  0  0  0  0  0  0
    5.6582  -12.5618   26.3118 C   0  0  0  0  0  0  0  0  0  0  0  0
    6.2226  -11.3680   26.6908 C   0  0  0  0  0  0  0  0  0  0  0  0
    7.5957  -11.3315   26.7812 C   0  0  0  0  0  0  0  0  0  0  0  0
    8.3978  -12.4147   26.5133 C   0  0  0  0  0  0  0  0  0  0  0  0
    7.8334  -13.6202   26.1300 C   0  0  0  0  0  0  0  0  0  0  0  0
    9.3344  -17.5811   26.5578 C   0  0  0  0  0  0  0  0  0  0  0  0
    8.3947  -18.3931   26.3821 O   0  0  0  0  0  0  0  0  0  0  0  0
    9.8181  -17.5287   27.8816 O   0  0  0  0  0  0  0  0  0  0  0  0
  1  2  1  0
  2  3  2  0
  4  5  1  0
  4  2  1  0
  5  7  1  0
  5  6  1  6
  7  8  2  0
 10  9  1  6
 10 11  1  0
 10 12  1  0
 12 13  1  6
 13  7  1  0
 14 15  2  0
 14 12  1  0
 16 14  1  0
 17 16  1  0
 17 28  1  0
 17 18  1  1
 19 27  1  0
 19 18  1  0
 20 19  2  0
 21 20  1  0
 21 22  1  0
 22 27  2  0
 23 22  1  0
 23 24  2  0
 24 25  1  0
 25 26  2  0
 27 26  1  0
 28 29  2  0
 28 30  1  0
M  END
$$$$
