NTW.pdb
     RDKit          3D

 30 31  0  0  1  0  0  0  0  0999 V2000
    7.5312  -16.7401   16.0389 N   0  0  0  0  0  0  0  0  0  0  0  0
    7.6248  -15.9504   17.2106 C   0  0  0  0  0  0  0  0  0  0  0  0
    7.7545  -14.7157   17.1028 O   0  0  0  0  0  0  0  0  0  0  0  0
    7.5683  -16.5908   18.5150 C   0  0  0  0  0  0  0  0  0  0  0  0
    8.5677  -16.1723   19.5269 C   0  0  2  0  0  0  0  0  0  0  0  0
    9.8877  -16.2034   18.8846 N   0  0  0  0  0  0  0  0  0  0  0  0
    8.5648  -16.8885   20.8021 C   0  0  0  0  0  0  0  0  0  0  0  0
    7.5543  -17.4155   21.3318 O   0  0  0  0  0  0  0  0  0  0  0  0
   10.6749  -19.8724   21.5296 C   0  0  0  0  0  0  0  0  0  0  0  0
   10.9235  -18.8778   22.6150 C   0  0  1  0  0  0  0  0  0  0  0  0
   12.1578  -18.2575   22.3563 O   0  0  0  0  0  0  0  0  0  0  0  0
    9.8359  -17.8586   22.7760 C   0  0  2  0  0  0  0  0  0  0  0  0
    9.7627  -17.0605   21.5947 N   0  0  0  0  0  0  0  0  0  0  0  0
   10.0301  -17.0883   24.0197 C   0  0  0  0  0  0  0  0  0  0  0  0
   10.6973  -16.0234   23.9442 O   0  0  0  0  0  0  0  0  0  0  0  0
    9.5318  -17.4425   25.2913 N   0  0  0  0  0  0  0  0  0  0  0  0
    9.8513  -16.6767   26.5052 C   0  0  1  0  0  0  0  0  0  0  0  0
    8.6422  -16.3804   27.2928 C   0  0  0  0  0  0  0  0  0  0  0  0
    7.6941  -15.5247   26.5688 C   0  0  0  0  0  0  0  0  0  0  0  0
    6.6393  -15.9639   25.7488 C   0  0  0  0  0  0  0  0  0  0  0  0
    6.0089  -14.9058   25.2124 N   0  0  0  0  0  0  0  0  0  0  0  0
    6.5858  -13.7705   25.6306 C   0  0  0  0  0  0  0  0  0  0  0  0
    6.2814  -12.4435   25.3683 C   0  0  0  0  0  0  0  0  0  0  0  0
    7.0143  -11.4333   25.9423 C   0  0  0  0  0  0  0  0  0  0  0  0
    8.0448  -11.8092   26.7740 C   0  0  0  0  0  0  0  0  0  0  0  0
    8.3572  -13.1203   27.0419 C   0  0  0  0  0  0  0  0  0  0  0  0
    7.6217  -14.1425   26.4647 C   0  0  0  0  0  0  0  0  0  0  0  0
   10.9019  -17.3865   27.2234 C   0  0  0  0  0  0  0  0  0  0  0  0
   11.4111  -17.0144   28.3077 O   0  0  0  0  0  0  0  0  0  0  0  0
   11.4308  -18.5911   26.7153 O   0  0  0  0  0  0  0  0  0  0  0  0
  1  2  1  0
  2  3  2  0
  4  5  1  0
  4  2  1  0
  5  7  1  0
  5  6  1  6
  7  8  2  0
 10  9  1  6
 10 11  1  0
 10 12  1  0
 12 13  1  6
 13  7  1  0
 14 15  2  0
 14 12  1  0
 16 14  1  0
 17 16  1  0
 17 28  1  0
 17 18  1  1
 19 27  1  0
 19 18  1  0
 20 19  2  0
 21 20  1  0
 21 22  1  0
 22 27  2  0
 23 22  1  0
 23 24  2  0
 24 25  1  0
 25 26  2  0
 27 26  1  0
 28 29  2  0
 28 30  1  0
M  END
$$$$
