NTH.pdb
     RDKit          3D

 26 26  0  0  1  0  0  0  0  0999 V2000
   14.5498  -16.5257   17.7477 N   0  0  0  0  0  0  0  0  0  0  0  0
   14.4677  -15.1069   17.7530 C   0  0  0  0  0  0  0  0  0  0  0  0
   15.3578  -14.4143   17.2116 O   0  0  0  0  0  0  0  0  0  0  0  0
   13.3289  -14.4152   18.3984 C   0  0  0  0  0  0  0  0  0  0  0  0
   12.4044  -15.3355   19.1211 C   0  0  2  0  0  0  0  0  0  0  0  0
   11.5975  -16.0940   18.2036 N   0  0  0  0  0  0  0  0  0  0  0  0
   11.5631  -14.6900   20.1298 C   0  0  0  0  0  0  0  0  0  0  0  0
   12.1213  -14.0389   21.0683 O   0  0  0  0  0  0  0  0  0  0  0  0
    7.8215  -13.1715   19.4009 C   0  0  0  0  0  0  0  0  0  0  0  0
    7.9380  -14.0436   20.6107 C   0  0  1  0  0  0  0  0  0  0  0  0
    7.4908  -15.3379   20.4134 O   0  0  0  0  0  0  0  0  0  0  0  0
    9.3427  -14.0560   21.1901 C   0  0  2  0  0  0  0  0  0  0  0  0
   10.1557  -14.7163   20.1695 N   0  0  0  0  0  0  0  0  0  0  0  0
    9.4433  -14.7216   22.4922 C   0  0  0  0  0  0  0  0  0  0  0  0
    9.7866  -15.9371   22.6275 O   0  0  0  0  0  0  0  0  0  0  0  0
    9.1560  -14.0258   23.6952 N   0  0  0  0  0  0  0  0  0  0  0  0
    9.2743  -14.6691   25.0070 C   0  0  1  0  0  0  0  0  0  0  0  0
    9.5293  -13.6238   26.0416 C   0  0  0  0  0  0  0  0  0  0  0  0
    9.6772  -14.1907   27.3870 C   0  0  0  0  0  0  0  0  0  0  0  0
    9.7585  -15.5190   27.7623 C   0  0  0  0  0  0  0  0  0  0  0  0
    9.8843  -15.5767   29.0980 N   0  0  0  0  0  0  0  0  0  0  0  0
    9.8821  -14.3116   29.5526 C   0  0  0  0  0  0  0  0  0  0  0  0
    9.7574  -13.4693   28.5248 N   0  0  0  0  0  0  0  0  0  0  0  0
    8.1275  -15.5457   25.2758 C   0  0  0  0  0  0  0  0  0  0  0  0
    6.9621  -15.4921   24.5561 O   0  0  0  0  0  0  0  0  0  0  0  0
    8.2211  -16.3842   26.2113 O   0  0  0  0  0  0  0  0  0  0  0  0
  1  2  1  0
  2  3  2  0
  4  5  1  0
  4  2  1  0
  5  7  1  0
  5  6  1  6
  7  8  2  0
 10  9  1  6
 10 12  1  0
 11 10  1  0
 12 14  1  0
 13  7  1  0
 12 13  1  6
 14 15  2  0
 16 17  1  0
 16 14  1  0
 17 24  1  0
 18 19  1  0
 17 18  1  1
 19 23  1  0
 20 19  2  0
 20 21  1  0
 21 22  1  0
 23 22  2  0
 24 25  1  0
 26 24  2  0
M  END
$$$$
