NTH.pdb
     RDKit          3D

 26 26  0  0  1  0  0  0  0  0999 V2000
    3.5652  -22.3932   20.4388 N   0  0  0  0  0  0  0  0  0  0  0  0
    3.9686  -23.4310   21.3220 C   0  0  0  0  0  0  0  0  0  0  0  0
    3.3588  -24.5232   21.3439 O   0  0  0  0  0  0  0  0  0  0  0  0
    5.1184  -23.2452   22.2361 C   0  0  0  0  0  0  0  0  0  0  0  0
    5.7093  -21.8772   22.1802 C   0  0  2  0  0  0  0  0  0  0  0  0
    5.9568  -21.4686   20.8238 N   0  0  0  0  0  0  0  0  0  0  0  0
    6.9103  -21.6955   22.9968 C   0  0  0  0  0  0  0  0  0  0  0  0
    7.4268  -22.7106   23.5619 O   0  0  0  0  0  0  0  0  0  0  0  0
   10.0610  -19.8079   21.8807 C   0  0  0  0  0  0  0  0  0  0  0  0
    9.6242  -19.3090   23.2216 C   0  0  1  0  0  0  0  0  0  0  0  0
    8.9492  -18.1021   23.1775 O   0  0  0  0  0  0  0  0  0  0  0  0
    8.8126  -20.3368   23.9924 C   0  0  2  0  0  0  0  0  0  0  0  0
    7.5733  -20.4750   23.2284 N   0  0  0  0  0  0  0  0  0  0  0  0
    8.5621  -19.9707   25.3895 C   0  0  0  0  0  0  0  0  0  0  0  0
    7.7556  -19.0517   25.7340 O   0  0  0  0  0  0  0  0  0  0  0  0
    9.2227  -20.6399   26.4523 N   0  0  0  0  0  0  0  0  0  0  0  0
    9.0001  -20.2725   27.8537 C   0  0  1  0  0  0  0  0  0  0  0  0
    8.4751  -21.4590   28.5916 C   0  0  0  0  0  0  0  0  0  0  0  0
    7.1222  -21.8324   28.1632 C   0  0  0  0  0  0  0  0  0  0  0  0
    6.2803  -21.1753   27.2850 C   0  0  0  0  0  0  0  0  0  0  0  0
    5.1365  -21.8724   27.1902 N   0  0  0  0  0  0  0  0  0  0  0  0
    5.2569  -22.9449   27.9916 C   0  0  0  0  0  0  0  0  0  0  0  0
    6.4536  -22.9271   28.5825 N   0  0  0  0  0  0  0  0  0  0  0  0
   10.1963  -19.6538   28.4386 C   0  0  0  0  0  0  0  0  0  0  0  0
   11.3379  -19.4099   27.7200 O   0  0  0  0  0  0  0  0  0  0  0  0
   10.1701  -19.3336   29.6568 O   0  0  0  0  0  0  0  0  0  0  0  0
  1  2  1  0
  2  3  2  0
  4  5  1  0
  4  2  1  0
  5  7  1  0
  5  6  1  6
  7  8  2  0
 10  9  1  6
 10 12  1  0
 11 10  1  0
 12 14  1  0
 13  7  1  0
 12 13  1  6
 14 15  2  0
 16 17  1  0
 16 14  1  0
 17 24  1  0
 18 19  1  0
 17 18  1  1
 19 23  1  0
 20 19  2  0
 20 21  1  0
 21 22  1  0
 23 22  2  0
 24 25  1  0
 26 24  2  0
M  END
$$$$
