NTH.pdb
     RDKit          3D

 26 26  0  0  1  0  0  0  0  0999 V2000
    7.2974  -15.3881   13.3482 N   0  0  0  0  0  0  0  0  0  0  0  0
    8.5494  -15.4771   14.0149 C   0  0  0  0  0  0  0  0  0  0  0  0
    9.4822  -16.1571   13.5325 O   0  0  0  0  0  0  0  0  0  0  0  0
    8.7798  -14.7684   15.2942 C   0  0  0  0  0  0  0  0  0  0  0  0
    9.0601  -15.6814   16.4394 C   0  0  2  0  0  0  0  0  0  0  0  0
    7.9935  -16.6274   16.6283 N   0  0  0  0  0  0  0  0  0  0  0  0
    9.3734  -15.0050   17.6989 C   0  0  0  0  0  0  0  0  0  0  0  0
   10.3501  -14.1917   17.7317 O   0  0  0  0  0  0  0  0  0  0  0  0
    7.3095  -12.7735   19.7448 C   0  0  0  0  0  0  0  0  0  0  0  0
    7.7797  -13.8598   20.6595 C   0  0  1  0  0  0  0  0  0  0  0  0
    6.8192  -14.8179   20.9315 O   0  0  0  0  0  0  0  0  0  0  0  0
    9.0584  -14.5214   20.1734 C   0  0  2  0  0  0  0  0  0  0  0  0
    8.6835  -15.1668   18.9158 N   0  0  0  0  0  0  0  0  0  0  0  0
    9.6382  -15.4694   21.1293 C   0  0  0  0  0  0  0  0  0  0  0  0
    9.4376  -16.7226   21.0750 O   0  0  0  0  0  0  0  0  0  0  0  0
   10.4724  -15.0252   22.1879 N   0  0  0  0  0  0  0  0  0  0  0  0
   11.0652  -15.9599   23.1489 C   0  0  1  0  0  0  0  0  0  0  0  0
   12.3298  -15.3738   23.6829 C   0  0  0  0  0  0  0  0  0  0  0  0
   13.4164  -15.3915   22.6968 C   0  0  0  0  0  0  0  0  0  0  0  0
   13.4044  -15.8836   21.4047 C   0  0  0  0  0  0  0  0  0  0  0  0
   14.6199  -15.6942   20.8661 N   0  0  0  0  0  0  0  0  0  0  0  0
   15.3796  -15.0957   21.7997 C   0  0  0  0  0  0  0  0  0  0  0  0
   14.6592  -14.9098   22.9079 N   0  0  0  0  0  0  0  0  0  0  0  0
   10.0887  -16.3680   24.1667 C   0  0  0  0  0  0  0  0  0  0  0  0
   10.3259  -17.3729   25.0683 O   0  0  0  0  0  0  0  0  0  0  0  0
    8.9830  -15.7659   24.2112 O   0  0  0  0  0  0  0  0  0  0  0  0
  1  2  1  0
  2  3  2  0
  4  5  1  0
  4  2  1  0
  5  7  1  0
  5  6  1  1
  7  8  2  0
 10  9  1  6
 10 12  1  0
 11 10  1  0
 12 14  1  0
 13  7  1  0
 12 13  1  6
 14 15  2  0
 16 17  1  0
 16 14  1  0
 17 24  1  0
 18 19  1  0
 17 18  1  1
 19 23  1  0
 20 19  2  0
 20 21  1  0
 21 22  1  0
 23 22  2  0
 24 25  1  0
 26 24  2  0
M  END
$$$$
