NTH.pdb
     RDKit          3D

 26 26  0  0  1  0  0  0  0  0999 V2000
   14.3848  -16.1886   19.1136 N   0  0  0  0  0  0  0  0  0  0  0  0
   13.5499  -15.2292   18.4794 C   0  0  0  0  0  0  0  0  0  0  0  0
   13.9384  -14.6219   17.4569 O   0  0  0  0  0  0  0  0  0  0  0  0
   12.2024  -14.9258   19.0123 C   0  0  0  0  0  0  0  0  0  0  0  0
   11.8398  -15.7339   20.2119 C   0  0  2  0  0  0  0  0  0  0  0  0
   11.5401  -17.0946   19.8557 N   0  0  0  0  0  0  0  0  0  0  0  0
   10.7637  -15.1694   21.0277 C   0  0  0  0  0  0  0  0  0  0  0  0
   10.8507  -13.9582   21.4043 O   0  0  0  0  0  0  0  0  0  0  0  0
    7.0491  -14.9190   20.4016 C   0  0  0  0  0  0  0  0  0  0  0  0
    7.2685  -15.6432   21.6920 C   0  0  1  0  0  0  0  0  0  0  0  0
    7.1379  -17.0170   21.5925 O   0  0  0  0  0  0  0  0  0  0  0  0
    8.5939  -15.2876   22.3446 C   0  0  2  0  0  0  0  0  0  0  0  0
    9.6062  -15.8502   21.4516 N   0  0  0  0  0  0  0  0  0  0  0  0
    8.7325  -15.7819   23.7176 C   0  0  0  0  0  0  0  0  0  0  0  0
    9.7179  -16.4814   24.1090 O   0  0  0  0  0  0  0  0  0  0  0  0
    7.7505  -15.4972   24.7017 N   0  0  0  0  0  0  0  0  0  0  0  0
    7.8545  -16.0146   26.0693 C   0  0  1  0  0  0  0  0  0  0  0  0
    6.8249  -15.3503   26.9217 C   0  0  0  0  0  0  0  0  0  0  0  0
    6.9199  -13.8866   26.8780 C   0  0  0  0  0  0  0  0  0  0  0  0
    8.0521  -13.0936   26.8427 C   0  0  0  0  0  0  0  0  0  0  0  0
    7.6693  -11.8068   26.8132 N   0  0  0  0  0  0  0  0  0  0  0  0
    6.3252  -11.7913   26.8295 C   0  0  0  0  0  0  0  0  0  0  0  0
    5.8659  -13.0439   26.8686 N   0  0  0  0  0  0  0  0  0  0  0  0
    7.8260  -17.4825   26.0871 C   0  0  0  0  0  0  0  0  0  0  0  0
    7.5477  -18.2373   24.9772 O   0  0  0  0  0  0  0  0  0  0  0  0
    8.0683  -18.0729   27.1732 O   0  0  0  0  0  0  0  0  0  0  0  0
  1  2  1  0
  2  3  2  0
  4  5  1  0
  4  2  1  0
  5  7  1  0
  5  6  1  6
  7  8  2  0
 10  9  1  6
 10 12  1  0
 11 10  1  0
 12 14  1  0
 13  7  1  0
 12 13  1  6
 14 15  2  0
 16 17  1  0
 16 14  1  0
 17 24  1  0
 18 19  1  0
 17 18  1  1
 19 23  1  0
 20 19  2  0
 20 21  1  0
 21 22  1  0
 23 22  2  0
 24 25  1  0
 26 24  2  0
M  END
$$$$
