NTH.pdb
     RDKit          3D

 26 26  0  0  1  0  0  0  0  0999 V2000
    6.9297  -19.4487   16.7313 N   0  0  0  0  0  0  0  0  0  0  0  0
    8.0072  -19.9517   17.5097 C   0  0  0  0  0  0  0  0  0  0  0  0
    8.1901  -21.1839   17.6253 O   0  0  0  0  0  0  0  0  0  0  0  0
    8.9379  -19.0312   18.2013 C   0  0  0  0  0  0  0  0  0  0  0  0
    8.6067  -17.5904   18.0057 C   0  0  2  0  0  0  0  0  0  0  0  0
    9.1063  -17.1044   16.7477 N   0  0  0  0  0  0  0  0  0  0  0  0
    9.0281  -16.7118   19.0977 C   0  0  0  0  0  0  0  0  0  0  0  0
   10.2672  -16.4685   19.2456 O   0  0  0  0  0  0  0  0  0  0  0  0
    7.4108  -13.3060   20.2039 C   0  0  0  0  0  0  0  0  0  0  0  0
    7.5354  -14.2479   21.3592 C   0  0  1  0  0  0  0  0  0  0  0  0
    6.3501  -14.8737   21.7021 O   0  0  0  0  0  0  0  0  0  0  0  0
    8.6342  -15.2783   21.1583 C   0  0  2  0  0  0  0  0  0  0  0  0
    8.1766  -16.0887   20.0303 N   0  0  0  0  0  0  0  0  0  0  0  0
    8.9115  -16.0914   22.3460 C   0  0  0  0  0  0  0  0  0  0  0  0
    8.2521  -17.1355   22.6437 O   0  0  0  0  0  0  0  0  0  0  0  0
    9.9548  -15.7457   23.2436 N   0  0  0  0  0  0  0  0  0  0  0  0
   10.2056  -16.5110   24.4684 C   0  0  1  0  0  0  0  0  0  0  0  0
   11.6694  -16.7781   24.5856 C   0  0  0  0  0  0  0  0  0  0  0  0
   12.1488  -17.7282   23.5751 C   0  0  0  0  0  0  0  0  0  0  0  0
   11.7388  -17.8761   22.2630 C   0  0  0  0  0  0  0  0  0  0  0  0
   12.4466  -18.8721   21.7058 N   0  0  0  0  0  0  0  0  0  0  0  0
   13.2838  -19.3401   22.6477 C   0  0  0  0  0  0  0  0  0  0  0  0
   13.1094  -18.6539   23.7792 N   0  0  0  0  0  0  0  0  0  0  0  0
    9.5947  -15.8630   25.6358 C   0  0  0  0  0  0  0  0  0  0  0  0
    8.9281  -14.6675   25.5624 O   0  0  0  0  0  0  0  0  0  0  0  0
    9.6893  -16.4335   26.7551 O   0  0  0  0  0  0  0  0  0  0  0  0
  1  2  1  0
  2  3  2  0
  4  5  1  0
  4  2  1  0
  5  7  1  0
  5  6  1  6
  7  8  2  0
 10  9  1  6
 10 12  1  0
 11 10  1  0
 12 14  1  0
 13  7  1  0
 12 13  1  6
 14 15  2  0
 16 17  1  0
 16 14  1  0
 17 24  1  0
 18 19  1  0
 17 18  1  1
 19 23  1  0
 20 19  2  0
 20 21  1  0
 21 22  1  0
 23 22  2  0
 24 25  1  0
 26 24  2  0
M  END
$$$$
