NTH.pdb
     RDKit          3D

 26 26  0  0  1  0  0  0  0  0999 V2000
    9.6946  -17.9134   14.2969 N   0  0  0  0  0  0  0  0  0  0  0  0
   10.7539  -16.9660   14.2797 C   0  0  0  0  0  0  0  0  0  0  0  0
   11.4991  -16.8602   13.2804 O   0  0  0  0  0  0  0  0  0  0  0  0
   11.0007  -16.0827   15.4420 C   0  0  0  0  0  0  0  0  0  0  0  0
    9.7612  -15.4652   15.9953 C   0  0  2  0  0  0  0  0  0  0  0  0
    9.1397  -14.5902   15.0381 N   0  0  0  0  0  0  0  0  0  0  0  0
    9.9383  -14.7796   17.2762 C   0  0  0  0  0  0  0  0  0  0  0  0
   10.7905  -13.8395   17.3558 O   0  0  0  0  0  0  0  0  0  0  0  0
    7.5680  -12.8603   19.3746 C   0  0  0  0  0  0  0  0  0  0  0  0
    8.1342  -13.9503   20.2283 C   0  0  1  0  0  0  0  0  0  0  0  0
    7.2882  -15.0334   20.3880 O   0  0  0  0  0  0  0  0  0  0  0  0
    9.5000  -14.4165   19.7526 C   0  0  2  0  0  0  0  0  0  0  0  0
    9.2408  -15.0624   18.4664 N   0  0  0  0  0  0  0  0  0  0  0  0
   10.1838  -15.3105   20.6916 C   0  0  0  0  0  0  0  0  0  0  0  0
   10.1994  -16.5742   20.5632 O   0  0  0  0  0  0  0  0  0  0  0  0
   10.8793  -14.7979   21.8173 N   0  0  0  0  0  0  0  0  0  0  0  0
   11.5271  -15.6797   22.7927 C   0  0  1  0  0  0  0  0  0  0  0  0
   12.8300  -15.0786   23.2039 C   0  0  0  0  0  0  0  0  0  0  0  0
   13.8595  -15.2073   22.1660 C   0  0  0  0  0  0  0  0  0  0  0  0
   13.7440  -15.7357   20.8936 C   0  0  0  0  0  0  0  0  0  0  0  0
   14.9404  -15.6543   20.2890 N   0  0  0  0  0  0  0  0  0  0  0  0
   15.7897  -15.0867   21.1629 C   0  0  0  0  0  0  0  0  0  0  0  0
   15.1437  -14.8142   22.2987 N   0  0  0  0  0  0  0  0  0  0  0  0
   10.6179  -16.0120   23.8967 C   0  0  0  0  0  0  0  0  0  0  0  0
   10.9184  -16.9429   24.8569 O   0  0  0  0  0  0  0  0  0  0  0  0
    9.5115  -15.4131   23.9620 O   0  0  0  0  0  0  0  0  0  0  0  0
  1  2  1  0
  2  3  2  0
  4  5  1  0
  4  2  1  0
  5  7  1  0
  5  6  1  6
  7  8  2  0
 10  9  1  6
 10 12  1  0
 11 10  1  0
 12 14  1  0
 13  7  1  0
 12 13  1  6
 14 15  2  0
 16 17  1  0
 16 14  1  0
 17 24  1  0
 18 19  1  0
 17 18  1  1
 19 23  1  0
 20 19  2  0
 20 21  1  0
 21 22  1  0
 23 22  2  0
 24 25  1  0
 26 24  2  0
M  END
$$$$
