NTH.pdb
     RDKit          3D

 26 26  0  0  1  0  0  0  0  0999 V2000
    9.7367  -17.4373   13.8090 N   0  0  0  0  0  0  0  0  0  0  0  0
   10.2282  -16.1055   13.8745 C   0  0  0  0  0  0  0  0  0  0  0  0
   10.7214  -15.5569   12.8641 O   0  0  0  0  0  0  0  0  0  0  0  0
   10.1686  -15.3361   15.1381 C   0  0  0  0  0  0  0  0  0  0  0  0
    9.5908  -16.1051   16.2776 C   0  0  2  0  0  0  0  0  0  0  0  0
    8.1974  -16.3897   16.0643 N   0  0  0  0  0  0  0  0  0  0  0  0
    9.7933  -15.4954   17.5926 C   0  0  0  0  0  0  0  0  0  0  0  0
   10.9787  -15.2363   17.9724 O   0  0  0  0  0  0  0  0  0  0  0  0
    8.0230  -12.4711   19.0894 C   0  0  0  0  0  0  0  0  0  0  0  0
    7.9345  -13.5992   20.0678 C   0  0  1  0  0  0  0  0  0  0  0  0
    6.6912  -14.2046   20.1137 O   0  0  0  0  0  0  0  0  0  0  0  0
    9.0191  -14.6425   19.8575 C   0  0  2  0  0  0  0  0  0  0  0  0
    8.7796  -15.1555   18.5091 N   0  0  0  0  0  0  0  0  0  0  0  0
    9.0206  -15.7099   20.8622 C   0  0  0  0  0  0  0  0  0  0  0  0
    8.1622  -16.6461   20.8839 O   0  0  0  0  0  0  0  0  0  0  0  0
   10.0037  -15.7527   21.8846 N   0  0  0  0  0  0  0  0  0  0  0  0
    9.9707  -16.7625   22.9466 C   0  0  1  0  0  0  0  0  0  0  0  0
    9.9485  -18.1206   22.3278 C   0  0  0  0  0  0  0  0  0  0  0  0
   11.1405  -18.3857   21.5140 C   0  0  0  0  0  0  0  0  0  0  0  0
   12.2086  -17.5497   21.2458 C   0  0  0  0  0  0  0  0  0  0  0  0
   13.0724  -18.2042   20.4528 N   0  0  0  0  0  0  0  0  0  0  0  0
   12.5582  -19.4256   20.2274 C   0  0  0  0  0  0  0  0  0  0  0  0
   11.3915  -19.5422   20.8652 N   0  0  0  0  0  0  0  0  0  0  0  0
   11.0421  -16.5410   23.9258 C   0  0  0  0  0  0  0  0  0  0  0  0
   11.9396  -15.5094   23.8299 O   0  0  0  0  0  0  0  0  0  0  0  0
   11.1392  -17.3369   24.8975 O   0  0  0  0  0  0  0  0  0  0  0  0
  1  2  1  0
  2  3  2  0
  4  5  1  0
  4  2  1  0
  5  7  1  0
  5  6  1  6
  7  8  2  0
 10  9  1  6
 10 12  1  0
 11 10  1  0
 12 14  1  0
 13  7  1  0
 12 13  1  6
 14 15  2  0
 16 17  1  0
 16 14  1  0
 17 24  1  0
 18 19  1  0
 17 18  1  6
 19 23  1  0
 20 19  2  0
 20 21  1  0
 21 22  1  0
 23 22  2  0
 24 25  1  0
 26 24  2  0
M  END
$$$$
