NTH.pdb
     RDKit          3D

 26 26  0  0  1  0  0  0  0  0999 V2000
   10.7973  -15.8814   13.1778 N   0  0  0  0  0  0  0  0  0  0  0  0
    9.5890  -15.3585   13.7131 C   0  0  0  0  0  0  0  0  0  0  0  0
    8.5273  -15.4015   13.0527 O   0  0  0  0  0  0  0  0  0  0  0  0
    9.5574  -14.7512   15.0630 C   0  0  0  0  0  0  0  0  0  0  0  0
    9.4630  -15.7517   16.1647 C   0  0  2  0  0  0  0  0  0  0  0  0
    8.2213  -16.4751   16.1103 N   0  0  0  0  0  0  0  0  0  0  0  0
    9.6801  -15.2075   17.5059 C   0  0  0  0  0  0  0  0  0  0  0  0
   10.8195  -14.7223   17.7937 O   0  0  0  0  0  0  0  0  0  0  0  0
    7.2868  -12.9641   19.5833 C   0  0  0  0  0  0  0  0  0  0  0  0
    7.7183  -14.1342   20.4094 C   0  0  1  0  0  0  0  0  0  0  0  0
    6.7471  -15.1097   20.5493 O   0  0  0  0  0  0  0  0  0  0  0  0
    9.0159  -14.7522   19.9158 C   0  0  2  0  0  0  0  0  0  0  0  0
    8.7280  -15.1644   18.5425 N   0  0  0  0  0  0  0  0  0  0  0  0
    9.4944  -15.8673   20.7383 C   0  0  0  0  0  0  0  0  0  0  0  0
    9.6539  -17.0447   20.2891 O   0  0  0  0  0  0  0  0  0  0  0  0
    9.8112  -15.6836   22.1093 N   0  0  0  0  0  0  0  0  0  0  0  0
   10.6628  -16.6276   22.8388 C   0  0  1  0  0  0  0  0  0  0  0  0
   11.9412  -16.8101   22.0902 C   0  0  0  0  0  0  0  0  0  0  0  0
   12.8296  -17.7888   22.7276 C   0  0  0  0  0  0  0  0  0  0  0  0
   12.5394  -18.6984   23.7277 C   0  0  0  0  0  0  0  0  0  0  0  0
   13.6543  -19.3925   24.0081 N   0  0  0  0  0  0  0  0  0  0  0  0
   14.6246  -18.9291   23.2013 C   0  0  0  0  0  0  0  0  0  0  0  0
   14.1336  -17.9604   22.4253 N   0  0  0  0  0  0  0  0  0  0  0  0
   10.8145  -16.2316   24.2445 C   0  0  0  0  0  0  0  0  0  0  0  0
   11.2261  -17.0979   25.2238 O   0  0  0  0  0  0  0  0  0  0  0  0
   10.5536  -15.0409   24.5627 O   0  0  0  0  0  0  0  0  0  0  0  0
  1  2  1  0
  2  3  2  0
  4  5  1  0
  4  2  1  0
  5  7  1  0
  5  6  1  1
  7  8  2  0
 10  9  1  6
 10 12  1  0
 11 10  1  0
 12 14  1  0
 13  7  1  0
 12 13  1  6
 14 15  2  0
 16 17  1  0
 16 14  1  0
 17 24  1  0
 18 19  1  0
 17 18  1  6
 19 23  1  0
 20 19  2  0
 20 21  1  0
 21 22  1  0
 23 22  2  0
 24 25  1  0
 26 24  2  0
M  END
$$$$
