NTH.pdb
     RDKit          3D

 26 26  0  0  1  0  0  0  0  0999 V2000
    8.2288  -17.7591   14.0621 N   0  0  0  0  0  0  0  0  0  0  0  0
    9.5876  -17.3481   13.9936 C   0  0  0  0  0  0  0  0  0  0  0  0
   10.4271  -18.0234   13.3577 O   0  0  0  0  0  0  0  0  0  0  0  0
   10.0417  -16.1129   14.6717 C   0  0  0  0  0  0  0  0  0  0  0  0
    8.9709  -15.4371   15.4594 C   0  0  2  0  0  0  0  0  0  0  0  0
    8.2172  -14.5241   14.6431 N   0  0  0  0  0  0  0  0  0  0  0  0
    9.4348  -14.7714   16.6775 C   0  0  0  0  0  0  0  0  0  0  0  0
   10.3582  -13.9021   16.5875 O   0  0  0  0  0  0  0  0  0  0  0  0
    7.4016  -12.9089   19.3336 C   0  0  0  0  0  0  0  0  0  0  0  0
    8.2112  -13.9890   19.9783 C   0  0  1  0  0  0  0  0  0  0  0  0
    7.4891  -15.1331   20.2681 O   0  0  0  0  0  0  0  0  0  0  0  0
    9.4563  -14.3416   19.1817 C   0  0  2  0  0  0  0  0  0  0  0  0
    8.9490  -15.0012   17.9791 N   0  0  0  0  0  0  0  0  0  0  0  0
   10.4111  -15.1814   19.9110 C   0  0  0  0  0  0  0  0  0  0  0  0
   10.4753  -16.4425   19.7731 O   0  0  0  0  0  0  0  0  0  0  0  0
   11.3334  -14.6150   20.8288 N   0  0  0  0  0  0  0  0  0  0  0  0
   12.2257  -15.4476   21.6407 C   0  0  1  0  0  0  0  0  0  0  0  0
   13.5884  -14.8385   21.6485 C   0  0  0  0  0  0  0  0  0  0  0  0
   14.2370  -14.8984   20.3335 C   0  0  0  0  0  0  0  0  0  0  0  0
   14.0107  -15.7846   19.2966 C   0  0  0  0  0  0  0  0  0  0  0  0
   14.8329  -15.4711   18.2821 N   0  0  0  0  0  0  0  0  0  0  0  0
   15.5602  -14.4104   18.6730 C   0  0  0  0  0  0  0  0  0  0  0  0
   15.2057  -14.0592   19.9109 N   0  0  0  0  0  0  0  0  0  0  0  0
   11.6515  -15.7075   22.9668 C   0  0  0  0  0  0  0  0  0  0  0  0
   12.2147  -16.5738   23.8675 O   0  0  0  0  0  0  0  0  0  0  0  0
   10.5925  -15.1060   23.2892 O   0  0  0  0  0  0  0  0  0  0  0  0
  1  2  1  0
  2  3  2  0
  4  5  1  0
  4  2  1  0
  5  7  1  0
  5  6  1  6
  7  8  2  0
 10  9  1  6
 10 12  1  0
 11 10  1  0
 12 14  1  0
 13  7  1  0
 12 13  1  6
 14 15  2  0
 16 17  1  0
 16 14  1  0
 17 24  1  0
 18 19  1  0
 17 18  1  1
 19 23  1  0
 20 19  2  0
 20 21  1  0
 21 22  1  0
 23 22  2  0
 24 25  1  0
 26 24  2  0
M  END
$$$$
