NTH.pdb
     RDKit          3D

 26 26  0  0  1  0  0  0  0  0999 V2000
    5.6236  -21.0389   19.9036 N   0  0  0  0  0  0  0  0  0  0  0  0
    6.2716  -21.7865   20.9239 C   0  0  0  0  0  0  0  0  0  0  0  0
    5.7656  -22.8450   21.3584 O   0  0  0  0  0  0  0  0  0  0  0  0
    7.5590  -21.3317   21.4964 C   0  0  0  0  0  0  0  0  0  0  0  0
    8.0130  -20.0127   20.9694 C   0  0  2  0  0  0  0  0  0  0  0  0
    8.2942  -20.0802   19.5607 N   0  0  0  0  0  0  0  0  0  0  0  0
    9.1421  -19.4219   21.6891 C   0  0  0  0  0  0  0  0  0  0  0  0
   10.2916  -19.9512   21.5671 O   0  0  0  0  0  0  0  0  0  0  0  0
   11.0113  -15.6226   24.2626 C   0  0  0  0  0  0  0  0  0  0  0  0
   10.0719  -16.2995   23.3154 C   0  0  1  0  0  0  0  0  0  0  0  0
   10.1635  -15.8419   22.0129 O   0  0  0  0  0  0  0  0  0  0  0  0
   10.1962  -17.8135   23.3500 C   0  0  2  0  0  0  0  0  0  0  0  0
    9.0852  -18.2927   22.5287 N   0  0  0  0  0  0  0  0  0  0  0  0
   10.1696  -18.3819   24.7009 C   0  0  0  0  0  0  0  0  0  0  0  0
    9.1586  -18.3088   25.4666 O   0  0  0  0  0  0  0  0  0  0  0  0
   11.2975  -19.0583   25.2339 N   0  0  0  0  0  0  0  0  0  0  0  0
   11.2936  -19.6187   26.5884 C   0  0  1  0  0  0  0  0  0  0  0  0
   11.8136  -21.0169   26.5392 C   0  0  0  0  0  0  0  0  0  0  0  0
   10.8529  -21.9520   25.9427 C   0  0  0  0  0  0  0  0  0  0  0  0
    9.4830  -21.8185   25.8110 C   0  0  0  0  0  0  0  0  0  0  0  0
    9.0045  -22.9185   25.2073 N   0  0  0  0  0  0  0  0  0  0  0  0
   10.0514  -23.7262   24.9647 C   0  0  0  0  0  0  0  0  0  0  0  0
   11.1709  -23.1489   25.4063 N   0  0  0  0  0  0  0  0  0  0  0  0
   11.9811  -18.7307   27.5342 C   0  0  0  0  0  0  0  0  0  0  0  0
   11.7723  -18.7768   28.8882 O   0  0  0  0  0  0  0  0  0  0  0  0
   12.7995  -17.8885   27.0782 O   0  0  0  0  0  0  0  0  0  0  0  0
  1  2  1  0
  2  3  2  0
  4  5  1  0
  4  2  1  0
  5  7  1  0
  5  6  1  6
  7  8  2  0
 10  9  1  1
 10 12  1  0
 11 10  1  0
 12 14  1  0
 13  7  1  0
 12 13  1  6
 14 15  2  0
 16 17  1  0
 16 14  1  0
 17 24  1  0
 18 19  1  0
 17 18  1  6
 19 23  1  0
 20 19  2  0
 20 21  1  0
 21 22  1  0
 23 22  2  0
 24 25  1  0
 26 24  2  0
M  END
$$$$
