NTH.pdb
     RDKit          3D

 26 26  0  0  1  0  0  0  0  0999 V2000
    8.9452  -18.4681   14.2255 N   0  0  0  0  0  0  0  0  0  0  0  0
   10.0039  -17.5203   14.2031 C   0  0  0  0  0  0  0  0  0  0  0  0
   10.6073  -17.2627   13.1379 O   0  0  0  0  0  0  0  0  0  0  0  0
   10.4178  -16.8158   15.4378 C   0  0  0  0  0  0  0  0  0  0  0  0
    9.3031  -16.0908   16.1127 C   0  0  2  0  0  0  0  0  0  0  0  0
    8.6854  -15.1399   15.2281 N   0  0  0  0  0  0  0  0  0  0  0  0
    9.6662  -15.4518   17.3783 C   0  0  0  0  0  0  0  0  0  0  0  0
   10.8579  -15.0380   17.5365 O   0  0  0  0  0  0  0  0  0  0  0  0
    7.8913  -12.6705   19.3596 C   0  0  0  0  0  0  0  0  0  0  0  0
    8.0931  -13.8583   20.2462 C   0  0  1  0  0  0  0  0  0  0  0  0
    6.9490  -14.6109   20.4434 O   0  0  0  0  0  0  0  0  0  0  0  0
    9.2336  -14.7484   19.7813 C   0  0  2  0  0  0  0  0  0  0  0  0
    8.8054  -15.2415   18.4728 N   0  0  0  0  0  0  0  0  0  0  0  0
    9.5508  -15.8405   20.7062 C   0  0  0  0  0  0  0  0  0  0  0  0
    9.0817  -17.0146   20.5835 O   0  0  0  0  0  0  0  0  0  0  0  0
   10.4183  -15.6369   21.8107 N   0  0  0  0  0  0  0  0  0  0  0  0
   10.7834  -16.7287   22.7180 C   0  0  1  0  0  0  0  0  0  0  0  0
   11.4673  -17.8025   21.9388 C   0  0  0  0  0  0  0  0  0  0  0  0
   10.5201  -18.7418   21.3274 C   0  0  0  0  0  0  0  0  0  0  0  0
    9.1474  -18.8083   21.4794 C   0  0  0  0  0  0  0  0  0  0  0  0
    8.6860  -19.8273   20.7363 N   0  0  0  0  0  0  0  0  0  0  0  0
    9.7461  -20.3892   20.1300 C   0  0  0  0  0  0  0  0  0  0  0  0
   10.8570  -19.7387   20.4825 N   0  0  0  0  0  0  0  0  0  0  0  0
   11.5303  -16.2291   23.8792 C   0  0  0  0  0  0  0  0  0  0  0  0
   11.8304  -14.9038   24.0600 O   0  0  0  0  0  0  0  0  0  0  0  0
   11.9121  -17.0582   24.7475 O   0  0  0  0  0  0  0  0  0  0  0  0
  1  2  1  0
  2  3  2  0
  4  5  1  0
  4  2  1  0
  5  7  1  0
  5  6  1  6
  7  8  2  0
 10  9  1  6
 10 12  1  0
 11 10  1  0
 12 14  1  0
 13  7  1  0
 12 13  1  6
 14 15  2  0
 16 17  1  0
 16 14  1  0
 17 24  1  0
 18 19  1  0
 17 18  1  6
 19 23  1  0
 20 19  2  0
 20 21  1  0
 21 22  1  0
 23 22  2  0
 24 25  1  0
 26 24  2  0
M  END
$$$$
