NTH.pdb
     RDKit          3D

 26 26  0  0  1  0  0  0  0  0999 V2000
    7.0711  -14.0236   12.9759 N   0  0  0  0  0  0  0  0  0  0  0  0
    8.1241  -14.5949   13.7405 C   0  0  0  0  0  0  0  0  0  0  0  0
    8.8348  -15.5082   13.2654 O   0  0  0  0  0  0  0  0  0  0  0  0
    8.4052  -14.1237   15.1157 C   0  0  0  0  0  0  0  0  0  0  0  0
    8.6388  -15.2293   16.0887 C   0  0  2  0  0  0  0  0  0  0  0  0
    7.5010  -16.1051   16.1694 N   0  0  0  0  0  0  0  0  0  0  0  0
    9.0446  -14.7927   17.4253 C   0  0  0  0  0  0  0  0  0  0  0  0
   10.0936  -14.0848   17.5470 O   0  0  0  0  0  0  0  0  0  0  0  0
    7.0252  -12.9496   20.0002 C   0  0  0  0  0  0  0  0  0  0  0  0
    7.5924  -14.1681   20.6569 C   0  0  1  0  0  0  0  0  0  0  0  0
    6.6772  -15.1923   20.8230 O   0  0  0  0  0  0  0  0  0  0  0  0
    8.8374  -14.6850   19.9555 C   0  0  2  0  0  0  0  0  0  0  0  0
    8.3724  -15.0846   18.6278 N   0  0  0  0  0  0  0  0  0  0  0  0
    9.5048  -15.7832   20.6606 C   0  0  0  0  0  0  0  0  0  0  0  0
    9.2841  -17.0083   20.4076 O   0  0  0  0  0  0  0  0  0  0  0  0
   10.4532  -15.5276   21.6848 N   0  0  0  0  0  0  0  0  0  0  0  0
   11.0758  -16.6121   22.4496 C   0  0  1  0  0  0  0  0  0  0  0  0
   12.5598  -16.4664   22.3828 C   0  0  0  0  0  0  0  0  0  0  0  0
   13.1041  -16.8618   21.0786 C   0  0  0  0  0  0  0  0  0  0  0  0
   12.4458  -17.4245   20.0008 C   0  0  0  0  0  0  0  0  0  0  0  0
   13.3363  -17.6251   19.0159 N   0  0  0  0  0  0  0  0  0  0  0  0
   14.5290  -17.1974   19.4651 C   0  0  0  0  0  0  0  0  0  0  0  0
   14.3962  -16.7352   20.7101 N   0  0  0  0  0  0  0  0  0  0  0  0
   10.5180  -16.6964   23.8052 C   0  0  0  0  0  0  0  0  0  0  0  0
   10.8458  -17.6937   24.6866 O   0  0  0  0  0  0  0  0  0  0  0  0
    9.7009  -15.8107   24.1725 O   0  0  0  0  0  0  0  0  0  0  0  0
  1  2  1  0
  2  3  2  0
  4  5  1  0
  4  2  1  0
  5  7  1  0
  5  6  1  1
  7  8  2  0
 10  9  1  6
 10 12  1  0
 11 10  1  0
 12 14  1  0
 13  7  1  0
 12 13  1  6
 14 15  2  0
 16 17  1  0
 16 14  1  0
 17 24  1  0
 18 19  1  0
 17 18  1  1
 19 23  1  0
 20 19  2  0
 20 21  1  0
 21 22  1  0
 23 22  2  0
 24 25  1  0
 26 24  2  0
M  END
$$$$
