LNF.pdb
     RDKit          3D

 28 28  0  0  1  0  0  0  0  0999 V2000
   17.6074  -12.3113  -18.3739 C   0  0  0  0  0  0  0  0  0  0  0  0
   18.7175  -11.6313  -17.5552 C   0  0  1  0  0  0  0  0  0  0  0  0
   19.6887  -11.0805  -18.5677 C   0  0  0  0  0  0  0  0  0  0  0  0
   18.0322  -10.6037  -16.7193 C   0  0  0  0  0  0  0  0  0  0  0  0
   18.9292   -9.7450  -15.8826 C   0  0  2  0  0  0  0  0  0  0  0  0
   19.7780  -10.4282  -14.9725 N   0  0  0  0  0  0  0  0  0  0  0  0
   18.1661   -8.6219  -15.2442 C   0  0  0  0  0  0  0  0  0  0  0  0
   17.4006   -7.8826  -15.9040 O   0  0  0  0  0  0  0  0  0  0  0  0
   16.5726   -9.8814  -10.6682 N   0  0  0  0  0  0  0  0  0  0  0  0
   16.3721   -8.8920  -11.6583 C   0  0  0  0  0  0  0  0  0  0  0  0
   15.3875   -9.0497  -12.4554 O   0  0  0  0  0  0  0  0  0  0  0  0
   17.2879   -7.7454  -11.7223 C   0  0  0  0  0  0  0  0  0  0  0  0
   17.6472   -7.3552  -13.1094 C   0  0  2  0  0  0  0  0  0  0  0  0
   18.3169   -8.3964  -13.8589 N   0  0  0  0  0  0  0  0  0  0  0  0
   18.5168   -6.1610  -13.0980 C   0  0  0  0  0  0  0  0  0  0  0  0
   18.0968   -5.0679  -12.5829 O   0  0  0  0  0  0  0  0  0  0  0  0
   19.8297   -6.1025  -13.6232 N   0  0  0  0  0  0  0  0  0  0  0  0
   20.5906   -4.8431  -13.6448 C   0  0  1  0  0  0  0  0  0  0  0  0
   21.9958   -5.2094  -13.2286 C   0  0  0  0  0  0  0  0  0  0  0  0
   22.5519   -6.2300  -14.1110 C   0  0  0  0  0  0  0  0  0  0  0  0
   22.3807   -7.5627  -13.8252 C   0  0  0  0  0  0  0  0  0  0  0  0
   22.9062   -8.5180  -14.6451 C   0  0  0  0  0  0  0  0  0  0  0  0
   23.6140   -8.1664  -15.7671 C   0  0  0  0  0  0  0  0  0  0  0  0
   23.7944   -6.8245  -16.0672 C   0  0  0  0  0  0  0  0  0  0  0  0
   23.2578   -5.8626  -15.2302 C   0  0  0  0  0  0  0  0  0  0  0  0
   20.6159   -4.2568  -14.9922 C   0  0  0  0  0  0  0  0  0  0  0  0
   20.0879   -4.9357  -16.0714 O   0  0  0  0  0  0  0  0  0  0  0  0
   21.1194   -3.1132  -15.2244 O   0  0  0  0  0  0  0  0  0  0  0  0
  2  1  1  6
  2  4  1  0
  3  2  1  0
  5  7  1  0
  5  4  1  0
  5  6  1  1
  7  8  2  0
  9 10  1  0
 10 12  1  0
 11 10  2  0
 13 12  1  1
 14 13  1  0
 14  7  1  0
 15 16  2  0
 15 13  1  0
 17 15  1  0
 18 26  1  0
 18 17  1  0
 18 19  1  6
 20 19  1  0
 21 20  2  0
 22 21  1  0
 23 22  2  0
 23 24  1  0
 24 25  2  0
 25 20  1  0
 26 27  1  0
 28 26  2  0
M  END
$$$$
