LNF.pdb
     RDKit          3D

 28 28  0  0  1  0  0  0  0  0999 V2000
   19.7910  -15.8805  -18.0471 C   0  0  0  0  0  0  0  0  0  0  0  0
   19.0889  -14.8842  -17.1093 C   0  0  1  0  0  0  0  0  0  0  0  0
   19.2548  -15.4478  -15.7214 C   0  0  0  0  0  0  0  0  0  0  0  0
   19.7593  -13.5718  -17.3381 C   0  0  0  0  0  0  0  0  0  0  0  0
   19.2561  -12.4330  -16.5061 C   0  0  2  0  0  0  0  0  0  0  0  0
   17.8518  -12.2241  -16.5160 N   0  0  0  0  0  0  0  0  0  0  0  0
   20.0382  -11.1801  -16.7698 C   0  0  0  0  0  0  0  0  0  0  0  0
   21.2900  -11.1748  -16.7991 O   0  0  0  0  0  0  0  0  0  0  0  0
   19.9887   -6.2864  -19.9868 N   0  0  0  0  0  0  0  0  0  0  0  0
   19.7044   -6.6081  -18.6395 C   0  0  0  0  0  0  0  0  0  0  0  0
   19.9737   -5.7270  -17.7558 O   0  0  0  0  0  0  0  0  0  0  0  0
   19.1194   -7.9176  -18.3229 C   0  0  0  0  0  0  0  0  0  0  0  0
   19.9474   -8.7225  -17.3890 C   0  0  2  0  0  0  0  0  0  0  0  0
   19.3389   -9.9742  -16.9924 N   0  0  0  0  0  0  0  0  0  0  0  0
   20.2461   -7.9461  -16.1682 C   0  0  0  0  0  0  0  0  0  0  0  0
   19.3442   -7.7846  -15.2753 O   0  0  0  0  0  0  0  0  0  0  0  0
   21.4882   -7.3353  -15.8730 N   0  0  0  0  0  0  0  0  0  0  0  0
   21.6589   -6.4808  -14.6871 C   0  0  1  0  0  0  0  0  0  0  0  0
   22.5373   -7.2667  -13.7424 C   0  0  0  0  0  0  0  0  0  0  0  0
   23.5960   -7.9600  -14.4692 C   0  0  0  0  0  0  0  0  0  0  0  0
   23.7824   -9.3108  -14.3026 C   0  0  0  0  0  0  0  0  0  0  0  0
   24.7763   -9.9590  -14.9756 C   0  0  0  0  0  0  0  0  0  0  0  0
   25.6061   -9.2757  -15.8289 C   0  0  0  0  0  0  0  0  0  0  0  0
   25.4288   -7.9117  -16.0062 C   0  0  0  0  0  0  0  0  0  0  0  0
   24.4183   -7.2626  -15.3196 C   0  0  0  0  0  0  0  0  0  0  0  0
   22.3201   -5.2143  -15.0316 C   0  0  0  0  0  0  0  0  0  0  0  0
   22.4969   -4.2258  -14.0849 O   0  0  0  0  0  0  0  0  0  0  0  0
   22.7533   -4.9721  -16.2016 O   0  0  0  0  0  0  0  0  0  0  0  0
  2  1  1  6
  2  4  1  0
  3  2  1  0
  5  7  1  0
  5  4  1  0
  5  6  1  6
  7  8  2  0
  9 10  1  0
 10 12  1  0
 11 10  2  0
 13 12  1  6
 14 13  1  0
 14  7  1  0
 15 16  2  0
 15 13  1  0
 17 15  1  0
 18 26  1  0
 18 17  1  0
 18 19  1  1
 20 19  1  0
 21 20  2  0
 22 21  1  0
 23 22  2  0
 23 24  1  0
 24 25  2  0
 25 20  1  0
 26 27  1  0
 28 26  2  0
M  END
$$$$
