LNF.pdb
     RDKit          3D

 28 28  0  0  1  0  0  0  0  0999 V2000
   27.0776  -17.2909  -17.7334 C   0  0  0  0  0  0  0  0  0  0  0  0
   27.3644  -18.5435  -16.8885 C   0  0  1  0  0  0  0  0  0  0  0  0
   28.7200  -19.0304  -17.3321 C   0  0  0  0  0  0  0  0  0  0  0  0
   27.2918  -18.0980  -15.4669 C   0  0  0  0  0  0  0  0  0  0  0  0
   27.7065  -19.1133  -14.4474 C   0  0  2  0  0  0  0  0  0  0  0  0
   28.0234  -20.4050  -14.9443 N   0  0  0  0  0  0  0  0  0  0  0  0
   26.7490  -19.1466  -13.2928 C   0  0  0  0  0  0  0  0  0  0  0  0
   26.2165  -18.1060  -12.8440 O   0  0  0  0  0  0  0  0  0  0  0  0
   22.2838  -20.7106  -12.4325 N   0  0  0  0  0  0  0  0  0  0  0  0
   23.4776  -21.3255  -12.8751 C   0  0  0  0  0  0  0  0  0  0  0  0
   23.5981  -21.5408  -14.1276 O   0  0  0  0  0  0  0  0  0  0  0  0
   24.5092  -21.6801  -11.8914 C   0  0  0  0  0  0  0  0  0  0  0  0
   25.4795  -20.5856  -11.6347 C   0  0  2  0  0  0  0  0  0  0  0  0
   26.4406  -20.3895  -12.6988 N   0  0  0  0  0  0  0  0  0  0  0  0
   26.2211  -20.8399  -10.3826 C   0  0  0  0  0  0  0  0  0  0  0  0
   27.4077  -21.3163  -10.4266 O   0  0  0  0  0  0  0  0  0  0  0  0
   25.7280  -20.5972   -9.0784 N   0  0  0  0  0  0  0  0  0  0  0  0
   26.5431  -20.8806   -7.8864 C   0  0  1  0  0  0  0  0  0  0  0  0
   27.5092  -19.7252   -7.7699 C   0  0  0  0  0  0  0  0  0  0  0  0
   28.2178  -19.7641   -6.4947 C   0  0  0  0  0  0  0  0  0  0  0  0
   29.2452  -20.6546   -6.2984 C   0  0  0  0  0  0  0  0  0  0  0  0
   29.9036  -20.6973   -5.1044 C   0  0  0  0  0  0  0  0  0  0  0  0
   29.5525  -19.8541   -4.0800 C   0  0  0  0  0  0  0  0  0  0  0  0
   28.5170  -18.9504   -4.2649 C   0  0  0  0  0  0  0  0  0  0  0  0
   27.8550  -18.9140   -5.4790 C   0  0  0  0  0  0  0  0  0  0  0  0
   25.7133  -20.9492   -6.6754 C   0  0  0  0  0  0  0  0  0  0  0  0
   26.2226  -21.4477   -5.4936 O   0  0  0  0  0  0  0  0  0  0  0  0
   24.5038  -20.5593   -6.6595 O   0  0  0  0  0  0  0  0  0  0  0  0
  2  1  1  6
  2  4  1  0
  3  2  1  0
  5  7  1  0
  5  4  1  0
  5  6  1  6
  7  8  2  0
  9 10  1  0
 10 12  1  0
 11 10  2  0
 13 12  1  6
 14 13  1  0
 14  7  1  0
 15 16  2  0
 15 13  1  0
 17 15  1  0
 18 26  1  0
 18 17  1  0
 18 19  1  1
 20 19  1  0
 21 20  2  0
 22 21  1  0
 23 22  2  0
 23 24  1  0
 24 25  2  0
 25 20  1  0
 26 27  1  0
 28 26  2  0
M  END
$$$$
