LNF.pdb
     RDKit          3D

 28 28  0  0  1  0  0  0  0  0999 V2000
   28.9290  -18.0087  -16.4372 C   0  0  0  0  0  0  0  0  0  0  0  0
   29.1921  -19.4187  -15.8829 C   0  0  1  0  0  0  0  0  0  0  0  0
   30.2360  -19.2444  -14.8099 C   0  0  0  0  0  0  0  0  0  0  0  0
   27.8719  -19.9163  -15.3992 C   0  0  0  0  0  0  0  0  0  0  0  0
   27.8782  -21.2840  -14.7898 C   0  0  2  0  0  0  0  0  0  0  0  0
   28.3838  -22.3299  -15.6060 N   0  0  0  0  0  0  0  0  0  0  0  0
   26.5500  -21.6103  -14.1728 C   0  0  0  0  0  0  0  0  0  0  0  0
   25.6900  -22.2925  -14.7750 O   0  0  0  0  0  0  0  0  0  0  0  0
   22.5663  -21.3513  -10.9030 N   0  0  0  0  0  0  0  0  0  0  0  0
   23.7009  -21.0413  -10.1182 C   0  0  0  0  0  0  0  0  0  0  0  0
   23.5177  -20.8548   -8.8686 O   0  0  0  0  0  0  0  0  0  0  0  0
   25.0172  -20.9524  -10.7640 C   0  0  0  0  0  0  0  0  0  0  0  0
   24.9749  -21.2113  -12.2257 C   0  0  2  0  0  0  0  0  0  0  0  0
   26.2661  -21.1338  -12.8747 N   0  0  0  0  0  0  0  0  0  0  0  0
   24.0650  -20.2559  -12.8903 C   0  0  0  0  0  0  0  0  0  0  0  0
   24.2693  -18.9974  -12.7843 O   0  0  0  0  0  0  0  0  0  0  0  0
   22.9379  -20.6096  -13.6698 N   0  0  0  0  0  0  0  0  0  0  0  0
   22.0839  -19.5846  -14.2907 C   0  0  1  0  0  0  0  0  0  0  0  0
   22.9441  -18.9183  -15.3385 C   0  0  0  0  0  0  0  0  0  0  0  0
   23.2815  -19.8525  -16.4078 C   0  0  0  0  0  0  0  0  0  0  0  0
   24.5137  -20.4591  -16.4363 C   0  0  0  0  0  0  0  0  0  0  0  0
   24.8333  -21.3268  -17.4391 C   0  0  0  0  0  0  0  0  0  0  0  0
   23.9325  -21.6089  -18.4354 C   0  0  0  0  0  0  0  0  0  0  0  0
   22.6851  -21.0033  -18.4186 C   0  0  0  0  0  0  0  0  0  0  0  0
   22.3696  -20.1247  -17.3977 C   0  0  0  0  0  0  0  0  0  0  0  0
   20.9074  -20.1867  -14.9334 C   0  0  0  0  0  0  0  0  0  0  0  0
   19.9911  -19.4069  -15.6093 O   0  0  0  0  0  0  0  0  0  0  0  0
   20.6804  -21.4367  -14.8967 O   0  0  0  0  0  0  0  0  0  0  0  0
  2  1  1  1
  2  4  1  0
  3  2  1  0
  5  7  1  0
  5  4  1  0
  5  6  1  6
  7  8  2  0
  9 10  1  0
 10 12  1  0
 11 10  2  0
 13 12  1  1
 14 13  1  0
 14  7  1  0
 15 16  2  0
 15 13  1  0
 17 15  1  0
 18 26  1  0
 18 17  1  0
 18 19  1  6
 20 19  1  0
 21 20  2  0
 22 21  1  0
 23 22  2  0
 23 24  1  0
 24 25  2  0
 25 20  1  0
 26 27  1  0
 28 26  2  0
M  END
$$$$
