LNF.pdb
     RDKit          3D

 28 28  0  0  1  0  0  0  0  0999 V2000
   27.6353  -14.1243  -18.3912 C   0  0  0  0  0  0  0  0  0  0  0  0
   27.5477  -15.6230  -18.0578 C   0  0  1  0  0  0  0  0  0  0  0  0
   28.8106  -15.9445  -17.3004 C   0  0  0  0  0  0  0  0  0  0  0  0
   26.2879  -15.7911  -17.2774 C   0  0  0  0  0  0  0  0  0  0  0  0
   26.0303  -17.1690  -16.7510 C   0  0  2  0  0  0  0  0  0  0  0  0
   26.4446  -18.2433  -17.5816 N   0  0  0  0  0  0  0  0  0  0  0  0
   24.6167  -17.3110  -16.2684 C   0  0  0  0  0  0  0  0  0  0  0  0
   24.0334  -16.3926  -15.6486 O   0  0  0  0  0  0  0  0  0  0  0  0
   21.9094  -18.8404  -19.6665 N   0  0  0  0  0  0  0  0  0  0  0  0
   21.4811  -18.4829  -18.3672 C   0  0  0  0  0  0  0  0  0  0  0  0
   20.8731  -17.3682  -18.2350 O   0  0  0  0  0  0  0  0  0  0  0  0
   21.7476  -19.3957  -17.2477 C   0  0  0  0  0  0  0  0  0  0  0  0
   22.5506  -18.7776  -16.1620 C   0  0  2  0  0  0  0  0  0  0  0  0
   23.9271  -18.5159  -16.5240 N   0  0  0  0  0  0  0  0  0  0  0  0
   22.5436  -19.6408  -14.9631 C   0  0  0  0  0  0  0  0  0  0  0  0
   23.3110  -20.6628  -14.9054 O   0  0  0  0  0  0  0  0  0  0  0  0
   21.7362  -19.4406  -13.8181 N   0  0  0  0  0  0  0  0  0  0  0  0
   21.8974  -20.2694  -12.6128 C   0  0  1  0  0  0  0  0  0  0  0  0
   22.1555  -19.2998  -11.4836 C   0  0  0  0  0  0  0  0  0  0  0  0
   22.3384  -20.0071  -10.2202 C   0  0  0  0  0  0  0  0  0  0  0  0
   21.2670  -20.2357   -9.3914 C   0  0  0  0  0  0  0  0  0  0  0  0
   21.4375  -20.8900   -8.2067 C   0  0  0  0  0  0  0  0  0  0  0  0
   22.6790  -21.3306   -7.8218 C   0  0  0  0  0  0  0  0  0  0  0  0
   23.7692  -21.1062   -8.6491 C   0  0  0  0  0  0  0  0  0  0  0  0
   23.5869  -20.4419   -9.8487 C   0  0  0  0  0  0  0  0  0  0  0  0
   20.6792  -21.0405  -12.3275 C   0  0  0  0  0  0  0  0  0  0  0  0
   20.7480  -22.2739  -11.7123 O   0  0  0  0  0  0  0  0  0  0  0  0
   19.5208  -20.6145  -12.6307 O   0  0  0  0  0  0  0  0  0  0  0  0
  2  1  1  1
  2  4  1  0
  3  2  1  0
  5  7  1  0
  5  4  1  0
  5  6  1  6
  7  8  2  0
  9 10  1  0
 10 12  1  0
 11 10  2  0
 13 12  1  6
 14 13  1  0
 14  7  1  0
 15 16  2  0
 15 13  1  0
 17 15  1  0
 18 26  1  0
 18 17  1  0
 18 19  1  1
 20 19  1  0
 21 20  2  0
 22 21  1  0
 23 22  2  0
 23 24  1  0
 24 25  2  0
 25 20  1  0
 26 27  1  0
 28 26  2  0
M  END
$$$$
