LNF.pdb
     RDKit          3D

 28 28  0  0  1  0  0  0  0  0999 V2000
   26.9089  -24.3816  -18.5508 C   0  0  0  0  0  0  0  0  0  0  0  0
   27.1767  -23.3257  -17.4654 C   0  0  1  0  0  0  0  0  0  0  0  0
   28.4422  -22.6236  -17.8860 C   0  0  0  0  0  0  0  0  0  0  0  0
   25.9611  -22.4622  -17.4322 C   0  0  0  0  0  0  0  0  0  0  0  0
   26.0192  -21.2966  -16.4940 C   0  0  2  0  0  0  0  0  0  0  0  0
   26.0599  -21.6096  -15.1097 N   0  0  0  0  0  0  0  0  0  0  0  0
   24.9769  -20.2725  -16.8343 C   0  0  0  0  0  0  0  0  0  0  0  0
   24.7235  -19.9540  -18.0184 O   0  0  0  0  0  0  0  0  0  0  0  0
   21.4797  -20.5954  -16.5542 N   0  0  0  0  0  0  0  0  0  0  0  0
   21.2146  -19.8282  -15.3964 C   0  0  0  0  0  0  0  0  0  0  0  0
   20.1954  -20.1507  -14.6987 O   0  0  0  0  0  0  0  0  0  0  0  0
   22.1102  -18.7159  -15.0525 C   0  0  0  0  0  0  0  0  0  0  0  0
   23.2824  -18.6019  -15.9572 C   0  0  2  0  0  0  0  0  0  0  0  0
   24.2621  -19.6533  -15.7863 N   0  0  0  0  0  0  0  0  0  0  0  0
   23.9584  -17.3032  -15.7607 C   0  0  0  0  0  0  0  0  0  0  0  0
   24.4966  -17.0254  -14.6338 O   0  0  0  0  0  0  0  0  0  0  0  0
   24.0767  -16.2883  -16.7401 N   0  0  0  0  0  0  0  0  0  0  0  0
   24.9688  -15.1345  -16.5435 C   0  0  1  0  0  0  0  0  0  0  0  0
   26.3305  -15.7184  -16.2492 C   0  0  0  0  0  0  0  0  0  0  0  0
   27.3439  -14.6704  -16.1811 C   0  0  0  0  0  0  0  0  0  0  0  0
   27.5501  -13.9794  -15.0119 C   0  0  0  0  0  0  0  0  0  0  0  0
   28.4918  -12.9944  -14.9487 C   0  0  0  0  0  0  0  0  0  0  0  0
   29.2482  -12.6763  -16.0489 C   0  0  0  0  0  0  0  0  0  0  0  0
   29.0500  -13.3661  -17.2355 C   0  0  0  0  0  0  0  0  0  0  0  0
   28.0929  -14.3634  -17.2904 C   0  0  0  0  0  0  0  0  0  0  0  0
   25.0430  -14.3039  -17.7536 C   0  0  0  0  0  0  0  0  0  0  0  0
   25.0474  -14.8776  -19.0088 O   0  0  0  0  0  0  0  0  0  0  0  0
   25.1069  -13.0356  -17.7023 O   0  0  0  0  0  0  0  0  0  0  0  0
  2  1  1  6
  2  4  1  0
  3  2  1  0
  5  7  1  0
  5  4  1  0
  5  6  1  1
  7  8  2  0
  9 10  1  0
 10 12  1  0
 11 10  2  0
 13 12  1  1
 14 13  1  0
 14  7  1  0
 15 16  2  0
 15 13  1  0
 17 15  1  0
 18 26  1  0
 18 17  1  0
 18 19  1  6
 20 19  1  0
 21 20  2  0
 22 21  1  0
 23 22  2  0
 23 24  1  0
 24 25  2  0
 25 20  1  0
 26 27  1  0
 28 26  2  0
M  END
$$$$
