LNF.pdb
     RDKit          3D

 28 28  0  0  1  0  0  0  0  0999 V2000
   27.9152  -15.6546  -16.9950 C   0  0  0  0  0  0  0  0  0  0  0  0
   27.9643  -17.1644  -16.7071 C   0  0  1  0  0  0  0  0  0  0  0  0
   29.4252  -17.5343  -16.7296 C   0  0  0  0  0  0  0  0  0  0  0  0
   27.2907  -17.3472  -15.3890 C   0  0  0  0  0  0  0  0  0  0  0  0
   27.5845  -18.6350  -14.6838 C   0  0  2  0  0  0  0  0  0  0  0  0
   27.5572  -19.8069  -15.4849 N   0  0  0  0  0  0  0  0  0  0  0  0
   26.7751  -18.7636  -13.4272 C   0  0  0  0  0  0  0  0  0  0  0  0
   26.5904  -17.7941  -12.6565 O   0  0  0  0  0  0  0  0  0  0  0  0
   23.1380  -20.5255  -10.2952 N   0  0  0  0  0  0  0  0  0  0  0  0
   23.0890  -21.3280  -11.4584 C   0  0  0  0  0  0  0  0  0  0  0  0
   22.0816  -22.0995  -11.5977 O   0  0  0  0  0  0  0  0  0  0  0  0
   24.1790  -21.2373  -12.4388 C   0  0  0  0  0  0  0  0  0  0  0  0
   25.2163  -20.2385  -12.0757 C   0  0  2  0  0  0  0  0  0  0  0  0
   26.2053  -20.0151  -13.1085 N   0  0  0  0  0  0  0  0  0  0  0  0
   25.9191  -20.6525  -10.8440 C   0  0  0  0  0  0  0  0  0  0  0  0
   26.6430  -21.7074  -10.8436 O   0  0  0  0  0  0  0  0  0  0  0  0
   25.8704  -19.9668   -9.6069 N   0  0  0  0  0  0  0  0  0  0  0  0
   26.5815  -20.4730   -8.4221 C   0  0  1  0  0  0  0  0  0  0  0  0
   27.2751  -19.2735   -7.8204 C   0  0  0  0  0  0  0  0  0  0  0  0
   27.9359  -19.6268   -6.5681 C   0  0  0  0  0  0  0  0  0  0  0  0
   29.0303  -20.4570   -6.5710 C   0  0  0  0  0  0  0  0  0  0  0  0
   29.6446  -20.7942   -5.4006 C   0  0  0  0  0  0  0  0  0  0  0  0
   29.1818  -20.3119   -4.2020 C   0  0  0  0  0  0  0  0  0  0  0  0
   28.0777  -19.4729   -4.1848 C   0  0  0  0  0  0  0  0  0  0  0  0
   27.4611  -19.1363   -5.3766 C   0  0  0  0  0  0  0  0  0  0  0  0
   25.6473  -21.0420   -7.4406 C   0  0  0  0  0  0  0  0  0  0  0  0
   26.0841  -21.9258   -6.4749 O   0  0  0  0  0  0  0  0  0  0  0  0
   24.4099  -20.7522   -7.4355 O   0  0  0  0  0  0  0  0  0  0  0  0
  2  1  1  1
  2  4  1  0
  3  2  1  0
  5  7  1  0
  5  4  1  0
  5  6  1  6
  7  8  2  0
  9 10  1  0
 10 12  1  0
 11 10  2  0
 13 12  1  6
 14 13  1  0
 14  7  1  0
 15 16  2  0
 15 13  1  0
 17 15  1  0
 18 26  1  0
 18 17  1  0
 18 19  1  1
 20 19  1  0
 21 20  2  0
 22 21  1  0
 23 22  2  0
 23 24  1  0
 24 25  2  0
 25 20  1  0
 26 27  1  0
 28 26  2  0
M  END
$$$$
