LNF.pdb
     RDKit          3D

 28 28  0  0  1  0  0  0  0  0999 V2000
    7.1463  -18.2316   -1.0696 C   0  0  0  0  0  0  0  0  0  0  0  0
    8.4819  -18.1710   -1.8295 C   0  0  1  0  0  0  0  0  0  0  0  0
    9.0755  -16.8255   -1.4995 C   0  0  0  0  0  0  0  0  0  0  0  0
    9.2734  -19.3407   -1.3505 C   0  0  0  0  0  0  0  0  0  0  0  0
   10.5764  -19.5725   -2.0510 C   0  0  2  0  0  0  0  0  0  0  0  0
   10.5028  -19.7928   -3.4517 N   0  0  0  0  0  0  0  0  0  0  0  0
   11.4018  -20.6021   -1.3370 C   0  0  0  0  0  0  0  0  0  0  0  0
   11.0672  -21.8081   -1.2982 O   0  0  0  0  0  0  0  0  0  0  0  0
   16.0717  -23.1834   -0.5297 N   0  0  0  0  0  0  0  0  0  0  0  0
   15.8375  -21.9348    0.0912 C   0  0  0  0  0  0  0  0  0  0  0  0
   16.4524  -21.6980    1.1846 O   0  0  0  0  0  0  0  0  0  0  0  0
   14.9158  -20.9814   -0.5403 C   0  0  0  0  0  0  0  0  0  0  0  0
   13.5234  -21.0848   -0.0343 C   0  0  2  0  0  0  0  0  0  0  0  0
   12.5903  -20.1959   -0.6929 N   0  0  0  0  0  0  0  0  0  0  0  0
   13.4821  -20.8068    1.4160 C   0  0  0  0  0  0  0  0  0  0  0  0
   13.4176  -19.5997    1.8350 O   0  0  0  0  0  0  0  0  0  0  0  0
   13.5069  -21.7876    2.4360 N   0  0  0  0  0  0  0  0  0  0  0  0
   13.4511  -21.4148    3.8585 C   0  0  1  0  0  0  0  0  0  0  0  0
   12.2410  -22.1250    4.4181 C   0  0  0  0  0  0  0  0  0  0  0  0
   12.5288  -23.5353    4.6591 C   0  0  0  0  0  0  0  0  0  0  0  0
   12.2200  -24.4787    3.7096 C   0  0  0  0  0  0  0  0  0  0  0  0
   12.4816  -25.7982    3.9363 C   0  0  0  0  0  0  0  0  0  0  0  0
   13.0562  -26.2064    5.1139 C   0  0  0  0  0  0  0  0  0  0  0  0
   13.3728  -25.2643    6.0810 C   0  0  0  0  0  0  0  0  0  0  0  0
   13.1040  -23.9284    5.8424 C   0  0  0  0  0  0  0  0  0  0  0  0
   14.6547  -21.8591    4.5752 C   0  0  0  0  0  0  0  0  0  0  0  0
   14.8837  -21.4784    5.8818 O   0  0  0  0  0  0  0  0  0  0  0  0
   15.5303  -22.6038    4.0329 O   0  0  0  0  0  0  0  0  0  0  0  0
  2  1  1  1
  2  4  1  0
  3  2  1  0
  5  7  1  0
  5  4  1  0
  5  6  1  6
  7  8  2  0
  9 10  1  0
 10 12  1  0
 11 10  2  0
 13 12  1  6
 14 13  1  0
 14  7  1  0
 15 16  2  0
 15 13  1  0
 17 15  1  0
 18 26  1  0
 18 17  1  0
 18 19  1  1
 20 19  1  0
 21 20  2  0
 22 21  1  0
 23 22  2  0
 23 24  1  0
 24 25  2  0
 25 20  1  0
 26 27  1  0
 28 26  2  0
M  END
$$$$
