SRT.pdb
     RDKit          3D

 25 24  0  0  1  0  0  0  0  0999 V2000
   28.2353  -19.5398  -17.9413 O   0  0  0  0  0  0  0  0  0  0  0  0
   27.1766  -20.1474  -17.2891 C   0  0  0  0  0  0  0  0  0  0  0  0
   27.6586  -21.3126  -16.4180 C   0  0  2  0  0  0  0  0  0  0  0  0
   27.8539  -22.4503  -17.2897 N   0  0  0  0  0  0  0  0  0  0  0  0
   26.5688  -21.5673  -15.4401 C   0  0  0  0  0  0  0  0  0  0  0  0
   25.6034  -22.2851  -15.7977 O   0  0  0  0  0  0  0  0  0  0  0  0
   22.4389  -20.2431   -9.1666 N   0  0  0  0  0  0  0  0  0  0  0  0
   23.2223  -20.9644   -8.2507 C   0  0  0  0  0  0  0  0  0  0  0  0
   22.6379  -21.4949   -7.2298 N   0  0  0  0  0  0  0  0  0  0  0  0
   24.6182  -21.1084   -8.4386 N   0  0  0  0  0  0  0  0  0  0  0  0
   25.2950  -20.4214   -9.5056 C   0  0  0  0  0  0  0  0  0  0  0  0
   24.7109  -20.7521  -10.8625 C   0  0  0  0  0  0  0  0  0  0  0  0
   25.8221  -20.8095  -11.8472 C   0  0  0  0  0  0  0  0  0  0  0  0
   25.4061  -21.0856  -13.2561 C   0  0  2  0  0  0  0  0  0  0  0  0
   26.5696  -21.0360  -14.1199 N   0  0  0  0  0  0  0  0  0  0  0  0
   24.3226  -20.1992  -13.7335 C   0  0  0  0  0  0  0  0  0  0  0  0
   24.4053  -18.9408  -13.7247 O   0  0  0  0  0  0  0  0  0  0  0  0
   23.1854  -22.0933   -6.5818 C   0  0  0  0  0  0  0  0  0  0  0  0
   22.5035  -20.1474  -17.0317 C   0  0  2  0  0  0  0  0  0  0  0  0
   21.4362  -20.4092  -15.9838 O   0  0  0  0  0  0  0  0  0  0  0  0
   21.0532  -21.7478  -15.9845 C   0  0  2  0  0  0  0  0  0  0  0  0
   21.9767  -19.9911  -14.6283 N   0  0  0  0  0  0  0  0  0  0  0  0
   23.1215  -20.7753  -14.2302 C   0  0  0  0  0  0  0  0  0  0  0  0
   20.9238  -19.9376  -13.6011 O   0  0  0  0  0  0  0  0  0  0  0  0
   20.8912  -20.6199  -12.5569 O   0  0  0  0  0  0  0  0  0  0  0  0
  1  2  1  0
  3  2  1  0
  3  4  1  6
  5  3  1  0
  5  6  2  0
  7  8  1  0
  8  9  2  0
  8 10  1  0
 10 11  1  0
 11 12  1  0
 12 13  1  0
 14 13  1  1
 14 15  1  0
 15  5  1  0
 16 17  2  0
 16 14  1  0
 19 18  1  6
 19 21  1  0
 20 19  1  0
 21 22  1  1
 21 23  1  0
 22 16  1  0
 23 24  2  0
 23 25  1  0
M  END
$$$$
