SRT.pdb
     RDKit          3D

 25 24  0  0  1  0  0  0  0  0999 V2000
   27.9505  -20.4338  -10.9984 O   0  0  0  0  0  0  0  0  0  0  0  0
   27.1423  -19.4989  -10.3756 C   0  0  0  0  0  0  0  0  0  0  0  0
   25.7064  -20.0155  -10.2340 C   0  0  2  0  0  0  0  0  0  0  0  0
   25.7060  -21.0031   -9.1771 N   0  0  0  0  0  0  0  0  0  0  0  0
   25.3645  -20.6308  -11.5429 C   0  0  0  0  0  0  0  0  0  0  0  0
   25.1785  -21.8711  -11.5875 O   0  0  0  0  0  0  0  0  0  0  0  0
   22.5785  -25.0893  -15.8723 N   0  0  0  0  0  0  0  0  0  0  0  0
   22.3811  -24.9404  -14.4897 C   0  0  0  0  0  0  0  0  0  0  0  0
   22.5741  -25.9655  -13.7299 N   0  0  0  0  0  0  0  0  0  0  0  0
   21.9805  -23.6992  -13.9388 N   0  0  0  0  0  0  0  0  0  0  0  0
   21.7700  -22.5512  -14.7794 C   0  0  0  0  0  0  0  0  0  0  0  0
   23.0632  -21.8363  -15.1087 C   0  0  0  0  0  0  0  0  0  0  0  0
   23.5919  -21.2297  -13.8596 C   0  0  0  0  0  0  0  0  0  0  0  0
   24.8800  -20.4868  -14.0123 C   0  0  2  0  0  0  0  0  0  0  0  0
   25.2387  -19.8800  -12.7453 N   0  0  0  0  0  0  0  0  0  0  0  0
   24.8624  -19.5005  -15.1144 C   0  0  0  0  0  0  0  0  0  0  0  0
   24.1906  -18.4338  -15.0761 O   0  0  0  0  0  0  0  0  0  0  0  0
   22.4520  -25.8705  -12.7033 C   0  0  0  0  0  0  0  0  0  0  0  0
   27.4676  -17.7931  -18.9287 C   0  0  2  0  0  0  0  0  0  0  0  0
   27.2452  -18.9348  -17.9525 O   0  0  0  0  0  0  0  0  0  0  0  0
   28.2713  -18.9962  -17.0136 C   0  0  1  0  0  0  0  0  0  0  0  0
   25.8963  -18.7430  -17.2835 N   0  0  0  0  0  0  0  0  0  0  0  0
   25.6342  -19.7493  -16.2821 C   0  0  0  0  0  0  0  0  0  0  0  0
   24.8052  -18.5981  -18.2608 O   0  0  0  0  0  0  0  0  0  0  0  0
   24.1115  -19.5283  -18.7195 O   0  0  0  0  0  0  0  0  0  0  0  0
  1  2  1  0
  3  2  1  0
  3  4  1  1
  5  3  1  0
  5  6  2  0
  7  8  1  0
  8  9  2  0
  8 10  1  0
 10 11  1  0
 11 12  1  0
 12 13  1  0
 14 13  1  1
 14 15  1  0
 15  5  1  0
 16 17  2  0
 16 14  1  0
 19 18  1  6
 19 21  1  0
 20 19  1  0
 21 22  1  6
 21 23  1  0
 22 16  1  0
 23 24  2  0
 23 25  1  0
M  END
$$$$
