SRT.pdb
     RDKit          3D

 25 24  0  0  1  0  0  0  0  0999 V2000
   15.3709  -25.7924   -4.3476 O   0  0  0  0  0  0  0  0  0  0  0  0
   16.0315  -26.1030   -5.5234 C   0  0  0  0  0  0  0  0  0  0  0  0
   17.5198  -26.3662   -5.2690 C   0  0  2  0  0  0  0  0  0  0  0  0
   17.9286  -25.5089   -4.1780 N   0  0  0  0  0  0  0  0  0  0  0  0
   18.2186  -26.0010   -6.5288 C   0  0  0  0  0  0  0  0  0  0  0  0
   19.1409  -25.1516   -6.4735 O   0  0  0  0  0  0  0  0  0  0  0  0
   21.2541  -31.1272  -12.6714 N   0  0  0  0  0  0  0  0  0  0  0  0
   21.5710  -29.8584  -13.1837 C   0  0  0  0  0  0  0  0  0  0  0  0
   22.3440  -29.7901  -14.2147 N   0  0  0  0  0  0  0  0  0  0  0  0
   21.0578  -28.6813  -12.5874 N   0  0  0  0  0  0  0  0  0  0  0  0
   20.2758  -28.7441  -11.3818 C   0  0  0  0  0  0  0  0  0  0  0  0
   19.8790  -27.3709  -10.8831 C   0  0  0  0  0  0  0  0  0  0  0  0
   19.0931  -27.5378   -9.6332 C   0  0  0  0  0  0  0  0  0  0  0  0
   18.6301  -26.2646   -9.0015 C   0  0  2  0  0  0  0  0  0  0  0  0
   17.8909  -26.5687   -7.7919 N   0  0  0  0  0  0  0  0  0  0  0  0
   17.8588  -25.3993   -9.9202 C   0  0  0  0  0  0  0  0  0  0  0  0
   16.6903  -25.6723  -10.3084 O   0  0  0  0  0  0  0  0  0  0  0  0
   22.5965  -28.8609  -14.6031 C   0  0  0  0  0  0  0  0  0  0  0  0
   17.0201  -21.7067   -9.5873 C   0  0  2  0  0  0  0  0  0  0  0  0
   17.8475  -21.8547  -10.8519 O   0  0  0  0  0  0  0  0  0  0  0  0
   19.1644  -21.4575  -10.6365 C   0  0  2  0  0  0  0  0  0  0  0  0
   17.7754  -23.2999  -11.3105 N   0  0  0  0  0  0  0  0  0  0  0  0
   18.4464  -24.1969  -10.3999 C   0  0  0  0  0  0  0  0  0  0  0  0
   18.2055  -23.4628  -12.7087 O   0  0  0  0  0  0  0  0  0  0  0  0
   19.0980  -24.2373  -13.1095 O   0  0  0  0  0  0  0  0  0  0  0  0
  1  2  1  0
  3  2  1  0
  3  4  1  1
  5  3  1  0
  5  6  2  0
  7  8  1  0
  8  9  2  0
  8 10  1  0
 10 11  1  0
 11 12  1  0
 12 13  1  0
 14 13  1  6
 14 15  1  0
 15  5  1  0
 16 17  2  0
 16 14  1  0
 19 18  1  6
 19 21  1  0
 20 19  1  0
 21 22  1  6
 21 23  1  0
 22 16  1  0
 23 24  2  0
 23 25  1  0
M  END
$$$$
