SRT.pdb
     RDKit          3D

 25 24  0  0  1  0  0  0  0  0999 V2000
   21.4373  -12.5134  -16.3880 O   0  0  0  0  0  0  0  0  0  0  0  0
   20.7966  -11.3167  -16.1183 C   0  0  0  0  0  0  0  0  0  0  0  0
   19.3492  -11.5521  -15.6730 C   0  0  2  0  0  0  0  0  0  0  0  0
   18.5957  -11.9413  -16.8448 N   0  0  0  0  0  0  0  0  0  0  0  0
   18.8720  -10.2509  -15.1364 C   0  0  0  0  0  0  0  0  0  0  0  0
   18.4858   -9.3768  -15.9500 O   0  0  0  0  0  0  0  0  0  0  0  0
   14.3704   -8.1256   -8.0213 N   0  0  0  0  0  0  0  0  0  0  0  0
   14.7003   -6.8733   -8.5654 C   0  0  0  0  0  0  0  0  0  0  0  0
   14.1001   -5.8283   -8.1042 N   0  0  0  0  0  0  0  0  0  0  0  0
   15.6662   -6.7557   -9.5939 N   0  0  0  0  0  0  0  0  0  0  0  0
   16.1760   -7.9208  -10.2656 C   0  0  0  0  0  0  0  0  0  0  0  0
   17.1043   -7.5647  -11.4073 C   0  0  0  0  0  0  0  0  0  0  0  0
   17.5937   -8.8262  -12.0212 C   0  0  0  0  0  0  0  0  0  0  0  0
   18.4455   -8.6499  -13.2368 C   0  0  2  0  0  0  0  0  0  0  0  0
   18.8327   -9.9511  -13.7458 N   0  0  0  0  0  0  0  0  0  0  0  0
   19.6143   -7.7716  -13.0132 C   0  0  0  0  0  0  0  0  0  0  0  0
   20.5215   -8.0288  -12.1756 O   0  0  0  0  0  0  0  0  0  0  0  0
   14.3184   -4.8956   -8.5045 C   0  0  0  0  0  0  0  0  0  0  0  0
   22.3544   -7.2073  -14.9649 C   0  0  2  0  0  0  0  0  0  0  0  0
   21.7817   -5.8025  -14.9012 O   0  0  0  0  0  0  0  0  0  0  0  0
   21.0862   -5.4933  -16.0671 C   0  0  2  0  0  0  0  0  0  0  0  0
   20.8848   -5.7009  -13.6808 N   0  0  0  0  0  0  0  0  0  0  0  0
   19.7389   -6.5744  -13.7698 C   0  0  0  0  0  0  0  0  0  0  0  0
   20.5301   -4.3079  -13.3645 O   0  0  0  0  0  0  0  0  0  0  0  0
   19.3739   -3.8389  -13.3423 O   0  0  0  0  0  0  0  0  0  0  0  0
  1  2  1  0
  3  2  1  0
  3  4  1  6
  5  3  1  0
  5  6  2  0
  7  8  1  0
  8  9  2  0
  8 10  1  0
 10 11  1  0
 11 12  1  0
 12 13  1  0
 14 13  1  1
 14 15  1  0
 15  5  1  0
 16 17  2  0
 16 14  1  0
 19 18  1  6
 19 21  1  0
 20 19  1  0
 21 22  1  1
 21 23  1  0
 22 16  1  0
 23 24  2  0
 23 25  1  0
M  END
$$$$
