SRT.pdb
     RDKit          3D

 25 24  0  0  1  0  0  0  0  0999 V2000
   16.9898  -24.1813  -14.0928 O   0  0  0  0  0  0  0  0  0  0  0  0
   17.4398  -22.9410  -13.6750 C   0  0  0  0  0  0  0  0  0  0  0  0
   18.9521  -22.9559  -13.4268 C   0  0  2  0  0  0  0  0  0  0  0  0
   19.5789  -23.4888  -14.6166 N   0  0  0  0  0  0  0  0  0  0  0  0
   19.1642  -23.8534  -12.2613 C   0  0  0  0  0  0  0  0  0  0  0  0
   20.2052  -24.5537  -12.2305 O   0  0  0  0  0  0  0  0  0  0  0  0
   18.5664  -24.9519   -4.8236 N   0  0  0  0  0  0  0  0  0  0  0  0
   17.4165  -25.7400   -4.6516 C   0  0  0  0  0  0  0  0  0  0  0  0
   17.3049  -26.4316   -3.5679 N   0  0  0  0  0  0  0  0  0  0  0  0
   16.4030  -25.7779   -5.6395 N   0  0  0  0  0  0  0  0  0  0  0  0
   16.4720  -24.9336   -6.8018 C   0  0  0  0  0  0  0  0  0  0  0  0
   17.5495  -25.3757   -7.7690 C   0  0  0  0  0  0  0  0  0  0  0  0
   17.5073  -24.4814   -8.9548 C   0  0  0  0  0  0  0  0  0  0  0  0
   18.4559  -24.8406  -10.0528 C   0  0  2  0  0  0  0  0  0  0  0  0
   18.2434  -23.9551  -11.1811 N   0  0  0  0  0  0  0  0  0  0  0  0
   18.3883  -26.2650  -10.4453 C   0  0  0  0  0  0  0  0  0  0  0  0
   17.4299  -26.7560  -11.1017 O   0  0  0  0  0  0  0  0  0  0  0  0
   16.4508  -27.0005   -3.4108 C   0  0  0  0  0  0  0  0  0  0  0  0
   20.9778  -28.4057  -12.2400 C   0  0  2  0  0  0  0  0  0  0  0  0
   20.7415  -29.0631  -10.8918 O   0  0  0  0  0  0  0  0  0  0  0  0
   21.7939  -28.8034  -10.0181 C   0  0  2  0  0  0  0  0  0  0  0  0
   19.4235  -28.5592  -10.3325 N   0  0  0  0  0  0  0  0  0  0  0  0
   19.4461  -27.1391  -10.0737 C   0  0  0  0  0  0  0  0  0  0  0  0
   18.9677  -29.3525   -9.1795 O   0  0  0  0  0  0  0  0  0  0  0  0
   18.7561  -28.9117   -8.0315 O   0  0  0  0  0  0  0  0  0  0  0  0
  1  2  1  0
  3  2  1  0
  3  4  1  6
  5  3  1  0
  5  6  2  0
  7  8  1  0
  8  9  2  0
  8 10  1  0
 10 11  1  0
 11 12  1  0
 12 13  1  0
 14 13  1  1
 14 15  1  0
 15  5  1  0
 16 17  2  0
 16 14  1  0
 19 18  1  6
 19 21  1  0
 20 19  1  0
 21 22  1  1
 21 23  1  0
 22 16  1  0
 23 24  2  0
 23 25  1  0
M  END
$$$$
