SRT.pdb
     RDKit          3D

 25 24  0  0  1  0  0  0  0  0999 V2000
   19.9448  -21.7930  -13.1838 O   0  0  0  0  0  0  0  0  0  0  0  0
   19.1851  -22.7684  -12.5617 C   0  0  0  0  0  0  0  0  0  0  0  0
   19.3230  -24.1169  -13.2768 C   0  0  2  0  0  0  0  0  0  0  0  0
   18.3838  -24.1193  -14.3770 N   0  0  0  0  0  0  0  0  0  0  0  0
   18.9700  -25.1500  -12.2683 C   0  0  0  0  0  0  0  0  0  0  0  0
   17.7599  -25.3065  -11.9745 O   0  0  0  0  0  0  0  0  0  0  0  0
   23.3780  -32.1303  -10.2520 N   0  0  0  0  0  0  0  0  0  0  0  0
   22.0766  -32.1647  -10.7793 C   0  0  0  0  0  0  0  0  0  0  0  0
   21.7505  -33.1544  -11.5403 N   0  0  0  0  0  0  0  0  0  0  0  0
   21.1428  -31.1416  -10.4862 N   0  0  0  0  0  0  0  0  0  0  0  0
   21.4801  -30.0675   -9.5911 C   0  0  0  0  0  0  0  0  0  0  0  0
   20.3762  -29.0365   -9.4902 C   0  0  0  0  0  0  0  0  0  0  0  0
   20.5956  -28.0135  -10.5453 C   0  0  0  0  0  0  0  0  0  0  0  0
   19.5951  -26.9032  -10.5686 C   0  0  2  0  0  0  0  0  0  0  0  0
   19.9386  -25.9680  -11.6220 N   0  0  0  0  0  0  0  0  0  0  0  0
   19.4326  -26.2309   -9.2612 C   0  0  0  0  0  0  0  0  0  0  0  0
   20.3524  -25.5720   -8.7042 O   0  0  0  0  0  0  0  0  0  0  0  0
   20.7953  -33.1942  -11.9453 C   0  0  0  0  0  0  0  0  0  0  0  0
   17.2284  -23.5709   -8.3756 C   0  0  2  0  0  0  0  0  0  0  0  0
   16.8138  -24.6578   -7.3996 O   0  0  0  0  0  0  0  0  0  0  0  0
   15.6145  -25.2480   -7.7891 C   0  0  2  0  0  0  0  0  0  0  0  0
   17.9304  -25.6825   -7.3144 N   0  0  0  0  0  0  0  0  0  0  0  0
   18.1858  -26.3204   -8.5840 C   0  0  0  0  0  0  0  0  0  0  0  0
   17.7260  -26.6391   -6.2145 O   0  0  0  0  0  0  0  0  0  0  0  0
   17.6671  -26.3512   -5.0018 O   0  0  0  0  0  0  0  0  0  0  0  0
  1  2  1  0
  3  2  1  0
  3  4  1  6
  5  3  1  0
  5  6  2  0
  7  8  1  0
  8  9  2  0
  8 10  1  0
 10 11  1  0
 11 12  1  0
 12 13  1  0
 14 13  1  1
 14 15  1  0
 15  5  1  0
 16 17  2  0
 16 14  1  0
 19 18  1  1
 19 21  1  0
 20 19  1  0
 21 22  1  1
 21 23  1  0
 22 16  1  0
 23 24  2  0
 23 25  1  0
M  END
$$$$
