SRT.pdb
     RDKit          3D

 25 24  0  0  1  0  0  0  0  0999 V2000
   28.7283  -22.3930  -18.4410 O   0  0  0  0  0  0  0  0  0  0  0  0
   27.6891  -21.8326  -17.7188 C   0  0  0  0  0  0  0  0  0  0  0  0
   28.2050  -21.1433  -16.4510 C   0  0  2  0  0  0  0  0  0  0  0  0
   28.7932  -22.1656  -15.6135 N   0  0  0  0  0  0  0  0  0  0  0  0
   27.0120  -20.5394  -15.8021 C   0  0  0  0  0  0  0  0  0  0  0  0
   26.6590  -20.9768  -14.6800 O   0  0  0  0  0  0  0  0  0  0  0  0
   24.2848  -12.6287  -16.9715 N   0  0  0  0  0  0  0  0  0  0  0  0
   25.2788  -13.3202  -16.2597 C   0  0  0  0  0  0  0  0  0  0  0  0
   26.3887  -12.7111  -16.0101 N   0  0  0  0  0  0  0  0  0  0  0  0
   25.0727  -14.6518  -15.8250 N   0  0  0  0  0  0  0  0  0  0  0  0
   23.8289  -15.3279  -16.0787 C   0  0  0  0  0  0  0  0  0  0  0  0
   23.8267  -16.7446  -15.5451 C   0  0  0  0  0  0  0  0  0  0  0  0
   24.9497  -17.4832  -16.1784 C   0  0  0  0  0  0  0  0  0  0  0  0
   25.0905  -18.9088  -15.7516 C   0  0  2  0  0  0  0  0  0  0  0  0
   26.2534  -19.4905  -16.3932 N   0  0  0  0  0  0  0  0  0  0  0  0
   23.8707  -19.7137  -15.9792 C   0  0  0  0  0  0  0  0  0  0  0  0
   23.5482  -20.1752  -17.1077 O   0  0  0  0  0  0  0  0  0  0  0  0
   27.1394  -13.2088  -15.4937 C   0  0  0  0  0  0  0  0  0  0  0  0
   20.4904  -22.6947  -14.1429 C   0  0  2  0  0  0  0  0  0  0  0  0
   21.7164  -21.8347  -13.8917 O   0  0  0  0  0  0  0  0  0  0  0  0
   22.8669  -22.6151  -13.8154 C   0  0  1  0  0  0  0  0  0  0  0  0
   21.8209  -20.8057  -15.0027 N   0  0  0  0  0  0  0  0  0  0  0  0
   23.0071  -19.9914  -14.8845 C   0  0  0  0  0  0  0  0  0  0  0  0
   20.5870  -20.0166  -15.1492 O   0  0  0  0  0  0  0  0  0  0  0  0
   20.4333  -18.8329  -14.7857 O   0  0  0  0  0  0  0  0  0  0  0  0
  1  2  1  0
  3  2  1  0
  3  4  1  1
  5  3  1  0
  5  6  2  0
  7  8  1  0
  8  9  2  0
  8 10  1  0
 10 11  1  0
 11 12  1  0
 12 13  1  0
 14 13  1  6
 14 15  1  0
 15  5  1  0
 16 17  2  0
 16 14  1  0
 19 18  1  1
 19 21  1  0
 20 19  1  0
 21 22  1  1
 21 23  1  0
 22 16  1  0
 23 24  2  0
 23 25  1  0
M  END
$$$$
