SRT.pdb
     RDKit          3D

 25 24  0  0  1  0  0  0  0  0999 V2000
   28.2102  -23.5230  -19.3963 O   0  0  0  0  0  0  0  0  0  0  0  0
   27.0853  -23.1665  -18.6731 C   0  0  0  0  0  0  0  0  0  0  0  0
   26.7716  -21.6754  -18.8372 C   0  0  2  0  0  0  0  0  0  0  0  0
   27.9910  -20.9461  -18.5661 N   0  0  0  0  0  0  0  0  0  0  0  0
   25.7261  -21.3662  -17.8271 C   0  0  0  0  0  0  0  0  0  0  0  0
   24.6487  -22.0085  -17.8693 O   0  0  0  0  0  0  0  0  0  0  0  0
   26.3983  -22.0192  -11.5464 N   0  0  0  0  0  0  0  0  0  0  0  0
   26.0825  -20.8154  -10.8953 C   0  0  0  0  0  0  0  0  0  0  0  0
   25.5102  -20.8759   -9.7404 N   0  0  0  0  0  0  0  0  0  0  0  0
   26.3826  -19.5647  -11.4873 N   0  0  0  0  0  0  0  0  0  0  0  0
   27.1133  -19.4887  -12.7238 C   0  0  0  0  0  0  0  0  0  0  0  0
   26.4926  -20.3408  -13.8103 C   0  0  0  0  0  0  0  0  0  0  0  0
   25.5761  -19.4851  -14.6076 C   0  0  0  0  0  0  0  0  0  0  0  0
   24.9169  -20.1678  -15.7625 C   0  0  2  0  0  0  0  0  0  0  0  0
   25.8900  -20.3776  -16.8167 N   0  0  0  0  0  0  0  0  0  0  0  0
   23.7121  -19.4631  -16.2521 C   0  0  0  0  0  0  0  0  0  0  0  0
   23.7537  -18.3413  -16.8267 O   0  0  0  0  0  0  0  0  0  0  0  0
   25.2832  -19.9972   -9.2361 C   0  0  0  0  0  0  0  0  0  0  0  0
   21.4407  -19.9522  -18.8375 C   0  0  2  0  0  0  0  0  0  0  0  0
   20.5298  -20.0831  -17.6296 O   0  0  0  0  0  0  0  0  0  0  0  0
   20.2445  -21.4192  -17.3617 C   0  0  2  0  0  0  0  0  0  0  0  0
   21.2005  -19.4140  -16.4436 N   0  0  0  0  0  0  0  0  0  0  0  0
   22.4358  -20.0639  -16.0753 C   0  0  0  0  0  0  0  0  0  0  0  0
   20.2783  -19.2343  -15.3105 O   0  0  0  0  0  0  0  0  0  0  0  0
   20.4554  -19.6661  -14.1533 O   0  0  0  0  0  0  0  0  0  0  0  0
  1  2  1  0
  3  2  1  0
  3  4  1  1
  5  3  1  0
  5  6  2  0
  7  8  1  0
  8  9  2  0
  8 10  1  0
 10 11  1  0
 11 12  1  0
 12 13  1  0
 14 13  1  1
 14 15  1  0
 15  5  1  0
 16 17  2  0
 16 14  1  0
 19 18  1  6
 19 21  1  0
 20 19  1  0
 21 22  1  1
 21 23  1  0
 22 16  1  0
 23 24  2  0
 23 25  1  0
M  END
$$$$
