KLS.pdb
     RDKit          3D

 24 23  0  0  1  0  0  0  0  0999 V2000
    9.7944  -15.7265   20.2363 N   0  0  0  0  0  0  0  0  0  0  0  0
    8.7213  -16.1293   21.1164 C   0  0  1  0  0  0  0  0  0  0  0  0
    8.6860  -17.6470   21.1243 C   0  0  0  0  0  0  0  0  0  0  0  0
    8.2275  -18.1781   19.7942 C   0  0  0  0  0  0  0  0  0  0  0  0
    8.0406  -19.6606   19.8294 C   0  0  0  0  0  0  0  0  0  0  0  0
    7.5510  -20.0947   18.4475 C   0  0  0  0  0  0  0  0  0  0  0  0
    6.1286  -19.7315   18.4098 N   0  0  0  0  0  0  0  0  0  0  0  0
    8.9521  -15.5898   22.4797 C   0  0  0  0  0  0  0  0  0  0  0  0
   10.1365  -15.5930   22.9197 O   0  0  0  0  0  0  0  0  0  0  0  0
    8.2135  -13.1079   27.1139 C   0  0  0  0  0  0  0  0  0  0  0  0
    7.1880  -12.7322   26.0677 C   0  0  2  0  0  0  0  0  0  0  0  0
    5.9300  -12.2532   26.7157 C   0  0  0  0  0  0  0  0  0  0  0  0
    7.0609  -13.6709   24.9380 C   0  0  0  0  0  0  0  0  0  0  0  0
    8.1958  -14.5702   24.6032 C   0  0  2  0  0  0  0  0  0  0  0  0
    7.8804  -15.0903   23.2566 N   0  0  0  0  0  0  0  0  0  0  0  0
    8.4475  -15.6917   25.5206 C   0  0  0  0  0  0  0  0  0  0  0  0
    7.5760  -16.4524   26.0026 O   0  0  0  0  0  0  0  0  0  0  0  0
   12.3069  -17.3516   25.9347 O   0  0  0  0  0  0  0  0  0  0  0  0
   11.1131  -18.0790   26.0661 C   0  0  0  0  0  0  0  0  0  0  0  0
   10.1018  -17.1799   26.7453 C   0  0  2  0  0  0  0  0  0  0  0  0
    9.7885  -16.0181   25.9583 N   0  0  0  0  0  0  0  0  0  0  0  0
   10.4655  -16.8652   28.1295 C   0  0  0  0  0  0  0  0  0  0  0  0
   10.7510  -17.8798   29.0158 O   0  0  0  0  0  0  0  0  0  0  0  0
   10.5191  -15.6811   28.5144 O   0  0  0  0  0  0  0  0  0  0  0  0
  2  1  1  6
  3  2  1  0
  4  3  1  0
  5  6  1  0
  5  4  1  0
  6  7  1  0
  8  9  2  0
  8  2  1  0
 11 10  1  1
 12 11  1  0
 13 11  1  0
 14 13  1  1
 14 15  1  0
 15  8  1  0
 16 14  1  0
 17 16  2  0
 18 19  1  0
 20 19  1  6
 20 21  1  0
 21 16  1  0
 22 20  1  0
 22 23  1  0
 24 22  2  0
M  END
$$$$
