KLS.pdb
     RDKit          3D

 24 23  0  0  1  0  0  0  0  0999 V2000
    8.9221  -16.5431   20.5929 N   0  0  0  0  0  0  0  0  0  0  0  0
    8.2273  -16.8055   21.8327 C   0  0  1  0  0  0  0  0  0  0  0  0
    8.6138  -18.2029   22.2828 C   0  0  0  0  0  0  0  0  0  0  0  0
    8.4855  -19.1841   21.1503 C   0  0  0  0  0  0  0  0  0  0  0  0
    8.6657  -20.5916   21.6198 C   0  0  0  0  0  0  0  0  0  0  0  0
    8.5961  -21.4982   20.3905 C   0  0  0  0  0  0  0  0  0  0  0  0
    8.7716  -22.8621   20.9058 N   0  0  0  0  0  0  0  0  0  0  0  0
    8.6005  -15.7907   22.8494 C   0  0  0  0  0  0  0  0  0  0  0  0
    9.7673  -15.3088   22.7972 O   0  0  0  0  0  0  0  0  0  0  0  0
    5.5962  -12.4699   27.0904 C   0  0  0  0  0  0  0  0  0  0  0  0
    6.8708  -12.6695   26.3010 C   0  0  2  0  0  0  0  0  0  0  0  0
    7.4519  -11.3522   25.9026 C   0  0  0  0  0  0  0  0  0  0  0  0
    6.8256  -13.7335   25.2815 C   0  0  0  0  0  0  0  0  0  0  0  0
    8.0964  -14.2981   24.7569 C   0  0  2  0  0  0  0  0  0  0  0  0
    7.6789  -15.3799   23.8411 N   0  0  0  0  0  0  0  0  0  0  0  0
    9.0469  -14.8267   25.7468 C   0  0  0  0  0  0  0  0  0  0  0  0
    9.5051  -14.1982   26.7294 O   0  0  0  0  0  0  0  0  0  0  0  0
   10.4050  -18.1642   28.5764 O   0  0  0  0  0  0  0  0  0  0  0  0
    9.5645  -17.3284   27.8238 C   0  0  0  0  0  0  0  0  0  0  0  0
   10.3760  -16.7861   26.6663 C   0  0  2  0  0  0  0  0  0  0  0  0
    9.5505  -16.1811   25.6564 N   0  0  0  0  0  0  0  0  0  0  0  0
   11.3245  -17.7674   26.1325 C   0  0  0  0  0  0  0  0  0  0  0  0
   12.2784  -18.3236   26.9554 O   0  0  0  0  0  0  0  0  0  0  0  0
   11.2756  -18.1052   24.9339 O   0  0  0  0  0  0  0  0  0  0  0  0
  2  1  1  6
  3  2  1  0
  4  3  1  0
  5  6  1  0
  5  4  1  0
  6  7  1  0
  8  9  2  0
  8  2  1  0
 11 10  1  6
 12 11  1  0
 13 11  1  0
 14 13  1  1
 14 15  1  0
 15  8  1  0
 16 14  1  0
 17 16  2  0
 18 19  1  0
 20 19  1  1
 20 21  1  0
 21 16  1  0
 22 20  1  0
 22 23  1  0
 24 22  2  0
M  END
$$$$
