KLS.pdb
     RDKit          3D

 24 23  0  0  1  0  0  0  0  0999 V2000
    6.6159  -15.5541   21.7453 N   0  0  0  0  0  0  0  0  0  0  0  0
    7.9802  -15.0776   21.7348 C   0  0  1  0  0  0  0  0  0  0  0  0
    8.0232  -13.8430   20.8524 C   0  0  0  0  0  0  0  0  0  0  0  0
    7.6744  -14.1892   19.4312 C   0  0  0  0  0  0  0  0  0  0  0  0
    8.5497  -13.4663   18.4589 C   0  0  0  0  0  0  0  0  0  0  0  0
    8.1078  -13.8727   17.0528 C   0  0  0  0  0  0  0  0  0  0  0  0
    9.0143  -13.1616   16.1422 N   0  0  0  0  0  0  0  0  0  0  0  0
    8.4207  -14.7658   23.1175 C   0  0  0  0  0  0  0  0  0  0  0  0
    9.6197  -14.4039   23.2842 O   0  0  0  0  0  0  0  0  0  0  0  0
    7.8099  -11.4289   25.7701 C   0  0  0  0  0  0  0  0  0  0  0  0
    6.6756  -12.4273   25.7060 C   0  0  2  0  0  0  0  0  0  0  0  0
    5.3971  -11.7968   26.1530 C   0  0  0  0  0  0  0  0  0  0  0  0
    6.9876  -13.7756   26.2141 C   0  0  0  0  0  0  0  0  0  0  0  0
    8.0533  -14.5764   25.5567 C   0  0  2  0  0  0  0  0  0  0  0  0
    7.5259  -14.8713   24.2083 N   0  0  0  0  0  0  0  0  0  0  0  0
    8.4470  -15.8288   26.2192 C   0  0  0  0  0  0  0  0  0  0  0  0
    8.7649  -15.9499   27.4254 O   0  0  0  0  0  0  0  0  0  0  0  0
    6.7437  -19.1170   25.7239 O   0  0  0  0  0  0  0  0  0  0  0  0
    8.0925  -19.4941   25.6249 C   0  0  0  0  0  0  0  0  0  0  0  0
    8.9309  -18.3184   26.0803 C   0  0  2  0  0  0  0  0  0  0  0  0
    8.4998  -17.0795   25.4916 N   0  0  0  0  0  0  0  0  0  0  0  0
   10.3690  -18.5614   25.9385 C   0  0  0  0  0  0  0  0  0  0  0  0
   10.9452  -19.6611   26.5345 O   0  0  0  0  0  0  0  0  0  0  0  0
   11.0797  -17.7778   25.2797 O   0  0  0  0  0  0  0  0  0  0  0  0
  2  1  1  1
  3  2  1  0
  4  3  1  0
  5  6  1  0
  5  4  1  0
  6  7  1  0
  8  9  2  0
  8  2  1  0
 11 10  1  1
 12 11  1  0
 13 11  1  0
 14 13  1  1
 14 15  1  0
 15  8  1  0
 16 14  1  0
 17 16  2  0
 18 19  1  0
 20 19  1  6
 20 21  1  0
 21 16  1  0
 22 20  1  0
 22 23  1  0
 24 22  2  0
M  END
$$$$
