KLS.pdb
     RDKit          3D

 24 23  0  0  1  0  0  0  0  0999 V2000
    6.6955  -15.1156   21.1755 N   0  0  0  0  0  0  0  0  0  0  0  0
    8.0797  -14.7029   21.2235 C   0  0  1  0  0  0  0  0  0  0  0  0
    8.1549  -13.2990   20.6508 C   0  0  0  0  0  0  0  0  0  0  0  0
    7.5732  -13.2551   19.2647 C   0  0  0  0  0  0  0  0  0  0  0  0
    8.6360  -13.3615   18.2192 C   0  0  0  0  0  0  0  0  0  0  0  0
    7.9377  -13.4502   16.8618 C   0  0  0  0  0  0  0  0  0  0  0  0
    9.0166  -13.6419   15.8841 N   0  0  0  0  0  0  0  0  0  0  0  0
    8.5730  -14.7398   22.6229 C   0  0  0  0  0  0  0  0  0  0  0  0
    9.8179  -14.6315   22.8095 O   0  0  0  0  0  0  0  0  0  0  0  0
    8.3882  -12.0178   26.2413 C   0  0  0  0  0  0  0  0  0  0  0  0
    7.1465  -12.7916   25.8583 C   0  0  2  0  0  0  0  0  0  0  0  0
    5.9319  -12.1641   26.4608 C   0  0  0  0  0  0  0  0  0  0  0  0
    7.2657  -14.2592   25.9311 C   0  0  0  0  0  0  0  0  0  0  0  0
    8.2533  -14.9564   25.0665 C   0  0  2  0  0  0  0  0  0  0  0  0
    7.6772  -14.8911   23.7074 N   0  0  0  0  0  0  0  0  0  0  0  0
    8.5638  -16.3532   25.4061 C   0  0  0  0  0  0  0  0  0  0  0  0
    7.7438  -17.3007   25.4271 O   0  0  0  0  0  0  0  0  0  0  0  0
   12.1723  -18.0642   24.7455 O   0  0  0  0  0  0  0  0  0  0  0  0
   11.0174  -18.8159   25.0147 C   0  0  0  0  0  0  0  0  0  0  0  0
   10.2571  -18.1081   26.1162 C   0  0  2  0  0  0  0  0  0  0  0  0
    9.9077  -16.7598   25.7594 N   0  0  0  0  0  0  0  0  0  0  0  0
   10.9213  -18.2125   27.4183 C   0  0  0  0  0  0  0  0  0  0  0  0
   11.3110  -19.4434   27.8975 O   0  0  0  0  0  0  0  0  0  0  0  0
   11.1380  -17.1921   28.1000 O   0  0  0  0  0  0  0  0  0  0  0  0
  2  1  1  1
  3  2  1  0
  4  3  1  0
  5  6  1  0
  5  4  1  0
  6  7  1  0
  8  9  2  0
  8  2  1  0
 11 10  1  1
 12 11  1  0
 13 11  1  0
 14 13  1  1
 14 15  1  0
 15  8  1  0
 16 14  1  0
 17 16  2  0
 18 19  1  0
 20 19  1  6
 20 21  1  0
 21 16  1  0
 22 20  1  0
 22 23  1  0
 24 22  2  0
M  END
$$$$
