KLS.pdb
     RDKit          3D

 24 23  0  0  1  0  0  0  0  0999 V2000
    6.6959  -16.6486   22.4731 N   0  0  0  0  0  0  0  0  0  0  0  0
    8.0035  -16.1672   22.0897 C   0  0  1  0  0  0  0  0  0  0  0  0
    7.8231  -15.2914   20.8629 C   0  0  0  0  0  0  0  0  0  0  0  0
    7.4142  -16.1154   19.6731 C   0  0  0  0  0  0  0  0  0  0  0  0
    8.3467  -15.9183   18.5217 C   0  0  0  0  0  0  0  0  0  0  0  0
    7.7280  -16.6095   17.3063 C   0  0  0  0  0  0  0  0  0  0  0  0
    8.6494  -16.3362   16.1958 N   0  0  0  0  0  0  0  0  0  0  0  0
    8.6134  -15.4062   23.2085 C   0  0  0  0  0  0  0  0  0  0  0  0
    9.7951  -14.9855   23.0570 O   0  0  0  0  0  0  0  0  0  0  0  0
    7.8115  -11.5252   25.2228 C   0  0  0  0  0  0  0  0  0  0  0  0
    6.8707  -12.5855   25.7503 C   0  0  2  0  0  0  0  0  0  0  0  0
    5.7886  -11.9638   26.5716 C   0  0  0  0  0  0  0  0  0  0  0  0
    7.5166  -13.8013   26.2776 C   0  0  0  0  0  0  0  0  0  0  0  0
    8.5959  -14.4553   25.4924 C   0  0  2  0  0  0  0  0  0  0  0  0
    7.8933  -15.1625   24.4017 N   0  0  0  0  0  0  0  0  0  0  0  0
    9.4648  -15.3970   26.2140 C   0  0  0  0  0  0  0  0  0  0  0  0
   10.0428  -15.1718   27.3029 O   0  0  0  0  0  0  0  0  0  0  0  0
   10.3086  -19.6498   27.7900 O   0  0  0  0  0  0  0  0  0  0  0  0
    9.5141  -18.7177   27.1033 C   0  0  0  0  0  0  0  0  0  0  0  0
   10.4446  -17.7302   26.4315 C   0  0  2  0  0  0  0  0  0  0  0  0
    9.7317  -16.7220   25.6949 N   0  0  0  0  0  0  0  0  0  0  0  0
   11.4972  -18.3867   25.6513 C   0  0  0  0  0  0  0  0  0  0  0  0
   12.3678  -19.2600   26.2644 O   0  0  0  0  0  0  0  0  0  0  0  0
   11.6125  -18.1608   24.4312 O   0  0  0  0  0  0  0  0  0  0  0  0
  2  1  1  1
  3  2  1  0
  4  3  1  0
  5  6  1  0
  5  4  1  0
  6  7  1  0
  8  9  2  0
  8  2  1  0
 11 10  1  1
 12 11  1  0
 13 11  1  0
 14 13  1  1
 14 15  1  0
 15  8  1  0
 16 14  1  0
 17 16  2  0
 18 19  1  0
 20 19  1  6
 20 21  1  0
 21 16  1  0
 22 20  1  0
 22 23  1  0
 24 22  2  0
M  END
$$$$
