LDC.pdb
     RDKit          3D

 23 22  0  0  1  0  0  0  0  0999 V2000
    6.6035  -12.5599   23.6162 C   0  0  0  0  0  0  0  0  0  0  0  0
    6.0900  -13.1130   24.9016 C   0  0  2  0  0  0  0  0  0  0  0  0
    5.9257  -11.9432   25.8804 C   0  0  0  0  0  0  0  0  0  0  0  0
    6.9312  -14.1792   25.5213 C   0  0  0  0  0  0  0  0  0  0  0  0
    7.0531  -15.3669   24.6228 C   0  0  2  0  0  0  0  0  0  0  0  0
    5.9583  -16.2818   24.8422 N   0  0  0  0  0  0  0  0  0  0  0  0
    8.3586  -16.0767   24.8122 C   0  0  0  0  0  0  0  0  0  0  0  0
    8.4417  -16.9086   25.7371 O   0  0  0  0  0  0  0  0  0  0  0  0
    9.4892  -15.8515   24.0012 N   0  0  0  0  0  0  0  0  0  0  0  0
   10.7744  -16.6077   24.2242 C   0  0  1  0  0  0  0  0  0  0  0  0
   11.6758  -16.2175   23.0966 C   0  0  0  0  0  0  0  0  0  0  0  0
   11.4074  -16.8014   21.8171 C   0  0  0  0  0  0  0  0  0  0  0  0
   11.5769  -16.3772   20.6576 O   0  0  0  0  0  0  0  0  0  0  0  0
   11.2613  -16.2143   25.5504 C   0  0  0  0  0  0  0  0  0  0  0  0
   11.6214  -15.0055   25.7922 O   0  0  0  0  0  0  0  0  0  0  0  0
   10.8388  -18.1146   21.8491 O   0  0  0  0  0  0  0  0  0  0  0  0
   11.3736  -17.0781   26.6546 N   0  0  0  0  0  0  0  0  0  0  0  0
   11.6412  -16.5786   28.0035 C   0  0  1  0  0  0  0  0  0  0  0  0
   10.5026  -15.6802   28.3836 C   0  0  0  0  0  0  0  0  0  0  0  0
   10.8867  -14.6251   29.7878 S   0  0  0  0  0  0  0  0  0  0  0  0
   11.6831  -17.7544   28.9328 C   0  0  0  0  0  0  0  0  0  0  0  0
   12.4601  -17.7470   30.0775 O   0  0  0  0  0  0  0  0  0  0  0  0
   11.0013  -18.7932   28.6897 O   0  0  0  0  0  0  0  0  0  0  0  0
  2  1  1  6
  2  3  1  0
  4  2  1  0
  5  4  1  0
  5  7  1  0
  5  6  1  1
  7  9  1  0
  7  8  2  0
  9 10  1  0
 10 11  1  6
 12 11  1  0
 12 16  1  0
 13 12  2  0
 14 17  1  0
 14 10  1  0
 15 14  2  0
 18 21  1  0
 18 17  1  0
 18 19  1  1
 20 19  1  0
 21 22  1  0
 23 21  2  0
M  END
$$$$
