LDC.pdb
     RDKit          3D

 23 22  0  0  1  0  0  0  0  0999 V2000
    9.6938  -13.2433   19.4620 C   0  0  0  0  0  0  0  0  0  0  0  0
    8.2412  -13.2721   19.1290 C   0  0  2  0  0  0  0  0  0  0  0  0
    7.5035  -12.4414   20.1869 C   0  0  0  0  0  0  0  0  0  0  0  0
    7.6325  -14.6320   19.0361 C   0  0  0  0  0  0  0  0  0  0  0  0
    8.6669  -15.6731   18.7553 C   0  0  2  0  0  0  0  0  0  0  0  0
    8.1310  -16.6992   17.8930 N   0  0  0  0  0  0  0  0  0  0  0  0
    9.1945  -16.2879   20.0152 C   0  0  0  0  0  0  0  0  0  0  0  0
    8.3847  -16.8674   20.7653 O   0  0  0  0  0  0  0  0  0  0  0  0
   10.5523  -16.2435   20.3909 N   0  0  0  0  0  0  0  0  0  0  0  0
   11.0561  -17.0019   21.5927 C   0  0  1  0  0  0  0  0  0  0  0  0
   12.5368  -17.1100   21.4130 C   0  0  0  0  0  0  0  0  0  0  0  0
   13.2861  -17.6583   22.5030 C   0  0  0  0  0  0  0  0  0  0  0  0
   14.3599  -17.3110   23.0316 O   0  0  0  0  0  0  0  0  0  0  0  0
   10.6454  -16.2309   22.7707 C   0  0  0  0  0  0  0  0  0  0  0  0
   11.0164  -15.0113   22.9265 O   0  0  0  0  0  0  0  0  0  0  0  0
   12.7177  -18.8206   23.1151 O   0  0  0  0  0  0  0  0  0  0  0  0
    9.8301  -16.7194   23.8072 N   0  0  0  0  0  0  0  0  0  0  0  0
    9.6417  -15.9814   25.0565 C   0  0  1  0  0  0  0  0  0  0  0  0
    8.2823  -15.3511   25.0049 C   0  0  0  0  0  0  0  0  0  0  0  0
    6.9610  -16.5583   24.8337 S   0  0  0  0  0  0  0  0  0  0  0  0
    9.6954  -16.9643   26.1875 C   0  0  0  0  0  0  0  0  0  0  0  0
    9.6437  -16.5543   27.5078 O   0  0  0  0  0  0  0  0  0  0  0  0
    9.7903  -18.2060   25.9589 O   0  0  0  0  0  0  0  0  0  0  0  0
  2  1  1  1
  2  3  1  0
  4  2  1  0
  5  4  1  0
  5  7  1  0
  5  6  1  6
  7  9  1  0
  7  8  2  0
  9 10  1  0
 10 11  1  6
 12 11  1  0
 12 16  1  0
 13 12  2  0
 14 17  1  0
 14 10  1  0
 15 14  2  0
 18 21  1  0
 18 17  1  0
 18 19  1  6
 20 19  1  0
 21 22  1  0
 23 21  2  0
M  END
$$$$
