LDC.pdb
     RDKit          3D

 23 22  0  0  1  0  0  0  0  0999 V2000
    6.8228  -13.7138   21.3223 C   0  0  0  0  0  0  0  0  0  0  0  0
    8.0312  -13.9405   20.4796 C   0  0  2  0  0  0  0  0  0  0  0  0
    8.4216  -12.5959   19.8527 C   0  0  0  0  0  0  0  0  0  0  0  0
    7.8833  -14.9742   19.4129 C   0  0  0  0  0  0  0  0  0  0  0  0
    7.4720  -16.2917   19.9854 C   0  0  2  0  0  0  0  0  0  0  0  0
    6.2151  -16.1694   20.6848 N   0  0  0  0  0  0  0  0  0  0  0  0
    8.5158  -16.8502   20.9032 C   0  0  0  0  0  0  0  0  0  0  0  0
    8.1873  -17.7844   21.6607 O   0  0  0  0  0  0  0  0  0  0  0  0
    9.8417  -16.3743   20.9516 N   0  0  0  0  0  0  0  0  0  0  0  0
   10.8740  -17.0251   21.8369 C   0  0  1  0  0  0  0  0  0  0  0  0
   12.1986  -16.6963   21.2255 C   0  0  0  0  0  0  0  0  0  0  0  0
   12.7241  -17.6266   20.2722 C   0  0  0  0  0  0  0  0  0  0  0  0
   12.6583  -18.8690   20.1996 O   0  0  0  0  0  0  0  0  0  0  0  0
   10.6751  -16.4719   23.1805 C   0  0  0  0  0  0  0  0  0  0  0  0
   10.7434  -15.2072   23.3929 O   0  0  0  0  0  0  0  0  0  0  0  0
   13.4662  -17.0470   19.1942 O   0  0  0  0  0  0  0  0  0  0  0  0
   10.3922  -17.2321   24.3293 N   0  0  0  0  0  0  0  0  0  0  0  0
   10.1394  -16.6069   25.6278 C   0  0  1  0  0  0  0  0  0  0  0  0
    8.8489  -15.8514   25.5186 C   0  0  0  0  0  0  0  0  0  0  0  0
    7.4100  -16.9292   25.5043 S   0  0  0  0  0  0  0  0  0  0  0  0
    9.9965  -17.6974   26.6468 C   0  0  0  0  0  0  0  0  0  0  0  0
    9.9809  -17.4252   28.0032 O   0  0  0  0  0  0  0  0  0  0  0  0
    9.8856  -18.9061   26.2866 O   0  0  0  0  0  0  0  0  0  0  0  0
  2  1  1  6
  2  3  1  0
  4  2  1  0
  5  4  1  0
  5  7  1  0
  5  6  1  1
  7  9  1  0
  7  8  2  0
  9 10  1  0
 10 11  1  6
 12 11  1  0
 12 16  1  0
 13 12  2  0
 14 17  1  0
 14 10  1  0
 15 14  2  0
 18 21  1  0
 18 17  1  0
 18 19  1  6
 20 19  1  0
 21 22  1  0
 23 21  2  0
M  END
$$$$
