LDC.pdb
     RDKit          3D

 23 22  0  0  1  0  0  0  0  0999 V2000
    9.0176  -13.4859   18.8147 C   0  0  0  0  0  0  0  0  0  0  0  0
    7.7925  -13.6051   19.6554 C   0  0  2  0  0  0  0  0  0  0  0  0
    7.2515  -12.1897   19.8950 C   0  0  0  0  0  0  0  0  0  0  0  0
    7.9773  -14.3056   20.9606 C   0  0  0  0  0  0  0  0  0  0  0  0
    8.5320  -15.6795   20.7669 C   0  0  2  0  0  0  0  0  0  0  0  0
    7.5464  -16.5422   20.1600 N   0  0  0  0  0  0  0  0  0  0  0  0
    9.0081  -16.2748   22.0564 C   0  0  0  0  0  0  0  0  0  0  0  0
    8.1511  -16.7177   22.8462 O   0  0  0  0  0  0  0  0  0  0  0  0
   10.3680  -16.3580   22.4174 N   0  0  0  0  0  0  0  0  0  0  0  0
   10.7916  -16.9498   23.7378 C   0  0  1  0  0  0  0  0  0  0  0  0
   12.1771  -17.4702   23.5237 C   0  0  0  0  0  0  0  0  0  0  0  0
   12.3058  -18.7003   22.8021 C   0  0  0  0  0  0  0  0  0  0  0  0
   11.6687  -19.7697   22.8617 O   0  0  0  0  0  0  0  0  0  0  0  0
   10.6982  -15.8691   24.7247 C   0  0  0  0  0  0  0  0  0  0  0  0
   11.2452  -14.7271   24.5103 O   0  0  0  0  0  0  0  0  0  0  0  0
   13.3528  -18.7326   21.8266 O   0  0  0  0  0  0  0  0  0  0  0  0
   10.0224  -15.9596   25.9547 N   0  0  0  0  0  0  0  0  0  0  0  0
   10.0263  -14.8618   26.9221 C   0  0  1  0  0  0  0  0  0  0  0  0
    8.6638  -14.2365   26.8971 C   0  0  0  0  0  0  0  0  0  0  0  0
    8.5071  -12.8620   28.0453 S   0  0  0  0  0  0  0  0  0  0  0  0
   10.2860  -15.4423   28.2799 C   0  0  0  0  0  0  0  0  0  0  0  0
   10.6466  -14.6459   29.3523 O   0  0  0  0  0  0  0  0  0  0  0  0
   10.1803  -16.6880   28.4798 O   0  0  0  0  0  0  0  0  0  0  0  0
  2  1  1  1
  2  3  1  0
  4  2  1  0
  5  4  1  0
  5  7  1  0
  5  6  1  1
  7  9  1  0
  7  8  2  0
  9 10  1  0
 10 11  1  6
 12 11  1  0
 12 16  1  0
 13 12  2  0
 14 17  1  0
 14 10  1  0
 15 14  2  0
 18 21  1  0
 18 17  1  0
 18 19  1  1
 20 19  1  0
 21 22  1  0
 23 21  2  0
M  END
$$$$
