LDC.pdb
     RDKit          3D

 23 22  0  0  1  0  0  0  0  0999 V2000
    9.4769  -13.1323   19.1844 C   0  0  0  0  0  0  0  0  0  0  0  0
    8.1008  -13.5477   19.5788 C   0  0  2  0  0  0  0  0  0  0  0  0
    7.2648  -12.2750   19.7653 C   0  0  0  0  0  0  0  0  0  0  0  0
    8.0145  -14.3960   20.8041 C   0  0  0  0  0  0  0  0  0  0  0  0
    8.7838  -15.6666   20.6413 C   0  0  2  0  0  0  0  0  0  0  0  0
    8.0187  -16.6278   19.8833 N   0  0  0  0  0  0  0  0  0  0  0  0
    9.1764  -16.2530   21.9626 C   0  0  0  0  0  0  0  0  0  0  0  0
    8.2676  -16.5442   22.7649 O   0  0  0  0  0  0  0  0  0  0  0  0
   10.5136  -16.4900   22.3400 N   0  0  0  0  0  0  0  0  0  0  0  0
   10.8545  -17.0634   23.6921 C   0  0  1  0  0  0  0  0  0  0  0  0
   12.2096  -17.6779   23.5425 C   0  0  0  0  0  0  0  0  0  0  0  0
   13.2769  -16.8106   23.1437 C   0  0  0  0  0  0  0  0  0  0  0  0
   14.0860  -16.1302   23.8037 O   0  0  0  0  0  0  0  0  0  0  0  0
   10.7991  -15.9467   24.6411 C   0  0  0  0  0  0  0  0  0  0  0  0
   11.4314  -14.8522   24.4138 O   0  0  0  0  0  0  0  0  0  0  0  0
   13.4701  -16.6851   21.7310 O   0  0  0  0  0  0  0  0  0  0  0  0
   10.0732  -15.9503   25.8456 N   0  0  0  0  0  0  0  0  0  0  0  0
   10.2120  -14.8821   26.8358 C   0  0  1  0  0  0  0  0  0  0  0  0
    8.9094  -14.1412   26.8826 C   0  0  0  0  0  0  0  0  0  0  0  0
    8.8770  -12.8689   28.1526 S   0  0  0  0  0  0  0  0  0  0  0  0
   10.4751  -15.5172   28.1682 C   0  0  0  0  0  0  0  0  0  0  0  0
   11.1931  -14.8640   29.1540 O   0  0  0  0  0  0  0  0  0  0  0  0
   10.0418  -16.6787   28.4259 O   0  0  0  0  0  0  0  0  0  0  0  0
  2  1  1  1
  2  3  1  0
  4  2  1  0
  5  4  1  0
  5  7  1  0
  5  6  1  1
  7  9  1  0
  7  8  2  0
  9 10  1  0
 10 11  1  6
 12 11  1  0
 12 16  1  0
 13 12  2  0
 14 17  1  0
 14 10  1  0
 15 14  2  0
 18 21  1  0
 18 17  1  0
 18 19  1  1
 20 19  1  0
 21 22  1  0
 23 21  2  0
M  END
$$$$
