LDC.pdb
     RDKit          3D

 23 22  0  0  1  0  0  0  0  0999 V2000
    9.6153  -12.9258   19.1042 C   0  0  0  0  0  0  0  0  0  0  0  0
    8.2550  -13.4537   19.4086 C   0  0  2  0  0  0  0  0  0  0  0  0
    7.3207  -12.2524   19.6016 C   0  0  0  0  0  0  0  0  0  0  0  0
    8.1696  -14.3588   20.5927 C   0  0  0  0  0  0  0  0  0  0  0  0
    9.1651  -15.4694   20.5014 C   0  0  2  0  0  0  0  0  0  0  0  0
    8.7312  -16.4606   19.5459 N   0  0  0  0  0  0  0  0  0  0  0  0
    9.4050  -16.1129   21.8327 C   0  0  0  0  0  0  0  0  0  0  0  0
    8.4167  -16.3380   22.5586 O   0  0  0  0  0  0  0  0  0  0  0  0
   10.6846  -16.4737   22.3009 N   0  0  0  0  0  0  0  0  0  0  0  0
   10.8680  -17.1352   23.6433 C   0  0  1  0  0  0  0  0  0  0  0  0
   12.1317  -17.9275   23.5362 C   0  0  0  0  0  0  0  0  0  0  0  0
   12.0844  -19.1252   22.7530 C   0  0  0  0  0  0  0  0  0  0  0  0
   12.0104  -19.3118   21.5230 O   0  0  0  0  0  0  0  0  0  0  0  0
   10.9146  -16.0550   24.6341 C   0  0  0  0  0  0  0  0  0  0  0  0
   11.6437  -15.0146   24.4460 O   0  0  0  0  0  0  0  0  0  0  0  0
   12.1285  -20.3471   23.4971 O   0  0  0  0  0  0  0  0  0  0  0  0
   10.1913  -16.0382   25.8401 N   0  0  0  0  0  0  0  0  0  0  0  0
   10.3031  -14.9344   26.7940 C   0  0  1  0  0  0  0  0  0  0  0  0
    8.9735  -14.2428   26.8381 C   0  0  0  0  0  0  0  0  0  0  0  0
    8.9294  -12.8936   28.0256 S   0  0  0  0  0  0  0  0  0  0  0  0
   10.6099  -15.5161   28.1414 C   0  0  0  0  0  0  0  0  0  0  0  0
   11.1107  -14.7384   29.1702 O   0  0  0  0  0  0  0  0  0  0  0  0
   10.4159  -16.7458   28.3724 O   0  0  0  0  0  0  0  0  0  0  0  0
  2  1  1  1
  2  3  1  0
  4  2  1  0
  5  4  1  0
  5  7  1  0
  5  6  1  6
  7  9  1  0
  7  8  2  0
  9 10  1  0
 10 11  1  6
 12 11  1  0
 12 16  1  0
 13 12  2  0
 14 17  1  0
 14 10  1  0
 15 14  2  0
 18 21  1  0
 18 17  1  0
 18 19  1  1
 20 19  1  0
 21 22  1  0
 23 21  2  0
M  END
$$$$
