LDC.pdb
     RDKit          3D

 23 22  0  0  1  0  0  0  0  0999 V2000
    9.4630  -13.5150   18.8245 C   0  0  0  0  0  0  0  0  0  0  0  0
    8.0057  -13.5688   19.1329 C   0  0  2  0  0  0  0  0  0  0  0  0
    7.4698  -12.1316   19.1067 C   0  0  0  0  0  0  0  0  0  0  0  0
    7.6490  -14.2201   20.4279 C   0  0  0  0  0  0  0  0  0  0  0  0
    8.2005  -15.6064   20.5097 C   0  0  2  0  0  0  0  0  0  0  0  0
    7.3904  -16.5196   19.7392 N   0  0  0  0  0  0  0  0  0  0  0  0
    8.3014  -16.0829   21.9263 C   0  0  0  0  0  0  0  0  0  0  0  0
    7.2435  -16.3550   22.5272 O   0  0  0  0  0  0  0  0  0  0  0  0
    9.5256  -16.2376   22.6077 N   0  0  0  0  0  0  0  0  0  0  0  0
    9.5694  -16.7097   24.0389 C   0  0  1  0  0  0  0  0  0  0  0  0
   10.8729  -17.4269   24.1900 C   0  0  0  0  0  0  0  0  0  0  0  0
   11.1985  -17.9166   25.4955 C   0  0  0  0  0  0  0  0  0  0  0  0
   12.2883  -18.0521   26.0848 O   0  0  0  0  0  0  0  0  0  0  0  0
    9.4391  -15.5114   24.8742 C   0  0  0  0  0  0  0  0  0  0  0  0
   10.2384  -14.5160   24.7340 O   0  0  0  0  0  0  0  0  0  0  0  0
   10.0834  -18.3342   26.2899 O   0  0  0  0  0  0  0  0  0  0  0  0
    8.4626  -15.3272   25.8694 N   0  0  0  0  0  0  0  0  0  0  0  0
    8.4742  -14.1657   26.7591 C   0  0  1  0  0  0  0  0  0  0  0  0
    7.0690  -13.6491   26.8412 C   0  0  0  0  0  0  0  0  0  0  0  0
    6.9053  -12.2509   27.9596 S   0  0  0  0  0  0  0  0  0  0  0  0
    8.9186  -14.6256   28.1151 C   0  0  0  0  0  0  0  0  0  0  0  0
    9.4917  -13.7546   29.0246 O   0  0  0  0  0  0  0  0  0  0  0  0
    8.7787  -15.8346   28.4641 O   0  0  0  0  0  0  0  0  0  0  0  0
  2  1  1  1
  2  3  1  0
  4  2  1  0
  5  4  1  0
  5  7  1  0
  5  6  1  6
  7  9  1  0
  7  8  2  0
  9 10  1  0
 10 11  1  1
 12 11  1  0
 12 16  1  0
 13 12  2  0
 14 17  1  0
 14 10  1  0
 15 14  2  0
 18 21  1  0
 18 17  1  0
 18 19  1  1
 20 19  1  0
 21 22  1  0
 23 21  2  0
M  END
$$$$
