LDC.pdb
     RDKit          3D

 23 22  0  0  1  0  0  0  0  0999 V2000
    8.7246  -13.2842   19.1033 C   0  0  0  0  0  0  0  0  0  0  0  0
    7.7097  -13.7194   20.1045 C   0  0  2  0  0  0  0  0  0  0  0  0
    6.9374  -12.4737   20.5575 C   0  0  0  0  0  0  0  0  0  0  0  0
    8.2517  -14.4411   21.2935 C   0  0  0  0  0  0  0  0  0  0  0  0
    8.9415  -15.7052   20.8948 C   0  0  2  0  0  0  0  0  0  0  0  0
    7.9832  -16.6796   20.4299 N   0  0  0  0  0  0  0  0  0  0  0  0
    9.7485  -16.2777   22.0194 C   0  0  0  0  0  0  0  0  0  0  0  0
    9.1470  -16.9253   22.8986 O   0  0  0  0  0  0  0  0  0  0  0  0
   11.1449  -16.1211   22.1308 N   0  0  0  0  0  0  0  0  0  0  0  0
   11.9004  -16.6648   23.3168 C   0  0  1  0  0  0  0  0  0  0  0  0
   13.3380  -16.6894   22.9059 C   0  0  0  0  0  0  0  0  0  0  0  0
   14.2868  -17.1298   23.8836 C   0  0  0  0  0  0  0  0  0  0  0  0
   14.2003  -17.9553   24.8132 O   0  0  0  0  0  0  0  0  0  0  0  0
   11.6086  -15.7680   24.4399 C   0  0  0  0  0  0  0  0  0  0  0  0
   12.0251  -14.5532   24.4431 O   0  0  0  0  0  0  0  0  0  0  0  0
   15.5811  -16.5246   23.7987 O   0  0  0  0  0  0  0  0  0  0  0  0
   10.8668  -16.1231   25.5808 N   0  0  0  0  0  0  0  0  0  0  0  0
   10.7227  -15.2190   26.7221 C   0  0  1  0  0  0  0  0  0  0  0  0
    9.4034  -14.5212   26.5782 C   0  0  0  0  0  0  0  0  0  0  0  0
    9.0934  -13.3390   27.8969 S   0  0  0  0  0  0  0  0  0  0  0  0
   10.7170  -16.0479   27.9715 C   0  0  0  0  0  0  0  0  0  0  0  0
   10.9247  -15.4834   29.2174 O   0  0  0  0  0  0  0  0  0  0  0  0
   10.5200  -17.2973   27.9157 O   0  0  0  0  0  0  0  0  0  0  0  0
  2  1  1  6
  2  3  1  0
  4  2  1  0
  5  4  1  0
  5  7  1  0
  5  6  1  1
  7  9  1  0
  7  8  2  0
  9 10  1  0
 10 11  1  6
 12 11  1  0
 12 16  1  0
 13 12  2  0
 14 17  1  0
 14 10  1  0
 15 14  2  0
 18 21  1  0
 18 17  1  0
 18 19  1  6
 20 19  1  0
 21 22  1  0
 23 21  2  0
M  END
$$$$
