LDC.pdb
     RDKit          3D

 23 22  0  0  1  0  0  0  0  0999 V2000
    8.6609  -13.0339   18.7179 C   0  0  0  0  0  0  0  0  0  0  0  0
    7.7234  -13.6620   19.6917 C   0  0  2  0  0  0  0  0  0  0  0  0
    6.9645  -12.5342   20.4027 C   0  0  0  0  0  0  0  0  0  0  0  0
    8.3563  -14.5626   20.7001 C   0  0  0  0  0  0  0  0  0  0  0  0
    9.0790  -15.6929   20.0423 C   0  0  2  0  0  0  0  0  0  0  0  0
    8.1540  -16.5325   19.3190 N   0  0  0  0  0  0  0  0  0  0  0  0
    9.8478  -16.5134   21.0321 C   0  0  0  0  0  0  0  0  0  0  0  0
    9.2185  -17.3465   21.7135 O   0  0  0  0  0  0  0  0  0  0  0  0
   11.2381  -16.3903   21.2289 N   0  0  0  0  0  0  0  0  0  0  0  0
   11.9550  -17.2065   22.2744 C   0  0  1  0  0  0  0  0  0  0  0  0
   13.4125  -17.0641   21.9715 C   0  0  0  0  0  0  0  0  0  0  0  0
   13.9210  -17.8060   20.8573 C   0  0  0  0  0  0  0  0  0  0  0  0
   13.6041  -18.9134   20.3816 O   0  0  0  0  0  0  0  0  0  0  0  0
   11.5522  -16.6598   23.5742 C   0  0  0  0  0  0  0  0  0  0  0  0
   12.0247  -15.5436   23.9987 O   0  0  0  0  0  0  0  0  0  0  0  0
   14.9919  -17.1815   20.1418 O   0  0  0  0  0  0  0  0  0  0  0  0
   10.6387  -17.2677   24.4540 N   0  0  0  0  0  0  0  0  0  0  0  0
   10.3685  -16.7245   25.7854 C   0  0  1  0  0  0  0  0  0  0  0  0
    8.9024  -16.4188   25.8565 C   0  0  0  0  0  0  0  0  0  0  0  0
    8.3747  -15.2424   24.6035 S   0  0  0  0  0  0  0  0  0  0  0  0
   10.7094  -17.7801   26.7941 C   0  0  0  0  0  0  0  0  0  0  0  0
   11.1917  -19.0193   26.4122 O   0  0  0  0  0  0  0  0  0  0  0  0
   10.5626  -17.5605   28.0323 O   0  0  0  0  0  0  0  0  0  0  0  0
  2  1  1  6
  2  3  1  0
  4  2  1  0
  5  4  1  0
  5  7  1  0
  5  6  1  1
  7  9  1  0
  7  8  2  0
  9 10  1  0
 10 11  1  6
 12 11  1  0
 12 16  1  0
 13 12  2  0
 14 17  1  0
 14 10  1  0
 15 14  2  0
 18 21  1  0
 18 17  1  0
 18 19  1  6
 20 19  1  0
 21 22  1  0
 23 21  2  0
M  END
$$$$
