LDC.pdb
     RDKit          3D

 23 22  0  0  1  0  0  0  0  0999 V2000
    9.3054  -13.3804   18.8005 C   0  0  0  0  0  0  0  0  0  0  0  0
    8.0968  -13.6381   19.6339 C   0  0  2  0  0  0  0  0  0  0  0  0
    7.4541  -12.2828   19.9554 C   0  0  0  0  0  0  0  0  0  0  0  0
    8.3395  -14.3972   20.8962 C   0  0  0  0  0  0  0  0  0  0  0  0
    9.0451  -15.6868   20.6285 C   0  0  2  0  0  0  0  0  0  0  0  0
    8.1565  -16.6262   19.9869 N   0  0  0  0  0  0  0  0  0  0  0  0
    9.6044  -16.2862   21.8821 C   0  0  0  0  0  0  0  0  0  0  0  0
    8.8025  -16.7628   22.7092 O   0  0  0  0  0  0  0  0  0  0  0  0
   10.9833  -16.3374   22.1698 N   0  0  0  0  0  0  0  0  0  0  0  0
   11.4944  -16.9733   23.4377 C   0  0  1  0  0  0  0  0  0  0  0  0
   12.9016  -17.3867   23.1460 C   0  0  0  0  0  0  0  0  0  0  0  0
   13.0829  -18.5110   22.2781 C   0  0  0  0  0  0  0  0  0  0  0  0
   12.5489  -19.6367   22.2533 O   0  0  0  0  0  0  0  0  0  0  0  0
   11.3686  -15.9589   24.4893 C   0  0  0  0  0  0  0  0  0  0  0  0
   12.1309  -14.9255   24.5075 O   0  0  0  0  0  0  0  0  0  0  0  0
   14.0512  -18.3340   21.2389 O   0  0  0  0  0  0  0  0  0  0  0  0
   10.4352  -16.0017   25.5404 N   0  0  0  0  0  0  0  0  0  0  0  0
   10.4464  -15.0201   26.6254 C   0  0  1  0  0  0  0  0  0  0  0  0
    9.1042  -14.3521   26.6403 C   0  0  0  0  0  0  0  0  0  0  0  0
    8.9408  -13.1468   27.9644 S   0  0  0  0  0  0  0  0  0  0  0  0
   10.6531  -15.7573   27.9145 C   0  0  0  0  0  0  0  0  0  0  0  0
   10.0581  -16.9835   28.1523 O   0  0  0  0  0  0  0  0  0  0  0  0
   11.3848  -15.2704   28.8258 O   0  0  0  0  0  0  0  0  0  0  0  0
  2  1  1  1
  2  3  1  0
  4  2  1  0
  5  4  1  0
  5  7  1  0
  5  6  1  1
  7  9  1  0
  7  8  2  0
  9 10  1  0
 10 11  1  6
 12 11  1  0
 12 16  1  0
 13 12  2  0
 14 17  1  0
 14 10  1  0
 15 14  2  0
 18 21  1  0
 18 17  1  0
 18 19  1  1
 20 19  1  0
 21 22  1  0
 23 21  2  0
M  END
$$$$
