MCC.pdb
     RDKit          3D

 21 20  0  0  1  0  0  0  0  0999 V2000
   26.8090  -16.0198  -14.3627 C   0  0  0  0  0  0  0  0  0  0  0  0
   25.7468  -15.8807  -15.8386 S   0  0  0  0  0  0  0  0  0  0  0  0
   26.2579  -14.4399  -16.8423 C   0  0  0  0  0  0  0  0  0  0  0  0
   25.0460  -13.5578  -17.0557 C   0  0  0  0  0  0  0  0  0  0  0  0
   25.0334  -12.4774  -16.0148 C   0  0  2  0  0  0  0  0  0  0  0  0
   24.8733  -12.9629  -14.6718 N   0  0  0  0  0  0  0  0  0  0  0  0
   23.9799  -11.4653  -16.3298 C   0  0  0  0  0  0  0  0  0  0  0  0
   23.9609  -10.8341  -17.4163 O   0  0  0  0  0  0  0  0  0  0  0  0
   22.9301  -11.1453  -15.4288 N   0  0  0  0  0  0  0  0  0  0  0  0
   21.9641  -10.1456  -15.7043 C   0  0  1  0  0  0  0  0  0  0  0  0
   20.5955  -10.7318  -15.3264 C   0  0  0  0  0  0  0  0  0  0  0  0
   20.3613  -12.3459  -16.1213 S   0  0  0  0  0  0  0  0  0  0  0  0
   22.1254   -8.8754  -15.0315 C   0  0  0  0  0  0  0  0  0  0  0  0
   22.3596   -8.7708  -13.8063 O   0  0  0  0  0  0  0  0  0  0  0  0
   22.0194   -7.6683  -15.7663 N   0  0  0  0  0  0  0  0  0  0  0  0
   22.2464   -6.3875  -15.1389 C   0  0  1  0  0  0  0  0  0  0  0  0
   23.1347   -5.5293  -16.0413 C   0  0  0  0  0  0  0  0  0  0  0  0
   23.3909   -3.9247  -15.2642 S   0  0  0  0  0  0  0  0  0  0  0  0
   20.9937   -5.6967  -14.7953 C   0  0  0  0  0  0  0  0  0  0  0  0
   20.9031   -5.0587  -13.5682 O   0  0  0  0  0  0  0  0  0  0  0  0
   19.9939   -5.6501  -15.5532 O   0  0  0  0  0  0  0  0  0  0  0  0
  2  1  1  0
  3  2  1  0
  3  4  1  0
  4  5  1  0
  5  7  1  0
  5  6  1  1
  7  8  2  0
  9  7  1  0
  9 10  1  0
 10 13  1  0
 10 11  1  1
 12 11  1  0
 13 14  2  0
 15 13  1  0
 15 16  1  0
 16 19  1  0
 16 17  1  6
 18 17  1  0
 19 21  2  0
 19 20  1  0
M  END
$$$$
