MCC.pdb
     RDKit          3D

 21 20  0  0  1  0  0  0  0  0999 V2000
   25.7298  -16.4647  -15.5465 C   0  0  0  0  0  0  0  0  0  0  0  0
   27.5473  -16.4422  -15.3977 S   0  0  0  0  0  0  0  0  0  0  0  0
   28.1654  -18.1258  -15.0400 C   0  0  0  0  0  0  0  0  0  0  0  0
   27.0046  -18.9603  -14.5413 C   0  0  0  0  0  0  0  0  0  0  0  0
   27.5108  -20.3098  -14.1250 C   0  0  2  0  0  0  0  0  0  0  0  0
   28.1184  -21.0592  -15.1900 N   0  0  0  0  0  0  0  0  0  0  0  0
   26.4138  -21.1032  -13.4921 C   0  0  0  0  0  0  0  0  0  0  0  0
   25.7436  -21.9504  -14.1342 O   0  0  0  0  0  0  0  0  0  0  0  0
   26.0516  -20.9578  -12.1268 N   0  0  0  0  0  0  0  0  0  0  0  0
   24.7669  -21.2997  -11.6360 C   0  0  1  0  0  0  0  0  0  0  0  0
   24.7769  -21.0179  -10.1261 C   0  0  0  0  0  0  0  0  0  0  0  0
   26.3254  -20.2016   -9.6487 S   0  0  0  0  0  0  0  0  0  0  0  0
   23.6366  -20.6175  -12.2268 C   0  0  0  0  0  0  0  0  0  0  0  0
   23.7039  -19.4633  -12.7069 O   0  0  0  0  0  0  0  0  0  0  0  0
   22.3741  -21.2589  -12.2819 N   0  0  0  0  0  0  0  0  0  0  0  0
   21.2826  -20.6991  -13.0440 C   0  0  1  0  0  0  0  0  0  0  0  0
   21.5903  -20.8196  -14.5374 C   0  0  0  0  0  0  0  0  0  0  0  0
   20.1963  -20.1791  -15.4813 S   0  0  0  0  0  0  0  0  0  0  0  0
   19.9868  -21.3085  -12.7062 C   0  0  0  0  0  0  0  0  0  0  0  0
   18.8343  -20.5603  -12.8882 O   0  0  0  0  0  0  0  0  0  0  0  0
   19.8615  -22.4751  -12.2593 O   0  0  0  0  0  0  0  0  0  0  0  0
  2  1  1  0
  3  2  1  0
  3  4  1  0
  4  5  1  0
  5  7  1  0
  5  6  1  6
  7  8  2  0
  9  7  1  0
  9 10  1  0
 10 13  1  0
 10 11  1  1
 12 11  1  0
 13 14  2  0
 15 13  1  0
 15 16  1  0
 16 19  1  0
 16 17  1  6
 18 17  1  0
 19 21  2  0
 19 20  1  0
M  END
$$$$
