MCC.pdb
     RDKit          3D

 21 20  0  0  1  0  0  0  0  0999 V2000
   18.3781  -12.2043  -20.8284 C   0  0  0  0  0  0  0  0  0  0  0  0
   19.8578  -12.6024  -21.8174 S   0  0  0  0  0  0  0  0  0  0  0  0
   21.2749  -12.9414  -20.7123 C   0  0  0  0  0  0  0  0  0  0  0  0
   21.2363  -11.9443  -19.5736 C   0  0  0  0  0  0  0  0  0  0  0  0
   22.4467  -12.1371  -18.7084 C   0  0  2  0  0  0  0  0  0  0  0  0
   22.4523  -13.3762  -17.9806 N   0  0  0  0  0  0  0  0  0  0  0  0
   22.6039  -10.9839  -17.7710 C   0  0  0  0  0  0  0  0  0  0  0  0
   21.8965  -10.8572  -16.7401 O   0  0  0  0  0  0  0  0  0  0  0  0
   23.5590   -9.9534  -17.9765 N   0  0  0  0  0  0  0  0  0  0  0  0
   23.6201   -8.7942  -17.1635 C   0  0  1  0  0  0  0  0  0  0  0  0
   25.0966   -8.3767  -17.0925 C   0  0  0  0  0  0  0  0  0  0  0  0
   25.2813   -6.8892  -16.0701 S   0  0  0  0  0  0  0  0  0  0  0  0
   22.8366   -7.6546  -17.5869 C   0  0  0  0  0  0  0  0  0  0  0  0
   22.8102   -7.2383  -18.7672 O   0  0  0  0  0  0  0  0  0  0  0  0
   22.0469   -6.9505  -16.6441 N   0  0  0  0  0  0  0  0  0  0  0  0
   21.2280   -5.8295  -17.0419 C   0  0  1  0  0  0  0  0  0  0  0  0
   19.7706   -6.2795  -17.1568 C   0  0  0  0  0  0  0  0  0  0  0  0
   19.0837   -6.4849  -15.5044 S   0  0  0  0  0  0  0  0  0  0  0  0
   21.3703   -4.6772  -16.1383 C   0  0  0  0  0  0  0  0  0  0  0  0
   20.7003   -3.5041  -16.4487 O   0  0  0  0  0  0  0  0  0  0  0  0
   22.0678   -4.6928  -15.0945 O   0  0  0  0  0  0  0  0  0  0  0  0
  2  1  1  0
  3  2  1  0
  3  4  1  0
  4  5  1  0
  5  7  1  0
  5  6  1  1
  7  8  2  0
  9  7  1  0
  9 10  1  0
 10 13  1  0
 10 11  1  6
 12 11  1  0
 13 14  2  0
 15 13  1  0
 15 16  1  0
 16 19  1  0
 16 17  1  1
 18 17  1  0
 19 21  2  0
 19 20  1  0
M  END
$$$$
