MCC.pdb
     RDKit          3D

 21 20  0  0  1  0  0  0  0  0999 V2000
   13.7273  -13.0891  -13.6698 C   0  0  0  0  0  0  0  0  0  0  0  0
   15.1085  -12.7574  -14.8134 S   0  0  0  0  0  0  0  0  0  0  0  0
   16.3760  -11.7346  -13.9818 C   0  0  0  0  0  0  0  0  0  0  0  0
   15.6678  -10.7227  -13.1060 C   0  0  0  0  0  0  0  0  0  0  0  0
   16.6888   -9.8571  -12.4285 C   0  0  2  0  0  0  0  0  0  0  0  0
   17.5521  -10.5695  -11.5271 N   0  0  0  0  0  0  0  0  0  0  0  0
   16.0206   -8.7235  -11.7201 C   0  0  0  0  0  0  0  0  0  0  0  0
   15.3548   -7.8506  -12.3317 O   0  0  0  0  0  0  0  0  0  0  0  0
   16.0894   -8.5519  -10.3122 N   0  0  0  0  0  0  0  0  0  0  0  0
   15.4273   -7.4961   -9.6374 C   0  0  1  0  0  0  0  0  0  0  0  0
   15.3123   -7.9119   -8.1631 C   0  0  0  0  0  0  0  0  0  0  0  0
   14.2749   -6.7320   -7.2557 S   0  0  0  0  0  0  0  0  0  0  0  0
   16.0424   -6.1887   -9.7030 C   0  0  0  0  0  0  0  0  0  0  0  0
   17.2683   -5.9961   -9.5380 O   0  0  0  0  0  0  0  0  0  0  0  0
   15.2467   -5.0458   -9.9657 N   0  0  0  0  0  0  0  0  0  0  0  0
   15.8352   -3.7309  -10.0668 C   0  0  1  0  0  0  0  0  0  0  0  0
   16.3313   -3.5041  -11.4958 C   0  0  0  0  0  0  0  0  0  0  0  0
   16.9259   -1.8111  -11.6529 S   0  0  0  0  0  0  0  0  0  0  0  0
   14.9160   -2.6660   -9.6361 C   0  0  0  0  0  0  0  0  0  0  0  0
   15.4459   -1.5359   -9.0334 O   0  0  0  0  0  0  0  0  0  0  0  0
   13.6703   -2.7200   -9.7830 O   0  0  0  0  0  0  0  0  0  0  0  0
  2  1  1  0
  3  2  1  0
  3  4  1  0
  4  5  1  0
  5  7  1  0
  5  6  1  1
  7  8  2  0
  9  7  1  0
  9 10  1  0
 10 13  1  0
 10 11  1  1
 12 11  1  0
 13 14  2  0
 15 13  1  0
 15 16  1  0
 16 19  1  0
 16 17  1  6
 18 17  1  0
 19 21  2  0
 19 20  1  0
M  END
$$$$
