MCC.pdb
     RDKit          3D

 21 20  0  0  1  0  0  0  0  0999 V2000
   22.5323  -18.2929  -20.7719 C   0  0  0  0  0  0  0  0  0  0  0  0
   22.2768  -16.8162  -19.7327 S   0  0  0  0  0  0  0  0  0  0  0  0
   23.8910  -16.1003  -19.2571 C   0  0  0  0  0  0  0  0  0  0  0  0
   23.6333  -14.8812  -18.3970 C   0  0  0  0  0  0  0  0  0  0  0  0
   24.9455  -14.2714  -18.0006 C   0  0  2  0  0  0  0  0  0  0  0  0
   25.8255  -15.1761  -17.3133 N   0  0  0  0  0  0  0  0  0  0  0  0
   24.7203  -13.0427  -17.1802 C   0  0  0  0  0  0  0  0  0  0  0  0
   23.8591  -12.9960  -16.2662 O   0  0  0  0  0  0  0  0  0  0  0  0
   25.4592  -11.8456  -17.3735 N   0  0  0  0  0  0  0  0  0  0  0  0
   25.2573  -10.6865  -16.5835 C   0  0  1  0  0  0  0  0  0  0  0  0
   26.6244  -10.0008  -16.4403 C   0  0  0  0  0  0  0  0  0  0  0  0
   27.7528  -11.0430  -15.4746 S   0  0  0  0  0  0  0  0  0  0  0  0
   24.3024   -9.7172  -17.0742 C   0  0  0  0  0  0  0  0  0  0  0  0
   23.9968   -9.6036  -18.2828 O   0  0  0  0  0  0  0  0  0  0  0  0
   23.6614   -8.8359  -16.1683 N   0  0  0  0  0  0  0  0  0  0  0  0
   22.6055   -7.9522  -16.6039 C   0  0  1  0  0  0  0  0  0  0  0  0
   21.4590   -8.7787  -17.1885 C   0  0  0  0  0  0  0  0  0  0  0  0
   20.0664   -7.6916  -17.5399 S   0  0  0  0  0  0  0  0  0  0  0  0
   22.1388   -7.0585  -15.5324 C   0  0  0  0  0  0  0  0  0  0  0  0
   21.6889   -5.7926  -15.8734 O   0  0  0  0  0  0  0  0  0  0  0  0
   22.1234   -7.3765  -14.3180 O   0  0  0  0  0  0  0  0  0  0  0  0
  2  1  1  0
  3  2  1  0
  3  4  1  0
  4  5  1  0
  5  7  1  0
  5  6  1  1
  7  8  2  0
  9  7  1  0
  9 10  1  0
 10 13  1  0
 10 11  1  6
 12 11  1  0
 13 14  2  0
 15 13  1  0
 15 16  1  0
 16 19  1  0
 16 17  1  1
 18 17  1  0
 19 21  2  0
 19 20  1  0
M  END
$$$$
