MCC.pdb
     RDKit          3D

 21 20  0  0  1  0  0  0  0  0999 V2000
   17.7007   -9.1774  -21.8824 C   0  0  0  0  0  0  0  0  0  0  0  0
   17.1591  -10.9088  -21.6954 S   0  0  0  0  0  0  0  0  0  0  0  0
   18.1346  -11.7301  -20.3845 C   0  0  0  0  0  0  0  0  0  0  0  0
   18.1117  -10.8478  -19.1543 C   0  0  0  0  0  0  0  0  0  0  0  0
   19.0006  -11.4444  -18.1033 C   0  0  2  0  0  0  0  0  0  0  0  0
   18.4881  -12.6557  -17.5244 N   0  0  0  0  0  0  0  0  0  0  0  0
   19.2881  -10.4397  -17.0349 C   0  0  0  0  0  0  0  0  0  0  0  0
   18.4213  -10.0873  -16.1960 O   0  0  0  0  0  0  0  0  0  0  0  0
   20.5547   -9.8140  -16.8915 N   0  0  0  0  0  0  0  0  0  0  0  0
   20.8308   -8.8721  -15.8693 C   0  0  1  0  0  0  0  0  0  0  0  0
   21.9694   -9.4567  -15.0200 C   0  0  0  0  0  0  0  0  0  0  0  0
   22.3588   -8.3456  -13.6394 S   0  0  0  0  0  0  0  0  0  0  0  0
   21.2040   -7.5394  -16.2896 C   0  0  0  0  0  0  0  0  0  0  0  0
   22.0965   -7.3100  -17.1369 O   0  0  0  0  0  0  0  0  0  0  0  0
   20.5464   -6.4134  -15.7347 N   0  0  0  0  0  0  0  0  0  0  0  0
   20.8873   -5.0708  -16.1429 C   0  0  1  0  0  0  0  0  0  0  0  0
   19.6068   -4.2883  -16.4386 C   0  0  0  0  0  0  0  0  0  0  0  0
   19.7347   -3.5418  -18.0729 S   0  0  0  0  0  0  0  0  0  0  0  0
   21.7313   -4.3777  -15.1570 C   0  0  0  0  0  0  0  0  0  0  0  0
   21.7947   -4.8815  -13.8673 O   0  0  0  0  0  0  0  0  0  0  0  0
   22.4028   -3.3491  -15.4161 O   0  0  0  0  0  0  0  0  0  0  0  0
  2  1  1  0
  3  2  1  0
  3  4  1  0
  4  5  1  0
  5  7  1  0
  5  6  1  1
  7  8  2  0
  9  7  1  0
  9 10  1  0
 10 13  1  0
 10 11  1  6
 12 11  1  0
 13 14  2  0
 15 13  1  0
 15 16  1  0
 16 19  1  0
 16 17  1  1
 18 17  1  0
 19 21  2  0
 19 20  1  0
M  END
$$$$
