MCC.pdb
     RDKit          3D

 21 20  0  0  1  0  0  0  0  0999 V2000
   26.3392  -17.0327  -14.2173 C   0  0  0  0  0  0  0  0  0  0  0  0
   27.5215  -16.8483  -15.5935 S   0  0  0  0  0  0  0  0  0  0  0  0
   27.6654  -18.4251  -16.5087 C   0  0  0  0  0  0  0  0  0  0  0  0
   26.6404  -19.3906  -15.9523 C   0  0  0  0  0  0  0  0  0  0  0  0
   27.3006  -20.2829  -14.9431 C   0  0  2  0  0  0  0  0  0  0  0  0
   28.1959  -21.2499  -15.5163 N   0  0  0  0  0  0  0  0  0  0  0  0
   26.2715  -20.9641  -14.1002 C   0  0  0  0  0  0  0  0  0  0  0  0
   25.6493  -21.9821  -14.4948 O   0  0  0  0  0  0  0  0  0  0  0  0
   25.9244  -20.5123  -12.7995 N   0  0  0  0  0  0  0  0  0  0  0  0
   24.8159  -21.0269  -12.0820 C   0  0  1  0  0  0  0  0  0  0  0  0
   25.0172  -20.6362  -10.6101 C   0  0  0  0  0  0  0  0  0  0  0  0
   26.6149  -21.2507  -10.0089 S   0  0  0  0  0  0  0  0  0  0  0  0
   23.5029  -20.5890  -12.5018 C   0  0  0  0  0  0  0  0  0  0  0  0
   23.2048  -19.3872  -12.6858 O   0  0  0  0  0  0  0  0  0  0  0  0
   22.4783  -21.5421  -12.7256 N   0  0  0  0  0  0  0  0  0  0  0  0
   21.1830  -21.1453  -13.2259 C   0  0  1  0  0  0  0  0  0  0  0  0
   20.8215  -22.0035  -14.4393 C   0  0  0  0  0  0  0  0  0  0  0  0
   19.1328  -21.6317  -14.9439 S   0  0  0  0  0  0  0  0  0  0  0  0
   20.1374  -21.1995  -12.1923 C   0  0  0  0  0  0  0  0  0  0  0  0
   19.0499  -20.3473  -12.3036 O   0  0  0  0  0  0  0  0  0  0  0  0
   20.1714  -21.9775  -11.2075 O   0  0  0  0  0  0  0  0  0  0  0  0
  2  1  1  0
  3  2  1  0
  3  4  1  0
  4  5  1  0
  5  7  1  0
  5  6  1  6
  7  8  2  0
  9  7  1  0
  9 10  1  0
 10 13  1  0
 10 11  1  1
 12 11  1  0
 13 14  2  0
 15 13  1  0
 15 16  1  0
 16 19  1  0
 16 17  1  6
 18 17  1  0
 19 21  2  0
 19 20  1  0
M  END
$$$$
