MCC.pdb
     RDKit          3D

 21 20  0  0  1  0  0  0  0  0999 V2000
   21.3423  -11.5197  -20.6087 C   0  0  0  0  0  0  0  0  0  0  0  0
   20.9279  -13.1704  -19.9535 S   0  0  0  0  0  0  0  0  0  0  0  0
   20.7423  -13.0923  -18.1359 C   0  0  0  0  0  0  0  0  0  0  0  0
   19.7589  -11.9891  -17.8074 C   0  0  0  0  0  0  0  0  0  0  0  0
   19.5927  -11.9041  -16.3188 C   0  0  2  0  0  0  0  0  0  0  0  0
   19.0398  -13.0901  -15.7247 N   0  0  0  0  0  0  0  0  0  0  0  0
   18.7707  -10.7100  -15.9554 C   0  0  0  0  0  0  0  0  0  0  0  0
   17.5185  -10.7619  -15.8623 O   0  0  0  0  0  0  0  0  0  0  0  0
   19.3423   -9.4374  -15.6907 N   0  0  0  0  0  0  0  0  0  0  0  0
   18.5623   -8.3056  -15.3459 C   0  0  1  0  0  0  0  0  0  0  0  0
   17.9036   -8.6134  -13.9928 C   0  0  0  0  0  0  0  0  0  0  0  0
   19.1706   -8.9543  -12.7395 S   0  0  0  0  0  0  0  0  0  0  0  0
   19.2533   -7.0389  -15.2469 C   0  0  0  0  0  0  0  0  0  0  0  0
   20.4965   -6.9244  -15.3392 O   0  0  0  0  0  0  0  0  0  0  0  0
   18.5167   -5.8469  -15.0350 N   0  0  0  0  0  0  0  0  0  0  0  0
   19.1587   -4.5538  -15.0701 C   0  0  1  0  0  0  0  0  0  0  0  0
   19.9351   -4.4066  -16.3798 C   0  0  0  0  0  0  0  0  0  0  0  0
   18.7992   -4.5984  -17.7646 S   0  0  0  0  0  0  0  0  0  0  0  0
   18.2100   -3.4465  -14.8744 C   0  0  0  0  0  0  0  0  0  0  0  0
   18.7098   -2.1607  -14.7394 O   0  0  0  0  0  0  0  0  0  0  0  0
   16.9647   -3.5977  -14.8220 O   0  0  0  0  0  0  0  0  0  0  0  0
  2  1  1  0
  3  2  1  0
  3  4  1  0
  4  5  1  0
  5  7  1  0
  5  6  1  6
  7  8  2  0
  9  7  1  0
  9 10  1  0
 10 13  1  0
 10 11  1  1
 12 11  1  0
 13 14  2  0
 15 13  1  0
 15 16  1  0
 16 19  1  0
 16 17  1  6
 18 17  1  0
 19 21  2  0
 19 20  1  0
M  END
$$$$
