MCC.pdb
     RDKit          3D

 21 20  0  0  1  0  0  0  0  0999 V2000
   30.4449  -18.7461  -14.4925 C   0  0  0  0  0  0  0  0  0  0  0  0
   29.3357  -18.0068  -15.7371 S   0  0  0  0  0  0  0  0  0  0  0  0
   27.6095  -18.0411  -15.1342 C   0  0  0  0  0  0  0  0  0  0  0  0
   26.9914  -19.3614  -15.5431 C   0  0  0  0  0  0  0  0  0  0  0  0
   27.5300  -20.4511  -14.6637 C   0  0  2  0  0  0  0  0  0  0  0  0
   28.3511  -21.4065  -15.3551 N   0  0  0  0  0  0  0  0  0  0  0  0
   26.4131  -21.1445  -13.9531 C   0  0  0  0  0  0  0  0  0  0  0  0
   25.5892  -21.8781  -14.5550 O   0  0  0  0  0  0  0  0  0  0  0  0
   26.2033  -21.0250  -12.5538 N   0  0  0  0  0  0  0  0  0  0  0  0
   24.9817  -21.3823  -11.9306 C   0  0  1  0  0  0  0  0  0  0  0  0
   25.1733  -21.1730  -10.4209 C   0  0  0  0  0  0  0  0  0  0  0  0
   25.8956  -19.5400  -10.0989 S   0  0  0  0  0  0  0  0  0  0  0  0
   23.7975  -20.6658  -12.3506 C   0  0  0  0  0  0  0  0  0  0  0  0
   23.8344  -19.6072  -13.0178 O   0  0  0  0  0  0  0  0  0  0  0  0
   22.5142  -21.1591  -12.0070 N   0  0  0  0  0  0  0  0  0  0  0  0
   21.3143  -20.5653  -12.5483 C   0  0  1  0  0  0  0  0  0  0  0  0
   21.3683  -20.6116  -14.0762 C   0  0  0  0  0  0  0  0  0  0  0  0
   19.8137  -19.9908  -14.7413 S   0  0  0  0  0  0  0  0  0  0  0  0
   20.0893  -21.1937  -12.0294 C   0  0  0  0  0  0  0  0  0  0  0  0
   18.9359  -20.4296  -11.9461 O   0  0  0  0  0  0  0  0  0  0  0  0
   20.0257  -22.3902  -11.6546 O   0  0  0  0  0  0  0  0  0  0  0  0
  2  1  1  0
  3  2  1  0
  3  4  1  0
  4  5  1  0
  5  7  1  0
  5  6  1  6
  7  8  2  0
  9  7  1  0
  9 10  1  0
 10 13  1  0
 10 11  1  1
 12 11  1  0
 13 14  2  0
 15 13  1  0
 15 16  1  0
 16 19  1  0
 16 17  1  6
 18 17  1  0
 19 21  2  0
 19 20  1  0
M  END
$$$$
