MCC.pdb
     RDKit          3D

 21 20  0  0  1  0  0  0  0  0999 V2000
   23.4624  -32.1670  -21.0969 C   0  0  0  0  0  0  0  0  0  0  0  0
   24.5671  -30.7170  -21.1499 S   0  0  0  0  0  0  0  0  0  0  0  0
   25.0688  -30.2518  -19.4539 C   0  0  0  0  0  0  0  0  0  0  0  0
   24.1443  -30.9494  -18.4786 C   0  0  0  0  0  0  0  0  0  0  0  0
   24.5382  -30.5831  -17.0781 C   0  0  2  0  0  0  0  0  0  0  0  0
   25.9314  -30.7876  -16.7915 N   0  0  0  0  0  0  0  0  0  0  0  0
   23.6917  -31.3198  -16.0912 C   0  0  0  0  0  0  0  0  0  0  0  0
   22.4514  -31.4555  -16.2419 O   0  0  0  0  0  0  0  0  0  0  0  0
   24.2248  -31.9163  -14.9181 N   0  0  0  0  0  0  0  0  0  0  0  0
   23.4413  -32.7006  -14.0352 C   0  0  1  0  0  0  0  0  0  0  0  0
   22.8780  -33.8693  -14.8576 C   0  0  0  0  0  0  0  0  0  0  0  0
   21.8737  -34.9531  -13.8047 S   0  0  0  0  0  0  0  0  0  0  0  0
   24.1064  -33.2347  -12.8672 C   0  0  0  0  0  0  0  0  0  0  0  0
   25.2048  -33.8334  -12.9146 O   0  0  0  0  0  0  0  0  0  0  0  0
   23.5130  -33.0904  -11.5884 N   0  0  0  0  0  0  0  0  0  0  0  0
   24.1869  -33.5449  -10.3947 C   0  0  1  0  0  0  0  0  0  0  0  0
   25.0206  -32.4014   -9.8144 C   0  0  0  0  0  0  0  0  0  0  0  0
   23.9160  -31.1350   -9.1658 S   0  0  0  0  0  0  0  0  0  0  0  0
   23.2577  -34.0992   -9.3978 C   0  0  0  0  0  0  0  0  0  0  0  0
   23.7819  -34.6899   -8.2587 O   0  0  0  0  0  0  0  0  0  0  0  0
   22.0083  -34.0688   -9.5179 O   0  0  0  0  0  0  0  0  0  0  0  0
  2  1  1  0
  3  2  1  0
  3  4  1  0
  4  5  1  0
  5  7  1  0
  5  6  1  1
  7  8  2  0
  9  7  1  0
  9 10  1  0
 10 13  1  0
 10 11  1  6
 12 11  1  0
 13 14  2  0
 15 13  1  0
 15 16  1  0
 16 19  1  0
 16 17  1  1
 18 17  1  0
 19 21  2  0
 19 20  1  0
M  END
$$$$
