MCC.pdb
     RDKit          3D

 21 20  0  0  1  0  0  0  0  0999 V2000
   26.9866  -22.7503  -16.4816 C   0  0  0  0  0  0  0  0  0  0  0  0
   28.4506  -21.7411  -16.8868 S   0  0  0  0  0  0  0  0  0  0  0  0
   29.9679  -22.5806  -16.3058 C   0  0  0  0  0  0  0  0  0  0  0  0
   30.1846  -23.8116  -17.1602 C   0  0  0  0  0  0  0  0  0  0  0  0
   30.4967  -24.9794  -16.2718 C   0  0  2  0  0  0  0  0  0  0  0  0
   31.6149  -24.7635  -15.3954 N   0  0  0  0  0  0  0  0  0  0  0  0
   30.7088  -26.2121  -17.0898 C   0  0  0  0  0  0  0  0  0  0  0  0
   31.1337  -26.1669  -18.2716 O   0  0  0  0  0  0  0  0  0  0  0  0
   30.4468  -27.5163  -16.5933 N   0  0  0  0  0  0  0  0  0  0  0  0
   30.7591  -28.6897  -17.3240 C   0  0  1  0  0  0  0  0  0  0  0  0
   32.2473  -28.6015  -17.6942 C   0  0  0  0  0  0  0  0  0  0  0  0
   32.8042  -30.1604  -18.4370 S   0  0  0  0  0  0  0  0  0  0  0  0
   30.5201  -29.9550  -16.6654 C   0  0  0  0  0  0  0  0  0  0  0  0
   31.2083  -30.3723  -15.7066 O   0  0  0  0  0  0  0  0  0  0  0  0
   29.4612  -30.7898  -17.1018 N   0  0  0  0  0  0  0  0  0  0  0  0
   28.8950  -31.7960  -16.2345 C   0  0  1  0  0  0  0  0  0  0  0  0
   27.3771  -31.6178  -16.1716 C   0  0  0  0  0  0  0  0  0  0  0  0
   26.6925  -31.7937  -17.8283 S   0  0  0  0  0  0  0  0  0  0  0  0
   29.2647  -33.1619  -16.6373 C   0  0  0  0  0  0  0  0  0  0  0  0
   28.9907  -34.2067  -15.7686 O   0  0  0  0  0  0  0  0  0  0  0  0
   29.8178  -33.4401  -17.7295 O   0  0  0  0  0  0  0  0  0  0  0  0
  2  1  1  0
  3  2  1  0
  3  4  1  0
  4  5  1  0
  5  7  1  0
  5  6  1  6
  7  8  2  0
  9  7  1  0
  9 10  1  0
 10 13  1  0
 10 11  1  1
 12 11  1  0
 13 14  2  0
 15 13  1  0
 15 16  1  0
 16 19  1  0
 16 17  1  6
 18 17  1  0
 19 21  2  0
 19 20  1  0
M  END
$$$$
