MCC.pdb
     RDKit          3D

 21 20  0  0  1  0  0  0  0  0999 V2000
   23.9854  -21.6039   -7.0770 C   0  0  0  0  0  0  0  0  0  0  0  0
   23.6607  -21.4831   -8.8676 S   0  0  0  0  0  0  0  0  0  0  0  0
   24.4076  -19.9534   -9.5358 C   0  0  0  0  0  0  0  0  0  0  0  0
   25.8533  -20.2434   -9.8795 C   0  0  0  0  0  0  0  0  0  0  0  0
   25.9054  -21.3195  -10.9235 C   0  0  2  0  0  0  0  0  0  0  0  0
   26.5315  -22.5341  -10.4787 N   0  0  0  0  0  0  0  0  0  0  0  0
   26.5759  -20.8122  -12.1590 C   0  0  0  0  0  0  0  0  0  0  0  0
   27.8139  -20.6024  -12.2114 O   0  0  0  0  0  0  0  0  0  0  0  0
   25.8662  -20.5321  -13.3566 N   0  0  0  0  0  0  0  0  0  0  0  0
   26.4705  -19.9049  -14.4746 C   0  0  1  0  0  0  0  0  0  0  0  0
   26.4088  -20.9082  -15.6361 C   0  0  0  0  0  0  0  0  0  0  0  0
   24.6904  -21.3942  -15.9570 S   0  0  0  0  0  0  0  0  0  0  0  0
   25.8953  -18.6525  -14.9136 C   0  0  0  0  0  0  0  0  0  0  0  0
   24.6752  -18.3871  -14.8243 O   0  0  0  0  0  0  0  0  0  0  0  0
   26.7262  -17.6527  -15.4778 N   0  0  0  0  0  0  0  0  0  0  0  0
   26.1788  -16.4015  -15.9473 C   0  0  1  0  0  0  0  0  0  0  0  0
   27.0194  -15.2437  -15.4066 C   0  0  0  0  0  0  0  0  0  0  0  0
   26.3564  -13.6900  -16.0320 S   0  0  0  0  0  0  0  0  0  0  0  0
   26.0634  -16.3500  -17.4131 C   0  0  0  0  0  0  0  0  0  0  0  0
   24.9453  -15.7490  -17.9697 O   0  0  0  0  0  0  0  0  0  0  0  0
   26.9239  -16.8215  -18.1963 O   0  0  0  0  0  0  0  0  0  0  0  0
  2  1  1  0
  3  2  1  0
  3  4  1  0
  4  5  1  0
  5  7  1  0
  5  6  1  1
  7  8  2  0
  9  7  1  0
  9 10  1  0
 10 13  1  0
 10 11  1  6
 12 11  1  0
 13 14  2  0
 15 13  1  0
 15 16  1  0
 16 19  1  0
 16 17  1  6
 18 17  1  0
 19 21  2  0
 19 20  1  0
M  END
$$$$
