RFL.pdb
     RDKit          3D

 31 31  0  0  1  0  0  0  0  0999 V2000
    9.6207  -19.4444   16.6588 N   0  0  0  0  0  0  0  0  0  0  0  0
   10.7440  -20.3184   16.4640 C   0  0  0  0  0  0  0  0  0  0  0  0
   10.7086  -21.2694   15.5790 N   0  0  0  0  0  0  0  0  0  0  0  0
   11.9344  -20.1850   17.2244 N   0  0  0  0  0  0  0  0  0  0  0  0
   12.0816  -19.2799   18.3407 C   0  0  0  0  0  0  0  0  0  0  0  0
   10.7626  -18.6008   18.7016 C   0  0  0  0  0  0  0  0  0  0  0  0
   10.9883  -17.5460   19.7388 C   0  0  0  0  0  0  0  0  0  0  0  0
   10.4492  -17.8442   21.0897 C   0  0  2  0  0  0  0  0  0  0  0  0
    9.3456  -18.7770   21.1099 N   0  0  0  0  0  0  0  0  0  0  0  0
   10.2250  -16.6512   21.9459 C   0  0  0  0  0  0  0  0  0  0  0  0
   11.1159  -15.7766   21.9606 O   0  0  0  0  0  0  0  0  0  0  0  0
   11.5317  -21.8802   15.4132 N   0  0  0  0  0  0  0  0  0  0  0  0
    9.0542  -16.4731   22.7362 C   0  0  1  0  0  0  0  0  0  0  0  0
    8.8036  -15.2917   23.5353 C   0  0  0  0  0  0  0  0  0  0  0  0
    7.3409  -15.0992   23.8695 C   0  0  0  0  0  0  0  0  0  0  0  0
    7.0693  -13.9658   24.7513 C   0  0  0  0  0  0  0  0  0  0  0  0
    7.5414  -12.7126   24.4256 C   0  0  0  0  0  0  0  0  0  0  0  0
    7.3027  -11.6159   25.2359 C   0  0  0  0  0  0  0  0  0  0  0  0
    6.5758  -11.7341   26.4134 C   0  0  0  0  0  0  0  0  0  0  0  0
    6.1072  -12.9911   26.7318 C   0  0  0  0  0  0  0  0  0  0  0  0
    6.3394  -14.0911   25.9309 C   0  0  0  0  0  0  0  0  0  0  0  0
    9.5305  -15.3522   24.8345 O   0  0  0  0  0  0  0  0  0  0  0  0
    9.6266  -14.2957   25.4969 C   0  0  0  0  0  0  0  0  0  0  0  0
   10.7637  -14.9453   29.4214 C   0  0  2  0  0  0  0  0  0  0  0  0
   10.2050  -14.8033   28.0109 C   0  0  0  0  0  0  0  0  0  0  0  0
    9.9390  -13.3015   27.8262 C   0  0  0  0  0  0  0  0  0  0  0  0
   11.2458  -15.2198   27.0167 C   0  0  1  0  0  0  0  0  0  0  0  0
   10.9842  -16.5915   26.5034 N   0  0  0  0  0  0  0  0  0  0  0  0
   10.0986  -16.5474   25.3203 C   0  0  0  0  0  0  0  0  0  0  0  0
   10.4030  -17.4908   27.5213 O   0  0  0  0  0  0  0  0  0  0  0  0
    9.1527  -18.0643   27.4591 O   0  0  0  0  0  0  0  0  0  0  0  0
  2  1  1  0
  2  3  2  0
  4  5  1  0
  4  2  1  0
  6  5  1  0
  7  6  1  0
  8  9  1  6
  8  7  1  0
 10  8  1  0
 10 11  2  0
 12 10  1  0
 13 12  1  0
 13 21  1  0
 13 14  1  6
 15 14  1  0
 16 15  2  0
 17 16  1  0
 18 17  2  0
 18 19  1  0
 19 20  2  0
 20 15  1  0
 21 28  1  0
 22 21  2  0
 24 23  1  1
 24 25  1  0
 24 26  1  0
 27 26  1  6
 27 29  1  0
 28 27  1  0
 29 31  2  0
 29 30  1  0
M  END
$$$$
