RFL.pdb
     RDKit          3D

 31 31  0  0  1  0  0  0  0  0999 V2000
   13.8971  -20.2975   21.4242 N   0  0  0  0  0  0  0  0  0  0  0  0
   14.0481  -20.8672   20.1142 C   0  0  0  0  0  0  0  0  0  0  0  0
   15.2254  -21.1004   19.6157 N   0  0  0  0  0  0  0  0  0  0  0  0
   12.9269  -21.1975   19.3100 N   0  0  0  0  0  0  0  0  0  0  0  0
   11.5550  -21.0275   19.7293 C   0  0  0  0  0  0  0  0  0  0  0  0
   10.9836  -19.6851   19.2790 C   0  0  0  0  0  0  0  0  0  0  0  0
   10.4878  -18.9097   20.4589 C   0  0  0  0  0  0  0  0  0  0  0  0
    9.7292  -17.6725   20.1448 C   0  0  2  0  0  0  0  0  0  0  0  0
    9.9923  -17.1152   18.8377 N   0  0  0  0  0  0  0  0  0  0  0  0
    9.7257  -16.6548   21.2269 C   0  0  0  0  0  0  0  0  0  0  0  0
   10.7082  -15.8877   21.2998 O   0  0  0  0  0  0  0  0  0  0  0  0
   15.3368  -21.5894   18.7065 N   0  0  0  0  0  0  0  0  0  0  0  0
    8.6638  -16.5257   22.1663 C   0  0  1  0  0  0  0  0  0  0  0  0
    8.6161  -15.4913   23.1786 C   0  0  0  0  0  0  0  0  0  0  0  0
    7.2345  -14.9036   23.3637 C   0  0  0  0  0  0  0  0  0  0  0  0
    7.1522  -13.8736   24.3972 C   0  0  0  0  0  0  0  0  0  0  0  0
    6.4668  -14.1254   25.5661 C   0  0  0  0  0  0  0  0  0  0  0  0
    6.3689  -13.1744   26.5672 C   0  0  0  0  0  0  0  0  0  0  0  0
    6.9590  -11.9242   26.4342 C   0  0  0  0  0  0  0  0  0  0  0  0
    7.6428  -11.6805   25.2620 C   0  0  0  0  0  0  0  0  0  0  0  0
    7.7465  -12.6217   24.2576 C   0  0  0  0  0  0  0  0  0  0  0  0
    9.0350  -16.0155   24.5090 O   0  0  0  0  0  0  0  0  0  0  0  0
    8.2040  -16.6900   25.1563 C   0  0  0  0  0  0  0  0  0  0  0  0
   11.7278  -14.3336   28.9059 C   0  0  2  0  0  0  0  0  0  0  0  0
   10.2537  -14.6012   28.6281 C   0  0  0  0  0  0  0  0  0  0  0  0
    9.4990  -13.4173   29.2518 C   0  0  0  0  0  0  0  0  0  0  0  0
   10.0124  -14.5831   27.1493 C   0  0  1  0  0  0  0  0  0  0  0  0
   10.6000  -15.7810   26.4914 N   0  0  0  0  0  0  0  0  0  0  0  0
   10.3179  -15.7722   25.0401 C   0  0  0  0  0  0  0  0  0  0  0  0
   10.1307  -17.0534   27.0772 O   0  0  0  0  0  0  0  0  0  0  0  0
    8.8307  -17.5075   27.0626 O   0  0  0  0  0  0  0  0  0  0  0  0
  2  1  1  0
  2  3  2  0
  4  5  1  0
  4  2  1  0
  6  5  1  0
  7  6  1  0
  8  9  1  6
  8  7  1  0
 10  8  1  0
 10 11  2  0
 12 10  1  0
 13 12  1  0
 13 21  1  0
 13 14  1  1
 15 14  1  0
 16 15  2  0
 17 16  1  0
 18 17  2  0
 18 19  1  0
 19 20  2  0
 20 15  1  0
 21 28  1  0
 22 21  2  0
 24 23  1  1
 24 25  1  0
 24 26  1  0
 27 26  1  6
 27 29  1  0
 28 27  1  0
 29 31  2  0
 29 30  1  0
M  END
$$$$
