RFL.pdb
     RDKit          3D

 31 31  0  0  1  0  0  0  0  0999 V2000
   11.3248  -18.2422   15.0606 N   0  0  0  0  0  0  0  0  0  0  0  0
   11.8569  -19.4272   15.6739 C   0  0  0  0  0  0  0  0  0  0  0  0
   12.7731  -20.1348   15.0833 N   0  0  0  0  0  0  0  0  0  0  0  0
   11.4085  -19.8769   16.9427 N   0  0  0  0  0  0  0  0  0  0  0  0
   10.3468  -19.2470   17.6930 C   0  0  0  0  0  0  0  0  0  0  0  0
   10.8867  -18.3983   18.8417 C   0  0  0  0  0  0  0  0  0  0  0  0
    9.7600  -17.7458   19.5794 C   0  0  0  0  0  0  0  0  0  0  0  0
    9.7462  -17.9531   21.0496 C   0  0  2  0  0  0  0  0  0  0  0  0
    8.8962  -19.0309   21.5020 N   0  0  0  0  0  0  0  0  0  0  0  0
    9.5953  -16.7111   21.8503 C   0  0  0  0  0  0  0  0  0  0  0  0
   10.3524  -15.7556   21.5801 O   0  0  0  0  0  0  0  0  0  0  0  0
   13.1662  -20.9857   15.5299 N   0  0  0  0  0  0  0  0  0  0  0  0
    8.6383  -16.5738   22.8954 C   0  0  1  0  0  0  0  0  0  0  0  0
    8.5092  -15.3815   23.7069 C   0  0  0  0  0  0  0  0  0  0  0  0
    7.0903  -15.1236   24.1635 C   0  0  0  0  0  0  0  0  0  0  0  0
    6.9330  -13.9324   24.9954 C   0  0  0  0  0  0  0  0  0  0  0  0
    6.3273  -14.0305   26.2294 C   0  0  0  0  0  0  0  0  0  0  0  0
    6.1621  -12.9241   27.0449 C   0  0  0  0  0  0  0  0  0  0  0  0
    6.6012  -11.6666   26.6516 C   0  0  0  0  0  0  0  0  0  0  0  0
    7.2061  -11.5771   25.4158 C   0  0  0  0  0  0  0  0  0  0  0  0
    7.3758  -12.6739   24.5950 C   0  0  0  0  0  0  0  0  0  0  0  0
    9.3408  -15.4728   24.9399 O   0  0  0  0  0  0  0  0  0  0  0  0
    9.5513  -14.4183   25.5789 C   0  0  0  0  0  0  0  0  0  0  0  0
    9.7508  -13.5954   28.5178 C   0  0  1  0  0  0  0  0  0  0  0  0
   10.5079  -14.5488   27.6015 C   0  0  0  0  0  0  0  0  0  0  0  0
   11.9375  -14.6042   28.1612 C   0  0  0  0  0  0  0  0  0  0  0  0
    9.9118  -15.9197   27.7040 C   0  0  2  0  0  0  0  0  0  0  0  0
   10.5206  -16.8488   26.7143 N   0  0  0  0  0  0  0  0  0  0  0  0
    9.8823  -16.6941   25.3898 C   0  0  0  0  0  0  0  0  0  0  0  0
   10.4551  -18.2646   27.1311 O   0  0  0  0  0  0  0  0  0  0  0  0
   11.2500  -18.8520   28.0899 O   0  0  0  0  0  0  0  0  0  0  0  0
  2  1  1  0
  2  3  2  0
  4  5  1  0
  4  2  1  0
  6  5  1  0
  7  6  1  0
  8  9  1  6
  8  7  1  0
 10  8  1  0
 10 11  2  0
 12 10  1  0
 13 12  1  0
 13 21  1  0
 13 14  1  1
 15 14  1  0
 16 15  2  0
 17 16  1  0
 18 17  2  0
 18 19  1  0
 19 20  2  0
 20 15  1  0
 21 28  1  0
 22 21  2  0
 24 23  1  6
 24 25  1  0
 24 26  1  0
 27 26  1  6
 27 29  1  0
 28 27  1  0
 29 31  2  0
 29 30  1  0
M  END
$$$$
