RFL.pdb
     RDKit          3D

 31 31  0  0  1  0  0  0  0  0999 V2000
    8.8358  -19.8732   15.6021 N   0  0  0  0  0  0  0  0  0  0  0  0
    7.6070  -19.1576   15.8060 C   0  0  0  0  0  0  0  0  0  0  0  0
    6.6210  -19.2647   14.9663 N   0  0  0  0  0  0  0  0  0  0  0  0
    7.4158  -18.3061   16.9248 N   0  0  0  0  0  0  0  0  0  0  0  0
    8.4771  -17.8877   17.8110 C   0  0  0  0  0  0  0  0  0  0  0  0
    9.1344  -19.0736   18.5129 C   0  0  0  0  0  0  0  0  0  0  0  0
   10.3112  -18.6149   19.3155 C   0  0  0  0  0  0  0  0  0  0  0  0
   10.1198  -18.5966   20.7878 C   0  0  2  0  0  0  0  0  0  0  0  0
    8.8312  -19.0717   21.2378 N   0  0  0  0  0  0  0  0  0  0  0  0
   10.5471  -17.3395   21.4538 C   0  0  0  0  0  0  0  0  0  0  0  0
   11.6479  -16.8549   21.1184 O   0  0  0  0  0  0  0  0  0  0  0  0
    5.7215  -18.7719   15.1279 N   0  0  0  0  0  0  0  0  0  0  0  0
    9.7628  -16.6807   22.4426 C   0  0  1  0  0  0  0  0  0  0  0  0
   10.0908  -15.3778   22.9829 C   0  0  0  0  0  0  0  0  0  0  0  0
    8.8801  -14.4909   23.1731 C   0  0  0  0  0  0  0  0  0  0  0  0
    8.2249  -14.0922   21.9291 C   0  0  0  0  0  0  0  0  0  0  0  0
    7.1706  -14.8323   21.4393 C   0  0  0  0  0  0  0  0  0  0  0  0
    6.5253  -14.4842   20.2651 C   0  0  0  0  0  0  0  0  0  0  0  0
    6.9152  -13.3717   19.5307 C   0  0  0  0  0  0  0  0  0  0  0  0
    7.9706  -12.6367   20.0277 C   0  0  0  0  0  0  0  0  0  0  0  0
    8.6208  -12.9751   21.1974 C   0  0  0  0  0  0  0  0  0  0  0  0
   10.7448  -15.4934   24.3167 O   0  0  0  0  0  0  0  0  0  0  0  0
   11.5696  -14.6099   24.6385 C   0  0  0  0  0  0  0  0  0  0  0  0
   10.6228  -14.3281   28.9267 C   0  0  2  0  0  0  0  0  0  0  0  0
    9.3431  -15.0118   28.4611 C   0  0  0  0  0  0  0  0  0  0  0  0
    8.2189  -13.9992   28.7270 C   0  0  0  0  0  0  0  0  0  0  0  0
    9.4147  -15.2543   26.9841 C   0  0  1  0  0  0  0  0  0  0  0  0
   10.3476  -16.3681   26.6642 N   0  0  0  0  0  0  0  0  0  0  0  0
   10.4598  -16.5530   25.2017 C   0  0  0  0  0  0  0  0  0  0  0  0
    9.9618  -17.6472   27.2948 O   0  0  0  0  0  0  0  0  0  0  0  0
    9.1088  -18.5807   26.7496 O   0  0  0  0  0  0  0  0  0  0  0  0
  2  1  1  0
  2  3  2  0
  4  5  1  0
  4  2  1  0
  6  5  1  0
  7  6  1  0
  8  9  1  6
  8  7  1  0
 10  8  1  0
 10 11  2  0
 12 10  1  0
 13 12  1  0
 13 21  1  0
 13 14  1  6
 15 14  1  0
 16 15  2  0
 17 16  1  0
 18 17  2  0
 18 19  1  0
 19 20  2  0
 20 15  1  0
 21 28  1  0
 22 21  2  0
 24 23  1  1
 24 25  1  0
 24 26  1  0
 27 26  1  6
 27 29  1  0
 28 27  1  0
 29 31  2  0
 29 30  1  0
M  END
$$$$
