RFL.pdb
     RDKit          3D

 31 31  0  0  1  0  0  0  0  0999 V2000
   10.7064  -19.0202   15.2510 N   0  0  0  0  0  0  0  0  0  0  0  0
    9.4067  -19.6190   15.3769 C   0  0  0  0  0  0  0  0  0  0  0  0
    8.9898  -20.5036   14.5209 N   0  0  0  0  0  0  0  0  0  0  0  0
    8.5246  -19.2733   16.4330 N   0  0  0  0  0  0  0  0  0  0  0  0
    8.8072  -18.2574   17.4204 C   0  0  0  0  0  0  0  0  0  0  0  0
    9.9854  -18.6414   18.3123 C   0  0  0  0  0  0  0  0  0  0  0  0
   10.2268  -17.5804   19.3395 C   0  0  0  0  0  0  0  0  0  0  0  0
    9.9302  -17.9625   20.7433 C   0  0  2  0  0  0  0  0  0  0  0  0
    8.8148  -18.8676   20.9026 N   0  0  0  0  0  0  0  0  0  0  0  0
    9.9085  -16.8296   21.7038 C   0  0  0  0  0  0  0  0  0  0  0  0
   10.8017  -15.9640   21.5944 O   0  0  0  0  0  0  0  0  0  0  0  0
    8.0372  -20.9107   14.5896 N   0  0  0  0  0  0  0  0  0  0  0  0
    8.9260  -16.6983   22.7257 C   0  0  1  0  0  0  0  0  0  0  0  0
    8.7844  -15.5151   23.5485 C   0  0  0  0  0  0  0  0  0  0  0  0
    7.3786  -15.3191   24.0715 C   0  0  0  0  0  0  0  0  0  0  0  0
    7.1686  -14.0548   24.7737 C   0  0  0  0  0  0  0  0  0  0  0  0
    7.7900  -12.9086   24.3271 C   0  0  0  0  0  0  0  0  0  0  0  0
    7.6137  -11.6934   24.9662 C   0  0  0  0  0  0  0  0  0  0  0  0
    6.8012  -11.5794   26.0868 C   0  0  0  0  0  0  0  0  0  0  0  0
    6.1833  -12.7306   26.5271 C   0  0  0  0  0  0  0  0  0  0  0  0
    6.3523  -13.9472   25.8972 C   0  0  0  0  0  0  0  0  0  0  0  0
    9.6754  -15.5750   24.7413 O   0  0  0  0  0  0  0  0  0  0  0  0
   10.7877  -15.0080   24.6654 C   0  0  0  0  0  0  0  0  0  0  0  0
    8.4487  -13.6691   29.2240 C   0  0  1  0  0  0  0  0  0  0  0  0
    9.1416  -14.2660   28.0052 C   0  0  0  0  0  0  0  0  0  0  0  0
   10.4327  -13.4521   27.8299 C   0  0  0  0  0  0  0  0  0  0  0  0
    9.5198  -15.6874   28.2913 C   0  0  2  0  0  0  0  0  0  0  0  0
   10.1739  -16.3197   27.1142 N   0  0  0  0  0  0  0  0  0  0  0  0
    9.2992  -16.2419   25.9249 C   0  0  0  0  0  0  0  0  0  0  0  0
   10.5604  -17.7258   27.3511 O   0  0  0  0  0  0  0  0  0  0  0  0
   11.6042  -18.1436   28.1462 O   0  0  0  0  0  0  0  0  0  0  0  0
  2  1  1  0
  2  3  2  0
  4  5  1  0
  4  2  1  0
  6  5  1  0
  7  6  1  0
  8  9  1  6
  8  7  1  0
 10  8  1  0
 10 11  2  0
 12 10  1  0
 13 12  1  0
 13 21  1  0
 13 14  1  6
 15 14  1  0
 16 15  2  0
 17 16  1  0
 18 17  2  0
 18 19  1  0
 19 20  2  0
 20 15  1  0
 21 28  1  0
 22 21  2  0
 24 23  1  6
 24 25  1  0
 24 26  1  0
 27 26  1  6
 27 29  1  0
 28 27  1  0
 29 31  2  0
 29 30  1  0
M  END
$$$$
