RFL.pdb
     RDKit          3D

 31 31  0  0  1  0  0  0  0  0999 V2000
    5.2372  -22.1203   16.5477 N   0  0  0  0  0  0  0  0  0  0  0  0
    6.5946  -21.8864   16.9554 C   0  0  0  0  0  0  0  0  0  0  0  0
    7.5657  -22.6273   16.5115 N   0  0  0  0  0  0  0  0  0  0  0  0
    6.9345  -20.8441   17.8561 N   0  0  0  0  0  0  0  0  0  0  0  0
    8.2894  -20.5106   18.2300 C   0  0  0  0  0  0  0  0  0  0  0  0
    8.3381  -19.3481   19.2187 C   0  0  0  0  0  0  0  0  0  0  0  0
    9.4102  -19.5772   20.2373 C   0  0  0  0  0  0  0  0  0  0  0  0
    9.1153  -19.0833   21.6061 C   0  0  2  0  0  0  0  0  0  0  0  0
    7.7219  -19.1425   21.9851 N   0  0  0  0  0  0  0  0  0  0  0  0
    9.7636  -17.7928   21.9535 C   0  0  0  0  0  0  0  0  0  0  0  0
   10.9250  -17.6006   21.5373 O   0  0  0  0  0  0  0  0  0  0  0  0
    8.5321  -22.5217   16.8761 N   0  0  0  0  0  0  0  0  0  0  0  0
    9.1215  -16.7869   22.7301 C   0  0  1  0  0  0  0  0  0  0  0  0
    9.7058  -15.4883   22.9932 C   0  0  0  0  0  0  0  0  0  0  0  0
    8.7325  -14.3472   22.7957 C   0  0  0  0  0  0  0  0  0  0  0  0
    7.8998  -14.0581   23.9614 C   0  0  0  0  0  0  0  0  0  0  0  0
    8.0951  -14.7529   25.1354 C   0  0  0  0  0  0  0  0  0  0  0  0
    7.3263  -14.5053   26.2597 C   0  0  0  0  0  0  0  0  0  0  0  0
    6.3240  -13.5440   26.2503 C   0  0  0  0  0  0  0  0  0  0  0  0
    6.1351  -12.8535   25.0720 C   0  0  0  0  0  0  0  0  0  0  0  0
    6.8961  -13.0925   23.9453 C   0  0  0  0  0  0  0  0  0  0  0  0
   10.1957  -15.3890   24.3969 O   0  0  0  0  0  0  0  0  0  0  0  0
   10.6759  -14.2958   24.7692 C   0  0  0  0  0  0  0  0  0  0  0  0
   11.9316  -14.6044   28.7409 C   0  0  2  0  0  0  0  0  0  0  0  0
   10.5000  -15.1232   28.7959 C   0  0  0  0  0  0  0  0  0  0  0  0
    9.6954  -14.0270   29.5108 C   0  0  0  0  0  0  0  0  0  0  0  0
    9.9651  -15.2632   27.4032 C   0  0  1  0  0  0  0  0  0  0  0  0
   10.6119  -16.3958   26.6875 N   0  0  0  0  0  0  0  0  0  0  0  0
   10.1306  -16.4761   25.2919 C   0  0  0  0  0  0  0  0  0  0  0  0
   10.4067  -17.6973   27.3557 O   0  0  0  0  0  0  0  0  0  0  0  0
   11.2950  -18.3009   28.2176 O   0  0  0  0  0  0  0  0  0  0  0  0
  2  1  1  0
  2  3  2  0
  4  5  1  0
  4  2  1  0
  6  5  1  0
  7  6  1  0
  8  9  1  6
  8  7  1  0
 10  8  1  0
 10 11  2  0
 12 10  1  0
 13 12  1  0
 13 21  1  0
 13 14  1  6
 15 14  1  0
 16 15  2  0
 17 16  1  0
 18 17  2  0
 18 19  1  0
 19 20  2  0
 20 15  1  0
 21 28  1  0
 22 21  2  0
 24 23  1  1
 24 25  1  0
 24 26  1  0
 27 26  1  6
 27 29  1  0
 28 27  1  0
 29 31  2  0
 29 30  1  0
M  END
$$$$
