RFL.pdb
     RDKit          3D

 31 31  0  0  1  0  0  0  0  0999 V2000
   10.0063  -15.0484   14.8831 N   0  0  0  0  0  0  0  0  0  0  0  0
    8.9421  -14.0978   15.0478 C   0  0  0  0  0  0  0  0  0  0  0  0
    8.1051  -13.8541   14.0840 N   0  0  0  0  0  0  0  0  0  0  0  0
    8.7586  -13.3854   16.2610 N   0  0  0  0  0  0  0  0  0  0  0  0
    8.5334  -14.0162   17.5410 C   0  0  0  0  0  0  0  0  0  0  0  0
    8.4124  -15.5330   17.4155 C   0  0  0  0  0  0  0  0  0  0  0  0
    8.0944  -16.1405   18.7456 C   0  0  0  0  0  0  0  0  0  0  0  0
    9.2644  -16.5156   19.5793 C   0  0  2  0  0  0  0  0  0  0  0  0
    9.4654  -17.9381   19.7372 N   0  0  0  0  0  0  0  0  0  0  0  0
    9.3868  -15.7608   20.8528 C   0  0  0  0  0  0  0  0  0  0  0  0
    9.8498  -14.6027   20.7942 O   0  0  0  0  0  0  0  0  0  0  0  0
    7.3375  -13.1647   14.2003 N   0  0  0  0  0  0  0  0  0  0  0  0
    9.0040  -16.3001   22.1136 C   0  0  1  0  0  0  0  0  0  0  0  0
    8.7258  -15.4855   23.2780 C   0  0  0  0  0  0  0  0  0  0  0  0
    7.2528  -15.1947   23.4624 C   0  0  0  0  0  0  0  0  0  0  0  0
    6.9584  -14.2208   24.5115 C   0  0  0  0  0  0  0  0  0  0  0  0
    7.1909  -12.8805   24.2905 C   0  0  0  0  0  0  0  0  0  0  0  0
    6.9232  -11.9296   25.2603 C   0  0  0  0  0  0  0  0  0  0  0  0
    6.4079  -12.2886   26.4991 C   0  0  0  0  0  0  0  0  0  0  0  0
    6.1781  -13.6313   26.7120 C   0  0  0  0  0  0  0  0  0  0  0  0
    6.4415  -14.5875   25.7518 C   0  0  0  0  0  0  0  0  0  0  0  0
    9.1855  -16.1529   24.5285 O   0  0  0  0  0  0  0  0  0  0  0  0
    9.3799  -17.3878   24.4909 C   0  0  0  0  0  0  0  0  0  0  0  0
    9.2715  -12.7373   27.9099 C   0  0  2  0  0  0  0  0  0  0  0  0
   10.4109  -13.6881   27.5642 C   0  0  0  0  0  0  0  0  0  0  0  0
   11.6201  -13.1860   28.3677 C   0  0  0  0  0  0  0  0  0  0  0  0
   10.0726  -15.0679   28.0408 C   0  0  2  0  0  0  0  0  0  0  0  0
   10.0435  -16.0371   26.9126 N   0  0  0  0  0  0  0  0  0  0  0  0
    9.4001  -15.4377   25.7241 C   0  0  0  0  0  0  0  0  0  0  0  0
    9.3654  -17.3045   27.2539 O   0  0  0  0  0  0  0  0  0  0  0  0
    9.9331  -18.3531   27.9427 O   0  0  0  0  0  0  0  0  0  0  0  0
  2  1  1  0
  2  3  2  0
  4  5  1  0
  4  2  1  0
  6  5  1  0
  7  6  1  0
  8  9  1  1
  8  7  1  0
 10  8  1  0
 10 11  2  0
 12 10  1  0
 13 12  1  0
 13 21  1  0
 13 14  1  1
 15 14  1  0
 16 15  2  0
 17 16  1  0
 18 17  2  0
 18 19  1  0
 19 20  2  0
 20 15  1  0
 21 28  1  0
 22 21  2  0
 24 23  1  6
 24 25  1  0
 24 26  1  0
 27 26  1  6
 27 29  1  0
 28 27  1  0
 29 31  2  0
 29 30  1  0
M  END
$$$$
