RFL.pdb
     RDKit          3D

 31 31  0  0  1  0  0  0  0  0999 V2000
    7.6925  -14.2921   12.4931 N   0  0  0  0  0  0  0  0  0  0  0  0
    8.3844  -14.6367   13.7039 C   0  0  0  0  0  0  0  0  0  0  0  0
    8.9432  -15.8009   13.8493 N   0  0  0  0  0  0  0  0  0  0  0  0
    8.4872  -13.7286   14.7893 N   0  0  0  0  0  0  0  0  0  0  0  0
    9.1948  -14.0141   16.0159 C   0  0  0  0  0  0  0  0  0  0  0  0
    8.4972  -15.0951   16.8380 C   0  0  0  0  0  0  0  0  0  0  0  0
    8.3926  -14.6724   18.2697 C   0  0  0  0  0  0  0  0  0  0  0  0
    9.1750  -15.4801   19.2393 C   0  0  2  0  0  0  0  0  0  0  0  0
    8.8469  -16.8874   19.2605 N   0  0  0  0  0  0  0  0  0  0  0  0
    9.2891  -14.8836   20.5949 C   0  0  0  0  0  0  0  0  0  0  0  0
    9.8628  -13.7789   20.6921 O   0  0  0  0  0  0  0  0  0  0  0  0
    9.4124  -16.0648   14.7371 N   0  0  0  0  0  0  0  0  0  0  0  0
    8.7790  -15.5144   21.7649 C   0  0  1  0  0  0  0  0  0  0  0  0
    8.5918  -14.8257   23.0249 C   0  0  0  0  0  0  0  0  0  0  0  0
    7.1357  -14.6392   23.3900 C   0  0  0  0  0  0  0  0  0  0  0  0
    6.9108  -13.7655   24.5398 C   0  0  0  0  0  0  0  0  0  0  0  0
    6.1676  -14.2148   25.6099 C   0  0  0  0  0  0  0  0  0  0  0  0
    5.9350  -13.4158   26.7162 C   0  0  0  0  0  0  0  0  0  0  0  0
    6.4424  -12.1253   26.7931 C   0  0  0  0  0  0  0  0  0  0  0  0
    7.1848  -11.6837   25.7184 C   0  0  0  0  0  0  0  0  0  0  0  0
    7.4228  -12.4721   24.6107 C   0  0  0  0  0  0  0  0  0  0  0  0
    9.2179  -15.5753   24.1502 O   0  0  0  0  0  0  0  0  0  0  0  0
    9.0964  -16.8201   24.1588 C   0  0  0  0  0  0  0  0  0  0  0  0
   12.2027  -15.6428   28.7932 C   0  0  2  0  0  0  0  0  0  0  0  0
   10.6893  -15.4713   28.8373 C   0  0  0  0  0  0  0  0  0  0  0  0
   10.4170  -14.5536   30.0390 C   0  0  0  0  0  0  0  0  0  0  0  0
   10.2295  -14.7671   27.5972 C   0  0  1  0  0  0  0  0  0  0  0  0
   10.3996  -15.6254   26.3940 N   0  0  0  0  0  0  0  0  0  0  0  0
    9.9271  -14.9253   25.1807 C   0  0  0  0  0  0  0  0  0  0  0  0
    9.7142  -16.9290   26.5097 O   0  0  0  0  0  0  0  0  0  0  0  0
   10.3374  -18.1549   26.5811 O   0  0  0  0  0  0  0  0  0  0  0  0
  2  1  1  0
  2  3  2  0
  4  5  1  0
  4  2  1  0
  6  5  1  0
  7  6  1  0
  8  9  1  1
  8  7  1  0
 10  8  1  0
 10 11  2  0
 12 10  1  0
 13 12  1  0
 13 21  1  0
 13 14  1  1
 15 14  1  0
 16 15  2  0
 17 16  1  0
 18 17  2  0
 18 19  1  0
 19 20  2  0
 20 15  1  0
 21 28  1  0
 22 21  2  0
 24 23  1  1
 24 25  1  0
 24 26  1  0
 27 26  1  6
 27 29  1  0
 28 27  1  0
 29 31  2  0
 29 30  1  0
M  END
$$$$
