RFL.pdb
     RDKit          3D

 31 31  0  0  1  0  0  0  0  0999 V2000
    9.3403  -14.4304   15.4962 N   0  0  0  0  0  0  0  0  0  0  0  0
    7.9498  -14.0953   15.6290 C   0  0  0  0  0  0  0  0  0  0  0  0
    7.1385  -14.1852   14.6178 N   0  0  0  0  0  0  0  0  0  0  0  0
    7.4030  -13.6525   16.8611 N   0  0  0  0  0  0  0  0  0  0  0  0
    8.1334  -13.6324   18.1072 C   0  0  0  0  0  0  0  0  0  0  0  0
    9.0302  -14.8583   18.2621 C   0  0  0  0  0  0  0  0  0  0  0  0
    9.7209  -14.8322   19.5893 C   0  0  0  0  0  0  0  0  0  0  0  0
    9.3584  -15.9254   20.5264 C   0  0  2  0  0  0  0  0  0  0  0  0
    8.1269  -16.6123   20.2097 N   0  0  0  0  0  0  0  0  0  0  0  0
    9.4826  -15.5767   21.9650 C   0  0  0  0  0  0  0  0  0  0  0  0
   10.4358  -14.8430   22.3001 O   0  0  0  0  0  0  0  0  0  0  0  0
    6.1210  -14.0101   14.7279 N   0  0  0  0  0  0  0  0  0  0  0  0
    8.5726  -16.0408   22.9566 C   0  0  1  0  0  0  0  0  0  0  0  0
    8.5602  -15.5511   24.3193 C   0  0  0  0  0  0  0  0  0  0  0  0
    7.1667  -15.4332   24.8962 C   0  0  0  0  0  0  0  0  0  0  0  0
    6.7738  -14.0697   25.2461 C   0  0  0  0  0  0  0  0  0  0  0  0
    7.3256  -13.0009   24.5735 C   0  0  0  0  0  0  0  0  0  0  0  0
    6.9766  -11.6961   24.8769 C   0  0  0  0  0  0  0  0  0  0  0  0
    6.0535  -11.4102   25.8744 C   0  0  0  0  0  0  0  0  0  0  0  0
    5.5062  -12.4850   26.5424 C   0  0  0  0  0  0  0  0  0  0  0  0
    5.8472  -13.7897   26.2477 C   0  0  0  0  0  0  0  0  0  0  0  0
    9.3192  -16.4564   25.2273 O   0  0  0  0  0  0  0  0  0  0  0  0
    9.6484  -17.5797   24.7866 C   0  0  0  0  0  0  0  0  0  0  0  0
   10.7133  -14.0825   29.9358 C   0  0  2  0  0  0  0  0  0  0  0  0
   10.4740  -14.7525   28.5883 C   0  0  0  0  0  0  0  0  0  0  0  0
   11.4545  -14.0779   27.6168 C   0  0  0  0  0  0  0  0  0  0  0  0
   10.8321  -16.2045   28.6814 C   0  0  2  0  0  0  0  0  0  0  0  0
   10.5028  -16.9239   27.4215 N   0  0  0  0  0  0  0  0  0  0  0  0
    9.6651  -16.0815   26.5415 C   0  0  0  0  0  0  0  0  0  0  0  0
    9.8296  -18.2186   27.6516 O   0  0  0  0  0  0  0  0  0  0  0  0
   10.4294  -19.3520   28.1537 O   0  0  0  0  0  0  0  0  0  0  0  0
  2  1  1  0
  2  3  2  0
  4  5  1  0
  4  2  1  0
  6  5  1  0
  7  6  1  0
  8  9  1  1
  8  7  1  0
 10  8  1  0
 10 11  2  0
 12 10  1  0
 13 12  1  0
 13 21  1  0
 13 14  1  1
 15 14  1  0
 16 15  2  0
 17 16  1  0
 18 17  2  0
 18 19  1  0
 19 20  2  0
 20 15  1  0
 21 28  1  0
 22 21  2  0
 24 23  1  6
 24 25  1  0
 24 26  1  0
 27 26  1  6
 27 29  1  0
 28 27  1  0
 29 31  2  0
 29 30  1  0
M  END
$$$$
