SLC.pdb
     RDKit          3D

 21 20  0  0  1  0  0  0  0  0999 V2000
    9.8699  -20.1912   22.1052 O   0  0  0  0  0  0  0  0  0  0  0  0
    8.5865  -20.0886   21.6378 C   0  0  0  0  0  0  0  0  0  0  0  0
    8.6089  -19.5293   20.2280 C   0  0  2  0  0  0  0  0  0  0  0  0
    9.4312  -20.4015   19.3673 N   0  0  0  0  0  0  0  0  0  0  0  0
    9.2380  -18.1899   20.1507 C   0  0  0  0  0  0  0  0  0  0  0  0
   10.4080  -17.9939   19.7192 O   0  0  0  0  0  0  0  0  0  0  0  0
    8.2718  -12.7285   19.0505 C   0  0  0  0  0  0  0  0  0  0  0  0
    8.1677  -13.3389   20.4313 C   0  0  1  0  0  0  0  0  0  0  0  0
    6.9380  -12.6732   21.0747 C   0  0  0  0  0  0  0  0  0  0  0  0
    7.9272  -14.8012   20.3566 C   0  0  0  0  0  0  0  0  0  0  0  0
    9.0836  -15.7088   20.5783 C   0  0  2  0  0  0  0  0  0  0  0  0
    8.5175  -17.0689   20.5714 N   0  0  0  0  0  0  0  0  0  0  0  0
    9.8040  -15.5681   21.8410 C   0  0  0  0  0  0  0  0  0  0  0  0
   10.6049  -14.6168   22.0270 O   0  0  0  0  0  0  0  0  0  0  0  0
    9.6513  -16.4712   22.9175 N   0  0  0  0  0  0  0  0  0  0  0  0
   10.2780  -16.2391   24.2157 C   0  0  1  0  0  0  0  0  0  0  0  0
    9.2117  -16.1686   25.3086 C   0  0  0  0  0  0  0  0  0  0  0  0
    7.9022  -15.0365   24.7869 S   0  0  0  0  0  0  0  0  0  0  0  0
   11.2419  -17.3255   24.5235 C   0  0  0  0  0  0  0  0  0  0  0  0
   11.9348  -17.2312   25.5585 O   0  0  0  0  0  0  0  0  0  0  0  0
   11.3841  -18.4275   23.6935 O   0  0  0  0  0  0  0  0  0  0  0  0
  2  1  1  0
  3  2  1  0
  3  4  1  6
  5  3  1  0
  6  5  2  0
  8  9  1  6
  8  7  1  0
 10  8  1  0
 11 10  1  1
 11 13  1  0
 11 12  1  0
 12  5  1  0
 13 15  1  0
 14 13  2  0
 15 16  1  0
 16 19  1  0
 16 17  1  1
 18 17  1  0
 19 21  1  0
 20 19  2  0
M  END
$$$$
