SLC.pdb
     RDKit          3D

 21 20  0  0  1  0  0  0  0  0999 V2000
    8.0193  -17.2834   22.0161 O   0  0  0  0  0  0  0  0  0  0  0  0
    6.7767  -16.7666   21.7612 C   0  0  0  0  0  0  0  0  0  0  0  0
    6.8854  -15.2646   21.5792 C   0  0  2  0  0  0  0  0  0  0  0  0
    7.6443  -14.9735   20.3475 N   0  0  0  0  0  0  0  0  0  0  0  0
    7.6373  -14.6057   22.6727 C   0  0  0  0  0  0  0  0  0  0  0  0
    8.8218  -14.1872   22.5497 O   0  0  0  0  0  0  0  0  0  0  0  0
    5.3867  -11.3816   26.9192 C   0  0  0  0  0  0  0  0  0  0  0  0
    6.3345  -11.8264   25.8267 C   0  0  1  0  0  0  0  0  0  0  0  0
    7.6341  -11.0399   26.0754 C   0  0  0  0  0  0  0  0  0  0  0  0
    6.6336  -13.2761   25.9308 C   0  0  0  0  0  0  0  0  0  0  0  0
    7.7138  -13.8273   25.0709 C   0  0  2  0  0  0  0  0  0  0  0  0
    7.0235  -14.4263   23.9154 N   0  0  0  0  0  0  0  0  0  0  0  0
    8.5461  -14.8808   25.6458 C   0  0  0  0  0  0  0  0  0  0  0  0
    8.7120  -14.9688   26.8891 O   0  0  0  0  0  0  0  0  0  0  0  0
    9.2056  -15.8535   24.8606 N   0  0  0  0  0  0  0  0  0  0  0  0
   10.0570  -16.8796   25.4559 C   0  0  1  0  0  0  0  0  0  0  0  0
    9.1975  -17.9587   26.1138 C   0  0  0  0  0  0  0  0  0  0  0  0
    8.1942  -18.7709   24.8479 S   0  0  0  0  0  0  0  0  0  0  0  0
   10.9261  -17.4920   24.4196 C   0  0  0  0  0  0  0  0  0  0  0  0
   10.7475  -17.1696   23.2262 O   0  0  0  0  0  0  0  0  0  0  0  0
   11.9187  -18.4028   24.7493 O   0  0  0  0  0  0  0  0  0  0  0  0
  2  1  1  0
  3  2  1  0
  3  4  1  6
  5  3  1  0
  6  5  2  0
  8  9  1  1
  8  7  1  0
 10  8  1  0
 11 10  1  1
 11 13  1  0
 11 12  1  0
 12  5  1  0
 13 15  1  0
 14 13  2  0
 15 16  1  0
 16 19  1  0
 16 17  1  6
 18 17  1  0
 19 21  1  0
 20 19  2  0
M  END
$$$$
