SLC.pdb
     RDKit          3D

 21 20  0  0  1  0  0  0  0  0999 V2000
    9.6055  -18.7077   23.8694 O   0  0  0  0  0  0  0  0  0  0  0  0
    8.2752  -18.7240   23.5436 C   0  0  0  0  0  0  0  0  0  0  0  0
    7.9676  -17.5522   22.6307 C   0  0  2  0  0  0  0  0  0  0  0  0
    8.6830  -17.7258   21.3518 N   0  0  0  0  0  0  0  0  0  0  0  0
    8.4405  -16.2584   23.1766 C   0  0  0  0  0  0  0  0  0  0  0  0
    9.5041  -15.6913   22.8017 O   0  0  0  0  0  0  0  0  0  0  0  0
    6.9964  -11.3855   25.2347 C   0  0  0  0  0  0  0  0  0  0  0  0
    6.9923  -12.5460   26.2058 C   0  0  1  0  0  0  0  0  0  0  0  0
    5.7235  -12.3556   27.0563 C   0  0  0  0  0  0  0  0  0  0  0  0
    6.8919  -13.8437   25.4933 C   0  0  0  0  0  0  0  0  0  0  0  0
    8.0969  -14.3398   24.7778 C   0  0  2  0  0  0  0  0  0  0  0  0
    7.6857  -15.6122   24.1593 N   0  0  0  0  0  0  0  0  0  0  0  0
    9.2742  -14.6372   25.5896 C   0  0  0  0  0  0  0  0  0  0  0  0
   10.2760  -13.8774   25.5799 O   0  0  0  0  0  0  0  0  0  0  0  0
    9.3643  -15.7735   26.4252 N   0  0  0  0  0  0  0  0  0  0  0  0
   10.5130  -16.0026   27.2968 C   0  0  1  0  0  0  0  0  0  0  0  0
   10.1932  -15.5428   28.7190 C   0  0  0  0  0  0  0  0  0  0  0  0
   10.2419  -13.7367   28.7831 S   0  0  0  0  0  0  0  0  0  0  0  0
   10.8748  -17.4425   27.3037 C   0  0  0  0  0  0  0  0  0  0  0  0
   10.2077  -18.2275   26.5974 O   0  0  0  0  0  0  0  0  0  0  0  0
   11.9258  -17.9240   28.0701 O   0  0  0  0  0  0  0  0  0  0  0  0
  2  1  1  0
  3  2  1  0
  3  4  1  6
  5  3  1  0
  6  5  2  0
  8  9  1  1
  8  7  1  0
 10  8  1  0
 11 10  1  1
 11 13  1  0
 11 12  1  0
 12  5  1  0
 13 15  1  0
 14 13  2  0
 15 16  1  0
 16 19  1  0
 16 17  1  1
 18 17  1  0
 19 21  1  0
 20 19  2  0
M  END
$$$$
