SLC.pdb
     RDKit          3D

 21 20  0  0  1  0  0  0  0  0999 V2000
    9.1998  -18.1785   22.0396 O   0  0  0  0  0  0  0  0  0  0  0  0
    8.0020  -17.6116   21.6935 C   0  0  0  0  0  0  0  0  0  0  0  0
    8.2098  -16.1375   21.4024 C   0  0  2  0  0  0  0  0  0  0  0  0
    9.2632  -15.9831   20.3804 N   0  0  0  0  0  0  0  0  0  0  0  0
    8.6889  -15.3802   22.5825 C   0  0  0  0  0  0  0  0  0  0  0  0
    9.8926  -15.0387   22.7491 O   0  0  0  0  0  0  0  0  0  0  0  0
    5.9309  -11.8408   26.6923 C   0  0  0  0  0  0  0  0  0  0  0  0
    7.1904  -12.2704   25.9720 C   0  0  1  0  0  0  0  0  0  0  0  0
    8.2221  -12.5309   27.0842 C   0  0  0  0  0  0  0  0  0  0  0  0
    6.9774  -13.5327   25.2216 C   0  0  0  0  0  0  0  0  0  0  0  0
    8.1770  -14.3067   24.8070 C   0  0  2  0  0  0  0  0  0  0  0  0
    7.7784  -15.0128   23.5769 N   0  0  0  0  0  0  0  0  0  0  0  0
    8.6584  -15.3293   25.7321 C   0  0  0  0  0  0  0  0  0  0  0  0
    7.9379  -16.3117   26.0431 O   0  0  0  0  0  0  0  0  0  0  0  0
    9.9402  -15.2861   26.3260 N   0  0  0  0  0  0  0  0  0  0  0  0
   10.4290  -16.3586   27.1878 C   0  0  1  0  0  0  0  0  0  0  0  0
   11.8790  -16.6933   26.8387 C   0  0  0  0  0  0  0  0  0  0  0  0
   11.9909  -17.0759   25.0753 S   0  0  0  0  0  0  0  0  0  0  0  0
   10.3357  -15.9560   28.6138 C   0  0  0  0  0  0  0  0  0  0  0  0
    9.9122  -14.8122   28.8831 O   0  0  0  0  0  0  0  0  0  0  0  0
   10.7053  -16.8159   29.6373 O   0  0  0  0  0  0  0  0  0  0  0  0
  2  1  1  0
  3  2  1  0
  3  4  1  6
  5  3  1  0
  6  5  2  0
  8  9  1  1
  8  7  1  0
 10  8  1  0
 11 10  1  1
 11 13  1  0
 11 12  1  0
 12  5  1  0
 13 15  1  0
 14 13  2  0
 15 16  1  0
 16 19  1  0
 16 17  1  6
 18 17  1  0
 19 21  1  0
 20 19  2  0
M  END
$$$$
