SLC.pdb
     RDKit          3D

 21 20  0  0  1  0  0  0  0  0999 V2000
    7.9237  -17.3955   21.0723 O   0  0  0  0  0  0  0  0  0  0  0  0
    6.9348  -16.4489   21.0262 C   0  0  0  0  0  0  0  0  0  0  0  0
    7.5431  -15.0765   21.2436 C   0  0  2  0  0  0  0  0  0  0  0  0
    8.5880  -14.8368   20.2294 N   0  0  0  0  0  0  0  0  0  0  0  0
    8.2258  -14.9509   22.5527 C   0  0  0  0  0  0  0  0  0  0  0  0
    9.4803  -14.9806   22.6897 O   0  0  0  0  0  0  0  0  0  0  0  0
    5.7054  -12.0197   26.6525 C   0  0  0  0  0  0  0  0  0  0  0  0
    6.8391  -12.5064   25.7764 C   0  0  1  0  0  0  0  0  0  0  0  0
    8.1039  -11.8392   26.3460 C   0  0  0  0  0  0  0  0  0  0  0  0
    6.9991  -13.9785   25.8715 C   0  0  0  0  0  0  0  0  0  0  0  0
    8.0584  -14.6181   25.0476 C   0  0  2  0  0  0  0  0  0  0  0  0
    7.4616  -14.7896   23.7116 N   0  0  0  0  0  0  0  0  0  0  0  0
    8.5172  -15.9397   25.4673 C   0  0  0  0  0  0  0  0  0  0  0  0
    7.8292  -16.9668   25.2379 O   0  0  0  0  0  0  0  0  0  0  0  0
    9.7406  -16.1494   26.1433 N   0  0  0  0  0  0  0  0  0  0  0  0
   10.2120  -17.4870   26.4908 C   0  0  1  0  0  0  0  0  0  0  0  0
   11.3575  -17.8971   25.5656 C   0  0  0  0  0  0  0  0  0  0  0  0
   12.0096  -19.4956   26.1023 S   0  0  0  0  0  0  0  0  0  0  0  0
   10.6698  -17.5207   27.9027 C   0  0  0  0  0  0  0  0  0  0  0  0
   10.7796  -16.4398   28.5190 O   0  0  0  0  0  0  0  0  0  0  0  0
   10.9733  -18.7146   28.5398 O   0  0  0  0  0  0  0  0  0  0  0  0
  2  1  1  0
  3  2  1  0
  3  4  1  6
  5  3  1  0
  6  5  2  0
  8  9  1  1
  8  7  1  0
 10  8  1  0
 11 10  1  1
 11 13  1  0
 11 12  1  0
 12  5  1  0
 13 15  1  0
 14 13  2  0
 15 16  1  0
 16 19  1  0
 16 17  1  6
 18 17  1  0
 19 21  1  0
 20 19  2  0
M  END
$$$$
