SLC.pdb
     RDKit          3D

 21 20  0  0  1  0  0  0  0  0999 V2000
    8.3661  -17.3819   21.1890 O   0  0  0  0  0  0  0  0  0  0  0  0
    7.2045  -16.6565   21.1672 C   0  0  0  0  0  0  0  0  0  0  0  0
    7.5285  -15.1846   21.3384 C   0  0  2  0  0  0  0  0  0  0  0  0
    8.4473  -14.7566   20.2658 N   0  0  0  0  0  0  0  0  0  0  0  0
    8.2384  -14.8958   22.6066 C   0  0  0  0  0  0  0  0  0  0  0  0
    9.4851  -14.7130   22.6808 O   0  0  0  0  0  0  0  0  0  0  0  0
    5.8606  -11.9839   26.7215 C   0  0  0  0  0  0  0  0  0  0  0  0
    6.9436  -12.5060   25.8028 C   0  0  1  0  0  0  0  0  0  0  0  0
    8.2347  -11.8052   26.2624 C   0  0  0  0  0  0  0  0  0  0  0  0
    7.1213  -13.9709   25.9582 C   0  0  0  0  0  0  0  0  0  0  0  0
    8.1457  -14.6410   25.1144 C   0  0  2  0  0  0  0  0  0  0  0  0
    7.5103  -14.8160   23.7968 N   0  0  0  0  0  0  0  0  0  0  0  0
    8.5893  -15.9665   25.5379 C   0  0  0  0  0  0  0  0  0  0  0  0
    7.8027  -16.9474   25.5245 O   0  0  0  0  0  0  0  0  0  0  0  0
    9.9054  -16.2315   25.9798 N   0  0  0  0  0  0  0  0  0  0  0  0
   10.3373  -17.5733   26.3606 C   0  0  1  0  0  0  0  0  0  0  0  0
   11.6938  -17.8872   25.7301 C   0  0  0  0  0  0  0  0  0  0  0  0
   11.6476  -17.4508   23.9763 S   0  0  0  0  0  0  0  0  0  0  0  0
   10.4324  -17.6835   27.8381 C   0  0  0  0  0  0  0  0  0  0  0  0
   10.1693  -16.6763   28.5285 O   0  0  0  0  0  0  0  0  0  0  0  0
   10.8029  -18.8686   28.4560 O   0  0  0  0  0  0  0  0  0  0  0  0
  2  1  1  0
  3  2  1  0
  3  4  1  6
  5  3  1  0
  6  5  2  0
  8  9  1  1
  8  7  1  0
 10  8  1  0
 11 10  1  1
 11 13  1  0
 11 12  1  0
 12  5  1  0
 13 15  1  0
 14 13  2  0
 15 16  1  0
 16 19  1  0
 16 17  1  6
 18 17  1  0
 19 21  1  0
 20 19  2  0
M  END
$$$$
