SLC.pdb
     RDKit          3D

 21 20  0  0  1  0  0  0  0  0999 V2000
   10.0471  -18.7703   24.1537 O   0  0  0  0  0  0  0  0  0  0  0  0
    8.6963  -18.9372   24.0008 C   0  0  0  0  0  0  0  0  0  0  0  0
    8.1651  -17.8837   23.0475 C   0  0  2  0  0  0  0  0  0  0  0  0
    8.7115  -18.1234   21.6977 N   0  0  0  0  0  0  0  0  0  0  0  0
    8.5926  -16.5121   23.4100 C   0  0  0  0  0  0  0  0  0  0  0  0
    9.6026  -15.9426   22.9109 O   0  0  0  0  0  0  0  0  0  0  0  0
    7.2022  -11.4300   25.0071 C   0  0  0  0  0  0  0  0  0  0  0  0
    7.0141  -12.5417   26.0162 C   0  0  1  0  0  0  0  0  0  0  0  0
    5.6580  -12.2541   26.6851 C   0  0  0  0  0  0  0  0  0  0  0  0
    6.9401  -13.8659   25.3507 C   0  0  0  0  0  0  0  0  0  0  0  0
    8.1815  -14.4064   24.7367 C   0  0  2  0  0  0  0  0  0  0  0  0
    7.8542  -15.7903   24.3517 N   0  0  0  0  0  0  0  0  0  0  0  0
    9.3638  -14.4843   25.5907 C   0  0  0  0  0  0  0  0  0  0  0  0
   10.1201  -13.4912   25.7414 O   0  0  0  0  0  0  0  0  0  0  0  0
    9.7289  -15.6556   26.2924 N   0  0  0  0  0  0  0  0  0  0  0  0
   10.6484  -15.6222   27.4261 C   0  0  1  0  0  0  0  0  0  0  0  0
   10.0795  -14.7414   28.5381 C   0  0  0  0  0  0  0  0  0  0  0  0
   11.2178  -14.7507   29.9427 S   0  0  0  0  0  0  0  0  0  0  0  0
   10.8801  -16.9951   27.9416 C   0  0  0  0  0  0  0  0  0  0  0  0
   12.0426  -17.3237   28.2589 O   0  0  0  0  0  0  0  0  0  0  0  0
    9.8427  -17.9059   28.0748 O   0  0  0  0  0  0  0  0  0  0  0  0
  2  1  1  0
  3  2  1  0
  3  4  1  6
  5  3  1  0
  6  5  2  0
  8  9  1  6
  8  7  1  0
 10  8  1  0
 11 10  1  1
 11 13  1  0
 11 12  1  0
 12  5  1  0
 13 15  1  0
 14 13  2  0
 15 16  1  0
 16 19  1  0
 16 17  1  1
 18 17  1  0
 19 21  1  0
 20 19  2  0
M  END
$$$$
