SLC.pdb
     RDKit          3D

 21 20  0  0  1  0  0  0  0  0999 V2000
    8.9789  -17.8890   21.9753 O   0  0  0  0  0  0  0  0  0  0  0  0
    8.1243  -17.1944   21.1610 C   0  0  0  0  0  0  0  0  0  0  0  0
    8.2922  -15.7074   21.4089 C   0  0  2  0  0  0  0  0  0  0  0  0
    9.3191  -15.1707   20.4949 N   0  0  0  0  0  0  0  0  0  0  0  0
    8.7800  -15.4035   22.7746 C   0  0  0  0  0  0  0  0  0  0  0  0
   10.0032  -15.3541   23.0824 O   0  0  0  0  0  0  0  0  0  0  0  0
    5.8599  -12.0110   26.2628 C   0  0  0  0  0  0  0  0  0  0  0  0
    7.0555  -12.6182   25.5617 C   0  0  1  0  0  0  0  0  0  0  0  0
    8.2846  -11.9990   26.2511 C   0  0  0  0  0  0  0  0  0  0  0  0
    7.1003  -14.0893   25.7504 C   0  0  0  0  0  0  0  0  0  0  0  0
    8.2533  -14.8300   25.1739 C   0  0  2  0  0  0  0  0  0  0  0  0
    7.8558  -15.1545   23.7929 N   0  0  0  0  0  0  0  0  0  0  0  0
    8.6118  -16.0958   25.8083 C   0  0  0  0  0  0  0  0  0  0  0  0
    7.7977  -17.0531   25.8489 O   0  0  0  0  0  0  0  0  0  0  0  0
    9.8723  -16.3265   26.4047 N   0  0  0  0  0  0  0  0  0  0  0  0
   10.2335  -17.6228   26.9713 C   0  0  1  0  0  0  0  0  0  0  0  0
   11.5825  -18.0807   26.4174 C   0  0  0  0  0  0  0  0  0  0  0  0
   11.5328  -18.0208   24.6111 S   0  0  0  0  0  0  0  0  0  0  0  0
   10.3015  -17.5364   28.4519 C   0  0  0  0  0  0  0  0  0  0  0  0
   10.0593  -16.4384   28.9961 O   0  0  0  0  0  0  0  0  0  0  0  0
   10.6246  -18.6381   29.2299 O   0  0  0  0  0  0  0  0  0  0  0  0
  2  1  1  0
  3  2  1  0
  3  4  1  6
  5  3  1  0
  6  5  2  0
  8  9  1  1
  8  7  1  0
 10  8  1  0
 11 10  1  1
 11 13  1  0
 11 12  1  0
 12  5  1  0
 13 15  1  0
 14 13  2  0
 15 16  1  0
 16 19  1  0
 16 17  1  6
 18 17  1  0
 19 21  1  0
 20 19  2  0
M  END
$$$$
