SLC.pdb
     RDKit          3D

 21 20  0  0  1  0  0  0  0  0999 V2000
    7.7863  -17.3476   21.0923 O   0  0  0  0  0  0  0  0  0  0  0  0
    6.7621  -16.4444   20.9866 C   0  0  0  0  0  0  0  0  0  0  0  0
    7.3047  -15.0433   21.1954 C   0  0  2  0  0  0  0  0  0  0  0  0
    8.2559  -14.7197   20.1146 N   0  0  0  0  0  0  0  0  0  0  0  0
    8.0741  -14.9064   22.4543 C   0  0  0  0  0  0  0  0  0  0  0  0
    9.3354  -14.9174   22.5044 O   0  0  0  0  0  0  0  0  0  0  0  0
    5.7353  -11.9912   26.6468 C   0  0  0  0  0  0  0  0  0  0  0  0
    6.7906  -12.4689   25.6732 C   0  0  1  0  0  0  0  0  0  0  0  0
    8.0655  -11.6915   26.0468 C   0  0  0  0  0  0  0  0  0  0  0  0
    7.0576  -13.9192   25.8376 C   0  0  0  0  0  0  0  0  0  0  0  0
    8.0737  -14.5446   24.9507 C   0  0  2  0  0  0  0  0  0  0  0  0
    7.3894  -14.7551   23.6631 N   0  0  0  0  0  0  0  0  0  0  0  0
    8.5973  -15.8461   25.3573 C   0  0  0  0  0  0  0  0  0  0  0  0
    7.8445  -16.8499   25.4393 O   0  0  0  0  0  0  0  0  0  0  0  0
    9.9570  -16.0615   25.6770 N   0  0  0  0  0  0  0  0  0  0  0  0
   10.4614  -17.3765   26.0619 C   0  0  1  0  0  0  0  0  0  0  0  0
   11.8843  -17.5675   25.5374 C   0  0  0  0  0  0  0  0  0  0  0  0
   12.5379  -19.1363   26.1542 S   0  0  0  0  0  0  0  0  0  0  0  0
   10.4470  -17.5211   27.5395 C   0  0  0  0  0  0  0  0  0  0  0  0
   10.7453  -18.6294   28.0323 O   0  0  0  0  0  0  0  0  0  0  0  0
   10.1127  -16.4619   28.3700 O   0  0  0  0  0  0  0  0  0  0  0  0
  2  1  1  0
  3  2  1  0
  3  4  1  6
  5  3  1  0
  6  5  2  0
  8  9  1  1
  8  7  1  0
 10  8  1  0
 11 10  1  1
 11 13  1  0
 11 12  1  0
 12  5  1  0
 13 15  1  0
 14 13  2  0
 15 16  1  0
 16 19  1  0
 16 17  1  1
 18 17  1  0
 19 21  1  0
 20 19  2  0
M  END
$$$$
