SLC.pdb
     RDKit          3D

 21 20  0  0  1  0  0  0  0  0999 V2000
    8.0490  -20.5016   24.2059 O   0  0  0  0  0  0  0  0  0  0  0  0
    8.0611  -19.2126   24.6690 C   0  0  0  0  0  0  0  0  0  0  0  0
    7.4935  -18.2918   23.6055 C   0  0  2  0  0  0  0  0  0  0  0  0
    7.9434  -18.7436   22.2746 N   0  0  0  0  0  0  0  0  0  0  0  0
    7.9771  -16.8972   23.7348 C   0  0  0  0  0  0  0  0  0  0  0  0
    8.9577  -16.4372   23.0864 O   0  0  0  0  0  0  0  0  0  0  0  0
    7.0806  -11.6436   24.9378 C   0  0  0  0  0  0  0  0  0  0  0  0
    6.9442  -12.6031   26.0999 C   0  0  1  0  0  0  0  0  0  0  0  0
    5.6915  -12.1367   26.8631 C   0  0  0  0  0  0  0  0  0  0  0  0
    6.7189  -13.9917   25.6279 C   0  0  0  0  0  0  0  0  0  0  0  0
    7.8341  -14.6765   24.9225 C   0  0  2  0  0  0  0  0  0  0  0  0
    7.3292  -16.0258   24.6143 N   0  0  0  0  0  0  0  0  0  0  0  0
    9.0761  -14.8613   25.6686 C   0  0  0  0  0  0  0  0  0  0  0  0
   10.1209  -14.2379   25.3512 O   0  0  0  0  0  0  0  0  0  0  0  0
    9.1848  -15.7328   26.7760 N   0  0  0  0  0  0  0  0  0  0  0  0
   10.4306  -15.8816   27.5228 C   0  0  1  0  0  0  0  0  0  0  0  0
   10.3273  -15.1595   28.8660 C   0  0  0  0  0  0  0  0  0  0  0  0
   10.1861  -13.3809   28.5734 S   0  0  0  0  0  0  0  0  0  0  0  0
   10.7280  -17.3189   27.7467 C   0  0  0  0  0  0  0  0  0  0  0  0
    9.9453  -18.1696   27.2736 O   0  0  0  0  0  0  0  0  0  0  0  0
   11.8440  -17.7271   28.4619 O   0  0  0  0  0  0  0  0  0  0  0  0
  2  1  1  0
  3  2  1  0
  3  4  1  6
  5  3  1  0
  6  5  2  0
  8  9  1  1
  8  7  1  0
 10  8  1  0
 11 10  1  1
 11 13  1  0
 11 12  1  0
 12  5  1  0
 13 15  1  0
 14 13  2  0
 15 16  1  0
 16 19  1  0
 16 17  1  1
 18 17  1  0
 19 21  1  0
 20 19  2  0
M  END
$$$$
