SLC.pdb
     RDKit          3D

 21 20  0  0  1  0  0  0  0  0999 V2000
    7.4977  -17.5540   21.9030 O   0  0  0  0  0  0  0  0  0  0  0  0
    8.0845  -16.7356   20.9747 C   0  0  0  0  0  0  0  0  0  0  0  0
    7.8923  -15.2888   21.3879 C   0  0  2  0  0  0  0  0  0  0  0  0
    8.5724  -14.4075   20.4192 N   0  0  0  0  0  0  0  0  0  0  0  0
    8.5039  -14.9799   22.7017 C   0  0  0  0  0  0  0  0  0  0  0  0
    9.7318  -14.7319   22.8572 O   0  0  0  0  0  0  0  0  0  0  0  0
    5.7772  -12.0585   26.5676 C   0  0  0  0  0  0  0  0  0  0  0  0
    6.8949  -12.5882   25.6958 C   0  0  1  0  0  0  0  0  0  0  0  0
    8.1517  -11.8182   26.1392 C   0  0  0  0  0  0  0  0  0  0  0  0
    7.1213  -14.0357   25.9312 C   0  0  0  0  0  0  0  0  0  0  0  0
    8.2302  -14.6956   25.1931 C   0  0  2  0  0  0  0  0  0  0  0  0
    7.6989  -14.9554   23.8437 N   0  0  0  0  0  0  0  0  0  0  0  0
    8.6963  -15.9808   25.7074 C   0  0  0  0  0  0  0  0  0  0  0  0
    7.9365  -16.9822   25.7321 O   0  0  0  0  0  0  0  0  0  0  0  0
   10.0058  -16.1821   26.1996 N   0  0  0  0  0  0  0  0  0  0  0  0
   10.4337  -17.4623   26.7565 C   0  0  1  0  0  0  0  0  0  0  0  0
   11.8131  -17.8361   26.2145 C   0  0  0  0  0  0  0  0  0  0  0  0
   11.7888  -17.7328   24.4096 S   0  0  0  0  0  0  0  0  0  0  0  0
   10.4792  -17.3893   28.2387 C   0  0  0  0  0  0  0  0  0  0  0  0
   10.8311  -18.4054   28.8743 O   0  0  0  0  0  0  0  0  0  0  0  0
   10.1424  -16.2291   28.9197 O   0  0  0  0  0  0  0  0  0  0  0  0
  2  1  1  0
  3  2  1  0
  3  4  1  6
  5  3  1  0
  6  5  2  0
  8  9  1  1
  8  7  1  0
 10  8  1  0
 11 10  1  1
 11 13  1  0
 11 12  1  0
 12  5  1  0
 13 15  1  0
 14 13  2  0
 15 16  1  0
 16 19  1  0
 16 17  1  6
 18 17  1  0
 19 21  1  0
 20 19  2  0
M  END
$$$$
