EFK.pdb
     RDKit          3D

 30 30  0  0  1  0  0  0  0  0999 V2000
   27.6904  -21.9306  -13.7154 N   0  0  0  0  0  0  0  0  0  0  0  0
   28.3001  -21.0042  -12.7654 C   0  0  1  0  0  0  0  0  0  0  0  0
   28.0345  -19.6248  -13.3052 C   0  0  0  0  0  0  0  0  0  0  0  0
   26.7553  -19.4611  -14.0461 C   0  0  0  0  0  0  0  0  0  0  0  0
   26.9398  -18.9675  -15.4183 C   0  0  0  0  0  0  0  0  0  0  0  0
   28.0584  -18.7264  -15.9119 O   0  0  0  0  0  0  0  0  0  0  0  0
   27.6999  -21.2268  -11.4139 C   0  0  0  0  0  0  0  0  0  0  0  0
   26.6363  -21.8990  -11.3177 O   0  0  0  0  0  0  0  0  0  0  0  0
   25.7890  -18.7667  -16.1871 O   0  0  0  0  0  0  0  0  0  0  0  0
   28.3391  -20.6777  -10.2695 N   0  0  0  0  0  0  0  0  0  0  0  0
   27.7693  -20.8449   -8.9312 C   0  0  1  0  0  0  0  0  0  0  0  0
   28.7552  -20.2682   -7.9842 C   0  0  0  0  0  0  0  0  0  0  0  0
   28.4131  -20.1865   -6.5855 C   0  0  0  0  0  0  0  0  0  0  0  0
   28.5325  -21.2398   -5.6907 C   0  0  0  0  0  0  0  0  0  0  0  0
   28.1952  -21.0786   -4.3720 C   0  0  0  0  0  0  0  0  0  0  0  0
   27.7261  -19.8778   -3.8724 C   0  0  0  0  0  0  0  0  0  0  0  0
   27.6023  -18.8261   -4.7450 C   0  0  0  0  0  0  0  0  0  0  0  0
   27.9446  -18.9918   -6.0802 C   0  0  0  0  0  0  0  0  0  0  0  0
   26.4910  -20.1153   -8.7929 C   0  0  0  0  0  0  0  0  0  0  0  0
   26.4478  -18.9398   -9.2390 O   0  0  0  0  0  0  0  0  0  0  0  0
   25.3242  -20.6274   -8.2055 N   0  0  0  0  0  0  0  0  0  0  0  0
   23.9768  -20.3167   -8.6665 C   0  0  1  0  0  0  0  0  0  0  0  0
   23.7888  -20.5424  -10.1112 C   0  0  0  0  0  0  0  0  0  0  0  0
   22.3703  -20.2474  -10.5086 C   0  0  0  0  0  0  0  0  0  0  0  0
   22.1453  -20.5439  -11.9946 C   0  0  0  0  0  0  0  0  0  0  0  0
   20.8506  -19.8559  -12.3723 C   0  0  0  0  0  0  0  0  0  0  0  0
   20.0622  -20.6660  -13.2810 N   0  0  0  0  0  0  0  0  0  0  0  0
   22.9566  -20.9974   -7.8494 C   0  0  0  0  0  0  0  0  0  0  0  0
   23.1256  -21.9245   -7.0476 O   0  0  0  0  0  0  0  0  0  0  0  0
   21.6323  -20.5164   -8.0185 O   0  0  0  0  0  0  0  0  0  0  0  0
  2  1  1  6
  3  2  1  0
  3  4  1  0
  4  5  1  0
  5  6  2  0
  5  9  1  0
  7  2  1  0
  7  8  2  0
 10  7  1  0
 11 10  1  0
 11 12  1  1
 13 12  1  0
 13 18  2  0
 14 13  1  0
 15 14  2  0
 15 16  1  0
 16 17  2  0
 17 18  1  0
 19 11  1  0
 20 19  2  0
 21 19  1  0
 22 21  1  0
 22 28  1  0
 22 23  1  6
 24 23  1  0
 25 24  1  0
 26 27  1  0
 26 25  1  0
 28 29  2  0
 28 30  1  0
M  END
$$$$
