EFK.pdb
     RDKit          3D

 30 30  0  0  1  0  0  0  0  0999 V2000
   24.5309  -17.0381  -15.1657 N   0  0  0  0  0  0  0  0  0  0  0  0
   24.1068  -17.6044  -13.8883 C   0  0  1  0  0  0  0  0  0  0  0  0
   22.6033  -17.5394  -13.8865 C   0  0  0  0  0  0  0  0  0  0  0  0
   21.9202  -18.4592  -14.8350 C   0  0  0  0  0  0  0  0  0  0  0  0
   20.8585  -19.2569  -14.2052 C   0  0  0  0  0  0  0  0  0  0  0  0
   19.6655  -18.8983  -14.1700 O   0  0  0  0  0  0  0  0  0  0  0  0
   24.6299  -19.0009  -13.7764 C   0  0  0  0  0  0  0  0  0  0  0  0
   25.1085  -19.5610  -14.8010 O   0  0  0  0  0  0  0  0  0  0  0  0
   21.2302  -20.4735  -13.6242 O   0  0  0  0  0  0  0  0  0  0  0  0
   24.5770  -19.6656  -12.5214 N   0  0  0  0  0  0  0  0  0  0  0  0
   25.2908  -20.9247  -12.3012 C   0  0  1  0  0  0  0  0  0  0  0  0
   25.1780  -21.2189  -10.8513 C   0  0  0  0  0  0  0  0  0  0  0  0
   26.2308  -20.7829   -9.9674 C   0  0  0  0  0  0  0  0  0  0  0  0
   27.5822  -20.9912  -10.2020 C   0  0  0  0  0  0  0  0  0  0  0  0
   28.5239  -20.5360   -9.3161 C   0  0  0  0  0  0  0  0  0  0  0  0
   28.1824  -19.8566   -8.1613 C   0  0  0  0  0  0  0  0  0  0  0  0
   26.8496  -19.6426   -7.9150 C   0  0  0  0  0  0  0  0  0  0  0  0
   25.8976  -20.1045   -8.8137 C   0  0  0  0  0  0  0  0  0  0  0  0
   24.6781  -22.0339  -13.0627 C   0  0  0  0  0  0  0  0  0  0  0  0
   23.4241  -22.1301  -13.0312 O   0  0  0  0  0  0  0  0  0  0  0  0
   25.3809  -22.9858  -13.8164 N   0  0  0  0  0  0  0  0  0  0  0  0
   24.7588  -23.8741  -14.7903 C   0  0  1  0  0  0  0  0  0  0  0  0
   25.5112  -23.9709  -16.0545 C   0  0  0  0  0  0  0  0  0  0  0  0
   24.8089  -24.8887  -17.0145 C   0  0  0  0  0  0  0  0  0  0  0  0
   25.5984  -25.0226  -18.3205 C   0  0  0  0  0  0  0  0  0  0  0  0
   24.7151  -25.8024  -19.2712 C   0  0  0  0  0  0  0  0  0  0  0  0
   25.3966  -26.0870  -20.5195 N   0  0  0  0  0  0  0  0  0  0  0  0
   24.4625  -25.1937  -14.2051 C   0  0  0  0  0  0  0  0  0  0  0  0
   23.8700  -26.1407  -14.7374 O   0  0  0  0  0  0  0  0  0  0  0  0
   24.9199  -25.3773  -12.8744 O   0  0  0  0  0  0  0  0  0  0  0  0
  2  1  1  6
  3  2  1  0
  3  4  1  0
  4  5  1  0
  5  6  2  0
  5  9  1  0
  7  2  1  0
  7  8  2  0
 10  7  1  0
 11 10  1  0
 11 12  1  1
 13 12  1  0
 13 18  2  0
 14 13  1  0
 15 14  2  0
 15 16  1  0
 16 17  2  0
 17 18  1  0
 19 11  1  0
 20 19  2  0
 21 19  1  0
 22 21  1  0
 22 28  1  0
 22 23  1  6
 24 23  1  0
 25 24  1  0
 26 27  1  0
 26 25  1  0
 28 29  2  0
 28 30  1  0
M  END
$$$$
