EFK.pdb
     RDKit          3D

 30 30  0  0  1  0  0  0  0  0999 V2000
   27.6083  -19.7729  -14.5767 N   0  0  0  0  0  0  0  0  0  0  0  0
   27.2970  -21.1983  -14.6384 C   0  0  1  0  0  0  0  0  0  0  0  0
   28.6218  -21.9073  -14.7195 C   0  0  0  0  0  0  0  0  0  0  0  0
   29.3917  -21.6870  -15.9729 C   0  0  0  0  0  0  0  0  0  0  0  0
   29.3268  -22.8256  -16.9003 C   0  0  0  0  0  0  0  0  0  0  0  0
   28.3185  -23.0936  -17.5819 O   0  0  0  0  0  0  0  0  0  0  0  0
   26.5063  -21.5773  -13.4270 C   0  0  0  0  0  0  0  0  0  0  0  0
   26.2065  -22.7894  -13.2441 O   0  0  0  0  0  0  0  0  0  0  0  0
   30.4643  -23.6322  -17.0052 O   0  0  0  0  0  0  0  0  0  0  0  0
   26.1106  -20.5665  -12.5097 N   0  0  0  0  0  0  0  0  0  0  0  0
   25.0983  -20.8286  -11.4850 C   0  0  1  0  0  0  0  0  0  0  0  0
   25.5579  -20.1318  -10.2583 C   0  0  0  0  0  0  0  0  0  0  0  0
   26.7664  -20.5814   -9.6123 C   0  0  0  0  0  0  0  0  0  0  0  0
   27.7632  -21.3109  -10.2439 C   0  0  0  0  0  0  0  0  0  0  0  0
   28.8890  -21.6929   -9.5617 C   0  0  0  0  0  0  0  0  0  0  0  0
   29.0872  -21.3766   -8.2304 C   0  0  0  0  0  0  0  0  0  0  0  0
   28.1103  -20.6554   -7.5914 C   0  0  0  0  0  0  0  0  0  0  0  0
   26.9709  -20.2696   -8.2845 C   0  0  0  0  0  0  0  0  0  0  0  0
   23.7797  -20.2868  -11.8764 C   0  0  0  0  0  0  0  0  0  0  0  0
   23.7720  -19.2699  -12.6170 O   0  0  0  0  0  0  0  0  0  0  0  0
   22.5386  -20.8145  -11.4895 N   0  0  0  0  0  0  0  0  0  0  0  0
   21.3001  -20.6095  -12.2302 C   0  0  1  0  0  0  0  0  0  0  0  0
   21.3821  -21.0487  -13.6352 C   0  0  0  0  0  0  0  0  0  0  0  0
   21.6753  -22.5203  -13.7090 C   0  0  0  0  0  0  0  0  0  0  0  0
   21.7267  -22.9958  -15.1644 C   0  0  0  0  0  0  0  0  0  0  0  0
   20.3643  -23.5831  -15.4663 C   0  0  0  0  0  0  0  0  0  0  0  0
   20.2761  -24.0472  -16.8376 N   0  0  0  0  0  0  0  0  0  0  0  0
   20.1454  -21.1897  -11.5220 C   0  0  0  0  0  0  0  0  0  0  0  0
   18.9526  -21.1307  -11.8459 O   0  0  0  0  0  0  0  0  0  0  0  0
   20.4626  -21.8942  -10.3317 O   0  0  0  0  0  0  0  0  0  0  0  0
  2  1  1  1
  3  2  1  0
  3  4  1  0
  4  5  1  0
  5  6  2  0
  5  9  1  0
  7  2  1  0
  7  8  2  0
 10  7  1  0
 11 10  1  0
 11 12  1  1
 13 12  1  0
 13 18  2  0
 14 13  1  0
 15 14  2  0
 15 16  1  0
 16 17  2  0
 17 18  1  0
 19 11  1  0
 20 19  2  0
 21 19  1  0
 22 21  1  0
 22 28  1  0
 22 23  1  6
 24 23  1  0
 25 24  1  0
 26 27  1  0
 26 25  1  0
 28 29  2  0
 28 30  1  0
M  END
$$$$
