EFK.pdb
     RDKit          3D

 30 30  0  0  1  0  0  0  0  0999 V2000
   22.0961  -12.9025  -18.9434 N   0  0  0  0  0  0  0  0  0  0  0  0
   22.4899  -11.5229  -19.2154 C   0  0  1  0  0  0  0  0  0  0  0  0
   22.0896  -11.2525  -20.6406 C   0  0  0  0  0  0  0  0  0  0  0  0
   21.3423  -12.3469  -21.3159 C   0  0  0  0  0  0  0  0  0  0  0  0
   22.2124  -13.4242  -21.8087 C   0  0  0  0  0  0  0  0  0  0  0  0
   22.3072  -14.5341  -21.2498 O   0  0  0  0  0  0  0  0  0  0  0  0
   21.8089  -10.6197  -18.2373 C   0  0  0  0  0  0  0  0  0  0  0  0
   20.5515  -10.6597  -18.1374 O   0  0  0  0  0  0  0  0  0  0  0  0
   22.9599  -13.1670  -22.9623 O   0  0  0  0  0  0  0  0  0  0  0  0
   22.5907   -9.7379  -17.4431 N   0  0  0  0  0  0  0  0  0  0  0  0
   21.9612   -8.7873  -16.5246 C   0  0  1  0  0  0  0  0  0  0  0  0
   22.8324   -8.7285  -15.3250 C   0  0  0  0  0  0  0  0  0  0  0  0
   22.4798   -7.8336  -14.2504 C   0  0  0  0  0  0  0  0  0  0  0  0
   21.7013   -8.1931  -13.1599 C   0  0  0  0  0  0  0  0  0  0  0  0
   21.4185   -7.2849  -12.1730 C   0  0  0  0  0  0  0  0  0  0  0  0
   21.8865   -5.9844  -12.2116 C   0  0  0  0  0  0  0  0  0  0  0  0
   22.6580   -5.6133  -13.2839 C   0  0  0  0  0  0  0  0  0  0  0  0
   22.9431   -6.5349  -14.2823 C   0  0  0  0  0  0  0  0  0  0  0  0
   21.8755   -7.4366  -17.1193 C   0  0  0  0  0  0  0  0  0  0  0  0
   22.9076   -6.9890  -17.6822 O   0  0  0  0  0  0  0  0  0  0  0  0
   20.7380   -6.6154  -17.1068 N   0  0  0  0  0  0  0  0  0  0  0  0
   20.6942   -5.2762  -17.6804 C   0  0  1  0  0  0  0  0  0  0  0  0
   19.3690   -4.9149  -18.2161 C   0  0  0  0  0  0  0  0  0  0  0  0
   19.3709   -3.4957  -18.7087 C   0  0  0  0  0  0  0  0  0  0  0  0
   18.3477   -3.3053  -19.8329 C   0  0  0  0  0  0  0  0  0  0  0  0
   18.4757   -1.8652  -20.2824 C   0  0  0  0  0  0  0  0  0  0  0  0
   17.5288   -1.5493  -21.3348 N   0  0  0  0  0  0  0  0  0  0  0  0
   21.2189   -4.2693  -16.7409 C   0  0  0  0  0  0  0  0  0  0  0  0
   22.1732   -3.5005  -16.9124 O   0  0  0  0  0  0  0  0  0  0  0  0
   20.5338   -4.1899  -15.5007 O   0  0  0  0  0  0  0  0  0  0  0  0
  2  1  1  1
  3  2  1  0
  3  4  1  0
  4  5  1  0
  5  6  2  0
  5  9  1  0
  7  2  1  0
  7  8  2  0
 10  7  1  0
 11 10  1  0
 11 12  1  1
 13 12  1  0
 13 18  2  0
 14 13  1  0
 15 14  2  0
 15 16  1  0
 16 17  2  0
 17 18  1  0
 19 11  1  0
 20 19  2  0
 21 19  1  0
 22 21  1  0
 22 28  1  0
 22 23  1  1
 24 23  1  0
 25 24  1  0
 26 27  1  0
 26 25  1  0
 28 29  2  0
 28 30  1  0
M  END
$$$$
