EFK.pdb
     RDKit          3D

 30 30  0  0  1  0  0  0  0  0999 V2000
   13.4983  -11.2330    8.1248 N   0  0  0  0  0  0  0  0  0  0  0  0
   14.8564  -11.7677    8.1708 C   0  0  1  0  0  0  0  0  0  0  0  0
   15.0766  -12.2143    9.5909 C   0  0  0  0  0  0  0  0  0  0  0  0
   15.6413  -11.1870   10.5063 C   0  0  0  0  0  0  0  0  0  0  0  0
   14.6565  -10.6564   11.4597 C   0  0  0  0  0  0  0  0  0  0  0  0
   13.4902  -11.0869   11.5462 O   0  0  0  0  0  0  0  0  0  0  0  0
   14.9741  -12.8849    7.1836 C   0  0  0  0  0  0  0  0  0  0  0  0
   13.9355  -13.5167    6.8448 O   0  0  0  0  0  0  0  0  0  0  0  0
   15.0725   -9.6186   12.2996 O   0  0  0  0  0  0  0  0  0  0  0  0
   16.2502  -13.2102    6.6494 N   0  0  0  0  0  0  0  0  0  0  0  0
   16.4055  -14.2727    5.6542 C   0  0  1  0  0  0  0  0  0  0  0  0
   17.3681  -13.7621    4.6472 C   0  0  0  0  0  0  0  0  0  0  0  0
   17.7345  -14.6105    3.5399 C   0  0  0  0  0  0  0  0  0  0  0  0
   17.3018  -15.9194    3.3840 C   0  0  0  0  0  0  0  0  0  0  0  0
   17.6876  -16.6583    2.2959 C   0  0  0  0  0  0  0  0  0  0  0  0
   18.5143  -16.1467    1.3127 C   0  0  0  0  0  0  0  0  0  0  0  0
   18.9508  -14.8533    1.4525 C   0  0  0  0  0  0  0  0  0  0  0  0
   18.5587  -14.1069    2.5555 C   0  0  0  0  0  0  0  0  0  0  0  0
   16.9558  -15.5041    6.2595 C   0  0  0  0  0  0  0  0  0  0  0  0
   18.0537  -15.4066    6.8658 O   0  0  0  0  0  0  0  0  0  0  0  0
   16.3532  -16.7703    6.2125 N   0  0  0  0  0  0  0  0  0  0  0  0
   16.9558  -17.9796    6.7593 C   0  0  1  0  0  0  0  0  0  0  0  0
   16.1882  -18.5591    7.8767 C   0  0  0  0  0  0  0  0  0  0  0  0
   16.3869  -17.7488    9.1261 C   0  0  0  0  0  0  0  0  0  0  0  0
   15.5471  -18.3067   10.2795 C   0  0  0  0  0  0  0  0  0  0  0  0
   15.7734  -17.3798   11.4550 C   0  0  0  0  0  0  0  0  0  0  0  0
   14.8727  -17.6801   12.5515 N   0  0  0  0  0  0  0  0  0  0  0  0
   17.2464  -18.9636    5.7014 C   0  0  0  0  0  0  0  0  0  0  0  0
   16.7293  -19.0426    4.5801 O   0  0  0  0  0  0  0  0  0  0  0  0
   18.2390  -19.9232    6.0296 O   0  0  0  0  0  0  0  0  0  0  0  0
  2  1  1  1
  3  2  1  0
  3  4  1  0
  4  5  1  0
  5  6  2  0
  5  9  1  0
  7  2  1  0
  7  8  2  0
 10  7  1  0
 11 10  1  0
 11 12  1  6
 13 12  1  0
 13 18  2  0
 14 13  1  0
 15 14  2  0
 15 16  1  0
 16 17  2  0
 17 18  1  0
 19 11  1  0
 20 19  2  0
 21 19  1  0
 22 21  1  0
 22 28  1  0
 22 23  1  1
 24 23  1  0
 25 24  1  0
 26 27  1  0
 26 25  1  0
 28 29  2  0
 28 30  1  0
M  END
$$$$
