EFK.pdb
     RDKit          3D

 30 30  0  0  1  0  0  0  0  0999 V2000
   27.3465  -19.5593  -18.8381 N   0  0  0  0  0  0  0  0  0  0  0  0
   26.3731  -18.8984  -17.9732 C   0  0  1  0  0  0  0  0  0  0  0  0
   25.1997  -18.5621  -18.8533 C   0  0  0  0  0  0  0  0  0  0  0  0
   25.3639  -17.3563  -19.7084 C   0  0  0  0  0  0  0  0  0  0  0  0
   25.9901  -16.2280  -19.0046 C   0  0  0  0  0  0  0  0  0  0  0  0
   27.2240  -16.0937  -18.8930 O   0  0  0  0  0  0  0  0  0  0  0  0
   26.0147  -19.8190  -16.8504 C   0  0  0  0  0  0  0  0  0  0  0  0
   25.6540  -20.9989  -17.1154 O   0  0  0  0  0  0  0  0  0  0  0  0
   25.1387  -15.2720  -18.4415 O   0  0  0  0  0  0  0  0  0  0  0  0
   26.0879  -19.3461  -15.5123 N   0  0  0  0  0  0  0  0  0  0  0  0
   25.6507  -20.1789  -14.3903 C   0  0  1  0  0  0  0  0  0  0  0  0
   26.3261  -19.6401  -13.1841 C   0  0  0  0  0  0  0  0  0  0  0  0
   26.0468  -20.2394  -11.9024 C   0  0  0  0  0  0  0  0  0  0  0  0
   26.5299  -21.4752  -11.4976 C   0  0  0  0  0  0  0  0  0  0  0  0
   26.2267  -21.9721  -10.2566 C   0  0  0  0  0  0  0  0  0  0  0  0
   25.4366  -21.2794   -9.3579 C   0  0  0  0  0  0  0  0  0  0  0  0
   24.9511  -20.0553   -9.7435 C   0  0  0  0  0  0  0  0  0  0  0  0
   25.2596  -19.5541  -11.0008 C   0  0  0  0  0  0  0  0  0  0  0  0
   24.1876  -20.0978  -14.1948 C   0  0  0  0  0  0  0  0  0  0  0  0
   23.6641  -18.9545  -14.2334 O   0  0  0  0  0  0  0  0  0  0  0  0
   23.3374  -21.1911  -13.9704 N   0  0  0  0  0  0  0  0  0  0  0  0
   21.9001  -21.0746  -13.7579 C   0  0  1  0  0  0  0  0  0  0  0  0
   21.1219  -22.1145  -14.4557 C   0  0  0  0  0  0  0  0  0  0  0  0
   21.1253  -23.3920  -13.6651 C   0  0  0  0  0  0  0  0  0  0  0  0
   20.3014  -24.4740  -14.3702 C   0  0  0  0  0  0  0  0  0  0  0  0
   20.2571  -25.6558  -13.4248 C   0  0  0  0  0  0  0  0  0  0  0  0
   19.4543  -26.7378  -13.9618 N   0  0  0  0  0  0  0  0  0  0  0  0
   21.5718  -20.9883  -12.3239 C   0  0  0  0  0  0  0  0  0  0  0  0
   20.5107  -20.6086  -11.8130 O   0  0  0  0  0  0  0  0  0  0  0  0
   22.6093  -21.3933  -11.4445 O   0  0  0  0  0  0  0  0  0  0  0  0
  2  1  1  6
  3  2  1  0
  3  4  1  0
  4  5  1  0
  5  6  2  0
  5  9  1  0
  7  2  1  0
  7  8  2  0
 10  7  1  0
 11 10  1  0
 11 12  1  1
 13 12  1  0
 13 18  2  0
 14 13  1  0
 15 14  2  0
 15 16  1  0
 16 17  2  0
 17 18  1  0
 19 11  1  0
 20 19  2  0
 21 19  1  0
 22 21  1  0
 22 28  1  0
 22 23  1  1
 24 23  1  0
 25 24  1  0
 26 27  1  0
 26 25  1  0
 28 29  2  0
 28 30  1  0
M  END
$$$$
