EFK.pdb
     RDKit          3D

 30 30  0  0  1  0  0  0  0  0999 V2000
   26.4993  -22.9755  -16.6184 N   0  0  0  0  0  0  0  0  0  0  0  0
   26.5979  -21.7094  -15.8976 C   0  0  1  0  0  0  0  0  0  0  0  0
   25.9296  -20.6831  -16.7721 C   0  0  0  0  0  0  0  0  0  0  0  0
   26.6959  -20.2712  -17.9784 C   0  0  0  0  0  0  0  0  0  0  0  0
   28.1214  -20.0370  -17.7071 C   0  0  0  0  0  0  0  0  0  0  0  0
   28.5291  -19.2245  -16.8545 O   0  0  0  0  0  0  0  0  0  0  0  0
   25.9393  -21.8557  -14.5630 C   0  0  0  0  0  0  0  0  0  0  0  0
   24.8610  -22.5058  -14.4785 O   0  0  0  0  0  0  0  0  0  0  0  0
   29.0454  -20.7737  -18.4548 O   0  0  0  0  0  0  0  0  0  0  0  0
   26.5408  -21.2608  -13.4211 N   0  0  0  0  0  0  0  0  0  0  0  0
   25.8527  -21.2373  -12.1290 C   0  0  1  0  0  0  0  0  0  0  0  0
   26.8408  -20.7399  -11.1403 C   0  0  0  0  0  0  0  0  0  0  0  0
   26.3883  -20.3960   -9.8148 C   0  0  0  0  0  0  0  0  0  0  0  0
   26.7553  -19.2402   -9.1409 C   0  0  0  0  0  0  0  0  0  0  0  0
   26.2731  -18.9804   -7.8845 C   0  0  0  0  0  0  0  0  0  0  0  0
   25.4098  -19.8420   -7.2333 C   0  0  0  0  0  0  0  0  0  0  0  0
   25.0372  -20.9897   -7.8867 C   0  0  0  0  0  0  0  0  0  0  0  0
   25.5270  -21.2507   -9.1592 C   0  0  0  0  0  0  0  0  0  0  0  0
   24.6943  -20.3191  -12.1499 C   0  0  0  0  0  0  0  0  0  0  0  0
   24.8565  -19.2002  -12.7016 O   0  0  0  0  0  0  0  0  0  0  0  0
   23.4309  -20.5945  -11.6054 N   0  0  0  0  0  0  0  0  0  0  0  0
   22.1823  -20.0591  -12.1336 C   0  0  1  0  0  0  0  0  0  0  0  0
   22.0584  -20.2044  -13.5956 C   0  0  0  0  0  0  0  0  0  0  0  0
   20.7929  -19.5572  -14.0821 C   0  0  0  0  0  0  0  0  0  0  0  0
   20.5940  -19.8028  -15.5811 C   0  0  0  0  0  0  0  0  0  0  0  0
   20.6663  -18.4445  -16.2459 C   0  0  0  0  0  0  0  0  0  0  0  0
   20.5038  -18.5456  -17.6836 N   0  0  0  0  0  0  0  0  0  0  0  0
   21.0161  -20.5960  -11.4103 C   0  0  0  0  0  0  0  0  0  0  0  0
   20.9809  -21.5743  -10.6535 O   0  0  0  0  0  0  0  0  0  0  0  0
   19.8019  -19.8924  -11.6214 O   0  0  0  0  0  0  0  0  0  0  0  0
  2  1  1  6
  3  2  1  0
  3  4  1  0
  4  5  1  0
  5  6  2  0
  5  9  1  0
  7  2  1  0
  7  8  2  0
 10  7  1  0
 11 10  1  0
 11 12  1  1
 13 12  1  0
 13 18  2  0
 14 13  1  0
 15 14  2  0
 15 16  1  0
 16 17  2  0
 17 18  1  0
 19 11  1  0
 20 19  2  0
 21 19  1  0
 22 21  1  0
 22 28  1  0
 22 23  1  6
 24 23  1  0
 25 24  1  0
 26 27  1  0
 26 25  1  0
 28 29  2  0
 28 30  1  0
M  END
$$$$
