EFK.pdb
     RDKit          3D

 30 30  0  0  1  0  0  0  0  0999 V2000
   29.4070  -22.7205  -16.9745 N   0  0  0  0  0  0  0  0  0  0  0  0
   28.2249  -21.8634  -16.9999 C   0  0  1  0  0  0  0  0  0  0  0  0
   27.5164  -22.1752  -18.2904 C   0  0  0  0  0  0  0  0  0  0  0  0
   28.0940  -21.5457  -19.5079 C   0  0  0  0  0  0  0  0  0  0  0  0
   28.1965  -20.0827  -19.4105 C   0  0  0  0  0  0  0  0  0  0  0  0
   27.2042  -19.3334  -19.3270 O   0  0  0  0  0  0  0  0  0  0  0  0
   27.3898  -22.1489  -15.7927 C   0  0  0  0  0  0  0  0  0  0  0  0
   27.2140  -23.3470  -15.4372 O   0  0  0  0  0  0  0  0  0  0  0  0
   29.4805  -19.5287  -19.4135 O   0  0  0  0  0  0  0  0  0  0  0  0
   26.8135  -21.0672  -15.0733 N   0  0  0  0  0  0  0  0  0  0  0  0
   26.0852  -21.2922  -13.8234 C   0  0  1  0  0  0  0  0  0  0  0  0
   26.5145  -20.2193  -12.8927 C   0  0  0  0  0  0  0  0  0  0  0  0
   27.1170  -20.5871  -11.6351 C   0  0  0  0  0  0  0  0  0  0  0  0
   26.4317  -20.6487  -10.4305 C   0  0  0  0  0  0  0  0  0  0  0  0
   27.0753  -21.0174   -9.2779 C   0  0  0  0  0  0  0  0  0  0  0  0
   28.4191  -21.3421   -9.2554 C   0  0  0  0  0  0  0  0  0  0  0  0
   29.1111  -21.2861  -10.4390 C   0  0  0  0  0  0  0  0  0  0  0  0
   28.4570  -20.9123  -11.6051 C   0  0  0  0  0  0  0  0  0  0  0  0
   24.6238  -21.1940  -14.0239 C   0  0  0  0  0  0  0  0  0  0  0  0
   24.2091  -20.3024  -14.8086 O   0  0  0  0  0  0  0  0  0  0  0  0
   23.6641  -22.0136  -13.4111 N   0  0  0  0  0  0  0  0  0  0  0  0
   22.2256  -21.8075  -13.5241 C   0  0  1  0  0  0  0  0  0  0  0  0
   21.4325  -22.9286  -12.9876 C   0  0  0  0  0  0  0  0  0  0  0  0
   19.9640  -22.6628  -13.1602 C   0  0  0  0  0  0  0  0  0  0  0  0
   19.1332  -23.8705  -12.7149 C   0  0  0  0  0  0  0  0  0  0  0  0
   17.6878  -23.5156  -12.9925 C   0  0  0  0  0  0  0  0  0  0  0  0
   17.3231  -23.8029  -14.3666 N   0  0  0  0  0  0  0  0  0  0  0  0
   21.8209  -20.5070  -12.9614 C   0  0  0  0  0  0  0  0  0  0  0  0
   22.2396  -19.9666  -11.9301 O   0  0  0  0  0  0  0  0  0  0  0  0
   20.8341  -19.8107  -13.7065 O   0  0  0  0  0  0  0  0  0  0  0  0
  2  1  1  1
  3  2  1  0
  3  4  1  0
  4  5  1  0
  5  6  2  0
  5  9  1  0
  7  2  1  0
  7  8  2  0
 10  7  1  0
 11 10  1  0
 11 12  1  1
 13 12  1  0
 13 18  2  0
 14 13  1  0
 15 14  2  0
 15 16  1  0
 16 17  2  0
 17 18  1  0
 19 11  1  0
 20 19  2  0
 21 19  1  0
 22 21  1  0
 22 28  1  0
 22 23  1  1
 24 23  1  0
 25 24  1  0
 26 27  1  0
 26 25  1  0
 28 29  2  0
 28 30  1  0
M  END
$$$$
