EFK.pdb
     RDKit          3D

 30 30  0  0  1  0  0  0  0  0999 V2000
   27.4179  -21.5668  -13.9293 N   0  0  0  0  0  0  0  0  0  0  0  0
   27.4922  -20.4140  -13.0361 C   0  0  1  0  0  0  0  0  0  0  0  0
   26.5480  -19.3894  -13.6047 C   0  0  0  0  0  0  0  0  0  0  0  0
   25.3576  -19.9354  -14.3099 C   0  0  0  0  0  0  0  0  0  0  0  0
   25.3523  -19.6416  -15.7501 C   0  0  0  0  0  0  0  0  0  0  0  0
   26.2927  -19.0679  -16.3328 O   0  0  0  0  0  0  0  0  0  0  0  0
   27.1212  -20.8443  -11.6528 C   0  0  0  0  0  0  0  0  0  0  0  0
   26.3579  -21.8381  -11.5031 O   0  0  0  0  0  0  0  0  0  0  0  0
   24.2262  -20.0350  -16.4800 O   0  0  0  0  0  0  0  0  0  0  0  0
   27.6351  -20.1265  -10.5392 N   0  0  0  0  0  0  0  0  0  0  0  0
   27.2714  -20.4931   -9.1692 C   0  0  1  0  0  0  0  0  0  0  0  0
   28.0356  -19.5852   -8.2786 C   0  0  0  0  0  0  0  0  0  0  0  0
   27.8718  -19.7083   -6.8510 C   0  0  0  0  0  0  0  0  0  0  0  0
   27.5817  -18.6477   -6.0052 C   0  0  0  0  0  0  0  0  0  0  0  0
   27.4311  -18.8490   -4.6577 C   0  0  0  0  0  0  0  0  0  0  0  0
   27.5583  -20.0988   -4.0802 C   0  0  0  0  0  0  0  0  0  0  0  0
   27.8451  -21.1583   -4.9037 C   0  0  0  0  0  0  0  0  0  0  0  0
   27.9972  -20.9519   -6.2681 C   0  0  0  0  0  0  0  0  0  0  0  0
   25.8267  -20.2991   -8.9230 C   0  0  0  0  0  0  0  0  0  0  0  0
   25.3491  -19.1610   -9.1664 O   0  0  0  0  0  0  0  0  0  0  0  0
   24.9470  -21.2800   -8.4411 N   0  0  0  0  0  0  0  0  0  0  0  0
   23.5167  -21.0702   -8.2543 C   0  0  1  0  0  0  0  0  0  0  0  0
   22.7016  -21.5881   -9.3683 C   0  0  0  0  0  0  0  0  0  0  0  0
   21.2465  -21.2971   -9.1337 C   0  0  0  0  0  0  0  0  0  0  0  0
   20.3863  -21.8557  -10.2716 C   0  0  0  0  0  0  0  0  0  0  0  0
   20.1207  -20.6972  -11.2095 C   0  0  0  0  0  0  0  0  0  0  0  0
   19.1889  -21.0640  -12.2587 N   0  0  0  0  0  0  0  0  0  0  0  0
   23.0650  -21.5679   -6.9428 C   0  0  0  0  0  0  0  0  0  0  0  0
   23.7298  -22.1779   -6.0961 O   0  0  0  0  0  0  0  0  0  0  0  0
   21.7046  -21.3051   -6.6365 O   0  0  0  0  0  0  0  0  0  0  0  0
  2  1  1  6
  3  2  1  0
  3  4  1  0
  4  5  1  0
  5  6  2  0
  5  9  1  0
  7  2  1  0
  7  8  2  0
 10  7  1  0
 11 10  1  0
 11 12  1  1
 13 12  1  0
 13 18  2  0
 14 13  1  0
 15 14  2  0
 15 16  1  0
 16 17  2  0
 17 18  1  0
 19 11  1  0
 20 19  2  0
 21 19  1  0
 22 21  1  0
 22 28  1  0
 22 23  1  6
 24 23  1  0
 25 24  1  0
 26 27  1  0
 26 25  1  0
 28 29  2  0
 28 30  1  0
M  END
$$$$
