QEA.pdb
     RDKit          3D

 24 23  0  0  1  0  0  0  0  0999 V2000
   10.0349  -13.1518   19.5161 N   0  0  0  0  0  0  0  0  0  0  0  0
    8.8119  -12.9657   18.8198 C   0  0  0  0  0  0  0  0  0  0  0  0
    8.8466  -12.5565   17.6446 O   0  0  0  0  0  0  0  0  0  0  0  0
    7.4872  -13.2532   19.4757 C   0  0  0  0  0  0  0  0  0  0  0  0
    7.7524  -13.7835   20.8396 C   0  0  0  0  0  0  0  0  0  0  0  0
    8.3587  -15.1411   20.9177 C   0  0  2  0  0  0  0  0  0  0  0  0
    7.3631  -16.0425   20.2812 N   0  0  0  0  0  0  0  0  0  0  0  0
    8.5883  -15.6619   22.2680 C   0  0  0  0  0  0  0  0  0  0  0  0
    7.6272  -16.0052   23.0130 O   0  0  0  0  0  0  0  0  0  0  0  0
    9.8855  -15.8269   22.8429 N   0  0  0  0  0  0  0  0  0  0  0  0
   10.0375  -16.3397   24.1912 C   0  0  1  0  0  0  0  0  0  0  0  0
   11.2599  -17.2815   24.2259 C   0  0  0  0  0  0  0  0  0  0  0  0
   12.4795  -16.4722   23.8455 C   0  0  0  0  0  0  0  0  0  0  0  0
   13.6787  -17.3248   23.8080 C   0  0  0  0  0  0  0  0  0  0  0  0
   13.7270  -18.3859   23.1446 O   0  0  0  0  0  0  0  0  0  0  0  0
   10.1655  -15.3116   25.2309 C   0  0  0  0  0  0  0  0  0  0  0  0
   10.8563  -14.2788   24.9533 O   0  0  0  0  0  0  0  0  0  0  0  0
   14.7949  -16.9472   24.5279 O   0  0  0  0  0  0  0  0  0  0  0  0
    8.5771  -13.4842   27.6875 C   0  0  0  0  0  0  0  0  0  0  0  0
    9.8009  -14.3693   27.5351 C   0  0  2  0  0  0  0  0  0  0  0  0
    9.5939  -15.3663   26.5006 N   0  0  0  0  0  0  0  0  0  0  0  0
   10.1101  -14.9914   28.8419 C   0  0  0  0  0  0  0  0  0  0  0  0
   10.5280  -14.2641   29.9424 O   0  0  0  0  0  0  0  0  0  0  0  0
    9.9931  -16.2340   28.9750 O   0  0  0  0  0  0  0  0  0  0  0  0
  1  2  1  0
  2  3  2  0
  4  5  1  0
  4  2  1  0
  6  5  1  0
  6  7  1  6
  8  6  1  0
  8 10  1  0
  9  8  2  0
 10 11  1  0
 11 16  1  0
 12 13  1  0
 11 12  1  6
 13 14  1  0
 14 18  1  0
 14 15  2  0
 16 17  2  0
 20 19  1  1
 20 22  1  0
 21 20  1  0
 21 16  1  0
 22 24  2  0
 22 23  1  0
M  END
$$$$
