QEA.pdb
     RDKit          3D

 24 23  0  0  1  0  0  0  0  0999 V2000
    8.5591  -14.2870   14.2594 N   0  0  0  0  0  0  0  0  0  0  0  0
    7.8667  -14.6661   15.4393 C   0  0  0  0  0  0  0  0  0  0  0  0
    6.7967  -15.2933   15.3319 O   0  0  0  0  0  0  0  0  0  0  0  0
    8.4025  -14.3240   16.8044 C   0  0  0  0  0  0  0  0  0  0  0  0
    7.2465  -14.0533   17.6999 C   0  0  0  0  0  0  0  0  0  0  0  0
    7.5658  -13.7455   19.1213 C   0  0  2  0  0  0  0  0  0  0  0  0
    8.6558  -12.7371   19.0594 N   0  0  0  0  0  0  0  0  0  0  0  0
    8.0780  -14.8638   19.9179 C   0  0  0  0  0  0  0  0  0  0  0  0
    7.3439  -15.8466   20.2207 O   0  0  0  0  0  0  0  0  0  0  0  0
    9.4187  -14.9401   20.4048 N   0  0  0  0  0  0  0  0  0  0  0  0
    9.8333  -16.0340   21.2624 C   0  0  1  0  0  0  0  0  0  0  0  0
   11.1489  -16.6227   20.7100 C   0  0  0  0  0  0  0  0  0  0  0  0
   11.4777  -17.8594   21.5159 C   0  0  0  0  0  0  0  0  0  0  0  0
   12.6837  -18.5183   20.9889 C   0  0  0  0  0  0  0  0  0  0  0  0
   12.6659  -19.6840   20.5316 O   0  0  0  0  0  0  0  0  0  0  0  0
    9.9962  -15.6802   22.6776 C   0  0  0  0  0  0  0  0  0  0  0  0
   10.7316  -14.6774   22.9510 O   0  0  0  0  0  0  0  0  0  0  0  0
   13.8821  -17.8323   20.9957 O   0  0  0  0  0  0  0  0  0  0  0  0
    8.2829  -14.9417   25.4055 C   0  0  0  0  0  0  0  0  0  0  0  0
    9.4468  -15.8751   25.1250 C   0  0  2  0  0  0  0  0  0  0  0  0
    9.4133  -16.3476   23.7530 N   0  0  0  0  0  0  0  0  0  0  0  0
    9.4086  -16.9951   26.0916 C   0  0  0  0  0  0  0  0  0  0  0  0
    9.6513  -16.8317   27.4440 O   0  0  0  0  0  0  0  0  0  0  0  0
    9.1454  -18.1523   25.6826 O   0  0  0  0  0  0  0  0  0  0  0  0
  1  2  1  0
  2  3  2  0
  4  5  1  0
  4  2  1  0
  6  5  1  0
  6  7  1  6
  8  6  1  0
  8 10  1  0
  9  8  2  0
 10 11  1  0
 11 16  1  0
 12 13  1  0
 11 12  1  6
 13 14  1  0
 14 18  1  0
 14 15  2  0
 16 17  2  0
 20 19  1  1
 20 22  1  0
 21 20  1  0
 21 16  1  0
 22 24  2  0
 22 23  1  0
M  END
$$$$
