QEA.pdb
     RDKit          3D

 24 23  0  0  1  0  0  0  0  0999 V2000
   12.8381  -15.1497   13.4092 N   0  0  0  0  0  0  0  0  0  0  0  0
   11.4666  -14.8962   13.1446 C   0  0  0  0  0  0  0  0  0  0  0  0
   11.1266  -13.7555   12.7801 O   0  0  0  0  0  0  0  0  0  0  0  0
   10.4284  -15.9762   13.2969 C   0  0  0  0  0  0  0  0  0  0  0  0
   10.0744  -16.0770   14.7378 C   0  0  0  0  0  0  0  0  0  0  0  0
    9.1527  -17.1824   15.1192 C   0  0  2  0  0  0  0  0  0  0  0  0
    7.8070  -16.7270   14.6825 N   0  0  0  0  0  0  0  0  0  0  0  0
    9.0515  -17.4640   16.5537 C   0  0  0  0  0  0  0  0  0  0  0  0
    8.1578  -16.9277   17.2681 O   0  0  0  0  0  0  0  0  0  0  0  0
    9.9290  -18.3501   17.2503 N   0  0  0  0  0  0  0  0  0  0  0  0
    9.8035  -18.5413   18.6826 C   0  0  1  0  0  0  0  0  0  0  0  0
   10.2770  -19.9679   19.0334 C   0  0  0  0  0  0  0  0  0  0  0  0
   10.0755  -20.1712   20.5183 C   0  0  0  0  0  0  0  0  0  0  0  0
   10.5284  -21.5109   20.9262 C   0  0  0  0  0  0  0  0  0  0  0  0
   11.6004  -21.6968   21.5463 O   0  0  0  0  0  0  0  0  0  0  0  0
   10.5225  -17.5577   19.5012 C   0  0  0  0  0  0  0  0  0  0  0  0
   11.6861  -17.2123   19.1166 O   0  0  0  0  0  0  0  0  0  0  0  0
    9.7480  -22.6075   20.6173 O   0  0  0  0  0  0  0  0  0  0  0  0
    9.8688  -15.3053   22.4557 C   0  0  0  0  0  0  0  0  0  0  0  0
   10.7801  -15.9999   21.4600 C   0  0  2  0  0  0  0  0  0  0  0  0
   10.0410  -16.9651   20.6668 N   0  0  0  0  0  0  0  0  0  0  0  0
   11.8984  -16.6341   22.1929 C   0  0  0  0  0  0  0  0  0  0  0  0
   12.9505  -15.9146   22.7315 O   0  0  0  0  0  0  0  0  0  0  0  0
   11.9083  -17.8805   22.3418 O   0  0  0  0  0  0  0  0  0  0  0  0
  1  2  1  0
  2  3  2  0
  4  5  1  0
  4  2  1  0
  6  5  1  0
  6  7  1  1
  8  6  1  0
  8 10  1  0
  9  8  2  0
 10 11  1  0
 11 16  1  0
 12 13  1  0
 11 12  1  6
 13 14  1  0
 14 18  1  0
 14 15  2  0
 16 17  2  0
 20 19  1  1
 20 22  1  0
 21 20  1  0
 21 16  1  0
 22 24  2  0
 22 23  1  0
M  END
$$$$
