QEA.pdb
     RDKit          3D

 24 23  0  0  1  0  0  0  0  0999 V2000
    7.6783  -13.1722   16.5177 N   0  0  0  0  0  0  0  0  0  0  0  0
    8.0593  -13.0631   17.8809 C   0  0  0  0  0  0  0  0  0  0  0  0
    9.2498  -12.8222   18.1539 O   0  0  0  0  0  0  0  0  0  0  0  0
    7.0544  -13.2326   18.9895 C   0  0  0  0  0  0  0  0  0  0  0  0
    7.6331  -14.1575   20.0002 C   0  0  0  0  0  0  0  0  0  0  0  0
    7.9290  -15.5423   19.5401 C   0  0  2  0  0  0  0  0  0  0  0  0
    6.6004  -16.1417   19.2495 N   0  0  0  0  0  0  0  0  0  0  0  0
    8.5747  -16.4177   20.5220 C   0  0  0  0  0  0  0  0  0  0  0  0
    7.9037  -17.2243   21.2261 O   0  0  0  0  0  0  0  0  0  0  0  0
    9.9832  -16.4380   20.7591 N   0  0  0  0  0  0  0  0  0  0  0  0
   10.5633  -17.3876   21.6896 C   0  0  1  0  0  0  0  0  0  0  0  0
   11.9389  -17.8316   21.1481 C   0  0  0  0  0  0  0  0  0  0  0  0
   11.7053  -18.6143   19.8754 C   0  0  0  0  0  0  0  0  0  0  0  0
   12.9841  -19.0433   19.2863 C   0  0  0  0  0  0  0  0  0  0  0  0
   13.3760  -20.2319   19.3264 O   0  0  0  0  0  0  0  0  0  0  0  0
   10.6997  -16.8969   23.0662 C   0  0  0  0  0  0  0  0  0  0  0  0
   11.6137  -16.0409   23.2964 O   0  0  0  0  0  0  0  0  0  0  0  0
   13.7861  -18.1063   18.6652 O   0  0  0  0  0  0  0  0  0  0  0  0
    8.8106  -16.8056   26.2786 C   0  0  0  0  0  0  0  0  0  0  0  0
   10.1215  -16.8427   25.5142 C   0  0  2  0  0  0  0  0  0  0  0  0
    9.9126  -17.2864   24.1480 N   0  0  0  0  0  0  0  0  0  0  0  0
   11.0737  -17.7169   26.2349 C   0  0  0  0  0  0  0  0  0  0  0  0
   11.5926  -17.4019   27.4784 O   0  0  0  0  0  0  0  0  0  0  0  0
   11.4375  -18.7967   25.7083 O   0  0  0  0  0  0  0  0  0  0  0  0
  1  2  1  0
  2  3  2  0
  4  5  1  0
  4  2  1  0
  6  5  1  0
  6  7  1  1
  8  6  1  0
  8 10  1  0
  9  8  2  0
 10 11  1  0
 11 16  1  0
 12 13  1  0
 11 12  1  6
 13 14  1  0
 14 18  1  0
 14 15  2  0
 16 17  2  0
 20 19  1  1
 20 22  1  0
 21 20  1  0
 21 16  1  0
 22 24  2  0
 22 23  1  0
M  END
$$$$
