QEA.pdb
     RDKit          3D

 24 23  0  0  1  0  0  0  0  0999 V2000
    8.8472  -13.8938   15.1131 N   0  0  0  0  0  0  0  0  0  0  0  0
    7.9750  -14.3259   16.1465 C   0  0  0  0  0  0  0  0  0  0  0  0
    7.3953  -15.4207   16.0238 O   0  0  0  0  0  0  0  0  0  0  0  0
    7.7437  -13.4876   17.3758 C   0  0  0  0  0  0  0  0  0  0  0  0
    7.9039  -14.3619   18.5681 C   0  0  0  0  0  0  0  0  0  0  0  0
    8.3848  -13.7037   19.8141 C   0  0  2  0  0  0  0  0  0  0  0  0
    9.8537  -13.9299   19.8245 N   0  0  0  0  0  0  0  0  0  0  0  0
    7.8696  -14.2574   21.0692 C   0  0  0  0  0  0  0  0  0  0  0  0
    6.6687  -14.0828   21.4214 O   0  0  0  0  0  0  0  0  0  0  0  0
    8.6587  -15.0267   21.9780 N   0  0  0  0  0  0  0  0  0  0  0  0
    8.1341  -15.4051   23.2763 C   0  0  1  0  0  0  0  0  0  0  0  0
    8.8534  -16.6880   23.7443 C   0  0  0  0  0  0  0  0  0  0  0  0
   10.3340  -16.3890   23.8170 C   0  0  0  0  0  0  0  0  0  0  0  0
   11.0801  -17.5667   24.2890 C   0  0  0  0  0  0  0  0  0  0  0  0
   10.7911  -18.7316   23.9313 O   0  0  0  0  0  0  0  0  0  0  0  0
    8.2359  -14.3668   24.3087 C   0  0  0  0  0  0  0  0  0  0  0  0
    9.3342  -13.7282   24.3927 O   0  0  0  0  0  0  0  0  0  0  0  0
   12.1383  -17.3884   25.1579 O   0  0  0  0  0  0  0  0  0  0  0  0
    5.9911  -12.2923   26.4232 C   0  0  0  0  0  0  0  0  0  0  0  0
    7.3407  -12.9434   26.1803 C   0  0  2  0  0  0  0  0  0  0  0  0
    7.2313  -14.0160   25.2084 N   0  0  0  0  0  0  0  0  0  0  0  0
    7.8810  -13.4259   27.4708 C   0  0  0  0  0  0  0  0  0  0  0  0
    8.2835  -12.5744   28.4846 O   0  0  0  0  0  0  0  0  0  0  0  0
    7.9857  -14.6607   27.6711 O   0  0  0  0  0  0  0  0  0  0  0  0
  1  2  1  0
  2  3  2  0
  4  5  1  0
  4  2  1  0
  6  5  1  0
  6  7  1  1
  8  6  1  0
  8 10  1  0
  9  8  2  0
 10 11  1  0
 11 16  1  0
 12 13  1  0
 11 12  1  1
 13 14  1  0
 14 18  1  0
 14 15  2  0
 16 17  2  0
 20 19  1  1
 20 22  1  0
 21 20  1  0
 21 16  1  0
 22 24  2  0
 22 23  1  0
M  END
$$$$
