QEA.pdb
     RDKit          3D

 24 23  0  0  1  0  0  0  0  0999 V2000
    7.6112  -12.4310   18.5292 N   0  0  0  0  0  0  0  0  0  0  0  0
    7.8719  -13.6879   17.9230 C   0  0  0  0  0  0  0  0  0  0  0  0
    7.2978  -13.9697   16.8550 O   0  0  0  0  0  0  0  0  0  0  0  0
    8.8230  -14.6746   18.5470 C   0  0  0  0  0  0  0  0  0  0  0  0
    8.4438  -14.8421   19.9753 C   0  0  0  0  0  0  0  0  0  0  0  0
    9.5602  -14.8659   20.9601 C   0  0  2  0  0  0  0  0  0  0  0  0
   10.4951  -15.9048   20.4544 N   0  0  0  0  0  0  0  0  0  0  0  0
    9.2001  -15.2590   22.3251 C   0  0  0  0  0  0  0  0  0  0  0  0
    8.2685  -14.6800   22.9524 O   0  0  0  0  0  0  0  0  0  0  0  0
    9.8512  -16.3071   23.0449 N   0  0  0  0  0  0  0  0  0  0  0  0
    9.4499  -16.6343   24.3998 C   0  0  1  0  0  0  0  0  0  0  0  0
    9.9579  -18.0525   24.7360 C   0  0  0  0  0  0  0  0  0  0  0  0
    9.2484  -19.0275   23.8233 C   0  0  0  0  0  0  0  0  0  0  0  0
   10.0436  -20.2544   23.6536 C   0  0  0  0  0  0  0  0  0  0  0  0
   10.1791  -20.8179   22.5435 O   0  0  0  0  0  0  0  0  0  0  0  0
    9.9009  -15.6833   25.4229 C   0  0  0  0  0  0  0  0  0  0  0  0
   11.1470  -15.4276   25.4780 O   0  0  0  0  0  0  0  0  0  0  0  0
   10.6657  -20.8099   24.7541 O   0  0  0  0  0  0  0  0  0  0  0  0
    8.4666  -13.1974   27.8397 C   0  0  0  0  0  0  0  0  0  0  0  0
    9.5641  -14.1409   27.3819 C   0  0  2  0  0  0  0  0  0  0  0  0
    9.0814  -15.0319   26.3426 N   0  0  0  0  0  0  0  0  0  0  0  0
   10.0740  -14.8894   28.5524 C   0  0  0  0  0  0  0  0  0  0  0  0
   10.8352  -14.3031   29.5482 O   0  0  0  0  0  0  0  0  0  0  0  0
    9.8132  -16.1123   28.6621 O   0  0  0  0  0  0  0  0  0  0  0  0
  1  2  1  0
  2  3  2  0
  4  5  1  0
  4  2  1  0
  6  5  1  0
  6  7  1  6
  8  6  1  0
  8 10  1  0
  9  8  2  0
 10 11  1  0
 11 16  1  0
 12 13  1  0
 11 12  1  1
 13 14  1  0
 14 18  1  0
 14 15  2  0
 16 17  2  0
 20 19  1  1
 20 22  1  0
 21 20  1  0
 21 16  1  0
 22 24  2  0
 22 23  1  0
M  END
$$$$
