QEA.pdb
     RDKit          3D

 24 23  0  0  1  0  0  0  0  0999 V2000
    7.2365  -13.0958   17.7504 N   0  0  0  0  0  0  0  0  0  0  0  0
    8.0552  -13.6057   16.7088 C   0  0  0  0  0  0  0  0  0  0  0  0
    8.0730  -13.0124   15.6145 O   0  0  0  0  0  0  0  0  0  0  0  0
    8.8933  -14.8410   16.9066 C   0  0  0  0  0  0  0  0  0  0  0  0
    8.7001  -15.3115   18.3041 C   0  0  0  0  0  0  0  0  0  0  0  0
    9.4743  -16.5162   18.7120 C   0  0  2  0  0  0  0  0  0  0  0  0
    8.9739  -17.6078   17.8364 N   0  0  0  0  0  0  0  0  0  0  0  0
    9.2764  -16.9660   20.0925 C   0  0  0  0  0  0  0  0  0  0  0  0
    8.2600  -17.6386   20.4260 O   0  0  0  0  0  0  0  0  0  0  0  0
   10.1940  -16.6943   21.1530 N   0  0  0  0  0  0  0  0  0  0  0  0
    9.8735  -17.0576   22.5201 C   0  0  1  0  0  0  0  0  0  0  0  0
   10.8305  -18.1823   22.9690 C   0  0  0  0  0  0  0  0  0  0  0  0
   12.2268  -17.8073   22.5256 C   0  0  0  0  0  0  0  0  0  0  0  0
   13.1933  -18.8467   22.9154 C   0  0  0  0  0  0  0  0  0  0  0  0
   14.4036  -18.5960   23.1163 O   0  0  0  0  0  0  0  0  0  0  0  0
    9.9175  -15.9476   23.4794 C   0  0  0  0  0  0  0  0  0  0  0  0
   10.8831  -15.1237   23.3799 O   0  0  0  0  0  0  0  0  0  0  0  0
   12.7566  -20.1479   23.0671 O   0  0  0  0  0  0  0  0  0  0  0  0
    7.6565  -14.0688   25.7169 C   0  0  0  0  0  0  0  0  0  0  0  0
    9.0484  -14.5929   25.4132 C   0  0  2  0  0  0  0  0  0  0  0  0
    8.9907  -15.7144   24.4935 N   0  0  0  0  0  0  0  0  0  0  0  0
    9.7119  -14.9599   26.6842 C   0  0  0  0  0  0  0  0  0  0  0  0
   10.0246  -14.0354   27.6651 O   0  0  0  0  0  0  0  0  0  0  0  0
   10.0113  -16.1600   26.8979 O   0  0  0  0  0  0  0  0  0  0  0  0
  1  2  1  0
  2  3  2  0
  4  5  1  0
  4  2  1  0
  6  5  1  0
  6  7  1  6
  8  6  1  0
  8 10  1  0
  9  8  2  0
 10 11  1  0
 11 16  1  0
 12 13  1  0
 11 12  1  1
 13 14  1  0
 14 18  1  0
 14 15  2  0
 16 17  2  0
 20 19  1  1
 20 22  1  0
 21 20  1  0
 21 16  1  0
 22 24  2  0
 22 23  1  0
M  END
$$$$
