RPW.pdb
     RDKit          3D

 33 35  0  0  1  0  0  0  0  0999 V2000
    7.7594  -22.3235   20.2611 N   0  0  0  0  0  0  0  0  0  0  0  0
    8.9712  -21.9416   19.6439 C   0  0  0  0  0  0  0  0  0  0  0  0
    9.4141  -22.7221   18.7123 N   0  0  0  0  0  0  0  0  0  0  0  0
    9.6621  -20.7645   20.0274 N   0  0  0  0  0  0  0  0  0  0  0  0
    8.8817  -19.5027   20.0281 C   0  0  0  0  0  0  0  0  0  0  0  0
    8.7363  -19.0806   18.6146 C   0  0  0  0  0  0  0  0  0  0  0  0
    8.0218  -17.8274   18.3088 C   0  0  0  0  0  0  0  0  0  0  0  0
    8.9359  -16.7188   17.8542 C   0  0  2  0  0  0  0  0  0  0  0  0
   10.0348  -17.3398   17.1457 N   0  0  0  0  0  0  0  0  0  0  0  0
    9.4328  -15.9739   19.0410 C   0  0  0  0  0  0  0  0  0  0  0  0
   10.7075  -15.9796   19.1849 O   0  0  0  0  0  0  0  0  0  0  0  0
   10.2776  -22.5598   18.1711 N   0  0  0  0  0  0  0  0  0  0  0  0
    8.6486  -15.2906   19.9790 C   0  0  0  0  0  0  0  0  0  0  0  0
    7.2182  -15.1998   19.9610 C   0  0  0  0  0  0  0  0  0  0  0  0
    6.9265  -13.8757   20.6294 C   0  0  0  0  0  0  0  0  0  0  0  0
    8.2704  -13.2763   20.9812 C   0  0  1  0  0  0  0  0  0  0  0  0
    9.1004  -14.5540   21.1145 C   0  0  0  0  0  0  0  0  0  0  0  0
    8.7320  -15.3156   22.3381 O   0  0  0  0  0  0  0  0  0  0  0  0
    8.0673  -16.3828   22.2674 N   0  0  0  0  0  0  0  0  0  0  0  0
    9.0882  -14.9147   23.6499 C   0  0  2  0  0  0  0  0  0  0  0  0
    9.6482  -15.8390   24.6458 C   0  0  0  0  0  0  0  0  0  0  0  0
    9.3642  -15.3819   26.0197 C   0  0  0  0  0  0  0  0  0  0  0  0
    8.0645  -14.7280   26.1525 C   0  0  0  0  0  0  0  0  0  0  0  0
    6.8306  -15.3771   26.0014 N   0  0  0  0  0  0  0  0  0  0  0  0
    5.8430  -14.4876   26.1396 C   0  0  0  0  0  0  0  0  0  0  0  0
    6.3788  -13.2883   26.3751 C   0  0  0  0  0  0  0  0  0  0  0  0
    5.8202  -12.0618   26.6082 C   0  0  0  0  0  0  0  0  0  0  0  0
    6.5618  -10.9124   26.8637 C   0  0  0  0  0  0  0  0  0  0  0  0
    7.9338  -11.0827   26.8689 C   0  0  0  0  0  0  0  0  0  0  0  0
    8.5243  -12.2993   26.6378 C   0  0  0  0  0  0  0  0  0  0  0  0
    7.7599  -13.4139   26.3879 C   0  0  0  0  0  0  0  0  0  0  0  0
    9.1363  -17.1720   24.3509 O   0  0  0  0  0  0  0  0  0  0  0  0
    8.0631  -17.4124   23.7361 O   0  0  0  0  0  0  0  0  0  0  0  0
  2  1  1  0
  2  4  1  0
  3  2  2  0
  4  5  1  0
  6  5  1  0
  7  6  1  0
  7  8  1  0
  8  9  1  1
 10  8  1  0
 11 10  2  0
 12 16  1  0
 12 10  1  0
 13 12  1  0
 13 14  1  0
 14 15  1  0
 16 15  1  0
 16 17  1  1
 18 17  2  0
 19 17  1  0
 20 21  1  6
 20 19  1  0
 21 22  1  0
 22 30  1  0
 22 23  2  0
 23 24  1  0
 25 26  2  0
 25 24  1  0
 27 26  1  0
 28 27  2  0
 29 28  1  0
 29 30  2  0
 30 25  1  0
 31 20  1  0
 31 33  1  0
 32 31  2  0
M  END
$$$$
