RPW.pdb
     RDKit          3D

 33 35  0  0  1  0  0  0  0  0999 V2000
    7.4310  -13.1254   18.0213 N   0  0  0  0  0  0  0  0  0  0  0  0
    8.4524  -12.5590   18.8159 C   0  0  0  0  0  0  0  0  0  0  0  0
    8.1478  -11.4814   19.4633 N   0  0  0  0  0  0  0  0  0  0  0  0
    9.7413  -13.1439   18.8975 N   0  0  0  0  0  0  0  0  0  0  0  0
    9.8894  -14.5127   18.3449 C   0  0  0  0  0  0  0  0  0  0  0  0
    9.6177  -15.4602   19.4519 C   0  0  0  0  0  0  0  0  0  0  0  0
    9.7054  -16.9097   19.1950 C   0  0  0  0  0  0  0  0  0  0  0  0
    8.4934  -17.6706   19.6675 C   0  0  2  0  0  0  0  0  0  0  0  0
    7.3441  -17.0882   19.0078 N   0  0  0  0  0  0  0  0  0  0  0  0
    8.3734  -17.5364   21.1431 C   0  0  0  0  0  0  0  0  0  0  0  0
    7.5315  -16.6520   21.5363 O   0  0  0  0  0  0  0  0  0  0  0  0
    8.8004  -10.9512   20.0616 N   0  0  0  0  0  0  0  0  0  0  0  0
    9.0796  -18.2727   22.1028 C   0  0  0  0  0  0  0  0  0  0  0  0
   10.2921  -19.0003   21.8681 C   0  0  0  0  0  0  0  0  0  0  0  0
   10.2431  -20.1283   22.8734 C   0  0  0  0  0  0  0  0  0  0  0  0
    8.9433  -19.9622   23.6298 C   0  0  1  0  0  0  0  0  0  0  0  0
    8.7423  -18.4538   23.4773 C   0  0  0  0  0  0  0  0  0  0  0  0
    9.7191  -17.6901   24.2992 O   0  0  0  0  0  0  0  0  0  0  0  0
   10.9581  -17.7809   24.0929 N   0  0  0  0  0  0  0  0  0  0  0  0
    9.3474  -16.8203   25.3546 C   0  0  1  0  0  0  0  0  0  0  0  0
   10.3262  -16.1183   26.1965 C   0  0  0  0  0  0  0  0  0  0  0  0
    9.7299  -14.9271   26.8311 C   0  0  0  0  0  0  0  0  0  0  0  0
    8.3022  -14.7819   26.5572 C   0  0  0  0  0  0  0  0  0  0  0  0
    7.4399  -15.8461   26.2556 N   0  0  0  0  0  0  0  0  0  0  0  0
    6.2155  -15.3685   26.0139 C   0  0  0  0  0  0  0  0  0  0  0  0
    6.2418  -14.0408   26.1457 C   0  0  0  0  0  0  0  0  0  0  0  0
    5.2691  -13.0863   26.0298 C   0  0  0  0  0  0  0  0  0  0  0  0
    5.4926  -11.7282   26.2348 C   0  0  0  0  0  0  0  0  0  0  0  0
    6.7893  -11.3865   26.5716 C   0  0  0  0  0  0  0  0  0  0  0  0
    7.7870  -12.3200   26.6947 C   0  0  0  0  0  0  0  0  0  0  0  0
    7.5298  -13.6536   26.4838 C   0  0  0  0  0  0  0  0  0  0  0  0
   10.8670  -17.0832   27.1465 O   0  0  0  0  0  0  0  0  0  0  0  0
   11.8155  -16.8557   27.9440 O   0  0  0  0  0  0  0  0  0  0  0  0
  2  1  1  0
  2  4  1  0
  3  2  2  0
  4  5  1  0
  6  5  1  0
  7  6  1  0
  7  8  1  0
  8  9  1  6
 10  8  1  0
 11 10  2  0
 12 16  1  0
 12 10  1  0
 13 12  1  0
 13 14  1  0
 14 15  1  0
 16 15  1  0
 16 17  1  1
 18 17  2  0
 19 17  1  0
 20 21  1  1
 20 19  1  0
 21 22  1  0
 22 30  1  0
 22 23  2  0
 23 24  1  0
 25 26  2  0
 25 24  1  0
 27 26  1  0
 28 27  2  0
 29 28  1  0
 29 30  2  0
 30 25  1  0
 31 20  1  0
 31 33  1  0
 32 31  2  0
M  END
$$$$
