RPW.pdb
     RDKit          3D

 33 35  0  0  1  0  0  0  0  0999 V2000
   11.0702  -22.8467   21.1800 N   0  0  0  0  0  0  0  0  0  0  0  0
   11.8344  -21.6873   21.4390 C   0  0  0  0  0  0  0  0  0  0  0  0
   12.5192  -21.6820   22.5363 N   0  0  0  0  0  0  0  0  0  0  0  0
   11.8482  -20.5900   20.5412 N   0  0  0  0  0  0  0  0  0  0  0  0
   11.0955  -20.7554   19.2735 C   0  0  0  0  0  0  0  0  0  0  0  0
   10.5075  -19.4358   18.9417 C   0  0  0  0  0  0  0  0  0  0  0  0
    9.2274  -19.0436   19.5599 C   0  0  0  0  0  0  0  0  0  0  0  0
    8.7377  -17.6929   19.1048 C   0  0  2  0  0  0  0  0  0  0  0  0
    9.2596  -17.4805   17.7715 N   0  0  0  0  0  0  0  0  0  0  0  0
    9.2404  -16.6487   20.0360 C   0  0  0  0  0  0  0  0  0  0  0  0
   10.4971  -16.4073   19.9460 O   0  0  0  0  0  0  0  0  0  0  0  0
   13.1052  -20.8964   22.8594 N   0  0  0  0  0  0  0  0  0  0  0  0
    8.4787  -15.9331   20.9684 C   0  0  0  0  0  0  0  0  0  0  0  0
    7.1150  -16.2062   21.3153 C   0  0  0  0  0  0  0  0  0  0  0  0
    6.5618  -14.8578   21.7167 C   0  0  0  0  0  0  0  0  0  0  0  0
    7.6954  -13.8702   21.5478 C   0  0  1  0  0  0  0  0  0  0  0  0
    8.8894  -14.8062   21.7413 C   0  0  0  0  0  0  0  0  0  0  0  0
    9.0169  -15.2377   23.1592 O   0  0  0  0  0  0  0  0  0  0  0  0
    8.3576  -16.2129   23.6067 N   0  0  0  0  0  0  0  0  0  0  0  0
    9.8675  -14.6046   24.0995 C   0  0  2  0  0  0  0  0  0  0  0  0
   10.3771  -15.2804   25.3009 C   0  0  0  0  0  0  0  0  0  0  0  0
    9.3256  -16.0897   25.9465 C   0  0  0  0  0  0  0  0  0  0  0  0
    8.0673  -15.3678   26.1194 C   0  0  0  0  0  0  0  0  0  0  0  0
    6.7974  -15.9263   25.9137 N   0  0  0  0  0  0  0  0  0  0  0  0
    5.8650  -14.9897   26.1110 C   0  0  0  0  0  0  0  0  0  0  0  0
    6.4710  -13.8464   26.4372 C   0  0  0  0  0  0  0  0  0  0  0  0
    5.9864  -12.6079   26.7564 C   0  0  0  0  0  0  0  0  0  0  0  0
    6.7946  -11.5284   27.1000 C   0  0  0  0  0  0  0  0  0  0  0  0
    8.1534  -11.7834   27.1009 C   0  0  0  0  0  0  0  0  0  0  0  0
    8.6704  -13.0142   26.7845 C   0  0  0  0  0  0  0  0  0  0  0  0
    7.8415  -14.0580   26.4489 C   0  0  0  0  0  0  0  0  0  0  0  0
   11.5551  -16.0468   24.9127 O   0  0  0  0  0  0  0  0  0  0  0  0
   11.5642  -16.9700   24.0553 O   0  0  0  0  0  0  0  0  0  0  0  0
  2  1  1  0
  2  4  1  0
  3  2  2  0
  4  5  1  0
  6  5  1  0
  7  6  1  0
  7  8  1  0
  8  9  1  6
 10  8  1  0
 11 10  2  0
 12 16  1  0
 12 10  1  0
 13 12  1  0
 13 14  1  0
 14 15  1  0
 16 15  1  0
 16 17  1  1
 18 17  2  0
 19 17  1  0
 20 21  1  6
 20 19  1  0
 21 22  1  0
 22 30  1  0
 22 23  2  0
 23 24  1  0
 25 26  2  0
 25 24  1  0
 27 26  1  0
 28 27  2  0
 29 28  1  0
 29 30  2  0
 30 25  1  0
 31 20  1  0
 31 33  1  0
 32 31  2  0
M  END
$$$$
