RPW.pdb
     RDKit          3D

 33 35  0  0  1  0  0  0  0  0999 V2000
   10.3957  -22.8589   18.9726 N   0  0  0  0  0  0  0  0  0  0  0  0
   11.4969  -21.9741   18.9661 C   0  0  0  0  0  0  0  0  0  0  0  0
   12.6694  -22.5131   19.0546 N   0  0  0  0  0  0  0  0  0  0  0  0
   11.3223  -20.5706   18.8672 N   0  0  0  0  0  0  0  0  0  0  0  0
    9.9513  -20.0509   19.0938 C   0  0  0  0  0  0  0  0  0  0  0  0
    9.9971  -18.5877   18.8612 C   0  0  0  0  0  0  0  0  0  0  0  0
    8.7534  -17.8032   18.9721 C   0  0  0  0  0  0  0  0  0  0  0  0
    8.9514  -16.3347   18.6973 C   0  0  2  0  0  0  0  0  0  0  0  0
   10.0106  -16.2265   17.7166 N   0  0  0  0  0  0  0  0  0  0  0  0
    9.3335  -15.6460   19.9582 C   0  0  0  0  0  0  0  0  0  0  0  0
   10.5430  -15.2199   19.9935 O   0  0  0  0  0  0  0  0  0  0  0  0
   13.5558  -21.9870   19.1023 N   0  0  0  0  0  0  0  0  0  0  0  0
    8.5078  -15.4322   21.0691 C   0  0  0  0  0  0  0  0  0  0  0  0
    7.1783  -15.9432   21.2296 C   0  0  0  0  0  0  0  0  0  0  0  0
    6.4968  -14.9216   22.1113 C   0  0  0  0  0  0  0  0  0  0  0  0
    7.5279  -13.8497   22.3884 C   0  0  1  0  0  0  0  0  0  0  0  0
    8.8083  -14.6728   22.2392 C   0  0  0  0  0  0  0  0  0  0  0  0
    8.9810  -15.6186   23.3744 O   0  0  0  0  0  0  0  0  0  0  0  0
    7.9979  -16.2296   23.8706 N   0  0  0  0  0  0  0  0  0  0  0  0
   10.2321  -15.9034   23.9762 C   0  0  2  0  0  0  0  0  0  0  0  0
   10.4398  -15.9029   25.4311 C   0  0  0  0  0  0  0  0  0  0  0  0
   10.2920  -14.5464   25.9925 C   0  0  0  0  0  0  0  0  0  0  0  0
    8.9274  -14.2442   26.4179 C   0  0  0  0  0  0  0  0  0  0  0  0
    8.1102  -15.1220   27.1451 N   0  0  0  0  0  0  0  0  0  0  0  0
    6.9123  -14.5597   27.3307 C   0  0  0  0  0  0  0  0  0  0  0  0
    6.9132  -13.3544   26.7578 C   0  0  0  0  0  0  0  0  0  0  0  0
    5.9623  -12.3748   26.6764 C   0  0  0  0  0  0  0  0  0  0  0  0
    6.1670  -11.1515   26.0453 C   0  0  0  0  0  0  0  0  0  0  0  0
    7.4203  -10.9756   25.4888 C   0  0  0  0  0  0  0  0  0  0  0  0
    8.3948  -11.9391   25.5528 C   0  0  0  0  0  0  0  0  0  0  0  0
    8.1568  -13.1366   26.1840 C   0  0  0  0  0  0  0  0  0  0  0  0
    9.5278  -16.8824   26.0097 O   0  0  0  0  0  0  0  0  0  0  0  0
    8.4802  -17.3082   25.4542 O   0  0  0  0  0  0  0  0  0  0  0  0
  2  1  1  0
  2  4  1  0
  3  2  2  0
  4  5  1  0
  6  5  1  0
  7  6  1  0
  7  8  1  0
  8  9  1  6
 10  8  1  0
 11 10  2  0
 12 16  1  0
 12 10  1  0
 13 12  1  0
 13 14  1  0
 14 15  1  0
 16 15  1  0
 16 17  1  1
 18 17  2  0
 19 17  1  0
 20 21  1  6
 20 19  1  0
 21 22  1  0
 22 30  1  0
 22 23  2  0
 23 24  1  0
 25 26  2  0
 25 24  1  0
 27 26  1  0
 28 27  2  0
 29 28  1  0
 29 30  2  0
 30 25  1  0
 31 20  1  0
 31 33  1  0
 32 31  2  0
M  END
$$$$
