RPW.pdb
     RDKit          3D

 33 35  0  0  1  0  0  0  0  0999 V2000
    4.3096  -18.0054   21.3703 N   0  0  0  0  0  0  0  0  0  0  0  0
    4.9560  -18.5699   22.4923 C   0  0  0  0  0  0  0  0  0  0  0  0
    4.5221  -18.2003   23.6534 N   0  0  0  0  0  0  0  0  0  0  0  0
    6.0228  -19.4927   22.3494 N   0  0  0  0  0  0  0  0  0  0  0  0
    6.4730  -19.7835   20.9660 C   0  0  0  0  0  0  0  0  0  0  0  0
    7.5251  -18.7936   20.6340 C   0  0  0  0  0  0  0  0  0  0  0  0
    8.1288  -18.8104   19.2887 C   0  0  0  0  0  0  0  0  0  0  0  0
    8.1219  -17.4607   18.6181 C   0  0  2  0  0  0  0  0  0  0  0  0
    8.7915  -17.6174   17.3443 N   0  0  0  0  0  0  0  0  0  0  0  0
    8.8459  -16.4836   19.4731 C   0  0  0  0  0  0  0  0  0  0  0  0
   10.1250  -16.5511   19.4029 O   0  0  0  0  0  0  0  0  0  0  0  0
    4.8786  -18.5556   24.5543 N   0  0  0  0  0  0  0  0  0  0  0  0
    8.2636  -15.5294   20.3170 C   0  0  0  0  0  0  0  0  0  0  0  0
    6.8707  -15.4464   20.6449 C   0  0  0  0  0  0  0  0  0  0  0  0
    6.6439  -13.9759   20.9119 C   0  0  0  0  0  0  0  0  0  0  0  0
    7.9783  -13.2973   20.6928 C   0  0  2  0  0  0  0  0  0  0  0  0
    8.9190  -14.4629   21.0020 C   0  0  0  0  0  0  0  0  0  0  0  0
    8.9291  -14.7816   22.4550 O   0  0  0  0  0  0  0  0  0  0  0  0
    8.0235  -14.3606   23.2221 N   0  0  0  0  0  0  0  0  0  0  0  0
    9.9316  -15.5641   23.0806 C   0  0  2  0  0  0  0  0  0  0  0  0
   10.0793  -15.6593   24.5396 C   0  0  0  0  0  0  0  0  0  0  0  0
    8.8446  -16.1636   25.1710 C   0  0  0  0  0  0  0  0  0  0  0  0
    7.8402  -15.1243   25.3842 C   0  0  0  0  0  0  0  0  0  0  0  0
    6.5655  -15.1209   24.7994 N   0  0  0  0  0  0  0  0  0  0  0  0
    5.9157  -14.0108   25.1614 C   0  0  0  0  0  0  0  0  0  0  0  0
    6.7101  -13.2916   25.9567 C   0  0  0  0  0  0  0  0  0  0  0  0
    6.5263  -12.1025   26.6071 C   0  0  0  0  0  0  0  0  0  0  0  0
    7.4848  -11.5162   27.4282 C   0  0  0  0  0  0  0  0  0  0  0  0
    8.6672  -12.2215   27.5541 C   0  0  0  0  0  0  0  0  0  0  0  0
    8.8823  -13.4158   26.9142 C   0  0  0  0  0  0  0  0  0  0  0  0
    7.9126  -13.9652   26.1096 C   0  0  0  0  0  0  0  0  0  0  0  0
   11.2565  -16.4745   24.8141 O   0  0  0  0  0  0  0  0  0  0  0  0
   11.6709  -16.7781   25.9645 O   0  0  0  0  0  0  0  0  0  0  0  0
  2  1  1  0
  2  4  1  0
  3  2  2  0
  4  5  1  0
  6  5  1  0
  7  6  1  0
  7  8  1  0
  8  9  1  6
 10  8  1  0
 11 10  2  0
 12 16  1  0
 12 10  1  0
 13 12  1  0
 13 14  1  0
 14 15  1  0
 16 15  1  0
 16 17  1  1
 18 17  2  0
 19 17  1  0
 20 21  1  6
 20 19  1  0
 21 22  1  0
 22 30  1  0
 22 23  2  0
 23 24  1  0
 25 26  2  0
 25 24  1  0
 27 26  1  0
 28 27  2  0
 29 28  1  0
 29 30  2  0
 30 25  1  0
 31 20  1  0
 31 33  1  0
 32 31  2  0
M  END
$$$$
