RPW.pdb
     RDKit          3D

 33 35  0  0  1  0  0  0  0  0999 V2000
    7.2435  -13.1905   19.2839 N   0  0  0  0  0  0  0  0  0  0  0  0
    8.5322  -12.9353   18.7647 C   0  0  0  0  0  0  0  0  0  0  0  0
    9.3232  -12.2308   19.5072 N   0  0  0  0  0  0  0  0  0  0  0  0
    8.9339  -13.4273   17.4972 N   0  0  0  0  0  0  0  0  0  0  0  0
    8.3674  -14.7327   17.0777 C   0  0  0  0  0  0  0  0  0  0  0  0
    9.4961  -15.6899   16.9949 C   0  0  0  0  0  0  0  0  0  0  0  0
    9.7503  -16.6008   18.1264 C   0  0  0  0  0  0  0  0  0  0  0  0
    8.5922  -17.5190   18.4211 C   0  0  2  0  0  0  0  0  0  0  0  0
    7.4889  -17.0896   17.5881 N   0  0  0  0  0  0  0  0  0  0  0  0
    8.2339  -17.4120   19.8599 C   0  0  0  0  0  0  0  0  0  0  0  0
    7.2922  -16.5806   20.1196 O   0  0  0  0  0  0  0  0  0  0  0  0
   10.2476  -11.8793   19.2124 N   0  0  0  0  0  0  0  0  0  0  0  0
    8.8206  -18.1218   20.9153 C   0  0  0  0  0  0  0  0  0  0  0  0
    9.9498  -18.9976   20.8042 C   0  0  0  0  0  0  0  0  0  0  0  0
    9.7406  -20.0074   21.9096 C   0  0  0  0  0  0  0  0  0  0  0  0
    8.4441  -19.6252   22.5894 C   0  0  1  0  0  0  0  0  0  0  0  0
    8.4203  -18.1266   22.2849 C   0  0  0  0  0  0  0  0  0  0  0  0
    9.4501  -17.3963   23.0718 O   0  0  0  0  0  0  0  0  0  0  0  0
   10.6788  -17.5587   22.8487 N   0  0  0  0  0  0  0  0  0  0  0  0
    9.1430  -16.4819   24.1100 C   0  0  1  0  0  0  0  0  0  0  0  0
   10.1722  -15.7767   24.8867 C   0  0  0  0  0  0  0  0  0  0  0  0
    9.7121  -14.4339   25.2901 C   0  0  0  0  0  0  0  0  0  0  0  0
    8.2630  -14.3464   25.4544 C   0  0  0  0  0  0  0  0  0  0  0  0
    7.4007  -15.4518   25.4929 N   0  0  0  0  0  0  0  0  0  0  0  0
    6.1394  -15.0251   25.6062 C   0  0  0  0  0  0  0  0  0  0  0  0
    6.1421  -13.6911   25.6443 C   0  0  0  0  0  0  0  0  0  0  0  0
    5.1362  -12.7733   25.7723 C   0  0  0  0  0  0  0  0  0  0  0  0
    5.3474  -11.3986   25.8182 C   0  0  0  0  0  0  0  0  0  0  0  0
    6.6678  -10.9997   25.7245 C   0  0  0  0  0  0  0  0  0  0  0  0
    7.6988  -11.8954   25.5945 C   0  0  0  0  0  0  0  0  0  0  0  0
    7.4526  -13.2469   25.5517 C   0  0  0  0  0  0  0  0  0  0  0  0
   10.5467  -16.6320   26.0065 O   0  0  0  0  0  0  0  0  0  0  0  0
   11.4772  -16.3882   26.8202 O   0  0  0  0  0  0  0  0  0  0  0  0
  2  1  1  0
  2  4  1  0
  3  2  2  0
  4  5  1  0
  6  5  1  0
  7  6  1  0
  7  8  1  0
  8  9  1  6
 10  8  1  0
 11 10  2  0
 12 16  1  0
 12 10  1  0
 13 12  1  0
 13 14  1  0
 14 15  1  0
 16 15  1  0
 16 17  1  1
 18 17  2  0
 19 17  1  0
 20 21  1  1
 20 19  1  0
 21 22  1  0
 22 30  1  0
 22 23  2  0
 23 24  1  0
 25 26  2  0
 25 24  1  0
 27 26  1  0
 28 27  2  0
 29 28  1  0
 29 30  2  0
 30 25  1  0
 31 20  1  0
 31 33  1  0
 32 31  2  0
M  END
$$$$
