RPW.pdb
     RDKit          3D

 33 35  0  0  1  0  0  0  0  0999 V2000
    5.3648  -20.9781   25.4097 N   0  0  0  0  0  0  0  0  0  0  0  0
    6.3739  -21.4490   24.5406 C   0  0  0  0  0  0  0  0  0  0  0  0
    7.0161  -22.5049   24.9222 N   0  0  0  0  0  0  0  0  0  0  0  0
    6.6642  -20.7966   23.3158 N   0  0  0  0  0  0  0  0  0  0  0  0
    5.9199  -19.5445   23.0337 C   0  0  0  0  0  0  0  0  0  0  0  0
    6.4040  -19.0358   21.7283 C   0  0  0  0  0  0  0  0  0  0  0  0
    5.8250  -17.7947   21.1813 C   0  0  0  0  0  0  0  0  0  0  0  0
    6.4580  -17.3667   19.8823 C   0  0  2  0  0  0  0  0  0  0  0  0
    6.6212  -18.5589   19.0778 N   0  0  0  0  0  0  0  0  0  0  0  0
    7.7765  -16.7393   20.1614 C   0  0  0  0  0  0  0  0  0  0  0  0
    8.7817  -17.3479   19.6468 O   0  0  0  0  0  0  0  0  0  0  0  0
    7.7599  -22.9690   24.3779 N   0  0  0  0  0  0  0  0  0  0  0  0
    7.9999  -15.5786   20.9128 C   0  0  0  0  0  0  0  0  0  0  0  0
    7.0280  -14.9172   21.7329 C   0  0  0  0  0  0  0  0  0  0  0  0
    7.4543  -13.4669   21.7091 C   0  0  0  0  0  0  0  0  0  0  0  0
    8.6820  -13.4032   20.8272 C   0  0  1  0  0  0  0  0  0  0  0  0
    9.2092  -14.8273   21.0086 C   0  0  0  0  0  0  0  0  0  0  0  0
    9.7733  -15.0281   22.3704 O   0  0  0  0  0  0  0  0  0  0  0  0
   10.6445  -14.2480   22.8377 N   0  0  0  0  0  0  0  0  0  0  0  0
    9.3883  -16.0852   23.2322 C   0  0  1  0  0  0  0  0  0  0  0  0
    9.8988  -16.2277   24.6029 C   0  0  0  0  0  0  0  0  0  0  0  0
    9.6135  -15.0246   25.4082 C   0  0  0  0  0  0  0  0  0  0  0  0
    8.1888  -14.8269   25.6641 C   0  0  0  0  0  0  0  0  0  0  0  0
    7.2083  -15.8159   25.4990 N   0  0  0  0  0  0  0  0  0  0  0  0
    6.0071  -15.2978   25.7715 C   0  0  0  0  0  0  0  0  0  0  0  0
    6.1618  -14.0157   26.1078 C   0  0  0  0  0  0  0  0  0  0  0  0
    5.2702  -13.0521   26.4914 C   0  0  0  0  0  0  0  0  0  0  0  0
    5.6368  -11.7540   26.8336 C   0  0  0  0  0  0  0  0  0  0  0  0
    6.9908  -11.4837   26.7623 C   0  0  0  0  0  0  0  0  0  0  0  0
    7.9098  -12.4280   26.3803 C   0  0  0  0  0  0  0  0  0  0  0  0
    7.5111  -13.7008   26.0483 C   0  0  0  0  0  0  0  0  0  0  0  0
    9.3407  -17.4546   25.1588 O   0  0  0  0  0  0  0  0  0  0  0  0
    8.4142  -18.1278   24.6336 O   0  0  0  0  0  0  0  0  0  0  0  0
  2  1  1  0
  2  4  1  0
  3  2  2  0
  4  5  1  0
  6  5  1  0
  7  6  1  0
  7  8  1  0
  8  9  1  6
 10  8  1  0
 11 10  2  0
 12 16  1  0
 12 10  1  0
 13 12  1  0
 13 14  1  0
 14 15  1  0
 16 15  1  0
 16 17  1  1
 18 17  2  0
 19 17  1  0
 20 21  1  1
 20 19  1  0
 21 22  1  0
 22 30  1  0
 22 23  2  0
 23 24  1  0
 25 26  2  0
 25 24  1  0
 27 26  1  0
 28 27  2  0
 29 28  1  0
 29 30  2  0
 30 25  1  0
 31 20  1  0
 31 33  1  0
 32 31  2  0
M  END
$$$$
