RPW.pdb
     RDKit          3D

 33 35  0  0  1  0  0  0  0  0999 V2000
   14.1414  -15.4538   19.4340 N   0  0  0  0  0  0  0  0  0  0  0  0
   14.4287  -14.5947   18.3501 C   0  0  0  0  0  0  0  0  0  0  0  0
   15.4362  -14.9215   17.6075 N   0  0  0  0  0  0  0  0  0  0  0  0
   13.6516  -13.4372   18.0927 N   0  0  0  0  0  0  0  0  0  0  0  0
   12.4797  -13.2105   18.9737 C   0  0  0  0  0  0  0  0  0  0  0  0
   11.4063  -14.1231   18.5127 C   0  0  0  0  0  0  0  0  0  0  0  0
   10.5601  -14.8001   19.5128 C   0  0  0  0  0  0  0  0  0  0  0  0
    9.0866  -14.5665   19.2993 C   0  0  2  0  0  0  0  0  0  0  0  0
    8.9202  -13.1605   18.9979 N   0  0  0  0  0  0  0  0  0  0  0  0
    8.3475  -14.9272   20.5377 C   0  0  0  0  0  0  0  0  0  0  0  0
    7.7727  -13.9434   21.1272 O   0  0  0  0  0  0  0  0  0  0  0  0
   15.7883  -14.3616   16.8155 N   0  0  0  0  0  0  0  0  0  0  0  0
    8.2319  -16.2088   21.0907 C   0  0  0  0  0  0  0  0  0  0  0  0
    8.8089  -17.4044   20.5502 C   0  0  0  0  0  0  0  0  0  0  0  0
    7.8686  -18.5001   20.9982 C   0  0  0  0  0  0  0  0  0  0  0  0
    6.7695  -17.8174   21.7825 C   0  0  1  0  0  0  0  0  0  0  0  0
    7.5262  -16.5822   22.2733 C   0  0  0  0  0  0  0  0  0  0  0  0
    8.5250  -16.9367   23.3172 O   0  0  0  0  0  0  0  0  0  0  0  0
    9.6073  -17.5071   23.0184 N   0  0  0  0  0  0  0  0  0  0  0  0
    8.3471  -16.6697   24.6976 C   0  0  1  0  0  0  0  0  0  0  0  0
    9.4559  -16.6646   25.6620 C   0  0  0  0  0  0  0  0  0  0  0  0
    9.1149  -15.8823   26.8657 C   0  0  0  0  0  0  0  0  0  0  0  0
    7.8684  -15.1322   26.7316 C   0  0  0  0  0  0  0  0  0  0  0  0
    6.6019  -15.7172   26.5876 N   0  0  0  0  0  0  0  0  0  0  0  0
    5.6846  -14.7563   26.4437 C   0  0  0  0  0  0  0  0  0  0  0  0
    6.2971  -13.5715   26.4887 C   0  0  0  0  0  0  0  0  0  0  0  0
    5.8257  -12.2898   26.4139 C   0  0  0  0  0  0  0  0  0  0  0  0
    6.6365  -11.1628   26.5094 C   0  0  0  0  0  0  0  0  0  0  0  0
    7.9836  -11.4169   26.6890 C   0  0  0  0  0  0  0  0  0  0  0  0
    8.4873  -12.6906   26.7670 C   0  0  0  0  0  0  0  0  0  0  0  0
    7.6563  -13.7809   26.6676 C   0  0  0  0  0  0  0  0  0  0  0  0
    9.8075  -18.0518   25.9411 O   0  0  0  0  0  0  0  0  0  0  0  0
    9.1530  -19.0543   25.5486 O   0  0  0  0  0  0  0  0  0  0  0  0
  2  1  1  0
  2  4  1  0
  3  2  2  0
  4  5  1  0
  6  5  1  0
  7  6  1  0
  7  8  1  0
  8  9  1  1
 10  8  1  0
 11 10  2  0
 12 16  1  0
 12 10  1  0
 13 12  1  0
 13 14  1  0
 14 15  1  0
 16 15  1  0
 16 17  1  1
 18 17  2  0
 19 17  1  0
 20 21  1  1
 20 19  1  0
 21 22  1  0
 22 30  1  0
 22 23  2  0
 23 24  1  0
 25 26  2  0
 25 24  1  0
 27 26  1  0
 28 27  2  0
 29 28  1  0
 29 30  2  0
 30 25  1  0
 31 20  1  0
 31 33  1  0
 32 31  2  0
M  END
$$$$
