NMV.pdb
     RDKit          3D

 24 23  0  0  1  0  0  0  0  0999 V2000
   29.5780  -20.3147  -17.9304 N   0  0  0  0  0  0  0  0  0  0  0  0
   28.3192  -19.7032  -17.7680 C   0  0  0  0  0  0  0  0  0  0  0  0
   28.0892  -18.6503  -18.4223 O   0  0  0  0  0  0  0  0  0  0  0  0
   27.2453  -20.2086  -16.8831 C   0  0  0  0  0  0  0  0  0  0  0  0
   27.6706  -21.4360  -16.1263 C   0  0  2  0  0  0  0  0  0  0  0  0
   27.7036  -22.6175  -16.9475 N   0  0  0  0  0  0  0  0  0  0  0  0
   26.6995  -21.6357  -15.0246 C   0  0  0  0  0  0  0  0  0  0  0  0
   25.6795  -22.3548  -15.2016 O   0  0  0  0  0  0  0  0  0  0  0  0
   25.2319  -21.2742   -7.2956 C   0  0  0  0  0  0  0  0  0  0  0  0
   26.3541  -20.7597   -8.6291 S   0  0  0  0  0  0  0  0  0  0  0  0
   25.4891  -21.1516  -10.2135 C   0  0  0  0  0  0  0  0  0  0  0  0
   26.4084  -20.8774  -11.3598 C   0  0  0  0  0  0  0  0  0  0  0  0
   25.8301  -21.2614  -12.6870 C   0  0  2  0  0  0  0  0  0  0  0  0
   26.8457  -21.0549  -13.7472 N   0  0  0  0  0  0  0  0  0  0  0  0
   24.6385  -20.4432  -13.0008 C   0  0  0  0  0  0  0  0  0  0  0  0
   24.7164  -19.2212  -13.1096 O   0  0  0  0  0  0  0  0  0  0  0  0
   21.3201  -21.8773  -15.1655 C   0  0  0  0  0  0  0  0  0  0  0  0
   21.7491  -20.4755  -14.9015 C   0  0  2  0  0  0  0  0  0  0  0  0
   22.8134  -20.0061  -15.8725 C   0  0  0  0  0  0  0  0  0  0  0  0
   22.1766  -20.2442  -13.4562 C   0  0  2  0  0  0  0  0  0  0  0  0
   23.3456  -21.0447  -13.1901 N   0  0  0  0  0  0  0  0  0  0  0  0
   21.0628  -20.5447  -12.5230 C   0  0  0  0  0  0  0  0  0  0  0  0
   21.1176  -21.5506  -11.7754 O   0  0  0  0  0  0  0  0  0  0  0  0
   19.9313  -19.7538  -12.4276 O   0  0  0  0  0  0  0  0  0  0  0  0
  2  1  1  0
  2  3  2  0
  4  2  1  0
  5  7  1  0
  5  4  1  0
  5  6  1  6
  7  8  2  0
  9 10  1  0
 10 11  1  0
 11 12  1  0
 13 12  1  1
 14 13  1  0
 14  7  1  0
 15 16  2  0
 15 13  1  0
 18 17  1  1
 19 18  1  0
 20 18  1  0
 20 21  1  1
 21 15  1  0
 22 20  1  0
 23 22  2  0
 24 22  1  0
M  END
$$$$
