NMV.pdb
     RDKit          3D

 24 23  0  0  1  0  0  0  0  0999 V2000
   19.3154  -25.1382   -7.3518 N   0  0  0  0  0  0  0  0  0  0  0  0
   18.9549  -24.2546   -8.3882 C   0  0  0  0  0  0  0  0  0  0  0  0
   17.9872  -24.5805   -9.1277 O   0  0  0  0  0  0  0  0  0  0  0  0
   19.6316  -22.9688   -8.6720 C   0  0  0  0  0  0  0  0  0  0  0  0
   20.7453  -22.6923   -7.7007 C   0  0  2  0  0  0  0  0  0  0  0  0
   20.2729  -22.2187   -6.4264 N   0  0  0  0  0  0  0  0  0  0  0  0
   21.6188  -21.6616   -8.3098 C   0  0  0  0  0  0  0  0  0  0  0  0
   21.1275  -20.5741   -8.7159 O   0  0  0  0  0  0  0  0  0  0  0  0
   27.1106  -19.1340   -6.3107 C   0  0  0  0  0  0  0  0  0  0  0  0
   27.6224  -19.5736   -7.9979 S   0  0  0  0  0  0  0  0  0  0  0  0
   26.0746  -19.6585   -9.0027 C   0  0  0  0  0  0  0  0  0  0  0  0
   25.1789  -20.7160   -8.4427 C   0  0  0  0  0  0  0  0  0  0  0  0
   23.8383  -20.7695   -9.1087 C   0  0  2  0  0  0  0  0  0  0  0  0
   23.0112  -21.8218   -8.4711 N   0  0  0  0  0  0  0  0  0  0  0  0
   23.9758  -21.0769  -10.5489 C   0  0  0  0  0  0  0  0  0  0  0  0
   24.4391  -22.1502  -10.9291 O   0  0  0  0  0  0  0  0  0  0  0  0
   21.6634  -18.9377  -13.4438 C   0  0  0  0  0  0  0  0  0  0  0  0
   22.1758  -20.3349  -13.5090 C   0  0  2  0  0  0  0  0  0  0  0  0
   21.2294  -21.3263  -12.8629 C   0  0  0  0  0  0  0  0  0  0  0  0
   23.5901  -20.4785  -12.9574 C   0  0  2  0  0  0  0  0  0  0  0  0
   23.5737  -20.1337  -11.5578 N   0  0  0  0  0  0  0  0  0  0  0  0
   24.5443  -19.6471  -13.7321 C   0  0  0  0  0  0  0  0  0  0  0  0
   25.0049  -18.5887  -13.2408 O   0  0  0  0  0  0  0  0  0  0  0  0
   24.9684  -19.9833  -15.0057 O   0  0  0  0  0  0  0  0  0  0  0  0
  2  1  1  0
  2  3  2  0
  4  2  1  0
  5  7  1  0
  5  4  1  0
  5  6  1  1
  7  8  2  0
  9 10  1  0
 10 11  1  0
 11 12  1  0
 13 12  1  1
 14 13  1  0
 14  7  1  0
 15 16  2  0
 15 13  1  0
 18 17  1  1
 19 18  1  0
 20 18  1  0
 20 21  1  1
 21 15  1  0
 22 20  1  0
 23 22  2  0
 24 22  1  0
M  END
$$$$
