NMV.pdb
     RDKit          3D

 24 23  0  0  1  0  0  0  0  0999 V2000
   29.8393  -18.5058  -17.7551 N   0  0  0  0  0  0  0  0  0  0  0  0
   28.4374  -18.4928  -17.6161 C   0  0  0  0  0  0  0  0  0  0  0  0
   27.7888  -17.6444  -18.2864 O   0  0  0  0  0  0  0  0  0  0  0  0
   27.6697  -19.4048  -16.7384 C   0  0  0  0  0  0  0  0  0  0  0  0
   26.6279  -18.6725  -15.9393 C   0  0  2  0  0  0  0  0  0  0  0  0
   27.1694  -17.5697  -15.1896 N   0  0  0  0  0  0  0  0  0  0  0  0
   26.0221  -19.6477  -15.0019 C   0  0  0  0  0  0  0  0  0  0  0  0
   25.6464  -20.7768  -15.4175 O   0  0  0  0  0  0  0  0  0  0  0  0
   27.2219  -21.0980   -8.6000 C   0  0  0  0  0  0  0  0  0  0  0  0
   25.4584  -20.6623   -8.6484 S   0  0  0  0  0  0  0  0  0  0  0  0
   24.8773  -21.0459  -10.3593 C   0  0  0  0  0  0  0  0  0  0  0  0
   25.5077  -20.0912  -11.3214 C   0  0  0  0  0  0  0  0  0  0  0  0
   25.1435  -20.3626  -12.7487 C   0  0  2  0  0  0  0  0  0  0  0  0
   25.8314  -19.3875  -13.6284 N   0  0  0  0  0  0  0  0  0  0  0  0
   23.6834  -20.2438  -12.9532 C   0  0  0  0  0  0  0  0  0  0  0  0
   23.1166  -19.1557  -12.8760 O   0  0  0  0  0  0  0  0  0  0  0  0
   21.2765  -23.5697  -14.4342 C   0  0  0  0  0  0  0  0  0  0  0  0
   21.0096  -22.1133  -14.5966 C   0  0  2  0  0  0  0  0  0  0  0  0
   21.5959  -21.5596  -15.8794 C   0  0  0  0  0  0  0  0  0  0  0  0
   21.4416  -21.2889  -13.3887 C   0  0  2  0  0  0  0  0  0  0  0  0
   22.8725  -21.3944  -13.2496 N   0  0  0  0  0  0  0  0  0  0  0  0
   20.7221  -21.7274  -12.1673 C   0  0  0  0  0  0  0  0  0  0  0  0
   21.3188  -22.3904  -11.2852 O   0  0  0  0  0  0  0  0  0  0  0  0
   19.3884  -21.4377  -11.9387 O   0  0  0  0  0  0  0  0  0  0  0  0
  2  1  1  0
  2  3  2  0
  4  2  1  0
  5  7  1  0
  5  4  1  0
  5  6  1  1
  7  8  2  0
  9 10  1  0
 10 11  1  0
 11 12  1  0
 13 12  1  1
 14 13  1  0
 14  7  1  0
 15 16  2  0
 15 13  1  0
 18 17  1  1
 19 18  1  0
 20 18  1  0
 20 21  1  1
 21 15  1  0
 22 20  1  0
 23 22  2  0
 24 22  1  0
M  END
$$$$
