NMV.pdb
     RDKit          3D

 24 23  0  0  1  0  0  0  0  0999 V2000
   17.8524  -12.4344  -18.8304 N   0  0  0  0  0  0  0  0  0  0  0  0
   17.4839  -11.6428  -17.7249 C   0  0  0  0  0  0  0  0  0  0  0  0
   16.2577  -11.4011  -17.5584 O   0  0  0  0  0  0  0  0  0  0  0  0
   18.4341  -11.0731  -16.7428 C   0  0  0  0  0  0  0  0  0  0  0  0
   19.8569  -11.4442  -17.0558 C   0  0  2  0  0  0  0  0  0  0  0  0
   20.2024  -12.7677  -16.6084 N   0  0  0  0  0  0  0  0  0  0  0  0
   20.7313  -10.4575  -16.3785 C   0  0  0  0  0  0  0  0  0  0  0  0
   20.8029  -10.4329  -15.1202 O   0  0  0  0  0  0  0  0  0  0  0  0
   26.6246   -8.8775  -18.1031 C   0  0  0  0  0  0  0  0  0  0  0  0
   26.0721   -7.1899  -17.7175 S   0  0  0  0  0  0  0  0  0  0  0  0
   24.6027   -7.3662  -16.6121 C   0  0  0  0  0  0  0  0  0  0  0  0
   23.6256   -8.3103  -17.2353 C   0  0  0  0  0  0  0  0  0  0  0  0
   22.4533   -8.6152  -16.3542 C   0  0  2  0  0  0  0  0  0  0  0  0
   21.5155   -9.5117  -17.0718 N   0  0  0  0  0  0  0  0  0  0  0  0
   21.7376   -7.3762  -15.9794 C   0  0  0  0  0  0  0  0  0  0  0  0
   20.9432   -6.8422  -16.7507 O   0  0  0  0  0  0  0  0  0  0  0  0
   19.1310   -4.8776  -13.0685 C   0  0  0  0  0  0  0  0  0  0  0  0
   19.9878   -6.0168  -13.5008 C   0  0  2  0  0  0  0  0  0  0  0  0
   20.3920   -6.9058  -12.3422 C   0  0  0  0  0  0  0  0  0  0  0  0
   21.2020   -5.5766  -14.3114 C   0  0  2  0  0  0  0  0  0  0  0  0
   21.9433   -6.7500  -14.7008 N   0  0  0  0  0  0  0  0  0  0  0  0
   22.0299   -4.6163  -13.5405 C   0  0  0  0  0  0  0  0  0  0  0  0
   22.9430   -5.0310  -12.7867 O   0  0  0  0  0  0  0  0  0  0  0  0
   21.8464   -3.2464  -13.6077 O   0  0  0  0  0  0  0  0  0  0  0  0
  2  1  1  0
  2  3  2  0
  4  2  1  0
  5  7  1  0
  5  4  1  0
  5  6  1  1
  7  8  2  0
  9 10  1  0
 10 11  1  0
 11 12  1  0
 13 12  1  6
 14 13  1  0
 14  7  1  0
 15 16  2  0
 15 13  1  0
 18 17  1  1
 19 18  1  0
 20 18  1  0
 20 21  1  1
 21 15  1  0
 22 20  1  0
 23 22  2  0
 24 22  1  0
M  END
$$$$
