NMV.pdb
     RDKit          3D

 24 23  0  0  1  0  0  0  0  0999 V2000
   29.2357  -20.7703  -17.3040 N   0  0  0  0  0  0  0  0  0  0  0  0
   29.1044  -21.9601  -16.5610 C   0  0  0  0  0  0  0  0  0  0  0  0
   29.9316  -22.8853  -16.7831 O   0  0  0  0  0  0  0  0  0  0  0  0
   28.0636  -22.2026  -15.5365 C   0  0  0  0  0  0  0  0  0  0  0  0
   27.1683  -21.0093  -15.3502 C   0  0  2  0  0  0  0  0  0  0  0  0
   27.8555  -19.8747  -14.7918 N   0  0  0  0  0  0  0  0  0  0  0  0
   26.0746  -21.4145  -14.4357 C   0  0  0  0  0  0  0  0  0  0  0  0
   25.3559  -22.4129  -14.7107 O   0  0  0  0  0  0  0  0  0  0  0  0
   24.9029  -20.9393   -7.7994 C   0  0  0  0  0  0  0  0  0  0  0  0
   26.4542  -20.5589   -8.6658 S   0  0  0  0  0  0  0  0  0  0  0  0
   26.2546  -21.1957  -10.3883 C   0  0  0  0  0  0  0  0  0  0  0  0
   24.9539  -20.7145  -10.9458 C   0  0  0  0  0  0  0  0  0  0  0  0
   24.6910  -21.2002  -12.3381 C   0  0  2  0  0  0  0  0  0  0  0  0
   25.7739  -20.7340  -13.2370 N   0  0  0  0  0  0  0  0  0  0  0  0
   23.3981  -20.6875  -12.8413 C   0  0  0  0  0  0  0  0  0  0  0  0
   23.2048  -19.4823  -12.9868 O   0  0  0  0  0  0  0  0  0  0  0  0
   20.7085  -23.1298  -15.0696 C   0  0  0  0  0  0  0  0  0  0  0  0
   20.8079  -21.6437  -15.0529 C   0  0  2  0  0  0  0  0  0  0  0  0
   21.8254  -21.1230  -16.0476 C   0  0  0  0  0  0  0  0  0  0  0  0
   21.0557  -21.0776  -13.6588 C   0  0  2  0  0  0  0  0  0  0  0  0
   22.3197  -21.5776  -13.1790 N   0  0  0  0  0  0  0  0  0  0  0  0
   19.9337  -21.4127  -12.7474 C   0  0  0  0  0  0  0  0  0  0  0  0
   20.0821  -22.2805  -11.8536 O   0  0  0  0  0  0  0  0  0  0  0  0
   18.6940  -20.8033  -12.8296 O   0  0  0  0  0  0  0  0  0  0  0  0
  2  1  1  0
  2  3  2  0
  4  2  1  0
  5  7  1  0
  5  4  1  0
  5  6  1  1
  7  8  2  0
  9 10  1  0
 10 11  1  0
 11 12  1  0
 13 12  1  1
 14 13  1  0
 14  7  1  0
 15 16  2  0
 15 13  1  0
 18 17  1  1
 19 18  1  0
 20 18  1  0
 20 21  1  1
 21 15  1  0
 22 20  1  0
 23 22  2  0
 24 22  1  0
M  END
$$$$
