NMV.pdb
     RDKit          3D

 24 23  0  0  1  0  0  0  0  0999 V2000
   21.0171  -16.7810  -19.6716 N   0  0  0  0  0  0  0  0  0  0  0  0
   20.1569  -16.0973  -18.7899 C   0  0  0  0  0  0  0  0  0  0  0  0
   18.9206  -16.3277  -18.8792 O   0  0  0  0  0  0  0  0  0  0  0  0
   20.6007  -15.1263  -17.7642 C   0  0  0  0  0  0  0  0  0  0  0  0
   22.0881  -14.9103  -17.7999 C   0  0  2  0  0  0  0  0  0  0  0  0
   22.8339  -16.0824  -17.4239 N   0  0  0  0  0  0  0  0  0  0  0  0
   22.3989  -13.8115  -16.8550 C   0  0  0  0  0  0  0  0  0  0  0  0
   22.0953  -13.9189  -15.6363 O   0  0  0  0  0  0  0  0  0  0  0  0
   28.2880  -13.5963  -14.9979 C   0  0  0  0  0  0  0  0  0  0  0  0
   27.4543  -12.2161  -15.8356 S   0  0  0  0  0  0  0  0  0  0  0  0
   25.6413  -12.5223  -15.6587 C   0  0  0  0  0  0  0  0  0  0  0  0
   24.8860  -11.3793  -16.2565 C   0  0  0  0  0  0  0  0  0  0  0  0
   23.4017  -11.5797  -16.2438 C   0  0  2  0  0  0  0  0  0  0  0  0
   23.0337  -12.6124  -17.2418 N   0  0  0  0  0  0  0  0  0  0  0  0
   22.6959  -10.3226  -16.5744 C   0  0  0  0  0  0  0  0  0  0  0  0
   22.6970   -9.8744  -17.7191 O   0  0  0  0  0  0  0  0  0  0  0  0
   19.2733   -8.9271  -14.5842 C   0  0  0  0  0  0  0  0  0  0  0  0
   19.8331   -8.5459  -15.9108 C   0  0  2  0  0  0  0  0  0  0  0  0
   19.4410   -9.5201  -17.0031 C   0  0  0  0  0  0  0  0  0  0  0  0
   21.3415   -8.3245  -15.8810 C   0  0  2  0  0  0  0  0  0  0  0  0
   21.9828   -9.5778  -15.5714 N   0  0  0  0  0  0  0  0  0  0  0  0
   21.6978   -7.2550  -14.9161 C   0  0  0  0  0  0  0  0  0  0  0  0
   22.2160   -7.5464  -13.8114 O   0  0  0  0  0  0  0  0  0  0  0  0
   21.4841   -5.9122  -15.1734 O   0  0  0  0  0  0  0  0  0  0  0  0
  2  1  1  0
  2  3  2  0
  4  2  1  0
  5  7  1  0
  5  4  1  0
  5  6  1  1
  7  8  2  0
  9 10  1  0
 10 11  1  0
 11 12  1  0
 13 12  1  6
 14 13  1  0
 14  7  1  0
 15 16  2  0
 15 13  1  0
 18 17  1  1
 19 18  1  0
 20 18  1  0
 20 21  1  1
 21 15  1  0
 22 20  1  0
 23 22  2  0
 24 22  1  0
M  END
$$$$
