PRF.pdb
     RDKit          3D

 30 31  0  0  1  0  0  0  0  0999 V2000
   10.5753  -19.0255   20.6788 N   0  0  0  0  0  0  0  0  0  0  0  0
   10.1272  -19.3402   19.3341 C   0  0  0  0  0  0  0  0  0  0  0  0
   11.2297  -18.8433   18.4177 C   0  0  0  0  0  0  0  0  0  0  0  0
   11.7360  -17.6221   19.1511 C   0  0  0  0  0  0  0  0  0  0  0  0
   11.4722  -17.9183   20.5720 C   0  0  1  0  0  0  0  0  0  0  0  0
   10.9954  -16.7675   21.3656 C   0  0  0  0  0  0  0  0  0  0  0  0
   11.7419  -15.7590   21.4264 O   0  0  0  0  0  0  0  0  0  0  0  0
    8.7463  -12.1284   18.2504 N   0  0  0  0  0  0  0  0  0  0  0  0
    8.0874  -13.3446   17.9400 C   0  0  0  0  0  0  0  0  0  0  0  0
    8.3503  -13.9576   16.8402 N   0  0  0  0  0  0  0  0  0  0  0  0
    7.1214  -13.9289   18.8170 N   0  0  0  0  0  0  0  0  0  0  0  0
    7.2665  -13.9021   20.2496 C   0  0  0  0  0  0  0  0  0  0  0  0
    7.7582  -15.2393   20.7844 C   0  0  0  0  0  0  0  0  0  0  0  0
    7.8587  -15.2267   22.2860 C   0  0  0  0  0  0  0  0  0  0  0  0
    9.2867  -15.5669   22.7363 C   0  0  2  0  0  0  0  0  0  0  0  0
    9.7451  -16.7668   22.0470 N   0  0  0  0  0  0  0  0  0  0  0  0
    9.1333  -15.9468   24.1852 C   0  0  0  0  0  0  0  0  0  0  0  0
    8.4490  -16.9467   24.5374 O   0  0  0  0  0  0  0  0  0  0  0  0
    7.9035  -14.8380   16.5591 N   0  0  0  0  0  0  0  0  0  0  0  0
    9.7347  -15.2225   25.2283 C   0  0  2  0  0  0  0  0  0  0  0  0
    9.4163  -15.4421   26.5857 C   0  0  0  0  0  0  0  0  0  0  0  0
    7.9926  -15.2599   26.9835 C   0  0  0  0  0  0  0  0  0  0  0  0
    7.4692  -13.8725   26.7593 C   0  0  0  0  0  0  0  0  0  0  0  0
    8.2599  -12.7692   27.0167 C   0  0  0  0  0  0  0  0  0  0  0  0
    7.7508  -11.5096   26.8087 C   0  0  0  0  0  0  0  0  0  0  0  0
    6.4661  -11.2919   26.3473 C   0  0  0  0  0  0  0  0  0  0  0  0
    5.6740  -12.3798   26.0889 C   0  0  0  0  0  0  0  0  0  0  0  0
    6.1925  -13.6422   26.3005 C   0  0  0  0  0  0  0  0  0  0  0  0
    9.8654  -16.7872   27.0008 O   0  0  0  0  0  0  0  0  0  0  0  0
   10.6340  -17.6188   26.1720 O   0  0  0  0  0  0  0  0  0  0  0  0
  1  2  1  0
  3  2  1  0
  4  5  1  0
  4  3  1  0
  5  1  1  0
  6 16  1  0
  5  6  1  6
  7  6  2  0
  9 10  2  0
  9  8  1  0
 11  9  1  0
 12 11  1  0
 12 13  1  0
 14 13  1  0
 15 14  1  6
 15 16  1  0
 17 19  1  0
 17 15  1  0
 18 17  2  0
 20 19  1  0
 20 28  1  0
 21 22  1  0
 20 21  1  6
 22 27  1  0
 23 22  2  0
 23 24  1  0
 24 25  2  0
 25 26  1  0
 27 26  2  0
 28 29  1  0
 30 28  2  0
M  END
$$$$
