PRF.pdb
     RDKit          3D

 30 31  0  0  1  0  0  0  0  0999 V2000
    9.1895  -14.0012   19.5589 N   0  0  0  0  0  0  0  0  0  0  0  0
    8.4277  -13.8291   18.3349 C   0  0  0  0  0  0  0  0  0  0  0  0
    7.4429  -12.7130   18.6293 C   0  0  0  0  0  0  0  0  0  0  0  0
    7.1375  -12.9272   20.0943 C   0  0  0  0  0  0  0  0  0  0  0  0
    8.3634  -13.5466   20.6326 C   0  0  1  0  0  0  0  0  0  0  0  0
    8.1317  -14.6214   21.6189 C   0  0  0  0  0  0  0  0  0  0  0  0
    7.0614  -14.5817   22.2754 O   0  0  0  0  0  0  0  0  0  0  0  0
   10.3468  -18.4033   18.3535 N   0  0  0  0  0  0  0  0  0  0  0  0
    9.7652  -19.6938   18.4306 C   0  0  0  0  0  0  0  0  0  0  0  0
    9.3240  -20.2664   17.3668 N   0  0  0  0  0  0  0  0  0  0  0  0
    9.6453  -20.3988   19.6685 N   0  0  0  0  0  0  0  0  0  0  0  0
   10.0294  -19.8145   20.9275 C   0  0  0  0  0  0  0  0  0  0  0  0
    9.2346  -18.5501   21.2198 C   0  0  0  0  0  0  0  0  0  0  0  0
    9.6227  -17.9515   22.5450 C   0  0  0  0  0  0  0  0  0  0  0  0
    8.7834  -16.7002   22.8410 C   0  0  2  0  0  0  0  0  0  0  0  0
    9.0622  -15.6758   21.8421 N   0  0  0  0  0  0  0  0  0  0  0  0
    9.3416  -16.1836   24.1405 C   0  0  0  0  0  0  0  0  0  0  0  0
   10.4058  -15.5069   24.1802 O   0  0  0  0  0  0  0  0  0  0  0  0
    8.9463  -21.2209   17.3496 N   0  0  0  0  0  0  0  0  0  0  0  0
    8.7221  -16.4174   25.3798 C   0  0  1  0  0  0  0  0  0  0  0  0
    9.2922  -16.0031   26.6026 C   0  0  0  0  0  0  0  0  0  0  0  0
    8.4186  -15.2279   27.5269 C   0  0  0  0  0  0  0  0  0  0  0  0
    7.7670  -14.0349   26.8936 C   0  0  0  0  0  0  0  0  0  0  0  0
    6.5095  -14.1331   26.3300 C   0  0  0  0  0  0  0  0  0  0  0  0
    5.9403  -13.0247   25.7501 C   0  0  0  0  0  0  0  0  0  0  0  0
    6.5763  -11.7983   25.7040 C   0  0  0  0  0  0  0  0  0  0  0  0
    7.8239  -11.6905   26.2603 C   0  0  0  0  0  0  0  0  0  0  0  0
    8.3894  -12.8087   26.8409 C   0  0  0  0  0  0  0  0  0  0  0  0
    9.8460  -17.1674   27.3243 O   0  0  0  0  0  0  0  0  0  0  0  0
   10.5936  -17.0416   28.5052 O   0  0  0  0  0  0  0  0  0  0  0  0
  1  2  1  0
  3  2  1  0
  4  5  1  0
  4  3  1  0
  5  1  1  0
  6 16  1  0
  5  6  1  1
  7  6  2  0
  9 10  2  0
  9  8  1  0
 11  9  1  0
 12 11  1  0
 12 13  1  0
 14 13  1  0
 15 14  1  6
 15 16  1  0
 17 19  1  0
 17 15  1  0
 18 17  2  0
 20 19  1  0
 20 28  1  0
 21 22  1  0
 20 21  1  6
 22 27  1  0
 23 22  2  0
 23 24  1  0
 24 25  2  0
 25 26  1  0
 27 26  2  0
 28 29  1  0
 30 28  2  0
M  END
$$$$
