PRF.pdb
     RDKit          3D

 30 31  0  0  1  0  0  0  0  0999 V2000
    9.0967  -14.6566   19.5914 N   0  0  0  0  0  0  0  0  0  0  0  0
    8.4802  -14.4878   18.2878 C   0  0  0  0  0  0  0  0  0  0  0  0
    7.8772  -13.0956   18.3067 C   0  0  0  0  0  0  0  0  0  0  0  0
    7.4563  -12.9434   19.7507 C   0  0  0  0  0  0  0  0  0  0  0  0
    8.4055  -13.7924   20.4955 C   0  0  1  0  0  0  0  0  0  0  0  0
    7.8094  -14.5549   21.6113 C   0  0  0  0  0  0  0  0  0  0  0  0
    7.1107  -13.9175   22.4380 O   0  0  0  0  0  0  0  0  0  0  0  0
    6.6992  -23.1098   21.3863 N   0  0  0  0  0  0  0  0  0  0  0  0
    6.1535  -21.9440   21.9804 C   0  0  0  0  0  0  0  0  0  0  0  0
    4.8863  -21.8566   22.1828 N   0  0  0  0  0  0  0  0  0  0  0  0
    6.9711  -20.8379   22.3702 N   0  0  0  0  0  0  0  0  0  0  0  0
    7.0748  -20.4020   23.7389 C   0  0  0  0  0  0  0  0  0  0  0  0
    6.8765  -18.8981   23.8606 C   0  0  0  0  0  0  0  0  0  0  0  0
    7.5330  -18.1637   22.7227 C   0  0  0  0  0  0  0  0  0  0  0  0
    7.4246  -16.6453   22.9235 C   0  0  2  0  0  0  0  0  0  0  0  0
    7.9981  -15.9569   21.7736 N   0  0  0  0  0  0  0  0  0  0  0  0
    8.3419  -16.3626   24.0836 C   0  0  0  0  0  0  0  0  0  0  0  0
    9.5924  -16.2856   23.9338 O   0  0  0  0  0  0  0  0  0  0  0  0
    4.4384  -21.0578   22.6467 N   0  0  0  0  0  0  0  0  0  0  0  0
    7.8724  -16.1678   25.3935 C   0  0  2  0  0  0  0  0  0  0  0  0
    8.7237  -15.7988   26.4571 C   0  0  0  0  0  0  0  0  0  0  0  0
    8.1629  -14.8746   27.4816 C   0  0  0  0  0  0  0  0  0  0  0  0
    7.5525  -13.6292   26.9109 C   0  0  0  0  0  0  0  0  0  0  0  0
    8.3224  -12.7247   26.2054 C   0  0  0  0  0  0  0  0  0  0  0  0
    7.7372  -11.5884   25.7002 C   0  0  0  0  0  0  0  0  0  0  0  0
    6.3948  -11.3042   25.8673 C   0  0  0  0  0  0  0  0  0  0  0  0
    5.6226  -12.1951   26.5656 C   0  0  0  0  0  0  0  0  0  0  0  0
    6.2179  -13.3345   27.0703 C   0  0  0  0  0  0  0  0  0  0  0  0
    9.2468  -17.0058   27.1301 O   0  0  0  0  0  0  0  0  0  0  0  0
   10.2315  -16.9500   28.1284 O   0  0  0  0  0  0  0  0  0  0  0  0
  1  2  1  0
  3  2  1  0
  4  5  1  0
  4  3  1  0
  5  1  1  0
  6 16  1  0
  5  6  1  1
  7  6  2  0
  9 10  2  0
  9  8  1  0
 11  9  1  0
 12 11  1  0
 12 13  1  0
 14 13  1  0
 15 14  1  6
 15 16  1  0
 17 19  1  0
 17 15  1  0
 18 17  2  0
 20 19  1  0
 20 28  1  0
 21 22  1  0
 20 21  1  6
 22 27  1  0
 23 22  2  0
 23 24  1  0
 24 25  2  0
 25 26  1  0
 27 26  2  0
 28 29  1  0
 30 28  2  0
M  END
$$$$
