PRF.pdb
     RDKit          3D

 30 31  0  0  1  0  0  0  0  0999 V2000
    9.4913  -14.2439   20.0418 N   0  0  0  0  0  0  0  0  0  0  0  0
    9.0687  -13.9916   18.6758 C   0  0  0  0  0  0  0  0  0  0  0  0
    8.2315  -12.7279   18.7422 C   0  0  0  0  0  0  0  0  0  0  0  0
    7.5671  -12.8490   20.0948 C   0  0  0  0  0  0  0  0  0  0  0  0
    8.5226  -13.6352   20.8980 C   0  0  1  0  0  0  0  0  0  0  0  0
    7.9034  -14.6315   21.7955 C   0  0  0  0  0  0  0  0  0  0  0  0
    6.7642  -14.3666   22.2538 O   0  0  0  0  0  0  0  0  0  0  0  0
   10.7965  -18.1918   18.8733 N   0  0  0  0  0  0  0  0  0  0  0  0
    9.7633  -19.0962   18.5211 C   0  0  0  0  0  0  0  0  0  0  0  0
    9.2649  -19.0752   17.3355 N   0  0  0  0  0  0  0  0  0  0  0  0
    9.2408  -20.0494   19.4496 N   0  0  0  0  0  0  0  0  0  0  0  0
    9.1943  -19.7980   20.8669 C   0  0  0  0  0  0  0  0  0  0  0  0
    8.5121  -18.4730   21.1750 C   0  0  0  0  0  0  0  0  0  0  0  0
    8.4043  -18.2428   22.6584 C   0  0  0  0  0  0  0  0  0  0  0  0
    7.8379  -16.8456   22.9501 C   0  0  2  0  0  0  0  0  0  0  0  0
    8.5433  -15.8537   22.1479 N   0  0  0  0  0  0  0  0  0  0  0  0
    8.2274  -16.5837   24.3808 C   0  0  0  0  0  0  0  0  0  0  0  0
    7.7132  -17.2301   25.3347 O   0  0  0  0  0  0  0  0  0  0  0  0
    8.5141  -19.7018   17.0232 N   0  0  0  0  0  0  0  0  0  0  0  0
    9.1778  -15.6147   24.7442 C   0  0  2  0  0  0  0  0  0  0  0  0
    9.5444  -15.3783   26.0865 C   0  0  0  0  0  0  0  0  0  0  0  0
    8.4409  -15.2939   27.0832 C   0  0  0  0  0  0  0  0  0  0  0  0
    7.5974  -14.0603   26.9566 C   0  0  0  0  0  0  0  0  0  0  0  0
    8.1623  -12.8525   26.5951 C   0  0  0  0  0  0  0  0  0  0  0  0
    7.3657  -11.7371   26.4941 C   0  0  0  0  0  0  0  0  0  0  0  0
    6.0059  -11.7678   26.7408 C   0  0  0  0  0  0  0  0  0  0  0  0
    5.4361  -12.9611   27.0999 C   0  0  0  0  0  0  0  0  0  0  0  0
    6.2431  -14.0773   27.1995 C   0  0  0  0  0  0  0  0  0  0  0  0
   10.5209  -16.3938   26.5319 O   0  0  0  0  0  0  0  0  0  0  0  0
   10.9358  -17.4562   25.7143 O   0  0  0  0  0  0  0  0  0  0  0  0
  1  2  1  0
  3  2  1  0
  4  5  1  0
  4  3  1  0
  5  1  1  0
  6 16  1  0
  5  6  1  6
  7  6  2  0
  9 10  2  0
  9  8  1  0
 11  9  1  0
 12 11  1  0
 12 13  1  0
 14 13  1  0
 15 14  1  6
 15 16  1  0
 17 19  1  0
 17 15  1  0
 18 17  2  0
 20 19  1  0
 20 28  1  0
 21 22  1  0
 20 21  1  6
 22 27  1  0
 23 22  2  0
 23 24  1  0
 24 25  2  0
 25 26  1  0
 27 26  2  0
 28 29  1  0
 30 28  2  0
M  END
$$$$
