PRF.pdb
     RDKit          3D

 30 31  0  0  1  0  0  0  0  0999 V2000
    9.4957  -14.3895   17.8512 N   0  0  0  0  0  0  0  0  0  0  0  0
    8.7527  -14.4003   16.6038 C   0  0  0  0  0  0  0  0  0  0  0  0
    7.7038  -13.3141   16.7527 C   0  0  0  0  0  0  0  0  0  0  0  0
    7.3784  -13.3766   18.2277 C   0  0  0  0  0  0  0  0  0  0  0  0
    8.6235  -13.8619   18.8526 C   0  0  1  0  0  0  0  0  0  0  0  0
    8.4278  -14.8284   19.9522 C   0  0  0  0  0  0  0  0  0  0  0  0
    7.4244  -14.6677   20.6906 O   0  0  0  0  0  0  0  0  0  0  0  0
   12.9929  -21.9720   23.3481 N   0  0  0  0  0  0  0  0  0  0  0  0
   11.6420  -22.0129   23.7759 C   0  0  0  0  0  0  0  0  0  0  0  0
   11.2300  -22.9792   24.5181 N   0  0  0  0  0  0  0  0  0  0  0  0
   10.6989  -21.0038   23.4070 N   0  0  0  0  0  0  0  0  0  0  0  0
   11.0273  -19.9404   22.4931 C   0  0  0  0  0  0  0  0  0  0  0  0
    9.8996  -18.9233   22.3942 C   0  0  0  0  0  0  0  0  0  0  0  0
   10.2194  -17.8441   21.3953 C   0  0  0  0  0  0  0  0  0  0  0  0
    9.0458  -16.8626   21.2636 C   0  0  2  0  0  0  0  0  0  0  0  0
    9.3206  -15.9110   20.1941 N   0  0  0  0  0  0  0  0  0  0  0  0
    9.0810  -16.0753   22.5466 C   0  0  0  0  0  0  0  0  0  0  0  0
   10.0283  -15.2850   22.8113 O   0  0  0  0  0  0  0  0  0  0  0  0
   10.2652  -23.0632   24.8587 N   0  0  0  0  0  0  0  0  0  0  0  0
    8.0736  -16.1667   23.5220 C   0  0  1  0  0  0  0  0  0  0  0  0
    7.9658  -15.2491   24.5889 C   0  0  0  0  0  0  0  0  0  0  0  0
    6.8786  -14.2350   24.5002 C   0  0  0  0  0  0  0  0  0  0  0  0
    6.7705  -13.3495   25.7058 C   0  0  0  0  0  0  0  0  0  0  0  0
    5.8495  -13.6189   26.6997 C   0  0  0  0  0  0  0  0  0  0  0  0
    5.7682  -12.7856   27.7896 C   0  0  0  0  0  0  0  0  0  0  0  0
    6.5766  -11.6744   27.9400 C   0  0  0  0  0  0  0  0  0  0  0  0
    7.4933  -11.3987   26.9596 C   0  0  0  0  0  0  0  0  0  0  0  0
    7.5689  -12.2405   25.8675 C   0  0  0  0  0  0  0  0  0  0  0  0
    7.8469  -15.9738   25.8711 O   0  0  0  0  0  0  0  0  0  0  0  0
    8.6262  -15.6586   26.9948 O   0  0  0  0  0  0  0  0  0  0  0  0
  1  2  1  0
  3  2  1  0
  4  5  1  0
  4  3  1  0
  5  1  1  0
  6 16  1  0
  5  6  1  1
  7  6  2  0
  9 10  2  0
  9  8  1  0
 11  9  1  0
 12 11  1  0
 12 13  1  0
 14 13  1  0
 15 14  1  1
 15 16  1  0
 17 19  1  0
 17 15  1  0
 18 17  2  0
 20 19  1  0
 20 28  1  0
 21 22  1  0
 20 21  1  1
 22 27  1  0
 23 22  2  0
 23 24  1  0
 24 25  2  0
 25 26  1  0
 27 26  2  0
 28 29  1  0
 30 28  2  0
M  END
$$$$
