PSH.pdb
     RDKit          3D

 24 25  0  0  1  0  0  0  0  0999 V2000
    9.6524  -16.4810   14.2451 N   0  0  0  0  0  0  0  0  0  0  0  0
    9.2275  -16.3762   12.8620 C   0  0  0  0  0  0  0  0  0  0  0  0
    8.0218  -15.4696   12.8539 C   0  0  0  0  0  0  0  0  0  0  0  0
    7.4841  -15.6881   14.2526 C   0  0  0  0  0  0  0  0  0  0  0  0
    8.7598  -15.7457   15.0664 C   0  0  1  0  0  0  0  0  0  0  0  0
    8.5344  -16.2628   16.4211 C   0  0  0  0  0  0  0  0  0  0  0  0
    7.8197  -15.5810   17.2163 O   0  0  0  0  0  0  0  0  0  0  0  0
   10.6402  -19.3391   17.8907 O   0  0  0  0  0  0  0  0  0  0  0  0
    9.3015  -19.3944   18.3475 C   0  0  0  0  0  0  0  0  0  0  0  0
    8.7845  -17.9758   18.2860 C   0  0  2  0  0  0  0  0  0  0  0  0
    9.0380  -17.4703   16.9566 N   0  0  0  0  0  0  0  0  0  0  0  0
    9.5096  -17.2028   19.3255 C   0  0  0  0  0  0  0  0  0  0  0  0
   10.6413  -16.7393   18.9680 O   0  0  0  0  0  0  0  0  0  0  0  0
    9.0643  -16.9498   20.6279 N   0  0  0  0  0  0  0  0  0  0  0  0
    9.8535  -16.2001   21.5824 C   0  0  1  0  0  0  0  0  0  0  0  0
    9.0807  -15.1164   22.2541 C   0  0  0  0  0  0  0  0  0  0  0  0
    8.7050  -14.0030   21.3612 C   0  0  0  0  0  0  0  0  0  0  0  0
    9.1410  -13.9298   20.0572 C   0  0  0  0  0  0  0  0  0  0  0  0
    8.6587  -12.8192   19.4860 N   0  0  0  0  0  0  0  0  0  0  0  0
    7.9261  -12.2017   20.4254 C   0  0  0  0  0  0  0  0  0  0  0  0
    7.9583  -12.9261   21.5623 N   0  0  0  0  0  0  0  0  0  0  0  0
   10.3747  -17.0936   22.6689 C   0  0  0  0  0  0  0  0  0  0  0  0
   10.0467  -18.3044   22.7688 O   0  0  0  0  0  0  0  0  0  0  0  0
   11.2528  -16.5598   23.5988 O   0  0  0  0  0  0  0  0  0  0  0  0
  1  5  1  0
  1  2  1  0
  2  3  1  0
  4  3  1  0
  5  6  1  1
  5  4  1  0
  6 11  1  0
  6  7  2  0
  9  8  1  0
 10  9  1  6
 10 12  1  0
 11 10  1  0
 12 13  2  0
 12 14  1  0
 14 15  1  0
 15 16  1  1
 15 22  1  0
 17 21  1  0
 17 16  1  0
 18 17  2  0
 19 18  1  0
 19 20  1  0
 20 21  2  0
 22 24  1  0
 23 22  2  0
M  END
$$$$
