PSH.pdb
     RDKit          3D

 24 25  0  0  1  0  0  0  0  0999 V2000
    7.1257  -15.2509   19.9981 N   0  0  0  0  0  0  0  0  0  0  0  0
    6.3736  -14.5206   18.9954 C   0  0  0  0  0  0  0  0  0  0  0  0
    7.3147  -13.4892   18.4240 C   0  0  0  0  0  0  0  0  0  0  0  0
    8.2623  -13.2837   19.5872 C   0  0  0  0  0  0  0  0  0  0  0  0
    8.4279  -14.6983   20.1018 C   0  0  1  0  0  0  0  0  0  0  0  0
    9.0570  -14.7396   21.4269 C   0  0  0  0  0  0  0  0  0  0  0  0
   10.3056  -14.5347   21.5091 O   0  0  0  0  0  0  0  0  0  0  0  0
    6.8773  -15.4748   24.6990 O   0  0  0  0  0  0  0  0  0  0  0  0
    7.9566  -14.6004   24.9719 C   0  0  0  0  0  0  0  0  0  0  0  0
    9.0294  -14.9402   23.9635 C   0  0  2  0  0  0  0  0  0  0  0  0
    8.4103  -14.9891   22.6591 N   0  0  0  0  0  0  0  0  0  0  0  0
    9.6003  -16.2518   24.3605 C   0  0  0  0  0  0  0  0  0  0  0  0
    8.9373  -17.2711   23.9801 O   0  0  0  0  0  0  0  0  0  0  0  0
   10.7729  -16.4534   25.0974 N   0  0  0  0  0  0  0  0  0  0  0  0
   11.2403  -17.7749   25.4596 C   0  0  1  0  0  0  0  0  0  0  0  0
   12.7204  -17.9191   25.3530 C   0  0  0  0  0  0  0  0  0  0  0  0
   13.2414  -17.7771   23.9796 C   0  0  0  0  0  0  0  0  0  0  0  0
   12.4110  -17.7139   22.8832 C   0  0  0  0  0  0  0  0  0  0  0  0
   13.1467  -17.5949   21.7710 N   0  0  0  0  0  0  0  0  0  0  0  0
   14.4283  -17.5835   22.1682 C   0  0  0  0  0  0  0  0  0  0  0  0
   14.4790  -17.6945   23.5112 N   0  0  0  0  0  0  0  0  0  0  0  0
   10.8770  -18.1040   26.8774 C   0  0  0  0  0  0  0  0  0  0  0  0
   11.1688  -19.2032   27.4161 O   0  0  0  0  0  0  0  0  0  0  0  0
   10.1919  -17.1560   27.6209 O   0  0  0  0  0  0  0  0  0  0  0  0
  1  5  1  0
  1  2  1  0
  2  3  1  0
  4  3  1  0
  5  6  1  1
  5  4  1  0
  6 11  1  0
  6  7  2  0
  9  8  1  0
 10  9  1  1
 10 12  1  0
 11 10  1  0
 12 13  2  0
 12 14  1  0
 14 15  1  0
 15 16  1  1
 15 22  1  0
 17 21  1  0
 17 16  1  0
 18 17  2  0
 19 18  1  0
 19 20  1  0
 20 21  2  0
 22 24  1  0
 23 22  2  0
M  END
$$$$
