PSH.pdb
     RDKit          3D

 24 25  0  0  1  0  0  0  0  0999 V2000
    8.7649  -15.2278   17.7946 N   0  0  0  0  0  0  0  0  0  0  0  0
    8.3222  -14.6800   16.5264 C   0  0  0  0  0  0  0  0  0  0  0  0
    7.9849  -13.2321   16.7819 C   0  0  0  0  0  0  0  0  0  0  0  0
    7.6272  -13.2718   18.2529 C   0  0  0  0  0  0  0  0  0  0  0  0
    8.6681  -14.2281   18.7962 C   0  0  1  0  0  0  0  0  0  0  0  0
    8.3508  -14.6852   20.1540 C   0  0  0  0  0  0  0  0  0  0  0  0
    8.3436  -13.8319   21.0920 O   0  0  0  0  0  0  0  0  0  0  0  0
    8.6154  -18.5191   21.7280 O   0  0  0  0  0  0  0  0  0  0  0  0
    7.3426  -17.9058   21.8173 C   0  0  0  0  0  0  0  0  0  0  0  0
    7.6025  -16.4179   21.8607 C   0  0  2  0  0  0  0  0  0  0  0  0
    8.0430  -16.0077   20.5474 N   0  0  0  0  0  0  0  0  0  0  0  0
    8.6414  -16.1875   22.8958 C   0  0  0  0  0  0  0  0  0  0  0  0
    9.8450  -16.2837   22.4891 O   0  0  0  0  0  0  0  0  0  0  0  0
    8.4128  -15.8825   24.2423 N   0  0  0  0  0  0  0  0  0  0  0  0
    9.4897  -15.7740   25.2038 C   0  0  1  0  0  0  0  0  0  0  0  0
    9.4588  -14.4964   25.9717 C   0  0  0  0  0  0  0  0  0  0  0  0
    8.1424  -13.8293   25.9770 C   0  0  0  0  0  0  0  0  0  0  0  0
    7.7409  -12.9914   24.9609 C   0  0  0  0  0  0  0  0  0  0  0  0
    6.5157  -12.5217   25.2262 N   0  0  0  0  0  0  0  0  0  0  0  0
    6.1527  -13.0615   26.3998 C   0  0  0  0  0  0  0  0  0  0  0  0
    7.1455  -13.8550   26.8506 N   0  0  0  0  0  0  0  0  0  0  0  0
    9.4249  -16.8833   26.2115 C   0  0  0  0  0  0  0  0  0  0  0  0
    8.4884  -17.7234   26.2380 O   0  0  0  0  0  0  0  0  0  0  0  0
   10.4397  -16.9834   27.1501 O   0  0  0  0  0  0  0  0  0  0  0  0
  1  5  1  0
  1  2  1  0
  2  3  1  0
  4  3  1  0
  5  6  1  1
  5  4  1  0
  6 11  1  0
  6  7  2  0
  9  8  1  0
 10  9  1  6
 10 12  1  0
 11 10  1  0
 12 13  2  0
 12 14  1  0
 14 15  1  0
 15 16  1  1
 15 22  1  0
 17 21  1  0
 17 16  1  0
 18 17  2  0
 19 18  1  0
 19 20  1  0
 20 21  2  0
 22 24  1  0
 23 22  2  0
M  END
$$$$
