PSH.pdb
     RDKit          3D

 24 25  0  0  1  0  0  0  0  0999 V2000
    7.1489  -15.1675   20.0213 N   0  0  0  0  0  0  0  0  0  0  0  0
    6.4180  -14.4120   19.0216 C   0  0  0  0  0  0  0  0  0  0  0  0
    7.3335  -13.2995   18.5745 C   0  0  0  0  0  0  0  0  0  0  0  0
    8.1992  -13.1230   19.8043 C   0  0  0  0  0  0  0  0  0  0  0  0
    8.4110  -14.5580   20.2391 C   0  0  1  0  0  0  0  0  0  0  0  0
    8.9633  -14.6542   21.5953 C   0  0  0  0  0  0  0  0  0  0  0  0
   10.2196  -14.5665   21.7431 O   0  0  0  0  0  0  0  0  0  0  0  0
    6.6583  -15.4865   24.8357 O   0  0  0  0  0  0  0  0  0  0  0  0
    7.6449  -14.5016   25.0820 C   0  0  0  0  0  0  0  0  0  0  0  0
    8.7778  -14.8034   24.1287 C   0  0  2  0  0  0  0  0  0  0  0  0
    8.2325  -14.8387   22.7914 N   0  0  0  0  0  0  0  0  0  0  0  0
    9.3503  -16.1120   24.5334 C   0  0  0  0  0  0  0  0  0  0  0  0
    8.7111  -17.1352   24.1240 O   0  0  0  0  0  0  0  0  0  0  0  0
   10.5011  -16.3070   25.3056 N   0  0  0  0  0  0  0  0  0  0  0  0
   10.9773  -17.6266   25.6633 C   0  0  1  0  0  0  0  0  0  0  0  0
   12.4568  -17.7649   25.5420 C   0  0  0  0  0  0  0  0  0  0  0  0
   12.9633  -17.6237   24.1630 C   0  0  0  0  0  0  0  0  0  0  0  0
   12.1253  -17.6215   23.0706 C   0  0  0  0  0  0  0  0  0  0  0  0
   12.8487  -17.4880   21.9521 N   0  0  0  0  0  0  0  0  0  0  0  0
   14.1302  -17.4070   22.3413 C   0  0  0  0  0  0  0  0  0  0  0  0
   14.1930  -17.4900   23.6858 N   0  0  0  0  0  0  0  0  0  0  0  0
   10.6294  -17.9570   27.0846 C   0  0  0  0  0  0  0  0  0  0  0  0
   10.9213  -19.0592   27.6171 O   0  0  0  0  0  0  0  0  0  0  0  0
    9.9589  -17.0069   27.8386 O   0  0  0  0  0  0  0  0  0  0  0  0
  1  5  1  0
  1  2  1  0
  2  3  1  0
  4  3  1  0
  5  6  1  1
  5  4  1  0
  6 11  1  0
  6  7  2  0
  9  8  1  0
 10  9  1  1
 10 12  1  0
 11 10  1  0
 12 13  2  0
 12 14  1  0
 14 15  1  0
 15 16  1  1
 15 22  1  0
 17 21  1  0
 17 16  1  0
 18 17  2  0
 19 18  1  0
 19 20  1  0
 20 21  2  0
 22 24  1  0
 23 22  2  0
M  END
$$$$
