PSH.pdb
     RDKit          3D

 24 25  0  0  1  0  0  0  0  0999 V2000
    9.2904  -14.4506   19.1833 N   0  0  0  0  0  0  0  0  0  0  0  0
    8.8449  -13.8729   17.9295 C   0  0  0  0  0  0  0  0  0  0  0  0
    7.8102  -12.8335   18.2828 C   0  0  0  0  0  0  0  0  0  0  0  0
    7.2888  -13.3768   19.5966 C   0  0  0  0  0  0  0  0  0  0  0  0
    8.5621  -13.8686   20.2524 C   0  0  1  0  0  0  0  0  0  0  0  0
    8.2963  -14.7274   21.4123 C   0  0  0  0  0  0  0  0  0  0  0  0
    7.4972  -14.3084   22.3031 O   0  0  0  0  0  0  0  0  0  0  0  0
    8.6713  -19.0724   23.5321 O   0  0  0  0  0  0  0  0  0  0  0  0
    9.1430  -18.2199   22.5051 C   0  0  0  0  0  0  0  0  0  0  0  0
    8.5147  -16.8707   22.7663 C   0  0  2  0  0  0  0  0  0  0  0  0
    8.8459  -16.0067   21.6569 N   0  0  0  0  0  0  0  0  0  0  0  0
    9.0718  -16.3719   24.0487 C   0  0  0  0  0  0  0  0  0  0  0  0
   10.2032  -15.7926   23.9613 O   0  0  0  0  0  0  0  0  0  0  0  0
    8.4731  -16.4836   25.3087 N   0  0  0  0  0  0  0  0  0  0  0  0
    9.0584  -15.8994   26.4970 C   0  0  1  0  0  0  0  0  0  0  0  0
    8.0500  -15.2583   27.3886 C   0  0  0  0  0  0  0  0  0  0  0  0
    7.3077  -14.1496   26.7579 C   0  0  0  0  0  0  0  0  0  0  0  0
    7.9122  -12.9584   26.4246 C   0  0  0  0  0  0  0  0  0  0  0  0
    7.0083  -12.1352   25.8792 N   0  0  0  0  0  0  0  0  0  0  0  0
    5.8463  -12.8061   25.8710 C   0  0  0  0  0  0  0  0  0  0  0  0
    6.0350  -14.0294   26.4062 N   0  0  0  0  0  0  0  0  0  0  0  0
    9.7591  -16.9405   27.3189 C   0  0  0  0  0  0  0  0  0  0  0  0
    9.7661  -18.1600   27.0085 O   0  0  0  0  0  0  0  0  0  0  0  0
   10.4245  -16.5388   28.4663 O   0  0  0  0  0  0  0  0  0  0  0  0
  1  5  1  0
  1  2  1  0
  2  3  1  0
  4  3  1  0
  5  6  1  1
  5  4  1  0
  6 11  1  0
  6  7  2  0
  9  8  1  0
 10  9  1  6
 10 12  1  0
 11 10  1  0
 12 13  2  0
 12 14  1  0
 14 15  1  0
 15 16  1  1
 15 22  1  0
 17 21  1  0
 17 16  1  0
 18 17  2  0
 19 18  1  0
 19 20  1  0
 20 21  2  0
 22 24  1  0
 23 22  2  0
M  END
$$$$
