PSH.pdb
     RDKit          3D

 24 25  0  0  1  0  0  0  0  0999 V2000
    7.8131  -15.5552   19.8772 N   0  0  0  0  0  0  0  0  0  0  0  0
    6.8963  -15.0602   18.8679 C   0  0  0  0  0  0  0  0  0  0  0  0
    7.3284  -13.6492   18.5548 C   0  0  0  0  0  0  0  0  0  0  0  0
    7.9960  -13.2539   19.8552 C   0  0  0  0  0  0  0  0  0  0  0  0
    8.7270  -14.5276   20.2246 C   0  0  1  0  0  0  0  0  0  0  0  0
    9.2058  -14.5136   21.6117 C   0  0  0  0  0  0  0  0  0  0  0  0
   10.0547  -13.6340   21.9485 O   0  0  0  0  0  0  0  0  0  0  0  0
    8.6992  -14.4354   26.1114 O   0  0  0  0  0  0  0  0  0  0  0  0
    8.1703  -14.6213   24.8115 C   0  0  0  0  0  0  0  0  0  0  0  0
    9.2494  -15.3260   24.0227 C   0  0  2  0  0  0  0  0  0  0  0  0
    8.8168  -15.3953   22.6461 N   0  0  0  0  0  0  0  0  0  0  0  0
    9.4187  -16.6729   24.6237 C   0  0  0  0  0  0  0  0  0  0  0  0
    8.3767  -17.4061   24.6173 O   0  0  0  0  0  0  0  0  0  0  0  0
   10.5951  -17.1873   25.1806 N   0  0  0  0  0  0  0  0  0  0  0  0
   10.6727  -18.5287   25.7196 C   0  0  1  0  0  0  0  0  0  0  0  0
   11.9838  -19.1878   25.4556 C   0  0  0  0  0  0  0  0  0  0  0  0
   12.3509  -19.2467   24.0275 C   0  0  0  0  0  0  0  0  0  0  0  0
   11.4461  -19.6001   23.0517 C   0  0  0  0  0  0  0  0  0  0  0  0
   12.0470  -19.5790   21.8556 N   0  0  0  0  0  0  0  0  0  0  0  0
   13.3187  -19.2149   22.0807 C   0  0  0  0  0  0  0  0  0  0  0  0
   13.4968  -19.0145   23.4023 N   0  0  0  0  0  0  0  0  0  0  0  0
   10.4866  -18.5219   27.2081 C   0  0  0  0  0  0  0  0  0  0  0  0
   10.4750  -19.5753   27.8963 O   0  0  0  0  0  0  0  0  0  0  0  0
   10.3208  -17.3035   27.8475 O   0  0  0  0  0  0  0  0  0  0  0  0
  1  5  1  0
  1  2  1  0
  2  3  1  0
  4  3  1  0
  5  6  1  1
  5  4  1  0
  6 11  1  0
  6  7  2  0
  9  8  1  0
 10  9  1  1
 10 12  1  0
 11 10  1  0
 12 13  2  0
 12 14  1  0
 14 15  1  0
 15 16  1  1
 15 22  1  0
 17 21  1  0
 17 16  1  0
 18 17  2  0
 19 18  1  0
 19 20  1  0
 20 21  2  0
 22 24  1  0
 23 22  2  0
M  END
$$$$
