PSH.pdb
     RDKit          3D

 24 25  0  0  1  0  0  0  0  0999 V2000
    9.2889  -14.5280   18.6760 N   0  0  0  0  0  0  0  0  0  0  0  0
    9.0060  -13.8745   17.4122 C   0  0  0  0  0  0  0  0  0  0  0  0
    8.0238  -12.7700   17.7139 C   0  0  0  0  0  0  0  0  0  0  0  0
    7.3437  -13.3155   18.9520 C   0  0  0  0  0  0  0  0  0  0  0  0
    8.5103  -13.9277   19.6985 C   0  0  1  0  0  0  0  0  0  0  0  0
    8.0747  -14.8023   20.7934 C   0  0  0  0  0  0  0  0  0  0  0  0
    7.4057  -14.2935   21.7428 O   0  0  0  0  0  0  0  0  0  0  0  0
    9.6298  -18.5704   21.7344 O   0  0  0  0  0  0  0  0  0  0  0  0
    8.2215  -18.4621   21.6403 C   0  0  0  0  0  0  0  0  0  0  0  0
    7.8913  -17.0331   22.0037 C   0  0  2  0  0  0  0  0  0  0  0  0
    8.3232  -16.1888   20.9140 N   0  0  0  0  0  0  0  0  0  0  0  0
    8.6103  -16.7277   23.2661 C   0  0  0  0  0  0  0  0  0  0  0  0
    9.5422  -15.8646   23.1660 O   0  0  0  0  0  0  0  0  0  0  0  0
    8.3554  -17.2945   24.5200 N   0  0  0  0  0  0  0  0  0  0  0  0
    8.6136  -16.5854   25.7555 C   0  0  1  0  0  0  0  0  0  0  0  0
    7.3785  -16.0259   26.3754 C   0  0  0  0  0  0  0  0  0  0  0  0
    7.1296  -14.6087   26.0476 C   0  0  0  0  0  0  0  0  0  0  0  0
    8.0047  -13.8677   25.2853 C   0  0  0  0  0  0  0  0  0  0  0  0
    7.5372  -12.6203   25.1531 N   0  0  0  0  0  0  0  0  0  0  0  0
    6.3779  -12.5804   25.8276 C   0  0  0  0  0  0  0  0  0  0  0  0
    6.1360  -13.7917   26.3686 N   0  0  0  0  0  0  0  0  0  0  0  0
    9.2345  -17.4923   26.7765 C   0  0  0  0  0  0  0  0  0  0  0  0
    9.0920  -18.7424   26.7512 O   0  0  0  0  0  0  0  0  0  0  0  0
    9.9950  -16.9263   27.7875 O   0  0  0  0  0  0  0  0  0  0  0  0
  1  5  1  0
  1  2  1  0
  2  3  1  0
  4  3  1  0
  5  6  1  1
  5  4  1  0
  6 11  1  0
  6  7  2  0
  9  8  1  0
 10  9  1  6
 10 12  1  0
 11 10  1  0
 12 13  2  0
 12 14  1  0
 14 15  1  0
 15 16  1  1
 15 22  1  0
 17 21  1  0
 17 16  1  0
 18 17  2  0
 19 18  1  0
 19 20  1  0
 20 21  2  0
 22 24  1  0
 23 22  2  0
M  END
$$$$
