PSH.pdb
     RDKit          3D

 24 25  0  0  1  0  0  0  0  0999 V2000
    8.0187  -14.9819   17.6551 N   0  0  0  0  0  0  0  0  0  0  0  0
    7.0269  -14.4661   16.7307 C   0  0  0  0  0  0  0  0  0  0  0  0
    7.3659  -13.0130   16.5088 C   0  0  0  0  0  0  0  0  0  0  0  0
    8.0758  -12.6786   17.8040 C   0  0  0  0  0  0  0  0  0  0  0  0
    8.8921  -13.9322   18.0390 C   0  0  1  0  0  0  0  0  0  0  0  0
    9.4386  -13.9949   19.3995 C   0  0  0  0  0  0  0  0  0  0  0  0
   10.5859  -13.4988   19.6126 O   0  0  0  0  0  0  0  0  0  0  0  0
    7.7174  -16.2474   22.1933 O   0  0  0  0  0  0  0  0  0  0  0  0
    8.2906  -15.1042   22.8003 C   0  0  0  0  0  0  0  0  0  0  0  0
    9.3784  -14.6385   21.8606 C   0  0  2  0  0  0  0  0  0  0  0  0
    8.8132  -14.5623   20.5333 N   0  0  0  0  0  0  0  0  0  0  0  0
   10.4792  -15.6311   21.9430 C   0  0  0  0  0  0  0  0  0  0  0  0
   10.3598  -16.6406   21.1748 O   0  0  0  0  0  0  0  0  0  0  0  0
   11.6040  -15.5506   22.7717 N   0  0  0  0  0  0  0  0  0  0  0  0
   12.5858  -16.6120   22.8473 C   0  0  1  0  0  0  0  0  0  0  0  0
   13.9629  -16.1578   22.5006 C   0  0  0  0  0  0  0  0  0  0  0  0
   14.0922  -15.6186   21.1330 C   0  0  0  0  0  0  0  0  0  0  0  0
   13.5664  -16.2654   20.0371 C   0  0  0  0  0  0  0  0  0  0  0  0
   13.8368  -15.5622   18.9304 N   0  0  0  0  0  0  0  0  0  0  0  0
   14.5267  -14.4831   19.3304 C   0  0  0  0  0  0  0  0  0  0  0  0
   14.6784  -14.5234   20.6697 N   0  0  0  0  0  0  0  0  0  0  0  0
   12.6568  -17.1812   24.2334 C   0  0  0  0  0  0  0  0  0  0  0  0
   13.4430  -18.1127   24.5461 O   0  0  0  0  0  0  0  0  0  0  0  0
   11.8204  -16.6573   25.2064 O   0  0  0  0  0  0  0  0  0  0  0  0
  1  5  1  0
  1  2  1  0
  2  3  1  0
  4  3  1  0
  5  6  1  1
  5  4  1  0
  6 11  1  0
  6  7  2  0
  9  8  1  0
 10  9  1  1
 10 12  1  0
 11 10  1  0
 12 13  2  0
 12 14  1  0
 14 15  1  0
 15 16  1  1
 15 22  1  0
 17 21  1  0
 17 16  1  0
 18 17  2  0
 19 18  1  0
 19 20  1  0
 20 21  2  0
 22 24  1  0
 23 22  2  0
M  END
$$$$
