DWH.pdb
     RDKit          3D

 33 35  0  0  1  0  0  0  0  0999 V2000
    9.4608  -17.3898   20.2449 N   0  0  0  0  0  0  0  0  0  0  0  0
   10.6845  -16.8061   20.7484 C   0  0  1  0  0  0  0  0  0  0  0  0
   11.1977  -15.7631   19.8151 C   0  0  0  0  0  0  0  0  0  0  0  0
   11.6347  -16.4228   18.5576 C   0  0  0  0  0  0  0  0  0  0  0  0
   11.9824  -17.6305   18.5533 O   0  0  0  0  0  0  0  0  0  0  0  0
   10.5116  -16.3935   22.1252 C   0  0  0  0  0  0  0  0  0  0  0  0
   11.3170  -15.5700   22.6280 O   0  0  0  0  0  0  0  0  0  0  0  0
   11.6806  -15.7474   17.3389 O   0  0  0  0  0  0  0  0  0  0  0  0
    9.4641  -16.8647   22.9822 N   0  0  0  0  0  0  0  0  0  0  0  0
    9.4269  -16.5314   24.3851 C   0  0  1  0  0  0  0  0  0  0  0  0
    8.0537  -16.3030   24.9382 C   0  0  0  0  0  0  0  0  0  0  0  0
    7.3984  -15.0552   24.5452 C   0  0  0  0  0  0  0  0  0  0  0  0
    6.8801  -14.8088   23.2885 C   0  0  0  0  0  0  0  0  0  0  0  0
    6.3870  -13.5644   23.3204 N   0  0  0  0  0  0  0  0  0  0  0  0
    6.5729  -13.0145   24.5487 C   0  0  0  0  0  0  0  0  0  0  0  0
    6.2460  -11.7853   25.0869 C   0  0  0  0  0  0  0  0  0  0  0  0
    6.5613  -11.5160   26.3891 C   0  0  0  0  0  0  0  0  0  0  0  0
    7.1985  -12.4103   27.2199 C   0  0  0  0  0  0  0  0  0  0  0  0
    7.5196  -13.6312   26.6729 C   0  0  0  0  0  0  0  0  0  0  0  0
    7.2123  -13.9282   25.3588 C   0  0  0  0  0  0  0  0  0  0  0  0
   10.2672  -17.4440   25.1945 C   0  0  0  0  0  0  0  0  0  0  0  0
   10.0640  -18.7006   25.2015 O   0  0  0  0  0  0  0  0  0  0  0  0
   11.3159  -16.9013   25.9693 N   0  0  0  0  0  0  0  0  0  0  0  0
   12.1714  -17.7769   26.8115 C   0  0  1  0  0  0  0  0  0  0  0  0
   13.4830  -17.0033   26.9387 C   0  0  0  0  0  0  0  0  0  0  0  0
   14.1454  -16.8861   25.6353 C   0  0  0  0  0  0  0  0  0  0  0  0
   14.0770  -17.8972   24.6661 C   0  0  0  0  0  0  0  0  0  0  0  0
   14.7722  -17.5093   23.5906 N   0  0  0  0  0  0  0  0  0  0  0  0
   15.2845  -16.2962   23.8227 C   0  0  0  0  0  0  0  0  0  0  0  0
   14.8942  -15.9375   25.0633 N   0  0  0  0  0  0  0  0  0  0  0  0
   11.5055  -17.9080   28.1157 C   0  0  0  0  0  0  0  0  0  0  0  0
   12.0944  -18.6403   29.1235 O   0  0  0  0  0  0  0  0  0  0  0  0
   10.4102  -17.3694   28.3373 O   0  0  0  0  0  0  0  0  0  0  0  0
  2  1  1  6
  2  3  1  0
  3  4  1  0
  4  8  1  0
  5  4  2  0
  6  2  1  0
  6  7  2  0
  9  6  1  0
 10 11  1  1
 10  9  1  0
 12 11  1  0
 12 20  1  0
 13 14  1  0
 13 12  2  0
 14 15  1  0
 15 20  2  0
 15 16  1  0
 16 17  2  0
 17 18  1  0
 19 18  2  0
 20 19  1  0
 21 10  1  0
 22 21  2  0
 23 21  1  0
 24 25  1  1
 24 23  1  0
 25 26  1  0
 26 30  1  0
 27 26  2  0
 27 28  1  0
 28 29  1  0
 30 29  2  0
 31 32  1  0
 31 24  1  0
 33 31  2  0
M  END
$$$$
