DWH.pdb
     RDKit          3D

 33 35  0  0  1  0  0  0  0  0999 V2000
   10.0106  -17.4831   19.2915 N   0  0  0  0  0  0  0  0  0  0  0  0
   11.1311  -17.1347   20.1370 C   0  0  1  0  0  0  0  0  0  0  0  0
   12.1025  -16.2752   19.4022 C   0  0  0  0  0  0  0  0  0  0  0  0
   12.7582  -17.0915   18.3481 C   0  0  0  0  0  0  0  0  0  0  0  0
   12.1297  -18.0085   17.7620 O   0  0  0  0  0  0  0  0  0  0  0  0
   10.6591  -16.6161   21.4035 C   0  0  0  0  0  0  0  0  0  0  0  0
   11.4846  -16.3915   22.3241 O   0  0  0  0  0  0  0  0  0  0  0  0
   14.0818  -16.8855   17.9618 O   0  0  0  0  0  0  0  0  0  0  0  0
    9.2853  -16.3313   21.6959 N   0  0  0  0  0  0  0  0  0  0  0  0
    8.8576  -15.9459   23.0184 C   0  0  1  0  0  0  0  0  0  0  0  0
    7.5653  -15.1897   23.0630 C   0  0  0  0  0  0  0  0  0  0  0  0
    7.0588  -14.8540   24.3941 C   0  0  0  0  0  0  0  0  0  0  0  0
    6.3162  -15.7098   25.1845 C   0  0  0  0  0  0  0  0  0  0  0  0
    6.0314  -15.0366   26.3062 N   0  0  0  0  0  0  0  0  0  0  0  0
    6.5654  -13.7884   26.2560 C   0  0  0  0  0  0  0  0  0  0  0  0
    6.5638  -12.7295   27.1427 C   0  0  0  0  0  0  0  0  0  0  0  0
    7.2108  -11.5726   26.8099 C   0  0  0  0  0  0  0  0  0  0  0  0
    7.8801  -11.3885   25.6208 C   0  0  0  0  0  0  0  0  0  0  0  0
    7.8747  -12.4497   24.7452 C   0  0  0  0  0  0  0  0  0  0  0  0
    7.2276  -13.6301   25.0576 C   0  0  0  0  0  0  0  0  0  0  0  0
    8.9400  -17.0712   23.9781 C   0  0  0  0  0  0  0  0  0  0  0  0
    8.5693  -18.2455   23.6557 O   0  0  0  0  0  0  0  0  0  0  0  0
    9.4447  -16.8288   25.2747 N   0  0  0  0  0  0  0  0  0  0  0  0
   10.0922  -17.9154   26.0545 C   0  0  1  0  0  0  0  0  0  0  0  0
   11.3100  -18.2996   25.2154 C   0  0  0  0  0  0  0  0  0  0  0  0
   12.1548  -19.2587   25.9349 C   0  0  0  0  0  0  0  0  0  0  0  0
   12.5256  -19.0735   27.2746 C   0  0  0  0  0  0  0  0  0  0  0  0
   13.2909  -20.1030   27.6551 N   0  0  0  0  0  0  0  0  0  0  0  0
   13.4296  -20.9417   26.6230 C   0  0  0  0  0  0  0  0  0  0  0  0
   12.7358  -20.4135   25.5936 N   0  0  0  0  0  0  0  0  0  0  0  0
   10.4987  -17.3394   27.3447 C   0  0  0  0  0  0  0  0  0  0  0  0
   10.2426  -16.0144   27.6230 O   0  0  0  0  0  0  0  0  0  0  0  0
   11.0757  -18.0241   28.2031 O   0  0  0  0  0  0  0  0  0  0  0  0
  2  1  1  6
  2  3  1  0
  3  4  1  0
  4  8  1  0
  5  4  2  0
  6  2  1  0
  6  7  2  0
  9  6  1  0
 10 11  1  6
 10  9  1  0
 12 11  1  0
 12 20  1  0
 13 14  1  0
 13 12  2  0
 14 15  1  0
 15 20  2  0
 15 16  1  0
 16 17  2  0
 17 18  1  0
 19 18  2  0
 20 19  1  0
 21 10  1  0
 22 21  2  0
 23 21  1  0
 24 25  1  6
 24 23  1  0
 25 26  1  0
 26 30  1  0
 27 26  2  0
 27 28  1  0
 28 29  1  0
 30 29  2  0
 31 32  1  0
 31 24  1  0
 33 31  2  0
M  END
$$$$
