DWH.pdb
     RDKit          3D

 33 35  0  0  1  0  0  0  0  0999 V2000
   10.6285  -17.9058   19.5020 N   0  0  0  0  0  0  0  0  0  0  0  0
   11.6214  -17.1564   20.2397 C   0  0  1  0  0  0  0  0  0  0  0  0
   12.5204  -16.4118   19.3125 C   0  0  0  0  0  0  0  0  0  0  0  0
   12.9757  -17.3385   18.2441 C   0  0  0  0  0  0  0  0  0  0  0  0
   13.2257  -18.5427   18.5021 O   0  0  0  0  0  0  0  0  0  0  0  0
   10.9857  -16.3678   21.2739 C   0  0  0  0  0  0  0  0  0  0  0  0
   11.6565  -15.5006   21.8883 O   0  0  0  0  0  0  0  0  0  0  0  0
   13.1457  -16.9265   16.9231 O   0  0  0  0  0  0  0  0  0  0  0  0
    9.6127  -16.5039   21.6615 N   0  0  0  0  0  0  0  0  0  0  0  0
    9.0903  -15.8515   22.8371 C   0  0  1  0  0  0  0  0  0  0  0  0
    7.5999  -15.7027   22.8606 C   0  0  0  0  0  0  0  0  0  0  0  0
    7.0313  -15.0843   24.0586 C   0  0  0  0  0  0  0  0  0  0  0  0
    6.4503  -15.7858   25.0973 C   0  0  0  0  0  0  0  0  0  0  0  0
    6.0399  -14.8731   25.9868 N   0  0  0  0  0  0  0  0  0  0  0  0
    6.3392  -13.6216   25.5510 C   0  0  0  0  0  0  0  0  0  0  0  0
    6.1392  -12.3661   26.0906 C   0  0  0  0  0  0  0  0  0  0  0  0
    6.5682  -11.2638   25.4061 C   0  0  0  0  0  0  0  0  0  0  0  0
    7.2017  -11.3234   24.1850 C   0  0  0  0  0  0  0  0  0  0  0  0
    7.3952  -12.5791   23.6571 C   0  0  0  0  0  0  0  0  0  0  0  0
    6.9705  -13.7095   24.3289 C   0  0  0  0  0  0  0  0  0  0  0  0
    9.6682  -16.4069   24.0827 C   0  0  0  0  0  0  0  0  0  0  0  0
    9.9668  -17.6403   24.1823 O   0  0  0  0  0  0  0  0  0  0  0  0
    9.8927  -15.5430   25.1772 N   0  0  0  0  0  0  0  0  0  0  0  0
   10.5770  -16.0299   26.4030 C   0  0  1  0  0  0  0  0  0  0  0  0
   10.5440  -14.8298   27.3482 C   0  0  0  0  0  0  0  0  0  0  0  0
   10.9459  -15.2242   28.7026 C   0  0  0  0  0  0  0  0  0  0  0  0
   11.3168  -16.5384   29.0216 C   0  0  0  0  0  0  0  0  0  0  0  0
   11.6294  -16.5932   30.3215 N   0  0  0  0  0  0  0  0  0  0  0  0
   11.4770  -15.3759   30.8533 C   0  0  0  0  0  0  0  0  0  0  0  0
   11.0636  -14.5634   29.8589 N   0  0  0  0  0  0  0  0  0  0  0  0
    9.7760  -17.1432   26.9328 C   0  0  0  0  0  0  0  0  0  0  0  0
   10.3957  -18.2197   27.5293 O   0  0  0  0  0  0  0  0  0  0  0  0
    8.5379  -17.1404   26.8558 O   0  0  0  0  0  0  0  0  0  0  0  0
  2  1  1  6
  2  3  1  0
  3  4  1  0
  4  8  1  0
  5  4  2  0
  6  2  1  0
  6  7  2  0
  9  6  1  0
 10 11  1  1
 10  9  1  0
 12 11  1  0
 12 20  1  0
 13 14  1  0
 13 12  2  0
 14 15  1  0
 15 20  2  0
 15 16  1  0
 16 17  2  0
 17 18  1  0
 19 18  2  0
 20 19  1  0
 21 10  1  0
 22 21  2  0
 23 21  1  0
 24 25  1  1
 24 23  1  0
 25 26  1  0
 26 30  1  0
 27 26  2  0
 27 28  1  0
 28 29  1  0
 30 29  2  0
 31 32  1  0
 31 24  1  0
 33 31  2  0
M  END
$$$$
