DWH.pdb
     RDKit          3D

 33 35  0  0  1  0  0  0  0  0999 V2000
   10.3058  -19.1753   21.1445 N   0  0  0  0  0  0  0  0  0  0  0  0
   11.1579  -18.0339   20.8937 C   0  0  1  0  0  0  0  0  0  0  0  0
   11.1236  -17.6533   19.4527 C   0  0  0  0  0  0  0  0  0  0  0  0
   11.7042  -18.7629   18.6532 C   0  0  0  0  0  0  0  0  0  0  0  0
   11.3640  -18.9383   17.4562 O   0  0  0  0  0  0  0  0  0  0  0  0
   10.8637  -16.9743   21.8352 C   0  0  0  0  0  0  0  0  0  0  0  0
   11.5387  -15.9147   21.8019 O   0  0  0  0  0  0  0  0  0  0  0  0
   12.6403  -19.6509   19.1810 O   0  0  0  0  0  0  0  0  0  0  0  0
    9.8338  -17.0428   22.8294 N   0  0  0  0  0  0  0  0  0  0  0  0
    9.4757  -15.8961   23.6278 C   0  0  1  0  0  0  0  0  0  0  0  0
    8.0054  -15.6199   23.7029 C   0  0  0  0  0  0  0  0  0  0  0  0
    7.3397  -15.3163   22.4357 C   0  0  0  0  0  0  0  0  0  0  0  0
    6.3835  -16.1197   21.8451 C   0  0  0  0  0  0  0  0  0  0  0  0
    6.0350  -15.5148   20.7026 N   0  0  0  0  0  0  0  0  0  0  0  0
    6.7335  -14.3599   20.5480 C   0  0  0  0  0  0  0  0  0  0  0  0
    6.7373  -13.3887   19.5660 C   0  0  0  0  0  0  0  0  0  0  0  0
    7.5633  -12.3073   19.6930 C   0  0  0  0  0  0  0  0  0  0  0  0
    8.4121  -12.1174   20.7604 C   0  0  0  0  0  0  0  0  0  0  0  0
    8.4000  -13.0913   21.7321 C   0  0  0  0  0  0  0  0  0  0  0  0
    7.5746  -14.1946   21.6273 C   0  0  0  0  0  0  0  0  0  0  0  0
   10.1647  -15.8962   24.9391 C   0  0  0  0  0  0  0  0  0  0  0  0
   10.1666  -14.8660   25.6868 O   0  0  0  0  0  0  0  0  0  0  0  0
   10.8282  -17.0686   25.3630 N   0  0  0  0  0  0  0  0  0  0  0  0
   11.3515  -17.1880   26.7486 C   0  0  1  0  0  0  0  0  0  0  0  0
   10.0950  -17.2786   27.6134 C   0  0  0  0  0  0  0  0  0  0  0  0
    9.7439  -15.9631   28.1588 C   0  0  0  0  0  0  0  0  0  0  0  0
   10.4590  -14.8016   27.8334 C   0  0  0  0  0  0  0  0  0  0  0  0
    9.9104  -13.7646   28.4771 N   0  0  0  0  0  0  0  0  0  0  0  0
    8.8760  -14.2049   29.2011 C   0  0  0  0  0  0  0  0  0  0  0  0
    8.7923  -15.5355   28.9950 N   0  0  0  0  0  0  0  0  0  0  0  0
   12.1288  -18.4344   26.8121 C   0  0  0  0  0  0  0  0  0  0  0  0
   12.8170  -18.7636   27.9595 O   0  0  0  0  0  0  0  0  0  0  0  0
   12.1836  -19.2098   25.8454 O   0  0  0  0  0  0  0  0  0  0  0  0
  2  1  1  6
  2  3  1  0
  3  4  1  0
  4  8  1  0
  5  4  2  0
  6  2  1  0
  6  7  2  0
  9  6  1  0
 10 11  1  1
 10  9  1  0
 12 11  1  0
 12 20  1  0
 13 14  1  0
 13 12  2  0
 14 15  1  0
 15 20  2  0
 15 16  1  0
 16 17  2  0
 17 18  1  0
 19 18  2  0
 20 19  1  0
 21 10  1  0
 22 21  2  0
 23 21  1  0
 24 25  1  1
 24 23  1  0
 25 26  1  0
 26 30  1  0
 27 26  2  0
 27 28  1  0
 28 29  1  0
 30 29  2  0
 31 32  1  0
 31 24  1  0
 33 31  2  0
M  END
$$$$
