DWH.pdb
     RDKit          3D

 33 35  0  0  1  0  0  0  0  0999 V2000
   10.0037  -14.7077   18.4928 N   0  0  0  0  0  0  0  0  0  0  0  0
   10.5824  -15.6741   19.3999 C   0  0  1  0  0  0  0  0  0  0  0  0
   12.0419  -15.8354   19.1421 C   0  0  0  0  0  0  0  0  0  0  0  0
   12.2300  -16.2969   17.7424 C   0  0  0  0  0  0  0  0  0  0  0  0
   13.0383  -15.7137   16.9770 O   0  0  0  0  0  0  0  0  0  0  0  0
   10.2114  -15.3634   20.7643 C   0  0  0  0  0  0  0  0  0  0  0  0
   10.9640  -14.6333   21.4570 O   0  0  0  0  0  0  0  0  0  0  0  0
   11.5314  -17.3823   17.2156 O   0  0  0  0  0  0  0  0  0  0  0  0
    9.0193  -15.8375   21.4029 N   0  0  0  0  0  0  0  0  0  0  0  0
    8.7153  -15.5116   22.7748 C   0  0  1  0  0  0  0  0  0  0  0  0
    7.2965  -15.0988   23.0207 C   0  0  0  0  0  0  0  0  0  0  0  0
    6.9408  -14.8047   24.4092 C   0  0  0  0  0  0  0  0  0  0  0  0
    6.3802  -15.7183   25.2808 C   0  0  0  0  0  0  0  0  0  0  0  0
    6.1883  -15.0697   26.4363 N   0  0  0  0  0  0  0  0  0  0  0  0
    6.6062  -13.7815   26.3293 C   0  0  0  0  0  0  0  0  0  0  0  0
    6.6319  -12.7253   27.2188 C   0  0  0  0  0  0  0  0  0  0  0  0
    7.1323  -11.5189   26.8162 C   0  0  0  0  0  0  0  0  0  0  0  0
    7.6244  -11.2812   25.5524 C   0  0  0  0  0  0  0  0  0  0  0  0
    7.5935  -12.3404   24.6748 C   0  0  0  0  0  0  0  0  0  0  0  0
    7.0922  -13.5701   25.0569 C   0  0  0  0  0  0  0  0  0  0  0  0
    9.2245  -16.5372   23.7145 C   0  0  0  0  0  0  0  0  0  0  0  0
    8.9170  -17.7656   23.5851 O   0  0  0  0  0  0  0  0  0  0  0  0
   10.0710  -16.1362   24.7716 N   0  0  0  0  0  0  0  0  0  0  0  0
   10.6805  -17.1409   25.6810 C   0  0  1  0  0  0  0  0  0  0  0  0
   12.0974  -16.6188   25.9147 C   0  0  0  0  0  0  0  0  0  0  0  0
   12.9576  -16.9189   24.7652 C   0  0  0  0  0  0  0  0  0  0  0  0
   12.4752  -17.5597   23.6149 C   0  0  0  0  0  0  0  0  0  0  0  0
   13.4824  -17.6966   22.7448 N   0  0  0  0  0  0  0  0  0  0  0  0
   14.5899  -17.1738   23.2814 C   0  0  0  0  0  0  0  0  0  0  0  0
   14.2516  -16.7095   24.5021 N   0  0  0  0  0  0  0  0  0  0  0  0
    9.8994  -17.1276   26.9266 C   0  0  0  0  0  0  0  0  0  0  0  0
   10.2185  -17.9894   27.9533 O   0  0  0  0  0  0  0  0  0  0  0  0
    8.9452  -16.3500   27.0809 O   0  0  0  0  0  0  0  0  0  0  0  0
  2  1  1  6
  2  3  1  0
  3  4  1  0
  4  8  1  0
  5  4  2  0
  6  2  1  0
  6  7  2  0
  9  6  1  0
 10 11  1  6
 10  9  1  0
 12 11  1  0
 12 20  1  0
 13 14  1  0
 13 12  2  0
 14 15  1  0
 15 20  2  0
 15 16  1  0
 16 17  2  0
 17 18  1  0
 19 18  2  0
 20 19  1  0
 21 10  1  0
 22 21  2  0
 23 21  1  0
 24 25  1  1
 24 23  1  0
 25 26  1  0
 26 30  1  0
 27 26  2  0
 27 28  1  0
 28 29  1  0
 30 29  2  0
 31 32  1  0
 31 24  1  0
 33 31  2  0
M  END
$$$$
