DWH.pdb
     RDKit          3D

 33 35  0  0  1  0  0  0  0  0999 V2000
   10.3132  -19.1538   21.7872 N   0  0  0  0  0  0  0  0  0  0  0  0
   10.8699  -17.8200   21.7359 C   0  0  1  0  0  0  0  0  0  0  0  0
   10.8718  -17.2997   20.3388 C   0  0  0  0  0  0  0  0  0  0  0  0
   11.6259  -18.2479   19.4787 C   0  0  0  0  0  0  0  0  0  0  0  0
   11.2006  -18.5569   18.3372 O   0  0  0  0  0  0  0  0  0  0  0  0
   10.2346  -16.9749   22.7249 C   0  0  0  0  0  0  0  0  0  0  0  0
   10.6874  -15.8212   22.9327 O   0  0  0  0  0  0  0  0  0  0  0  0
   12.8235  -18.8333   19.8870 O   0  0  0  0  0  0  0  0  0  0  0  0
    9.0980  -17.3638   23.5064 N   0  0  0  0  0  0  0  0  0  0  0  0
    8.4898  -16.4646   24.4563 C   0  0  1  0  0  0  0  0  0  0  0  0
    7.1118  -16.0055   24.0902 C   0  0  0  0  0  0  0  0  0  0  0  0
    6.9562  -15.4312   22.7534 C   0  0  0  0  0  0  0  0  0  0  0  0
    6.4431  -16.1129   21.6668 C   0  0  0  0  0  0  0  0  0  0  0  0
    6.4802  -15.2611   20.6345 N   0  0  0  0  0  0  0  0  0  0  0  0
    6.9965  -14.0671   21.0262 C   0  0  0  0  0  0  0  0  0  0  0  0
    7.2341  -12.8818   20.3582 C   0  0  0  0  0  0  0  0  0  0  0  0
    7.7674  -11.8224   21.0372 C   0  0  0  0  0  0  0  0  0  0  0  0
    8.0912  -11.8594   22.3751 C   0  0  0  0  0  0  0  0  0  0  0  0
    7.8505  -13.0452   23.0300 C   0  0  0  0  0  0  0  0  0  0  0  0
    7.3125  -14.1312   22.3663 C   0  0  0  0  0  0  0  0  0  0  0  0
    8.6201  -16.9563   25.8475 C   0  0  0  0  0  0  0  0  0  0  0  0
    8.0085  -16.3911   26.8102 O   0  0  0  0  0  0  0  0  0  0  0  0
    9.4392  -18.0782   26.1025 N   0  0  0  0  0  0  0  0  0  0  0  0
    9.5187  -18.6685   27.4638 C   0  0  1  0  0  0  0  0  0  0  0  0
    9.4416  -20.1750   27.2204 C   0  0  0  0  0  0  0  0  0  0  0  0
    8.1243  -20.5494   26.6951 C   0  0  0  0  0  0  0  0  0  0  0  0
    7.1004  -19.6112   26.5009 C   0  0  0  0  0  0  0  0  0  0  0  0
    6.0253  -20.2427   26.0153 N   0  0  0  0  0  0  0  0  0  0  0  0
    6.3098  -21.5430   25.8881 C   0  0  0  0  0  0  0  0  0  0  0  0
    7.5825  -21.7075   26.3040 N   0  0  0  0  0  0  0  0  0  0  0  0
   10.8238  -18.2891   28.0247 C   0  0  0  0  0  0  0  0  0  0  0  0
   11.1070  -18.5388   29.3499 O   0  0  0  0  0  0  0  0  0  0  0  0
   11.6906  -17.7410   27.3269 O   0  0  0  0  0  0  0  0  0  0  0  0
  2  1  1  6
  2  3  1  0
  3  4  1  0
  4  8  1  0
  5  4  2  0
  6  2  1  0
  6  7  2  0
  9  6  1  0
 10 11  1  6
 10  9  1  0
 12 11  1  0
 12 20  1  0
 13 14  1  0
 13 12  2  0
 14 15  1  0
 15 20  2  0
 15 16  1  0
 16 17  2  0
 17 18  1  0
 19 18  2  0
 20 19  1  0
 21 10  1  0
 22 21  2  0
 23 21  1  0
 24 25  1  6
 24 23  1  0
 25 26  1  0
 26 30  1  0
 27 26  2  0
 27 28  1  0
 28 29  1  0
 30 29  2  0
 31 32  1  0
 31 24  1  0
 33 31  2  0
M  END
$$$$
