VAQ.pdb
     RDKit          3D

 22 21  0  0  1  0  0  0  0  0999 V2000
   17.8732  -12.2350  -18.8264 C   0  0  0  0  0  0  0  0  0  0  0  0
   18.7224  -11.2950  -18.0088 C   0  0  2  0  0  0  0  0  0  0  0  0
   19.5972  -10.4288  -18.8597 C   0  0  0  0  0  0  0  0  0  0  0  0
   19.5509  -12.1585  -17.0487 C   0  0  2  0  0  0  0  0  0  0  0  0
   18.6133  -12.9481  -16.2990 N   0  0  0  0  0  0  0  0  0  0  0  0
   20.2518  -11.2310  -16.1202 C   0  0  0  0  0  0  0  0  0  0  0  0
   19.6377  -10.4078  -15.3874 O   0  0  0  0  0  0  0  0  0  0  0  0
   23.7532  -10.7917  -14.7592 C   0  0  0  0  0  0  0  0  0  0  0  0
   22.3972  -10.2824  -15.1902 C   0  0  2  0  0  0  0  0  0  0  0  0
   21.6765  -11.2191  -16.0040 N   0  0  0  0  0  0  0  0  0  0  0  0
   22.4633   -8.9301  -15.7692 C   0  0  0  0  0  0  0  0  0  0  0  0
   22.6037   -8.7751  -16.9950 O   0  0  0  0  0  0  0  0  0  0  0  0
   19.1561   -5.0228  -17.8342 N   0  0  0  0  0  0  0  0  0  0  0  0
   18.8876   -5.5175  -16.5471 C   0  0  0  0  0  0  0  0  0  0  0  0
   17.7320   -5.4362  -16.0640 O   0  0  0  0  0  0  0  0  0  0  0  0
   19.9305   -6.1535  -15.6956 C   0  0  0  0  0  0  0  0  0  0  0  0
   21.2477   -6.2471  -16.3791 C   0  0  0  0  0  0  0  0  0  0  0  0
   22.3918   -6.4258  -15.4148 C   0  0  2  0  0  0  0  0  0  0  0  0
   22.3663   -7.8083  -14.9246 N   0  0  0  0  0  0  0  0  0  0  0  0
   22.3951   -5.5296  -14.2677 C   0  0  0  0  0  0  0  0  0  0  0  0
   22.1530   -6.0087  -13.1135 O   0  0  0  0  0  0  0  0  0  0  0  0
   22.6602   -4.1605  -14.4141 O   0  0  0  0  0  0  0  0  0  0  0  0
  2  3  1  6
  2  1  1  0
  4  2  1  0
  4  5  1  1
  6 10  1  0
  6  4  1  0
  7  6  2  0
  9 10  1  0
  9  8  1  6
 11  9  1  0
 11 19  1  0
 12 11  2  0
 14 13  1  0
 14 15  2  0
 16 14  1  0
 16 17  1  0
 18 17  1  6
 18 19  1  0
 18 20  1  0
 20 21  2  0
 20 22  1  0
M  END
$$$$
