VAQ.pdb
     RDKit          3D

 22 21  0  0  1  0  0  0  0  0999 V2000
   27.0229   -9.7466  -16.4476 C   0  0  0  0  0  0  0  0  0  0  0  0
   26.6336  -11.0848  -15.8724 C   0  0  2  0  0  0  0  0  0  0  0  0
   27.8198  -11.8863  -15.4365 C   0  0  0  0  0  0  0  0  0  0  0  0
   25.8254  -11.8189  -16.9504 C   0  0  2  0  0  0  0  0  0  0  0  0
   26.6785  -11.9173  -18.1025 N   0  0  0  0  0  0  0  0  0  0  0  0
   24.6595  -10.9576  -17.2854 C   0  0  0  0  0  0  0  0  0  0  0  0
   24.7681   -9.8947  -17.9564 O   0  0  0  0  0  0  0  0  0  0  0  0
   20.8821  -11.2862  -17.0300 C   0  0  0  0  0  0  0  0  0  0  0  0
   22.1740  -10.5261  -17.2222 C   0  0  2  0  0  0  0  0  0  0  0  0
   23.3349  -11.2885  -16.8615 N   0  0  0  0  0  0  0  0  0  0  0  0
   22.1353   -9.1884  -16.6077 C   0  0  0  0  0  0  0  0  0  0  0  0
   22.5869   -9.0068  -15.4634 O   0  0  0  0  0  0  0  0  0  0  0  0
   20.7862   -3.9196  -20.0074 N   0  0  0  0  0  0  0  0  0  0  0  0
   21.0139   -3.4595  -18.6996 C   0  0  0  0  0  0  0  0  0  0  0  0
   20.9905   -2.2304  -18.4460 O   0  0  0  0  0  0  0  0  0  0  0  0
   21.2905   -4.3774  -17.5603 C   0  0  0  0  0  0  0  0  0  0  0  0
   21.2591   -5.8094  -17.9592 C   0  0  0  0  0  0  0  0  0  0  0  0
   21.5254   -6.7407  -16.8047 C   0  0  2  0  0  0  0  0  0  0  0  0
   21.5820   -8.1111  -17.3251 N   0  0  0  0  0  0  0  0  0  0  0  0
   20.5524   -6.6978  -15.7229 C   0  0  0  0  0  0  0  0  0  0  0  0
   20.7650   -5.9222  -14.7362 O   0  0  0  0  0  0  0  0  0  0  0  0
   19.3952   -7.4891  -15.7526 O   0  0  0  0  0  0  0  0  0  0  0  0
  2  3  1  6
  2  1  1  0
  4  2  1  0
  4  5  1  6
  6 10  1  0
  6  4  1  0
  7  6  2  0
  9 10  1  0
  9  8  1  1
 11  9  1  0
 11 19  1  0
 12 11  2  0
 14 13  1  0
 14 15  2  0
 16 14  1  0
 16 17  1  0
 18 17  1  6
 18 19  1  0
 18 20  1  0
 20 21  2  0
 20 22  1  0
M  END
$$$$
