VAQ.pdb
     RDKit          3D

 22 21  0  0  1  0  0  0  0  0999 V2000
   22.6618  -17.0821  -15.6539 C   0  0  0  0  0  0  0  0  0  0  0  0
   23.5647  -18.2834  -15.7750 C   0  0  2  0  0  0  0  0  0  0  0  0
   24.4011  -18.2468  -17.0154 C   0  0  0  0  0  0  0  0  0  0  0  0
   22.6656  -19.5261  -15.7405 C   0  0  2  0  0  0  0  0  0  0  0  0
   21.7236  -19.3772  -16.8153 N   0  0  0  0  0  0  0  0  0  0  0  0
   21.9306  -19.4985  -14.4473 C   0  0  0  0  0  0  0  0  0  0  0  0
   22.4950  -19.7065  -13.3383 O   0  0  0  0  0  0  0  0  0  0  0  0
   18.9061  -18.0150  -12.9953 C   0  0  0  0  0  0  0  0  0  0  0  0
   19.7712  -19.2422  -13.1670 C   0  0  2  0  0  0  0  0  0  0  0  0
   20.5274  -19.2319  -14.3865 N   0  0  0  0  0  0  0  0  0  0  0  0
   19.0227  -20.4916  -12.9503 C   0  0  0  0  0  0  0  0  0  0  0  0
   18.6758  -21.1946  -13.9156 O   0  0  0  0  0  0  0  0  0  0  0  0
   19.6148  -23.7994   -7.6339 N   0  0  0  0  0  0  0  0  0  0  0  0
   18.6273  -24.4956   -8.3508 C   0  0  0  0  0  0  0  0  0  0  0  0
   18.2229  -25.6146   -7.9512 O   0  0  0  0  0  0  0  0  0  0  0  0
   18.0133  -23.9637   -9.5987 C   0  0  0  0  0  0  0  0  0  0  0  0
   18.5727  -22.6438   -9.9934 C   0  0  0  0  0  0  0  0  0  0  0  0
   18.0452  -22.1620  -11.3204 C   0  0  2  0  0  0  0  0  0  0  0  0
   18.7002  -20.8886  -11.6389 N   0  0  0  0  0  0  0  0  0  0  0  0
   16.6040  -21.9705  -11.3938 C   0  0  0  0  0  0  0  0  0  0  0  0
   16.1203  -20.8306  -11.0991 O   0  0  0  0  0  0  0  0  0  0  0  0
   15.7499  -23.0125  -11.7822 O   0  0  0  0  0  0  0  0  0  0  0  0
  2  3  1  6
  2  1  1  0
  4  2  1  0
  4  5  1  6
  6 10  1  0
  6  4  1  0
  7  6  2  0
  9 10  1  0
  9  8  1  6
 11  9  1  0
 11 19  1  0
 12 11  2  0
 14 13  1  0
 14 15  2  0
 16 14  1  0
 16 17  1  0
 18 17  1  1
 18 19  1  0
 18 20  1  0
 20 21  2  0
 20 22  1  0
M  END
$$$$
