VAQ.pdb
     RDKit          3D

 22 21  0  0  1  0  0  0  0  0999 V2000
   17.4883  -12.3014  -18.9757 C   0  0  0  0  0  0  0  0  0  0  0  0
   18.2964  -11.4043  -18.0728 C   0  0  2  0  0  0  0  0  0  0  0  0
   18.9748  -10.3008  -18.8221 C   0  0  0  0  0  0  0  0  0  0  0  0
   19.3113  -12.2959  -17.3456 C   0  0  2  0  0  0  0  0  0  0  0  0
   18.5541  -13.3335  -16.7016 N   0  0  0  0  0  0  0  0  0  0  0  0
   19.9633  -11.4570  -16.3041 C   0  0  0  0  0  0  0  0  0  0  0  0
   19.3090  -10.8308  -15.4258 O   0  0  0  0  0  0  0  0  0  0  0  0
   23.5061  -10.7430  -15.1343 C   0  0  0  0  0  0  0  0  0  0  0  0
   22.0466  -10.4092  -15.3400 C   0  0  2  0  0  0  0  0  0  0  0  0
   21.3838  -11.3109  -16.2381 N   0  0  0  0  0  0  0  0  0  0  0  0
   21.8365   -8.9898  -15.6713 C   0  0  0  0  0  0  0  0  0  0  0  0
   21.5129   -8.6524  -16.8235 O   0  0  0  0  0  0  0  0  0  0  0  0
   17.7596   -5.7907  -16.2066 N   0  0  0  0  0  0  0  0  0  0  0  0
   18.6373   -4.7251  -15.9463 C   0  0  0  0  0  0  0  0  0  0  0  0
   18.2365   -3.5384  -16.0270 O   0  0  0  0  0  0  0  0  0  0  0  0
   20.0627   -4.9305  -15.5677 C   0  0  0  0  0  0  0  0  0  0  0  0
   20.4183   -6.3684  -15.4384 C   0  0  0  0  0  0  0  0  0  0  0  0
   21.8140   -6.5770  -14.9097 C   0  0  2  0  0  0  0  0  0  0  0  0
   22.0046   -8.0121  -14.6727 N   0  0  0  0  0  0  0  0  0  0  0  0
   22.1377   -5.8601  -13.6848 C   0  0  0  0  0  0  0  0  0  0  0  0
   22.0323   -6.4680  -12.5715 O   0  0  0  0  0  0  0  0  0  0  0  0
   22.5614   -4.5237  -13.7137 O   0  0  0  0  0  0  0  0  0  0  0  0
  2  3  1  6
  2  1  1  0
  4  2  1  0
  4  5  1  1
  6 10  1  0
  6  4  1  0
  7  6  2  0
  9 10  1  0
  9  8  1  6
 11  9  1  0
 11 19  1  0
 12 11  2  0
 14 13  1  0
 14 15  2  0
 16 14  1  0
 16 17  1  0
 18 17  1  1
 18 19  1  0
 18 20  1  0
 20 21  2  0
 20 22  1  0
M  END
$$$$
