VAQ.pdb
     RDKit          3D

 22 21  0  0  1  0  0  0  0  0999 V2000
   28.2650  -10.7601  -16.0308 C   0  0  0  0  0  0  0  0  0  0  0  0
   27.4281  -11.9925  -15.7987 C   0  0  2  0  0  0  0  0  0  0  0  0
   28.2114  -13.2559  -15.9712 C   0  0  0  0  0  0  0  0  0  0  0  0
   26.2486  -11.9251  -16.7776 C   0  0  2  0  0  0  0  0  0  0  0  0
   26.8167  -11.8157  -18.0929 N   0  0  0  0  0  0  0  0  0  0  0  0
   25.4968  -10.6784  -16.4713 C   0  0  0  0  0  0  0  0  0  0  0  0
   24.7530  -10.5627  -15.4589 O   0  0  0  0  0  0  0  0  0  0  0  0
   25.4176   -7.1077  -17.7210 C   0  0  0  0  0  0  0  0  0  0  0  0
   24.7920   -8.3421  -17.1139 C   0  0  2  0  0  0  0  0  0  0  0  0
   25.5748   -9.5276  -17.3159 N   0  0  0  0  0  0  0  0  0  0  0  0
   23.3781   -8.4998  -17.4938 C   0  0  0  0  0  0  0  0  0  0  0  0
   23.0600   -9.2225  -18.4544 O   0  0  0  0  0  0  0  0  0  0  0  0
   19.0557  -11.3069  -15.2778 N   0  0  0  0  0  0  0  0  0  0  0  0
   18.3044  -10.4173  -16.0638 C   0  0  0  0  0  0  0  0  0  0  0  0
   17.0924  -10.6450  -16.2977 O   0  0  0  0  0  0  0  0  0  0  0  0
   18.8834   -9.1791  -16.6544 C   0  0  0  0  0  0  0  0  0  0  0  0
   20.3390   -9.0429  -16.3831 C   0  0  0  0  0  0  0  0  0  0  0  0
   20.9578   -7.8731  -17.1039 C   0  0  2  0  0  0  0  0  0  0  0  0
   22.3834   -7.8255  -16.7608 N   0  0  0  0  0  0  0  0  0  0  0  0
   20.3703   -6.5727  -16.8158 C   0  0  0  0  0  0  0  0  0  0  0  0
   20.4210   -6.1264  -15.6248 O   0  0  0  0  0  0  0  0  0  0  0  0
   19.7573   -5.8118  -17.8214 O   0  0  0  0  0  0  0  0  0  0  0  0
  2  3  1  6
  2  1  1  0
  4  2  1  0
  4  5  1  6
  6 10  1  0
  6  4  1  0
  7  6  2  0
  9 10  1  0
  9  8  1  6
 11  9  1  0
 11 19  1  0
 12 11  2  0
 14 13  1  0
 14 15  2  0
 16 14  1  0
 16 17  1  0
 18 17  1  1
 18 19  1  0
 18 20  1  0
 20 21  2  0
 20 22  1  0
M  END
$$$$
