VAQ.pdb
     RDKit          3D

 22 21  0  0  1  0  0  0  0  0999 V2000
   21.7246  -11.4876  -16.8813 C   0  0  0  0  0  0  0  0  0  0  0  0
   22.9904  -10.9386  -16.2733 C   0  0  2  0  0  0  0  0  0  0  0  0
   23.9318  -12.0185  -15.8409 C   0  0  0  0  0  0  0  0  0  0  0  0
   22.5734  -10.0514  -15.0931 C   0  0  2  0  0  0  0  0  0  0  0  0
   21.8223  -10.8891  -14.1994 N   0  0  0  0  0  0  0  0  0  0  0  0
   21.6752   -8.9963  -15.6348 C   0  0  0  0  0  0  0  0  0  0  0  0
   22.1007   -8.0227  -16.3150 O   0  0  0  0  0  0  0  0  0  0  0  0
   17.9301   -8.3767  -15.8384 C   0  0  0  0  0  0  0  0  0  0  0  0
   19.3808   -7.9566  -15.7845 C   0  0  2  0  0  0  0  0  0  0  0  0
   20.2632   -9.0255  -15.4133 N   0  0  0  0  0  0  0  0  0  0  0  0
   19.5809   -6.7289  -14.9964 C   0  0  0  0  0  0  0  0  0  0  0  0
   20.2432   -6.7559  -13.9442 O   0  0  0  0  0  0  0  0  0  0  0  0
   23.6621   -3.5664  -15.3782 N   0  0  0  0  0  0  0  0  0  0  0  0
   22.8636   -2.5860  -14.7659 C   0  0  0  0  0  0  0  0  0  0  0  0
   23.3775   -1.5217  -14.3433 O   0  0  0  0  0  0  0  0  0  0  0  0
   21.3941   -2.7433  -14.5837 C   0  0  0  0  0  0  0  0  0  0  0  0
   20.8913   -4.0467  -15.0928 C   0  0  0  0  0  0  0  0  0  0  0  0
   19.4035   -4.2062  -14.9133 C   0  0  2  0  0  0  0  0  0  0  0  0
   19.0163   -5.5188  -15.4417 N   0  0  0  0  0  0  0  0  0  0  0  0
   18.5791   -3.1904  -15.5516 C   0  0  0  0  0  0  0  0  0  0  0  0
   18.1360   -3.4076  -16.7250 O   0  0  0  0  0  0  0  0  0  0  0  0
   18.2679   -1.9892  -14.8986 O   0  0  0  0  0  0  0  0  0  0  0  0
  2  3  1  1
  2  1  1  0
  4  2  1  0
  4  5  1  1
  6 10  1  0
  6  4  1  0
  7  6  2  0
  9 10  1  0
  9  8  1  1
 11  9  1  0
 11 19  1  0
 12 11  2  0
 14 13  1  0
 14 15  2  0
 16 14  1  0
 16 17  1  0
 18 17  1  6
 18 19  1  0
 18 20  1  0
 20 21  2  0
 20 22  1  0
M  END
$$$$
