VAQ.pdb
     RDKit          3D

 22 21  0  0  1  0  0  0  0  0999 V2000
   20.8757   -9.8156  -19.9297 C   0  0  0  0  0  0  0  0  0  0  0  0
   21.4925  -10.1028  -21.2752 C   0  0  2  0  0  0  0  0  0  0  0  0
   20.6195  -10.9653  -22.1316 C   0  0  0  0  0  0  0  0  0  0  0  0
   22.8520  -10.7642  -21.0139 C   0  0  2  0  0  0  0  0  0  0  0  0
   22.5821  -11.9821  -20.3007 N   0  0  0  0  0  0  0  0  0  0  0  0
   23.6216   -9.8478  -20.1299 C   0  0  0  0  0  0  0  0  0  0  0  0
   23.4056   -9.7562  -18.8903 O   0  0  0  0  0  0  0  0  0  0  0  0
   26.5093   -7.3892  -20.5783 C   0  0  0  0  0  0  0  0  0  0  0  0
   25.3622   -8.0433  -19.8435 C   0  0  2  0  0  0  0  0  0  0  0  0
   24.6611   -9.0094  -20.6399 N   0  0  0  0  0  0  0  0  0  0  0  0
   24.4764   -7.0607  -19.1968 C   0  0  0  0  0  0  0  0  0  0  0  0
   23.3716   -6.7833  -19.6957 O   0  0  0  0  0  0  0  0  0  0  0  0
   21.4028   -7.3196  -14.4733 N   0  0  0  0  0  0  0  0  0  0  0  0
   21.4337   -5.9200  -14.5911 C   0  0  0  0  0  0  0  0  0  0  0  0
   20.7151   -5.2046  -13.8512 O   0  0  0  0  0  0  0  0  0  0  0  0
   22.2989   -5.2140  -15.5762 C   0  0  0  0  0  0  0  0  0  0  0  0
   23.1602   -6.1457  -16.3514 C   0  0  0  0  0  0  0  0  0  0  0  0
   24.0822   -5.4288  -17.3038 C   0  0  2  0  0  0  0  0  0  0  0  0
   24.8879   -6.4340  -18.0055 N   0  0  0  0  0  0  0  0  0  0  0  0
   24.9815   -4.4569  -16.6990 C   0  0  0  0  0  0  0  0  0  0  0  0
   26.0595   -4.8690  -16.1620 O   0  0  0  0  0  0  0  0  0  0  0  0
   24.6813   -3.0873  -16.7010 O   0  0  0  0  0  0  0  0  0  0  0  0
  2  3  1  6
  2  1  1  0
  4  2  1  0
  4  5  1  1
  6 10  1  0
  6  4  1  0
  7  6  2  0
  9 10  1  0
  9  8  1  6
 11  9  1  0
 11 19  1  0
 12 11  2  0
 14 13  1  0
 14 15  2  0
 16 14  1  0
 16 17  1  0
 18 17  1  1
 18 19  1  0
 18 20  1  0
 20 21  2  0
 20 22  1  0
M  END
$$$$
