VAQ.pdb
     RDKit          3D

 22 21  0  0  1  0  0  0  0  0999 V2000
   26.1522  -20.5252   -7.3656 C   0  0  0  0  0  0  0  0  0  0  0  0
   25.5987  -20.5426   -8.7679 C   0  0  2  0  0  0  0  0  0  0  0  0
   24.8979  -21.8250   -9.0898 C   0  0  0  0  0  0  0  0  0  0  0  0
   26.7767  -20.2925   -9.7187 C   0  0  2  0  0  0  0  0  0  0  0  0
   27.3395  -19.0244   -9.3449 N   0  0  0  0  0  0  0  0  0  0  0  0
   26.2150  -20.1853  -11.0922 C   0  0  0  0  0  0  0  0  0  0  0  0
   25.3774  -19.3001  -11.4185 O   0  0  0  0  0  0  0  0  0  0  0  0
   26.8339  -21.8853  -14.4461 C   0  0  0  0  0  0  0  0  0  0  0  0
   26.0619  -21.0362  -13.4629 C   0  0  2  0  0  0  0  0  0  0  0  0
   26.5964  -21.0888  -12.1322 N   0  0  0  0  0  0  0  0  0  0  0  0
   24.6118  -21.2847  -13.5238 C   0  0  0  0  0  0  0  0  0  0  0  0
   24.0976  -22.1888  -12.8423 O   0  0  0  0  0  0  0  0  0  0  0  0
   20.5915  -17.0108  -16.0794 N   0  0  0  0  0  0  0  0  0  0  0  0
   19.7731  -18.0939  -15.7179 C   0  0  0  0  0  0  0  0  0  0  0  0
   18.5329  -18.0423  -15.9041 O   0  0  0  0  0  0  0  0  0  0  0  0
   20.3113  -19.3403  -15.1063 C   0  0  0  0  0  0  0  0  0  0  0  0
   21.7920  -19.3185  -14.9731 C   0  0  0  0  0  0  0  0  0  0  0  0
   22.3453  -20.6074  -14.4220 C   0  0  2  0  0  0  0  0  0  0  0  0
   23.8063  -20.4900  -14.3612 N   0  0  0  0  0  0  0  0  0  0  0  0
   22.0098  -21.8091  -15.1721 C   0  0  0  0  0  0  0  0  0  0  0  0
   22.7341  -22.1341  -16.1670 O   0  0  0  0  0  0  0  0  0  0  0  0
   20.9125  -22.6064  -14.8168 O   0  0  0  0  0  0  0  0  0  0  0  0
  2  3  1  6
  2  1  1  0
  4  2  1  0
  4  5  1  1
  6 10  1  0
  6  4  1  0
  7  6  2  0
  9 10  1  0
  9  8  1  6
 11  9  1  0
 11 19  1  0
 12 11  2  0
 14 13  1  0
 14 15  2  0
 16 14  1  0
 16 17  1  0
 18 17  1  6
 18 19  1  0
 18 20  1  0
 20 21  2  0
 20 22  1  0
M  END
$$$$
