VAQ.pdb
     RDKit          3D

 22 21  0  0  1  0  0  0  0  0999 V2000
   16.9616  -13.9985  -15.3780 C   0  0  0  0  0  0  0  0  0  0  0  0
   17.6163  -12.6745  -15.6804 C   0  0  2  0  0  0  0  0  0  0  0  0
   16.6225  -11.5644  -15.8206 C   0  0  0  0  0  0  0  0  0  0  0  0
   18.4344  -12.8612  -16.9649 C   0  0  2  0  0  0  0  0  0  0  0  0
   19.3377  -13.9509  -16.7176 N   0  0  0  0  0  0  0  0  0  0  0  0
   19.2236  -11.6161  -17.1657 C   0  0  0  0  0  0  0  0  0  0  0  0
   20.0476  -11.1868  -16.3122 O   0  0  0  0  0  0  0  0  0  0  0  0
   19.8202   -9.1807  -20.0253 C   0  0  0  0  0  0  0  0  0  0  0  0
   19.8208   -9.6110  -18.5767 C   0  0  2  0  0  0  0  0  0  0  0  0
   19.0921  -10.8262  -18.3499 N   0  0  0  0  0  0  0  0  0  0  0  0
   19.4392   -8.5185  -17.6661 C   0  0  0  0  0  0  0  0  0  0  0  0
   18.2777   -8.4383  -17.2292 O   0  0  0  0  0  0  0  0  0  0  0  0
   23.1884   -6.0467  -13.3721 N   0  0  0  0  0  0  0  0  0  0  0  0
   22.1766   -5.0779  -13.4784 C   0  0  0  0  0  0  0  0  0  0  0  0
   22.1644   -4.0857  -12.7096 O   0  0  0  0  0  0  0  0  0  0  0  0
   21.0820   -5.1642  -14.4842 C   0  0  0  0  0  0  0  0  0  0  0  0
   21.2308   -6.3323  -15.3920 C   0  0  0  0  0  0  0  0  0  0  0  0
   20.1097   -6.4367  -16.3937 C   0  0  2  0  0  0  0  0  0  0  0  0
   20.3999   -7.5606  -17.2908 N   0  0  0  0  0  0  0  0  0  0  0  0
   19.8747   -5.2495  -17.2027 C   0  0  0  0  0  0  0  0  0  0  0  0
   20.3793   -5.1921  -18.3699 O   0  0  0  0  0  0  0  0  0  0  0  0
   19.1069   -4.1800  -16.7203 O   0  0  0  0  0  0  0  0  0  0  0  0
  2  3  1  6
  2  1  1  0
  4  2  1  0
  4  5  1  1
  6 10  1  0
  6  4  1  0
  7  6  2  0
  9 10  1  0
  9  8  1  6
 11  9  1  0
 11 19  1  0
 12 11  2  0
 14 13  1  0
 14 15  2  0
 16 14  1  0
 16 17  1  0
 18 17  1  1
 18 19  1  0
 18 20  1  0
 20 21  2  0
 20 22  1  0
M  END
$$$$
