RDQ.pdb
     RDKit          3D

 29 28  0  0  1  0  0  0  0  0999 V2000
    9.0258  -15.5136   17.3957 N   0  0  0  0  0  0  0  0  0  0  0  0
    8.5405  -14.3454   16.7517 C   0  0  0  0  0  0  0  0  0  0  0  0
    8.4498  -14.3450   15.4715 N   0  0  0  0  0  0  0  0  0  0  0  0
    8.1505  -13.1792   17.4497 N   0  0  0  0  0  0  0  0  0  0  0  0
    8.3846  -12.9783   18.8661 C   0  0  0  0  0  0  0  0  0  0  0  0
    7.2314  -13.6101   19.6046 C   0  0  0  0  0  0  0  0  0  0  0  0
    7.6534  -14.2118   20.9295 C   0  0  0  0  0  0  0  0  0  0  0  0
    7.9426  -15.6816   20.6601 C   0  0  2  0  0  0  0  0  0  0  0  0
    6.7358  -16.3972   20.3371 N   0  0  0  0  0  0  0  0  0  0  0  0
    8.5130  -16.3248   21.8928 C   0  0  0  0  0  0  0  0  0  0  0  0
    7.7366  -16.7040   22.8254 O   0  0  0  0  0  0  0  0  0  0  0  0
    8.2428  -13.5227   14.9015 N   0  0  0  0  0  0  0  0  0  0  0  0
    9.9107  -16.5264   22.0543 C   0  0  2  0  0  0  0  0  0  0  0  0
   10.4450  -17.0847   23.2638 C   0  0  0  0  0  0  0  0  0  0  0  0
   11.8455  -17.5795   23.1163 C   0  0  0  0  0  0  0  0  0  0  0  0
   12.3794  -18.2652   24.2945 O   0  0  0  0  0  0  0  0  0  0  0  0
   11.5573  -18.6020   25.1968 C   0  0  0  0  0  0  0  0  0  0  0  0
   10.3255  -16.0509   24.3443 O   0  0  0  0  0  0  0  0  0  0  0  0
   11.0306  -15.0111   24.3197 O   0  0  0  0  0  0  0  0  0  0  0  0
   13.7303  -18.5225   24.3944 N   0  0  0  0  0  0  0  0  0  0  0  0
    5.8881  -11.6270   27.5917 C   0  0  0  0  0  0  0  0  0  0  0  0
    6.2764  -12.8151   26.9107 O   0  0  0  0  0  0  0  0  0  0  0  0
    5.4517  -13.2542   26.0608 C   0  0  0  0  0  0  0  0  0  0  0  0
    7.5744  -13.4341   27.2297 C   0  0  0  0  0  0  0  0  0  0  0  0
    7.9047  -14.4797   26.2025 C   0  0  1  0  0  0  0  0  0  0  0  0
    9.2103  -15.1573   26.4264 N   0  0  0  0  0  0  0  0  0  0  0  0
    9.4188  -16.2088   25.4244 C   0  0  0  0  0  0  0  0  0  0  0  0
    9.3191  -15.7654   27.7775 O   0  0  0  0  0  0  0  0  0  0  0  0
    9.2739  -15.0720   28.8294 O   0  0  0  0  0  0  0  0  0  0  0  0
  2  3  2  0
  2  1  1  0
  4  2  1  0
  5  4  1  0
  6  5  1  0
  7  6  1  0
  8  7  1  0
  8  9  1  1
 10 12  1  0
 10  8  1  0
 11 10  2  0
 13 14  1  6
 13 12  1  0
 14 15  1  0
 15 16  2  0
 15 19  1  0
 17 13  1  0
 17 18  2  0
 20 21  1  0
 21 22  2  0
 23 21  1  0
 23 24  1  0
 25 24  1  6
 25 26  1  0
 25 27  1  0
 26 17  1  0
 27 28  2  0
 27 29  1  0
M  END
$$$$
