RDQ.pdb
     RDKit          3D

 29 28  0  0  1  0  0  0  0  0999 V2000
    8.3348  -13.3225   20.6955 N   0  0  0  0  0  0  0  0  0  0  0  0
    8.5331  -12.8313   19.3786 C   0  0  0  0  0  0  0  0  0  0  0  0
    9.0624  -11.6715   19.2311 N   0  0  0  0  0  0  0  0  0  0  0  0
    8.1770  -13.5560   18.2178 N   0  0  0  0  0  0  0  0  0  0  0  0
    7.7114  -14.9286   18.2426 C   0  0  0  0  0  0  0  0  0  0  0  0
    8.8697  -15.7862   18.6868 C   0  0  0  0  0  0  0  0  0  0  0  0
    8.4760  -16.7769   19.7634 C   0  0  0  0  0  0  0  0  0  0  0  0
    9.2152  -16.3548   21.0253 C   0  0  2  0  0  0  0  0  0  0  0  0
    9.1787  -14.9255   21.1944 N   0  0  0  0  0  0  0  0  0  0  0  0
   10.6632  -16.7440   20.9240 C   0  0  0  0  0  0  0  0  0  0  0  0
   10.9918  -17.9719   20.9544 O   0  0  0  0  0  0  0  0  0  0  0  0
    9.1844  -11.1955   18.3353 N   0  0  0  0  0  0  0  0  0  0  0  0
   11.6928  -15.7728   20.7938 C   0  0  2  0  0  0  0  0  0  0  0  0
   13.0742  -16.1586   20.7393 C   0  0  0  0  0  0  0  0  0  0  0  0
   13.9208  -15.2099   19.9574 C   0  0  0  0  0  0  0  0  0  0  0  0
   13.7488  -15.2902   18.5058 O   0  0  0  0  0  0  0  0  0  0  0  0
   13.4924  -16.4269   18.0100 C   0  0  0  0  0  0  0  0  0  0  0  0
   13.5664  -16.3212   22.1471 O   0  0  0  0  0  0  0  0  0  0  0  0
   14.0821  -15.3550   22.7632 O   0  0  0  0  0  0  0  0  0  0  0  0
   13.8669  -14.1568   17.7296 N   0  0  0  0  0  0  0  0  0  0  0  0
   12.9645  -21.0594   27.5656 C   0  0  0  0  0  0  0  0  0  0  0  0
   12.4865  -19.8441   26.9994 O   0  0  0  0  0  0  0  0  0  0  0  0
   11.2422  -19.6480   27.0927 C   0  0  0  0  0  0  0  0  0  0  0  0
   13.4439  -18.9226   26.3639 C   0  0  0  0  0  0  0  0  0  0  0  0
   12.9897  -18.6015   24.9681 C   0  0  1  0  0  0  0  0  0  0  0  0
   13.9288  -17.7303   24.2111 N   0  0  0  0  0  0  0  0  0  0  0  0
   13.4679  -17.5621   22.8282 C   0  0  0  0  0  0  0  0  0  0  0  0
   15.3148  -18.2644   24.1843 O   0  0  0  0  0  0  0  0  0  0  0  0
   15.7894  -18.8443   23.1705 O   0  0  0  0  0  0  0  0  0  0  0  0
  2  3  2  0
  2  1  1  0
  4  2  1  0
  5  4  1  0
  6  5  1  0
  7  6  1  0
  8  7  1  0
  8  9  1  6
 10 12  1  0
 10  8  1  0
 11 10  2  0
 13 14  1  6
 13 12  1  0
 14 15  1  0
 15 16  2  0
 15 19  1  0
 17 13  1  0
 17 18  2  0
 20 21  1  0
 21 22  2  0
 23 21  1  0
 23 24  1  0
 25 24  1  1
 25 26  1  0
 25 27  1  0
 26 17  1  0
 27 28  2  0
 27 29  1  0
M  END
$$$$
