RDQ.pdb
     RDKit          3D

 29 28  0  0  1  0  0  0  0  0999 V2000
    9.5687  -13.2327   20.6188 N   0  0  0  0  0  0  0  0  0  0  0  0
    8.9145  -13.2155   19.3592 C   0  0  0  0  0  0  0  0  0  0  0  0
    9.2616  -12.3263   18.5013 N   0  0  0  0  0  0  0  0  0  0  0  0
    7.8977  -14.1300   18.9998 N   0  0  0  0  0  0  0  0  0  0  0  0
    6.9365  -14.6688   19.9417 C   0  0  0  0  0  0  0  0  0  0  0  0
    7.6247  -14.7608   21.2804 C   0  0  0  0  0  0  0  0  0  0  0  0
    8.1160  -16.1618   21.5828 C   0  0  0  0  0  0  0  0  0  0  0  0
    7.8380  -16.4041   23.0595 C   0  0  2  0  0  0  0  0  0  0  0  0
    8.4271  -15.3736   23.8743 N   0  0  0  0  0  0  0  0  0  0  0  0
    8.4559  -17.7049   23.4894 C   0  0  0  0  0  0  0  0  0  0  0  0
    8.2401  -18.7610   22.8152 O   0  0  0  0  0  0  0  0  0  0  0  0
    8.8167  -12.1878   17.5920 N   0  0  0  0  0  0  0  0  0  0  0  0
    9.2849  -17.7964   24.6403 C   0  0  2  0  0  0  0  0  0  0  0  0
   10.6632  -17.3984   24.5957 C   0  0  0  0  0  0  0  0  0  0  0  0
   11.0726  -16.8383   23.2741 C   0  0  0  0  0  0  0  0  0  0  0  0
   12.5025  -16.5508   23.1479 O   0  0  0  0  0  0  0  0  0  0  0  0
   13.3005  -17.5337   23.1755 C   0  0  0  0  0  0  0  0  0  0  0  0
   10.9025  -16.4288   25.7151 O   0  0  0  0  0  0  0  0  0  0  0  0
   12.0059  -15.8384   25.8291 O   0  0  0  0  0  0  0  0  0  0  0  0
   12.9387  -15.2506   23.0059 N   0  0  0  0  0  0  0  0  0  0  0  0
    6.5281  -12.9134   27.9560 C   0  0  0  0  0  0  0  0  0  0  0  0
    6.9669  -13.2010   26.6328 O   0  0  0  0  0  0  0  0  0  0  0  0
    6.2150  -12.7907   25.7046 C   0  0  0  0  0  0  0  0  0  0  0  0
    8.2302  -13.9332   26.4384 C   0  0  0  0  0  0  0  0  0  0  0  0
    8.8402  -14.2567   27.7728 C   0  0  2  0  0  0  0  0  0  0  0  0
   10.0655  -15.0969   27.6907 N   0  0  0  0  0  0  0  0  0  0  0  0
    9.8992  -16.1456   26.6778 C   0  0  0  0  0  0  0  0  0  0  0  0
   10.4094  -15.7414   28.9843 O   0  0  0  0  0  0  0  0  0  0  0  0
   10.6988  -15.0695   30.0110 O   0  0  0  0  0  0  0  0  0  0  0  0
  2  3  2  0
  2  1  1  0
  4  2  1  0
  5  4  1  0
  6  5  1  0
  7  6  1  0
  8  7  1  0
  8  9  1  1
 10 12  1  0
 10  8  1  0
 11 10  2  0
 13 14  1  6
 13 12  1  0
 14 15  1  0
 15 16  2  0
 15 19  1  0
 17 13  1  0
 17 18  2  0
 20 21  1  0
 21 22  2  0
 23 21  1  0
 23 24  1  0
 25 24  1  6
 25 26  1  0
 25 27  1  0
 26 17  1  0
 27 28  2  0
 27 29  1  0
M  END
$$$$
