RDQ.pdb
     RDKit          3D

 29 28  0  0  1  0  0  0  0  0999 V2000
    8.9992  -12.8208   16.1738 N   0  0  0  0  0  0  0  0  0  0  0  0
    8.2029  -13.8499   15.6067 C   0  0  0  0  0  0  0  0  0  0  0  0
    8.0069  -13.8437   14.3384 N   0  0  0  0  0  0  0  0  0  0  0  0
    7.6132  -14.8846   16.3690 N   0  0  0  0  0  0  0  0  0  0  0  0
    7.1627  -14.7141   17.7363 C   0  0  0  0  0  0  0  0  0  0  0  0
    8.3701  -14.8643   18.6275 C   0  0  0  0  0  0  0  0  0  0  0  0
    8.7606  -16.3137   18.8326 C   0  0  0  0  0  0  0  0  0  0  0  0
    8.1720  -16.7306   20.1730 C   0  0  2  0  0  0  0  0  0  0  0  0
    7.0394  -15.9121   20.5194 N   0  0  0  0  0  0  0  0  0  0  0  0
    9.1928  -16.5434   21.2600 C   0  0  0  0  0  0  0  0  0  0  0  0
    9.6938  -15.3932   21.4660 O   0  0  0  0  0  0  0  0  0  0  0  0
    7.4097  -14.5038   13.8370 N   0  0  0  0  0  0  0  0  0  0  0  0
    9.6237  -17.6235   22.0773 C   0  0  1  0  0  0  0  0  0  0  0  0
   10.6669  -17.4497   23.0476 C   0  0  0  0  0  0  0  0  0  0  0  0
   10.6802  -18.5123   24.0957 C   0  0  0  0  0  0  0  0  0  0  0  0
   11.6972  -18.3350   25.1338 O   0  0  0  0  0  0  0  0  0  0  0  0
   12.3281  -17.2371   25.1519 C   0  0  0  0  0  0  0  0  0  0  0  0
   11.9732  -17.3674   22.3145 O   0  0  0  0  0  0  0  0  0  0  0  0
   12.3333  -18.2873   21.5378 O   0  0  0  0  0  0  0  0  0  0  0  0
   11.9405  -19.3405   26.0453 N   0  0  0  0  0  0  0  0  0  0  0  0
   13.6663  -14.3811   17.7065 C   0  0  0  0  0  0  0  0  0  0  0  0
   14.5649  -13.8218   18.6582 O   0  0  0  0  0  0  0  0  0  0  0  0
   14.9281  -12.6327   18.4361 C   0  0  0  0  0  0  0  0  0  0  0  0
   14.9971  -14.6394   19.8047 C   0  0  0  0  0  0  0  0  0  0  0  0
   13.8240  -14.9168   20.7016 C   0  0  1  0  0  0  0  0  0  0  0  0
   14.0250  -16.0678   21.6229 N   0  0  0  0  0  0  0  0  0  0  0  0
   12.8422  -16.2566   22.4706 C   0  0  0  0  0  0  0  0  0  0  0  0
   15.2123  -15.9024   22.5003 O   0  0  0  0  0  0  0  0  0  0  0  0
   16.3785  -15.7900   22.0348 O   0  0  0  0  0  0  0  0  0  0  0  0
  2  3  2  0
  2  1  1  0
  4  2  1  0
  5  4  1  0
  6  5  1  0
  7  6  1  0
  8  7  1  0
  8  9  1  1
 10 12  1  0
 10  8  1  0
 11 10  2  0
 13 14  1  6
 13 12  1  0
 14 15  1  0
 15 16  2  0
 15 19  1  0
 17 13  1  0
 17 18  2  0
 20 21  1  0
 21 22  2  0
 23 21  1  0
 23 24  1  0
 25 24  1  6
 25 26  1  0
 25 27  1  0
 26 17  1  0
 27 28  2  0
 27 29  1  0
M  END
$$$$
