RSD.pdb
     RDKit          3D

 26 25  0  0  1  0  0  0  0  0999 V2000
   18.6914  -15.2405    2.1981 N   0  0  0  0  0  0  0  0  0  0  0  0
   17.3990  -15.8464    2.1261 C   0  0  0  0  0  0  0  0  0  0  0  0
   17.2979  -17.0008    1.5712 N   0  0  0  0  0  0  0  0  0  0  0  0
   16.2367  -15.2274    2.6410 N   0  0  0  0  0  0  0  0  0  0  0  0
   16.3523  -14.2685    3.7006 C   0  0  0  0  0  0  0  0  0  0  0  0
   16.6403  -15.0446    4.9886 C   0  0  0  0  0  0  0  0  0  0  0  0
   16.6996  -14.1003    6.1691 C   0  0  0  0  0  0  0  0  0  0  0  0
   17.0634  -14.9228    7.4079 C   0  0  2  0  0  0  0  0  0  0  0  0
   15.8035  -15.1732    8.0818 N   0  0  0  0  0  0  0  0  0  0  0  0
   18.0095  -14.1802    8.2699 C   0  0  0  0  0  0  0  0  0  0  0  0
   17.5723  -13.4486    9.1827 O   0  0  0  0  0  0  0  0  0  0  0  0
   16.4245  -17.5679    1.5463 O   0  0  0  0  0  0  0  0  0  0  0  0
   22.6598  -13.8906    9.6099 C   0  0  0  0  0  0  0  0  0  0  0  0
   21.6670  -14.4585    8.8266 C   0  0  2  0  0  0  0  0  0  0  0  0
   20.3975  -13.5936    8.8136 N   0  0  0  0  0  0  0  0  0  0  0  0
   19.3958  -14.2914    8.0711 C   0  0  0  0  0  0  0  0  0  0  0  0
   20.7732  -12.2975    8.2632 O   0  0  0  0  0  0  0  0  0  0  0  0
   20.8907  -12.1438    7.0268 N   0  0  0  0  0  0  0  0  0  0  0  0
   21.0144  -11.1869    9.1088 C   0  0  1  0  0  0  0  0  0  0  0  0
   21.5553   -9.9272    8.6357 C   0  0  0  0  0  0  0  0  0  0  0  0
   22.0641   -9.0525    9.7523 C   0  0  0  0  0  0  0  0  0  0  0  0
   22.5243   -7.7537    9.2473 O   0  0  0  0  0  0  0  0  0  0  0  0
   22.2967   -7.3191    8.0768 C   0  0  0  0  0  0  0  0  0  0  0  0
   22.6661  -10.2009    7.6764 O   0  0  0  0  0  0  0  0  0  0  0  0
   22.5497   -9.8104    6.3574 O   0  0  0  0  0  0  0  0  0  0  0  0
   23.2633   -6.9411   10.1141 O   0  0  0  0  0  0  0  0  0  0  0  0
  1  2  1  0
  2  3  2  0
  4  5  1  0
  4  2  1  0
  6  5  1  0
  7  6  1  0
  7  8  1  0
  8 10  1  0
  8  9  1  1
 10 11  2  0
 13 12  1  0
 14 13  1  1
 15 14  1  0
 15 10  1  0
 16 17  2  0
 16 14  1  0
 18 16  1  0
 19 20  1  1
 19 18  1  0
 20 21  1  0
 21 25  1  0
 21 22  2  0
 23 19  1  0
 24 23  1  0
 26 23  2  0
M  END
$$$$
