RSD.pdb
     RDKit          3D

 26 25  0  0  1  0  0  0  0  0999 V2000
   22.9634  -11.2564  -14.3174 N   0  0  0  0  0  0  0  0  0  0  0  0
   23.3791  -12.3995  -15.0680 C   0  0  0  0  0  0  0  0  0  0  0  0
   24.6237  -12.5125  -15.3658 N   0  0  0  0  0  0  0  0  0  0  0  0
   22.4776  -13.4037  -15.4901 N   0  0  0  0  0  0  0  0  0  0  0  0
   21.8595  -13.3072  -16.7802 C   0  0  0  0  0  0  0  0  0  0  0  0
   21.5917  -11.8236  -17.0477 C   0  0  0  0  0  0  0  0  0  0  0  0
   20.1050  -11.5448  -17.0211 C   0  0  0  0  0  0  0  0  0  0  0  0
   19.7268  -10.8974  -18.3558 C   0  0  2  0  0  0  0  0  0  0  0  0
   20.6314  -11.4777  -19.3300 N   0  0  0  0  0  0  0  0  0  0  0  0
   19.8682   -9.4263  -18.2826 C   0  0  0  0  0  0  0  0  0  0  0  0
   21.0037   -8.9178  -18.1752 O   0  0  0  0  0  0  0  0  0  0  0  0
   25.0254  -13.2875  -15.9344 O   0  0  0  0  0  0  0  0  0  0  0  0
   16.5186   -7.1502  -17.3624 C   0  0  0  0  0  0  0  0  0  0  0  0
   17.3041   -6.6718  -18.3996 C   0  0  1  0  0  0  0  0  0  0  0  0
   18.7532   -7.1681  -18.2823 N   0  0  0  0  0  0  0  0  0  0  0  0
   18.7361   -8.5960  -18.3337 C   0  0  0  0  0  0  0  0  0  0  0  0
   19.2947   -6.6082  -17.0506 O   0  0  0  0  0  0  0  0  0  0  0  0
   19.3936   -7.3151  -16.0226 N   0  0  0  0  0  0  0  0  0  0  0  0
   19.7188   -5.2581  -16.9864 C   0  0  1  0  0  0  0  0  0  0  0  0
   20.2363   -4.6414  -15.7800 C   0  0  0  0  0  0  0  0  0  0  0  0
   21.6586   -4.1664  -15.9293 C   0  0  0  0  0  0  0  0  0  0  0  0
   22.1019   -3.4240  -14.7436 O   0  0  0  0  0  0  0  0  0  0  0  0
   22.2554   -2.1648  -14.7031 C   0  0  0  0  0  0  0  0  0  0  0  0
   19.3655   -3.4870  -15.4083 O   0  0  0  0  0  0  0  0  0  0  0  0
   19.1641   -3.1758  -14.0785 O   0  0  0  0  0  0  0  0  0  0  0  0
   22.3733   -4.1533  -13.5808 O   0  0  0  0  0  0  0  0  0  0  0  0
  1  2  1  0
  2  3  2  0
  4  5  1  0
  4  2  1  0
  6  5  1  0
  7  6  1  0
  7  8  1  0
  8 10  1  0
  8  9  1  6
 10 11  2  0
 13 12  1  0
 14 13  1  6
 15 14  1  0
 15 10  1  0
 16 17  2  0
 16 14  1  0
 18 16  1  0
 19 20  1  1
 19 18  1  0
 20 21  1  0
 21 25  1  0
 21 22  2  0
 23 19  1  0
 24 23  1  0
 26 23  2  0
M  END
$$$$
