RSD.pdb
     RDKit          3D

 26 25  0  0  1  0  0  0  0  0999 V2000
   16.8408  -16.5579  -14.7196 N   0  0  0  0  0  0  0  0  0  0  0  0
   15.4199  -16.6603  -14.6055 C   0  0  0  0  0  0  0  0  0  0  0  0
   14.9142  -17.8024  -14.3044 N   0  0  0  0  0  0  0  0  0  0  0  0
   14.5571  -15.5587  -14.8086 N   0  0  0  0  0  0  0  0  0  0  0  0
   15.1098  -14.2614  -15.0675 C   0  0  0  0  0  0  0  0  0  0  0  0
   14.4758  -13.2882  -14.0699 C   0  0  0  0  0  0  0  0  0  0  0  0
   15.1354  -11.9302  -14.1689 C   0  0  0  0  0  0  0  0  0  0  0  0
   14.4992  -11.0234  -13.1123 C   0  0  2  0  0  0  0  0  0  0  0  0
   13.0983  -10.9370  -13.4786 N   0  0  0  0  0  0  0  0  0  0  0  0
   15.1481   -9.6935  -13.1047 C   0  0  0  0  0  0  0  0  0  0  0  0
   14.8962   -8.8761  -14.0146 O   0  0  0  0  0  0  0  0  0  0  0  0
   13.9034  -17.9671  -14.1136 O   0  0  0  0  0  0  0  0  0  0  0  0
   17.2359   -8.6675   -9.6853 C   0  0  0  0  0  0  0  0  0  0  0  0
   16.7299   -7.6695  -10.5036 C   0  0  1  0  0  0  0  0  0  0  0  0
   16.7364   -8.0954  -11.9795 N   0  0  0  0  0  0  0  0  0  0  0  0
   16.0449   -9.3416  -12.0821 C   0  0  0  0  0  0  0  0  0  0  0  0
   18.1302   -8.1341  -12.4035 O   0  0  0  0  0  0  0  0  0  0  0  0
   18.8623   -9.0988  -12.0880 N   0  0  0  0  0  0  0  0  0  0  0  0
   18.6878   -7.0866  -13.1773 C   0  0  1  0  0  0  0  0  0  0  0  0
   20.0359   -7.1201  -13.7109 C   0  0  0  0  0  0  0  0  0  0  0  0
   20.0756   -7.4519  -15.1803 C   0  0  0  0  0  0  0  0  0  0  0  0
   21.4496   -7.4355  -15.6955 O   0  0  0  0  0  0  0  0  0  0  0  0
   22.4682   -7.1166  -15.0087 C   0  0  0  0  0  0  0  0  0  0  0  0
   20.6847   -5.7946  -13.4853 O   0  0  0  0  0  0  0  0  0  0  0  0
   19.9573   -4.7548  -12.9417 O   0  0  0  0  0  0  0  0  0  0  0  0
   21.6495   -7.7953  -17.0328 O   0  0  0  0  0  0  0  0  0  0  0  0
  1  2  1  0
  2  3  2  0
  4  5  1  0
  4  2  1  0
  6  5  1  0
  7  6  1  0
  7  8  1  0
  8 10  1  0
  8  9  1  6
 10 11  2  0
 13 12  1  0
 14 13  1  6
 15 14  1  0
 15 10  1  0
 16 17  2  0
 16 14  1  0
 18 16  1  0
 19 20  1  1
 19 18  1  0
 20 21  1  0
 21 25  1  0
 21 22  2  0
 23 19  1  0
 24 23  1  0
 26 23  2  0
M  END
$$$$
