RSD.pdb
     RDKit          3D

 26 25  0  0  1  0  0  0  0  0999 V2000
   15.2994  -23.1772   -6.0549 N   0  0  0  0  0  0  0  0  0  0  0  0
   13.9094  -23.0791   -6.3722 C   0  0  0  0  0  0  0  0  0  0  0  0
   13.5386  -23.3477   -7.5727 N   0  0  0  0  0  0  0  0  0  0  0  0
   12.9346  -22.7017   -5.4201 N   0  0  0  0  0  0  0  0  0  0  0  0
   13.3388  -22.0456   -4.2111 C   0  0  0  0  0  0  0  0  0  0  0  0
   13.0417  -23.0013   -3.0524 C   0  0  0  0  0  0  0  0  0  0  0  0
   13.4076  -22.3575   -1.7331 C   0  0  0  0  0  0  0  0  0  0  0  0
   13.1593  -23.3856   -0.6264 C   0  0  2  0  0  0  0  0  0  0  0  0
   11.8046  -23.8573   -0.8421 N   0  0  0  0  0  0  0  0  0  0  0  0
   13.3198  -22.7671    0.7083 C   0  0  0  0  0  0  0  0  0  0  0  0
   12.9437  -21.5910    0.8952 O   0  0  0  0  0  0  0  0  0  0  0  0
   12.5574  -23.2780   -7.9156 O   0  0  0  0  0  0  0  0  0  0  0  0
   15.6772  -24.6834    3.6241 C   0  0  0  0  0  0  0  0  0  0  0  0
   14.4124  -24.2457    3.9851 C   0  0  1  0  0  0  0  0  0  0  0  0
   13.9635  -23.0539    3.1261 N   0  0  0  0  0  0  0  0  0  0  0  0
   13.8912  -23.4914    1.7678 C   0  0  0  0  0  0  0  0  0  0  0  0
   14.9119  -21.9745    3.3699 O   0  0  0  0  0  0  0  0  0  0  0  0
   15.8067  -21.7159    2.5341 N   0  0  0  0  0  0  0  0  0  0  0  0
   14.8456  -21.1970    4.5522 C   0  0  1  0  0  0  0  0  0  0  0  0
   15.7930  -20.1457    4.8693 C   0  0  0  0  0  0  0  0  0  0  0  0
   15.1855  -18.7686    4.7955 C   0  0  0  0  0  0  0  0  0  0  0  0
   16.1559  -17.7348    5.1738 O   0  0  0  0  0  0  0  0  0  0  0  0
   17.3657  -17.9659    5.4800 C   0  0  0  0  0  0  0  0  0  0  0  0
   16.3364  -20.3738    6.2411 O   0  0  0  0  0  0  0  0  0  0  0  0
   17.4187  -19.6405    6.6844 O   0  0  0  0  0  0  0  0  0  0  0  0
   15.7178  -16.4061    5.1984 O   0  0  0  0  0  0  0  0  0  0  0  0
  1  2  1  0
  2  3  2  0
  4  5  1  0
  4  2  1  0
  6  5  1  0
  7  6  1  0
  7  8  1  0
  8 10  1  0
  8  9  1  1
 10 11  2  0
 13 12  1  0
 14 13  1  1
 15 14  1  0
 15 10  1  0
 16 17  2  0
 16 14  1  0
 18 16  1  0
 19 20  1  1
 19 18  1  0
 20 21  1  0
 21 25  1  0
 21 22  2  0
 23 19  1  0
 24 23  1  0
 26 23  2  0
M  END
$$$$
