RSD.pdb
     RDKit          3D

 26 25  0  0  1  0  0  0  0  0999 V2000
   18.5048  -25.5461   -7.7527 N   0  0  0  0  0  0  0  0  0  0  0  0
   17.7115  -24.3596   -7.8270 C   0  0  0  0  0  0  0  0  0  0  0  0
   16.4530  -24.4527   -7.5857 N   0  0  0  0  0  0  0  0  0  0  0  0
   18.2572  -23.0964   -8.1523 N   0  0  0  0  0  0  0  0  0  0  0  0
   19.1380  -22.9710   -9.2767 C   0  0  0  0  0  0  0  0  0  0  0  0
   18.2660  -22.8975  -10.5330 C   0  0  0  0  0  0  0  0  0  0  0  0
   18.5987  -21.6565  -11.3318 C   0  0  0  0  0  0  0  0  0  0  0  0
   19.9879  -21.1806  -10.8993 C   0  0  2  0  0  0  0  0  0  0  0  0
   19.7888  -20.5477   -9.6093 N   0  0  0  0  0  0  0  0  0  0  0  0
   20.5512  -20.2390  -11.8921 C   0  0  0  0  0  0  0  0  0  0  0  0
   20.5280  -19.0114  -11.6643 O   0  0  0  0  0  0  0  0  0  0  0  0
   15.7852  -23.6541   -7.6244 O   0  0  0  0  0  0  0  0  0  0  0  0
   23.9324  -20.7003  -14.4668 C   0  0  0  0  0  0  0  0  0  0  0  0
   22.6332  -20.7760  -14.9443 C   0  0  2  0  0  0  0  0  0  0  0  0
   21.6788  -19.9003  -14.1184 N   0  0  0  0  0  0  0  0  0  0  0  0
   21.1129  -20.7139  -13.0891 C   0  0  0  0  0  0  0  0  0  0  0  0
   20.7113  -19.3332  -15.0492 O   0  0  0  0  0  0  0  0  0  0  0  0
   19.6186  -19.9071  -15.2557 N   0  0  0  0  0  0  0  0  0  0  0  0
   20.9827  -18.1264  -15.7398 C   0  0  1  0  0  0  0  0  0  0  0  0
   20.0442  -17.5014  -16.6518 C   0  0  0  0  0  0  0  0  0  0  0  0
   20.3469  -16.0455  -16.8962 C   0  0  0  0  0  0  0  0  0  0  0  0
   19.3821  -15.4472  -17.8261 O   0  0  0  0  0  0  0  0  0  0  0  0
   18.3804  -16.0583  -18.3101 C   0  0  0  0  0  0  0  0  0  0  0  0
   20.0622  -18.2354  -17.9518 O   0  0  0  0  0  0  0  0  0  0  0  0
   18.8776  -18.6566  -18.5220 O   0  0  0  0  0  0  0  0  0  0  0  0
   19.5801  -14.1147  -18.2041 O   0  0  0  0  0  0  0  0  0  0  0  0
  1  2  1  0
  2  3  2  0
  4  5  1  0
  4  2  1  0
  6  5  1  0
  7  6  1  0
  7  8  1  0
  8 10  1  0
  8  9  1  1
 10 11  2  0
 13 12  1  0
 14 13  1  1
 15 14  1  0
 15 10  1  0
 16 17  2  0
 16 14  1  0
 18 16  1  0
 19 20  1  6
 19 18  1  0
 20 21  1  0
 21 25  1  0
 21 22  2  0
 23 19  1  0
 24 23  1  0
 26 23  2  0
M  END
$$$$
