RSD.pdb
     RDKit          3D

 26 25  0  0  1  0  0  0  0  0999 V2000
   27.4740  -17.9158   -6.9863 N   0  0  0  0  0  0  0  0  0  0  0  0
   27.7268  -19.1899   -6.3902 C   0  0  0  0  0  0  0  0  0  0  0  0
   28.8386  -19.3618   -5.7696 N   0  0  0  0  0  0  0  0  0  0  0  0
   26.8043  -20.2594   -6.4564 N   0  0  0  0  0  0  0  0  0  0  0  0
   26.0039  -20.4356   -7.6328 C   0  0  0  0  0  0  0  0  0  0  0  0
   26.9479  -20.3921   -8.8374 C   0  0  0  0  0  0  0  0  0  0  0  0
   26.2288  -19.8409  -10.0490 C   0  0  0  0  0  0  0  0  0  0  0  0
   25.8543  -21.0221  -10.9479 C   0  0  2  0  0  0  0  0  0  0  0  0
   27.1111  -21.6754  -11.2610 N   0  0  0  0  0  0  0  0  0  0  0  0
   25.1605  -20.5523  -12.1676 C   0  0  0  0  0  0  0  0  0  0  0  0
   24.5955  -19.4386  -12.1686 O   0  0  0  0  0  0  0  0  0  0  0  0
   29.0785  -20.2104   -5.2150 O   0  0  0  0  0  0  0  0  0  0  0  0
   24.5294  -23.3764  -15.1315 C   0  0  0  0  0  0  0  0  0  0  0  0
   24.7914  -22.0914  -15.5808 C   0  0  1  0  0  0  0  0  0  0  0  0
   24.4194  -21.0398  -14.5246 N   0  0  0  0  0  0  0  0  0  0  0  0
   25.1321  -21.3479  -13.3251 C   0  0  0  0  0  0  0  0  0  0  0  0
   22.9680  -21.0638  -14.3953 O   0  0  0  0  0  0  0  0  0  0  0  0
   22.4225  -21.7443  -13.4978 N   0  0  0  0  0  0  0  0  0  0  0  0
   22.1436  -20.3229  -15.2776 C   0  0  1  0  0  0  0  0  0  0  0  0
   20.7016  -20.2437  -15.1441 C   0  0  0  0  0  0  0  0  0  0  0  0
   20.1413  -18.9279  -15.6187 C   0  0  0  0  0  0  0  0  0  0  0  0
   18.6925  -18.8524  -15.3977 O   0  0  0  0  0  0  0  0  0  0  0  0
   18.0620  -19.5435  -14.5399 C   0  0  0  0  0  0  0  0  0  0  0  0
   20.0765  -21.3561  -15.9192 O   0  0  0  0  0  0  0  0  0  0  0  0
   18.9407  -21.9771  -15.4396 O   0  0  0  0  0  0  0  0  0  0  0  0
   17.9578  -17.9591  -16.1852 O   0  0  0  0  0  0  0  0  0  0  0  0
  1  2  1  0
  2  3  2  0
  4  5  1  0
  4  2  1  0
  6  5  1  0
  7  6  1  0
  7  8  1  0
  8 10  1  0
  8  9  1  6
 10 11  2  0
 13 12  1  0
 14 13  1  6
 15 14  1  0
 15 10  1  0
 16 17  2  0
 16 14  1  0
 18 16  1  0
 19 20  1  6
 19 18  1  0
 20 21  1  0
 21 25  1  0
 21 22  2  0
 23 19  1  0
 24 23  1  0
 26 23  2  0
M  END
$$$$
