RSD.pdb
     RDKit          3D

 26 25  0  0  1  0  0  0  0  0999 V2000
   17.3523  -12.5081  -12.4821 N   0  0  0  0  0  0  0  0  0  0  0  0
   17.6230  -11.7866  -13.6858 C   0  0  0  0  0  0  0  0  0  0  0  0
   17.0910  -12.2038  -14.7783 N   0  0  0  0  0  0  0  0  0  0  0  0
   18.4473  -10.6382  -13.7176 N   0  0  0  0  0  0  0  0  0  0  0  0
   17.9613   -9.3997  -13.1831 C   0  0  0  0  0  0  0  0  0  0  0  0
   17.9135   -9.5478  -11.6600 C   0  0  0  0  0  0  0  0  0  0  0  0
   17.4758   -8.2491  -11.0191 C   0  0  0  0  0  0  0  0  0  0  0  0
   16.3078   -8.5615  -10.0801 C   0  0  2  0  0  0  0  0  0  0  0  0
   15.6797   -9.7456  -10.6349 N   0  0  0  0  0  0  0  0  0  0  0  0
   15.3683   -7.4202  -10.0157 C   0  0  0  0  0  0  0  0  0  0  0  0
   14.3412   -7.4225  -10.7260 O   0  0  0  0  0  0  0  0  0  0  0  0
   17.2670  -11.7860  -15.7162 O   0  0  0  0  0  0  0  0  0  0  0  0
   14.6991   -5.5112   -6.7730 C   0  0  0  0  0  0  0  0  0  0  0  0
   14.0010   -5.0960   -7.8964 C   0  0  1  0  0  0  0  0  0  0  0  0
   14.8925   -5.1045   -9.1474 N   0  0  0  0  0  0  0  0  0  0  0  0
   15.6210   -6.3337   -9.1616 C   0  0  0  0  0  0  0  0  0  0  0  0
   15.7192   -3.9058   -9.0870 O   0  0  0  0  0  0  0  0  0  0  0  0
   16.7967   -3.9102   -8.4505 N   0  0  0  0  0  0  0  0  0  0  0  0
   15.3256   -2.7132   -9.7423 C   0  0  1  0  0  0  0  0  0  0  0  0
   16.0856   -1.4796   -9.6774 C   0  0  0  0  0  0  0  0  0  0  0  0
   15.7038   -0.4996  -10.7565 C   0  0  0  0  0  0  0  0  0  0  0  0
   16.0746   -0.9969  -12.0864 O   0  0  0  0  0  0  0  0  0  0  0  0
   17.0550   -1.7701  -12.3141 C   0  0  0  0  0  0  0  0  0  0  0  0
   15.8803   -0.8480   -8.3402 O   0  0  0  0  0  0  0  0  0  0  0  0
   16.6222    0.2589   -7.9797 O   0  0  0  0  0  0  0  0  0  0  0  0
   15.2953   -0.5913  -13.1755 O   0  0  0  0  0  0  0  0  0  0  0  0
  1  2  1  0
  2  3  2  0
  4  5  1  0
  4  2  1  0
  6  5  1  0
  7  6  1  0
  7  8  1  0
  8 10  1  0
  8  9  1  6
 10 11  2  0
 13 12  1  0
 14 13  1  6
 15 14  1  0
 15 10  1  0
 16 17  2  0
 16 14  1  0
 18 16  1  0
 19 20  1  1
 19 18  1  0
 20 21  1  0
 21 25  1  0
 21 22  2  0
 23 19  1  0
 24 23  1  0
 26 23  2  0
M  END
$$$$
