VQC.pdb
     RDKit          3D

 23 22  0  0  1  0  0  0  0  0999 V2000
   15.5189  -11.8342  -13.9296 C   0  0  0  0  0  0  0  0  0  0  0  0
   16.0969  -11.3296  -15.2589 C   0  0  2  0  0  0  0  0  0  0  0  0
   16.7876  -12.5229  -15.8844 C   0  0  0  0  0  0  0  0  0  0  0  0
   17.0686  -10.2347  -14.9126 C   0  0  2  0  0  0  0  0  0  0  0  0
   18.1894  -10.7199  -14.1426 N   0  0  0  0  0  0  0  0  0  0  0  0
   16.4502   -9.0928  -14.2207 C   0  0  0  0  0  0  0  0  0  0  0  0
   15.5257   -8.4902  -14.8714 O   0  0  0  0  0  0  0  0  0  0  0  0
   15.7480   -7.4403   -8.1579 N   0  0  0  0  0  0  0  0  0  0  0  0
   14.5556   -7.4670   -8.9330 C   0  0  0  0  0  0  0  0  0  0  0  0
   13.4707   -7.4528   -8.3063 O   0  0  0  0  0  0  0  0  0  0  0  0
   14.5756   -7.5098  -10.4204 C   0  0  0  0  0  0  0  0  0  0  0  0
   15.9887   -7.5198  -10.8918 C   0  0  0  0  0  0  0  0  0  0  0  0
   16.1768   -7.5147  -12.3738 C   0  0  2  0  0  0  0  0  0  0  0  0
   16.8221   -8.6548  -12.9210 N   0  0  0  0  0  0  0  0  0  0  0  0
   16.8817   -6.2606  -12.7840 C   0  0  0  0  0  0  0  0  0  0  0  0
   18.1349   -6.2776  -12.7774 O   0  0  0  0  0  0  0  0  0  0  0  0
   16.2330   -5.0749  -13.1731 N   0  0  0  0  0  0  0  0  0  0  0  0
   16.9055   -3.8663  -13.5794 C   0  0  1  0  0  0  0  0  0  0  0  0
   17.1923   -3.8440  -15.0645 C   0  0  0  0  0  0  0  0  0  0  0  0
   18.0657   -2.3151  -15.4466 S   0  0  0  0  0  0  0  0  0  0  0  0
   15.9944   -2.7287  -13.2975 C   0  0  0  0  0  0  0  0  0  0  0  0
   16.4031   -1.5409  -13.2860 O   0  0  0  0  0  0  0  0  0  0  0  0
   14.6359   -2.9395  -13.0320 O   0  0  0  0  0  0  0  0  0  0  0  0
  2  1  1  1
  2  3  1  0
  4  6  1  0
  4  2  1  0
  4  5  1  1
  6 14  1  0
  6  7  2  0
  9  8  1  0
 10  9  2  0
 11  9  1  0
 12 11  1  0
 13 12  1  1
 14 13  1  0
 15 17  1  0
 15 13  1  0
 16 15  2  0
 18 21  1  0
 18 17  1  0
 18 19  1  6
 20 19  1  0
 21 23  1  0
 22 21  2  0
M  END
$$$$
