VQC.pdb
     RDKit          3D

 23 22  0  0  1  0  0  0  0  0999 V2000
   14.0469  -10.0245  -13.8266 C   0  0  0  0  0  0  0  0  0  0  0  0
   14.9980  -10.3196  -14.9945 C   0  0  2  0  0  0  0  0  0  0  0  0
   14.2638  -11.3020  -15.8823 C   0  0  0  0  0  0  0  0  0  0  0  0
   16.2376  -10.9229  -14.3925 C   0  0  2  0  0  0  0  0  0  0  0  0
   15.9807  -12.2035  -13.7772 N   0  0  0  0  0  0  0  0  0  0  0  0
   16.9178  -10.0400  -13.4317 C   0  0  0  0  0  0  0  0  0  0  0  0
   16.7752  -10.3553  -12.1984 O   0  0  0  0  0  0  0  0  0  0  0  0
   21.7593   -6.0138  -14.0279 N   0  0  0  0  0  0  0  0  0  0  0  0
   21.3927   -5.9146  -12.6571 C   0  0  0  0  0  0  0  0  0  0  0  0
   22.1058   -5.1843  -11.9302 O   0  0  0  0  0  0  0  0  0  0  0  0
   20.2200   -6.6371  -12.0939 C   0  0  0  0  0  0  0  0  0  0  0  0
   19.5295   -7.3780  -13.1864 C   0  0  0  0  0  0  0  0  0  0  0  0
   18.3075   -8.1365  -12.7825 C   0  0  2  0  0  0  0  0  0  0  0  0
   17.6895   -8.9059  -13.8030 N   0  0  0  0  0  0  0  0  0  0  0  0
   17.3225   -7.2008  -12.1562 C   0  0  0  0  0  0  0  0  0  0  0  0
   16.6410   -6.4843  -12.9264 O   0  0  0  0  0  0  0  0  0  0  0  0
   17.1149   -7.0754  -10.7708 N   0  0  0  0  0  0  0  0  0  0  0  0
   16.1950   -6.1495  -10.1588 C   0  0  1  0  0  0  0  0  0  0  0  0
   15.0375   -6.8543   -9.4871 C   0  0  0  0  0  0  0  0  0  0  0  0
   15.7036   -8.1687   -8.4501 S   0  0  0  0  0  0  0  0  0  0  0  0
   16.9323   -5.4195   -9.0971 C   0  0  0  0  0  0  0  0  0  0  0  0
   18.1277   -5.6864   -8.8186 O   0  0  0  0  0  0  0  0  0  0  0  0
   16.3176   -4.3989   -8.3616 O   0  0  0  0  0  0  0  0  0  0  0  0
  2  1  1  1
  2  3  1  0
  4  6  1  0
  4  2  1  0
  4  5  1  1
  6 14  1  0
  6  7  2  0
  9  8  1  0
 10  9  2  0
 11  9  1  0
 12 11  1  0
 13 12  1  6
 14 13  1  0
 15 17  1  0
 15 13  1  0
 16 15  2  0
 18 21  1  0
 18 17  1  0
 18 19  1  1
 20 19  1  0
 21 23  1  0
 22 21  2  0
M  END
$$$$
