VQC.pdb
     RDKit          3D

 23 22  0  0  1  0  0  0  0  0999 V2000
   19.5848  -14.1278  -18.6233 C   0  0  0  0  0  0  0  0  0  0  0  0
   21.1104  -14.1423  -18.4560 C   0  0  2  0  0  0  0  0  0  0  0  0
   21.5099  -15.6026  -18.4689 C   0  0  0  0  0  0  0  0  0  0  0  0
   21.3998  -13.4915  -17.1310 C   0  0  2  0  0  0  0  0  0  0  0  0
   20.9069  -14.2694  -16.0189 N   0  0  0  0  0  0  0  0  0  0  0  0
   20.9006  -12.1111  -17.0290 C   0  0  0  0  0  0  0  0  0  0  0  0
   21.4385  -11.2707  -17.8324 O   0  0  0  0  0  0  0  0  0  0  0  0
   15.3602   -9.8845  -15.0554 N   0  0  0  0  0  0  0  0  0  0  0  0
   16.0317   -8.7401  -15.5680 C   0  0  0  0  0  0  0  0  0  0  0  0
   15.3608   -7.6869  -15.6710 O   0  0  0  0  0  0  0  0  0  0  0  0
   17.4646   -8.7728  -15.9688 C   0  0  0  0  0  0  0  0  0  0  0  0
   17.9969  -10.1506  -15.7745 C   0  0  0  0  0  0  0  0  0  0  0  0
   19.4174  -10.3598  -16.1868 C   0  0  2  0  0  0  0  0  0  0  0  0
   19.8932  -11.6956  -16.1169 N   0  0  0  0  0  0  0  0  0  0  0  0
   20.3046   -9.4413  -15.4076 C   0  0  0  0  0  0  0  0  0  0  0  0
   20.8543   -9.9068  -14.3819 O   0  0  0  0  0  0  0  0  0  0  0  0
   20.5585   -8.1010  -15.7502 N   0  0  0  0  0  0  0  0  0  0  0  0
   21.4193   -7.2131  -15.0094 C   0  0  1  0  0  0  0  0  0  0  0  0
   22.5511   -6.6760  -15.8570 C   0  0  0  0  0  0  0  0  0  0  0  0
   23.5066   -5.5225  -14.8554 S   0  0  0  0  0  0  0  0  0  0  0  0
   20.6042   -6.0467  -14.5863 C   0  0  0  0  0  0  0  0  0  0  0  0
   19.6481   -5.6209  -15.2808 O   0  0  0  0  0  0  0  0  0  0  0  0
   20.8734   -5.3734  -13.3885 O   0  0  0  0  0  0  0  0  0  0  0  0
  2  1  1  1
  2  3  1  0
  4  6  1  0
  4  2  1  0
  4  5  1  1
  6 14  1  0
  6  7  2  0
  9  8  1  0
 10  9  2  0
 11  9  1  0
 12 11  1  0
 13 12  1  1
 14 13  1  0
 15 17  1  0
 15 13  1  0
 16 15  2  0
 18 21  1  0
 18 17  1  0
 18 19  1  6
 20 19  1  0
 21 23  1  0
 22 21  2  0
M  END
$$$$
