VQC.pdb
     RDKit          3D

 23 22  0  0  1  0  0  0  0  0999 V2000
   26.7357  -19.8433  -17.3595 C   0  0  0  0  0  0  0  0  0  0  0  0
   27.2273  -21.2705  -17.6376 C   0  0  2  0  0  0  0  0  0  0  0  0
   26.8224  -22.0861  -16.4280 C   0  0  0  0  0  0  0  0  0  0  0  0
   28.7220  -21.1851  -17.7841 C   0  0  2  0  0  0  0  0  0  0  0  0
   29.1172  -20.3563  -18.8983 N   0  0  0  0  0  0  0  0  0  0  0  0
   29.3818  -22.4966  -17.8845 C   0  0  0  0  0  0  0  0  0  0  0  0
   29.1731  -23.1354  -18.9751 O   0  0  0  0  0  0  0  0  0  0  0  0
   33.9296  -25.3815  -14.4829 N   0  0  0  0  0  0  0  0  0  0  0  0
   33.5872  -26.3123  -15.5025 C   0  0  0  0  0  0  0  0  0  0  0  0
   34.3153  -27.3259  -15.6138 O   0  0  0  0  0  0  0  0  0  0  0  0
   32.4217  -26.1087  -16.4052 C   0  0  0  0  0  0  0  0  0  0  0  0
   31.9452  -24.7027  -16.2816 C   0  0  0  0  0  0  0  0  0  0  0  0
   30.6979  -24.3733  -17.0347 C   0  0  2  0  0  0  0  0  0  0  0  0
   30.2019  -23.0537  -16.8665 N   0  0  0  0  0  0  0  0  0  0  0  0
   29.6394  -25.3806  -16.7141 C   0  0  0  0  0  0  0  0  0  0  0  0
   29.0058  -25.2272  -15.6436 O   0  0  0  0  0  0  0  0  0  0  0  0
   29.3134  -26.4787  -17.5303 N   0  0  0  0  0  0  0  0  0  0  0  0
   28.2382  -27.4034  -17.2717 C   0  0  1  0  0  0  0  0  0  0  0  0
   27.3016  -27.5347  -18.4522 C   0  0  0  0  0  0  0  0  0  0  0  0
   26.0122  -28.7165  -18.0195 S   0  0  0  0  0  0  0  0  0  0  0  0
   28.8408  -28.7413  -17.0464 C   0  0  0  0  0  0  0  0  0  0  0  0
   29.9581  -29.0533  -17.5281 O   0  0  0  0  0  0  0  0  0  0  0  0
   28.1807  -29.7118  -16.2829 O   0  0  0  0  0  0  0  0  0  0  0  0
  2  1  1  1
  2  3  1  0
  4  6  1  0
  4  2  1  0
  4  5  1  6
  6 14  1  0
  6  7  2  0
  9  8  1  0
 10  9  2  0
 11  9  1  0
 12 11  1  0
 13 12  1  1
 14 13  1  0
 15 17  1  0
 15 13  1  0
 16 15  2  0
 18 21  1  0
 18 17  1  0
 18 19  1  6
 20 19  1  0
 21 23  1  0
 22 21  2  0
M  END
$$$$
