VQC.pdb
     RDKit          3D

 23 22  0  0  1  0  0  0  0  0999 V2000
   12.8008  -10.4131   -9.5337 C   0  0  0  0  0  0  0  0  0  0  0  0
   12.5255  -10.2883  -11.0385 C   0  0  2  0  0  0  0  0  0  0  0  0
   11.8422  -11.5788  -11.4383 C   0  0  0  0  0  0  0  0  0  0  0  0
   13.8648  -10.1308  -11.7050 C   0  0  2  0  0  0  0  0  0  0  0  0
   14.7105  -11.2855  -11.5155 N   0  0  0  0  0  0  0  0  0  0  0  0
   14.5882   -8.9156  -11.2981 C   0  0  0  0  0  0  0  0  0  0  0  0
   15.6312   -9.1107  -10.5804 O   0  0  0  0  0  0  0  0  0  0  0  0
   16.4123   -4.1581  -14.5389 N   0  0  0  0  0  0  0  0  0  0  0  0
   16.8426   -5.5129  -14.4869 C   0  0  0  0  0  0  0  0  0  0  0  0
   17.5557   -5.9188  -15.4338 O   0  0  0  0  0  0  0  0  0  0  0  0
   16.4729   -6.4215  -13.3677 C   0  0  0  0  0  0  0  0  0  0  0  0
   15.5700   -5.6999  -12.4279 C   0  0  0  0  0  0  0  0  0  0  0  0
   15.0325   -6.5118  -11.2949 C   0  0  2  0  0  0  0  0  0  0  0  0
   14.1922   -7.5982  -11.6543 N   0  0  0  0  0  0  0  0  0  0  0  0
   14.3444   -5.6122  -10.3176 C   0  0  0  0  0  0  0  0  0  0  0  0
   13.0920   -5.5771  -10.3523 O   0  0  0  0  0  0  0  0  0  0  0  0
   15.0079   -4.8109   -9.3711 N   0  0  0  0  0  0  0  0  0  0  0  0
   14.3693   -3.8177   -8.5441 C   0  0  1  0  0  0  0  0  0  0  0  0
   14.2660   -4.2573   -7.1005 C   0  0  0  0  0  0  0  0  0  0  0  0
   13.5214   -2.9161   -6.1553 S   0  0  0  0  0  0  0  0  0  0  0  0
   15.2192   -2.6008   -8.5662 C   0  0  0  0  0  0  0  0  0  0  0  0
   16.4729   -2.6686   -8.5269 O   0  0  0  0  0  0  0  0  0  0  0  0
   14.6503   -1.3231   -8.6321 O   0  0  0  0  0  0  0  0  0  0  0  0
  2  1  1  1
  2  3  1  0
  4  6  1  0
  4  2  1  0
  4  5  1  1
  6 14  1  0
  6  7  2  0
  9  8  1  0
 10  9  2  0
 11  9  1  0
 12 11  1  0
 13 12  1  6
 14 13  1  0
 15 17  1  0
 15 13  1  0
 16 15  2  0
 18 21  1  0
 18 17  1  0
 18 19  1  1
 20 19  1  0
 21 23  1  0
 22 21  2  0
M  END
$$$$
