VQC.pdb
     RDKit          3D

 23 22  0  0  1  0  0  0  0  0999 V2000
   19.6849  -13.4683  -16.0052 C   0  0  0  0  0  0  0  0  0  0  0  0
   18.1926  -13.6296  -15.6844 C   0  0  2  0  0  0  0  0  0  0  0  0
   17.7383  -14.8521  -16.4535 C   0  0  0  0  0  0  0  0  0  0  0  0
   17.5151  -12.3767  -16.1681 C   0  0  2  0  0  0  0  0  0  0  0  0
   17.5026  -12.2814  -17.6087 N   0  0  0  0  0  0  0  0  0  0  0  0
   18.0762  -11.1427  -15.5955 C   0  0  0  0  0  0  0  0  0  0  0  0
   18.0112  -11.0492  -14.3195 O   0  0  0  0  0  0  0  0  0  0  0  0
   23.4374   -8.5462  -15.9310 N   0  0  0  0  0  0  0  0  0  0  0  0
   22.9389   -9.6184  -15.1404 C   0  0  0  0  0  0  0  0  0  0  0  0
   23.7853  -10.3356  -14.5579 O   0  0  0  0  0  0  0  0  0  0  0  0
   21.4828   -9.8915  -14.9994 C   0  0  0  0  0  0  0  0  0  0  0  0
   20.7159   -8.8724  -15.7692 C   0  0  0  0  0  0  0  0  0  0  0  0
   19.2285   -8.9890  -15.6944 C   0  0  2  0  0  0  0  0  0  0  0  0
   18.6589  -10.1017  -16.3675 N   0  0  0  0  0  0  0  0  0  0  0  0
   18.6028   -7.7126  -16.1604 C   0  0  0  0  0  0  0  0  0  0  0  0
   18.2816   -7.6382  -17.3697 O   0  0  0  0  0  0  0  0  0  0  0  0
   18.3547   -6.6011  -15.3351 N   0  0  0  0  0  0  0  0  0  0  0  0
   17.8875   -5.3197  -15.8019 C   0  0  1  0  0  0  0  0  0  0  0  0
   16.3831   -5.1919  -15.7090 C   0  0  0  0  0  0  0  0  0  0  0  0
   15.9351   -3.4973  -16.1266 S   0  0  0  0  0  0  0  0  0  0  0  0
   18.4659   -4.2800  -14.9141 C   0  0  0  0  0  0  0  0  0  0  0  0
   18.7316   -4.5126  -13.7087 O   0  0  0  0  0  0  0  0  0  0  0  0
   18.7384   -2.9922  -15.3914 O   0  0  0  0  0  0  0  0  0  0  0  0
  2  1  1  6
  2  3  1  0
  4  6  1  0
  4  2  1  0
  4  5  1  6
  6 14  1  0
  6  7  2  0
  9  8  1  0
 10  9  2  0
 11  9  1  0
 12 11  1  0
 13 12  1  6
 14 13  1  0
 15 17  1  0
 15 13  1  0
 16 15  2  0
 18 21  1  0
 18 17  1  0
 18 19  1  1
 20 19  1  0
 21 23  1  0
 22 21  2  0
M  END
$$$$
