VQC.pdb
     RDKit          3D

 23 22  0  0  1  0  0  0  0  0999 V2000
   15.6671  -12.8824  -14.2673 C   0  0  0  0  0  0  0  0  0  0  0  0
   16.3980  -12.7079  -15.6057 C   0  0  2  0  0  0  0  0  0  0  0  0
   17.1500  -14.0021  -15.8333 C   0  0  0  0  0  0  0  0  0  0  0  0
   17.3290  -11.5390  -15.4334 C   0  0  2  0  0  0  0  0  0  0  0  0
   18.3759  -11.8084  -14.4763 N   0  0  0  0  0  0  0  0  0  0  0  0
   16.6446  -10.2857  -15.0784 C   0  0  0  0  0  0  0  0  0  0  0  0
   15.7711   -9.8778  -15.9220 O   0  0  0  0  0  0  0  0  0  0  0  0
   14.9321   -7.7033   -9.5891 N   0  0  0  0  0  0  0  0  0  0  0  0
   16.2972   -7.4868   -9.9251 C   0  0  0  0  0  0  0  0  0  0  0  0
   17.0294   -6.9934   -9.0360 O   0  0  0  0  0  0  0  0  0  0  0  0
   16.8488   -7.8244  -11.2655 C   0  0  0  0  0  0  0  0  0  0  0  0
   15.7328   -8.2200  -12.1695 C   0  0  0  0  0  0  0  0  0  0  0  0
   16.0997   -8.4128  -13.6047 C   0  0  2  0  0  0  0  0  0  0  0  0
   16.9038   -9.5470  -13.8924 N   0  0  0  0  0  0  0  0  0  0  0  0
   16.7378   -7.1657  -14.1295 C   0  0  0  0  0  0  0  0  0  0  0  0
   17.9869   -7.0871  -14.0616 O   0  0  0  0  0  0  0  0  0  0  0  0
   16.0313   -6.0859  -14.6891 N   0  0  0  0  0  0  0  0  0  0  0  0
   16.6411   -4.8924  -15.2199 C   0  0  1  0  0  0  0  0  0  0  0  0
   15.7066   -4.1320  -16.1345 C   0  0  0  0  0  0  0  0  0  0  0  0
   16.6395   -2.8012  -16.9126 S   0  0  0  0  0  0  0  0  0  0  0  0
   16.9492   -3.9984  -14.0756 C   0  0  0  0  0  0  0  0  0  0  0  0
   17.8326   -3.1085  -14.1504 O   0  0  0  0  0  0  0  0  0  0  0  0
   16.2613   -4.1151  -12.8617 O   0  0  0  0  0  0  0  0  0  0  0  0
  2  1  1  1
  2  3  1  0
  4  6  1  0
  4  2  1  0
  4  5  1  1
  6 14  1  0
  6  7  2  0
  9  8  1  0
 10  9  2  0
 11  9  1  0
 12 11  1  0
 13 12  1  1
 14 13  1  0
 15 17  1  0
 15 13  1  0
 16 15  2  0
 18 21  1  0
 18 17  1  0
 18 19  1  6
 20 19  1  0
 21 23  1  0
 22 21  2  0
M  END
$$$$
