VQC.pdb
     RDKit          3D

 23 22  0  0  1  0  0  0  0  0999 V2000
   18.0173  -12.6420  -16.2222 C   0  0  0  0  0  0  0  0  0  0  0  0
   18.4919  -12.6369  -17.6818 C   0  0  2  0  0  0  0  0  0  0  0  0
   17.8871  -13.8729  -18.3133 C   0  0  0  0  0  0  0  0  0  0  0  0
   19.9942  -12.7033  -17.6416 C   0  0  2  0  0  0  0  0  0  0  0  0
   20.4729  -13.9255  -17.0403 N   0  0  0  0  0  0  0  0  0  0  0  0
   20.6192  -11.5479  -16.9786 C   0  0  0  0  0  0  0  0  0  0  0  0
   21.1095  -11.7785  -15.8178 O   0  0  0  0  0  0  0  0  0  0  0  0
   24.0674   -6.9272  -19.1498 N   0  0  0  0  0  0  0  0  0  0  0  0
   23.9734   -6.6186  -17.7645 C   0  0  0  0  0  0  0  0  0  0  0  0
   24.7062   -5.6963  -17.3373 O   0  0  0  0  0  0  0  0  0  0  0  0
   23.0531   -7.3463  -16.8490 C   0  0  0  0  0  0  0  0  0  0  0  0
   22.3125   -8.3833  -17.6206 C   0  0  0  0  0  0  0  0  0  0  0  0
   21.3641   -9.2242  -16.8301 C   0  0  2  0  0  0  0  0  0  0  0  0
   20.6956  -10.2490  -17.5501 N   0  0  0  0  0  0  0  0  0  0  0  0
   20.3798   -8.3428  -16.1286 C   0  0  0  0  0  0  0  0  0  0  0  0
   19.3849   -7.9559  -16.7855 O   0  0  0  0  0  0  0  0  0  0  0  0
   20.4991   -7.9247  -14.7910 N   0  0  0  0  0  0  0  0  0  0  0  0
   19.5581   -7.0703  -14.1107 C   0  0  1  0  0  0  0  0  0  0  0  0
   19.6662   -7.1855  -12.6064 C   0  0  0  0  0  0  0  0  0  0  0  0
   18.9564   -8.7655  -12.1101 S   0  0  0  0  0  0  0  0  0  0  0  0
   19.8902   -5.6667  -14.4623 C   0  0  0  0  0  0  0  0  0  0  0  0
   20.9212   -5.3752  -15.1180 O   0  0  0  0  0  0  0  0  0  0  0  0
   19.0602   -4.6085  -14.0730 O   0  0  0  0  0  0  0  0  0  0  0  0
  2  1  1  1
  2  3  1  0
  4  6  1  0
  4  2  1  0
  4  5  1  1
  6 14  1  0
  6  7  2  0
  9  8  1  0
 10  9  2  0
 11  9  1  0
 12 11  1  0
 13 12  1  6
 14 13  1  0
 15 17  1  0
 15 13  1  0
 16 15  2  0
 18 21  1  0
 18 17  1  0
 18 19  1  1
 20 19  1  0
 21 23  1  0
 22 21  2  0
M  END
$$$$
