VQC.pdb
     RDKit          3D

 23 22  0  0  1  0  0  0  0  0999 V2000
   25.0921   -8.7860  -16.0135 C   0  0  0  0  0  0  0  0  0  0  0  0
   24.3331   -9.8300  -15.1829 C   0  0  2  0  0  0  0  0  0  0  0  0
   25.3329  -10.9299  -14.8952 C   0  0  0  0  0  0  0  0  0  0  0  0
   23.1965  -10.3132  -16.0417 C   0  0  2  0  0  0  0  0  0  0  0  0
   23.6565  -11.0342  -17.2049 N   0  0  0  0  0  0  0  0  0  0  0  0
   22.2726   -9.2452  -16.4551 C   0  0  0  0  0  0  0  0  0  0  0  0
   22.5448   -8.6850  -17.5745 O   0  0  0  0  0  0  0  0  0  0  0  0
   18.3322  -10.8795  -16.4804 N   0  0  0  0  0  0  0  0  0  0  0  0
   18.5410  -10.3362  -17.7783 C   0  0  0  0  0  0  0  0  0  0  0  0
   18.3869  -11.1121  -18.7500 O   0  0  0  0  0  0  0  0  0  0  0  0
   18.9250   -8.9144  -17.9921 C   0  0  0  0  0  0  0  0  0  0  0  0
   18.9643   -8.2140  -16.6779 C   0  0  0  0  0  0  0  0  0  0  0  0
   20.3192   -7.7964  -16.2072 C   0  0  2  0  0  0  0  0  0  0  0  0
   21.1446   -8.8321  -15.6958 N   0  0  0  0  0  0  0  0  0  0  0  0
   20.1829   -6.6887  -15.2111 C   0  0  0  0  0  0  0  0  0  0  0  0
   19.7580   -6.9903  -14.0711 O   0  0  0  0  0  0  0  0  0  0  0  0
   20.4985   -5.3429  -15.4705 N   0  0  0  0  0  0  0  0  0  0  0  0
   20.5425   -4.3028  -14.4732 C   0  0  1  0  0  0  0  0  0  0  0  0
   21.7674   -3.4268  -14.6153 C   0  0  0  0  0  0  0  0  0  0  0  0
   23.2219   -4.4315  -14.2667 S   0  0  0  0  0  0  0  0  0  0  0  0
   19.3597   -3.4302  -14.6818 C   0  0  0  0  0  0  0  0  0  0  0  0
   18.7548   -3.3875  -15.7818 O   0  0  0  0  0  0  0  0  0  0  0  0
   18.8714   -2.6166  -13.6521 O   0  0  0  0  0  0  0  0  0  0  0  0
  2  1  1  6
  2  3  1  0
  4  6  1  0
  4  2  1  0
  4  5  1  6
  6 14  1  0
  6  7  2  0
  9  8  1  0
 10  9  2  0
 11  9  1  0
 12 11  1  0
 13 12  1  1
 14 13  1  0
 15 17  1  0
 15 13  1  0
 16 15  2  0
 18 21  1  0
 18 17  1  0
 18 19  1  6
 20 19  1  0
 21 23  1  0
 22 21  2  0
M  END
$$$$
