VQC.pdb
     RDKit          3D

 23 22  0  0  1  0  0  0  0  0999 V2000
   18.8487  -12.1261  -17.5105 C   0  0  0  0  0  0  0  0  0  0  0  0
   18.6073  -12.3754  -16.0154 C   0  0  2  0  0  0  0  0  0  0  0  0
   18.4163  -13.8707  -15.8751 C   0  0  0  0  0  0  0  0  0  0  0  0
   17.3627  -11.6126  -15.6519 C   0  0  2  0  0  0  0  0  0  0  0  0
   16.2039  -12.0766  -16.3774 N   0  0  0  0  0  0  0  0  0  0  0  0
   17.4950  -10.1557  -15.8105 C   0  0  0  0  0  0  0  0  0  0  0  0
   16.7776   -9.6356  -16.7357 O   0  0  0  0  0  0  0  0  0  0  0  0
   14.6052   -6.0393  -14.6593 N   0  0  0  0  0  0  0  0  0  0  0  0
   14.9161   -6.4835  -15.9744 C   0  0  0  0  0  0  0  0  0  0  0  0
   14.0486   -6.2924  -16.8580 O   0  0  0  0  0  0  0  0  0  0  0  0
   16.2068   -7.1465  -16.3047 C   0  0  0  0  0  0  0  0  0  0  0  0
   17.0337   -7.2528  -15.0701 C   0  0  0  0  0  0  0  0  0  0  0  0
   18.3502   -7.9404  -15.2299 C   0  0  2  0  0  0  0  0  0  0  0  0
   18.3472   -9.3437  -15.0145 N   0  0  0  0  0  0  0  0  0  0  0  0
   19.3706   -7.2746  -14.3619 C   0  0  0  0  0  0  0  0  0  0  0  0
   19.1668   -7.2838  -13.1252 O   0  0  0  0  0  0  0  0  0  0  0  0
   20.5333   -6.6449  -14.8413 N   0  0  0  0  0  0  0  0  0  0  0  0
   21.5695   -6.0891  -14.0074 C   0  0  1  0  0  0  0  0  0  0  0  0
   22.9429   -6.5948  -14.3897 C   0  0  0  0  0  0  0  0  0  0  0  0
   23.0097   -8.3614  -14.0415 S   0  0  0  0  0  0  0  0  0  0  0  0
   21.5753   -4.6196  -14.2175 C   0  0  0  0  0  0  0  0  0  0  0  0
   20.9976   -4.0893  -15.1988 O   0  0  0  0  0  0  0  0  0  0  0  0
   22.2300   -3.7643  -13.3230 O   0  0  0  0  0  0  0  0  0  0  0  0
  2  1  1  6
  2  3  1  0
  4  6  1  0
  4  2  1  0
  4  5  1  6
  6 14  1  0
  6  7  2  0
  9  8  1  0
 10  9  2  0
 11  9  1  0
 12 11  1  0
 13 12  1  1
 14 13  1  0
 15 17  1  0
 15 13  1  0
 16 15  2  0
 18 21  1  0
 18 17  1  0
 18 19  1  6
 20 19  1  0
 21 23  1  0
 22 21  2  0
M  END
$$$$
