RCI.pdb
     RDKit          3D

 26 25  0  0  1  0  0  0  0  0999 V2000
    9.3355  -15.2388   14.5166 N   0  0  0  0  0  0  0  0  0  0  0  0
    8.3708  -14.2220   14.3089 C   0  0  0  0  0  0  0  0  0  0  0  0
    7.8007  -14.0427   13.1548 N   0  0  0  0  0  0  0  0  0  0  0  0
    7.9899  -13.3522   15.3724 N   0  0  0  0  0  0  0  0  0  0  0  0
    8.6344  -13.4556   16.6675 C   0  0  0  0  0  0  0  0  0  0  0  0
    8.0331  -14.6394   17.4088 C   0  0  0  0  0  0  0  0  0  0  0  0
    7.9476  -14.3793   18.8935 C   0  0  0  0  0  0  0  0  0  0  0  0
    8.9698  -15.2865   19.5537 C   0  0  2  0  0  0  0  0  0  0  0  0
    9.3587  -16.3249   18.5923 N   0  0  0  0  0  0  0  0  0  0  0  0
    8.4158  -15.9395   20.7566 C   0  0  0  0  0  0  0  0  0  0  0  0
    7.4857  -16.8002   20.6880 O   0  0  0  0  0  0  0  0  0  0  0  0
    7.0849  -13.2947   13.0318 N   0  0  0  0  0  0  0  0  0  0  0  0
    8.9076  -15.6239   22.0298 C   0  0  1  0  0  0  0  0  0  0  0  0
    8.4539  -16.3230   23.2552 C   0  0  0  0  0  0  0  0  0  0  0  0
    9.0094  -17.7357   23.2306 S   0  0  0  0  0  0  0  0  0  0  0  0
    9.2929  -18.4387   24.8532 C   0  0  0  0  0  0  0  0  0  0  0  0
    9.0034  -15.6210   24.4387 O   0  0  0  0  0  0  0  0  0  0  0  0
   10.2334  -15.2785   24.4727 C   0  0  0  0  0  0  0  0  0  0  0  0
    5.8500  -11.9154   26.0478 C   0  0  0  0  0  0  0  0  0  0  0  0
    7.0069  -12.8045   25.7158 C   0  0  2  0  0  0  0  0  0  0  0  0
    7.6162  -13.4439   26.9420 C   0  0  0  0  0  0  0  0  0  0  0  0
    7.9489  -12.4614   28.0131 C   0  0  2  0  0  0  0  0  0  0  0  0
    8.7577  -14.3736   26.6050 N   0  0  0  0  0  0  0  0  0  0  0  0
    8.2302  -15.2896   25.5760 C   0  0  0  0  0  0  0  0  0  0  0  0
    9.2369  -15.1522   27.7775 O   0  0  0  0  0  0  0  0  0  0  0  0
    8.7870  -16.2950   28.0694 O   0  0  0  0  0  0  0  0  0  0  0  0
  2  3  2  0
  2  1  1  0
  4  2  1  0
  5  4  1  0
  6  5  1  0
  7  6  1  0
  8 10  1  0
  8  7  1  0
  8  9  1  6
 10 11  2  0
 12 13  1  0
 12 10  1  0
 13 16  1  0
 13 14  1  1
 15 14  1  0
 16 23  1  0
 16 17  2  0
 18 19  1  0
 19 20  1  0
 20 21  1  1
 22 20  1  0
 22 24  1  0
 22 23  1  6
 24 25  2  0
 24 26  1  0
M  END
$$$$
