RCI.pdb
     RDKit          3D

 26 25  0  0  1  0  0  0  0  0999 V2000
   10.7220  -21.0162   17.4122 N   0  0  0  0  0  0  0  0  0  0  0  0
   10.9208  -20.3535   16.1756 C   0  0  0  0  0  0  0  0  0  0  0  0
   10.9204  -20.9953   15.0454 N   0  0  0  0  0  0  0  0  0  0  0  0
   11.1302  -18.9439   16.1309 N   0  0  0  0  0  0  0  0  0  0  0  0
   11.7482  -18.2610   17.2512 C   0  0  0  0  0  0  0  0  0  0  0  0
   10.6753  -17.9788   18.2912 C   0  0  0  0  0  0  0  0  0  0  0  0
   11.2211  -17.1776   19.4486 C   0  0  0  0  0  0  0  0  0  0  0  0
   10.6223  -17.7721   20.7102 C   0  0  2  0  0  0  0  0  0  0  0  0
    9.3957  -18.4917   20.3476 N   0  0  0  0  0  0  0  0  0  0  0  0
   10.2824  -16.7238   21.6930 C   0  0  0  0  0  0  0  0  0  0  0  0
   11.1287  -15.8587   22.0750 O   0  0  0  0  0  0  0  0  0  0  0  0
   11.1400  -20.4965   14.1567 N   0  0  0  0  0  0  0  0  0  0  0  0
    8.9957  -16.6513   22.2420 C   0  0  1  0  0  0  0  0  0  0  0  0
    8.6362  -15.6832   23.3050 C   0  0  0  0  0  0  0  0  0  0  0  0
    7.1407  -15.7774   23.5487 S   0  0  0  0  0  0  0  0  0  0  0  0
    6.5219  -14.6115   24.7591 C   0  0  0  0  0  0  0  0  0  0  0  0
    9.3417  -16.0581   24.5529 O   0  0  0  0  0  0  0  0  0  0  0  0
    9.8093  -17.2374   24.7010 C   0  0  0  0  0  0  0  0  0  0  0  0
   10.9788  -13.4963   29.9830 C   0  0  0  0  0  0  0  0  0  0  0  0
   11.0953  -14.6256   29.0081 C   0  0  2  0  0  0  0  0  0  0  0  0
   10.2854  -14.3934   27.7536 C   0  0  0  0  0  0  0  0  0  0  0  0
    8.9226  -13.8529   28.0257 C   0  0  2  0  0  0  0  0  0  0  0  0
   10.2830  -15.5919   26.8345 N   0  0  0  0  0  0  0  0  0  0  0  0
    9.5424  -15.1657   25.6321 C   0  0  0  0  0  0  0  0  0  0  0  0
    9.6276  -16.7828   27.4366 O   0  0  0  0  0  0  0  0  0  0  0  0
    8.3892  -17.0060   27.3352 O   0  0  0  0  0  0  0  0  0  0  0  0
  2  3  2  0
  2  1  1  0
  4  2  1  0
  5  4  1  0
  6  5  1  0
  7  6  1  0
  8 10  1  0
  8  7  1  0
  8  9  1  6
 10 11  2  0
 12 13  1  0
 12 10  1  0
 13 16  1  0
 13 14  1  6
 15 14  1  0
 16 23  1  0
 16 17  2  0
 18 19  1  0
 19 20  1  0
 20 21  1  6
 22 20  1  0
 22 24  1  0
 22 23  1  1
 24 25  2  0
 24 26  1  0
M  END
$$$$
