RCI.pdb
     RDKit          3D

 26 25  0  0  1  0  0  0  0  0999 V2000
    7.4972  -13.0312   14.2535 N   0  0  0  0  0  0  0  0  0  0  0  0
    7.9013  -14.0656   15.1336 C   0  0  0  0  0  0  0  0  0  0  0  0
    7.8320  -15.3190   14.7969 N   0  0  0  0  0  0  0  0  0  0  0  0
    8.4030  -13.7608   16.4329 N   0  0  0  0  0  0  0  0  0  0  0  0
    7.7579  -14.3061   17.6118 C   0  0  0  0  0  0  0  0  0  0  0  0
    7.9597  -15.8133   17.6145 C   0  0  0  0  0  0  0  0  0  0  0  0
    7.3262  -16.4560   18.8249 C   0  0  0  0  0  0  0  0  0  0  0  0
    8.3794  -16.4581   19.9178 C   0  0  2  0  0  0  0  0  0  0  0  0
    8.9769  -17.7969   19.9843 N   0  0  0  0  0  0  0  0  0  0  0  0
    7.7930  -16.1361   21.2341 C   0  0  0  0  0  0  0  0  0  0  0  0
    7.3563  -14.9773   21.5117 O   0  0  0  0  0  0  0  0  0  0  0  0
    8.0966  -16.0625   15.4781 N   0  0  0  0  0  0  0  0  0  0  0  0
    7.6993  -17.1151   22.2317 C   0  0  1  0  0  0  0  0  0  0  0  0
    7.0821  -16.8501   23.5527 C   0  0  0  0  0  0  0  0  0  0  0  0
    6.9581  -18.1694   24.2935 S   0  0  0  0  0  0  0  0  0  0  0  0
    8.4391  -18.6554   25.1753 C   0  0  0  0  0  0  0  0  0  0  0  0
    7.9744  -15.9564   24.3279 O   0  0  0  0  0  0  0  0  0  0  0  0
    9.2277  -15.9254   24.0836 C   0  0  0  0  0  0  0  0  0  0  0  0
    5.9840  -11.7200   27.5880 C   0  0  0  0  0  0  0  0  0  0  0  0
    6.5294  -13.0519   27.1786 C   0  0  2  0  0  0  0  0  0  0  0  0
    7.7518  -12.9313   26.2984 C   0  0  0  0  0  0  0  0  0  0  0  0
    7.4869  -12.2099   25.0206 C   0  0  1  0  0  0  0  0  0  0  0  0
    8.4610  -14.2509   26.1064 N   0  0  0  0  0  0  0  0  0  0  0  0
    7.5166  -15.1014   25.3576 C   0  0  0  0  0  0  0  0  0  0  0  0
    8.8232  -14.9066   27.3907 O   0  0  0  0  0  0  0  0  0  0  0  0
    9.6722  -14.4225   28.1898 O   0  0  0  0  0  0  0  0  0  0  0  0
  2  3  2  0
  2  1  1  0
  4  2  1  0
  5  4  1  0
  6  5  1  0
  7  6  1  0
  8 10  1  0
  8  7  1  0
  8  9  1  1
 10 11  2  0
 12 13  1  0
 12 10  1  0
 13 16  1  0
 13 14  1  6
 15 14  1  0
 16 23  1  0
 16 17  2  0
 18 19  1  0
 19 20  1  0
 20 21  1  1
 22 20  1  0
 22 24  1  0
 22 23  1  6
 24 25  2  0
 24 26  1  0
M  END
$$$$
