RCI.pdb
     RDKit          3D

 26 25  0  0  1  0  0  0  0  0999 V2000
    8.8064  -21.1429   18.1791 N   0  0  0  0  0  0  0  0  0  0  0  0
    8.8027  -22.1529   19.1729 C   0  0  0  0  0  0  0  0  0  0  0  0
    7.8484  -23.0315   19.2546 N   0  0  0  0  0  0  0  0  0  0  0  0
    9.8586  -22.2387   20.1270 N   0  0  0  0  0  0  0  0  0  0  0  0
   10.1506  -21.1158   20.9970 C   0  0  0  0  0  0  0  0  0  0  0  0
   11.0303  -20.1362   20.2361 C   0  0  0  0  0  0  0  0  0  0  0  0
   11.3107  -18.8950   21.0486 C   0  0  0  0  0  0  0  0  0  0  0  0
   10.0890  -18.0039   20.9175 C   0  0  2  0  0  0  0  0  0  0  0  0
   10.2490  -17.1695   19.7209 N   0  0  0  0  0  0  0  0  0  0  0  0
    9.9349  -17.1220   22.0917 C   0  0  0  0  0  0  0  0  0  0  0  0
   10.7792  -16.2160   22.3692 O   0  0  0  0  0  0  0  0  0  0  0  0
    7.8786  -23.7752   19.9846 N   0  0  0  0  0  0  0  0  0  0  0  0
    8.8351  -17.2607   22.9482 C   0  0  2  0  0  0  0  0  0  0  0  0
    8.6335  -16.3937   24.1331 C   0  0  0  0  0  0  0  0  0  0  0  0
    7.1946  -16.5436   24.5934 S   0  0  0  0  0  0  0  0  0  0  0  0
    6.8738  -18.0460   25.5139 C   0  0  0  0  0  0  0  0  0  0  0  0
    9.5271  -16.8545   25.2216 O   0  0  0  0  0  0  0  0  0  0  0  0
   10.1606  -17.9581   25.1132 C   0  0  0  0  0  0  0  0  0  0  0  0
   10.0675  -13.8627   30.0567 C   0  0  0  0  0  0  0  0  0  0  0  0
    9.7530  -14.9753   29.1067 C   0  0  2  0  0  0  0  0  0  0  0  0
   10.9654  -15.4330   28.3293 C   0  0  0  0  0  0  0  0  0  0  0  0
   11.6609  -14.3224   27.6180 C   0  0  1  0  0  0  0  0  0  0  0  0
   10.6725  -16.6217   27.4448 N   0  0  0  0  0  0  0  0  0  0  0  0
    9.7363  -16.1280   26.4173 C   0  0  0  0  0  0  0  0  0  0  0  0
   10.0599  -17.7571   28.1836 O   0  0  0  0  0  0  0  0  0  0  0  0
   10.7004  -18.4547   29.0184 O   0  0  0  0  0  0  0  0  0  0  0  0
  2  3  2  0
  2  1  1  0
  4  2  1  0
  5  4  1  0
  6  5  1  0
  7  6  1  0
  8 10  1  0
  8  7  1  0
  8  9  1  6
 10 11  2  0
 12 13  1  0
 12 10  1  0
 13 16  1  0
 13 14  1  6
 15 14  1  0
 16 23  1  0
 16 17  2  0
 18 19  1  0
 19 20  1  0
 20 21  1  1
 22 20  1  0
 22 24  1  0
 22 23  1  6
 24 25  2  0
 24 26  1  0
M  END
$$$$
