RCI.pdb
     RDKit          3D

 26 25  0  0  1  0  0  0  0  0999 V2000
    6.6360  -20.3028   18.7196 N   0  0  0  0  0  0  0  0  0  0  0  0
    7.8316  -20.9352   18.2972 C   0  0  0  0  0  0  0  0  0  0  0  0
    7.8980  -21.6035   17.1844 N   0  0  0  0  0  0  0  0  0  0  0  0
    9.0147  -20.8577   19.0891 N   0  0  0  0  0  0  0  0  0  0  0  0
    8.9944  -20.1748   20.3683 C   0  0  0  0  0  0  0  0  0  0  0  0
    9.4450  -18.7386   20.1519 C   0  0  0  0  0  0  0  0  0  0  0  0
    9.4729  -17.9643   21.4476 C   0  0  0  0  0  0  0  0  0  0  0  0
    8.9164  -16.5855   21.1426 C   0  0  2  0  0  0  0  0  0  0  0  0
    9.7080  -15.9950   20.0569 N   0  0  0  0  0  0  0  0  0  0  0  0
    8.9941  -15.6986   22.3207 C   0  0  0  0  0  0  0  0  0  0  0  0
   10.0282  -15.0094   22.5780 O   0  0  0  0  0  0  0  0  0  0  0  0
    8.7655  -22.1251   16.9347 N   0  0  0  0  0  0  0  0  0  0  0  0
    7.9120  -15.5895   23.2036 C   0  0  2  0  0  0  0  0  0  0  0  0
    7.9970  -14.8406   24.4796 C   0  0  0  0  0  0  0  0  0  0  0  0
    6.5923  -14.6825   25.0333 S   0  0  0  0  0  0  0  0  0  0  0  0
    6.4985  -13.6811   26.5151 C   0  0  0  0  0  0  0  0  0  0  0  0
    8.7984  -15.6287   25.4452 O   0  0  0  0  0  0  0  0  0  0  0  0
    8.9313  -16.8902   25.2960 C   0  0  0  0  0  0  0  0  0  0  0  0
   10.8075  -12.7028   29.5138 C   0  0  0  0  0  0  0  0  0  0  0  0
   10.8958  -13.5998   28.3194 C   0  0  2  0  0  0  0  0  0  0  0  0
   10.5838  -15.0404   28.6528 C   0  0  0  0  0  0  0  0  0  0  0  0
   11.5672  -15.6525   29.5916 C   0  0  2  0  0  0  0  0  0  0  0  0
   10.3271  -15.8781   27.4225 N   0  0  0  0  0  0  0  0  0  0  0  0
    9.4528  -15.0586   26.5623 C   0  0  0  0  0  0  0  0  0  0  0  0
    9.6640  -17.1726   27.7306 O   0  0  0  0  0  0  0  0  0  0  0  0
    8.4122  -17.2893   27.8452 O   0  0  0  0  0  0  0  0  0  0  0  0
  2  3  2  0
  2  1  1  0
  4  2  1  0
  5  4  1  0
  6  5  1  0
  7  6  1  0
  8 10  1  0
  8  7  1  0
  8  9  1  6
 10 11  2  0
 12 13  1  0
 12 10  1  0
 13 16  1  0
 13 14  1  6
 15 14  1  0
 16 23  1  0
 16 17  2  0
 18 19  1  0
 19 20  1  0
 20 21  1  1
 22 20  1  0
 22 24  1  0
 22 23  1  6
 24 25  2  0
 24 26  1  0
M  END
$$$$
