RCI.pdb
     RDKit          3D

 26 25  0  0  1  0  0  0  0  0999 V2000
    9.3442  -15.1325   18.3900 N   0  0  0  0  0  0  0  0  0  0  0  0
    8.5014  -14.0082   18.2071 C   0  0  0  0  0  0  0  0  0  0  0  0
    8.2310  -13.5385   17.0257 N   0  0  0  0  0  0  0  0  0  0  0  0
    7.9159  -13.3479   19.3268 N   0  0  0  0  0  0  0  0  0  0  0  0
    7.4312  -14.1165   20.4571 C   0  0  0  0  0  0  0  0  0  0  0  0
    6.1019  -14.7472   20.0730 C   0  0  0  0  0  0  0  0  0  0  0  0
    5.5398  -15.5851   21.1961 C   0  0  0  0  0  0  0  0  0  0  0  0
    6.6565  -16.5062   21.6526 C   0  0  2  0  0  0  0  0  0  0  0  0
    6.4727  -17.8127   21.0099 N   0  0  0  0  0  0  0  0  0  0  0  0
    6.6381  -16.6931   23.1172 C   0  0  0  0  0  0  0  0  0  0  0  0
    5.7823  -16.1202   23.8588 O   0  0  0  0  0  0  0  0  0  0  0  0
    7.6152  -12.7040   16.9194 N   0  0  0  0  0  0  0  0  0  0  0  0
    7.5794  -17.5212   23.7422 C   0  0  2  0  0  0  0  0  0  0  0  0
    7.5863  -17.7570   25.2053 C   0  0  0  0  0  0  0  0  0  0  0  0
    7.4841  -19.2523   25.4470 S   0  0  0  0  0  0  0  0  0  0  0  0
    8.8536  -20.1961   24.7827 C   0  0  0  0  0  0  0  0  0  0  0  0
    8.8727  -17.2764   25.7620 O   0  0  0  0  0  0  0  0  0  0  0  0
    9.9106  -17.2057   25.0212 C   0  0  0  0  0  0  0  0  0  0  0  0
    9.1400  -13.5198   29.8340 C   0  0  0  0  0  0  0  0  0  0  0  0
    9.2587  -14.9137   29.3029 C   0  0  2  0  0  0  0  0  0  0  0  0
   10.1250  -14.9906   28.0671 C   0  0  0  0  0  0  0  0  0  0  0  0
    9.6795  -14.0735   26.9791 C   0  0  1  0  0  0  0  0  0  0  0  0
   10.3471  -16.4102   27.6018 N   0  0  0  0  0  0  0  0  0  0  0  0
    9.0365  -16.8735   27.1081 C   0  0  0  0  0  0  0  0  0  0  0  0
   10.8251  -17.3078   28.6865 O   0  0  0  0  0  0  0  0  0  0  0  0
   10.0965  -18.1962   29.2094 O   0  0  0  0  0  0  0  0  0  0  0  0
  2  3  2  0
  2  1  1  0
  4  2  1  0
  5  4  1  0
  6  5  1  0
  7  6  1  0
  8 10  1  0
  8  7  1  0
  8  9  1  6
 10 11  2  0
 12 13  1  0
 12 10  1  0
 13 16  1  0
 13 14  1  6
 15 14  1  0
 16 23  1  0
 16 17  2  0
 18 19  1  0
 19 20  1  0
 20 21  1  1
 22 20  1  0
 22 24  1  0
 22 23  1  6
 24 25  2  0
 24 26  1  0
M  END
$$$$
