WIN.pdb
     RDKit          3D

 31 32  0  0  1  0  0  0  0  0999 V2000
    6.7548  -18.0210   24.0800 N   0  0  0  0  0  0  0  0  0  0  0  0
    7.0435  -16.6930   23.6511 C   0  0  1  0  0  0  0  0  0  0  0  0
    7.8563  -16.0449   24.7556 C   0  0  0  0  0  0  0  0  0  0  0  0
    7.0712  -15.1534   25.6268 C   0  0  0  0  0  0  0  0  0  0  0  0
    5.8800  -15.4262   26.2636 C   0  0  0  0  0  0  0  0  0  0  0  0
    5.4907  -14.3459   26.9833 N   0  0  0  0  0  0  0  0  0  0  0  0
    6.4125  -13.3530   26.8336 C   0  0  0  0  0  0  0  0  0  0  0  0
    6.4865  -12.0792   27.3471 C   0  0  0  0  0  0  0  0  0  0  0  0
    7.5439  -11.2519   27.0403 C   0  0  0  0  0  0  0  0  0  0  0  0
    8.5076  -11.7625   26.2027 C   0  0  0  0  0  0  0  0  0  0  0  0
    8.4522  -13.0223   25.6834 C   0  0  0  0  0  0  0  0  0  0  0  0
    7.3785  -13.8626   25.9967 C   0  0  0  0  0  0  0  0  0  0  0  0
    7.8775  -16.6467   22.3933 C   0  0  0  0  0  0  0  0  0  0  0  0
    8.4482  -17.6713   21.9569 O   0  0  0  0  0  0  0  0  0  0  0  0
    7.6971  -11.5646   19.8383 C   0  0  0  0  0  0  0  0  0  0  0  0
    7.4584  -13.0577   20.1066 C   0  0  0  0  0  0  0  0  0  0  0  0
    8.7453  -13.7801   19.9728 C   0  0  2  0  0  0  0  0  0  0  0  0
    9.2031  -13.7117   18.5323 C   0  0  0  0  0  0  0  0  0  0  0  0
    8.7659  -15.1875   20.5055 C   0  0  2  0  0  0  0  0  0  0  0  0
    8.0284  -15.4320   21.6747 N   0  0  0  0  0  0  0  0  0  0  0  0
   10.1210  -15.7373   20.3760 C   0  0  0  0  0  0  0  0  0  0  0  0
   10.3518  -16.2438   19.2112 O   0  0  0  0  0  0  0  0  0  0  0  0
   13.4228  -13.8088   19.1201 N   0  0  0  0  0  0  0  0  0  0  0  0
   13.5150  -15.2058   19.3847 C   0  0  0  0  0  0  0  0  0  0  0  0
   13.5460  -15.9955   18.3834 O   0  0  0  0  0  0  0  0  0  0  0  0
   13.5743  -15.7715   20.7271 C   0  0  0  0  0  0  0  0  0  0  0  0
   12.3637  -16.6047   21.1265 C   0  0  2  0  0  0  0  0  0  0  0  0
   11.1624  -15.7916   21.3040 N   0  0  0  0  0  0  0  0  0  0  0  0
   12.7352  -17.3483   22.3287 C   0  0  0  0  0  0  0  0  0  0  0  0
   12.0319  -17.2859   23.5100 O   0  0  0  0  0  0  0  0  0  0  0  0
   13.7677  -18.1247   22.3475 O   0  0  0  0  0  0  0  0  0  0  0  0
  2 13  1  0
  2  1  1  1
  2  3  1  0
  4  3  1  0
  4  5  2  0
  6  5  1  0
  7  6  1  0
  8  7  2  0
  9  8  1  0
 10  9  2  0
 10 11  1  0
 11 12  2  0
 12  7  1  0
 12  4  1  0
 13 14  2  0
 16 15  1  0
 17 16  1  0
 17 18  1  6
 19 17  1  0
 19 20  1  1
 20 13  1  0
 21 19  1  0
 22 21  2  0
 24 23  1  0
 24 26  1  0
 25 24  2  0
 27 26  1  1
 27 28  1  0
 28 21  1  0
 29 30  1  0
 29 27  1  0
 31 29  2  0
M  END
$$$$
