WIN.pdb
     RDKit          3D

 31 32  0  0  1  0  0  0  0  0999 V2000
    7.2790  -19.6426   26.7925 N   0  0  0  0  0  0  0  0  0  0  0  0
    7.7744  -18.3143   26.9385 C   0  0  1  0  0  0  0  0  0  0  0  0
    9.2202  -18.4342   27.3810 C   0  0  0  0  0  0  0  0  0  0  0  0
    9.5139  -17.7415   28.6474 C   0  0  0  0  0  0  0  0  0  0  0  0
    9.7473  -18.3021   29.8844 C   0  0  0  0  0  0  0  0  0  0  0  0
    9.9931  -17.3233   30.7888 N   0  0  0  0  0  0  0  0  0  0  0  0
    9.9269  -16.1124   30.1664 C   0  0  0  0  0  0  0  0  0  0  0  0
   10.0976  -14.8283   30.6284 C   0  0  0  0  0  0  0  0  0  0  0  0
    9.9775  -13.7488   29.7816 C   0  0  0  0  0  0  0  0  0  0  0  0
    9.6803  -14.0222   28.4672 C   0  0  0  0  0  0  0  0  0  0  0  0
    9.5072  -15.2880   27.9899 C   0  0  0  0  0  0  0  0  0  0  0  0
    9.6309  -16.3841   28.8504 C   0  0  0  0  0  0  0  0  0  0  0  0
    7.7634  -17.5344   25.6457 C   0  0  0  0  0  0  0  0  0  0  0  0
    7.7703  -18.1169   24.5381 O   0  0  0  0  0  0  0  0  0  0  0  0
    6.8934  -12.1642   26.5788 C   0  0  0  0  0  0  0  0  0  0  0  0
    6.5352  -13.3786   25.7098 C   0  0  0  0  0  0  0  0  0  0  0  0
    7.7195  -13.7567   24.9034 C   0  0  2  0  0  0  0  0  0  0  0  0
    7.7634  -12.8992   23.6576 C   0  0  0  0  0  0  0  0  0  0  0  0
    7.8563  -15.2214   24.5857 C   0  0  2  0  0  0  0  0  0  0  0  0
    7.7415  -16.1153   25.6620 N   0  0  0  0  0  0  0  0  0  0  0  0
    8.9293  -15.4079   23.6011 C   0  0  0  0  0  0  0  0  0  0  0  0
    8.5644  -15.1234   22.3959 O   0  0  0  0  0  0  0  0  0  0  0  0
   11.0312  -15.4547   19.6962 N   0  0  0  0  0  0  0  0  0  0  0  0
   12.0856  -15.2073   20.6221 C   0  0  0  0  0  0  0  0  0  0  0  0
   13.2617  -15.0580   20.1515 O   0  0  0  0  0  0  0  0  0  0  0  0
   11.8898  -15.1178   22.0641 C   0  0  0  0  0  0  0  0  0  0  0  0
   11.1084  -16.2716   22.6785 C   0  0  2  0  0  0  0  0  0  0  0  0
   10.2459  -15.8378   23.7757 N   0  0  0  0  0  0  0  0  0  0  0  0
   12.0848  -17.2815   23.0820 C   0  0  0  0  0  0  0  0  0  0  0  0
   12.8440  -18.0052   22.1909 O   0  0  0  0  0  0  0  0  0  0  0  0
   12.2945  -17.5549   24.3273 O   0  0  0  0  0  0  0  0  0  0  0  0
  2 13  1  0
  2  1  1  6
  2  3  1  0
  4  3  1  0
  4  5  2  0
  6  5  1  0
  7  6  1  0
  8  7  2  0
  9  8  1  0
 10  9  2  0
 10 11  1  0
 11 12  2  0
 12  7  1  0
 12  4  1  0
 13 14  2  0
 16 15  1  0
 17 16  1  0
 17 18  1  6
 19 17  1  0
 19 20  1  1
 20 13  1  0
 21 19  1  0
 22 21  2  0
 24 23  1  0
 24 26  1  0
 25 24  2  0
 27 26  1  1
 27 28  1  0
 28 21  1  0
 29 30  1  0
 29 27  1  0
 31 29  2  0
M  END
$$$$
