WIN.pdb
     RDKit          3D

 31 32  0  0  1  0  0  0  0  0999 V2000
    6.3384  -17.4300   25.8491 N   0  0  0  0  0  0  0  0  0  0  0  0
    6.7534  -16.2629   25.1443 C   0  0  1  0  0  0  0  0  0  0  0  0
    8.1322  -15.9058   25.6657 C   0  0  0  0  0  0  0  0  0  0  0  0
    8.1324  -14.7973   26.6358 C   0  0  0  0  0  0  0  0  0  0  0  0
    8.6635  -14.7853   27.9073 C   0  0  0  0  0  0  0  0  0  0  0  0
    8.4693  -13.5681   28.4704 N   0  0  0  0  0  0  0  0  0  0  0  0
    7.8132  -12.7654   27.5854 C   0  0  0  0  0  0  0  0  0  0  0  0
    7.3873  -11.4601   27.6657 C   0  0  0  0  0  0  0  0  0  0  0  0
    6.7337  -10.8620   26.6113 C   0  0  0  0  0  0  0  0  0  0  0  0
    6.5320  -11.6319   25.4900 C   0  0  0  0  0  0  0  0  0  0  0  0
    6.9465  -12.9275   25.3910 C   0  0  0  0  0  0  0  0  0  0  0  0
    7.6117  -13.5338   26.4619 C   0  0  0  0  0  0  0  0  0  0  0  0
    6.8795  -16.4852   23.6562 C   0  0  0  0  0  0  0  0  0  0  0  0
    6.6751  -17.6113   23.1502 O   0  0  0  0  0  0  0  0  0  0  0  0
    7.4076  -12.7995   18.6248 C   0  0  0  0  0  0  0  0  0  0  0  0
    7.5582  -14.2109   19.2109 C   0  0  0  0  0  0  0  0  0  0  0  0
    7.4478  -14.1312   20.6864 C   0  0  2  0  0  0  0  0  0  0  0  0
    8.4664  -13.1400   21.2054 C   0  0  0  0  0  0  0  0  0  0  0  0
    7.5117  -15.4432   21.4209 C   0  0  2  0  0  0  0  0  0  0  0  0
    7.2315  -15.4124   22.7961 N   0  0  0  0  0  0  0  0  0  0  0  0
    8.6588  -16.2189   20.9331 C   0  0  0  0  0  0  0  0  0  0  0  0
    8.6044  -16.4590   19.6658 O   0  0  0  0  0  0  0  0  0  0  0  0
   13.1442  -18.4611   19.5060 N   0  0  0  0  0  0  0  0  0  0  0  0
   12.7239  -17.1185   19.2800 C   0  0  0  0  0  0  0  0  0  0  0  0
   13.3673  -16.4360   18.4155 O   0  0  0  0  0  0  0  0  0  0  0  0
   11.6083  -16.4927   19.9797 C   0  0  0  0  0  0  0  0  0  0  0  0
   10.8864  -17.3944   20.9722 C   0  0  2  0  0  0  0  0  0  0  0  0
    9.7643  -16.7205   21.6223 N   0  0  0  0  0  0  0  0  0  0  0  0
   11.8902  -17.8780   21.9181 C   0  0  0  0  0  0  0  0  0  0  0  0
   12.7571  -18.9117   21.6459 O   0  0  0  0  0  0  0  0  0  0  0  0
   12.0227  -17.3472   23.0886 O   0  0  0  0  0  0  0  0  0  0  0  0
  2 13  1  0
  2  1  1  1
  2  3  1  0
  4  3  1  0
  4  5  2  0
  6  5  1  0
  7  6  1  0
  8  7  2  0
  9  8  1  0
 10  9  2  0
 10 11  1  0
 11 12  2  0
 12  7  1  0
 12  4  1  0
 13 14  2  0
 16 15  1  0
 17 16  1  0
 17 18  1  1
 19 17  1  0
 19 20  1  1
 20 13  1  0
 21 19  1  0
 22 21  2  0
 24 23  1  0
 24 26  1  0
 25 24  2  0
 27 26  1  6
 27 28  1  0
 28 21  1  0
 29 30  1  0
 29 27  1  0
 31 29  2  0
M  END
$$$$
