FNI.pdb
     RDKit          3D

 28 28  0  0  1  0  0  0  0  0999 V2000
   15.8294  -11.5632  -11.1341 N   0  0  0  0  0  0  0  0  0  0  0  0
   16.1500  -10.2648  -11.6298 C   0  0  1  0  0  0  0  0  0  0  0  0
   15.4092  -10.0638  -12.9278 C   0  0  0  0  0  0  0  0  0  0  0  0
   16.0528  -10.8893  -13.9693 C   0  0  0  0  0  0  0  0  0  0  0  0
   17.2108  -10.4824  -14.5878 C   0  0  0  0  0  0  0  0  0  0  0  0
   17.8306  -11.2304  -15.5622 C   0  0  0  0  0  0  0  0  0  0  0  0
   17.2736  -12.4267  -15.9319 C   0  0  0  0  0  0  0  0  0  0  0  0
   16.1004  -12.8893  -15.3395 C   0  0  0  0  0  0  0  0  0  0  0  0
   15.5102  -12.0922  -14.3546 C   0  0  0  0  0  0  0  0  0  0  0  0
   15.8617   -9.1701  -10.6469 C   0  0  0  0  0  0  0  0  0  0  0  0
   14.8221   -9.2653   -9.9656 O   0  0  0  0  0  0  0  0  0  0  0  0
   16.5511   -4.4704   -8.0641 N   0  0  0  0  0  0  0  0  0  0  0  0
   17.7215   -4.8359   -8.7587 C   0  0  0  0  0  0  0  0  0  0  0  0
   18.7337   -4.0772   -8.6166 O   0  0  0  0  0  0  0  0  0  0  0  0
   17.8621   -6.0202   -9.6285 C   0  0  0  0  0  0  0  0  0  0  0  0
   16.6456   -6.9066   -9.6938 C   0  0  2  0  0  0  0  0  0  0  0  0
   16.6984   -8.0718  -10.4719 N   0  0  0  0  0  0  0  0  0  0  0  0
   15.4425   -6.0988   -9.8045 C   0  0  0  0  0  0  0  0  0  0  0  0
   15.0261   -5.6296  -10.9182 O   0  0  0  0  0  0  0  0  0  0  0  0
   10.5127   -5.1405   -6.2822 C   0  0  0  0  0  0  0  0  0  0  0  0
   11.2127   -4.7615   -7.5538 C   0  0  0  0  0  0  0  0  0  0  0  0
   12.5839   -5.3758   -7.5495 C   0  0  2  0  0  0  0  0  0  0  0  0
   13.3354   -5.1878   -6.2627 C   0  0  0  0  0  0  0  0  0  0  0  0
   13.3945   -5.0576   -8.7799 C   0  0  2  0  0  0  0  0  0  0  0  0
   14.6548   -5.7847   -8.6739 N   0  0  0  0  0  0  0  0  0  0  0  0
   13.5979   -3.6217   -9.0262 C   0  0  0  0  0  0  0  0  0  0  0  0
   12.6052   -2.9144   -9.3334 O   0  0  0  0  0  0  0  0  0  0  0  0
   14.8122   -2.9623   -8.9494 O   0  0  0  0  0  0  0  0  0  0  0  0
  2  1  1  1
  2  3  1  0
  2 10  1  0
  4  9  2  0
  4  3  1  0
  5  4  1  0
  6  7  1  0
  6  5  2  0
  7  8  2  0
  8  9  1  0
 10 11  2  0
 13 12  1  0
 13 14  2  0
 15 13  1  0
 16 15  1  6
 17 10  1  0
 17 16  1  0
 18 19  2  0
 18 16  1  0
 21 22  1  0
 21 20  1  0
 22 24  1  0
 22 23  1  1
 24 26  1  0
 24 25  1  1
 25 18  1  0
 26 28  1  0
 27 26  2  0
M  END
$$$$
