FNI.pdb
     RDKit          3D

 28 28  0  0  1  0  0  0  0  0999 V2000
   20.4509  -20.9546  -11.3605 N   0  0  0  0  0  0  0  0  0  0  0  0
   20.4799  -21.4238  -12.7070 C   0  0  1  0  0  0  0  0  0  0  0  0
   19.1432  -22.0519  -13.0120 C   0  0  0  0  0  0  0  0  0  0  0  0
   18.9597  -23.2201  -12.1277 C   0  0  0  0  0  0  0  0  0  0  0  0
   18.0809  -23.1845  -11.0716 C   0  0  0  0  0  0  0  0  0  0  0  0
   17.8915  -24.2570  -10.2310 C   0  0  0  0  0  0  0  0  0  0  0  0
   18.6057  -25.4055  -10.4531 C   0  0  0  0  0  0  0  0  0  0  0  0
   19.5109  -25.4986  -11.5081 C   0  0  0  0  0  0  0  0  0  0  0  0
   19.6664  -24.3812  -12.3332 C   0  0  0  0  0  0  0  0  0  0  0  0
   20.8336  -20.3550  -13.6970 C   0  0  0  0  0  0  0  0  0  0  0  0
   20.1916  -19.2875  -13.6478 O   0  0  0  0  0  0  0  0  0  0  0  0
   23.2978  -17.8386  -17.7297 N   0  0  0  0  0  0  0  0  0  0  0  0
   24.1809  -18.4921  -16.8473 C   0  0  0  0  0  0  0  0  0  0  0  0
   25.4101  -18.1696  -16.9220 O   0  0  0  0  0  0  0  0  0  0  0  0
   23.7931  -19.5109  -15.8520 C   0  0  0  0  0  0  0  0  0  0  0  0
   22.3090  -19.7329  -15.7174 C   0  0  2  0  0  0  0  0  0  0  0  0
   21.8350  -20.5099  -14.6511 N   0  0  0  0  0  0  0  0  0  0  0  0
   21.7194  -19.9817  -17.0223 C   0  0  0  0  0  0  0  0  0  0  0  0
   21.7418  -21.1306  -17.5822 O   0  0  0  0  0  0  0  0  0  0  0  0
   16.7462  -18.7658  -18.0966 C   0  0  0  0  0  0  0  0  0  0  0  0
   18.0746  -19.4614  -18.1401 C   0  0  0  0  0  0  0  0  0  0  0  0
   19.0301  -18.6238  -18.9421 C   0  0  2  0  0  0  0  0  0  0  0  0
   18.4810  -18.1619  -20.2615 C   0  0  0  0  0  0  0  0  0  0  0  0
   20.4183  -19.2044  -19.0302 C   0  0  2  0  0  0  0  0  0  0  0  0
   21.0786  -18.9558  -17.7533 N   0  0  0  0  0  0  0  0  0  0  0  0
   21.2127  -18.7249  -20.1716 C   0  0  0  0  0  0  0  0  0  0  0  0
   21.7781  -17.6054  -20.0869 O   0  0  0  0  0  0  0  0  0  0  0  0
   21.3983  -19.4100  -21.3596 O   0  0  0  0  0  0  0  0  0  0  0  0
  2  1  1  1
  2  3  1  0
  2 10  1  0
  4  9  2  0
  4  3  1  0
  5  4  1  0
  6  7  1  0
  6  5  2  0
  7  8  2  0
  8  9  1  0
 10 11  2  0
 13 12  1  0
 13 14  2  0
 15 13  1  0
 16 15  1  6
 17 10  1  0
 17 16  1  0
 18 19  2  0
 18 16  1  0
 21 22  1  0
 21 20  1  0
 22 24  1  0
 22 23  1  6
 24 26  1  0
 24 25  1  1
 25 18  1  0
 26 28  1  0
 27 26  2  0
M  END
$$$$
