FNI.pdb
     RDKit          3D

 28 28  0  0  1  0  0  0  0  0999 V2000
   23.8897  -15.5883  -19.4092 N   0  0  0  0  0  0  0  0  0  0  0  0
   23.5234  -14.2108  -19.4595 C   0  0  1  0  0  0  0  0  0  0  0  0
   22.0439  -14.1304  -19.7403 C   0  0  0  0  0  0  0  0  0  0  0  0
   21.7891  -14.6892  -21.0831 C   0  0  0  0  0  0  0  0  0  0  0  0
   21.9031  -13.9137  -22.2121 C   0  0  0  0  0  0  0  0  0  0  0  0
   21.6698  -14.4077  -23.4748 C   0  0  0  0  0  0  0  0  0  0  0  0
   21.3095  -15.7225  -23.6145 C   0  0  0  0  0  0  0  0  0  0  0  0
   21.1782  -16.5555  -22.5055 C   0  0  0  0  0  0  0  0  0  0  0  0
   21.4265  -16.0054  -21.2448 C   0  0  0  0  0  0  0  0  0  0  0  0
   23.8986  -13.4548  -18.2205 C   0  0  0  0  0  0  0  0  0  0  0  0
   24.5899  -14.0481  -17.3695 O   0  0  0  0  0  0  0  0  0  0  0  0
   25.3910   -8.7518  -16.0395 N   0  0  0  0  0  0  0  0  0  0  0  0
   26.1144   -9.5922  -16.9091 C   0  0  0  0  0  0  0  0  0  0  0  0
   27.3619   -9.3651  -17.0210 O   0  0  0  0  0  0  0  0  0  0  0  0
   25.5419  -10.7055  -17.6912 C   0  0  0  0  0  0  0  0  0  0  0  0
   24.1041  -11.0275  -17.3766 C   0  0  2  0  0  0  0  0  0  0  0  0
   23.5093  -12.1383  -17.9914 N   0  0  0  0  0  0  0  0  0  0  0  0
   23.3169   -9.8069  -17.3262 C   0  0  0  0  0  0  0  0  0  0  0  0
   23.2395   -8.9942  -18.3099 O   0  0  0  0  0  0  0  0  0  0  0  0
   17.8114   -8.8350  -16.5571 C   0  0  0  0  0  0  0  0  0  0  0  0
   19.0918   -8.0658  -16.4175 C   0  0  0  0  0  0  0  0  0  0  0  0
   20.2282   -9.0413  -16.2964 C   0  0  2  0  0  0  0  0  0  0  0  0
   19.9981  -10.1273  -15.2850 C   0  0  0  0  0  0  0  0  0  0  0  0
   21.5810   -8.3854  -16.1884 C   0  0  2  0  0  0  0  0  0  0  0  0
   22.5821   -9.4465  -16.1740 N   0  0  0  0  0  0  0  0  0  0  0  0
   21.7275   -7.4650  -15.0503 C   0  0  0  0  0  0  0  0  0  0  0  0
   21.0531   -6.4042  -15.0399 O   0  0  0  0  0  0  0  0  0  0  0  0
   22.5608   -7.6647  -13.9636 O   0  0  0  0  0  0  0  0  0  0  0  0
  2  1  1  1
  2  3  1  0
  2 10  1  0
  4  9  2  0
  4  3  1  0
  5  4  1  0
  6  7  1  0
  6  5  2  0
  7  8  2  0
  8  9  1  0
 10 11  2  0
 13 12  1  0
 13 14  2  0
 15 13  1  0
 16 15  1  6
 17 10  1  0
 17 16  1  0
 18 19  2  0
 18 16  1  0
 21 22  1  0
 21 20  1  0
 22 24  1  0
 22 23  1  1
 24 26  1  0
 24 25  1  1
 25 18  1  0
 26 28  1  0
 27 26  2  0
M  END
$$$$
