FNI.pdb
     RDKit          3D

 28 28  0  0  1  0  0  0  0  0999 V2000
   24.0741  -19.1158  -19.2954 N   0  0  0  0  0  0  0  0  0  0  0  0
   24.7255  -19.0583  -18.0279 C   0  0  1  0  0  0  0  0  0  0  0  0
   24.0891  -17.9516  -17.2250 C   0  0  0  0  0  0  0  0  0  0  0  0
   25.0712  -17.4632  -16.2365 C   0  0  0  0  0  0  0  0  0  0  0  0
   26.0111  -16.5180  -16.5715 C   0  0  0  0  0  0  0  0  0  0  0  0
   26.9388  -16.0466  -15.6714 C   0  0  0  0  0  0  0  0  0  0  0  0
   26.9273  -16.5371  -14.3918 C   0  0  0  0  0  0  0  0  0  0  0  0
   25.9979  -17.4966  -13.9960 C   0  0  0  0  0  0  0  0  0  0  0  0
   25.0767  -17.9424  -14.9480 C   0  0  0  0  0  0  0  0  0  0  0  0
   24.7035  -20.3649  -17.2932 C   0  0  0  0  0  0  0  0  0  0  0  0
   23.6903  -21.0804  -17.4184 O   0  0  0  0  0  0  0  0  0  0  0  0
   29.3852  -22.0649  -17.3541 N   0  0  0  0  0  0  0  0  0  0  0  0
   28.1257  -22.6042  -17.0243 C   0  0  0  0  0  0  0  0  0  0  0  0
   27.5267  -23.2619  -17.9348 O   0  0  0  0  0  0  0  0  0  0  0  0
   27.4554  -22.4670  -15.7163 C   0  0  0  0  0  0  0  0  0  0  0  0
   26.0326  -21.9758  -15.7817 C   0  0  2  0  0  0  0  0  0  0  0  0
   25.7550  -20.7989  -16.4914 N   0  0  0  0  0  0  0  0  0  0  0  0
   25.3904  -22.1270  -14.4867 C   0  0  0  0  0  0  0  0  0  0  0  0
   25.1353  -23.2688  -13.9718 O   0  0  0  0  0  0  0  0  0  0  0  0
   27.1630  -19.9153  -10.3164 C   0  0  0  0  0  0  0  0  0  0  0  0
   26.4727  -20.8153  -11.2983 C   0  0  0  0  0  0  0  0  0  0  0  0
   25.0321  -20.4005  -11.4004 C   0  0  2  0  0  0  0  0  0  0  0  0
   24.3203  -20.3283  -10.0799 C   0  0  0  0  0  0  0  0  0  0  0  0
   24.2633  -21.1378  -12.4669 C   0  0  2  0  0  0  0  0  0  0  0  0
   25.0093  -21.0069  -13.7138 N   0  0  0  0  0  0  0  0  0  0  0  0
   22.8598  -20.7213  -12.6102 C   0  0  0  0  0  0  0  0  0  0  0  0
   22.0030  -21.2040  -11.8274 O   0  0  0  0  0  0  0  0  0  0  0  0
   22.3847  -19.8252  -13.5518 O   0  0  0  0  0  0  0  0  0  0  0  0
  2  1  1  6
  2  3  1  0
  2 10  1  0
  4  9  2  0
  4  3  1  0
  5  4  1  0
  6  7  1  0
  6  5  2  0
  7  8  2  0
  8  9  1  0
 10 11  2  0
 13 12  1  0
 13 14  2  0
 15 13  1  0
 16 15  1  1
 17 10  1  0
 17 16  1  0
 18 19  2  0
 18 16  1  0
 21 22  1  0
 21 20  1  0
 22 24  1  0
 22 23  1  1
 24 26  1  0
 24 25  1  6
 25 18  1  0
 26 28  1  0
 27 26  2  0
M  END
$$$$
