FNI.pdb
     RDKit          3D

 28 28  0  0  1  0  0  0  0  0999 V2000
   27.2190  -20.0856  -17.2861 N   0  0  0  0  0  0  0  0  0  0  0  0
   27.6116  -19.3457  -16.1317 C   0  0  1  0  0  0  0  0  0  0  0  0
   27.1274  -17.9273  -16.2985 C   0  0  0  0  0  0  0  0  0  0  0  0
   27.8936  -17.2941  -17.3904 C   0  0  0  0  0  0  0  0  0  0  0  0
   29.2508  -17.1013  -17.2912 C   0  0  0  0  0  0  0  0  0  0  0  0
   29.9889  -16.5127  -18.2919 C   0  0  0  0  0  0  0  0  0  0  0  0
   29.3485  -16.1018  -19.4318 C   0  0  0  0  0  0  0  0  0  0  0  0
   27.9744  -16.2712  -19.5874 C   0  0  0  0  0  0  0  0  0  0  0  0
   27.2702  -16.8748  -18.5417 C   0  0  0  0  0  0  0  0  0  0  0  0
   27.1291  -19.9534  -14.8489 C   0  0  0  0  0  0  0  0  0  0  0  0
   25.9556  -20.3727  -14.8145 O   0  0  0  0  0  0  0  0  0  0  0  0
   31.4636  -20.8566  -11.7661 N   0  0  0  0  0  0  0  0  0  0  0  0
   30.1442  -21.1937  -12.1288 C   0  0  0  0  0  0  0  0  0  0  0  0
   30.0058  -22.0278  -13.0804 O   0  0  0  0  0  0  0  0  0  0  0  0
   28.9227  -20.6596  -11.4950 C   0  0  0  0  0  0  0  0  0  0  0  0
   27.7336  -20.5390  -12.4122 C   0  0  2  0  0  0  0  0  0  0  0  0
   27.9305  -20.0636  -13.7164 N   0  0  0  0  0  0  0  0  0  0  0  0
   26.5928  -20.0066  -11.6860 C   0  0  0  0  0  0  0  0  0  0  0  0
   26.2721  -18.7696  -11.7151 O   0  0  0  0  0  0  0  0  0  0  0  0
   21.6988  -21.8798  -12.1343 C   0  0  0  0  0  0  0  0  0  0  0  0
   22.9322  -21.8822  -11.2803 C   0  0  0  0  0  0  0  0  0  0  0  0
   23.4104  -20.4666  -11.1221 C   0  0  2  0  0  0  0  0  0  0  0  0
   23.5642  -19.7236  -12.4182 C   0  0  0  0  0  0  0  0  0  0  0  0
   24.5912  -20.3257  -10.1958 C   0  0  2  0  0  0  0  0  0  0  0  0
   25.7627  -20.8368  -10.8991 N   0  0  0  0  0  0  0  0  0  0  0  0
   24.4147  -20.9528   -8.8770 C   0  0  0  0  0  0  0  0  0  0  0  0
   23.5284  -20.5031   -8.1074 O   0  0  0  0  0  0  0  0  0  0  0  0
   25.1538  -22.0184   -8.3939 O   0  0  0  0  0  0  0  0  0  0  0  0
  2  1  1  6
  2  3  1  0
  2 10  1  0
  4  9  2  0
  4  3  1  0
  5  4  1  0
  6  7  1  0
  6  5  2  0
  7  8  2  0
  8  9  1  0
 10 11  2  0
 13 12  1  0
 13 14  2  0
 15 13  1  0
 16 15  1  1
 17 10  1  0
 17 16  1  0
 18 19  2  0
 18 16  1  0
 21 22  1  0
 21 20  1  0
 22 24  1  0
 22 23  1  6
 24 26  1  0
 24 25  1  6
 25 18  1  0
 26 28  1  0
 27 26  2  0
M  END
$$$$
