YHT.pdb
     RDKit          3D

 30 31  0  0  1  0  0  0  0  0999 V2000
   23.9613  -17.7924  -23.0664 O   0  0  0  0  0  0  0  0  0  0  0  0
   23.9823  -16.6932  -22.2401 C   0  0  0  0  0  0  0  0  0  0  0  0
   23.6182  -16.8430  -20.9226 C   0  0  0  0  0  0  0  0  0  0  0  0
   23.6336  -15.7672  -20.0936 C   0  0  0  0  0  0  0  0  0  0  0  0
   24.0115  -14.5306  -20.5659 C   0  0  0  0  0  0  0  0  0  0  0  0
   24.0354  -13.3337  -19.6856 C   0  0  0  0  0  0  0  0  0  0  0  0
   25.4431  -12.8520  -19.4340 C   0  0  2  0  0  0  0  0  0  0  0  0
   26.0793  -13.9320  -18.6576 N   0  0  0  0  0  0  0  0  0  0  0  0
   25.5290  -11.6038  -18.6776 C   0  0  0  0  0  0  0  0  0  0  0  0
   25.3810  -11.6471  -17.4294 O   0  0  0  0  0  0  0  0  0  0  0  0
   24.3762  -14.3693  -21.8765 C   0  0  0  0  0  0  0  0  0  0  0  0
   24.3645  -15.4526  -22.7262 C   0  0  0  0  0  0  0  0  0  0  0  0
   25.7713  -10.3243  -19.2328 N   0  0  0  0  0  0  0  0  0  0  0  0
   25.9865   -9.1228  -18.4504 C   0  0  1  0  0  0  0  0  0  0  0  0
   27.1483   -8.3236  -18.9986 C   0  0  0  0  0  0  0  0  0  0  0  0
   28.4483   -8.9765  -18.7129 C   0  0  0  0  0  0  0  0  0  0  0  0
   28.6784   -9.9987  -17.7943 C   0  0  0  0  0  0  0  0  0  0  0  0
   29.9654  -10.3484  -17.7958 N   0  0  0  0  0  0  0  0  0  0  0  0
   30.5705   -9.5597  -18.7089 C   0  0  0  0  0  0  0  0  0  0  0  0
   29.6545   -8.7377  -19.2567 N   0  0  0  0  0  0  0  0  0  0  0  0
   24.7495   -8.3842  -18.3246 C   0  0  0  0  0  0  0  0  0  0  0  0
   24.2110   -7.9643  -19.4087 O   0  0  0  0  0  0  0  0  0  0  0  0
   21.4941   -9.4782  -16.5975 C   0  0  0  0  0  0  0  0  0  0  0  0
   21.7647   -8.0564  -16.2273 C   0  0  1  0  0  0  0  0  0  0  0  0
   22.2685   -8.0479  -14.9234 O   0  0  0  0  0  0  0  0  0  0  0  0
   22.7589   -7.3819  -17.1495 C   0  0  2  0  0  0  0  0  0  0  0  0
   24.0332   -8.0533  -17.1525 N   0  0  0  0  0  0  0  0  0  0  0  0
   22.8214   -5.9321  -16.9565 C   0  0  0  0  0  0  0  0  0  0  0  0
   23.8799   -5.3019  -16.6994 O   0  0  0  0  0  0  0  0  0  0  0  0
   21.6810   -5.1457  -17.0489 O   0  0  0  0  0  0  0  0  0  0  0  0
  2  1  1  0
  3  2  2  0
  4  3  1  0
  5 11  1  0
  5  4  2  0
  6  5  1  0
  7  9  1  0
  7  6  1  0
  7  8  1  1
  9 10  2  0
 11 12  2  0
 12  2  1  0
 13 14  1  0
 13  9  1  0
 14 15  1  6
 15 16  1  0
 16 17  2  0
 17 18  1  0
 19 18  1  0
 20 16  1  0
 20 19  2  0
 21 14  1  0
 22 21  2  0
 24 23  1  6
 24 26  1  0
 25 24  1  0
 26 28  1  0
 26 27  1  1
 27 21  1  0
 28 30  1  0
 29 28  2  0
M  END
$$$$
