YHT.pdb
     RDKit          3D

 30 31  0  0  1  0  0  0  0  0999 V2000
   28.9849  -19.6365   -4.0078 O   0  0  0  0  0  0  0  0  0  0  0  0
   28.4855  -19.6374   -5.2891 C   0  0  0  0  0  0  0  0  0  0  0  0
   29.1758  -18.9706   -6.2738 C   0  0  0  0  0  0  0  0  0  0  0  0
   28.6959  -18.9621   -7.5444 C   0  0  0  0  0  0  0  0  0  0  0  0
   27.5240  -19.6167   -7.8495 C   0  0  0  0  0  0  0  0  0  0  0  0
   26.9707  -19.6230   -9.2287 C   0  0  0  0  0  0  0  0  0  0  0  0
   27.2241  -20.9363   -9.9273 C   0  0  2  0  0  0  0  0  0  0  0  0
   28.6876  -20.9990  -10.0953 N   0  0  0  0  0  0  0  0  0  0  0  0
   26.5861  -21.0574  -11.2372 C   0  0  0  0  0  0  0  0  0  0  0  0
   27.0951  -20.4462  -12.2115 O   0  0  0  0  0  0  0  0  0  0  0  0
   26.8275  -20.2842   -6.8768 C   0  0  0  0  0  0  0  0  0  0  0  0
   27.3044  -20.2997   -5.5854 C   0  0  0  0  0  0  0  0  0  0  0  0
   25.4249  -21.8177  -11.5159 N   0  0  0  0  0  0  0  0  0  0  0  0
   24.8398  -21.9600  -12.8347 C   0  0  1  0  0  0  0  0  0  0  0  0
   24.7748  -23.4159  -13.2413 C   0  0  0  0  0  0  0  0  0  0  0  0
   24.1736  -23.5849  -14.5859 C   0  0  0  0  0  0  0  0  0  0  0  0
   23.6223  -22.5811  -15.3797 C   0  0  0  0  0  0  0  0  0  0  0  0
   23.1729  -23.0869  -16.5289 N   0  0  0  0  0  0  0  0  0  0  0  0
   23.4292  -24.4114  -16.4850 C   0  0  0  0  0  0  0  0  0  0  0  0
   24.0303  -24.7050  -15.3157 N   0  0  0  0  0  0  0  0  0  0  0  0
   23.5772  -21.2575  -12.8961 C   0  0  0  0  0  0  0  0  0  0  0  0
   22.8958  -21.1921  -11.8131 O   0  0  0  0  0  0  0  0  0  0  0  0
   22.6480  -17.6824  -14.5563 C   0  0  0  0  0  0  0  0  0  0  0  0
   21.6625  -18.7522  -14.8972 C   0  0  1  0  0  0  0  0  0  0  0  0
   21.9514  -19.1958  -16.1911 O   0  0  0  0  0  0  0  0  0  0  0  0
   21.7110  -19.9291  -13.9452 C   0  0  2  0  0  0  0  0  0  0  0  0
   22.9749  -20.6175  -14.0024 N   0  0  0  0  0  0  0  0  0  0  0  0
   20.5304  -20.7893  -14.0430 C   0  0  0  0  0  0  0  0  0  0  0  0
   19.3738  -20.4383  -13.6930 O   0  0  0  0  0  0  0  0  0  0  0  0
   20.6230  -22.0813  -14.5427 O   0  0  0  0  0  0  0  0  0  0  0  0
  2  1  1  0
  3  2  2  0
  4  3  1  0
  5 11  1  0
  5  4  2  0
  6  5  1  0
  7  9  1  0
  7  6  1  0
  7  8  1  6
  9 10  2  0
 11 12  2  0
 12  2  1  0
 13 14  1  0
 13  9  1  0
 14 15  1  1
 15 16  1  0
 16 17  2  0
 17 18  1  0
 19 18  1  0
 20 16  1  0
 20 19  2  0
 21 14  1  0
 22 21  2  0
 24 23  1  1
 24 26  1  0
 25 24  1  0
 26 28  1  0
 26 27  1  6
 27 21  1  0
 28 30  1  0
 29 28  2  0
M  END
$$$$
