YHT.pdb
     RDKit          3D

 30 31  0  0  1  0  0  0  0  0999 V2000
   21.2137  -21.1003  -14.1190 O   0  0  0  0  0  0  0  0  0  0  0  0
   21.4211  -19.8335  -14.6122 C   0  0  0  0  0  0  0  0  0  0  0  0
   22.2918  -19.6616  -15.6625 C   0  0  0  0  0  0  0  0  0  0  0  0
   22.5076  -18.4167  -16.1611 C   0  0  0  0  0  0  0  0  0  0  0  0
   21.8596  -17.3291  -15.6206 C   0  0  0  0  0  0  0  0  0  0  0  0
   22.0768  -15.9542  -16.1409 C   0  0  0  0  0  0  0  0  0  0  0  0
   20.9573  -15.5180  -17.0539 C   0  0  2  0  0  0  0  0  0  0  0  0
   21.0176  -16.4475  -18.1968 N   0  0  0  0  0  0  0  0  0  0  0  0
   21.0775  -14.1463  -17.5453 C   0  0  0  0  0  0  0  0  0  0  0  0
   21.5092  -13.9626  -18.7123 O   0  0  0  0  0  0  0  0  0  0  0  0
   20.9900  -17.4881  -14.5740 C   0  0  0  0  0  0  0  0  0  0  0  0
   20.7633  -18.7452  -14.0604 C   0  0  0  0  0  0  0  0  0  0  0  0
   20.7429  -12.9815  -16.8136 N   0  0  0  0  0  0  0  0  0  0  0  0
   20.7403  -11.6421  -17.3684 C   0  0  1  0  0  0  0  0  0  0  0  0
   19.7634  -11.5370  -18.5189 C   0  0  0  0  0  0  0  0  0  0  0  0
   19.6800  -10.1535  -19.0449 C   0  0  0  0  0  0  0  0  0  0  0  0
   20.5142   -9.5787  -20.0017 C   0  0  0  0  0  0  0  0  0  0  0  0
   20.1537   -8.3169  -20.2398 N   0  0  0  0  0  0  0  0  0  0  0  0
   19.0918   -8.0705  -19.4438 C   0  0  0  0  0  0  0  0  0  0  0  0
   18.8116   -9.1771  -18.7283 N   0  0  0  0  0  0  0  0  0  0  0  0
   20.5434  -10.6694  -16.3165 C   0  0  0  0  0  0  0  0  0  0  0  0
   19.6103  -10.9085  -15.4717 O   0  0  0  0  0  0  0  0  0  0  0  0
   22.4632   -9.7795  -13.4241 C   0  0  0  0  0  0  0  0  0  0  0  0
   22.0851   -8.4586  -14.0107 C   0  0  1  0  0  0  0  0  0  0  0  0
   23.2153   -7.9419  -14.6511 O   0  0  0  0  0  0  0  0  0  0  0  0
   20.9489   -8.5552  -15.0074 C   0  0  2  0  0  0  0  0  0  0  0  0
   21.2487   -9.4681  -16.0804 N   0  0  0  0  0  0  0  0  0  0  0  0
   20.4479   -7.2455  -15.4280 C   0  0  0  0  0  0  0  0  0  0  0  0
   20.4978   -6.8205  -16.6115 O   0  0  0  0  0  0  0  0  0  0  0  0
   19.8716   -6.3708  -14.5168 O   0  0  0  0  0  0  0  0  0  0  0  0
  2  1  1  0
  3  2  2  0
  4  3  1  0
  5 11  1  0
  5  4  2  0
  6  5  1  0
  7  9  1  0
  7  6  1  0
  7  8  1  6
  9 10  2  0
 11 12  2  0
 12  2  1  0
 13 14  1  0
 13  9  1  0
 14 15  1  6
 15 16  1  0
 16 17  2  0
 17 18  1  0
 19 18  1  0
 20 16  1  0
 20 19  2  0
 21 14  1  0
 22 21  2  0
 24 23  1  6
 24 26  1  0
 25 24  1  0
 26 28  1  0
 26 27  1  6
 27 21  1  0
 28 30  1  0
 29 28  2  0
M  END
$$$$
