YHT.pdb
     RDKit          3D

 30 31  0  0  1  0  0  0  0  0999 V2000
   14.4684  -13.8005  -20.5798 O   0  0  0  0  0  0  0  0  0  0  0  0
   15.2880  -12.9103  -19.9263 C   0  0  0  0  0  0  0  0  0  0  0  0
   15.2940  -12.8959  -18.5513 C   0  0  0  0  0  0  0  0  0  0  0  0
   16.0978  -12.0227  -17.8909 C   0  0  0  0  0  0  0  0  0  0  0  0
   16.9044  -11.1541  -18.5908 C   0  0  0  0  0  0  0  0  0  0  0  0
   17.7921  -10.1845  -17.8979 C   0  0  0  0  0  0  0  0  0  0  0  0
   19.2299  -10.6425  -17.8986 C   0  0  2  0  0  0  0  0  0  0  0  0
   19.2755  -11.7464  -16.9223 N   0  0  0  0  0  0  0  0  0  0  0  0
   20.1922   -9.6147  -17.5047 C   0  0  0  0  0  0  0  0  0  0  0  0
   20.2681   -9.2977  -16.2900 O   0  0  0  0  0  0  0  0  0  0  0  0
   16.9068  -11.1592  -19.9607 C   0  0  0  0  0  0  0  0  0  0  0  0
   16.0962  -12.0400  -20.6410 C   0  0  0  0  0  0  0  0  0  0  0  0
   21.0667   -8.9312  -18.3834 N   0  0  0  0  0  0  0  0  0  0  0  0
   21.9815   -7.8840  -17.9729 C   0  0  1  0  0  0  0  0  0  0  0  0
   23.3102   -8.0199  -18.6837 C   0  0  0  0  0  0  0  0  0  0  0  0
   24.2602   -6.9551  -18.2817 C   0  0  0  0  0  0  0  0  0  0  0  0
   25.2039   -7.0288  -17.2591 C   0  0  0  0  0  0  0  0  0  0  0  0
   25.8906   -5.8888  -17.1728 N   0  0  0  0  0  0  0  0  0  0  0  0
   25.3983   -5.0772  -18.1324 C   0  0  0  0  0  0  0  0  0  0  0  0
   24.4192   -5.7228  -18.7955 N   0  0  0  0  0  0  0  0  0  0  0  0
   21.3501   -6.5904  -18.1123 C   0  0  0  0  0  0  0  0  0  0  0  0
   20.8709   -6.2992  -19.2643 O   0  0  0  0  0  0  0  0  0  0  0  0
   18.2431   -5.1734  -17.1272 C   0  0  0  0  0  0  0  0  0  0  0  0
   19.2424   -4.1447  -16.7089 C   0  0  1  0  0  0  0  0  0  0  0  0
   19.4252   -4.2700  -15.3286 O   0  0  0  0  0  0  0  0  0  0  0  0
   20.5791   -4.2987  -17.4040 C   0  0  2  0  0  0  0  0  0  0  0  0
   21.1805   -5.5804  -17.1390 N   0  0  0  0  0  0  0  0  0  0  0  0
   21.4601   -3.1465  -17.2052 C   0  0  0  0  0  0  0  0  0  0  0  0
   21.1675   -1.9707  -17.5452 O   0  0  0  0  0  0  0  0  0  0  0  0
   22.7072   -3.2902  -16.6122 O   0  0  0  0  0  0  0  0  0  0  0  0
  2  1  1  0
  3  2  2  0
  4  3  1  0
  5 11  1  0
  5  4  2  0
  6  5  1  0
  7  9  1  0
  7  6  1  0
  7  8  1  1
  9 10  2  0
 11 12  2  0
 12  2  1  0
 13 14  1  0
 13  9  1  0
 14 15  1  6
 15 16  1  0
 16 17  2  0
 17 18  1  0
 19 18  1  0
 20 16  1  0
 20 19  2  0
 21 14  1  0
 22 21  2  0
 24 23  1  6
 24 26  1  0
 25 24  1  0
 26 28  1  0
 26 27  1  1
 27 21  1  0
 28 30  1  0
 29 28  2  0
M  END
$$$$
