YHT.pdb
     RDKit          3D

 30 31  0  0  1  0  0  0  0  0999 V2000
   27.2384   -1.0985  -17.4887 O   0  0  0  0  0  0  0  0  0  0  0  0
   26.2688   -1.9606  -17.0329 C   0  0  0  0  0  0  0  0  0  0  0  0
   24.9918   -1.8507  -17.5310 C   0  0  0  0  0  0  0  0  0  0  0  0
   24.0228   -2.6946  -17.0912 C   0  0  0  0  0  0  0  0  0  0  0  0
   24.3132   -3.6572  -16.1510 C   0  0  0  0  0  0  0  0  0  0  0  0
   23.2749   -4.5931  -15.6468 C   0  0  0  0  0  0  0  0  0  0  0  0
   23.6059   -6.0276  -15.9779 C   0  0  2  0  0  0  0  0  0  0  0  0
   24.2894   -5.9664  -17.2829 N   0  0  0  0  0  0  0  0  0  0  0  0
   22.4430   -6.9069  -16.0872 C   0  0  0  0  0  0  0  0  0  0  0  0
   21.9466   -7.1068  -17.2254 O   0  0  0  0  0  0  0  0  0  0  0  0
   25.5817   -3.7762  -15.6475 C   0  0  0  0  0  0  0  0  0  0  0  0
   26.5721   -2.9263  -16.0859 C   0  0  0  0  0  0  0  0  0  0  0  0
   21.8127   -7.5699  -15.0068 N   0  0  0  0  0  0  0  0  0  0  0  0
   20.6805   -8.4645  -15.1472 C   0  0  1  0  0  0  0  0  0  0  0  0
   20.8866   -9.7260  -14.3378 C   0  0  0  0  0  0  0  0  0  0  0  0
   21.8353  -10.6542  -14.9983 C   0  0  0  0  0  0  0  0  0  0  0  0
   22.5155  -10.4322  -16.1939 C   0  0  0  0  0  0  0  0  0  0  0  0
   23.2871  -11.4776  -16.4946 N   0  0  0  0  0  0  0  0  0  0  0  0
   23.1114  -12.3752  -15.5020 C   0  0  0  0  0  0  0  0  0  0  0  0
   22.2383  -11.8754  -14.6059 N   0  0  0  0  0  0  0  0  0  0  0  0
   19.4512   -7.7575  -14.8636 C   0  0  0  0  0  0  0  0  0  0  0  0
   19.2737   -7.3617  -13.6580 O   0  0  0  0  0  0  0  0  0  0  0  0
   17.8780   -4.6399  -16.6970 C   0  0  0  0  0  0  0  0  0  0  0  0
   16.8336   -5.6758  -16.4364 C   0  0  1  0  0  0  0  0  0  0  0  0
   16.6095   -6.3603  -17.6346 O   0  0  0  0  0  0  0  0  0  0  0  0
   17.2356   -6.6674  -15.3645 C   0  0  2  0  0  0  0  0  0  0  0  0
   18.3956   -7.4319  -15.7446 N   0  0  0  0  0  0  0  0  0  0  0  0
   16.1073   -7.4567  -14.8673 C   0  0  0  0  0  0  0  0  0  0  0  0
   16.0286   -8.7090  -14.9632 O   0  0  0  0  0  0  0  0  0  0  0  0
   15.0263   -6.8494  -14.2426 O   0  0  0  0  0  0  0  0  0  0  0  0
  2  1  1  0
  3  2  2  0
  4  3  1  0
  5 11  1  0
  5  4  2  0
  6  5  1  0
  7  9  1  0
  7  6  1  0
  7  8  1  6
  9 10  2  0
 11 12  2  0
 12  2  1  0
 13 14  1  0
 13  9  1  0
 14 15  1  1
 15 16  1  0
 16 17  2  0
 17 18  1  0
 19 18  1  0
 20 16  1  0
 20 19  2  0
 21 14  1  0
 22 21  2  0
 24 23  1  6
 24 26  1  0
 25 24  1  0
 26 28  1  0
 26 27  1  6
 27 21  1  0
 28 30  1  0
 29 28  2  0
M  END
$$$$
