YHT.pdb
     RDKit          3D

 30 31  0  0  1  0  0  0  0  0999 V2000
   17.4051  -18.1225  -19.2217 O   0  0  0  0  0  0  0  0  0  0  0  0
   17.7719  -16.8201  -18.9759 C   0  0  0  0  0  0  0  0  0  0  0  0
   18.8167  -16.2768  -19.6858 C   0  0  0  0  0  0  0  0  0  0  0  0
   19.1913  -14.9918  -19.4549 C   0  0  0  0  0  0  0  0  0  0  0  0
   18.5308  -14.2331  -18.5152 C   0  0  0  0  0  0  0  0  0  0  0  0
   18.9186  -12.8259  -18.2366 C   0  0  0  0  0  0  0  0  0  0  0  0
   20.0293  -12.7425  -17.2186 C   0  0  2  0  0  0  0  0  0  0  0  0
   19.4066  -13.1486  -15.9454 N   0  0  0  0  0  0  0  0  0  0  0  0
   20.6093  -11.4093  -17.0643 C   0  0  0  0  0  0  0  0  0  0  0  0
   19.9706  -10.5496  -16.4049 O   0  0  0  0  0  0  0  0  0  0  0  0
   17.4885  -14.7636  -17.8018 C   0  0  0  0  0  0  0  0  0  0  0  0
   17.0999  -16.0650  -18.0274 C   0  0  0  0  0  0  0  0  0  0  0  0
   21.8515  -10.9894  -17.5980 N   0  0  0  0  0  0  0  0  0  0  0  0
   22.3691   -9.6391  -17.4950 C   0  0  1  0  0  0  0  0  0  0  0  0
   23.8683   -9.6196  -17.6975 C   0  0  0  0  0  0  0  0  0  0  0  0
   24.4174   -8.2454  -17.6090 C   0  0  0  0  0  0  0  0  0  0  0  0
   23.7243   -7.0989  -17.2259 C   0  0  0  0  0  0  0  0  0  0  0  0
   24.5267   -6.0340  -17.2584 N   0  0  0  0  0  0  0  0  0  0  0  0
   25.7346   -6.4829  -17.6600 C   0  0  0  0  0  0  0  0  0  0  0  0
   25.6632   -7.8119  -17.8691 N   0  0  0  0  0  0  0  0  0  0  0  0
   21.6289   -8.7557  -18.3686 C   0  0  0  0  0  0  0  0  0  0  0  0
   21.5148   -9.1122  -19.5939 O   0  0  0  0  0  0  0  0  0  0  0  0
   18.1123   -7.9215  -18.6954 C   0  0  0  0  0  0  0  0  0  0  0  0
   18.8188   -6.6053  -18.6880 C   0  0  1  0  0  0  0  0  0  0  0  0
   18.6756   -6.0563  -17.4103 O   0  0  0  0  0  0  0  0  0  0  0  0
   20.2925   -6.7208  -19.0177 C   0  0  2  0  0  0  0  0  0  0  0  0
   20.9982   -7.5301  -18.0578 N   0  0  0  0  0  0  0  0  0  0  0  0
   20.9122   -5.4283  -19.3153 C   0  0  0  0  0  0  0  0  0  0  0  0
   21.8713   -4.9413  -18.6622 O   0  0  0  0  0  0  0  0  0  0  0  0
   20.4628   -4.6420  -20.3676 O   0  0  0  0  0  0  0  0  0  0  0  0
  2  1  1  0
  3  2  2  0
  4  3  1  0
  5 11  1  0
  5  4  2  0
  6  5  1  0
  7  9  1  0
  7  6  1  0
  7  8  1  1
  9 10  2  0
 11 12  2  0
 12  2  1  0
 13 14  1  0
 13  9  1  0
 14 15  1  6
 15 16  1  0
 16 17  2  0
 17 18  1  0
 19 18  1  0
 20 16  1  0
 20 19  2  0
 21 14  1  0
 22 21  2  0
 24 23  1  1
 24 26  1  0
 25 24  1  0
 26 28  1  0
 26 27  1  1
 27 21  1  0
 28 30  1  0
 29 28  2  0
M  END
$$$$
