YHT.pdb
     RDKit          3D

 30 31  0  0  1  0  0  0  0  0999 V2000
   25.1393  -13.7343  -22.2187 O   0  0  0  0  0  0  0  0  0  0  0  0
   24.5797  -14.6719  -21.3827 C   0  0  0  0  0  0  0  0  0  0  0  0
   23.8707  -15.7149  -21.9308 C   0  0  0  0  0  0  0  0  0  0  0  0
   23.3120  -16.6492  -21.1187 C   0  0  0  0  0  0  0  0  0  0  0  0
   23.4523  -16.5565  -19.7524 C   0  0  0  0  0  0  0  0  0  0  0  0
   22.8501  -17.5602  -18.8369 C   0  0  0  0  0  0  0  0  0  0  0  0
   23.8944  -18.4729  -18.2422 C   0  0  2  0  0  0  0  0  0  0  0  0
   24.4433  -19.2178  -19.3901 N   0  0  0  0  0  0  0  0  0  0  0  0
   23.3777  -19.4225  -17.2578 C   0  0  0  0  0  0  0  0  0  0  0  0
   22.7950  -20.4577  -17.6710 O   0  0  0  0  0  0  0  0  0  0  0  0
   24.1563  -15.5220  -19.1949 C   0  0  0  0  0  0  0  0  0  0  0  0
   24.7272  -14.5689  -20.0083 C   0  0  0  0  0  0  0  0  0  0  0  0
   23.4777  -19.2819  -15.8528 N   0  0  0  0  0  0  0  0  0  0  0  0
   23.0504  -20.2874  -14.8997 C   0  0  1  0  0  0  0  0  0  0  0  0
   24.1852  -20.6704  -13.9752 C   0  0  0  0  0  0  0  0  0  0  0  0
   25.3381  -21.2285  -14.7217 C   0  0  0  0  0  0  0  0  0  0  0  0
   25.6233  -22.5782  -14.9184 C   0  0  0  0  0  0  0  0  0  0  0  0
   26.7381  -22.7211  -15.6364 N   0  0  0  0  0  0  0  0  0  0  0  0
   27.1768  -21.4735  -15.9061 C   0  0  0  0  0  0  0  0  0  0  0  0
   26.3321  -20.5808  -15.3542 N   0  0  0  0  0  0  0  0  0  0  0  0
   21.8436  -19.8555  -14.2300 C   0  0  0  0  0  0  0  0  0  0  0  0
   21.9261  -18.8008  -13.5073 O   0  0  0  0  0  0  0  0  0  0  0  0
   18.7200  -18.6492  -15.7078 C   0  0  0  0  0  0  0  0  0  0  0  0
   18.2938  -19.5773  -14.6174 C   0  0  1  0  0  0  0  0  0  0  0  0
   17.8829  -20.7719  -15.2161 O   0  0  0  0  0  0  0  0  0  0  0  0
   19.3981  -19.8725  -13.6239 C   0  0  2  0  0  0  0  0  0  0  0  0
   20.5582  -20.4415  -14.2602 N   0  0  0  0  0  0  0  0  0  0  0  0
   18.9223  -20.5929  -12.4415 C   0  0  0  0  0  0  0  0  0  0  0  0
   18.0452  -20.1511  -11.6547 O   0  0  0  0  0  0  0  0  0  0  0  0
   19.4277  -21.8430  -12.1110 O   0  0  0  0  0  0  0  0  0  0  0  0
  2  1  1  0
  3  2  2  0
  4  3  1  0
  5 11  1  0
  5  4  2  0
  6  5  1  0
  7  9  1  0
  7  6  1  0
  7  8  1  6
  9 10  2  0
 11 12  2  0
 12  2  1  0
 13 14  1  0
 13  9  1  0
 14 15  1  1
 15 16  1  0
 16 17  2  0
 17 18  1  0
 19 18  1  0
 20 16  1  0
 20 19  2  0
 21 14  1  0
 22 21  2  0
 24 23  1  6
 24 26  1  0
 25 24  1  0
 26 28  1  0
 26 27  1  6
 27 21  1  0
 28 30  1  0
 29 28  2  0
M  END
$$$$
