YHT.pdb
     RDKit          3D

 30 31  0  0  1  0  0  0  0  0999 V2000
    9.3019  -14.9178  -16.8791 O   0  0  0  0  0  0  0  0  0  0  0  0
   10.2288  -14.1770  -16.1838 C   0  0  0  0  0  0  0  0  0  0  0  0
   11.1622  -13.4503  -16.8847 C   0  0  0  0  0  0  0  0  0  0  0  0
   12.0845  -12.7134  -16.2128 C   0  0  0  0  0  0  0  0  0  0  0  0
   12.0883  -12.6914  -14.8364 C   0  0  0  0  0  0  0  0  0  0  0  0
   13.0859  -11.8984  -14.0721 C   0  0  0  0  0  0  0  0  0  0  0  0
   14.4882  -12.4173  -14.2760 C   0  0  2  0  0  0  0  0  0  0  0  0
   14.5469  -13.6657  -13.4938 N   0  0  0  0  0  0  0  0  0  0  0  0
   15.5405  -11.5132  -13.8147 C   0  0  0  0  0  0  0  0  0  0  0  0
   15.8258  -11.4996  -12.5899 O   0  0  0  0  0  0  0  0  0  0  0  0
   11.1633  -13.4114  -14.1275 C   0  0  0  0  0  0  0  0  0  0  0  0
   10.2236  -14.1620  -14.7978 C   0  0  0  0  0  0  0  0  0  0  0  0
   16.2853  -10.6350  -14.6382 N   0  0  0  0  0  0  0  0  0  0  0  0
   17.3632   -9.7892  -14.1641 C   0  0  1  0  0  0  0  0  0  0  0  0
   18.3651   -9.5241  -15.2663 C   0  0  0  0  0  0  0  0  0  0  0  0
   19.1653  -10.7311  -15.5839 C   0  0  0  0  0  0  0  0  0  0  0  0
   19.1209  -11.9541  -14.9177 C   0  0  0  0  0  0  0  0  0  0  0  0
   19.9740  -12.8186  -15.4688 N   0  0  0  0  0  0  0  0  0  0  0  0
   20.5707  -12.1639  -16.4872 C   0  0  0  0  0  0  0  0  0  0  0  0
   20.0811  -10.9104  -16.5518 N   0  0  0  0  0  0  0  0  0  0  0  0
   16.8241   -8.6023  -13.5379 C   0  0  0  0  0  0  0  0  0  0  0  0
   15.8970   -7.9829  -14.1689 O   0  0  0  0  0  0  0  0  0  0  0  0
   15.6102   -7.9061   -9.7512 C   0  0  0  0  0  0  0  0  0  0  0  0
   16.4992   -6.8246  -10.2727 C   0  0  1  0  0  0  0  0  0  0  0  0
   17.7742   -7.0315   -9.7382 O   0  0  0  0  0  0  0  0  0  0  0  0
   16.5899   -6.8083  -11.7844 C   0  0  2  0  0  0  0  0  0  0  0  0
   17.1796   -8.0159  -12.3025 N   0  0  0  0  0  0  0  0  0  0  0  0
   17.1598   -5.5652  -12.3070 C   0  0  0  0  0  0  0  0  0  0  0  0
   18.1550   -5.5165  -13.0756 O   0  0  0  0  0  0  0  0  0  0  0  0
   16.6178   -4.3312  -11.9738 O   0  0  0  0  0  0  0  0  0  0  0  0
  2  1  1  0
  3  2  2  0
  4  3  1  0
  5 11  1  0
  5  4  2  0
  6  5  1  0
  7  9  1  0
  7  6  1  0
  7  8  1  1
  9 10  2  0
 11 12  2  0
 12  2  1  0
 13 14  1  0
 13  9  1  0
 14 15  1  6
 15 16  1  0
 16 17  2  0
 17 18  1  0
 19 18  1  0
 20 16  1  0
 20 19  2  0
 21 14  1  0
 22 21  2  0
 24 23  1  6
 24 26  1  0
 25 24  1  0
 26 28  1  0
 26 27  1  1
 27 21  1  0
 28 30  1  0
 29 28  2  0
M  END
$$$$
