YHT.pdb
     RDKit          3D

 30 31  0  0  1  0  0  0  0  0999 V2000
   10.8294  -19.5820    1.9886 O   0  0  0  0  0  0  0  0  0  0  0  0
   11.9429  -19.1540    2.6729 C   0  0  0  0  0  0  0  0  0  0  0  0
   12.2432  -17.8122    2.6842 C   0  0  0  0  0  0  0  0  0  0  0  0
   13.3394  -17.3734    3.3555 C   0  0  0  0  0  0  0  0  0  0  0  0
   14.1491  -18.2646    4.0228 C   0  0  0  0  0  0  0  0  0  0  0  0
   15.3572  -17.8169    4.7632 C   0  0  0  0  0  0  0  0  0  0  0  0
   16.3158  -17.0684    3.8698 C   0  0  2  0  0  0  0  0  0  0  0  0
   16.9197  -18.1041    3.0116 N   0  0  0  0  0  0  0  0  0  0  0  0
   17.3768  -16.3580    4.5819 C   0  0  0  0  0  0  0  0  0  0  0  0
   18.4643  -16.9548    4.7891 O   0  0  0  0  0  0  0  0  0  0  0  0
   13.8600  -19.6036    4.0185 C   0  0  0  0  0  0  0  0  0  0  0  0
   12.7513  -20.0600    3.3415 C   0  0  0  0  0  0  0  0  0  0  0  0
   17.2913  -15.0310    5.0676 N   0  0  0  0  0  0  0  0  0  0  0  0
   18.3509  -14.3577    5.7928 C   0  0  1  0  0  0  0  0  0  0  0  0
   18.2982  -12.8637    5.5603 C   0  0  0  0  0  0  0  0  0  0  0  0
   19.4258  -12.1642    6.2216 C   0  0  0  0  0  0  0  0  0  0  0  0
   20.6634  -11.8664    5.6548 C   0  0  0  0  0  0  0  0  0  0  0  0
   21.4398  -11.2308    6.5334 N   0  0  0  0  0  0  0  0  0  0  0  0
   20.7137  -11.1149    7.6652 C   0  0  0  0  0  0  0  0  0  0  0  0
   19.5048  -11.6773    7.4723 N   0  0  0  0  0  0  0  0  0  0  0  0
   18.3308  -14.7550    7.1832 C   0  0  0  0  0  0  0  0  0  0  0  0
   17.1946  -14.7403    7.7751 O   0  0  0  0  0  0  0  0  0  0  0  0
   19.2429  -18.0026    8.8776 C   0  0  0  0  0  0  0  0  0  0  0  0
   19.8790  -16.9029    9.6638 C   0  0  1  0  0  0  0  0  0  0  0  0
   21.2365  -16.8762    9.3308 O   0  0  0  0  0  0  0  0  0  0  0  0
   19.2710  -15.5445    9.3834 C   0  0  2  0  0  0  0  0  0  0  0  0
   19.4074  -15.1675    8.0000 N   0  0  0  0  0  0  0  0  0  0  0  0
   19.6860  -14.5249   10.3486 C   0  0  0  0  0  0  0  0  0  0  0  0
   20.2671  -13.4539   10.0340 O   0  0  0  0  0  0  0  0  0  0  0  0
   19.4550  -14.6870   11.7080 O   0  0  0  0  0  0  0  0  0  0  0  0
  2  1  1  0
  3  2  2  0
  4  3  1  0
  5 11  1  0
  5  4  2  0
  6  5  1  0
  7  9  1  0
  7  6  1  0
  7  8  1  6
  9 10  2  0
 11 12  2  0
 12  2  1  0
 13 14  1  0
 13  9  1  0
 14 15  1  1
 15 16  1  0
 16 17  2  0
 17 18  1  0
 19 18  1  0
 20 16  1  0
 20 19  2  0
 21 14  1  0
 22 21  2  0
 24 23  1  6
 24 26  1  0
 25 24  1  0
 26 28  1  0
 26 27  1  6
 27 21  1  0
 28 30  1  0
 29 28  2  0
M  END
$$$$
