YHT.pdb
     RDKit          3D

 30 31  0  0  1  0  0  0  0  0999 V2000
   20.9730  -19.4949  -14.2271 O   0  0  0  0  0  0  0  0  0  0  0  0
   20.9940  -18.2404  -14.7902 C   0  0  0  0  0  0  0  0  0  0  0  0
   20.5158  -17.1757  -14.0633 C   0  0  0  0  0  0  0  0  0  0  0  0
   20.5296  -15.9303  -14.6052 C   0  0  0  0  0  0  0  0  0  0  0  0
   21.0192  -15.7303  -15.8762 C   0  0  0  0  0  0  0  0  0  0  0  0
   21.0446  -14.3812  -16.4986 C   0  0  0  0  0  0  0  0  0  0  0  0
   19.7569  -14.0747  -17.2231 C   0  0  2  0  0  0  0  0  0  0  0  0
   19.7433  -14.9943  -18.3755 N   0  0  0  0  0  0  0  0  0  0  0  0
   19.6478  -12.6992  -17.7068 C   0  0  0  0  0  0  0  0  0  0  0  0
   19.9342  -12.4610  -18.9080 O   0  0  0  0  0  0  0  0  0  0  0  0
   21.4981  -16.7834  -16.6099 C   0  0  0  0  0  0  0  0  0  0  0  0
   21.4892  -18.0503  -16.0709 C   0  0  0  0  0  0  0  0  0  0  0  0
   19.2382  -11.5881  -16.9311 N   0  0  0  0  0  0  0  0  0  0  0  0
   19.1170  -10.2367  -17.4420 C   0  0  1  0  0  0  0  0  0  0  0  0
   17.7173   -9.9778  -17.9548 C   0  0  0  0  0  0  0  0  0  0  0  0
   17.5438   -8.5725  -18.3940 C   0  0  0  0  0  0  0  0  0  0  0  0
   17.2622   -7.4779  -17.5790 C   0  0  0  0  0  0  0  0  0  0  0  0
   17.1727   -6.3635  -18.3062 N   0  0  0  0  0  0  0  0  0  0  0  0
   17.3944   -6.7287  -19.5866 C   0  0  0  0  0  0  0  0  0  0  0  0
   17.6167   -8.0566  -19.6335 N   0  0  0  0  0  0  0  0  0  0  0  0
   19.5848   -9.2890  -16.4548 C   0  0  0  0  0  0  0  0  0  0  0  0
   19.2690   -9.5181  -15.2345 O   0  0  0  0  0  0  0  0  0  0  0  0
   23.1980   -8.0358  -15.7563 C   0  0  0  0  0  0  0  0  0  0  0  0
   22.2637   -6.8701  -15.7501 C   0  0  1  0  0  0  0  0  0  0  0  0
   22.4128   -6.2029  -16.9695 O   0  0  0  0  0  0  0  0  0  0  0  0
   20.8139   -7.2724  -15.5770 C   0  0  2  0  0  0  0  0  0  0  0  0
   20.3585   -8.1224  -16.6468 N   0  0  0  0  0  0  0  0  0  0  0  0
   19.9410   -6.1376  -15.2710 C   0  0  0  0  0  0  0  0  0  0  0  0
   20.1355   -5.3374  -14.3194 O   0  0  0  0  0  0  0  0  0  0  0  0
   18.8139   -5.8719  -16.0369 O   0  0  0  0  0  0  0  0  0  0  0  0
  2  1  1  0
  3  2  2  0
  4  3  1  0
  5 11  1  0
  5  4  2  0
  6  5  1  0
  7  9  1  0
  7  6  1  0
  7  8  1  6
  9 10  2  0
 11 12  2  0
 12  2  1  0
 13 14  1  0
 13  9  1  0
 14 15  1  1
 15 16  1  0
 16 17  2  0
 17 18  1  0
 19 18  1  0
 20 16  1  0
 20 19  2  0
 21 14  1  0
 22 21  2  0
 24 23  1  6
 24 26  1  0
 25 24  1  0
 26 28  1  0
 26 27  1  6
 27 21  1  0
 28 30  1  0
 29 28  2  0
M  END
$$$$
