GSN.pdb
     RDKit          3D

 19 18  0  0  1  0  0  0  0  0999 V2000
    8.0960  -12.9144   17.0546 N   0  0  0  0  0  0  0  0  0  0  0  0
    8.9250  -13.2995   18.1564 C   0  0  0  0  0  0  0  0  0  0  0  0
    8.1908  -14.0901   19.1761 C   0  0  0  0  0  0  0  0  0  0  0  0
    7.0460  -14.5357   18.9131 O   0  0  0  0  0  0  0  0  0  0  0  0
    9.6008  -17.1657   20.8202 O   0  0  0  0  0  0  0  0  0  0  0  0
    8.2951  -16.7344   20.7619 C   0  0  0  0  0  0  0  0  0  0  0  0
    8.1272  -15.3268   21.3196 C   0  0  2  0  0  0  0  0  0  0  0  0
    8.7422  -14.3653   20.4554 N   0  0  0  0  0  0  0  0  0  0  0  0
    8.7156  -15.3235   22.6839 C   0  0  0  0  0  0  0  0  0  0  0  0
    9.9309  -15.0227   22.8073 O   0  0  0  0  0  0  0  0  0  0  0  0
    5.5596  -13.3155   25.6890 N   0  0  0  0  0  0  0  0  0  0  0  0
    6.9460  -13.6104   25.8305 C   0  0  0  0  0  0  0  0  0  0  0  0
    7.7655  -12.6842   25.6949 O   0  0  0  0  0  0  0  0  0  0  0  0
    7.3956  -14.9746   26.1288 C   0  0  0  0  0  0  0  0  0  0  0  0
    8.4629  -15.4344   25.2096 C   0  0  2  0  0  0  0  0  0  0  0  0
    7.9892  -15.6380   23.8469 N   0  0  0  0  0  0  0  0  0  0  0  0
    9.2751  -16.5514   25.6777 C   0  0  0  0  0  0  0  0  0  0  0  0
    9.5237  -17.6170   25.0871 O   0  0  0  0  0  0  0  0  0  0  0  0
    9.8573  -16.4249   26.9533 O   0  0  0  0  0  0  0  0  0  0  0  0
  1  2  1  0
  3  4  2  0
  3  2  1  0
  7  6  1  6
  6  5  1  0
  7  8  1  0
  8  3  1  0
  9  7  1  0
 10  9  2  0
 11 12  1  0
 12 13  2  0
 14 12  1  0
 15 14  1  1
 15 17  1  0
 15 16  1  0
 16  9  1  0
 17 19  1  0
 18 17  2  0
M  END
$$$$
