GSN.pdb
     RDKit          3D

 19 18  0  0  1  0  0  0  0  0999 V2000
    9.0211  -15.9103   14.6425 N   0  0  0  0  0  0  0  0  0  0  0  0
    8.2417  -15.8212   15.8400 C   0  0  0  0  0  0  0  0  0  0  0  0
    8.9310  -15.0664   16.9166 C   0  0  0  0  0  0  0  0  0  0  0  0
   10.1860  -15.0688   16.9737 O   0  0  0  0  0  0  0  0  0  0  0  0
    6.8282  -13.4914   20.2005 O   0  0  0  0  0  0  0  0  0  0  0  0
    7.9622  -12.8278   19.7906 C   0  0  0  0  0  0  0  0  0  0  0  0
    8.9024  -13.7275   18.9986 C   0  0  2  0  0  0  0  0  0  0  0  0
    8.2144  -14.3316   17.8980 N   0  0  0  0  0  0  0  0  0  0  0  0
    9.4496  -14.7318   19.9472 C   0  0  0  0  0  0  0  0  0  0  0  0
    9.0510  -15.9210   19.8505 O   0  0  0  0  0  0  0  0  0  0  0  0
    7.8974  -15.6238   23.7705 N   0  0  0  0  0  0  0  0  0  0  0  0
    9.3088  -15.7927   23.6774 C   0  0  0  0  0  0  0  0  0  0  0  0
   10.0074  -15.4939   24.6624 O   0  0  0  0  0  0  0  0  0  0  0  0
    9.9227  -16.3067   22.4482 C   0  0  0  0  0  0  0  0  0  0  0  0
   10.9435  -15.3859   21.8954 C   0  0  2  0  0  0  0  0  0  0  0  0
   10.3895  -14.4271   20.9485 N   0  0  0  0  0  0  0  0  0  0  0  0
   12.1628  -16.0078   21.3921 C   0  0  0  0  0  0  0  0  0  0  0  0
   13.3402  -15.7006   21.6480 O   0  0  0  0  0  0  0  0  0  0  0  0
   12.0064  -17.0907   20.5061 O   0  0  0  0  0  0  0  0  0  0  0  0
  1  2  1  0
  3  4  2  0
  3  2  1  0
  7  6  1  1
  6  5  1  0
  7  8  1  0
  8  3  1  0
  9  7  1  0
 10  9  2  0
 11 12  1  0
 12 13  2  0
 14 12  1  0
 15 14  1  6
 15 17  1  0
 15 16  1  0
 16  9  1  0
 17 19  1  0
 18 17  2  0
M  END
$$$$
