GSN.pdb
     RDKit          3D

 19 18  0  0  1  0  0  0  0  0999 V2000
   -3.9705  -24.9414   27.6654 N   0  0  0  0  0  0  0  0  0  0  0  0
   -5.1757  -24.3288   27.1945 C   0  0  0  0  0  0  0  0  0  0  0  0
   -5.8013  -23.4429   28.2083 C   0  0  0  0  0  0  0  0  0  0  0  0
   -5.0847  -22.8905   29.0798 O   0  0  0  0  0  0  0  0  0  0  0  0
   -9.8620  -21.4884   30.0544 O   0  0  0  0  0  0  0  0  0  0  0  0
   -9.2531  -22.1626   29.0205 C   0  0  0  0  0  0  0  0  0  0  0  0
   -7.7916  -22.4740   29.3165 C   0  0  2  0  0  0  0  0  0  0  0  0
   -7.1991  -23.1932   28.2296 N   0  0  0  0  0  0  0  0  0  0  0  0
   -7.7562  -23.2383   30.5903 C   0  0  0  0  0  0  0  0  0  0  0  0
   -8.1623  -22.6703   31.6367 O   0  0  0  0  0  0  0  0  0  0  0  0
   -7.7456  -27.0297   34.0887 N   0  0  0  0  0  0  0  0  0  0  0  0
   -8.8904  -26.3511   33.5805 C   0  0  0  0  0  0  0  0  0  0  0  0
   -9.9793  -26.5100   34.1608 O   0  0  0  0  0  0  0  0  0  0  0  0
   -8.7865  -25.4859   32.4004 C   0  0  0  0  0  0  0  0  0  0  0  0
   -7.4016  -25.3977   31.8812 C   0  0  2  0  0  0  0  0  0  0  0  0
   -7.2936  -24.5629   30.6919 N   0  0  0  0  0  0  0  0  0  0  0  0
   -6.6929  -26.6627   31.7262 C   0  0  0  0  0  0  0  0  0  0  0  0
   -6.0309  -27.2785   32.5798 O   0  0  0  0  0  0  0  0  0  0  0  0
   -6.7551  -27.2766   30.4606 O   0  0  0  0  0  0  0  0  0  0  0  0
  1  2  1  0
  3  4  2  0
  3  2  1  0
  7  6  1  6
  6  5  1  0
  7  8  1  0
  8  3  1  0
  9  7  1  0
 10  9  2  0
 11 12  1  0
 12 13  2  0
 14 12  1  0
 15 14  1  6
 15 17  1  0
 15 16  1  0
 16  9  1  0
 17 19  1  0
 18 17  2  0
M  END
$$$$
