GSN.pdb
     RDKit          3D

 19 18  0  0  1  0  0  0  0  0999 V2000
    6.1784  -18.3420   18.9745 N   0  0  0  0  0  0  0  0  0  0  0  0
    6.2236  -16.9909   19.4456 C   0  0  0  0  0  0  0  0  0  0  0  0
    7.3431  -16.2157   18.8542 C   0  0  0  0  0  0  0  0  0  0  0  0
    8.1856  -16.7960   18.1250 O   0  0  0  0  0  0  0  0  0  0  0  0
    8.1630  -12.1686   19.9137 O   0  0  0  0  0  0  0  0  0  0  0  0
    8.4459  -12.6282   18.6476 C   0  0  0  0  0  0  0  0  0  0  0  0
    8.6639  -14.1355   18.6165 C   0  0  2  0  0  0  0  0  0  0  0  0
    7.4991  -14.8233   19.0854 N   0  0  0  0  0  0  0  0  0  0  0  0
    9.8645  -14.4213   19.4439 C   0  0  0  0  0  0  0  0  0  0  0  0
    9.7237  -14.4940   20.6919 O   0  0  0  0  0  0  0  0  0  0  0  0
   14.4323  -15.6585   21.3480 N   0  0  0  0  0  0  0  0  0  0  0  0
   13.6361  -16.7016   20.7936 C   0  0  0  0  0  0  0  0  0  0  0  0
   13.9197  -17.8788   21.0793 O   0  0  0  0  0  0  0  0  0  0  0  0
   12.5090  -16.3936   19.9066 C   0  0  0  0  0  0  0  0  0  0  0  0
   12.3401  -14.9380   19.6875 C   0  0  2  0  0  0  0  0  0  0  0  0
   11.1512  -14.6155   18.9095 N   0  0  0  0  0  0  0  0  0  0  0  0
   13.5164  -14.2206   19.2095 C   0  0  0  0  0  0  0  0  0  0  0  0
   13.6867  -13.6829   18.1014 O   0  0  0  0  0  0  0  0  0  0  0  0
   14.6023  -14.1140   20.0992 O   0  0  0  0  0  0  0  0  0  0  0  0
  1  2  1  0
  3  4  2  0
  3  2  1  0
  7  6  1  1
  6  5  1  0
  7  8  1  0
  8  3  1  0
  9  7  1  0
 10  9  2  0
 11 12  1  0
 12 13  2  0
 14 12  1  0
 15 14  1  6
 15 17  1  0
 15 16  1  0
 16  9  1  0
 17 19  1  0
 18 17  2  0
M  END
$$$$
