GSN.pdb
     RDKit          3D

 19 18  0  0  1  0  0  0  0  0999 V2000
   10.2630  -18.3188   17.3100 N   0  0  0  0  0  0  0  0  0  0  0  0
   10.1533  -18.3818   18.7360 C   0  0  0  0  0  0  0  0  0  0  0  0
   11.0297  -17.3990   19.4214 C   0  0  0  0  0  0  0  0  0  0  0  0
   11.9783  -16.8660   18.7933 O   0  0  0  0  0  0  0  0  0  0  0  0
   10.3979  -16.1277   23.4332 O   0  0  0  0  0  0  0  0  0  0  0  0
   10.9742  -15.3106   22.4875 C   0  0  0  0  0  0  0  0  0  0  0  0
   11.7134  -16.1011   21.4155 C   0  0  2  0  0  0  0  0  0  0  0  0
   10.8329  -17.0339   20.7796 N   0  0  0  0  0  0  0  0  0  0  0  0
   12.8644  -16.7671   22.0783 C   0  0  0  0  0  0  0  0  0  0  0  0
   12.6372  -17.7783   22.7913 O   0  0  0  0  0  0  0  0  0  0  0  0
   16.2661  -17.8182   19.0740 N   0  0  0  0  0  0  0  0  0  0  0  0
   15.9200  -18.1229   20.4219 C   0  0  0  0  0  0  0  0  0  0  0  0
   15.1945  -19.1100   20.6385 O   0  0  0  0  0  0  0  0  0  0  0  0
   16.4079  -17.2912   21.5274 C   0  0  0  0  0  0  0  0  0  0  0  0
   15.3541  -17.0012   22.5278 C   0  0  2  0  0  0  0  0  0  0  0  0
   14.1956  -16.3298   21.9532 N   0  0  0  0  0  0  0  0  0  0  0  0
   15.7988  -16.3627   23.7612 C   0  0  0  0  0  0  0  0  0  0  0  0
   15.3677  -15.3185   24.2807 O   0  0  0  0  0  0  0  0  0  0  0  0
   16.8442  -16.9924   24.4631 O   0  0  0  0  0  0  0  0  0  0  0  0
  1  2  1  0
  3  4  2  0
  3  2  1  0
  7  6  1  1
  6  5  1  0
  7  8  1  0
  8  3  1  0
  9  7  1  0
 10  9  2  0
 11 12  1  0
 12 13  2  0
 14 12  1  0
 15 14  1  6
 15 17  1  0
 15 16  1  0
 16  9  1  0
 17 19  1  0
 18 17  2  0
M  END
$$$$
