GSN.pdb
     RDKit          3D

 19 18  0  0  1  0  0  0  0  0999 V2000
    2.9752  -18.7783   21.0419 N   0  0  0  0  0  0  0  0  0  0  0  0
    3.5009  -17.6170   21.6934 C   0  0  0  0  0  0  0  0  0  0  0  0
    4.9230  -17.3633   21.3513 C   0  0  0  0  0  0  0  0  0  0  0  0
    5.5174  -18.1288   20.5519 O   0  0  0  0  0  0  0  0  0  0  0  0
    6.7778  -13.6814   21.6158 O   0  0  0  0  0  0  0  0  0  0  0  0
    7.2259  -14.7439   20.8645 C   0  0  0  0  0  0  0  0  0  0  0  0
    7.0263  -16.0770   21.5741 C   0  0  2  0  0  0  0  0  0  0  0  0
    5.6464  -16.2723   21.9017 N   0  0  0  0  0  0  0  0  0  0  0  0
    7.9002  -16.0683   22.7758 C   0  0  0  0  0  0  0  0  0  0  0  0
    7.4273  -15.6215   23.8524 O   0  0  0  0  0  0  0  0  0  0  0  0
    8.0061  -18.0737   26.1090 N   0  0  0  0  0  0  0  0  0  0  0  0
    9.2795  -17.4488   25.9777 C   0  0  0  0  0  0  0  0  0  0  0  0
    9.6832  -16.7260   26.9063 O   0  0  0  0  0  0  0  0  0  0  0  0
   10.0945  -17.6534   24.7752 C   0  0  0  0  0  0  0  0  0  0  0  0
   10.1413  -16.4517   23.9097 C   0  0  2  0  0  0  0  0  0  0  0  0
    9.2282  -16.5323   22.7771 N   0  0  0  0  0  0  0  0  0  0  0  0
   11.4691  -16.0009   23.5093 C   0  0  0  0  0  0  0  0  0  0  0  0
   11.8877  -15.7800   22.3595 O   0  0  0  0  0  0  0  0  0  0  0  0
   12.4051  -15.7842   24.5384 O   0  0  0  0  0  0  0  0  0  0  0  0
  1  2  1  0
  3  4  2  0
  3  2  1  0
  7  6  1  1
  6  5  1  0
  7  8  1  0
  8  3  1  0
  9  7  1  0
 10  9  2  0
 11 12  1  0
 12 13  2  0
 14 12  1  0
 15 14  1  6
 15 17  1  0
 15 16  1  0
 16  9  1  0
 17 19  1  0
 18 17  2  0
M  END
$$$$
