GSN.pdb
     RDKit          3D

 19 18  0  0  1  0  0  0  0  0999 V2000
    7.5587  -17.1347   17.6918 N   0  0  0  0  0  0  0  0  0  0  0  0
    6.9231  -16.9530   18.9616 C   0  0  0  0  0  0  0  0  0  0  0  0
    7.8324  -16.3666   19.9781 C   0  0  0  0  0  0  0  0  0  0  0  0
    9.0515  -16.6701   19.9723 O   0  0  0  0  0  0  0  0  0  0  0  0
    6.4396  -14.2624   23.3702 O   0  0  0  0  0  0  0  0  0  0  0  0
    7.5997  -13.8381   22.7632 C   0  0  0  0  0  0  0  0  0  0  0  0
    8.2674  -14.9454   21.9578 C   0  0  2  0  0  0  0  0  0  0  0  0
    7.3689  -15.4628   20.9705 N   0  0  0  0  0  0  0  0  0  0  0  0
    8.7095  -15.9839   22.9241 C   0  0  0  0  0  0  0  0  0  0  0  0
    7.9482  -16.9627   23.1357 O   0  0  0  0  0  0  0  0  0  0  0  0
   13.9404  -17.3836   24.2922 N   0  0  0  0  0  0  0  0  0  0  0  0
   12.7028  -17.0389   23.6769 C   0  0  0  0  0  0  0  0  0  0  0  0
   12.6818  -16.0795   22.8851 O   0  0  0  0  0  0  0  0  0  0  0  0
   11.4823  -17.7978   23.9710 C   0  0  0  0  0  0  0  0  0  0  0  0
   10.4110  -16.9502   24.5447 C   0  0  2  0  0  0  0  0  0  0  0  0
    9.9331  -15.9340   23.6163 N   0  0  0  0  0  0  0  0  0  0  0  0
   10.6690  -16.4002   25.8705 C   0  0  0  0  0  0  0  0  0  0  0  0
   10.6471  -15.2076   26.2216 O   0  0  0  0  0  0  0  0  0  0  0  0
   10.9830  -17.3183   26.8906 O   0  0  0  0  0  0  0  0  0  0  0  0
  1  2  1  0
  3  4  2  0
  3  2  1  0
  7  6  1  1
  6  5  1  0
  7  8  1  0
  8  3  1  0
  9  7  1  0
 10  9  2  0
 11 12  1  0
 12 13  2  0
 14 12  1  0
 15 14  1  6
 15 17  1  0
 15 16  1  0
 16  9  1  0
 17 19  1  0
 18 17  2  0
M  END
$$$$
