QYT.pdb
     RDKit          3D

 29 29  0  0  1  0  0  0  0  0999 V2000
   11.2761  -15.6691   13.7137 N   0  0  0  0  0  0  0  0  0  0  0  0
   11.4234  -16.7728   14.5900 C   0  0  0  0  0  0  0  0  0  0  0  0
   12.1473  -17.7254   14.2336 O   0  0  0  0  0  0  0  0  0  0  0  0
   10.7359  -16.7999   15.8977 C   0  0  0  0  0  0  0  0  0  0  0  0
   11.5447  -16.2607   17.0340 C   0  0  0  0  0  0  0  0  0  0  0  0
   11.5119  -17.0576   18.2910 C   0  0  2  0  0  0  0  0  0  0  0  0
   10.3085  -17.8968   18.3495 N   0  0  0  0  0  0  0  0  0  0  0  0
   11.6215  -16.2598   19.5368 C   0  0  0  0  0  0  0  0  0  0  0  0
   12.6142  -15.5077   19.6813 O   0  0  0  0  0  0  0  0  0  0  0  0
    7.1829  -12.3305   17.3662 O   0  0  0  0  0  0  0  0  0  0  0  0
    7.7291  -12.9314   18.5138 C   0  0  0  0  0  0  0  0  0  0  0  0
    8.9582  -12.5363   18.9432 C   0  0  0  0  0  0  0  0  0  0  0  0
    9.4939  -13.1350   20.0803 C   0  0  0  0  0  0  0  0  0  0  0  0
    8.8295  -14.1099   20.7865 C   0  0  0  0  0  0  0  0  0  0  0  0
    9.4246  -14.7157   21.9784 C   0  0  0  0  0  0  0  0  0  0  0  0
   10.6973  -15.4523   21.7549 C   0  0  2  0  0  0  0  0  0  0  0  0
   10.6571  -16.3025   20.5806 N   0  0  0  0  0  0  0  0  0  0  0  0
   11.2280  -16.1881   22.9076 C   0  0  0  0  0  0  0  0  0  0  0  0
   11.2932  -15.6350   24.0608 O   0  0  0  0  0  0  0  0  0  0  0  0
    7.5805  -14.4867   20.3196 C   0  0  0  0  0  0  0  0  0  0  0  0
    7.0340  -13.8995   19.1885 C   0  0  0  0  0  0  0  0  0  0  0  0
   10.1174  -19.5316   24.5406 C   0  0  0  0  0  0  0  0  0  0  0  0
   11.5350  -19.6377   24.0199 C   0  0  1  0  0  0  0  0  0  0  0  0
   11.5117  -20.1741   22.7566 O   0  0  0  0  0  0  0  0  0  0  0  0
   12.1846  -18.2391   24.0371 C   0  0  2  0  0  0  0  0  0  0  0  0
   11.7011  -17.5252   22.8751 N   0  0  0  0  0  0  0  0  0  0  0  0
   13.6332  -18.4956   23.8448 C   0  0  0  0  0  0  0  0  0  0  0  0
   14.3325  -19.0887   24.7073 O   0  0  0  0  0  0  0  0  0  0  0  0
   14.3129  -18.0970   22.6981 O   0  0  0  0  0  0  0  0  0  0  0  0
  1  2  1  0
  2  3  2  0
  2  4  1  0
  4  5  1  0
  6  5  1  0
  6  7  1  1
  8  9  2  0
  8  6  1  0
 10 11  1  0
 11 21  2  0
 12 11  1  0
 12 13  2  0
 13 14  1  0
 14 15  1  0
 16 15  1  1
 16 17  1  0
 17  8  1  0
 18 16  1  0
 18 26  1  0
 19 18  2  0
 20 14  2  0
 21 20  1  0
 23 22  1  6
 23 25  1  0
 24 23  1  0
 25 26  1  6
 25 27  1  0
 27 29  1  0
 28 27  2  0
M  END
$$$$
