QYT.pdb
     RDKit          3D

 29 29  0  0  1  0  0  0  0  0999 V2000
   13.5545  -17.3330   13.6260 N   0  0  0  0  0  0  0  0  0  0  0  0
   12.1509  -17.4891   13.5107 C   0  0  0  0  0  0  0  0  0  0  0  0
   11.6438  -17.5049   12.3700 O   0  0  0  0  0  0  0  0  0  0  0  0
   11.3022  -17.6292   14.7121 C   0  0  0  0  0  0  0  0  0  0  0  0
   12.0495  -17.5883   16.0067 C   0  0  0  0  0  0  0  0  0  0  0  0
   11.2287  -17.7582   17.2369 C   0  0  2  0  0  0  0  0  0  0  0  0
    9.9667  -17.0149   17.1330 N   0  0  0  0  0  0  0  0  0  0  0  0
   11.9167  -17.3939   18.4996 C   0  0  0  0  0  0  0  0  0  0  0  0
   12.9724  -17.9985   18.8027 O   0  0  0  0  0  0  0  0  0  0  0  0
   17.2782  -13.2758   18.1156 O   0  0  0  0  0  0  0  0  0  0  0  0
   16.0761  -13.6138   18.7615 C   0  0  0  0  0  0  0  0  0  0  0  0
   16.1151  -14.0041   20.0643 C   0  0  0  0  0  0  0  0  0  0  0  0
   14.9215  -14.3376   20.6987 C   0  0  0  0  0  0  0  0  0  0  0  0
   13.7047  -14.2880   20.0603 C   0  0  0  0  0  0  0  0  0  0  0  0
   12.4704  -14.6452   20.7607 C   0  0  0  0  0  0  0  0  0  0  0  0
   12.0661  -16.0729   20.6581 C   0  0  2  0  0  0  0  0  0  0  0  0
   11.4413  -16.3913   19.3885 N   0  0  0  0  0  0  0  0  0  0  0  0
   11.2706  -16.6000   21.7721 C   0  0  0  0  0  0  0  0  0  0  0  0
   10.1181  -16.1100   22.0399 O   0  0  0  0  0  0  0  0  0  0  0  0
   13.7040  -13.8861   18.7343 C   0  0  0  0  0  0  0  0  0  0  0  0
   14.8847  -13.5508   18.0890 C   0  0  0  0  0  0  0  0  0  0  0  0
    9.7877  -19.9735   22.5222 C   0  0  0  0  0  0  0  0  0  0  0  0
   10.7587  -19.6477   23.6371 C   0  0  1  0  0  0  0  0  0  0  0  0
   11.9665  -20.2431   23.3706 O   0  0  0  0  0  0  0  0  0  0  0  0
   10.8893  -18.1160   23.7605 C   0  0  2  0  0  0  0  0  0  0  0  0
   11.6678  -17.6575   22.6302 N   0  0  0  0  0  0  0  0  0  0  0  0
   11.6978  -17.9058   24.9867 C   0  0  0  0  0  0  0  0  0  0  0  0
   12.8843  -17.4871   24.9475 O   0  0  0  0  0  0  0  0  0  0  0  0
   11.1965  -18.1579   26.2598 O   0  0  0  0  0  0  0  0  0  0  0  0
  1  2  1  0
  2  3  2  0
  2  4  1  0
  4  5  1  0
  6  5  1  0
  6  7  1  6
  8  9  2  0
  8  6  1  0
 10 11  1  0
 11 21  2  0
 12 11  1  0
 12 13  2  0
 13 14  1  0
 14 15  1  0
 16 15  1  1
 16 17  1  0
 17  8  1  0
 18 16  1  0
 18 26  1  0
 19 18  2  0
 20 14  2  0
 21 20  1  0
 23 22  1  6
 23 25  1  0
 24 23  1  0
 25 26  1  6
 25 27  1  0
 27 29  1  0
 28 27  2  0
M  END
$$$$
