QYT.pdb
     RDKit          3D

 29 29  0  0  1  0  0  0  0  0999 V2000
    7.8557  -12.7153   16.6976 N   0  0  0  0  0  0  0  0  0  0  0  0
    7.7323  -14.0498   16.2376 C   0  0  0  0  0  0  0  0  0  0  0  0
    7.2328  -14.2489   15.1109 O   0  0  0  0  0  0  0  0  0  0  0  0
    8.1827  -15.1839   17.0708 C   0  0  0  0  0  0  0  0  0  0  0  0
    8.7327  -14.7922   18.4051 C   0  0  0  0  0  0  0  0  0  0  0  0
    9.0302  -15.9119   19.3399 C   0  0  2  0  0  0  0  0  0  0  0  0
    8.0179  -16.9699   19.2310 N   0  0  0  0  0  0  0  0  0  0  0  0
    9.1806  -15.5134   20.7608 C   0  0  0  0  0  0  0  0  0  0  0  0
   10.3348  -15.3155   21.2086 O   0  0  0  0  0  0  0  0  0  0  0  0
    7.3449  -12.2459   28.8179 O   0  0  0  0  0  0  0  0  0  0  0  0
    7.3015  -12.6614   27.4755 C   0  0  0  0  0  0  0  0  0  0  0  0
    8.1209  -12.0584   26.5721 C   0  0  0  0  0  0  0  0  0  0  0  0
    8.0736  -12.4740   25.2442 C   0  0  0  0  0  0  0  0  0  0  0  0
    7.2312  -13.4702   24.8098 C   0  0  0  0  0  0  0  0  0  0  0  0
    7.2103  -13.8811   23.4054 C   0  0  0  0  0  0  0  0  0  0  0  0
    8.2117  -14.9130   23.0251 C   0  0  2  0  0  0  0  0  0  0  0  0
    8.0812  -15.3430   21.6461 N   0  0  0  0  0  0  0  0  0  0  0  0
    8.3169  -16.0708   23.9196 C   0  0  0  0  0  0  0  0  0  0  0  0
    7.3481  -16.9013   24.0283 O   0  0  0  0  0  0  0  0  0  0  0  0
    6.4115  -14.0612   25.7579 C   0  0  0  0  0  0  0  0  0  0  0  0
    6.4474  -13.6578   27.0841 C   0  0  0  0  0  0  0  0  0  0  0  0
    9.6857  -19.2360   23.9022 C   0  0  0  0  0  0  0  0  0  0  0  0
   10.4043  -18.5679   25.0551 C   0  0  1  0  0  0  0  0  0  0  0  0
   11.5889  -18.0419   24.6032 O   0  0  0  0  0  0  0  0  0  0  0  0
    9.4890  -17.4837   25.6595 C   0  0  2  0  0  0  0  0  0  0  0  0
    9.4454  -16.3840   24.7201 N   0  0  0  0  0  0  0  0  0  0  0  0
   10.2069  -17.0197   26.8722 C   0  0  0  0  0  0  0  0  0  0  0  0
   10.7024  -15.8659   26.9614 O   0  0  0  0  0  0  0  0  0  0  0  0
   10.3789  -17.8302   27.9899 O   0  0  0  0  0  0  0  0  0  0  0  0
  1  2  1  0
  2  3  2  0
  2  4  1  0
  4  5  1  0
  6  5  1  0
  6  7  1  1
  8  9  2  0
  8  6  1  0
 10 11  1  0
 11 21  2  0
 12 11  1  0
 12 13  2  0
 13 14  1  0
 14 15  1  0
 16 15  1  1
 16 17  1  0
 17  8  1  0
 18 16  1  0
 18 26  1  0
 19 18  2  0
 20 14  2  0
 21 20  1  0
 23 22  1  6
 23 25  1  0
 24 23  1  0
 25 26  1  6
 25 27  1  0
 27 29  1  0
 28 27  2  0
M  END
$$$$
