QYT.pdb
     RDKit          3D

 29 29  0  0  1  0  0  0  0  0999 V2000
    7.4792  -20.6543   19.6764 N   0  0  0  0  0  0  0  0  0  0  0  0
    7.2981  -19.9030   18.4888 C   0  0  0  0  0  0  0  0  0  0  0  0
    6.7257  -20.4453   17.5209 O   0  0  0  0  0  0  0  0  0  0  0  0
    7.7758  -18.5079   18.3937 C   0  0  0  0  0  0  0  0  0  0  0  0
    8.2711  -17.9336   19.6825 C   0  0  0  0  0  0  0  0  0  0  0  0
    8.8228  -16.5529   19.6095 C   0  0  2  0  0  0  0  0  0  0  0  0
   10.0763  -16.5280   18.8452 N   0  0  0  0  0  0  0  0  0  0  0  0
    9.0292  -15.8948   20.9228 C   0  0  0  0  0  0  0  0  0  0  0  0
   10.1380  -16.0288   21.4924 O   0  0  0  0  0  0  0  0  0  0  0  0
    7.1070  -11.7777   28.6150 O   0  0  0  0  0  0  0  0  0  0  0  0
    7.1428  -12.2043   27.2759 C   0  0  0  0  0  0  0  0  0  0  0  0
    6.1756  -13.0495   26.8273 C   0  0  0  0  0  0  0  0  0  0  0  0
    6.2163  -13.4686   25.5003 C   0  0  0  0  0  0  0  0  0  0  0  0
    7.1956  -13.0619   24.6251 C   0  0  0  0  0  0  0  0  0  0  0  0
    7.2049  -13.5230   23.2363 C   0  0  0  0  0  0  0  0  0  0  0  0
    8.1419  -14.6391   22.9383 C   0  0  2  0  0  0  0  0  0  0  0  0
    8.0327  -15.1167   21.5732 N   0  0  0  0  0  0  0  0  0  0  0  0
    8.1283  -15.7624   23.8815 C   0  0  0  0  0  0  0  0  0  0  0  0
    7.1007  -16.5206   23.9781 O   0  0  0  0  0  0  0  0  0  0  0  0
    8.1637  -12.2014   25.1173 C   0  0  0  0  0  0  0  0  0  0  0  0
    8.1364  -11.7754   26.4366 C   0  0  0  0  0  0  0  0  0  0  0  0
    9.2968  -18.9708   23.8802 C   0  0  0  0  0  0  0  0  0  0  0  0
   10.0285  -18.3557   25.0542 C   0  0  1  0  0  0  0  0  0  0  0  0
   11.2448  -17.8828   24.6290 O   0  0  0  0  0  0  0  0  0  0  0  0
    9.1580  -17.2362   25.6604 C   0  0  2  0  0  0  0  0  0  0  0  0
    9.1969  -16.1166   24.7447 N   0  0  0  0  0  0  0  0  0  0  0  0
    9.8696  -16.8369   26.8996 C   0  0  0  0  0  0  0  0  0  0  0  0
   10.4688  -15.7350   27.0069 O   0  0  0  0  0  0  0  0  0  0  0  0
    9.9206  -17.6549   28.0239 O   0  0  0  0  0  0  0  0  0  0  0  0
  1  2  1  0
  2  3  2  0
  2  4  1  0
  4  5  1  0
  6  5  1  0
  6  7  1  1
  8  9  2  0
  8  6  1  0
 10 11  1  0
 11 21  2  0
 12 11  1  0
 12 13  2  0
 13 14  1  0
 14 15  1  0
 16 15  1  1
 16 17  1  0
 17  8  1  0
 18 16  1  0
 18 26  1  0
 19 18  2  0
 20 14  2  0
 21 20  1  0
 23 22  1  6
 23 25  1  0
 24 23  1  0
 25 26  1  6
 25 27  1  0
 27 29  1  0
 28 27  2  0
M  END
$$$$
