QYT.pdb
     RDKit          3D

 29 29  0  0  1  0  0  0  0  0999 V2000
    9.2030  -21.5978   22.4203 N   0  0  0  0  0  0  0  0  0  0  0  0
    9.8598  -21.5959   21.1648 C   0  0  0  0  0  0  0  0  0  0  0  0
    9.9763  -22.6765   20.5505 O   0  0  0  0  0  0  0  0  0  0  0  0
   10.3975  -20.3444   20.5921 C   0  0  0  0  0  0  0  0  0  0  0  0
   10.2143  -19.1384   21.4571 C   0  0  0  0  0  0  0  0  0  0  0  0
   10.0806  -17.8396   20.7420 C   0  0  2  0  0  0  0  0  0  0  0  0
   11.1788  -17.6511   19.7859 N   0  0  0  0  0  0  0  0  0  0  0  0
    9.9808  -16.6509   21.6238 C   0  0  0  0  0  0  0  0  0  0  0  0
   11.0041  -15.9487   21.8009 O   0  0  0  0  0  0  0  0  0  0  0  0
    7.7439  -12.6461   17.3260 O   0  0  0  0  0  0  0  0  0  0  0  0
    7.7286  -13.0104   18.6838 C   0  0  0  0  0  0  0  0  0  0  0  0
    6.9323  -14.0396   19.0811 C   0  0  0  0  0  0  0  0  0  0  0  0
    6.9213  -14.3958   20.4270 C   0  0  0  0  0  0  0  0  0  0  0  0
    7.6836  -13.7484   21.3705 C   0  0  0  0  0  0  0  0  0  0  0  0
    7.6465  -14.1521   22.7766 C   0  0  0  0  0  0  0  0  0  0  0  0
    8.6838  -15.1354   23.1882 C   0  0  2  0  0  0  0  0  0  0  0  0
    8.7815  -16.2635   22.2818 N   0  0  0  0  0  0  0  0  0  0  0  0
    8.6216  -15.5947   24.5799 C   0  0  0  0  0  0  0  0  0  0  0  0
    8.3937  -14.7672   25.5304 O   0  0  0  0  0  0  0  0  0  0  0  0
    8.4820  -12.7055   20.9291 C   0  0  0  0  0  0  0  0  0  0  0  0
    8.5035  -12.3391   19.5918 C   0  0  0  0  0  0  0  0  0  0  0  0
    6.3579  -17.9341   26.4406 C   0  0  0  0  0  0  0  0  0  0  0  0
    7.7585  -18.5044   26.5114 C   0  0  1  0  0  0  0  0  0  0  0  0
    7.9172  -19.4336   25.5136 O   0  0  0  0  0  0  0  0  0  0  0  0
    8.7782  -17.3536   26.3907 C   0  0  2  0  0  0  0  0  0  0  0  0
    8.7956  -16.9369   25.0052 N   0  0  0  0  0  0  0  0  0  0  0  0
   10.0884  -17.9796   26.6953 C   0  0  0  0  0  0  0  0  0  0  0  0
   10.9809  -18.1334   25.8209 O   0  0  0  0  0  0  0  0  0  0  0  0
   10.4156  -18.4374   27.9677 O   0  0  0  0  0  0  0  0  0  0  0  0
  1  2  1  0
  2  3  2  0
  2  4  1  0
  4  5  1  0
  6  5  1  0
  6  7  1  6
  8  9  2  0
  8  6  1  0
 10 11  1  0
 11 21  2  0
 12 11  1  0
 12 13  2  0
 13 14  1  0
 14 15  1  0
 16 15  1  6
 16 17  1  0
 17  8  1  0
 18 16  1  0
 18 26  1  0
 19 18  2  0
 20 14  2  0
 21 20  1  0
 23 22  1  6
 23 25  1  0
 24 23  1  0
 25 26  1  6
 25 27  1  0
 27 29  1  0
 28 27  2  0
M  END
$$$$
