QYT.pdb
     RDKit          3D

 29 29  0  0  1  0  0  0  0  0999 V2000
    8.9558  -12.7475   17.2755 N   0  0  0  0  0  0  0  0  0  0  0  0
    7.9887  -13.5922   17.8746 C   0  0  0  0  0  0  0  0  0  0  0  0
    7.6568  -14.6371   17.2774 O   0  0  0  0  0  0  0  0  0  0  0  0
    7.3830  -13.2468   19.1774 C   0  0  0  0  0  0  0  0  0  0  0  0
    8.3199  -13.3367   20.3394 C   0  0  0  0  0  0  0  0  0  0  0  0
    8.6672  -14.7125   20.7897 C   0  0  2  0  0  0  0  0  0  0  0  0
    7.5467  -15.6355   20.5695 N   0  0  0  0  0  0  0  0  0  0  0  0
    9.1212  -14.8104   22.1985 C   0  0  0  0  0  0  0  0  0  0  0  0
   10.0560  -14.0669   22.5797 O   0  0  0  0  0  0  0  0  0  0  0  0
    5.9210  -10.4891   26.5933 O   0  0  0  0  0  0  0  0  0  0  0  0
    6.3781  -11.7872   26.3065 C   0  0  0  0  0  0  0  0  0  0  0  0
    7.5169  -12.2320   26.9036 C   0  0  0  0  0  0  0  0  0  0  0  0
    7.9648  -13.5184   26.6157 C   0  0  0  0  0  0  0  0  0  0  0  0
    7.3013  -14.3572   25.7516 C   0  0  0  0  0  0  0  0  0  0  0  0
    7.8022  -15.7040   25.4743 C   0  0  0  0  0  0  0  0  0  0  0  0
    8.9534  -15.7784   24.5354 C   0  0  2  0  0  0  0  0  0  0  0  0
    8.5508  -15.7060   23.1439 N   0  0  0  0  0  0  0  0  0  0  0  0
    9.8872  -16.8899   24.7460 C   0  0  0  0  0  0  0  0  0  0  0  0
   10.2658  -17.2089   25.9271 O   0  0  0  0  0  0  0  0  0  0  0  0
    6.1456  -13.8702   25.1624 C   0  0  0  0  0  0  0  0  0  0  0  0
    5.6872  -12.5911   25.4393 C   0  0  0  0  0  0  0  0  0  0  0  0
    9.8592  -20.4634   22.7415 C   0  0  0  0  0  0  0  0  0  0  0  0
   11.1971  -19.7552   22.7253 C   0  0  1  0  0  0  0  0  0  0  0  0
   11.3189  -19.0494   21.5543 O   0  0  0  0  0  0  0  0  0  0  0  0
   11.2969  -18.8375   23.9608 C   0  0  2  0  0  0  0  0  0  0  0  0
   10.4436  -17.6944   23.7185 N   0  0  0  0  0  0  0  0  0  0  0  0
   12.7032  -18.3645   23.9645 C   0  0  0  0  0  0  0  0  0  0  0  0
   13.0126  -17.1699   23.7154 O   0  0  0  0  0  0  0  0  0  0  0  0
   13.7714  -19.2110   24.2437 O   0  0  0  0  0  0  0  0  0  0  0  0
  1  2  1  0
  2  3  2  0
  2  4  1  0
  4  5  1  0
  6  5  1  0
  6  7  1  1
  8  9  2  0
  8  6  1  0
 10 11  1  0
 11 21  2  0
 12 11  1  0
 12 13  2  0
 13 14  1  0
 14 15  1  0
 16 15  1  1
 16 17  1  0
 17  8  1  0
 18 16  1  0
 18 26  1  0
 19 18  2  0
 20 14  2  0
 21 20  1  0
 23 22  1  6
 23 25  1  0
 24 23  1  0
 25 26  1  6
 25 27  1  0
 27 29  1  0
 28 27  2  0
M  END
$$$$
