QYT.pdb
     RDKit          3D

 29 29  0  0  1  0  0  0  0  0999 V2000
   11.2306  -15.4355   15.2842 N   0  0  0  0  0  0  0  0  0  0  0  0
   10.6173  -16.7104   15.3631 C   0  0  0  0  0  0  0  0  0  0  0  0
   10.2178  -17.2467   14.3089 O   0  0  0  0  0  0  0  0  0  0  0  0
   10.4515  -17.3931   16.6630 C   0  0  0  0  0  0  0  0  0  0  0  0
   11.0595  -16.6721   17.8234 C   0  0  0  0  0  0  0  0  0  0  0  0
   10.9282  -17.3419   19.1463 C   0  0  2  0  0  0  0  0  0  0  0  0
    9.7650  -18.2378   19.1681 N   0  0  0  0  0  0  0  0  0  0  0  0
   10.8666  -16.4206   20.3072 C   0  0  0  0  0  0  0  0  0  0  0  0
   11.8604  -15.6958   20.5502 O   0  0  0  0  0  0  0  0  0  0  0  0
    7.0134  -12.2494   17.3656 O   0  0  0  0  0  0  0  0  0  0  0  0
    7.3742  -12.8225   18.5977 C   0  0  0  0  0  0  0  0  0  0  0  0
    6.7381  -13.9522   19.0106 C   0  0  0  0  0  0  0  0  0  0  0  0
    7.0996  -14.5152   20.2315 C   0  0  0  0  0  0  0  0  0  0  0  0
    8.0743  -13.9744   21.0365 C   0  0  0  0  0  0  0  0  0  0  0  0
    8.4280  -14.5954   22.3135 C   0  0  0  0  0  0  0  0  0  0  0  0
    9.6652  -15.4212   22.3032 C   0  0  2  0  0  0  0  0  0  0  0  0
    9.7362  -16.3147   21.1630 N   0  0  0  0  0  0  0  0  0  0  0  0
    9.9707  -16.1415   23.5440 C   0  0  0  0  0  0  0  0  0  0  0  0
    9.0679  -16.3179   24.4350 O   0  0  0  0  0  0  0  0  0  0  0  0
    8.7002  -12.8242   20.5835 C   0  0  0  0  0  0  0  0  0  0  0  0
    8.3509  -12.2519   19.3697 C   0  0  0  0  0  0  0  0  0  0  0  0
   10.3680  -19.5363   24.3906 C   0  0  0  0  0  0  0  0  0  0  0  0
   11.7101  -18.9080   24.7006 C   0  0  1  0  0  0  0  0  0  0  0  0
   12.5287  -19.0315   23.6057 O   0  0  0  0  0  0  0  0  0  0  0  0
   11.4971  -17.4320   25.0937 C   0  0  2  0  0  0  0  0  0  0  0  0
   11.2336  -16.6956   23.8764 N   0  0  0  0  0  0  0  0  0  0  0  0
   12.8125  -16.9898   25.6187 C   0  0  0  0  0  0  0  0  0  0  0  0
   13.5355  -16.1582   25.0102 O   0  0  0  0  0  0  0  0  0  0  0  0
   13.3322  -17.4660   26.8182 O   0  0  0  0  0  0  0  0  0  0  0  0
  1  2  1  0
  2  3  2  0
  2  4  1  0
  4  5  1  0
  6  5  1  0
  6  7  1  6
  8  9  2  0
  8  6  1  0
 10 11  1  0
 11 21  2  0
 12 11  1  0
 12 13  2  0
 13 14  1  0
 14 15  1  0
 16 15  1  1
 16 17  1  0
 17  8  1  0
 18 16  1  0
 18 26  1  0
 19 18  2  0
 20 14  2  0
 21 20  1  0
 23 22  1  6
 23 25  1  0
 24 23  1  0
 25 26  1  6
 25 27  1  0
 27 29  1  0
 28 27  2  0
M  END
$$$$
