QYT.pdb
     RDKit          3D

 29 29  0  0  1  0  0  0  0  0999 V2000
    8.2706  -12.2869   17.4122 N   0  0  0  0  0  0  0  0  0  0  0  0
    7.5304  -13.4486   17.0803 C   0  0  0  0  0  0  0  0  0  0  0  0
    6.9071  -13.4704   15.9988 O   0  0  0  0  0  0  0  0  0  0  0  0
    7.4936  -14.6107   17.9921 C   0  0  0  0  0  0  0  0  0  0  0  0
    8.2639  -14.4274   19.2607 C   0  0  0  0  0  0  0  0  0  0  0  0
    8.2649  -15.5870   20.1941 C   0  0  2  0  0  0  0  0  0  0  0  0
    6.9195  -16.1616   20.3192 N   0  0  0  0  0  0  0  0  0  0  0  0
    8.8090  -15.2993   21.5438 C   0  0  0  0  0  0  0  0  0  0  0  0
   10.0275  -15.0247   21.6525 O   0  0  0  0  0  0  0  0  0  0  0  0
    9.5229  -13.7118   30.2583 O   0  0  0  0  0  0  0  0  0  0  0  0
    9.0862  -13.8388   28.9280 C   0  0  0  0  0  0  0  0  0  0  0  0
    8.3404  -14.9222   28.5797 C   0  0  0  0  0  0  0  0  0  0  0  0
    7.9107  -15.0426   27.2609 C   0  0  0  0  0  0  0  0  0  0  0  0
    8.2105  -14.1096   26.2965 C   0  0  0  0  0  0  0  0  0  0  0  0
    7.7401  -14.2698   24.9200 C   0  0  0  0  0  0  0  0  0  0  0  0
    8.5606  -15.1669   24.0631 C   0  0  2  0  0  0  0  0  0  0  0  0
    8.0195  -15.3182   22.7260 N   0  0  0  0  0  0  0  0  0  0  0  0
    8.8979  -16.4748   24.6351 C   0  0  0  0  0  0  0  0  0  0  0  0
    7.9806  -17.3314   24.8902 O   0  0  0  0  0  0  0  0  0  0  0  0
    8.9718  -13.0200   26.6878 C   0  0  0  0  0  0  0  0  0  0  0  0
    9.4069  -12.8863   27.9977 C   0  0  0  0  0  0  0  0  0  0  0  0
   10.7543  -19.3496   23.3432 C   0  0  0  0  0  0  0  0  0  0  0  0
   11.4937  -18.9199   24.5924 C   0  0  1  0  0  0  0  0  0  0  0  0
   12.5440  -18.1104   24.2379 O   0  0  0  0  0  0  0  0  0  0  0  0
   10.5101  -18.2016   25.5385 C   0  0  2  0  0  0  0  0  0  0  0  0
   10.2093  -16.9141   24.9508 N   0  0  0  0  0  0  0  0  0  0  0  0
   11.2877  -17.9659   26.7800 C   0  0  0  0  0  0  0  0  0  0  0  0
   11.7063  -16.8243   27.1060 O   0  0  0  0  0  0  0  0  0  0  0  0
   11.6048  -18.9920   27.6645 O   0  0  0  0  0  0  0  0  0  0  0  0
  1  2  1  0
  2  3  2  0
  2  4  1  0
  4  5  1  0
  6  5  1  0
  6  7  1  1
  8  9  2  0
  8  6  1  0
 10 11  1  0
 11 21  2  0
 12 11  1  0
 12 13  2  0
 13 14  1  0
 14 15  1  0
 16 15  1  1
 16 17  1  0
 17  8  1  0
 18 16  1  0
 18 26  1  0
 19 18  2  0
 20 14  2  0
 21 20  1  0
 23 22  1  6
 23 25  1  0
 24 23  1  0
 25 26  1  6
 25 27  1  0
 27 29  1  0
 28 27  2  0
M  END
$$$$
