QYT.pdb
     RDKit          3D

 29 29  0  0  1  0  0  0  0  0999 V2000
    9.2332  -12.6412   17.7303 N   0  0  0  0  0  0  0  0  0  0  0  0
    7.9705  -13.2710   17.6007 C   0  0  0  0  0  0  0  0  0  0  0  0
    7.5527  -13.5404   16.4555 O   0  0  0  0  0  0  0  0  0  0  0  0
    7.1624  -13.6024   18.7925 C   0  0  0  0  0  0  0  0  0  0  0  0
    7.9079  -13.5276   20.0867 C   0  0  0  0  0  0  0  0  0  0  0  0
    8.4278  -14.8194   20.6131 C   0  0  2  0  0  0  0  0  0  0  0  0
    7.4134  -15.8757   20.5080 N   0  0  0  0  0  0  0  0  0  0  0  0
    8.9433  -14.7630   22.0029 C   0  0  0  0  0  0  0  0  0  0  0  0
    9.8121  -13.9043   22.2853 O   0  0  0  0  0  0  0  0  0  0  0  0
    6.5880  -10.3620   27.0470 O   0  0  0  0  0  0  0  0  0  0  0  0
    6.9377  -11.6615   26.6400 C   0  0  0  0  0  0  0  0  0  0  0  0
    8.1143  -12.1926   27.0699 C   0  0  0  0  0  0  0  0  0  0  0  0
    8.4553  -13.4798   26.6637 C   0  0  0  0  0  0  0  0  0  0  0  0
    7.6496  -14.2356   25.8451 C   0  0  0  0  0  0  0  0  0  0  0  0
    8.0412  -15.5862   25.4398 C   0  0  0  0  0  0  0  0  0  0  0  0
    9.0723  -15.6602   24.3703 C   0  0  2  0  0  0  0  0  0  0  0  0
    8.5031  -15.6342   23.0366 N   0  0  0  0  0  0  0  0  0  0  0  0
   10.0525  -16.7446   24.4928 C   0  0  0  0  0  0  0  0  0  0  0  0
    9.8771  -17.6899   25.3388 O   0  0  0  0  0  0  0  0  0  0  0  0
    6.4595  -13.6621   25.4273 C   0  0  0  0  0  0  0  0  0  0  0  0
    6.1063  -12.3810   25.8236 C   0  0  0  0  0  0  0  0  0  0  0  0
   10.9578  -19.3970   22.1508 C   0  0  0  0  0  0  0  0  0  0  0  0
   12.2312  -18.6218   22.4140 C   0  0  1  0  0  0  0  0  0  0  0  0
   12.3953  -17.6781   21.4308 O   0  0  0  0  0  0  0  0  0  0  0  0
   12.1516  -17.9821   23.8151 C   0  0  2  0  0  0  0  0  0  0  0  0
   11.2403  -16.8617   23.7261 N   0  0  0  0  0  0  0  0  0  0  0  0
   13.5127  -17.4447   24.0603 C   0  0  0  0  0  0  0  0  0  0  0  0
   13.7630  -16.2111   24.0429 O   0  0  0  0  0  0  0  0  0  0  0  0
   14.6011  -18.2698   24.3253 O   0  0  0  0  0  0  0  0  0  0  0  0
  1  2  1  0
  2  3  2  0
  2  4  1  0
  4  5  1  0
  6  5  1  0
  6  7  1  1
  8  9  2  0
  8  6  1  0
 10 11  1  0
 11 21  2  0
 12 11  1  0
 12 13  2  0
 13 14  1  0
 14 15  1  0
 16 15  1  1
 16 17  1  0
 17  8  1  0
 18 16  1  0
 18 26  1  0
 19 18  2  0
 20 14  2  0
 21 20  1  0
 23 22  1  6
 23 25  1  0
 24 23  1  0
 25 26  1  6
 25 27  1  0
 27 29  1  0
 28 27  2  0
M  END
$$$$
