ECP.pdb
     RDKit          3D

 23 23  0  0  1  0  0  0  0  0999 V2000
    9.4967  -14.7715   20.3533 N   0  0  0  0  0  0  0  0  0  0  0  0
    8.6090  -15.3934   21.2756 C   0  0  1  0  0  0  0  0  0  0  0  0
    8.7462  -16.8604   21.4395 C   0  0  0  0  0  0  0  0  0  0  0  0
   10.0443  -17.3956   21.9021 C   0  0  0  0  0  0  0  0  0  0  0  0
   10.1722  -18.8157   22.1430 C   0  0  0  0  0  0  0  0  0  0  0  0
   11.2018  -19.3702   22.5626 O   0  0  0  0  0  0  0  0  0  0  0  0
    8.7515  -14.7888   22.6488 C   0  0  0  0  0  0  0  0  0  0  0  0
    9.9286  -14.4633   23.0262 O   0  0  0  0  0  0  0  0  0  0  0  0
    9.0866  -19.6826   21.9034 O   0  0  0  0  0  0  0  0  0  0  0  0
    7.6756  -14.5645   23.5308 N   0  0  0  0  0  0  0  0  0  0  0  0
    7.8562  -14.0894   24.8672 C   0  0  1  0  0  0  0  0  0  0  0  0
    6.5717  -13.5162   25.4512 C   0  0  0  0  0  0  0  0  0  0  0  0
    6.5277  -13.7156   27.2527 S   0  0  0  0  0  0  0  0  0  0  0  0
    8.5364  -14.9755   25.8048 C   0  0  0  0  0  0  0  0  0  0  0  0
    8.6055  -16.2171   25.4474 O   0  0  0  0  0  0  0  0  0  0  0  0
    9.1306  -14.6697   27.0512 N   0  0  0  0  0  0  0  0  0  0  0  0
    8.8760  -13.6349   28.0234 C   0  0  0  0  0  0  0  0  0  0  0  0
   10.2998  -13.1238   28.2461 C   0  0  0  0  0  0  0  0  0  0  0  0
   11.1557  -14.3664   28.1601 C   0  0  0  0  0  0  0  0  0  0  0  0
   10.2429  -15.4336   27.6451 C   0  0  1  0  0  0  0  0  0  0  0  0
    9.7749  -16.2962   28.7422 C   0  0  0  0  0  0  0  0  0  0  0  0
    8.4335  -16.3491   29.1290 O   0  0  0  0  0  0  0  0  0  0  0  0
   10.5592  -17.0264   29.3836 O   0  0  0  0  0  0  0  0  0  0  0  0
  2  1  1  6
  2  7  1  0
  3  4  1  0
  3  2  1  0
  4  5  1  0
  5  6  2  0
  7  8  2  0
  9  5  1  0
 10  7  1  0
 10 11  1  0
 11 14  1  0
 12 13  1  0
 11 12  1  1
 14 16  1  0
 15 14  2  0
 16 17  1  0
 16 20  1  0
 17 18  1  0
 18 19  1  0
 20 19  1  0
 20 21  1  1
 21 22  1  0
 23 21  2  0
M  END
$$$$
