ECP.pdb
     RDKit          3D

 23 23  0  0  1  0  0  0  0  0999 V2000
   11.9332  -15.5376   19.8904 N   0  0  0  0  0  0  0  0  0  0  0  0
   11.4205  -16.1936   21.0446 C   0  0  1  0  0  0  0  0  0  0  0  0
   12.4118  -16.6028   22.0682 C   0  0  0  0  0  0  0  0  0  0  0  0
   13.5781  -15.7257   22.3045 C   0  0  0  0  0  0  0  0  0  0  0  0
   14.5890  -16.1418   23.2510 C   0  0  0  0  0  0  0  0  0  0  0  0
   14.6731  -15.7300   24.4201 O   0  0  0  0  0  0  0  0  0  0  0  0
   10.4045  -15.3295   21.7464 C   0  0  0  0  0  0  0  0  0  0  0  0
   10.6667  -14.0826   21.8485 O   0  0  0  0  0  0  0  0  0  0  0  0
   15.5750  -17.0782   22.8790 O   0  0  0  0  0  0  0  0  0  0  0  0
    9.1968  -15.8103   22.2904 N   0  0  0  0  0  0  0  0  0  0  0  0
    8.2801  -14.9735   23.0001 C   0  0  1  0  0  0  0  0  0  0  0  0
    6.8312  -15.2752   22.6409 C   0  0  0  0  0  0  0  0  0  0  0  0
    6.2520  -16.7789   23.4719 S   0  0  0  0  0  0  0  0  0  0  0  0
    8.4717  -14.8438   24.4401 C   0  0  0  0  0  0  0  0  0  0  0  0
    9.5231  -15.4280   24.9168 O   0  0  0  0  0  0  0  0  0  0  0  0
    7.6694  -14.1703   25.3903 N   0  0  0  0  0  0  0  0  0  0  0  0
    6.4209  -13.4563   25.2791 C   0  0  0  0  0  0  0  0  0  0  0  0
    6.7843  -12.1693   26.0207 C   0  0  0  0  0  0  0  0  0  0  0  0
    7.6926  -12.6305   27.1370 C   0  0  0  0  0  0  0  0  0  0  0  0
    8.0029  -14.0595   26.8221 C   0  0  1  0  0  0  0  0  0  0  0  0
    7.1771  -14.9660   27.6363 C   0  0  0  0  0  0  0  0  0  0  0  0
    7.5213  -15.3158   28.9444 O   0  0  0  0  0  0  0  0  0  0  0  0
    6.1229  -15.4689   27.1942 O   0  0  0  0  0  0  0  0  0  0  0  0
  2  1  1  6
  2  7  1  0
  3  4  1  0
  3  2  1  0
  4  5  1  0
  5  6  2  0
  7  8  2  0
  9  5  1  0
 10  7  1  0
 10 11  1  0
 11 14  1  0
 12 13  1  0
 11 12  1  1
 14 16  1  0
 15 14  2  0
 16 17  1  0
 16 20  1  0
 17 18  1  0
 18 19  1  0
 20 19  1  0
 20 21  1  1
 21 22  1  0
 23 21  2  0
M  END
$$$$
