ECP.pdb
     RDKit          3D

 23 23  0  0  1  0  0  0  0  0999 V2000
    9.1173  -18.6450   21.2029 N   0  0  0  0  0  0  0  0  0  0  0  0
    9.8019  -17.3979   21.1663 C   0  0  1  0  0  0  0  0  0  0  0  0
    9.7060  -16.6271   19.9036 C   0  0  0  0  0  0  0  0  0  0  0  0
    8.9767  -17.2304   18.7679 C   0  0  0  0  0  0  0  0  0  0  0  0
    9.4302  -16.9630   17.4211 C   0  0  0  0  0  0  0  0  0  0  0  0
   10.1347  -17.7336   16.7478 O   0  0  0  0  0  0  0  0  0  0  0  0
    9.3195  -16.4882   22.2669 C   0  0  0  0  0  0  0  0  0  0  0  0
    9.9052  -15.3589   22.3923 O   0  0  0  0  0  0  0  0  0  0  0  0
    9.0804  -15.7603   16.7740 O   0  0  0  0  0  0  0  0  0  0  0  0
    8.2731  -16.8062   23.1555 N   0  0  0  0  0  0  0  0  0  0  0  0
    7.9756  -16.0219   24.3134 C   0  0  1  0  0  0  0  0  0  0  0  0
    6.6194  -16.3726   24.9113 C   0  0  0  0  0  0  0  0  0  0  0  0
    6.7980  -17.5080   26.3134 S   0  0  0  0  0  0  0  0  0  0  0  0
    9.0128  -15.9164   25.3332 C   0  0  0  0  0  0  0  0  0  0  0  0
   10.0649  -16.6430   25.1347 O   0  0  0  0  0  0  0  0  0  0  0  0
    9.0311  -15.1325   26.5101 N   0  0  0  0  0  0  0  0  0  0  0  0
    8.0260  -14.3261   27.1585 C   0  0  0  0  0  0  0  0  0  0  0  0
    8.8191  -13.0368   27.3749 C   0  0  0  0  0  0  0  0  0  0  0  0
   10.2188  -13.5127   27.6884 C   0  0  0  0  0  0  0  0  0  0  0  0
   10.2112  -14.9763   27.3799 C   0  0  1  0  0  0  0  0  0  0  0  0
   10.0775  -15.7702   28.6122 C   0  0  0  0  0  0  0  0  0  0  0  0
   11.1176  -15.8929   29.5369 O   0  0  0  0  0  0  0  0  0  0  0  0
    9.0216  -16.3756   28.8919 O   0  0  0  0  0  0  0  0  0  0  0  0
  2  1  1  6
  2  7  1  0
  3  4  1  0
  3  2  1  0
  4  5  1  0
  5  6  2  0
  7  8  2  0
  9  5  1  0
 10  7  1  0
 10 11  1  0
 11 14  1  0
 12 13  1  0
 11 12  1  1
 14 16  1  0
 15 14  2  0
 16 17  1  0
 16 20  1  0
 17 18  1  0
 18 19  1  0
 20 19  1  0
 20 21  1  1
 21 22  1  0
 23 21  2  0
M  END
$$$$
