ECP.pdb
     RDKit          3D

 23 23  0  0  1  0  0  0  0  0999 V2000
    9.6146  -15.2566   20.2498 N   0  0  0  0  0  0  0  0  0  0  0  0
    8.7644  -15.8043   21.2510 C   0  0  1  0  0  0  0  0  0  0  0  0
    8.8870  -17.2608   21.4989 C   0  0  0  0  0  0  0  0  0  0  0  0
   10.1199  -17.9458   21.0561 C   0  0  0  0  0  0  0  0  0  0  0  0
   10.9470  -18.6080   22.0402 C   0  0  0  0  0  0  0  0  0  0  0  0
   10.5511  -19.4990   22.8101 O   0  0  0  0  0  0  0  0  0  0  0  0
    8.9842  -15.1194   22.5755 C   0  0  0  0  0  0  0  0  0  0  0  0
   10.1754  -14.7469   22.8516 O   0  0  0  0  0  0  0  0  0  0  0  0
   12.3059  -18.2608   22.1829 O   0  0  0  0  0  0  0  0  0  0  0  0
    7.9654  -14.8691   23.5162 N   0  0  0  0  0  0  0  0  0  0  0  0
    8.2237  -14.3105   24.8068 C   0  0  1  0  0  0  0  0  0  0  0  0
    6.9836  -13.6658   25.4119 C   0  0  0  0  0  0  0  0  0  0  0  0
    6.2917  -14.6955   26.7341 S   0  0  0  0  0  0  0  0  0  0  0  0
    8.9294  -15.1495   25.7686 C   0  0  0  0  0  0  0  0  0  0  0  0
    9.1469  -16.3677   25.3907 O   0  0  0  0  0  0  0  0  0  0  0  0
    9.4090  -14.8201   27.0576 N   0  0  0  0  0  0  0  0  0  0  0  0
    9.0300  -13.8019   28.0067 C   0  0  0  0  0  0  0  0  0  0  0  0
   10.4060  -13.2243   28.3399 C   0  0  0  0  0  0  0  0  0  0  0  0
   11.3243  -14.4245   28.3216 C   0  0  0  0  0  0  0  0  0  0  0  0
   10.5067  -15.5322   27.7370 C   0  0  1  0  0  0  0  0  0  0  0  0
    9.9960  -16.4199   28.7944 C   0  0  0  0  0  0  0  0  0  0  0  0
    8.6319  -16.5443   29.0693 O   0  0  0  0  0  0  0  0  0  0  0  0
   10.7622  -17.1083   29.5005 O   0  0  0  0  0  0  0  0  0  0  0  0
  2  1  1  6
  2  7  1  0
  3  4  1  0
  3  2  1  0
  4  5  1  0
  5  6  2  0
  7  8  2  0
  9  5  1  0
 10  7  1  0
 10 11  1  0
 11 14  1  0
 12 13  1  0
 11 12  1  1
 14 16  1  0
 15 14  2  0
 16 17  1  0
 16 20  1  0
 17 18  1  0
 18 19  1  0
 20 19  1  0
 20 21  1  1
 21 22  1  0
 23 21  2  0
M  END
$$$$
