ECP.pdb
     RDKit          3D

 23 23  0  0  1  0  0  0  0  0999 V2000
   11.1934  -16.5055   20.3216 N   0  0  0  0  0  0  0  0  0  0  0  0
   11.2042  -17.1861   21.5713 C   0  0  1  0  0  0  0  0  0  0  0  0
   12.5350  -17.4573   22.1657 C   0  0  0  0  0  0  0  0  0  0  0  0
   13.5741  -16.4107   22.0647 C   0  0  0  0  0  0  0  0  0  0  0  0
   14.8941  -16.6792   22.5907 C   0  0  0  0  0  0  0  0  0  0  0  0
   15.2358  -17.7457   23.1284 O   0  0  0  0  0  0  0  0  0  0  0  0
   10.4154  -16.4236   22.6048 C   0  0  0  0  0  0  0  0  0  0  0  0
   10.4396  -15.1475   22.5358 O   0  0  0  0  0  0  0  0  0  0  0  0
   15.9061  -15.7004   22.5170 O   0  0  0  0  0  0  0  0  0  0  0  0
    9.6621  -17.0283   23.6307 N   0  0  0  0  0  0  0  0  0  0  0  0
    9.0445  -16.2803   24.6812 C   0  0  1  0  0  0  0  0  0  0  0  0
    7.6449  -16.7885   25.0015 C   0  0  0  0  0  0  0  0  0  0  0  0
    6.8309  -17.4386   23.5176 S   0  0  0  0  0  0  0  0  0  0  0  0
    9.8315  -16.0469   25.8867 C   0  0  0  0  0  0  0  0  0  0  0  0
   10.9985  -16.6052   25.9066 O   0  0  0  0  0  0  0  0  0  0  0  0
    9.4988  -15.2969   27.0386 N   0  0  0  0  0  0  0  0  0  0  0  0
    8.3465  -14.4999   27.3823 C   0  0  0  0  0  0  0  0  0  0  0  0
    9.0397  -13.2247   27.8632 C   0  0  0  0  0  0  0  0  0  0  0  0
   10.2824  -13.7222   28.5647 C   0  0  0  0  0  0  0  0  0  0  0  0
   10.3665  -15.1764   28.2243 C   0  0  1  0  0  0  0  0  0  0  0  0
    9.8717  -16.0036   29.3368 C   0  0  0  0  0  0  0  0  0  0  0  0
   10.6306  -16.2396   30.4858 O   0  0  0  0  0  0  0  0  0  0  0  0
    8.7430  -16.5373   29.3066 O   0  0  0  0  0  0  0  0  0  0  0  0
  2  1  1  6
  2  7  1  0
  3  4  1  0
  3  2  1  0
  4  5  1  0
  5  6  2  0
  7  8  2  0
  9  5  1  0
 10  7  1  0
 10 11  1  0
 11 14  1  0
 12 13  1  0
 11 12  1  1
 14 16  1  0
 15 14  2  0
 16 17  1  0
 16 20  1  0
 17 18  1  0
 18 19  1  0
 20 19  1  0
 20 21  1  1
 21 22  1  0
 23 21  2  0
M  END
$$$$
