ECP.pdb
     RDKit          3D

 23 23  0  0  1  0  0  0  0  0999 V2000
    8.9919  -15.2349   19.9748 N   0  0  0  0  0  0  0  0  0  0  0  0
    8.6587  -16.0348   21.1037 C   0  0  1  0  0  0  0  0  0  0  0  0
    9.4741  -17.2549   21.3141 C   0  0  0  0  0  0  0  0  0  0  0  0
   10.9364  -17.1633   21.1168 C   0  0  0  0  0  0  0  0  0  0  0  0
   11.7483  -18.3410   21.3285 C   0  0  0  0  0  0  0  0  0  0  0  0
   12.7806  -18.3714   22.0191 O   0  0  0  0  0  0  0  0  0  0  0  0
    8.7457  -15.2309   22.3757 C   0  0  0  0  0  0  0  0  0  0  0  0
    9.6990  -14.3845   22.4696 O   0  0  0  0  0  0  0  0  0  0  0  0
   11.3942  -19.5701   20.7356 O   0  0  0  0  0  0  0  0  0  0  0  0
    7.8484  -15.3567   23.4549 N   0  0  0  0  0  0  0  0  0  0  0  0
    8.0092  -14.6420   24.6827 C   0  0  1  0  0  0  0  0  0  0  0  0
    6.6723  -14.2506   25.2984 C   0  0  0  0  0  0  0  0  0  0  0  0
    6.6541  -14.5778   27.0816 S   0  0  0  0  0  0  0  0  0  0  0  0
    8.9222  -15.2070   25.6697 C   0  0  0  0  0  0  0  0  0  0  0  0
    9.4729  -16.3304   25.3400 O   0  0  0  0  0  0  0  0  0  0  0  0
    9.2903  -14.7008   26.9379 N   0  0  0  0  0  0  0  0  0  0  0  0
    8.7634  -13.6309   27.7496 C   0  0  0  0  0  0  0  0  0  0  0  0
   10.0587  -12.8919   28.0879 C   0  0  0  0  0  0  0  0  0  0  0  0
   11.0811  -13.9933   28.2476 C   0  0  0  0  0  0  0  0  0  0  0  0
   10.4042  -15.2294   27.7462 C   0  0  1  0  0  0  0  0  0  0  0  0
    9.9122  -16.0476   28.8666 C   0  0  0  0  0  0  0  0  0  0  0  0
   10.7739  -16.7574   29.7065 O   0  0  0  0  0  0  0  0  0  0  0  0
    8.6937  -16.1469   29.1215 O   0  0  0  0  0  0  0  0  0  0  0  0
  2  1  1  6
  2  7  1  0
  3  4  1  0
  3  2  1  0
  4  5  1  0
  5  6  2  0
  7  8  2  0
  9  5  1  0
 10  7  1  0
 10 11  1  0
 11 14  1  0
 12 13  1  0
 11 12  1  1
 14 16  1  0
 15 14  2  0
 16 17  1  0
 16 20  1  0
 17 18  1  0
 18 19  1  0
 20 19  1  0
 20 21  1  1
 21 22  1  0
 23 21  2  0
M  END
$$$$
