ECP.pdb
     RDKit          3D

 23 23  0  0  1  0  0  0  0  0999 V2000
    8.8837  -14.5385   20.3016 N   0  0  0  0  0  0  0  0  0  0  0  0
    8.1541  -15.1785   21.3424 C   0  0  1  0  0  0  0  0  0  0  0  0
    8.3707  -16.6363   21.5026 C   0  0  0  0  0  0  0  0  0  0  0  0
    9.7568  -17.1481   21.4567 C   0  0  0  0  0  0  0  0  0  0  0  0
    9.9800  -18.5758   21.5102 C   0  0  0  0  0  0  0  0  0  0  0  0
    9.9071  -19.3384   20.5321 O   0  0  0  0  0  0  0  0  0  0  0  0
    8.4561  -14.5464   22.6769 C   0  0  0  0  0  0  0  0  0  0  0  0
    9.6809  -14.2939   22.9416 O   0  0  0  0  0  0  0  0  0  0  0  0
   10.3063  -19.2037   22.7295 O   0  0  0  0  0  0  0  0  0  0  0  0
    7.4787  -14.2217   23.6386 N   0  0  0  0  0  0  0  0  0  0  0  0
    7.8064  -13.8380   24.9764 C   0  0  1  0  0  0  0  0  0  0  0  0
    6.5992  -13.2958   25.7302 C   0  0  0  0  0  0  0  0  0  0  0  0
    6.8841  -13.3165   27.5206 S   0  0  0  0  0  0  0  0  0  0  0  0
    8.5692  -14.7895   25.7762 C   0  0  0  0  0  0  0  0  0  0  0  0
    8.6485  -15.9867   25.2918 O   0  0  0  0  0  0  0  0  0  0  0  0
    9.2343  -14.5891   27.0081 N   0  0  0  0  0  0  0  0  0  0  0  0
    9.1212  -13.5678   28.0207 C   0  0  0  0  0  0  0  0  0  0  0  0
   10.5969  -13.2124   28.2052 C   0  0  0  0  0  0  0  0  0  0  0  0
   11.3167  -14.5321   28.0487 C   0  0  0  0  0  0  0  0  0  0  0  0
   10.2816  -15.4824   27.5359 C   0  0  1  0  0  0  0  0  0  0  0  0
    9.7651  -16.3301   28.6228 C   0  0  0  0  0  0  0  0  0  0  0  0
   10.5375  -17.3290   29.2207 O   0  0  0  0  0  0  0  0  0  0  0  0
    8.6050  -16.1962   29.0651 O   0  0  0  0  0  0  0  0  0  0  0  0
  2  1  1  6
  2  7  1  0
  3  4  1  0
  3  2  1  0
  4  5  1  0
  5  6  2  0
  7  8  2  0
  9  5  1  0
 10  7  1  0
 10 11  1  0
 11 14  1  0
 12 13  1  0
 11 12  1  1
 14 16  1  0
 15 14  2  0
 16 17  1  0
 16 20  1  0
 17 18  1  0
 18 19  1  0
 20 19  1  0
 20 21  1  1
 21 22  1  0
 23 21  2  0
M  END
$$$$
