ECP.pdb
     RDKit          3D

 23 23  0  0  1  0  0  0  0  0999 V2000
    8.8856  -14.2988   20.2780 N   0  0  0  0  0  0  0  0  0  0  0  0
    8.1800  -15.0364   21.2697 C   0  0  1  0  0  0  0  0  0  0  0  0
    8.4464  -16.4937   21.3251 C   0  0  0  0  0  0  0  0  0  0  0  0
    9.8515  -16.9469   21.4008 C   0  0  0  0  0  0  0  0  0  0  0  0
   10.1350  -18.3643   21.3598 C   0  0  0  0  0  0  0  0  0  0  0  0
   10.4058  -19.0000   20.3273 O   0  0  0  0  0  0  0  0  0  0  0  0
    8.4625  -14.4916   22.6463 C   0  0  0  0  0  0  0  0  0  0  0  0
    9.6659  -14.1456   22.9036 O   0  0  0  0  0  0  0  0  0  0  0  0
   10.1179  -19.1317   22.5422 O   0  0  0  0  0  0  0  0  0  0  0  0
    7.4892  -14.3436   23.6545 N   0  0  0  0  0  0  0  0  0  0  0  0
    7.8060  -13.9045   24.9778 C   0  0  1  0  0  0  0  0  0  0  0  0
    6.6017  -13.2964   25.6845 C   0  0  0  0  0  0  0  0  0  0  0  0
    6.7365  -13.4842   27.4828 S   0  0  0  0  0  0  0  0  0  0  0  0
    8.5312  -14.8355   25.8347 C   0  0  0  0  0  0  0  0  0  0  0  0
    8.5818  -16.0574   25.4120 O   0  0  0  0  0  0  0  0  0  0  0  0
    9.1865  -14.5920   27.0640 N   0  0  0  0  0  0  0  0  0  0  0  0
    8.9766  -13.6123   28.1019 C   0  0  0  0  0  0  0  0  0  0  0  0
   10.4073  -13.1028   28.2793 C   0  0  0  0  0  0  0  0  0  0  0  0
   11.2638  -14.3326   28.0838 C   0  0  0  0  0  0  0  0  0  0  0  0
   10.3314  -15.3778   27.5592 C   0  0  1  0  0  0  0  0  0  0  0  0
    9.9241  -16.3011   28.6309 C   0  0  0  0  0  0  0  0  0  0  0  0
   10.8149  -17.2048   29.2153 O   0  0  0  0  0  0  0  0  0  0  0  0
    8.7557  -16.3210   29.0716 O   0  0  0  0  0  0  0  0  0  0  0  0
  2  1  1  6
  2  7  1  0
  3  4  1  0
  3  2  1  0
  4  5  1  0
  5  6  2  0
  7  8  2  0
  9  5  1  0
 10  7  1  0
 10 11  1  0
 11 14  1  0
 12 13  1  0
 11 12  1  1
 14 16  1  0
 15 14  2  0
 16 17  1  0
 16 20  1  0
 17 18  1  0
 18 19  1  0
 20 19  1  0
 20 21  1  1
 21 22  1  0
 23 21  2  0
M  END
$$$$
