ECP.pdb
     RDKit          3D

 23 23  0  0  1  0  0  0  0  0999 V2000
    8.6320  -14.9546   20.0788 N   0  0  0  0  0  0  0  0  0  0  0  0
    8.0289  -15.5526   21.2206 C   0  0  1  0  0  0  0  0  0  0  0  0
    8.3036  -16.9935   21.4357 C   0  0  0  0  0  0  0  0  0  0  0  0
    9.6554  -17.5036   21.1228 C   0  0  0  0  0  0  0  0  0  0  0  0
    9.9200  -18.9188   21.2572 C   0  0  0  0  0  0  0  0  0  0  0  0
   10.2106  -19.4840   22.3247 O   0  0  0  0  0  0  0  0  0  0  0  0
    8.4431  -14.8395   22.4821 C   0  0  0  0  0  0  0  0  0  0  0  0
    9.6644  -14.4737   22.5740 O   0  0  0  0  0  0  0  0  0  0  0  0
    9.8591  -19.7678   20.1334 O   0  0  0  0  0  0  0  0  0  0  0  0
    7.5730  -14.5562   23.5537 N   0  0  0  0  0  0  0  0  0  0  0  0
    8.0294  -14.0355   24.8047 C   0  0  1  0  0  0  0  0  0  0  0  0
    6.9240  -13.3130   25.5634 C   0  0  0  0  0  0  0  0  0  0  0  0
    5.8044  -14.4922   26.3654 S   0  0  0  0  0  0  0  0  0  0  0  0
    8.7869  -14.9358   25.6663 C   0  0  0  0  0  0  0  0  0  0  0  0
    9.0669  -16.0912   25.1556 O   0  0  0  0  0  0  0  0  0  0  0  0
    9.2583  -14.7251   26.9830 N   0  0  0  0  0  0  0  0  0  0  0  0
    8.8649  -13.8054   28.0224 C   0  0  0  0  0  0  0  0  0  0  0  0
   10.2335  -13.2478   28.4153 C   0  0  0  0  0  0  0  0  0  0  0  0
   11.1647  -14.4314   28.2876 C   0  0  0  0  0  0  0  0  0  0  0  0
   10.3610  -15.4870   27.5970 C   0  0  1  0  0  0  0  0  0  0  0  0
    9.8560  -16.4761   28.5631 C   0  0  0  0  0  0  0  0  0  0  0  0
   10.6982  -17.3834   29.2108 O   0  0  0  0  0  0  0  0  0  0  0  0
    8.6434  -16.5520   28.8519 O   0  0  0  0  0  0  0  0  0  0  0  0
  2  1  1  6
  2  7  1  0
  3  4  1  0
  3  2  1  0
  4  5  1  0
  5  6  2  0
  7  8  2  0
  9  5  1  0
 10  7  1  0
 10 11  1  0
 11 14  1  0
 12 13  1  0
 11 12  1  1
 14 16  1  0
 15 14  2  0
 16 17  1  0
 16 20  1  0
 17 18  1  0
 18 19  1  0
 20 19  1  0
 20 21  1  1
 21 22  1  0
 23 21  2  0
M  END
$$$$
