ECP.pdb
     RDKit          3D

 23 23  0  0  1  0  0  0  0  0999 V2000
   10.1688  -18.8389   21.5622 N   0  0  0  0  0  0  0  0  0  0  0  0
   10.4230  -17.4664   21.2847 C   0  0  1  0  0  0  0  0  0  0  0  0
   10.2440  -17.0313   19.8789 C   0  0  0  0  0  0  0  0  0  0  0  0
    9.0800  -17.5480   19.1281 C   0  0  0  0  0  0  0  0  0  0  0  0
    8.8278  -17.0498   17.7942 C   0  0  0  0  0  0  0  0  0  0  0  0
    7.9066  -17.4402   17.0578 O   0  0  0  0  0  0  0  0  0  0  0  0
    9.5466  -16.5767   22.1286 C   0  0  0  0  0  0  0  0  0  0  0  0
    9.6314  -15.3163   21.9339 O   0  0  0  0  0  0  0  0  0  0  0  0
    9.6514  -16.0510   17.2360 O   0  0  0  0  0  0  0  0  0  0  0  0
    8.6501  -17.0479   23.1083 N   0  0  0  0  0  0  0  0  0  0  0  0
    7.9952  -16.1820   24.0388 C   0  0  1  0  0  0  0  0  0  0  0  0
    6.6887  -16.7733   24.5517 C   0  0  0  0  0  0  0  0  0  0  0  0
    6.2579  -18.2856   23.6492 S   0  0  0  0  0  0  0  0  0  0  0  0
    8.8046  -15.6252   25.1166 C   0  0  0  0  0  0  0  0  0  0  0  0
   10.0431  -15.9996   25.1334 O   0  0  0  0  0  0  0  0  0  0  0  0
    8.4270  -14.7340   26.1477 N   0  0  0  0  0  0  0  0  0  0  0  0
    7.1532  -14.1811   26.5387 C   0  0  0  0  0  0  0  0  0  0  0  0
    7.5252  -12.7012   26.6372 C   0  0  0  0  0  0  0  0  0  0  0  0
    8.9348  -12.7105   27.1823 C   0  0  0  0  0  0  0  0  0  0  0  0
    9.3705  -14.1397   27.1121 C   0  0  1  0  0  0  0  0  0  0  0  0
    9.2654  -14.7842   28.4313 C   0  0  0  0  0  0  0  0  0  0  0  0
   10.1773  -14.5321   29.4593 O   0  0  0  0  0  0  0  0  0  0  0  0
    8.3507  -15.5921   28.6964 O   0  0  0  0  0  0  0  0  0  0  0  0
  2  1  1  6
  2  7  1  0
  3  4  1  0
  3  2  1  0
  4  5  1  0
  5  6  2  0
  7  8  2  0
  9  5  1  0
 10  7  1  0
 10 11  1  0
 11 14  1  0
 12 13  1  0
 11 12  1  1
 14 16  1  0
 15 14  2  0
 16 17  1  0
 16 20  1  0
 17 18  1  0
 18 19  1  0
 20 19  1  0
 20 21  1  1
 21 22  1  0
 23 21  2  0
M  END
$$$$
