GMH.pdb
     RDKit          3D

 23 23  0  0  1  0  0  0  0  0999 V2000
    8.6263  -16.9763   19.7322 N   0  0  0  0  0  0  0  0  0  0  0  0
    7.5746  -16.7086   20.7020 C   0  0  0  0  0  0  0  0  0  0  0  0
    8.1841  -15.9562   21.8300 C   0  0  0  0  0  0  0  0  0  0  0  0
    9.4429  -15.8568   21.9641 O   0  0  0  0  0  0  0  0  0  0  0  0
    7.4992  -10.9851   27.8533 C   0  0  0  0  0  0  0  0  0  0  0  0
    6.5776  -11.9707   26.6263 S   0  0  0  0  0  0  0  0  0  0  0  0
    7.7494  -13.0943   25.8294 C   0  0  0  0  0  0  0  0  0  0  0  0
    6.9904  -13.8311   24.7376 C   0  0  0  0  0  0  0  0  0  0  0  0
    7.9943  -14.7104   24.0028 C   0  0  2  0  0  0  0  0  0  0  0  0
    7.4033  -15.3052   22.8228 N   0  0  0  0  0  0  0  0  0  0  0  0
    8.4293  -15.7442   24.9735 C   0  0  0  0  0  0  0  0  0  0  0  0
    7.6439  -16.6742   25.2759 O   0  0  0  0  0  0  0  0  0  0  0  0
    9.7015  -15.7007   25.5587 N   0  0  0  0  0  0  0  0  0  0  0  0
   10.2558  -16.7364   26.4157 C   0  0  1  0  0  0  0  0  0  0  0  0
   11.7352  -16.8249   26.0561 C   0  0  0  0  0  0  0  0  0  0  0  0
   11.9797  -17.6117   24.8361 C   0  0  0  0  0  0  0  0  0  0  0  0
   11.0838  -18.4507   24.1995 C   0  0  0  0  0  0  0  0  0  0  0  0
   11.6910  -18.9831   23.1191 N   0  0  0  0  0  0  0  0  0  0  0  0
   12.9362  -18.5132   23.0479 C   0  0  0  0  0  0  0  0  0  0  0  0
   13.1115  -17.6809   24.0898 N   0  0  0  0  0  0  0  0  0  0  0  0
   10.0922  -16.2564   27.8244 C   0  0  0  0  0  0  0  0  0  0  0  0
   10.4390  -17.0333   28.9198 O   0  0  0  0  0  0  0  0  0  0  0  0
    9.6212  -15.0990   28.0730 O   0  0  0  0  0  0  0  0  0  0  0  0
  2  3  1  0
  2  1  1  0
  3 10  1  0
  4  3  2  0
  6  5  1  0
  7  8  1  0
  7  6  1  0
  9  8  1  1
  9 11  1  0
 10  9  1  0
 11 13  1  0
 11 12  2  0
 13 14  1  0
 14 21  1  0
 14 15  1  6
 16 15  1  0
 16 17  2  0
 18 17  1  0
 19 18  1  0
 20 19  2  0
 20 16  1  0
 21 22  1  0
 23 21  2  0
M  END
$$$$
