GMH.pdb
     RDKit          3D

 23 23  0  0  1  0  0  0  0  0999 V2000
    4.2714  -20.1899   22.0345 N   0  0  0  0  0  0  0  0  0  0  0  0
    4.3532  -18.9518   22.7949 C   0  0  0  0  0  0  0  0  0  0  0  0
    5.5946  -18.2487   22.3772 C   0  0  0  0  0  0  0  0  0  0  0  0
    6.6554  -18.8826   22.0850 O   0  0  0  0  0  0  0  0  0  0  0  0
    9.1591  -11.7599   19.7786 C   0  0  0  0  0  0  0  0  0  0  0  0
    7.5829  -12.4899   20.3344 S   0  0  0  0  0  0  0  0  0  0  0  0
    7.9288  -14.1635   20.9261 C   0  0  0  0  0  0  0  0  0  0  0  0
    6.6249  -14.7232   21.4717 C   0  0  0  0  0  0  0  0  0  0  0  0
    6.9004  -16.1507   21.9268 C   0  0  2  0  0  0  0  0  0  0  0  0
    5.6734  -16.8333   22.2790 N   0  0  0  0  0  0  0  0  0  0  0  0
    7.8177  -16.0467   23.0877 C   0  0  0  0  0  0  0  0  0  0  0  0
    7.3466  -15.8068   24.2252 O   0  0  0  0  0  0  0  0  0  0  0  0
    9.2008  -16.2114   22.9369 N   0  0  0  0  0  0  0  0  0  0  0  0
   10.1397  -16.3847   24.0335 C   0  0  1  0  0  0  0  0  0  0  0  0
   10.0102  -17.8417   24.4646 C   0  0  0  0  0  0  0  0  0  0  0  0
    9.6876  -17.9875   25.8935 C   0  0  0  0  0  0  0  0  0  0  0  0
    9.4653  -16.9670   26.7996 C   0  0  0  0  0  0  0  0  0  0  0  0
    9.1997  -17.5149   28.0032 N   0  0  0  0  0  0  0  0  0  0  0  0
    9.2455  -18.8424   27.8932 C   0  0  0  0  0  0  0  0  0  0  0  0
    9.5415  -19.1293   26.6130 N   0  0  0  0  0  0  0  0  0  0  0  0
   11.5036  -16.1294   23.4711 C   0  0  0  0  0  0  0  0  0  0  0  0
   11.7649  -16.1637   22.1094 O   0  0  0  0  0  0  0  0  0  0  0  0
   12.4897  -15.8671   24.2341 O   0  0  0  0  0  0  0  0  0  0  0  0
  2  3  1  0
  2  1  1  0
  3 10  1  0
  4  3  2  0
  6  5  1  0
  7  8  1  0
  7  6  1  0
  9  8  1  1
  9 11  1  0
 10  9  1  0
 11 13  1  0
 11 12  2  0
 13 14  1  0
 14 21  1  0
 14 15  1  6
 16 15  1  0
 16 17  2  0
 18 17  1  0
 19 18  1  0
 20 19  2  0
 20 16  1  0
 21 22  1  0
 23 21  2  0
M  END
$$$$
