GMH.pdb
     RDKit          3D

 23 23  0  0  1  0  0  0  0  0999 V2000
    5.3930  -19.2091   21.8802 N   0  0  0  0  0  0  0  0  0  0  0  0
    5.2345  -18.2631   22.9747 C   0  0  0  0  0  0  0  0  0  0  0  0
    6.3445  -17.2787   22.8825 C   0  0  0  0  0  0  0  0  0  0  0  0
    7.2491  -17.3726   21.9963 O   0  0  0  0  0  0  0  0  0  0  0  0
    6.8730  -11.7569   27.7491 C   0  0  0  0  0  0  0  0  0  0  0  0
    6.6613  -12.0127   25.9557 S   0  0  0  0  0  0  0  0  0  0  0  0
    7.2314  -13.6842   25.5663 C   0  0  0  0  0  0  0  0  0  0  0  0
    7.1537  -13.8427   24.0563 C   0  0  0  0  0  0  0  0  0  0  0  0
    7.5868  -15.2657   23.7276 C   0  0  2  0  0  0  0  0  0  0  0  0
    6.4638  -16.1780   23.7732 N   0  0  0  0  0  0  0  0  0  0  0  0
    8.6216  -15.6262   24.7272 C   0  0  0  0  0  0  0  0  0  0  0  0
    8.2811  -15.8454   25.9144 O   0  0  0  0  0  0  0  0  0  0  0  0
    9.9725  -15.7263   24.3696 N   0  0  0  0  0  0  0  0  0  0  0  0
   10.9313  -16.6237   24.9939 C   0  0  1  0  0  0  0  0  0  0  0  0
   10.4897  -18.0328   24.6134 C   0  0  0  0  0  0  0  0  0  0  0  0
    9.5826  -18.6337   25.6050 C   0  0  0  0  0  0  0  0  0  0  0  0
    9.4253  -18.2474   26.9232 C   0  0  0  0  0  0  0  0  0  0  0  0
    8.5010  -19.0463   27.4950 N   0  0  0  0  0  0  0  0  0  0  0  0
    8.0678  -19.9229   26.5892 C   0  0  0  0  0  0  0  0  0  0  0  0
    8.7240  -19.6725   25.4422 N   0  0  0  0  0  0  0  0  0  0  0  0
   12.2634  -16.3151   24.3840 C   0  0  0  0  0  0  0  0  0  0  0  0
   12.3915  -15.6357   23.1816 O   0  0  0  0  0  0  0  0  0  0  0  0
   13.3452  -16.6705   24.9557 O   0  0  0  0  0  0  0  0  0  0  0  0
  2  3  1  0
  2  1  1  0
  3 10  1  0
  4  3  2  0
  6  5  1  0
  7  8  1  0
  7  6  1  0
  9  8  1  1
  9 11  1  0
 10  9  1  0
 11 13  1  0
 11 12  2  0
 13 14  1  0
 14 21  1  0
 14 15  1  6
 16 15  1  0
 16 17  2  0
 18 17  1  0
 19 18  1  0
 20 19  2  0
 20 16  1  0
 21 22  1  0
 23 21  2  0
M  END
$$$$
