GMH.pdb
     RDKit          3D

 23 23  0  0  1  0  0  0  0  0999 V2000
    8.1504  -16.0742   20.2354 N   0  0  0  0  0  0  0  0  0  0  0  0
    7.0883  -15.6916   21.1539 C   0  0  0  0  0  0  0  0  0  0  0  0
    7.7075  -15.4581   22.4851 C   0  0  0  0  0  0  0  0  0  0  0  0
    8.8952  -15.8257   22.7434 O   0  0  0  0  0  0  0  0  0  0  0  0
    6.9586  -11.2547   27.6257 C   0  0  0  0  0  0  0  0  0  0  0  0
    6.3754  -10.9765   25.9201 S   0  0  0  0  0  0  0  0  0  0  0  0
    7.0364  -12.3061   24.8878 C   0  0  0  0  0  0  0  0  0  0  0  0
    6.8812  -13.5997   25.6713 C   0  0  0  0  0  0  0  0  0  0  0  0
    7.5760  -14.6971   24.8753 C   0  0  2  0  0  0  0  0  0  0  0  0
    7.0154  -14.8137   23.5458 N   0  0  0  0  0  0  0  0  0  0  0  0
    7.3995  -15.9485   25.6519 C   0  0  0  0  0  0  0  0  0  0  0  0
    6.3346  -16.6007   25.5350 O   0  0  0  0  0  0  0  0  0  0  0  0
    8.4007  -16.4150   26.5138 N   0  0  0  0  0  0  0  0  0  0  0  0
    8.6680  -17.8169   26.7923 C   0  0  1  0  0  0  0  0  0  0  0  0
    9.0910  -18.4310   25.4620 C   0  0  0  0  0  0  0  0  0  0  0  0
    9.4550  -19.8526   25.5800 C   0  0  0  0  0  0  0  0  0  0  0  0
    9.4222  -20.6223   26.7281 C   0  0  0  0  0  0  0  0  0  0  0  0
    9.8289  -21.8703   26.4174 N   0  0  0  0  0  0  0  0  0  0  0  0
   10.1177  -21.9194   25.1171 C   0  0  0  0  0  0  0  0  0  0  0  0
    9.8908  -20.6950   24.6088 N   0  0  0  0  0  0  0  0  0  0  0  0
    9.8068  -17.8487   27.7638 C   0  0  0  0  0  0  0  0  0  0  0  0
    9.9214  -18.8235   28.7438 O   0  0  0  0  0  0  0  0  0  0  0  0
   10.7268  -16.9681   27.7257 O   0  0  0  0  0  0  0  0  0  0  0  0
  2  3  1  0
  2  1  1  0
  3 10  1  0
  4  3  2  0
  6  5  1  0
  7  8  1  0
  7  6  1  0
  9  8  1  1
  9 11  1  0
 10  9  1  0
 11 13  1  0
 11 12  2  0
 13 14  1  0
 14 21  1  0
 14 15  1  6
 16 15  1  0
 16 17  2  0
 18 17  1  0
 19 18  1  0
 20 19  2  0
 20 16  1  0
 21 22  1  0
 23 21  2  0
M  END
$$$$
