GMH.pdb
     RDKit          3D

 23 23  0  0  1  0  0  0  0  0999 V2000
   10.8854  -17.2204   20.2131 N   0  0  0  0  0  0  0  0  0  0  0  0
   10.4378  -15.8536   20.4352 C   0  0  0  0  0  0  0  0  0  0  0  0
   10.2534  -15.6732   21.8993 C   0  0  0  0  0  0  0  0  0  0  0  0
   11.2356  -15.6925   22.7039 O   0  0  0  0  0  0  0  0  0  0  0  0
    6.1917  -12.0958   27.4667 C   0  0  0  0  0  0  0  0  0  0  0  0
    6.0760  -12.8547   25.8123 S   0  0  0  0  0  0  0  0  0  0  0  0
    7.5580  -13.8606   25.5624 C   0  0  0  0  0  0  0  0  0  0  0  0
    7.5415  -14.3297   24.1165 C   0  0  0  0  0  0  0  0  0  0  0  0
    8.8152  -15.1331   23.8865 C   0  0  2  0  0  0  0  0  0  0  0  0
    8.9762  -15.4692   22.4878 N   0  0  0  0  0  0  0  0  0  0  0  0
    8.6970  -16.3487   24.7282 C   0  0  0  0  0  0  0  0  0  0  0  0
    8.1088  -17.3584   24.2724 O   0  0  0  0  0  0  0  0  0  0  0  0
    9.2303  -16.3895   26.0231 N   0  0  0  0  0  0  0  0  0  0  0  0
    9.8585  -17.5547   26.6248 C   0  0  1  0  0  0  0  0  0  0  0  0
   10.0100  -17.2261   28.1062 C   0  0  0  0  0  0  0  0  0  0  0  0
   10.4213  -15.8324   28.3423 C   0  0  0  0  0  0  0  0  0  0  0  0
   10.7210  -14.8843   27.3815 C   0  0  0  0  0  0  0  0  0  0  0  0
   11.0520  -13.7347   28.0045 N   0  0  0  0  0  0  0  0  0  0  0  0
   10.9732  -13.9192   29.3222 C   0  0  0  0  0  0  0  0  0  0  0  0
   10.5904  -15.1921   29.5272 N   0  0  0  0  0  0  0  0  0  0  0  0
    8.9057  -18.6949   26.4411 C   0  0  0  0  0  0  0  0  0  0  0  0
    7.6769  -18.5440   25.8158 O   0  0  0  0  0  0  0  0  0  0  0  0
    9.1927  -19.8639   26.8589 O   0  0  0  0  0  0  0  0  0  0  0  0
  2  3  1  0
  2  1  1  0
  3 10  1  0
  4  3  2  0
  6  5  1  0
  7  8  1  0
  7  6  1  0
  9  8  1  6
  9 11  1  0
 10  9  1  0
 11 13  1  0
 11 12  2  0
 13 14  1  0
 14 21  1  0
 14 15  1  1
 16 15  1  0
 16 17  2  0
 18 17  1  0
 19 18  1  0
 20 19  2  0
 20 16  1  0
 21 22  1  0
 23 21  2  0
M  END
$$$$
