GMH.pdb
     RDKit          3D

 23 23  0  0  1  0  0  0  0  0999 V2000
    7.8185  -12.9204   19.0496 N   0  0  0  0  0  0  0  0  0  0  0  0
    7.0877  -13.7981   19.9516 C   0  0  0  0  0  0  0  0  0  0  0  0
    7.8075  -13.8064   21.2523 C   0  0  0  0  0  0  0  0  0  0  0  0
    9.0671  -13.9530   21.3179 O   0  0  0  0  0  0  0  0  0  0  0  0
    5.9286  -11.1606   26.4977 C   0  0  0  0  0  0  0  0  0  0  0  0
    7.0081  -12.3198   27.4017 S   0  0  0  0  0  0  0  0  0  0  0  0
    7.7622  -13.4301   26.1896 C   0  0  0  0  0  0  0  0  0  0  0  0
    6.9352  -13.3317   24.9178 C   0  0  0  0  0  0  0  0  0  0  0  0
    7.8244  -13.7770   23.7639 C   0  0  2  0  0  0  0  0  0  0  0  0
    7.1375  -13.6521   22.4958 N   0  0  0  0  0  0  0  0  0  0  0  0
    8.1957  -15.1852   24.0453 C   0  0  0  0  0  0  0  0  0  0  0  0
    7.3702  -16.0990   23.8069 O   0  0  0  0  0  0  0  0  0  0  0  0
    9.4516  -15.5132   24.5725 N   0  0  0  0  0  0  0  0  0  0  0  0
   10.0758  -16.8228   24.4744 C   0  0  1  0  0  0  0  0  0  0  0  0
   11.2939  -16.6359   23.5762 C   0  0  0  0  0  0  0  0  0  0  0  0
   12.1404  -17.8383   23.5054 C   0  0  0  0  0  0  0  0  0  0  0  0
   11.9713  -19.0120   24.2164 C   0  0  0  0  0  0  0  0  0  0  0  0
   12.9536  -19.8680   23.8675 N   0  0  0  0  0  0  0  0  0  0  0  0
   13.7375  -19.2808   22.9635 C   0  0  0  0  0  0  0  0  0  0  0  0
   13.2440  -18.0491   22.7436 N   0  0  0  0  0  0  0  0  0  0  0  0
   10.5049  -17.1950   25.8597 C   0  0  0  0  0  0  0  0  0  0  0  0
   10.3078  -16.3595   26.9491 O   0  0  0  0  0  0  0  0  0  0  0  0
   11.0758  -18.3100   26.0927 O   0  0  0  0  0  0  0  0  0  0  0  0
  2  3  1  0
  2  1  1  0
  3 10  1  0
  4  3  2  0
  6  5  1  0
  7  8  1  0
  7  6  1  0
  9  8  1  1
  9 11  1  0
 10  9  1  0
 11 13  1  0
 11 12  2  0
 13 14  1  0
 14 21  1  0
 14 15  1  6
 16 15  1  0
 16 17  2  0
 18 17  1  0
 19 18  1  0
 20 19  2  0
 20 16  1  0
 21 22  1  0
 23 21  2  0
M  END
$$$$
