GMH.pdb
     RDKit          3D

 23 23  0  0  1  0  0  0  0  0999 V2000
    8.4923  -19.6270   21.9001 N   0  0  0  0  0  0  0  0  0  0  0  0
    8.2369  -20.0352   23.2735 C   0  0  0  0  0  0  0  0  0  0  0  0
    9.1806  -19.2895   24.1471 C   0  0  0  0  0  0  0  0  0  0  0  0
   10.3918  -19.1016   23.8152 O   0  0  0  0  0  0  0  0  0  0  0  0
    9.9203  -13.8402   29.4108 C   0  0  0  0  0  0  0  0  0  0  0  0
    9.8002  -14.6379   27.7750 S   0  0  0  0  0  0  0  0  0  0  0  0
   10.1371  -16.4010   27.9955 C   0  0  0  0  0  0  0  0  0  0  0  0
    9.0490  -17.1603   27.2535 C   0  0  0  0  0  0  0  0  0  0  0  0
    9.7407  -18.1297   26.3036 C   0  0  2  0  0  0  0  0  0  0  0  0
    8.7911  -18.7436   25.3998 N   0  0  0  0  0  0  0  0  0  0  0  0
   10.4112  -19.1405   27.1573 C   0  0  0  0  0  0  0  0  0  0  0  0
    9.7198  -20.0072   27.7439 O   0  0  0  0  0  0  0  0  0  0  0  0
   11.8026  -19.1447   27.3206 N   0  0  0  0  0  0  0  0  0  0  0  0
   12.5340  -20.0623   28.1793 C   0  0  1  0  0  0  0  0  0  0  0  0
   14.0053  -19.8834   27.8202 C   0  0  0  0  0  0  0  0  0  0  0  0
   14.3533  -20.4864   26.5231 C   0  0  0  0  0  0  0  0  0  0  0  0
   13.6590  -21.4818   25.8607 C   0  0  0  0  0  0  0  0  0  0  0  0
   14.3013  -21.7552   24.7065 N   0  0  0  0  0  0  0  0  0  0  0  0
   15.3751  -20.9710   24.6135 C   0  0  0  0  0  0  0  0  0  0  0  0
   15.4067  -20.2010   25.7158 N   0  0  0  0  0  0  0  0  0  0  0  0
   12.2859  -19.6175   29.5872 C   0  0  0  0  0  0  0  0  0  0  0  0
   12.7528  -20.3263   30.6842 O   0  0  0  0  0  0  0  0  0  0  0  0
   11.6267  -18.5554   29.8336 O   0  0  0  0  0  0  0  0  0  0  0  0
  2  3  1  0
  2  1  1  0
  3 10  1  0
  4  3  2  0
  6  5  1  0
  7  8  1  0
  7  6  1  0
  9  8  1  1
  9 11  1  0
 10  9  1  0
 11 13  1  0
 11 12  2  0
 13 14  1  0
 14 21  1  0
 14 15  1  6
 16 15  1  0
 16 17  2  0
 18 17  1  0
 19 18  1  0
 20 19  2  0
 20 16  1  0
 21 22  1  0
 23 21  2  0
M  END
$$$$
