GMH.pdb
     RDKit          3D

 23 23  0  0  1  0  0  0  0  0999 V2000
    8.4108  -16.1412   19.1471 N   0  0  0  0  0  0  0  0  0  0  0  0
    7.5613  -16.4253   20.2941 C   0  0  0  0  0  0  0  0  0  0  0  0
    8.1580  -15.7469   21.4747 C   0  0  0  0  0  0  0  0  0  0  0  0
    9.4146  -15.6925   21.6496 O   0  0  0  0  0  0  0  0  0  0  0  0
    7.3177  -11.3952   27.9673 C   0  0  0  0  0  0  0  0  0  0  0  0
    6.4373  -12.2168   26.5975 S   0  0  0  0  0  0  0  0  0  0  0  0
    7.6344  -13.2395   25.7077 C   0  0  0  0  0  0  0  0  0  0  0  0
    6.9076  -13.8458   24.5180 C   0  0  0  0  0  0  0  0  0  0  0  0
    7.9324  -14.6395   23.7179 C   0  0  2  0  0  0  0  0  0  0  0  0
    7.3669  -15.1209   22.4754 N   0  0  0  0  0  0  0  0  0  0  0  0
    8.3630  -15.7595   24.5898 C   0  0  0  0  0  0  0  0  0  0  0  0
    7.5373  -16.6516   24.8991 O   0  0  0  0  0  0  0  0  0  0  0  0
    9.6751  -15.8391   25.0744 N   0  0  0  0  0  0  0  0  0  0  0  0
   10.2050  -16.9453   25.8553 C   0  0  1  0  0  0  0  0  0  0  0  0
   11.6729  -17.0668   25.4600 C   0  0  0  0  0  0  0  0  0  0  0  0
   11.8613  -17.7462   24.1676 C   0  0  0  0  0  0  0  0  0  0  0  0
   10.9208  -18.4900   23.4792 C   0  0  0  0  0  0  0  0  0  0  0  0
   11.4842  -18.9422   22.3401 N   0  0  0  0  0  0  0  0  0  0  0  0
   12.7448  -18.5130   22.2817 C   0  0  0  0  0  0  0  0  0  0  0  0
   12.9737  -17.7872   23.3906 N   0  0  0  0  0  0  0  0  0  0  0  0
   10.0864  -16.5468   27.2936 C   0  0  0  0  0  0  0  0  0  0  0  0
    9.5514  -15.3289   27.6862 O   0  0  0  0  0  0  0  0  0  0  0  0
   10.4786  -17.3234   28.2244 O   0  0  0  0  0  0  0  0  0  0  0  0
  2  3  1  0
  2  1  1  0
  3 10  1  0
  4  3  2  0
  6  5  1  0
  7  8  1  0
  7  6  1  0
  9  8  1  1
  9 11  1  0
 10  9  1  0
 11 13  1  0
 11 12  2  0
 13 14  1  0
 14 21  1  0
 14 15  1  6
 16 15  1  0
 16 17  2  0
 18 17  1  0
 19 18  1  0
 20 19  2  0
 20 16  1  0
 21 22  1  0
 23 21  2  0
M  END
$$$$
