GMH.pdb
     RDKit          3D

 23 23  0  0  1  0  0  0  0  0999 V2000
    7.8658  -15.2051   18.8744 N   0  0  0  0  0  0  0  0  0  0  0  0
    6.9002  -15.0912   19.9573 C   0  0  0  0  0  0  0  0  0  0  0  0
    7.6570  -14.8195   21.2078 C   0  0  0  0  0  0  0  0  0  0  0  0
    8.8868  -15.1142   21.3219 O   0  0  0  0  0  0  0  0  0  0  0  0
    5.9026  -11.8592   27.7377 C   0  0  0  0  0  0  0  0  0  0  0  0
    7.2466  -11.5062   26.5564 S   0  0  0  0  0  0  0  0  0  0  0  0
    7.7825  -13.0800   25.8448 C   0  0  0  0  0  0  0  0  0  0  0  0
    6.9044  -13.3446   24.6323 C   0  0  0  0  0  0  0  0  0  0  0  0
    7.7600  -14.0733   23.6040 C   0  0  2  0  0  0  0  0  0  0  0  0
    7.0573  -14.2173   22.3466 N   0  0  0  0  0  0  0  0  0  0  0  0
    8.0893  -15.3922   24.1975 C   0  0  0  0  0  0  0  0  0  0  0  0
    7.2048  -16.2798   24.2547 O   0  0  0  0  0  0  0  0  0  0  0  0
    9.3702  -15.6646   24.6954 N   0  0  0  0  0  0  0  0  0  0  0  0
    9.8554  -16.9867   25.0571 C   0  0  1  0  0  0  0  0  0  0  0  0
   11.0861  -17.2289   24.1898 C   0  0  0  0  0  0  0  0  0  0  0  0
   11.7936  -18.4721   24.5378 C   0  0  0  0  0  0  0  0  0  0  0  0
   11.4586  -19.3611   25.5424 C   0  0  0  0  0  0  0  0  0  0  0  0
   12.3536  -20.3703   25.5356 N   0  0  0  0  0  0  0  0  0  0  0  0
   13.2416  -20.1538   24.5655 C   0  0  0  0  0  0  0  0  0  0  0  0
   12.9018  -19.0019   23.9598 N   0  0  0  0  0  0  0  0  0  0  0  0
   10.2440  -16.9175   26.5014 C   0  0  0  0  0  0  0  0  0  0  0  0
   10.1258  -15.7549   27.2485 O   0  0  0  0  0  0  0  0  0  0  0  0
   10.7048  -17.9395   27.1068 O   0  0  0  0  0  0  0  0  0  0  0  0
  2  3  1  0
  2  1  1  0
  3 10  1  0
  4  3  2  0
  6  5  1  0
  7  8  1  0
  7  6  1  0
  9  8  1  1
  9 11  1  0
 10  9  1  0
 11 13  1  0
 11 12  2  0
 13 14  1  0
 14 21  1  0
 14 15  1  6
 16 15  1  0
 16 17  2  0
 18 17  1  0
 19 18  1  0
 20 19  2  0
 20 16  1  0
 21 22  1  0
 23 21  2  0
M  END
$$$$
