GMH.pdb
     RDKit          3D

 23 23  0  0  1  0  0  0  0  0999 V2000
    7.7432  -15.2324   19.7165 N   0  0  0  0  0  0  0  0  0  0  0  0
    6.9130  -15.4708   20.8878 C   0  0  0  0  0  0  0  0  0  0  0  0
    7.7155  -15.1154   22.0877 C   0  0  0  0  0  0  0  0  0  0  0  0
    8.9742  -14.9590   22.0274 O   0  0  0  0  0  0  0  0  0  0  0  0
    6.5975  -10.1355   26.6640 C   0  0  0  0  0  0  0  0  0  0  0  0
    6.8873  -11.9036   27.0050 S   0  0  0  0  0  0  0  0  0  0  0  0
    6.8033  -12.7896   25.4306 C   0  0  0  0  0  0  0  0  0  0  0  0
    7.0929  -14.2527   25.7250 C   0  0  0  0  0  0  0  0  0  0  0  0
    7.9272  -14.7904   24.5694 C   0  0  2  0  0  0  0  0  0  0  0  0
    7.1301  -14.9293   23.3691 N   0  0  0  0  0  0  0  0  0  0  0  0
    8.4660  -16.0971   25.0191 C   0  0  0  0  0  0  0  0  0  0  0  0
    7.6833  -17.0644   25.1771 O   0  0  0  0  0  0  0  0  0  0  0  0
    9.8333  -16.2706   25.2707 N   0  0  0  0  0  0  0  0  0  0  0  0
   10.4411  -17.5087   25.7311 C   0  0  1  0  0  0  0  0  0  0  0  0
   11.8728  -17.4884   25.2063 C   0  0  0  0  0  0  0  0  0  0  0  0
   11.9422  -17.5257   23.7362 C   0  0  0  0  0  0  0  0  0  0  0  0
   11.1578  -18.2876   22.8901 C   0  0  0  0  0  0  0  0  0  0  0  0
   11.5322  -18.0364   21.6189 N   0  0  0  0  0  0  0  0  0  0  0  0
   12.5232  -17.1452   21.6284 C   0  0  0  0  0  0  0  0  0  0  0  0
   12.7720  -16.8351   22.9133 N   0  0  0  0  0  0  0  0  0  0  0  0
   10.4363  -17.4551   27.2273 C   0  0  0  0  0  0  0  0  0  0  0  0
    9.9391  -16.3682   27.9310 O   0  0  0  0  0  0  0  0  0  0  0  0
   10.8957  -18.4206   27.9202 O   0  0  0  0  0  0  0  0  0  0  0  0
  2  3  1  0
  2  1  1  0
  3 10  1  0
  4  3  2  0
  6  5  1  0
  7  8  1  0
  7  6  1  0
  9  8  1  1
  9 11  1  0
 10  9  1  0
 11 13  1  0
 11 12  2  0
 13 14  1  0
 14 21  1  0
 14 15  1  6
 16 15  1  0
 16 17  2  0
 18 17  1  0
 19 18  1  0
 20 19  2  0
 20 16  1  0
 21 22  1  0
 23 21  2  0
M  END
$$$$
