YDY.pdb
     RDKit          3D

 33 34  0  0  1  0  0  0  0  0999 V2000
   12.1116  -25.8471  -12.5312 O   0  0  0  0  0  0  0  0  0  0  0  0
   13.4825  -25.6300  -12.6066 C   0  0  0  0  0  0  0  0  0  0  0  0
   13.9400  -24.3354  -12.7381 C   0  0  0  0  0  0  0  0  0  0  0  0
   15.2833  -24.1141  -12.8127 C   0  0  0  0  0  0  0  0  0  0  0  0
   16.2307  -25.1425  -12.7621 C   0  0  0  0  0  0  0  0  0  0  0  0
   17.6826  -24.8527  -12.8472 C   0  0  0  0  0  0  0  0  0  0  0  0
   18.0445  -24.5681  -14.2894 C   0  0  2  0  0  0  0  0  0  0  0  0
   18.0322  -25.8271  -15.0059 N   0  0  0  0  0  0  0  0  0  0  0  0
   19.3623  -23.9492  -14.4332 C   0  0  0  0  0  0  0  0  0  0  0  0
   20.3891  -24.6590  -14.5133 O   0  0  0  0  0  0  0  0  0  0  0  0
   15.7322  -26.4223  -12.6302 C   0  0  0  0  0  0  0  0  0  0  0  0
   14.3754  -26.6825  -12.5517 C   0  0  0  0  0  0  0  0  0  0  0  0
   19.5713  -22.5391  -14.4911 N   0  0  0  0  0  0  0  0  0  0  0  0
   20.8674  -21.9472  -14.6086 C   0  0  1  0  0  0  0  0  0  0  0  0
   20.9524  -20.8485  -15.6253 C   0  0  0  0  0  0  0  0  0  0  0  0
   22.2730  -20.2245  -15.7243 C   0  0  0  0  0  0  0  0  0  0  0  0
   22.4004  -18.9859  -15.6668 O   0  0  0  0  0  0  0  0  0  0  0  0
   21.3659  -21.5063  -13.2827 C   0  0  0  0  0  0  0  0  0  0  0  0
   20.5701  -20.9149  -12.5121 O   0  0  0  0  0  0  0  0  0  0  0  0
   23.4057  -20.9857  -15.8831 O   0  0  0  0  0  0  0  0  0  0  0  0
   26.8341  -19.7310   -6.5190 O   0  0  0  0  0  0  0  0  0  0  0  0
   26.3098  -20.1467   -7.7467 C   0  0  0  0  0  0  0  0  0  0  0  0
   25.6229  -21.3243   -7.8974 C   0  0  0  0  0  0  0  0  0  0  0  0
   25.0862  -21.7832   -9.0772 C   0  0  0  0  0  0  0  0  0  0  0  0
   25.2499  -20.9909  -10.2193 C   0  0  0  0  0  0  0  0  0  0  0  0
   24.7038  -21.4521  -11.5145 C   0  0  0  0  0  0  0  0  0  0  0  0
   23.2240  -21.1958  -11.6241 C   0  0  2  0  0  0  0  0  0  0  0  0
   22.7078  -21.7446  -12.8897 N   0  0  0  0  0  0  0  0  0  0  0  0
   22.8875  -19.7563  -11.5854 C   0  0  0  0  0  0  0  0  0  0  0  0
   22.3209  -19.2840  -10.5730 O   0  0  0  0  0  0  0  0  0  0  0  0
   25.9453  -19.7884  -10.0914 C   0  0  0  0  0  0  0  0  0  0  0  0
   26.4671  -19.3662   -8.8890 C   0  0  0  0  0  0  0  0  0  0  0  0
   23.1701  -18.8854  -12.6278 O   0  0  0  0  0  0  0  0  0  0  0  0
  2  1  1  0
  3  2  2  0
  4  3  1  0
  5 11  1  0
  5  4  2  0
  6  5  1  0
  7  9  1  0
  7  6  1  0
  7  8  1  6
  9 10  2  0
 11 12  2  0
 12  2  1  0
 13 14  1  0
 13  9  1  0
 14 15  1  6
 15 16  1  0
 16 20  1  0
 17 16  2  0
 18 14  1  0
 19 18  2  0
 22 23  2  0
 22 21  1  0
 24 23  1  0
 25 24  2  0
 27 26  1  6
 26 25  1  0
 27 28  1  0
 28 18  1  0
 29 27  1  0
 29 33  1  0
 30 29  2  0
 31 25  1  0
 31 32  2  0
 32 22  1  0
M  END
$$$$
