YDY.pdb
     RDKit          3D

 33 34  0  0  1  0  0  0  0  0999 V2000
   24.0141  -13.2623  -27.1346 O   0  0  0  0  0  0  0  0  0  0  0  0
   23.4930  -12.5135  -26.0858 C   0  0  0  0  0  0  0  0  0  0  0  0
   23.5388  -11.1376  -26.1700 C   0  0  0  0  0  0  0  0  0  0  0  0
   23.0297  -10.3959  -25.1454 C   0  0  0  0  0  0  0  0  0  0  0  0
   22.4578  -10.9644  -24.0018 C   0  0  0  0  0  0  0  0  0  0  0  0
   21.9168  -10.1161  -22.9123 C   0  0  0  0  0  0  0  0  0  0  0  0
   23.0589   -9.6608  -22.0290 C   0  0  2  0  0  0  0  0  0  0  0  0
   23.5174  -10.8075  -21.2717 N   0  0  0  0  0  0  0  0  0  0  0  0
   22.6709   -8.5990  -21.1005 C   0  0  0  0  0  0  0  0  0  0  0  0
   22.2560   -8.8811  -19.9547 O   0  0  0  0  0  0  0  0  0  0  0  0
   22.4316  -12.3431  -23.9565 C   0  0  0  0  0  0  0  0  0  0  0  0
   22.9391  -13.1260  -24.9784 C   0  0  0  0  0  0  0  0  0  0  0  0
   22.7331   -7.2094  -21.4181 N   0  0  0  0  0  0  0  0  0  0  0  0
   22.3156   -6.1836  -20.5140 C   0  0  1  0  0  0  0  0  0  0  0  0
   22.9988   -4.8652  -20.7212 C   0  0  0  0  0  0  0  0  0  0  0  0
   22.6628   -3.8520  -19.7193 C   0  0  0  0  0  0  0  0  0  0  0  0
   22.2606   -4.1822  -18.5866 O   0  0  0  0  0  0  0  0  0  0  0  0
   20.8388   -6.0429  -20.5247 C   0  0  0  0  0  0  0  0  0  0  0  0
   20.2558   -5.9505  -21.6331 O   0  0  0  0  0  0  0  0  0  0  0  0
   22.7814   -2.5123  -19.9998 O   0  0  0  0  0  0  0  0  0  0  0  0
   12.3093   -6.6477  -18.6921 O   0  0  0  0  0  0  0  0  0  0  0  0
   13.7013   -6.7727  -18.7311 C   0  0  0  0  0  0  0  0  0  0  0  0
   14.5006   -6.4833  -17.6547 C   0  0  0  0  0  0  0  0  0  0  0  0
   15.8715   -6.5875  -17.6352 C   0  0  0  0  0  0  0  0  0  0  0  0
   16.5088   -7.0229  -18.8027 C   0  0  0  0  0  0  0  0  0  0  0  0
   17.9836   -7.1343  -18.8337 C   0  0  0  0  0  0  0  0  0  0  0  0
   18.6322   -5.8733  -19.3406 C   0  0  2  0  0  0  0  0  0  0  0  0
   20.0982   -6.0131  -19.3153 N   0  0  0  0  0  0  0  0  0  0  0  0
   18.2779   -4.6837  -18.5368 C   0  0  0  0  0  0  0  0  0  0  0  0
   19.0729   -4.2754  -17.6591 O   0  0  0  0  0  0  0  0  0  0  0  0
   15.7169   -7.3233  -19.9112 C   0  0  0  0  0  0  0  0  0  0  0  0
   14.3452   -7.2049  -19.8875 C   0  0  0  0  0  0  0  0  0  0  0  0
   17.0922   -3.9832  -18.7048 O   0  0  0  0  0  0  0  0  0  0  0  0
  2  1  1  0
  3  2  2  0
  4  3  1  0
  5 11  1  0
  5  4  2  0
  6  5  1  0
  7  9  1  0
  7  6  1  0
  7  8  1  1
  9 10  2  0
 11 12  2  0
 12  2  1  0
 13 14  1  0
 13  9  1  0
 14 15  1  6
 15 16  1  0
 16 20  1  0
 17 16  2  0
 18 14  1  0
 19 18  2  0
 22 23  2  0
 22 21  1  0
 24 23  1  0
 25 24  2  0
 27 26  1  1
 26 25  1  0
 27 28  1  0
 28 18  1  0
 29 27  1  0
 29 33  1  0
 30 29  2  0
 31 25  1  0
 31 32  2  0
 32 22  1  0
M  END
$$$$
