YDY.pdb
     RDKit          3D

 33 34  0  0  1  0  0  0  0  0999 V2000
   30.1289  -16.0322  -19.8698 O   0  0  0  0  0  0  0  0  0  0  0  0
   29.2025  -16.6383  -19.0292 C   0  0  0  0  0  0  0  0  0  0  0  0
   28.1073  -17.2598  -19.5920 C   0  0  0  0  0  0  0  0  0  0  0  0
   27.1940  -17.8566  -18.7742 C   0  0  0  0  0  0  0  0  0  0  0  0
   27.3118  -17.8712  -17.3800 C   0  0  0  0  0  0  0  0  0  0  0  0
   26.2921  -18.5336  -16.5311 C   0  0  0  0  0  0  0  0  0  0  0  0
   26.8895  -19.7896  -15.9331 C   0  0  2  0  0  0  0  0  0  0  0  0
   27.0656  -20.7495  -17.0037 N   0  0  0  0  0  0  0  0  0  0  0  0
   26.0460  -20.3814  -14.8946 C   0  0  0  0  0  0  0  0  0  0  0  0
   25.1509  -21.2008  -15.1976 O   0  0  0  0  0  0  0  0  0  0  0  0
   28.4210  -17.2389  -16.8571 C   0  0  0  0  0  0  0  0  0  0  0  0
   29.3670  -16.6235  -17.6578 C   0  0  0  0  0  0  0  0  0  0  0  0
   26.1741  -20.0809  -13.5058 N   0  0  0  0  0  0  0  0  0  0  0  0
   25.2955  -20.6095  -12.5095 C   0  0  1  0  0  0  0  0  0  0  0  0
   25.8467  -20.5638  -11.1159 C   0  0  0  0  0  0  0  0  0  0  0  0
   24.9832  -21.1835  -10.1091 C   0  0  0  0  0  0  0  0  0  0  0  0
   23.7472  -21.0266  -10.1436 O   0  0  0  0  0  0  0  0  0  0  0  0
   23.9607  -19.9674  -12.5918 C   0  0  0  0  0  0  0  0  0  0  0  0
   23.9011  -18.7131  -12.6026 O   0  0  0  0  0  0  0  0  0  0  0  0
   25.5109  -21.9533   -9.1009 O   0  0  0  0  0  0  0  0  0  0  0  0
   16.4310  -16.3695  -14.0847 O   0  0  0  0  0  0  0  0  0  0  0  0
   17.6569  -17.0396  -14.0305 C   0  0  0  0  0  0  0  0  0  0  0  0
   17.9436  -18.1228  -14.8216 C   0  0  0  0  0  0  0  0  0  0  0  0
   19.1290  -18.8195  -14.8116 C   0  0  0  0  0  0  0  0  0  0  0  0
   20.1269  -18.3954  -13.9266 C   0  0  0  0  0  0  0  0  0  0  0  0
   21.4126  -19.1248  -13.8691 C   0  0  0  0  0  0  0  0  0  0  0  0
   21.4572  -20.0958  -12.7190 C   0  0  2  0  0  0  0  0  0  0  0  0
   22.7771  -20.7465  -12.6571 N   0  0  0  0  0  0  0  0  0  0  0  0
   20.4344  -21.1585  -12.8263 C   0  0  0  0  0  0  0  0  0  0  0  0
   20.7124  -22.2213  -13.4279 O   0  0  0  0  0  0  0  0  0  0  0  0
   19.8588  -17.2956  -13.1114 C   0  0  0  0  0  0  0  0  0  0  0  0
   18.6562  -16.6259  -13.1537 C   0  0  0  0  0  0  0  0  0  0  0  0
   19.1614  -21.0400  -12.2875 O   0  0  0  0  0  0  0  0  0  0  0  0
  2  1  1  0
  3  2  2  0
  4  3  1  0
  5 11  1  0
  5  4  2  0
  6  5  1  0
  7  9  1  0
  7  6  1  0
  7  8  1  6
  9 10  2  0
 11 12  2  0
 12  2  1  0
 13 14  1  0
 13  9  1  0
 14 15  1  1
 15 16  1  0
 16 20  1  0
 17 16  2  0
 18 14  1  0
 19 18  2  0
 22 23  2  0
 22 21  1  0
 24 23  1  0
 25 24  2  0
 27 26  1  6
 26 25  1  0
 27 28  1  0
 28 18  1  0
 29 27  1  0
 29 33  1  0
 30 29  2  0
 31 25  1  0
 31 32  2  0
 32 22  1  0
M  END
$$$$
