YDY.pdb
     RDKit          3D

 33 34  0  0  1  0  0  0  0  0999 V2000
   35.9413  -10.2055   -5.8257 O   0  0  0  0  0  0  0  0  0  0  0  0
   37.1185  -10.0640   -6.5511 C   0  0  0  0  0  0  0  0  0  0  0  0
   37.6712   -8.8063   -6.6746 C   0  0  0  0  0  0  0  0  0  0  0  0
   38.8259   -8.6591   -7.3846 C   0  0  0  0  0  0  0  0  0  0  0  0
   39.4853   -9.7286   -8.0005 C   0  0  0  0  0  0  0  0  0  0  0  0
   40.7399   -9.5194   -8.7630 C   0  0  0  0  0  0  0  0  0  0  0  0
   41.8564  -10.2949   -8.0968 C   0  0  2  0  0  0  0  0  0  0  0  0
   42.1001   -9.6954   -6.8007 N   0  0  0  0  0  0  0  0  0  0  0  0
   43.0979  -10.2816   -8.8706 C   0  0  0  0  0  0  0  0  0  0  0  0
   43.9675   -9.4084   -8.6562 O   0  0  0  0  0  0  0  0  0  0  0  0
   38.9002  -10.9694   -7.8532 C   0  0  0  0  0  0  0  0  0  0  0  0
   37.7291  -11.1544   -7.1396 C   0  0  0  0  0  0  0  0  0  0  0  0
   43.4025  -11.2291   -9.8928 N   0  0  0  0  0  0  0  0  0  0  0  0
   44.6315  -11.2201  -10.6231 C   0  0  1  0  0  0  0  0  0  0  0  0
   45.0275  -12.5554  -11.1781 C   0  0  0  0  0  0  0  0  0  0  0  0
   46.3010  -12.5506  -11.9003 C   0  0  0  0  0  0  0  0  0  0  0  0
   46.3397  -12.3271  -13.1259 O   0  0  0  0  0  0  0  0  0  0  0  0
   44.6100  -10.1743  -11.6751 C   0  0  0  0  0  0  0  0  0  0  0  0
   43.4968   -9.7659  -12.0884 O   0  0  0  0  0  0  0  0  0  0  0  0
   47.4857  -12.7920  -11.2478 O   0  0  0  0  0  0  0  0  0  0  0  0
   40.5432   -5.2174  -10.6844 O   0  0  0  0  0  0  0  0  0  0  0  0
   41.8190   -5.7818  -10.7765 C   0  0  0  0  0  0  0  0  0  0  0  0
   42.5770   -6.0813   -9.6733 C   0  0  0  0  0  0  0  0  0  0  0  0
   43.8349   -6.6359   -9.7030 C   0  0  0  0  0  0  0  0  0  0  0  0
   44.3924   -6.9201  -10.9549 C   0  0  0  0  0  0  0  0  0  0  0  0
   45.7501   -7.5019  -11.0365 C   0  0  0  0  0  0  0  0  0  0  0  0
   45.9886   -8.1899  -12.3546 C   0  0  2  0  0  0  0  0  0  0  0  0
   45.8147   -9.6448  -12.2047 N   0  0  0  0  0  0  0  0  0  0  0  0
   47.3468   -7.9501  -12.8886 C   0  0  0  0  0  0  0  0  0  0  0  0
   47.7349   -6.7741  -13.0767 O   0  0  0  0  0  0  0  0  0  0  0  0
   43.6406   -6.6242  -12.0921 C   0  0  0  0  0  0  0  0  0  0  0  0
   42.3830   -6.0683  -12.0169 C   0  0  0  0  0  0  0  0  0  0  0  0
   48.2295   -8.9747  -13.1979 O   0  0  0  0  0  0  0  0  0  0  0  0
  2  1  1  0
  3  2  2  0
  4  3  1  0
  5 11  1  0
  5  4  2  0
  6  5  1  0
  7  9  1  0
  7  6  1  0
  7  8  1  1
  9 10  2  0
 11 12  2  0
 12  2  1  0
 13 14  1  0
 13  9  1  0
 14 15  1  6
 15 16  1  0
 16 20  1  0
 17 16  2  0
 18 14  1  0
 19 18  2  0
 22 23  2  0
 22 21  1  0
 24 23  1  0
 25 24  2  0
 27 26  1  1
 26 25  1  0
 27 28  1  0
 28 18  1  0
 29 27  1  0
 29 33  1  0
 30 29  2  0
 31 25  1  0
 31 32  2  0
 32 22  1  0
M  END
$$$$
