YDY.pdb
     RDKit          3D

 33 34  0  0  1  0  0  0  0  0999 V2000
   31.3279  -13.3398  -17.0817 O   0  0  0  0  0  0  0  0  0  0  0  0
   30.1840  -12.5823  -16.8581 C   0  0  0  0  0  0  0  0  0  0  0  0
   30.0695  -11.3585  -17.4838 C   0  0  0  0  0  0  0  0  0  0  0  0
   28.9505  -10.6094  -17.2697 C   0  0  0  0  0  0  0  0  0  0  0  0
   27.9023  -11.0224  -16.4399 C   0  0  0  0  0  0  0  0  0  0  0  0
   26.7040  -10.1725  -16.2374 C   0  0  0  0  0  0  0  0  0  0  0  0
   25.4950  -10.8814  -16.8099 C   0  0  2  0  0  0  0  0  0  0  0  0
   25.7402  -11.1070  -18.2198 N   0  0  0  0  0  0  0  0  0  0  0  0
   24.2599  -10.1123  -16.6567 C   0  0  0  0  0  0  0  0  0  0  0  0
   23.8993   -9.3110  -17.5469 O   0  0  0  0  0  0  0  0  0  0  0  0
   28.0558  -12.2519  -15.8331 C   0  0  0  0  0  0  0  0  0  0  0  0
   29.1780  -13.0377  -16.0283 C   0  0  0  0  0  0  0  0  0  0  0  0
   23.4018  -10.2129  -15.5214 N   0  0  0  0  0  0  0  0  0  0  0  0
   22.1572   -9.5165  -15.4207 C   0  0  1  0  0  0  0  0  0  0  0  0
   21.2224  -10.0728  -14.3889 C   0  0  0  0  0  0  0  0  0  0  0  0
   19.9189   -9.4082  -14.3406 C   0  0  0  0  0  0  0  0  0  0  0  0
   19.0206   -9.7034  -15.1528 O   0  0  0  0  0  0  0  0  0  0  0  0
   22.3824   -8.0628  -15.2289 C   0  0  0  0  0  0  0  0  0  0  0  0
   23.3746   -7.6965  -14.5520 O   0  0  0  0  0  0  0  0  0  0  0  0
   19.6508   -8.4428  -13.4005 O   0  0  0  0  0  0  0  0  0  0  0  0
   23.5577    0.3499  -17.1366 O   0  0  0  0  0  0  0  0  0  0  0  0
   23.3563   -1.0314  -17.0566 C   0  0  0  0  0  0  0  0  0  0  0  0
   24.2622   -1.8785  -16.4709 C   0  0  0  0  0  0  0  0  0  0  0  0
   24.1177   -3.2417  -16.3636 C   0  0  0  0  0  0  0  0  0  0  0  0
   22.9565   -3.8176  -16.8916 C   0  0  0  0  0  0  0  0  0  0  0  0
   22.7654   -5.2825  -16.8141 C   0  0  0  0  0  0  0  0  0  0  0  0
   21.8109   -5.6676  -15.7148 C   0  0  2  0  0  0  0  0  0  0  0  0
   21.5015   -7.1054  -15.7941 N   0  0  0  0  0  0  0  0  0  0  0  0
   20.5329   -4.9264  -15.7800 C   0  0  0  0  0  0  0  0  0  0  0  0
   19.6072   -5.3589  -16.5046 O   0  0  0  0  0  0  0  0  0  0  0  0
   22.0200   -2.9763  -17.4927 C   0  0  0  0  0  0  0  0  0  0  0  0
   22.2048   -1.6144  -17.5788 C   0  0  0  0  0  0  0  0  0  0  0  0
   20.2995   -3.7576  -15.0698 O   0  0  0  0  0  0  0  0  0  0  0  0
  2  1  1  0
  3  2  2  0
  4  3  1  0
  5 11  1  0
  5  4  2  0
  6  5  1  0
  7  9  1  0
  7  6  1  0
  7  8  1  6
  9 10  2  0
 11 12  2  0
 12  2  1  0
 13 14  1  0
 13  9  1  0
 14 15  1  1
 15 16  1  0
 16 20  1  0
 17 16  2  0
 18 14  1  0
 19 18  2  0
 22 23  2  0
 22 21  1  0
 24 23  1  0
 25 24  2  0
 27 26  1  6
 26 25  1  0
 27 28  1  0
 28 18  1  0
 29 27  1  0
 29 33  1  0
 30 29  2  0
 31 25  1  0
 31 32  2  0
 32 22  1  0
M  END
$$$$
