WTE.pdb
     RDKit          3D

 31 32  0  0  1  0  0  0  0  0999 V2000
   28.2691  -20.4332  -10.2931 N   0  0  0  0  0  0  0  0  0  0  0  0
   26.9211  -20.8687  -10.0206 C   0  0  1  0  0  0  0  0  0  0  0  0
   26.3814  -20.7112   -8.7107 C   0  0  0  0  0  0  0  0  0  0  0  0
   26.9506  -20.0677   -7.5839 C   0  0  0  0  0  0  0  0  0  0  0  0
   26.4474  -18.8190   -7.1685 C   0  0  0  0  0  0  0  0  0  0  0  0
   27.1416  -18.4299   -6.0979 N   0  0  0  0  0  0  0  0  0  0  0  0
   28.0830  -19.3339   -5.7606 C   0  0  0  0  0  0  0  0  0  0  0  0
   29.0323  -19.4193   -4.7808 C   0  0  0  0  0  0  0  0  0  0  0  0
   29.8704  -20.4991   -4.6980 C   0  0  0  0  0  0  0  0  0  0  0  0
   29.7263  -21.4937   -5.6318 C   0  0  0  0  0  0  0  0  0  0  0  0
   28.7915  -21.4437   -6.6234 C   0  0  0  0  0  0  0  0  0  0  0  0
   27.9457  -20.3590   -6.7103 C   0  0  0  0  0  0  0  0  0  0  0  0
   25.9950  -20.6274  -11.1932 C   0  0  0  0  0  0  0  0  0  0  0  0
   25.6064  -19.4519  -11.4535 O   0  0  0  0  0  0  0  0  0  0  0  0
   25.7993  -23.5075  -14.1781 C   0  0  0  0  0  0  0  0  0  0  0  0
   25.5897  -22.0393  -14.3288 C   0  0  1  0  0  0  0  0  0  0  0  0
   24.9032  -21.8686  -15.5599 O   0  0  0  0  0  0  0  0  0  0  0  0
   24.7355  -21.4211  -13.2170 C   0  0  2  0  0  0  0  0  0  0  0  0
   25.5526  -21.6639  -12.0028 N   0  0  0  0  0  0  0  0  0  0  0  0
   23.4418  -22.1298  -13.0797 C   0  0  0  0  0  0  0  0  0  0  0  0
   23.3703  -23.2316  -12.4587 O   0  0  0  0  0  0  0  0  0  0  0  0
   22.2770  -21.5924  -13.6329 N   0  0  0  0  0  0  0  0  0  0  0  0
   20.9665  -22.2661  -13.5747 C   0  0  1  0  0  0  0  0  0  0  0  0
   19.8556  -21.2708  -13.6598 C   0  0  0  0  0  0  0  0  0  0  0  0
   19.2410  -20.9111  -12.3423 C   0  0  0  0  0  0  0  0  0  0  0  0
   17.8223  -21.3163  -12.2413 C   0  0  0  0  0  0  0  0  0  0  0  0
   17.0928  -21.6054  -13.2238 O   0  0  0  0  0  0  0  0  0  0  0  0
   20.8595  -23.2281  -14.6983 C   0  0  0  0  0  0  0  0  0  0  0  0
   21.1057  -22.9736  -15.8972 O   0  0  0  0  0  0  0  0  0  0  0  0
   17.2247  -21.3923  -10.9851 O   0  0  0  0  0  0  0  0  0  0  0  0
   20.4499  -24.5485  -14.4426 O   0  0  0  0  0  0  0  0  0  0  0  0
  2  1  1  6
  3  2  1  0
  4  3  1  0
  4  5  2  0
  6  5  1  0
  7  6  1  0
  8  7  2  0
  9  8  1  0
 10  9  2  0
 10 11  1  0
 11 12  2  0
 12  7  1  0
 12  4  1  0
 13  2  1  0
 13 19  1  0
 14 13  2  0
 16 15  1  1
 17 16  1  0
 18 19  1  1
 18 16  1  0
 20 18  1  0
 21 20  2  0
 22 20  1  0
 23 28  1  0
 23 22  1  0
 23 24  1  6
 25 26  1  0
 25 24  1  0
 26 27  2  0
 28 31  1  0
 29 28  2  0
 30 26  1  0
M  END
$$$$
