WTE.pdb
     RDKit          3D

 31 32  0  0  1  0  0  0  0  0999 V2000
   24.7758  -18.8027  -16.1343 N   0  0  0  0  0  0  0  0  0  0  0  0
   23.3353  -18.8293  -16.0599 C   0  0  1  0  0  0  0  0  0  0  0  0
   22.5647  -18.5572  -17.2278 C   0  0  0  0  0  0  0  0  0  0  0  0
   22.5441  -17.3890  -18.0296 C   0  0  0  0  0  0  0  0  0  0  0  0
   23.5440  -17.1964  -19.0033 C   0  0  0  0  0  0  0  0  0  0  0  0
   23.3034  -16.0370  -19.6178 N   0  0  0  0  0  0  0  0  0  0  0  0
   22.2053  -15.4311  -19.1236 C   0  0  0  0  0  0  0  0  0  0  0  0
   21.5450  -14.2639  -19.3885 C   0  0  0  0  0  0  0  0  0  0  0  0
   20.4207  -13.9115  -18.6907 C   0  0  0  0  0  0  0  0  0  0  0  0
   19.9780  -14.7689  -17.7158 C   0  0  0  0  0  0  0  0  0  0  0  0
   20.6098  -15.9415  -17.4231 C   0  0  0  0  0  0  0  0  0  0  0  0
   21.7416  -16.3003  -18.1230 C   0  0  0  0  0  0  0  0  0  0  0  0
   22.8317  -19.9068  -15.1239 C   0  0  0  0  0  0  0  0  0  0  0  0
   23.5992  -20.8556  -14.7896 O   0  0  0  0  0  0  0  0  0  0  0  0
   21.2979  -21.1223  -11.1178 C   0  0  0  0  0  0  0  0  0  0  0  0
   21.8523  -20.5218  -12.3645 C   0  0  1  0  0  0  0  0  0  0  0  0
   23.1696  -21.0362  -12.4917 O   0  0  0  0  0  0  0  0  0  0  0  0
   21.0708  -20.8945  -13.6288 C   0  0  2  0  0  0  0  0  0  0  0  0
   21.5417  -19.8895  -14.6131 N   0  0  0  0  0  0  0  0  0  0  0  0
   19.6130  -20.7270  -13.4253 C   0  0  0  0  0  0  0  0  0  0  0  0
   19.1242  -19.5908  -13.1516 O   0  0  0  0  0  0  0  0  0  0  0  0
   18.7517  -21.8216  -13.5337 N   0  0  0  0  0  0  0  0  0  0  0  0
   17.3042  -21.7438  -13.2629 C   0  0  1  0  0  0  0  0  0  0  0  0
   16.6602  -23.0802  -13.4399 C   0  0  0  0  0  0  0  0  0  0  0  0
   15.1801  -23.0922  -13.2115 C   0  0  0  0  0  0  0  0  0  0  0  0
   14.5741  -24.4205  -13.4465 C   0  0  0  0  0  0  0  0  0  0  0  0
   15.2170  -25.4464  -13.7862 O   0  0  0  0  0  0  0  0  0  0  0  0
   17.0901  -21.2686  -11.8745 C   0  0  0  0  0  0  0  0  0  0  0  0
   17.8035  -21.5593  -10.8900 O   0  0  0  0  0  0  0  0  0  0  0  0
   13.1989  -24.5779  -13.2888 O   0  0  0  0  0  0  0  0  0  0  0  0
   16.0062  -20.4184  -11.5933 O   0  0  0  0  0  0  0  0  0  0  0  0
  2  1  1  6
  3  2  1  0
  4  3  1  0
  4  5  2  0
  6  5  1  0
  7  6  1  0
  8  7  2  0
  9  8  1  0
 10  9  2  0
 10 11  1  0
 11 12  2  0
 12  7  1  0
 12  4  1  0
 13  2  1  0
 13 19  1  0
 14 13  2  0
 16 15  1  1
 17 16  1  0
 18 19  1  6
 18 16  1  0
 20 18  1  0
 21 20  2  0
 22 20  1  0
 23 28  1  0
 23 22  1  0
 23 24  1  1
 25 26  1  0
 25 24  1  0
 26 27  2  0
 28 31  1  0
 29 28  2  0
 30 26  1  0
M  END
$$$$
