WTE.pdb
     RDKit          3D

 31 32  0  0  1  0  0  0  0  0999 V2000
   28.3059  -21.5490   -9.7115 N   0  0  0  0  0  0  0  0  0  0  0  0
   26.9470  -21.0650   -9.7293 C   0  0  1  0  0  0  0  0  0  0  0  0
   26.5643  -20.0083   -8.8525 C   0  0  0  0  0  0  0  0  0  0  0  0
   27.1735  -19.5884   -7.6440 C   0  0  0  0  0  0  0  0  0  0  0  0
   27.5048  -18.2304   -7.4678 C   0  0  0  0  0  0  0  0  0  0  0  0
   28.0577  -18.0939   -6.2614 N   0  0  0  0  0  0  0  0  0  0  0  0
   28.1227  -19.2714   -5.6084 C   0  0  0  0  0  0  0  0  0  0  0  0
   28.5841  -19.6733   -4.3861 C   0  0  0  0  0  0  0  0  0  0  0  0
   28.5112  -20.9842   -3.9969 C   0  0  0  0  0  0  0  0  0  0  0  0
   27.9595  -21.8823   -4.8748 C   0  0  0  0  0  0  0  0  0  0  0  0
   27.4888  -21.5191   -6.1021 C   0  0  0  0  0  0  0  0  0  0  0  0
   27.5599  -20.2008   -6.4979 C   0  0  0  0  0  0  0  0  0  0  0  0
   26.3590  -21.0655  -11.1239 C   0  0  0  0  0  0  0  0  0  0  0  0
   27.1192  -20.9204  -12.1248 O   0  0  0  0  0  0  0  0  0  0  0  0
   24.6943  -23.6923  -12.7657 C   0  0  0  0  0  0  0  0  0  0  0  0
   23.7399  -22.5491  -12.8313 C   0  0  1  0  0  0  0  0  0  0  0  0
   22.8610  -22.7121  -11.7282 O   0  0  0  0  0  0  0  0  0  0  0  0
   24.4115  -21.1773  -12.7071 C   0  0  2  0  0  0  0  0  0  0  0  0
   24.9981  -21.2220  -11.3453 N   0  0  0  0  0  0  0  0  0  0  0  0
   23.4124  -20.0852  -12.7685 C   0  0  0  0  0  0  0  0  0  0  0  0
   22.8850  -19.6305  -11.7103 O   0  0  0  0  0  0  0  0  0  0  0  0
   23.0360  -19.5370  -13.9970 N   0  0  0  0  0  0  0  0  0  0  0  0
   21.9687  -18.5299  -14.1422 C   0  0  1  0  0  0  0  0  0  0  0  0
   21.9735  -17.9483  -15.5184 C   0  0  0  0  0  0  0  0  0  0  0  0
   23.0908  -16.9867  -15.7829 C   0  0  0  0  0  0  0  0  0  0  0  0
   23.5937  -17.0596  -17.1716 C   0  0  0  0  0  0  0  0  0  0  0  0
   23.0448  -17.7143  -18.0942 O   0  0  0  0  0  0  0  0  0  0  0  0
   20.6555  -19.1655  -13.8756 C   0  0  0  0  0  0  0  0  0  0  0  0
   20.3800  -20.3696  -14.0677 O   0  0  0  0  0  0  0  0  0  0  0  0
   24.7531  -16.3661  -17.5121 O   0  0  0  0  0  0  0  0  0  0  0  0
   19.6014  -18.3883  -13.3642 O   0  0  0  0  0  0  0  0  0  0  0  0
  2  1  1  6
  3  2  1  0
  4  3  1  0
  4  5  2  0
  6  5  1  0
  7  6  1  0
  8  7  2  0
  9  8  1  0
 10  9  2  0
 10 11  1  0
 11 12  2  0
 12  7  1  0
 12  4  1  0
 13  2  1  0
 13 19  1  0
 14 13  2  0
 16 15  1  1
 17 16  1  0
 18 19  1  1
 18 16  1  0
 20 18  1  0
 21 20  2  0
 22 20  1  0
 23 28  1  0
 23 22  1  0
 23 24  1  6
 25 26  1  0
 25 24  1  0
 26 27  2  0
 28 31  1  0
 29 28  2  0
 30 26  1  0
M  END
$$$$
