WTE.pdb
     RDKit          3D

 31 32  0  0  1  0  0  0  0  0999 V2000
   27.8507  -22.3693  -10.5339 N   0  0  0  0  0  0  0  0  0  0  0  0
   27.0431  -21.2117  -10.2361 C   0  0  1  0  0  0  0  0  0  0  0  0
   27.5386  -20.2185   -9.3417 C   0  0  0  0  0  0  0  0  0  0  0  0
   28.3681  -20.3780   -8.2040 C   0  0  0  0  0  0  0  0  0  0  0  0
   29.6260  -20.9975   -8.3421 C   0  0  0  0  0  0  0  0  0  0  0  0
   30.2065  -21.0246   -7.1413 N   0  0  0  0  0  0  0  0  0  0  0  0
   29.4235  -20.4639   -6.1981 C   0  0  0  0  0  0  0  0  0  0  0  0
   29.5379  -20.2450   -4.8537 C   0  0  0  0  0  0  0  0  0  0  0  0
   28.5370  -19.6328   -4.1476 C   0  0  0  0  0  0  0  0  0  0  0  0
   27.4142  -19.2458   -4.8341 C   0  0  0  0  0  0  0  0  0  0  0  0
   27.2641  -19.4471   -6.1745 C   0  0  0  0  0  0  0  0  0  0  0  0
   28.2690  -20.0627   -6.8892 C   0  0  0  0  0  0  0  0  0  0  0  0
   26.2554  -20.7401  -11.4395 C   0  0  0  0  0  0  0  0  0  0  0  0
   26.8673  -20.3080  -12.4591 O   0  0  0  0  0  0  0  0  0  0  0  0
   23.7414  -22.8535  -13.1157 C   0  0  0  0  0  0  0  0  0  0  0  0
   24.3272  -21.5748  -13.6096 C   0  0  1  0  0  0  0  0  0  0  0  0
   23.6766  -21.2988  -14.8411 O   0  0  0  0  0  0  0  0  0  0  0  0
   24.0941  -20.3866  -12.6705 C   0  0  2  0  0  0  0  0  0  0  0  0
   24.8683  -20.7663  -11.4634 N   0  0  0  0  0  0  0  0  0  0  0  0
   22.6628  -20.2634  -12.3089 C   0  0  0  0  0  0  0  0  0  0  0  0
   22.1914  -20.8861  -11.3115 O   0  0  0  0  0  0  0  0  0  0  0  0
   21.8082  -19.4554  -13.0629 N   0  0  0  0  0  0  0  0  0  0  0  0
   20.4293  -19.1303  -12.6533 C   0  0  1  0  0  0  0  0  0  0  0  0
   19.8646  -18.0449  -13.5107 C   0  0  0  0  0  0  0  0  0  0  0  0
   18.4454  -17.6817  -13.1994 C   0  0  0  0  0  0  0  0  0  0  0  0
   17.9072  -16.6435  -14.1045 C   0  0  0  0  0  0  0  0  0  0  0  0
   18.5655  -16.0853  -15.0189 O   0  0  0  0  0  0  0  0  0  0  0  0
   19.5850  -20.3442  -12.7675 C   0  0  0  0  0  0  0  0  0  0  0  0
   19.6905  -21.2207  -13.6526 O   0  0  0  0  0  0  0  0  0  0  0  0
   16.5833  -16.2346  -13.9590 O   0  0  0  0  0  0  0  0  0  0  0  0
   18.5672  -20.5707  -11.8245 O   0  0  0  0  0  0  0  0  0  0  0  0
  2  1  1  6
  3  2  1  0
  4  3  1  0
  4  5  2  0
  6  5  1  0
  7  6  1  0
  8  7  2  0
  9  8  1  0
 10  9  2  0
 10 11  1  0
 11 12  2  0
 12  7  1  0
 12  4  1  0
 13  2  1  0
 13 19  1  0
 14 13  2  0
 16 15  1  1
 17 16  1  0
 18 19  1  1
 18 16  1  0
 20 18  1  0
 21 20  2  0
 22 20  1  0
 23 28  1  0
 23 22  1  0
 23 24  1  6
 25 26  1  0
 25 24  1  0
 26 27  2  0
 28 31  1  0
 29 28  2  0
 30 26  1  0
M  END
$$$$
