PKT.pdb
     RDKit          3D

 24 24  0  0  1  0  0  0  0  0999 V2000
   17.5091  -11.5415  -15.1945 N   0  0  0  0  0  0  0  0  0  0  0  0
   18.5865  -11.6071  -16.1643 C   0  0  0  0  0  0  0  0  0  0  0  0
   19.6107  -10.5953  -15.7588 C   0  0  0  0  0  0  0  0  0  0  0  0
   19.0492   -9.9200  -14.5516 C   0  0  0  0  0  0  0  0  0  0  0  0
   18.0708  -10.9324  -14.0106 C   0  0  1  0  0  0  0  0  0  0  0  0
   17.0337  -10.2029  -13.2521 C   0  0  0  0  0  0  0  0  0  0  0  0
   16.0875   -9.6755  -13.8668 O   0  0  0  0  0  0  0  0  0  0  0  0
   17.0841  -10.0863  -11.8510 N   0  0  0  0  0  0  0  0  0  0  0  0
   16.0251   -9.3519  -11.1657 C   0  0  1  0  0  0  0  0  0  0  0  0
   15.3918  -10.2566  -10.1320 C   0  0  0  0  0  0  0  0  0  0  0  0
   14.4143   -9.5157   -9.2751 C   0  0  0  0  0  0  0  0  0  0  0  0
   12.9991  -10.0891   -9.5436 C   0  0  0  0  0  0  0  0  0  0  0  0
   11.9695   -9.2771   -8.7948 C   0  0  0  0  0  0  0  0  0  0  0  0
   10.6537   -9.7381   -9.1368 N   0  0  0  0  0  0  0  0  0  0  0  0
   16.6411   -8.1339  -10.6396 C   0  0  0  0  0  0  0  0  0  0  0  0
   17.7299   -8.1956  -10.0260 O   0  0  0  0  0  0  0  0  0  0  0  0
   16.7293   -3.2143  -10.9304 C   0  0  0  0  0  0  0  0  0  0  0  0
   16.1602   -4.5568  -11.2868 C   0  0  1  0  0  0  0  0  0  0  0  0
   16.6807   -4.9397  -12.5343 O   0  0  0  0  0  0  0  0  0  0  0  0
   16.5941   -5.6393  -10.3002 C   0  0  2  0  0  0  0  0  0  0  0  0
   16.0388   -6.8787  -10.8115 N   0  0  0  0  0  0  0  0  0  0  0  0
   16.2045   -5.3277   -8.9317 C   0  0  0  0  0  0  0  0  0  0  0  0
   17.0781   -4.7604   -8.0187 O   0  0  0  0  0  0  0  0  0  0  0  0
   15.0381   -5.5733   -8.5413 O   0  0  0  0  0  0  0  0  0  0  0  0
  1  2  1  0
  2  3  1  0
  4  3  1  0
  5  1  1  0
  5  4  1  0
  5  6  1  6
  7  6  2  0
  8  6  1  0
  9  8  1  0
  9 10  1  1
 10 11  1  0
 11 12  1  0
 12 13  1  0
 13 14  1  0
 15 21  1  0
 15  9  1  0
 16 15  2  0
 18 20  1  0
 18 17  1  1
 19 18  1  0
 20 22  1  0
 20 21  1  6
 22 23  1  0
 24 22  2  0
M  END
$$$$
