PKT.pdb
     RDKit          3D

 24 24  0  0  1  0  0  0  0  0999 V2000
   28.0567  -21.3582  -15.9020 N   0  0  0  0  0  0  0  0  0  0  0  0
   28.8200  -20.6473  -16.9106 C   0  0  0  0  0  0  0  0  0  0  0  0
   28.4049  -19.2116  -16.8513 C   0  0  0  0  0  0  0  0  0  0  0  0
   27.3417  -19.1459  -15.8054 C   0  0  0  0  0  0  0  0  0  0  0  0
   27.6162  -20.3603  -14.9541 C   0  0  1  0  0  0  0  0  0  0  0  0
   26.3467  -20.7654  -14.3160 C   0  0  0  0  0  0  0  0  0  0  0  0
   25.6272  -21.6139  -14.8760 O   0  0  0  0  0  0  0  0  0  0  0  0
   25.9255  -20.2186  -13.0901 N   0  0  0  0  0  0  0  0  0  0  0  0
   24.6557  -20.6586  -12.5205 C   0  0  1  0  0  0  0  0  0  0  0  0
   24.7193  -20.5185  -11.0157 C   0  0  0  0  0  0  0  0  0  0  0  0
   23.4514  -20.9741  -10.3650 C   0  0  0  0  0  0  0  0  0  0  0  0
   23.6102  -20.8228   -8.8303 C   0  0  0  0  0  0  0  0  0  0  0  0
   22.4126  -21.4219   -8.1323 C   0  0  0  0  0  0  0  0  0  0  0  0
   22.5559  -21.2637   -6.7127 N   0  0  0  0  0  0  0  0  0  0  0  0
   23.6129  -19.8727  -13.1798 C   0  0  0  0  0  0  0  0  0  0  0  0
   23.7019  -18.6256  -13.2268 O   0  0  0  0  0  0  0  0  0  0  0  0
   22.5544  -20.1297  -16.6366 C   0  0  0  0  0  0  0  0  0  0  0  0
   21.3132  -20.3620  -15.8251 C   0  0  1  0  0  0  0  0  0  0  0  0
   21.1594  -21.7462  -15.6404 O   0  0  0  0  0  0  0  0  0  0  0  0
   21.4273  -19.7612  -14.4252 C   0  0  2  0  0  0  0  0  0  0  0  0
   22.5016  -20.4883  -13.7748 N   0  0  0  0  0  0  0  0  0  0  0  0
   20.1612  -19.7926  -13.7059 C   0  0  0  0  0  0  0  0  0  0  0  0
   19.0746  -19.0169  -14.0750 O   0  0  0  0  0  0  0  0  0  0  0  0
   20.0251  -20.5431  -12.7101 O   0  0  0  0  0  0  0  0  0  0  0  0
  1  2  1  0
  2  3  1  0
  4  3  1  0
  5  1  1  0
  5  4  1  0
  5  6  1  6
  7  6  2  0
  8  6  1  0
  9  8  1  0
  9 10  1  1
 10 11  1  0
 11 12  1  0
 12 13  1  0
 13 14  1  0
 15 21  1  0
 15  9  1  0
 16 15  2  0
 18 20  1  0
 18 17  1  6
 19 18  1  0
 20 22  1  0
 20 21  1  1
 22 23  1  0
 24 22  2  0
M  END
$$$$
