PKT.pdb
     RDKit          3D

 24 24  0  0  1  0  0  0  0  0999 V2000
   27.2169  -20.0687  -16.8128 N   0  0  0  0  0  0  0  0  0  0  0  0
   28.4956  -20.7117  -16.5741 C   0  0  0  0  0  0  0  0  0  0  0  0
   28.3076  -21.6648  -15.4368 C   0  0  0  0  0  0  0  0  0  0  0  0
   26.8870  -21.5004  -15.0084 C   0  0  0  0  0  0  0  0  0  0  0  0
   26.2165  -20.9379  -16.2367 C   0  0  1  0  0  0  0  0  0  0  0  0
   25.0373  -20.1635  -15.7973 C   0  0  0  0  0  0  0  0  0  0  0  0
   25.2045  -19.0553  -15.2540 O   0  0  0  0  0  0  0  0  0  0  0  0
   23.7269  -20.6432  -15.9755 N   0  0  0  0  0  0  0  0  0  0  0  0
   22.6101  -19.8466  -15.4768 C   0  0  1  0  0  0  0  0  0  0  0  0
   21.8937  -19.2183  -16.6516 C   0  0  0  0  0  0  0  0  0  0  0  0
   20.7306  -18.3879  -16.2086 C   0  0  0  0  0  0  0  0  0  0  0  0
   20.0659  -17.7710  -17.4661 C   0  0  0  0  0  0  0  0  0  0  0  0
   18.9446  -16.8493  -17.0498 C   0  0  0  0  0  0  0  0  0  0  0  0
   18.3691  -16.2377  -18.2140 N   0  0  0  0  0  0  0  0  0  0  0  0
   21.7983  -20.7431  -14.6540 C   0  0  0  0  0  0  0  0  0  0  0  0
   21.6452  -21.9383  -14.9913 O   0  0  0  0  0  0  0  0  0  0  0  0
   19.8366  -21.4226  -10.1845 C   0  0  0  0  0  0  0  0  0  0  0  0
   20.6732  -20.6892  -11.1921 C   0  0  1  0  0  0  0  0  0  0  0  0
   22.0214  -21.0139  -10.9665 O   0  0  0  0  0  0  0  0  0  0  0  0
   20.3665  -21.1363  -12.6203 C   0  0  2  0  0  0  0  0  0  0  0  0
   21.1819  -20.2947  -13.4763 N   0  0  0  0  0  0  0  0  0  0  0  0
   18.9415  -21.0926  -12.9188 C   0  0  0  0  0  0  0  0  0  0  0  0
   18.1160  -22.1958  -12.7775 O   0  0  0  0  0  0  0  0  0  0  0  0
   18.4184  -20.0259  -13.3210 O   0  0  0  0  0  0  0  0  0  0  0  0
  1  2  1  0
  2  3  1  0
  4  3  1  0
  5  1  1  0
  5  4  1  0
  5  6  1  1
  7  6  2  0
  8  6  1  0
  9  8  1  0
  9 10  1  6
 10 11  1  0
 11 12  1  0
 12 13  1  0
 13 14  1  0
 15 21  1  0
 15  9  1  0
 16 15  2  0
 18 20  1  0
 18 17  1  1
 19 18  1  0
 20 22  1  0
 20 21  1  6
 22 23  1  0
 24 22  2  0
M  END
$$$$
