PKT.pdb
     RDKit          3D

 24 24  0  0  1  0  0  0  0  0999 V2000
   24.0811  -12.0632  -15.4004 N   0  0  0  0  0  0  0  0  0  0  0  0
   24.4835  -13.3793  -15.8601 C   0  0  0  0  0  0  0  0  0  0  0  0
   24.3380  -13.3931  -17.3487 C   0  0  0  0  0  0  0  0  0  0  0  0
   23.7907  -12.0518  -17.7091 C   0  0  0  0  0  0  0  0  0  0  0  0
   24.1968  -11.1859  -16.5429 C   0  0  1  0  0  0  0  0  0  0  0  0
   23.2340  -10.0692  -16.4479 C   0  0  0  0  0  0  0  0  0  0  0  0
   23.2759   -9.1554  -17.2933 O   0  0  0  0  0  0  0  0  0  0  0  0
   22.2681  -10.0079  -15.4269 N   0  0  0  0  0  0  0  0  0  0  0  0
   21.2565   -8.9568  -15.4750 C   0  0  1  0  0  0  0  0  0  0  0  0
   19.9477   -9.5130  -14.9594 C   0  0  0  0  0  0  0  0  0  0  0  0
   19.1613  -10.1723  -16.0483 C   0  0  0  0  0  0  0  0  0  0  0  0
   17.8517  -10.7299  -15.4337 C   0  0  0  0  0  0  0  0  0  0  0  0
   17.0948  -11.5182  -16.4758 C   0  0  0  0  0  0  0  0  0  0  0  0
   15.9770  -12.1765  -15.8610 N   0  0  0  0  0  0  0  0  0  0  0  0
   21.7985   -7.8272  -14.7200 C   0  0  0  0  0  0  0  0  0  0  0  0
   22.3327   -8.0162  -13.6044 O   0  0  0  0  0  0  0  0  0  0  0  0
   24.3633   -5.5066  -15.8764 C   0  0  0  0  0  0  0  0  0  0  0  0
   23.1816   -4.6559  -15.5117 C   0  0  1  0  0  0  0  0  0  0  0  0
   22.4153   -4.4451  -16.6702 O   0  0  0  0  0  0  0  0  0  0  0  0
   22.2581   -5.3597  -14.5191 C   0  0  2  0  0  0  0  0  0  0  0  0
   21.7400   -6.5186  -15.2221 N   0  0  0  0  0  0  0  0  0  0  0  0
   21.2319   -4.4698  -13.9929 C   0  0  0  0  0  0  0  0  0  0  0  0
   21.5179   -3.4421  -13.1095 O   0  0  0  0  0  0  0  0  0  0  0  0
   20.0355   -4.6201  -14.3385 O   0  0  0  0  0  0  0  0  0  0  0  0
  1  2  1  0
  2  3  1  0
  4  3  1  0
  5  1  1  0
  5  4  1  0
  5  6  1  1
  7  6  2  0
  8  6  1  0
  9  8  1  0
  9 10  1  1
 10 11  1  0
 11 12  1  0
 12 13  1  0
 13 14  1  0
 15 21  1  0
 15  9  1  0
 16 15  2  0
 18 20  1  0
 18 17  1  6
 19 18  1  0
 20 22  1  0
 20 21  1  6
 22 23  1  0
 24 22  2  0
M  END
$$$$
