PKT.pdb
     RDKit          3D

 24 24  0  0  1  0  0  0  0  0999 V2000
   21.8687  -18.4235  -14.5452 N   0  0  0  0  0  0  0  0  0  0  0  0
   22.2656  -19.7785  -14.2105 C   0  0  0  0  0  0  0  0  0  0  0  0
   22.2303  -20.5764  -15.4751 C   0  0  0  0  0  0  0  0  0  0  0  0
   21.7503  -19.6342  -16.5289 C   0  0  0  0  0  0  0  0  0  0  0  0
   22.0940  -18.2781  -15.9652 C   0  0  1  0  0  0  0  0  0  0  0  0
   21.1596  -17.2928  -16.5476 C   0  0  0  0  0  0  0  0  0  0  0  0
   21.2874  -16.9645  -17.7422 O   0  0  0  0  0  0  0  0  0  0  0  0
   20.1262  -16.7128  -15.7893 N   0  0  0  0  0  0  0  0  0  0  0  0
   19.2194  -15.7703  -16.4372 C   0  0  1  0  0  0  0  0  0  0  0  0
   17.7940  -16.2041  -16.1762 C   0  0  0  0  0  0  0  0  0  0  0  0
   16.8098  -15.2922  -16.8384 C   0  0  0  0  0  0  0  0  0  0  0  0
   15.3810  -15.7936  -16.5052 C   0  0  0  0  0  0  0  0  0  0  0  0
   14.3606  -14.9234  -17.1991 C   0  0  0  0  0  0  0  0  0  0  0  0
   13.0452  -15.2642  -16.7359 N   0  0  0  0  0  0  0  0  0  0  0  0
   19.5733  -14.4436  -15.9328 C   0  0  0  0  0  0  0  0  0  0  0  0
   19.8181  -14.2790  -14.7169 O   0  0  0  0  0  0  0  0  0  0  0  0
   22.2395  -12.2179  -17.4676 C   0  0  0  0  0  0  0  0  0  0  0  0
   20.9510  -11.4497  -17.4146 C   0  0  1  0  0  0  0  0  0  0  0  0
   20.2876  -11.6153  -18.6419 O   0  0  0  0  0  0  0  0  0  0  0  0
   20.0047  -11.9978  -16.3480 C   0  0  2  0  0  0  0  0  0  0  0  0
   19.6525  -13.3349  -16.7886 N   0  0  0  0  0  0  0  0  0  0  0  0
   18.8634  -11.1221  -16.1195 C   0  0  0  0  0  0  0  0  0  0  0  0
   18.9722   -9.9155  -15.4482 O   0  0  0  0  0  0  0  0  0  0  0  0
   17.7276  -11.4518  -16.5373 O   0  0  0  0  0  0  0  0  0  0  0  0
  1  2  1  0
  2  3  1  0
  4  3  1  0
  5  1  1  0
  5  4  1  0
  5  6  1  6
  7  6  2  0
  8  6  1  0
  9  8  1  0
  9 10  1  1
 10 11  1  0
 11 12  1  0
 12 13  1  0
 13 14  1  0
 15 21  1  0
 15  9  1  0
 16 15  2  0
 18 20  1  0
 18 17  1  6
 19 18  1  0
 20 22  1  0
 20 21  1  6
 22 23  1  0
 24 22  2  0
M  END
$$$$
