PKT.pdb
     RDKit          3D

 24 24  0  0  1  0  0  0  0  0999 V2000
   19.1211  -14.6926  -17.7655 N   0  0  0  0  0  0  0  0  0  0  0  0
   20.0909  -15.7670  -17.8684 C   0  0  0  0  0  0  0  0  0  0  0  0
   21.1800  -15.4774  -16.8849 C   0  0  0  0  0  0  0  0  0  0  0  0
   20.8151  -14.1731  -16.2571 C   0  0  0  0  0  0  0  0  0  0  0  0
   19.3237  -14.0915  -16.4671 C   0  0  1  0  0  0  0  0  0  0  0  0
   18.9437  -12.6638  -16.4836 C   0  0  0  0  0  0  0  0  0  0  0  0
   19.0795  -12.0096  -17.5347 O   0  0  0  0  0  0  0  0  0  0  0  0
   18.4313  -12.0197  -15.3426 N   0  0  0  0  0  0  0  0  0  0  0  0
   17.9638  -10.6420  -15.4604 C   0  0  1  0  0  0  0  0  0  0  0  0
   16.6026  -10.5296  -14.8102 C   0  0  0  0  0  0  0  0  0  0  0  0
   15.5025  -10.8355  -15.7770 C   0  0  0  0  0  0  0  0  0  0  0  0
   14.1472  -10.6400  -15.0500 C   0  0  0  0  0  0  0  0  0  0  0  0
   13.0121  -10.8308  -16.0275 C   0  0  0  0  0  0  0  0  0  0  0  0
   11.7602  -10.7594  -15.3287 N   0  0  0  0  0  0  0  0  0  0  0  0
   19.0085   -9.8002  -14.8774 C   0  0  0  0  0  0  0  0  0  0  0  0
   19.3538   -9.9630  -13.6858 O   0  0  0  0  0  0  0  0  0  0  0  0
   22.4260   -9.2967  -16.4070 C   0  0  0  0  0  0  0  0  0  0  0  0
   21.7819   -7.9532  -16.2248 C   0  0  1  0  0  0  0  0  0  0  0  0
   21.1003   -7.6263  -17.4091 O   0  0  0  0  0  0  0  0  0  0  0  0
   20.7240   -7.9735  -15.1229 C   0  0  2  0  0  0  0  0  0  0  0  0
   19.6477   -8.8041  -15.6304 N   0  0  0  0  0  0  0  0  0  0  0  0
   20.3117   -6.6334  -14.7284 C   0  0  0  0  0  0  0  0  0  0  0  0
   21.1206   -5.7946  -13.9796 O   0  0  0  0  0  0  0  0  0  0  0  0
   19.1848   -6.1996  -15.0677 O   0  0  0  0  0  0  0  0  0  0  0  0
  1  2  1  0
  2  3  1  0
  4  3  1  0
  5  1  1  0
  5  4  1  0
  5  6  1  6
  7  6  2  0
  8  6  1  0
  9  8  1  0
  9 10  1  1
 10 11  1  0
 11 12  1  0
 12 13  1  0
 13 14  1  0
 15 21  1  0
 15  9  1  0
 16 15  2  0
 18 20  1  0
 18 17  1  6
 19 18  1  0
 20 22  1  0
 20 21  1  6
 22 23  1  0
 24 22  2  0
M  END
$$$$
