PKT.pdb
     RDKit          3D

 24 24  0  0  1  0  0  0  0  0999 V2000
   21.6513  -17.9003  -20.1172 N   0  0  0  0  0  0  0  0  0  0  0  0
   22.8972  -18.5477  -20.4831 C   0  0  0  0  0  0  0  0  0  0  0  0
   24.0029  -17.5891  -20.1741 C   0  0  0  0  0  0  0  0  0  0  0  0
   23.3323  -16.3558  -19.6663 C   0  0  0  0  0  0  0  0  0  0  0  0
   21.9998  -16.8625  -19.1739 C   0  0  1  0  0  0  0  0  0  0  0  0
   21.0350  -15.7455  -19.2410 C   0  0  0  0  0  0  0  0  0  0  0  0
   20.5924  -15.3888  -20.3492 O   0  0  0  0  0  0  0  0  0  0  0  0
   20.6003  -15.0708  -18.0855 N   0  0  0  0  0  0  0  0  0  0  0  0
   19.5398  -14.0753  -18.2068 C   0  0  1  0  0  0  0  0  0  0  0  0
   18.7045  -14.0937  -16.9458 C   0  0  0  0  0  0  0  0  0  0  0  0
   17.4336  -14.8599  -17.1370 C   0  0  0  0  0  0  0  0  0  0  0  0
   17.7160  -16.3542  -16.8354 C   0  0  0  0  0  0  0  0  0  0  0  0
   16.4423  -17.1527  -16.9779 C   0  0  0  0  0  0  0  0  0  0  0  0
   16.7021  -18.5298  -16.6671 N   0  0  0  0  0  0  0  0  0  0  0  0
   20.1990  -12.8037  -18.5036 C   0  0  0  0  0  0  0  0  0  0  0  0
   21.2481  -12.4847  -17.9008 O   0  0  0  0  0  0  0  0  0  0  0  0
   20.6334  -11.7406  -22.1688 C   0  0  0  0  0  0  0  0  0  0  0  0
   20.0660  -10.5893  -21.3906 C   0  0  1  0  0  0  0  0  0  0  0  0
   18.6668  -10.6204  -21.5136 O   0  0  0  0  0  0  0  0  0  0  0  0
   20.3595  -10.7122  -19.8965 C   0  0  2  0  0  0  0  0  0  0  0  0
   19.6830  -11.9210  -19.4640 N   0  0  0  0  0  0  0  0  0  0  0  0
   19.9785   -9.5156  -19.1585 C   0  0  0  0  0  0  0  0  0  0  0  0
   18.9693   -9.5144  -18.2099 O   0  0  0  0  0  0  0  0  0  0  0  0
   20.5727   -8.4320  -19.3728 O   0  0  0  0  0  0  0  0  0  0  0  0
  1  2  1  0
  2  3  1  0
  4  3  1  0
  5  1  1  0
  5  4  1  0
  5  6  1  6
  7  6  2  0
  8  6  1  0
  9  8  1  0
  9 10  1  1
 10 11  1  0
 11 12  1  0
 12 13  1  0
 13 14  1  0
 15 21  1  0
 15  9  1  0
 16 15  2  0
 18 20  1  0
 18 17  1  6
 19 18  1  0
 20 22  1  0
 20 21  1  1
 22 23  1  0
 24 22  2  0
M  END
$$$$
