PKT.pdb
     RDKit          3D

 24 24  0  0  1  0  0  0  0  0999 V2000
   43.3690  -14.5930  -10.0868 N   0  0  0  0  0  0  0  0  0  0  0  0
   43.3902  -15.4301  -11.2717 C   0  0  0  0  0  0  0  0  0  0  0  0
   42.6073  -14.7207  -12.3304 C   0  0  0  0  0  0  0  0  0  0  0  0
   42.1002  -13.4740  -11.6845 C   0  0  0  0  0  0  0  0  0  0  0  0
   43.0635  -13.2567  -10.5444 C   0  0  1  0  0  0  0  0  0  0  0  0
   42.3613  -12.4893   -9.4951 C   0  0  0  0  0  0  0  0  0  0  0  0
   41.4481  -13.0364   -8.8486 O   0  0  0  0  0  0  0  0  0  0  0  0
   42.6953  -11.1540   -9.2041 N   0  0  0  0  0  0  0  0  0  0  0  0
   42.0852  -10.5108   -8.0447 C   0  0  1  0  0  0  0  0  0  0  0  0
   43.1339  -10.3484   -6.9666 C   0  0  0  0  0  0  0  0  0  0  0  0
   42.5872   -9.6399   -5.7675 C   0  0  0  0  0  0  0  0  0  0  0  0
   43.7064   -9.5593   -4.6976 C   0  0  0  0  0  0  0  0  0  0  0  0
   43.2200   -8.7635   -3.5100 C   0  0  0  0  0  0  0  0  0  0  0  0
   44.2830   -8.6293   -2.5546 N   0  0  0  0  0  0  0  0  0  0  0  0
   41.4868   -9.2672   -8.5296 C   0  0  0  0  0  0  0  0  0  0  0  0
   42.0763   -8.5828   -9.3955 O   0  0  0  0  0  0  0  0  0  0  0  0
   37.6006   -9.0241   -9.1482 C   0  0  0  0  0  0  0  0  0  0  0  0
   38.0903   -7.8697   -8.3233 C   0  0  1  0  0  0  0  0  0  0  0  0
   37.9336   -8.1989   -6.9665 O   0  0  0  0  0  0  0  0  0  0  0  0
   39.5836   -7.6185   -8.5250 C   0  0  2  0  0  0  0  0  0  0  0  0
   40.2489   -8.8165   -8.0475 N   0  0  0  0  0  0  0  0  0  0  0  0
   40.0287   -6.3894   -7.8826 C   0  0  0  0  0  0  0  0  0  0  0  0
   39.6959   -5.1339   -8.3637 O   0  0  0  0  0  0  0  0  0  0  0  0
   40.7421   -6.4442   -6.8523 O   0  0  0  0  0  0  0  0  0  0  0  0
  1  2  1  0
  2  3  1  0
  4  3  1  0
  5  1  1  0
  5  4  1  0
  5  6  1  1
  7  6  2  0
  8  6  1  0
  9  8  1  0
  9 10  1  1
 10 11  1  0
 11 12  1  0
 12 13  1  0
 13 14  1  0
 15 21  1  0
 15  9  1  0
 16 15  2  0
 18 20  1  0
 18 17  1  6
 19 18  1  0
 20 22  1  0
 20 21  1  1
 22 23  1  0
 24 22  2  0
M  END
$$$$
