ADF.pdb
     RDKit          3D

 25 25  0  0  1  0  0  0  0  0999 V2000
   25.1915  -13.8208  -17.1067 C   0  0  0  0  0  0  0  0  0  0  0  0
   24.6776  -13.4192  -18.4531 C   0  0  2  0  0  0  0  0  0  0  0  0
   25.6888  -13.3562  -19.4681 N   0  0  0  0  0  0  0  0  0  0  0  0
   23.9123  -12.1333  -18.3979 C   0  0  0  0  0  0  0  0  0  0  0  0
   24.5007  -11.0270  -18.4568 O   0  0  0  0  0  0  0  0  0  0  0  0
   22.4765  -12.1112  -18.2760 N   0  0  0  0  0  0  0  0  0  0  0  0
   21.7320  -10.8951  -18.1541 C   0  0  1  0  0  0  0  0  0  0  0  0
   20.3158  -10.9684  -18.6546 C   0  0  0  0  0  0  0  0  0  0  0  0
   20.2213  -11.4867  -20.0346 C   0  0  0  0  0  0  0  0  0  0  0  0
   19.8765  -12.6774  -20.2094 O   0  0  0  0  0  0  0  0  0  0  0  0
   21.7920  -10.3209  -16.7826 C   0  0  0  0  0  0  0  0  0  0  0  0
   21.5491  -10.9602  -15.7493 O   0  0  0  0  0  0  0  0  0  0  0  0
   20.4965  -10.7134  -21.1449 O   0  0  0  0  0  0  0  0  0  0  0  0
   22.1517   -8.9502  -16.6640 N   0  0  0  0  0  0  0  0  0  0  0  0
   22.2633   -8.2960  -15.3733 C   0  0  1  0  0  0  0  0  0  0  0  0
   23.6357   -7.6543  -15.3400 C   0  0  0  0  0  0  0  0  0  0  0  0
   24.7107   -8.6744  -15.4580 C   0  0  0  0  0  0  0  0  0  0  0  0
   24.7902   -9.6730  -14.5382 C   0  0  0  0  0  0  0  0  0  0  0  0
   25.7614  -10.6595  -14.5844 C   0  0  0  0  0  0  0  0  0  0  0  0
   26.6880  -10.6320  -15.6034 C   0  0  0  0  0  0  0  0  0  0  0  0
   26.6037   -9.6242  -16.5273 C   0  0  0  0  0  0  0  0  0  0  0  0
   25.6408   -8.6396  -16.4881 C   0  0  0  0  0  0  0  0  0  0  0  0
   21.2604   -7.1879  -15.2566 C   0  0  0  0  0  0  0  0  0  0  0  0
   21.0243   -6.5650  -14.0471 O   0  0  0  0  0  0  0  0  0  0  0  0
   20.6430   -6.8460  -16.2963 O   0  0  0  0  0  0  0  0  0  0  0  0
  2  1  1  1
  2  3  1  0
  4  5  2  0
  4  2  1  0
  6  4  1  0
  7  8  1  1
  7  6  1  0
  8  9  1  0
  9 10  2  0
  9 13  1  0
 11  7  1  0
 12 11  2  0
 14 11  1  0
 15 16  1  6
 15 14  1  0
 16 17  1  0
 17 22  2  0
 18 19  2  0
 18 17  1  0
 19 20  1  0
 20 21  2  0
 22 21  1  0
 23 15  1  0
 23 24  1  0
 25 23  2  0
M  END
$$$$
