ADF.pdb
     RDKit          3D

 25 25  0  0  1  0  0  0  0  0999 V2000
   27.9864  -17.8800  -15.6060 C   0  0  0  0  0  0  0  0  0  0  0  0
   28.2750  -19.1376  -14.8487 C   0  0  2  0  0  0  0  0  0  0  0  0
   28.1366  -20.3328  -15.6291 N   0  0  0  0  0  0  0  0  0  0  0  0
   27.4602  -19.2346  -13.5961 C   0  0  0  0  0  0  0  0  0  0  0  0
   27.3461  -18.2549  -12.8209 O   0  0  0  0  0  0  0  0  0  0  0  0
   26.7765  -20.4490  -13.2296 N   0  0  0  0  0  0  0  0  0  0  0  0
   25.9279  -20.5391  -12.0808 C   0  0  1  0  0  0  0  0  0  0  0  0
   24.7053  -21.3953  -12.2639 C   0  0  0  0  0  0  0  0  0  0  0  0
   23.8823  -20.9805  -13.4183 C   0  0  0  0  0  0  0  0  0  0  0  0
   24.3067  -21.2072  -14.5741 O   0  0  0  0  0  0  0  0  0  0  0  0
   26.6708  -20.9138  -10.8470 C   0  0  0  0  0  0  0  0  0  0  0  0
   27.8342  -21.3399  -10.8376 O   0  0  0  0  0  0  0  0  0  0  0  0
   22.6607  -20.3523  -13.2792 O   0  0  0  0  0  0  0  0  0  0  0  0
   25.9908  -20.7693   -9.6065 N   0  0  0  0  0  0  0  0  0  0  0  0
   26.6440  -21.0376   -8.3385 C   0  0  1  0  0  0  0  0  0  0  0  0
   27.6699  -19.9386   -8.1488 C   0  0  0  0  0  0  0  0  0  0  0  0
   28.1399  -19.8773   -6.7396 C   0  0  0  0  0  0  0  0  0  0  0  0
   29.2555  -20.5645   -6.3754 C   0  0  0  0  0  0  0  0  0  0  0  0
   29.7548  -20.5531   -5.0834 C   0  0  0  0  0  0  0  0  0  0  0  0
   29.0967  -19.8160   -4.1235 C   0  0  0  0  0  0  0  0  0  0  0  0
   27.9735  -19.1257   -4.4954 C   0  0  0  0  0  0  0  0  0  0  0  0
   27.4709  -19.1320   -5.7782 C   0  0  0  0  0  0  0  0  0  0  0  0
   25.6663  -20.9220   -7.2080 C   0  0  0  0  0  0  0  0  0  0  0  0
   25.8389  -21.6387   -6.0405 O   0  0  0  0  0  0  0  0  0  0  0  0
   24.6856  -20.1510   -7.3595 O   0  0  0  0  0  0  0  0  0  0  0  0
  2  1  1  6
  2  3  1  0
  4  5  2  0
  4  2  1  0
  6  4  1  0
  7  8  1  6
  7  6  1  0
  8  9  1  0
  9 10  2  0
  9 13  1  0
 11  7  1  0
 12 11  2  0
 14 11  1  0
 15 16  1  1
 15 14  1  0
 16 17  1  0
 17 22  2  0
 18 19  2  0
 18 17  1  0
 19 20  1  0
 20 21  2  0
 22 21  1  0
 23 15  1  0
 23 24  1  0
 25 23  2  0
M  END
$$$$
