ADF.pdb
     RDKit          3D

 25 25  0  0  1  0  0  0  0  0999 V2000
   19.1980  -12.3346    4.3330 C   0  0  0  0  0  0  0  0  0  0  0  0
   17.8976  -12.4920    5.0558 C   0  0  2  0  0  0  0  0  0  0  0  0
   17.5970  -11.4166    5.9557 N   0  0  0  0  0  0  0  0  0  0  0  0
   17.8089  -13.8074    5.7657 C   0  0  0  0  0  0  0  0  0  0  0  0
   18.1419  -13.9164    6.9703 O   0  0  0  0  0  0  0  0  0  0  0  0
   17.3401  -14.9968    5.1007 N   0  0  0  0  0  0  0  0  0  0  0  0
   17.3295  -16.2803    5.7336 C   0  0  1  0  0  0  0  0  0  0  0  0
   16.5091  -17.3253    5.0291 C   0  0  0  0  0  0  0  0  0  0  0  0
   16.4757  -18.6125    5.7530 C   0  0  0  0  0  0  0  0  0  0  0  0
   16.2870  -18.6037    6.9906 O   0  0  0  0  0  0  0  0  0  0  0  0
   18.6974  -16.7810    6.0381 C   0  0  0  0  0  0  0  0  0  0  0  0
   19.6384  -16.7683    5.2322 O   0  0  0  0  0  0  0  0  0  0  0  0
   16.6432  -19.8298    5.1233 O   0  0  0  0  0  0  0  0  0  0  0  0
   18.9256  -17.3052    7.3401 N   0  0  0  0  0  0  0  0  0  0  0  0
   20.2571  -17.6456    7.8067 C   0  0  1  0  0  0  0  0  0  0  0  0
   20.6029  -16.6325    8.8793 C   0  0  0  0  0  0  0  0  0  0  0  0
   21.9805  -16.8442    9.3967 C   0  0  0  0  0  0  0  0  0  0  0  0
   22.1590  -17.2227   10.6907 C   0  0  0  0  0  0  0  0  0  0  0  0
   23.4106  -17.4413   11.2422 C   0  0  0  0  0  0  0  0  0  0  0  0
   24.5246  -17.2693   10.4503 C   0  0  0  0  0  0  0  0  0  0  0  0
   24.3395  -16.8880    9.1476 C   0  0  0  0  0  0  0  0  0  0  0  0
   23.0980  -16.6688    8.5919 C   0  0  0  0  0  0  0  0  0  0  0  0
   20.2560  -18.9932    8.4634 C   0  0  0  0  0  0  0  0  0  0  0  0
   19.0792  -19.5791    8.8858 O   0  0  0  0  0  0  0  0  0  0  0  0
   21.3618  -19.5706    8.6157 O   0  0  0  0  0  0  0  0  0  0  0  0
  2  1  1  1
  2  3  1  0
  4  5  2  0
  4  2  1  0
  6  4  1  0
  7  8  1  6
  7  6  1  0
  8  9  1  0
  9 10  2  0
  9 13  1  0
 11  7  1  0
 12 11  2  0
 14 11  1  0
 15 16  1  1
 15 14  1  0
 16 17  1  0
 17 22  2  0
 18 19  2  0
 18 17  1  0
 19 20  1  0
 20 21  2  0
 22 21  1  0
 23 15  1  0
 23 24  1  0
 25 23  2  0
M  END
$$$$
