ADF.pdb
     RDKit          3D

 25 25  0  0  1  0  0  0  0  0999 V2000
   19.8368  -11.8656  -14.9509 C   0  0  0  0  0  0  0  0  0  0  0  0
   19.4758  -11.5265  -16.3626 C   0  0  2  0  0  0  0  0  0  0  0  0
   20.0562  -12.4020  -17.3390 N   0  0  0  0  0  0  0  0  0  0  0  0
   19.7862  -10.0990  -16.6910 C   0  0  0  0  0  0  0  0  0  0  0  0
   20.9536   -9.7400  -16.9775 O   0  0  0  0  0  0  0  0  0  0  0  0
   18.7644   -9.0828  -16.6926 N   0  0  0  0  0  0  0  0  0  0  0  0
   19.0487   -7.7043  -16.9511 C   0  0  1  0  0  0  0  0  0  0  0  0
   17.9863   -6.9745  -17.7258 C   0  0  0  0  0  0  0  0  0  0  0  0
   18.4107   -5.6247  -18.1496 C   0  0  0  0  0  0  0  0  0  0  0  0
   17.8055   -4.6300  -17.6895 O   0  0  0  0  0  0  0  0  0  0  0  0
   19.4314   -6.9574  -15.7222 C   0  0  0  0  0  0  0  0  0  0  0  0
   18.8561   -7.0720  -14.6308 O   0  0  0  0  0  0  0  0  0  0  0  0
   19.4497   -5.4098  -19.0332 O   0  0  0  0  0  0  0  0  0  0  0  0
   20.5282   -6.0577  -15.8202 N   0  0  0  0  0  0  0  0  0  0  0  0
   20.9879   -5.2827  -14.6824 C   0  0  1  0  0  0  0  0  0  0  0  0
   22.4647   -5.5867  -14.5307 C   0  0  0  0  0  0  0  0  0  0  0  0
   22.6922   -7.0291  -14.2517 C   0  0  0  0  0  0  0  0  0  0  0  0
   22.2131   -7.5723  -13.1006 C   0  0  0  0  0  0  0  0  0  0  0  0
   22.3833   -8.9076  -12.7739 C   0  0  0  0  0  0  0  0  0  0  0  0
   23.0662   -9.7236  -13.6489 C   0  0  0  0  0  0  0  0  0  0  0  0
   23.5469   -9.1717  -14.8068 C   0  0  0  0  0  0  0  0  0  0  0  0
   23.3815   -7.8448  -15.1388 C   0  0  0  0  0  0  0  0  0  0  0  0
   20.8711   -3.8149  -14.9639 C   0  0  0  0  0  0  0  0  0  0  0  0
   21.1907   -2.8773  -14.0020 O   0  0  0  0  0  0  0  0  0  0  0  0
   20.4729   -3.4679  -16.1042 O   0  0  0  0  0  0  0  0  0  0  0  0
  2  1  1  1
  2  3  1  0
  4  5  2  0
  4  2  1  0
  6  4  1  0
  7  8  1  1
  7  6  1  0
  8  9  1  0
  9 10  2  0
  9 13  1  0
 11  7  1  0
 12 11  2  0
 14 11  1  0
 15 16  1  6
 15 14  1  0
 16 17  1  0
 17 22  2  0
 18 19  2  0
 18 17  1  0
 19 20  1  0
 20 21  2  0
 22 21  1  0
 23 15  1  0
 23 24  1  0
 25 23  2  0
M  END
$$$$
