ADF.pdb
     RDKit          3D

 25 25  0  0  1  0  0  0  0  0999 V2000
   20.1301  -11.5035  -15.8478 C   0  0  0  0  0  0  0  0  0  0  0  0
   18.8456  -10.8868  -16.3035 C   0  0  2  0  0  0  0  0  0  0  0  0
   18.3018  -11.4817  -17.4897 N   0  0  0  0  0  0  0  0  0  0  0  0
   18.9668   -9.4038  -16.4716 C   0  0  0  0  0  0  0  0  0  0  0  0
   19.6760   -8.9115  -17.3817 O   0  0  0  0  0  0  0  0  0  0  0  0
   18.2785   -8.4843  -15.6013 N   0  0  0  0  0  0  0  0  0  0  0  0
   18.3211   -7.0662  -15.7896 C   0  0  1  0  0  0  0  0  0  0  0  0
   16.9822   -6.4174  -16.0083 C   0  0  0  0  0  0  0  0  0  0  0  0
   17.0838   -4.9678  -16.2730 C   0  0  0  0  0  0  0  0  0  0  0  0
   17.8383   -4.5737  -17.1910 O   0  0  0  0  0  0  0  0  0  0  0  0
   19.0926   -6.3692  -14.7249 C   0  0  0  0  0  0  0  0  0  0  0  0
   18.8739   -6.4945  -13.5118 O   0  0  0  0  0  0  0  0  0  0  0  0
   16.3804   -4.0241  -15.5511 O   0  0  0  0  0  0  0  0  0  0  0  0
   20.1448   -5.5072  -15.1396 N   0  0  0  0  0  0  0  0  0  0  0  0
   20.9389   -4.7538  -14.1866 C   0  0  1  0  0  0  0  0  0  0  0  0
   22.3681   -5.2280  -14.3563 C   0  0  0  0  0  0  0  0  0  0  0  0
   22.5195   -6.6453  -13.9336 C   0  0  0  0  0  0  0  0  0  0  0  0
   22.8764   -7.5834  -14.8514 C   0  0  0  0  0  0  0  0  0  0  0  0
   23.0394   -8.9212  -14.5319 C   0  0  0  0  0  0  0  0  0  0  0  0
   22.8321   -9.3233  -13.2306 C   0  0  0  0  0  0  0  0  0  0  0  0
   22.4727   -8.3747  -12.3100 C   0  0  0  0  0  0  0  0  0  0  0  0
   22.3088   -7.0424  -12.6201 C   0  0  0  0  0  0  0  0  0  0  0  0
   20.9207   -3.2934  -14.5245 C   0  0  0  0  0  0  0  0  0  0  0  0
   21.5469   -2.3667  -13.7148 O   0  0  0  0  0  0  0  0  0  0  0  0
   20.3165   -2.9423  -15.5690 O   0  0  0  0  0  0  0  0  0  0  0  0
  2  1  1  6
  2  3  1  0
  4  5  2  0
  4  2  1  0
  6  4  1  0
  7  8  1  1
  7  6  1  0
  8  9  1  0
  9 10  2  0
  9 13  1  0
 11  7  1  0
 12 11  2  0
 14 11  1  0
 15 16  1  6
 15 14  1  0
 16 17  1  0
 17 22  2  0
 18 19  2  0
 18 17  1  0
 19 20  1  0
 20 21  2  0
 22 21  1  0
 23 15  1  0
 23 24  1  0
 25 23  2  0
M  END
$$$$
