ADF.pdb
     RDKit          3D

 25 25  0  0  1  0  0  0  0  0999 V2000
   34.6264  -34.6130    3.1945 C   0  0  0  0  0  0  0  0  0  0  0  0
   34.4155  -35.5558    2.0522 C   0  0  2  0  0  0  0  0  0  0  0  0
   35.2339  -35.2775    0.9079 N   0  0  0  0  0  0  0  0  0  0  0  0
   32.9740  -35.6389    1.6555 C   0  0  0  0  0  0  0  0  0  0  0  0
   32.5003  -34.8809    0.7754 O   0  0  0  0  0  0  0  0  0  0  0  0
   32.0747  -36.5869    2.2633 N   0  0  0  0  0  0  0  0  0  0  0  0
   30.7118  -36.7300    1.8509 C   0  0  1  0  0  0  0  0  0  0  0  0
   30.1404  -38.1100    2.0260 C   0  0  0  0  0  0  0  0  0  0  0  0
   28.7377  -38.2114    1.5745 C   0  0  0  0  0  0  0  0  0  0  0  0
   28.4601  -37.9012    0.3937 O   0  0  0  0  0  0  0  0  0  0  0  0
   29.8213  -35.6963    2.4449 C   0  0  0  0  0  0  0  0  0  0  0  0
   29.8006  -35.4043    3.6489 O   0  0  0  0  0  0  0  0  0  0  0  0
   27.7148  -38.6354    2.3993 O   0  0  0  0  0  0  0  0  0  0  0  0
   28.9426  -35.0076    1.5642 N   0  0  0  0  0  0  0  0  0  0  0  0
   27.9420  -34.0768    2.0528 C   0  0  1  0  0  0  0  0  0  0  0  0
   28.3372  -32.7127    1.5242 C   0  0  0  0  0  0  0  0  0  0  0  0
   29.2661  -32.0216    2.4568 C   0  0  0  0  0  0  0  0  0  0  0  0
   28.7925  -31.5340    3.6347 C   0  0  0  0  0  0  0  0  0  0  0  0
   29.5974  -30.8819    4.5542 C   0  0  0  0  0  0  0  0  0  0  0  0
   30.9349  -30.7180    4.2677 C   0  0  0  0  0  0  0  0  0  0  0  0
   31.4070  -31.2109    3.0800 C   0  0  0  0  0  0  0  0  0  0  0  0
   30.6129  -31.8606    2.1605 C   0  0  0  0  0  0  0  0  0  0  0  0
   26.5975  -34.3970    1.4723 C   0  0  0  0  0  0  0  0  0  0  0  0
   25.4813  -33.6572    1.8093 O   0  0  0  0  0  0  0  0  0  0  0  0
   26.5215  -35.3607    0.6694 O   0  0  0  0  0  0  0  0  0  0  0  0
  2  1  1  1
  2  3  1  0
  4  5  2  0
  4  2  1  0
  6  4  1  0
  7  8  1  1
  7  6  1  0
  8  9  1  0
  9 10  2  0
  9 13  1  0
 11  7  1  0
 12 11  2  0
 14 11  1  0
 15 16  1  6
 15 14  1  0
 16 17  1  0
 17 22  2  0
 18 19  2  0
 18 17  1  0
 19 20  1  0
 20 21  2  0
 22 21  1  0
 23 15  1  0
 23 24  1  0
 25 23  2  0
M  END
$$$$
