ADF.pdb
     RDKit          3D

 25 25  0  0  1  0  0  0  0  0999 V2000
   28.9637  -21.4365  -17.9621 C   0  0  0  0  0  0  0  0  0  0  0  0
   28.0700  -22.0163  -16.9117 C   0  0  2  0  0  0  0  0  0  0  0  0
   27.5563  -23.3155  -17.2356 N   0  0  0  0  0  0  0  0  0  0  0  0
   26.9517  -21.0867  -16.5546 C   0  0  0  0  0  0  0  0  0  0  0  0
   27.1821  -19.9167  -16.1653 O   0  0  0  0  0  0  0  0  0  0  0  0
   25.5719  -21.4931  -16.6425 N   0  0  0  0  0  0  0  0  0  0  0  0
   24.4873  -20.6071  -16.3482 C   0  0  1  0  0  0  0  0  0  0  0  0
   23.6303  -20.2434  -17.5292 C   0  0  0  0  0  0  0  0  0  0  0  0
   24.1412  -19.0717  -18.2694 C   0  0  0  0  0  0  0  0  0  0  0  0
   24.3429  -18.0052  -17.6455 O   0  0  0  0  0  0  0  0  0  0  0  0
   23.6599  -21.0740  -15.2028 C   0  0  0  0  0  0  0  0  0  0  0  0
   23.4701  -22.2657  -14.9216 O   0  0  0  0  0  0  0  0  0  0  0  0
   24.4081  -19.1002  -19.6238 O   0  0  0  0  0  0  0  0  0  0  0  0
   23.0536  -20.0792  -14.3873 N   0  0  0  0  0  0  0  0  0  0  0  0
   22.2728  -20.4222  -13.2129 C   0  0  1  0  0  0  0  0  0  0  0  0
   22.6618  -19.4263  -12.1391 C   0  0  0  0  0  0  0  0  0  0  0  0
   23.6456  -20.0125  -11.1911 C   0  0  0  0  0  0  0  0  0  0  0  0
   24.9545  -20.0958  -11.5509 C   0  0  0  0  0  0  0  0  0  0  0  0
   25.9281  -20.6264  -10.7206 C   0  0  0  0  0  0  0  0  0  0  0  0
   25.5596  -21.0905   -9.4770 C   0  0  0  0  0  0  0  0  0  0  0  0
   24.2401  -21.0044   -9.1194 C   0  0  0  0  0  0  0  0  0  0  0  0
   23.2661  -20.4780   -9.9394 C   0  0  0  0  0  0  0  0  0  0  0  0
   20.8102  -20.2287  -13.4785 C   0  0  0  0  0  0  0  0  0  0  0  0
   19.8563  -20.8802  -12.7220 O   0  0  0  0  0  0  0  0  0  0  0  0
   20.4828  -19.4540  -14.4122 O   0  0  0  0  0  0  0  0  0  0  0  0
  2  1  1  6
  2  3  1  0
  4  5  2  0
  4  2  1  0
  6  4  1  0
  7  8  1  6
  7  6  1  0
  8  9  1  0
  9 10  2  0
  9 13  1  0
 11  7  1  0
 12 11  2  0
 14 11  1  0
 15 16  1  1
 15 14  1  0
 16 17  1  0
 17 22  2  0
 18 19  2  0
 18 17  1  0
 19 20  1  0
 20 21  2  0
 22 21  1  0
 23 15  1  0
 23 24  1  0
 25 23  2  0
M  END
$$$$
