ADF.pdb
     RDKit          3D

 25 25  0  0  1  0  0  0  0  0999 V2000
   17.7407  -11.8272  -18.4322 C   0  0  0  0  0  0  0  0  0  0  0  0
   18.6955  -11.4069  -17.3599 C   0  0  2  0  0  0  0  0  0  0  0  0
   18.7270  -12.2885  -16.2292 N   0  0  0  0  0  0  0  0  0  0  0  0
   18.4524   -9.9975  -16.9166 C   0  0  0  0  0  0  0  0  0  0  0  0
   18.4692   -9.0489  -17.7373 O   0  0  0  0  0  0  0  0  0  0  0  0
   18.1902   -9.6720  -15.5374 N   0  0  0  0  0  0  0  0  0  0  0  0
   18.0313   -8.3253  -15.0802 C   0  0  1  0  0  0  0  0  0  0  0  0
   16.7125   -8.0339  -14.4190 C   0  0  0  0  0  0  0  0  0  0  0  0
   15.5838   -8.0211  -15.3716 C   0  0  0  0  0  0  0  0  0  0  0  0
   15.7508   -7.5000  -16.4977 O   0  0  0  0  0  0  0  0  0  0  0  0
   19.1707   -7.8668  -14.2399 C   0  0  0  0  0  0  0  0  0  0  0  0
   19.2680   -8.0799  -13.0232 O   0  0  0  0  0  0  0  0  0  0  0  0
   14.3480   -8.5609  -15.0751 O   0  0  0  0  0  0  0  0  0  0  0  0
   20.2069   -7.1384  -14.8864 N   0  0  0  0  0  0  0  0  0  0  0  0
   21.4038   -6.7185  -14.1811 C   0  0  1  0  0  0  0  0  0  0  0  0
   22.5758   -7.1552  -15.0366 C   0  0  0  0  0  0  0  0  0  0  0  0
   22.6415   -8.6365  -15.1453 C   0  0  0  0  0  0  0  0  0  0  0  0
   23.1163   -9.3642  -14.0991 C   0  0  0  0  0  0  0  0  0  0  0  0
   23.2045  -10.7463  -14.1257 C   0  0  0  0  0  0  0  0  0  0  0  0
   22.7953  -11.4162  -15.2578 C   0  0  0  0  0  0  0  0  0  0  0  0
   22.3180  -10.6787  -16.3088 C   0  0  0  0  0  0  0  0  0  0  0  0
   22.2271   -9.3041  -16.2898 C   0  0  0  0  0  0  0  0  0  0  0  0
   21.4634   -5.2234  -14.0895 C   0  0  0  0  0  0  0  0  0  0  0  0
   20.5343   -4.4323  -14.7357 O   0  0  0  0  0  0  0  0  0  0  0  0
   22.3869   -4.7157  -13.4050 O   0  0  0  0  0  0  0  0  0  0  0  0
  2  1  1  6
  2  3  1  0
  4  5  2  0
  4  2  1  0
  6  4  1  0
  7  8  1  1
  7  6  1  0
  8  9  1  0
  9 10  2  0
  9 13  1  0
 11  7  1  0
 12 11  2  0
 14 11  1  0
 15 16  1  6
 15 14  1  0
 16 17  1  0
 17 22  2  0
 18 19  2  0
 18 17  1  0
 19 20  1  0
 20 21  2  0
 22 21  1  0
 23 15  1  0
 23 24  1  0
 25 23  2  0
M  END
$$$$
