AYD.pdb
     RDKit          3D

 26 26  0  0  1  0  0  0  0  0999 V2000
    8.7023  -18.5934   20.1549 C   0  0  0  0  0  0  0  0  0  0  0  0
    9.2575  -17.2005   20.0050 C   0  0  2  0  0  0  0  0  0  0  0  0
   10.5124  -17.1675   19.3293 N   0  0  0  0  0  0  0  0  0  0  0  0
    9.3139  -16.4607   21.2721 C   0  0  0  0  0  0  0  0  0  0  0  0
   10.4461  -16.4598   21.8741 O   0  0  0  0  0  0  0  0  0  0  0  0
    6.3110  -11.3566   28.1221 O   0  0  0  0  0  0  0  0  0  0  0  0
    6.5479  -12.0204   26.9173 C   0  0  0  0  0  0  0  0  0  0  0  0
    7.4567  -11.5565   25.9914 C   0  0  0  0  0  0  0  0  0  0  0  0
    7.6897  -12.2128   24.8022 C   0  0  0  0  0  0  0  0  0  0  0  0
    7.0101  -13.3912   24.4740 C   0  0  0  0  0  0  0  0  0  0  0  0
    7.2307  -14.0816   23.1930 C   0  0  0  0  0  0  0  0  0  0  0  0
    8.3566  -15.0450   23.1192 C   0  0  2  0  0  0  0  0  0  0  0  0
    8.2162  -15.7719   21.8415 N   0  0  0  0  0  0  0  0  0  0  0  0
    8.3979  -16.0724   24.1727 C   0  0  0  0  0  0  0  0  0  0  0  0
    7.6392  -17.1081   24.1047 O   0  0  0  0  0  0  0  0  0  0  0  0
    6.1071  -13.8366   25.4131 C   0  0  0  0  0  0  0  0  0  0  0  0
    5.8740  -13.1804   26.6023 C   0  0  0  0  0  0  0  0  0  0  0  0
    9.2309  -16.0609   25.3267 N   0  0  0  0  0  0  0  0  0  0  0  0
    9.4304  -17.2378   26.1480 C   0  0  1  0  0  0  0  0  0  0  0  0
    9.8545  -18.4301   25.3101 C   0  0  0  0  0  0  0  0  0  0  0  0
   10.2634  -19.5909   26.0979 C   0  0  0  0  0  0  0  0  0  0  0  0
    9.4352  -20.3920   26.5807 O   0  0  0  0  0  0  0  0  0  0  0  0
   10.3146  -17.0373   27.2992 C   0  0  0  0  0  0  0  0  0  0  0  0
   10.4600  -17.9556   28.1375 O   0  0  0  0  0  0  0  0  0  0  0  0
   11.6087  -19.8162   26.3203 O   0  0  0  0  0  0  0  0  0  0  0  0
   11.0221  -15.8716   27.5347 O   0  0  0  0  0  0  0  0  0  0  0  0
  2  1  1  1
  2  3  1  0
  4  2  1  0
  5  4  2  0
  6  7  1  0
  7  8  2  0
  8  9  1  0
 10 11  1  0
 10  9  2  0
 12 11  1  1
 12 13  1  0
 13  4  1  0
 14 12  1  0
 14 15  2  0
 16 10  1  0
 17 16  2  0
 17  7  1  0
 18 14  1  0
 19 18  1  0
 19 20  1  6
 20 21  1  0
 21 22  2  0
 21 25  1  0
 23 19  1  0
 24 23  2  0
 26 23  1  0
M  END
$$$$
