AYD.pdb
     RDKit          3D

 26 26  0  0  1  0  0  0  0  0999 V2000
    9.4759  -16.2823   18.0452 C   0  0  0  0  0  0  0  0  0  0  0  0
    9.3390  -17.0713   19.3218 C   0  0  2  0  0  0  0  0  0  0  0  0
    8.1819  -17.9037   19.3445 N   0  0  0  0  0  0  0  0  0  0  0  0
    9.4209  -16.2383   20.5283 C   0  0  0  0  0  0  0  0  0  0  0  0
   10.5253  -15.6116   20.7064 O   0  0  0  0  0  0  0  0  0  0  0  0
    6.5828  -12.0830   28.0079 O   0  0  0  0  0  0  0  0  0  0  0  0
    6.7233  -12.7168   26.7722 C   0  0  0  0  0  0  0  0  0  0  0  0
    6.3095  -14.0143   26.5630 C   0  0  0  0  0  0  0  0  0  0  0  0
    6.4487  -14.6390   25.3424 C   0  0  0  0  0  0  0  0  0  0  0  0
    7.0212  -13.9818   24.2476 C   0  0  0  0  0  0  0  0  0  0  0  0
    7.2014  -14.6517   22.9495 C   0  0  0  0  0  0  0  0  0  0  0  0
    8.5343  -15.2347   22.6589 C   0  0  2  0  0  0  0  0  0  0  0  0
    8.3751  -16.0988   21.4720 N   0  0  0  0  0  0  0  0  0  0  0  0
    9.1103  -16.0870   23.7119 C   0  0  0  0  0  0  0  0  0  0  0  0
    8.5545  -17.2032   24.0251 O   0  0  0  0  0  0  0  0  0  0  0  0
    7.4274  -12.6867   24.4790 C   0  0  0  0  0  0  0  0  0  0  0  0
    7.2882  -12.0620   25.6994 C   0  0  0  0  0  0  0  0  0  0  0  0
   10.2834  -15.8115   24.4694 N   0  0  0  0  0  0  0  0  0  0  0  0
   10.7703  -16.7113   25.4953 C   0  0  1  0  0  0  0  0  0  0  0  0
   12.2873  -16.7425   25.5274 C   0  0  0  0  0  0  0  0  0  0  0  0
   12.9013  -16.9887   24.2244 C   0  0  0  0  0  0  0  0  0  0  0  0
   12.4827  -17.8742   23.4488 O   0  0  0  0  0  0  0  0  0  0  0  0
   10.2006  -16.4862   26.8265 C   0  0  0  0  0  0  0  0  0  0  0  0
   10.4336  -17.3016   27.7473 O   0  0  0  0  0  0  0  0  0  0  0  0
   13.9806  -16.2207   23.8305 O   0  0  0  0  0  0  0  0  0  0  0  0
    9.3994  -15.4053   27.1502 O   0  0  0  0  0  0  0  0  0  0  0  0
  2  1  1  6
  2  3  1  0
  4  2  1  0
  5  4  2  0
  6  7  1  0
  7  8  2  0
  8  9  1  0
 10 11  1  0
 10  9  2  0
 12 11  1  1
 12 13  1  0
 13  4  1  0
 14 12  1  0
 14 15  2  0
 16 10  1  0
 17 16  2  0
 17  7  1  0
 18 14  1  0
 19 18  1  0
 19 20  1  1
 20 21  1  0
 21 22  2  0
 21 25  1  0
 23 19  1  0
 24 23  2  0
 26 23  1  0
M  END
$$$$
