AYD.pdb
     RDKit          3D

 26 26  0  0  1  0  0  0  0  0999 V2000
    9.5720  -19.1087   20.5495 C   0  0  0  0  0  0  0  0  0  0  0  0
    9.2447  -17.7134   20.0837 C   0  0  2  0  0  0  0  0  0  0  0  0
    9.9822  -17.3211   18.9284 N   0  0  0  0  0  0  0  0  0  0  0  0
    9.3478  -16.7085   21.1493 C   0  0  0  0  0  0  0  0  0  0  0  0
   10.4164  -15.9999   21.1540 O   0  0  0  0  0  0  0  0  0  0  0  0
    6.6290  -11.1817   27.7199 O   0  0  0  0  0  0  0  0  0  0  0  0
    6.7345  -12.1241   26.6957 C   0  0  0  0  0  0  0  0  0  0  0  0
    6.2304  -13.4004   26.8195 C   0  0  0  0  0  0  0  0  0  0  0  0
    6.3352  -14.3300   25.8075 C   0  0  0  0  0  0  0  0  0  0  0  0
    6.9632  -14.0214   24.5956 C   0  0  0  0  0  0  0  0  0  0  0  0
    7.1063  -15.0175   23.5216 C   0  0  0  0  0  0  0  0  0  0  0  0
    8.4827  -15.3842   23.1065 C   0  0  2  0  0  0  0  0  0  0  0  0
    8.3580  -16.4918   22.1378 N   0  0  0  0  0  0  0  0  0  0  0  0
    9.3713  -15.8715   24.1741 C   0  0  0  0  0  0  0  0  0  0  0  0
    9.7867  -15.0737   25.0927 O   0  0  0  0  0  0  0  0  0  0  0  0
    7.4594  -12.7411   24.4936 C   0  0  0  0  0  0  0  0  0  0  0  0
    7.3547  -11.8115   25.5054 C   0  0  0  0  0  0  0  0  0  0  0  0
    9.8527  -17.2024   24.3259 N   0  0  0  0  0  0  0  0  0  0  0  0
   10.7216  -17.5904   25.4184 C   0  0  1  0  0  0  0  0  0  0  0  0
   10.7696  -19.0990   25.5764 C   0  0  0  0  0  0  0  0  0  0  0  0
    9.5551  -19.6721   26.1526 C   0  0  0  0  0  0  0  0  0  0  0  0
    9.3975  -20.9049   26.2806 O   0  0  0  0  0  0  0  0  0  0  0  0
   12.0634  -17.0035   25.3705 C   0  0  0  0  0  0  0  0  0  0  0  0
   12.5817  -16.7290   24.2646 O   0  0  0  0  0  0  0  0  0  0  0  0
    8.5436  -18.8289   26.5719 O   0  0  0  0  0  0  0  0  0  0  0  0
   12.8229  -16.7219   26.4925 O   0  0  0  0  0  0  0  0  0  0  0  0
  2  1  1  1
  2  3  1  0
  4  2  1  0
  5  4  2  0
  6  7  1  0
  7  8  2  0
  8  9  1  0
 10 11  1  0
 10  9  2  0
 12 11  1  1
 12 13  1  0
 13  4  1  0
 14 12  1  0
 14 15  2  0
 16 10  1  0
 17 16  2  0
 17  7  1  0
 18 14  1  0
 19 18  1  0
 19 20  1  6
 20 21  1  0
 21 22  2  0
 21 25  1  0
 23 19  1  0
 24 23  2  0
 26 23  1  0
M  END
$$$$
