AYD.pdb
     RDKit          3D

 26 26  0  0  1  0  0  0  0  0999 V2000
    9.4209  -16.1452   18.1394 C   0  0  0  0  0  0  0  0  0  0  0  0
    9.5204  -16.9280   19.4233 C   0  0  2  0  0  0  0  0  0  0  0  0
    8.5264  -17.9434   19.5387 N   0  0  0  0  0  0  0  0  0  0  0  0
    9.5546  -16.0764   20.6190 C   0  0  0  0  0  0  0  0  0  0  0  0
   10.6578  -15.4619   20.8417 O   0  0  0  0  0  0  0  0  0  0  0  0
    6.4335  -11.9505   28.0452 O   0  0  0  0  0  0  0  0  0  0  0  0
    6.6466  -12.5749   26.8151 C   0  0  0  0  0  0  0  0  0  0  0  0
    7.3311  -11.9595   25.7899 C   0  0  0  0  0  0  0  0  0  0  0  0
    7.5408  -12.5771   24.5758 C   0  0  0  0  0  0  0  0  0  0  0  0
    7.0655  -13.8687   24.3225 C   0  0  0  0  0  0  0  0  0  0  0  0
    7.2586  -14.5235   23.0186 C   0  0  0  0  0  0  0  0  0  0  0  0
    8.6010  -15.0832   22.7254 C   0  0  2  0  0  0  0  0  0  0  0  0
    8.4656  -15.9069   21.5073 N   0  0  0  0  0  0  0  0  0  0  0  0
    9.1721  -15.9660   23.7557 C   0  0  0  0  0  0  0  0  0  0  0  0
    8.6628  -17.1255   23.9772 O   0  0  0  0  0  0  0  0  0  0  0  0
    6.3847  -14.4645   25.3605 C   0  0  0  0  0  0  0  0  0  0  0  0
    6.1749  -13.8472   26.5745 C   0  0  0  0  0  0  0  0  0  0  0  0
   10.2922  -15.6766   24.5847 N   0  0  0  0  0  0  0  0  0  0  0  0
   10.7998  -16.6235   25.5569 C   0  0  1  0  0  0  0  0  0  0  0  0
   12.3171  -16.6221   25.5886 C   0  0  0  0  0  0  0  0  0  0  0  0
   12.9357  -16.9103   24.2965 C   0  0  0  0  0  0  0  0  0  0  0  0
   12.4254  -17.7035   23.4771 O   0  0  0  0  0  0  0  0  0  0  0  0
   10.2255  -16.4896   26.8983 C   0  0  0  0  0  0  0  0  0  0  0  0
   10.4330  -17.3795   27.7540 O   0  0  0  0  0  0  0  0  0  0  0  0
   14.1243  -16.2889   23.9632 O   0  0  0  0  0  0  0  0  0  0  0  0
    9.4468  -15.4188   27.3008 O   0  0  0  0  0  0  0  0  0  0  0  0
  2  1  1  6
  2  3  1  0
  4  2  1  0
  5  4  2  0
  6  7  1  0
  7  8  2  0
  8  9  1  0
 10 11  1  0
 10  9  2  0
 12 11  1  1
 12 13  1  0
 13  4  1  0
 14 12  1  0
 14 15  2  0
 16 10  1  0
 17 16  2  0
 17  7  1  0
 18 14  1  0
 19 18  1  0
 19 20  1  1
 20 21  1  0
 21 22  2  0
 21 25  1  0
 23 19  1  0
 24 23  2  0
 26 23  1  0
M  END
$$$$
