AYD.pdb
     RDKit          3D

 26 26  0  0  1  0  0  0  0  0999 V2000
    8.5390  -18.7326   19.4108 C   0  0  0  0  0  0  0  0  0  0  0  0
    8.8597  -17.2734   19.2133 C   0  0  2  0  0  0  0  0  0  0  0  0
    9.9390  -17.0548   18.3078 N   0  0  0  0  0  0  0  0  0  0  0  0
    9.0665  -16.5506   20.4746 C   0  0  0  0  0  0  0  0  0  0  0  0
   10.2778  -16.4744   20.8883 O   0  0  0  0  0  0  0  0  0  0  0  0
    6.7453  -12.1021   28.0094 O   0  0  0  0  0  0  0  0  0  0  0  0
    6.8470  -12.6706   26.7387 C   0  0  0  0  0  0  0  0  0  0  0  0
    7.6566  -12.1370   25.7599 C   0  0  0  0  0  0  0  0  0  0  0  0
    7.7561  -12.6992   24.5056 C   0  0  0  0  0  0  0  0  0  0  0  0
    7.0347  -13.8479   24.1617 C   0  0  0  0  0  0  0  0  0  0  0  0
    7.1119  -14.4370   22.8151 C   0  0  0  0  0  0  0  0  0  0  0  0
    8.3218  -15.2284   22.4820 C   0  0  2  0  0  0  0  0  0  0  0  0
    8.0285  -15.9541   21.2298 N   0  0  0  0  0  0  0  0  0  0  0  0
    8.7161  -16.2505   23.4653 C   0  0  0  0  0  0  0  0  0  0  0  0
    8.0485  -17.3439   23.5739 O   0  0  0  0  0  0  0  0  0  0  0  0
    6.2324  -14.3641   25.1545 C   0  0  0  0  0  0  0  0  0  0  0  0
    6.1328  -13.8020   26.4087 C   0  0  0  0  0  0  0  0  0  0  0  0
    9.8181  -16.1736   24.3628 N   0  0  0  0  0  0  0  0  0  0  0  0
   10.1335  -17.2388   25.2929 C   0  0  1  0  0  0  0  0  0  0  0  0
   11.3401  -18.0353   24.8314 C   0  0  0  0  0  0  0  0  0  0  0  0
   12.4882  -17.2094   24.4635 C   0  0  0  0  0  0  0  0  0  0  0  0
   12.5054  -15.9741   24.6493 O   0  0  0  0  0  0  0  0  0  0  0  0
   10.2619  -16.8132   26.6892 C   0  0  0  0  0  0  0  0  0  0  0  0
   10.4390  -17.6692   27.5853 O   0  0  0  0  0  0  0  0  0  0  0  0
   13.5946  -17.8077   23.8907 O   0  0  0  0  0  0  0  0  0  0  0  0
   10.1997  -15.4940   27.1025 O   0  0  0  0  0  0  0  0  0  0  0  0
  2  1  1  1
  2  3  1  0
  4  2  1  0
  5  4  2  0
  6  7  1  0
  7  8  2  0
  8  9  1  0
 10 11  1  0
 10  9  2  0
 12 11  1  1
 12 13  1  0
 13  4  1  0
 14 12  1  0
 14 15  2  0
 16 10  1  0
 17 16  2  0
 17  7  1  0
 18 14  1  0
 19 18  1  0
 19 20  1  6
 20 21  1  0
 21 22  2  0
 21 25  1  0
 23 19  1  0
 24 23  2  0
 26 23  1  0
M  END
$$$$
