AYD.pdb
     RDKit          3D

 26 26  0  0  1  0  0  0  0  0999 V2000
    7.9765  -13.9082   17.8769 C   0  0  0  0  0  0  0  0  0  0  0  0
    8.4914  -14.9872   18.7943 C   0  0  2  0  0  0  0  0  0  0  0  0
    7.6697  -16.1522   18.8054 N   0  0  0  0  0  0  0  0  0  0  0  0
    8.7584  -14.5095   20.1568 C   0  0  0  0  0  0  0  0  0  0  0  0
    9.8264  -13.8171   20.3120 O   0  0  0  0  0  0  0  0  0  0  0  0
    6.9025  -11.9280   28.5685 O   0  0  0  0  0  0  0  0  0  0  0  0
    6.8815  -12.4393   27.2699 C   0  0  0  0  0  0  0  0  0  0  0  0
    6.6056  -13.7636   27.0081 C   0  0  0  0  0  0  0  0  0  0  0  0
    6.5852  -14.2672   25.7254 C   0  0  0  0  0  0  0  0  0  0  0  0
    6.8456  -13.4528   24.6176 C   0  0  0  0  0  0  0  0  0  0  0  0
    6.8559  -13.9891   23.2471 C   0  0  0  0  0  0  0  0  0  0  0  0
    8.1708  -14.1191   22.5724 C   0  0  2  0  0  0  0  0  0  0  0  0
    7.9221  -14.7678   21.2693 N   0  0  0  0  0  0  0  0  0  0  0  0
    9.1706  -14.9521   23.2606 C   0  0  0  0  0  0  0  0  0  0  0  0
    9.6230  -14.6097   24.4143 O   0  0  0  0  0  0  0  0  0  0  0  0
    7.1188  -12.1336   24.9022 C   0  0  0  0  0  0  0  0  0  0  0  0
    7.1392  -11.6299   26.1847 C   0  0  0  0  0  0  0  0  0  0  0  0
    9.7285  -16.1689   22.7768 N   0  0  0  0  0  0  0  0  0  0  0  0
   10.6868  -16.9388   23.5438 C   0  0  1  0  0  0  0  0  0  0  0  0
   10.4068  -18.4269   23.4424 C   0  0  0  0  0  0  0  0  0  0  0  0
   11.3596  -19.2590   24.1740 C   0  0  0  0  0  0  0  0  0  0  0  0
   11.5645  -19.1158   25.3981 O   0  0  0  0  0  0  0  0  0  0  0  0
   12.0899  -16.6266   23.2590 C   0  0  0  0  0  0  0  0  0  0  0  0
   12.9639  -16.8492   24.1271 O   0  0  0  0  0  0  0  0  0  0  0  0
   12.0604  -20.2384   23.4961 O   0  0  0  0  0  0  0  0  0  0  0  0
   12.5331  -16.0873   22.0641 O   0  0  0  0  0  0  0  0  0  0  0  0
  2  1  1  6
  2  3  1  0
  4  2  1  0
  5  4  2  0
  6  7  1  0
  7  8  2  0
  8  9  1  0
 10 11  1  0
 10  9  2  0
 12 11  1  1
 12 13  1  0
 13  4  1  0
 14 12  1  0
 14 15  2  0
 16 10  1  0
 17 16  2  0
 17  7  1  0
 18 14  1  0
 19 18  1  0
 19 20  1  6
 20 21  1  0
 21 22  2  0
 21 25  1  0
 23 19  1  0
 24 23  2  0
 26 23  1  0
M  END
$$$$
