AYD.pdb
     RDKit          3D

 26 26  0  0  1  0  0  0  0  0999 V2000
    8.2472  -14.3729   17.9927 C   0  0  0  0  0  0  0  0  0  0  0  0
    8.8225  -15.3368   18.9981 C   0  0  2  0  0  0  0  0  0  0  0  0
    8.1407  -16.5885   19.0278 N   0  0  0  0  0  0  0  0  0  0  0  0
    8.9451  -14.7638   20.3446 C   0  0  0  0  0  0  0  0  0  0  0  0
    9.8384  -13.8557   20.4912 O   0  0  0  0  0  0  0  0  0  0  0  0
    6.6107  -11.9346   28.5246 O   0  0  0  0  0  0  0  0  0  0  0  0
    6.7160  -12.4915   27.2490 C   0  0  0  0  0  0  0  0  0  0  0  0
    7.2143  -11.7817   26.1784 C   0  0  0  0  0  0  0  0  0  0  0  0
    7.3178  -12.3328   24.9195 C   0  0  0  0  0  0  0  0  0  0  0  0
    6.9190  -13.6497   24.6645 C   0  0  0  0  0  0  0  0  0  0  0  0
    6.9977  -14.2357   23.3167 C   0  0  0  0  0  0  0  0  0  0  0  0
    8.3471  -14.5366   22.7783 C   0  0  2  0  0  0  0  0  0  0  0  0
    8.1517  -15.1525   21.4505 N   0  0  0  0  0  0  0  0  0  0  0  0
    9.1557  -15.4889   23.5569 C   0  0  0  0  0  0  0  0  0  0  0  0
    9.3860  -15.2824   24.8048 O   0  0  0  0  0  0  0  0  0  0  0  0
    6.4243  -14.3402   25.7481 C   0  0  0  0  0  0  0  0  0  0  0  0
    6.3208  -13.7893   27.0070 C   0  0  0  0  0  0  0  0  0  0  0  0
    9.7464  -16.6879   23.0674 N   0  0  0  0  0  0  0  0  0  0  0  0
   10.5529  -17.5509   23.9065 C   0  0  1  0  0  0  0  0  0  0  0  0
   10.8627  -18.8639   23.2112 C   0  0  0  0  0  0  0  0  0  0  0  0
    9.7468  -19.3992   22.4343 C   0  0  0  0  0  0  0  0  0  0  0  0
    8.5899  -19.4781   22.8996 O   0  0  0  0  0  0  0  0  0  0  0  0
   11.7603  -16.9220   24.4486 C   0  0  0  0  0  0  0  0  0  0  0  0
   12.3325  -16.0163   23.8011 O   0  0  0  0  0  0  0  0  0  0  0  0
    9.9710  -19.8343   21.1418 O   0  0  0  0  0  0  0  0  0  0  0  0
   12.3318  -17.2666   25.6609 O   0  0  0  0  0  0  0  0  0  0  0  0
  2  1  1  6
  2  3  1  0
  4  2  1  0
  5  4  2  0
  6  7  1  0
  7  8  2  0
  8  9  1  0
 10 11  1  0
 10  9  2  0
 12 11  1  1
 12 13  1  0
 13  4  1  0
 14 12  1  0
 14 15  2  0
 16 10  1  0
 17 16  2  0
 17  7  1  0
 18 14  1  0
 19 18  1  0
 19 20  1  6
 20 21  1  0
 21 22  2  0
 21 25  1  0
 23 19  1  0
 24 23  2  0
 26 23  1  0
M  END
$$$$
