AYD.pdb
     RDKit          3D

 26 26  0  0  1  0  0  0  0  0999 V2000
    8.9945  -18.6931   19.5820 C   0  0  0  0  0  0  0  0  0  0  0  0
    9.1665  -17.2186   19.3225 C   0  0  2  0  0  0  0  0  0  0  0  0
   10.2104  -16.9312   18.3950 N   0  0  0  0  0  0  0  0  0  0  0  0
    9.3117  -16.4279   20.5512 C   0  0  0  0  0  0  0  0  0  0  0  0
   10.5135  -16.1778   20.9216 O   0  0  0  0  0  0  0  0  0  0  0  0
    6.7588  -11.5448   27.7337 O   0  0  0  0  0  0  0  0  0  0  0  0
    6.8760  -12.2433   26.5309 C   0  0  0  0  0  0  0  0  0  0  0  0
    7.5152  -11.7100   25.4331 C   0  0  0  0  0  0  0  0  0  0  0  0
    7.6303  -12.4008   24.2461 C   0  0  0  0  0  0  0  0  0  0  0  0
    7.0998  -13.6870   24.0961 C   0  0  0  0  0  0  0  0  0  0  0  0
    7.1916  -14.4193   22.8227 C   0  0  0  0  0  0  0  0  0  0  0  0
    8.4561  -15.1408   22.5371 C   0  0  2  0  0  0  0  0  0  0  0  0
    8.2258  -15.9449   21.3202 N   0  0  0  0  0  0  0  0  0  0  0  0
    8.9095  -16.0843   23.5721 C   0  0  0  0  0  0  0  0  0  0  0  0
    8.3494  -17.2348   23.6972 O   0  0  0  0  0  0  0  0  0  0  0  0
    6.4657  -14.2003   25.2053 C   0  0  0  0  0  0  0  0  0  0  0  0
    6.3506  -13.5097   26.3922 C   0  0  0  0  0  0  0  0  0  0  0  0
    9.9614  -15.8670   24.5060 N   0  0  0  0  0  0  0  0  0  0  0  0
   10.3829  -16.8853   25.4466 C   0  0  1  0  0  0  0  0  0  0  0  0
   11.8955  -16.9983   25.4966 C   0  0  0  0  0  0  0  0  0  0  0  0
   12.4961  -17.4541   24.2448 C   0  0  0  0  0  0  0  0  0  0  0  0
   11.8528  -18.1117   23.3994 O   0  0  0  0  0  0  0  0  0  0  0  0
    9.8002  -16.7599   26.7852 C   0  0  0  0  0  0  0  0  0  0  0  0
    9.3095  -15.6672   27.1487 O   0  0  0  0  0  0  0  0  0  0  0  0
   13.8184  -17.1514   23.9807 O   0  0  0  0  0  0  0  0  0  0  0  0
    9.7511  -17.7926   27.7051 O   0  0  0  0  0  0  0  0  0  0  0  0
  2  1  1  1
  2  3  1  0
  4  2  1  0
  5  4  2  0
  6  7  1  0
  7  8  2  0
  8  9  1  0
 10 11  1  0
 10  9  2  0
 12 11  1  1
 12 13  1  0
 13  4  1  0
 14 12  1  0
 14 15  2  0
 16 10  1  0
 17 16  2  0
 17  7  1  0
 18 14  1  0
 19 18  1  0
 19 20  1  1
 20 21  1  0
 21 22  2  0
 21 25  1  0
 23 19  1  0
 24 23  2  0
 26 23  1  0
M  END
$$$$
