AYD.pdb
     RDKit          3D

 26 26  0  0  1  0  0  0  0  0999 V2000
    6.6609  -14.2668   20.7734 C   0  0  0  0  0  0  0  0  0  0  0  0
    7.4903  -15.4441   21.2173 C   0  0  2  0  0  0  0  0  0  0  0  0
    6.7064  -16.5866   21.5533 N   0  0  0  0  0  0  0  0  0  0  0  0
    8.4379  -15.1132   22.2890 C   0  0  0  0  0  0  0  0  0  0  0  0
    9.3395  -14.2495   21.9970 O   0  0  0  0  0  0  0  0  0  0  0  0
    5.2802  -10.5712   26.9212 O   0  0  0  0  0  0  0  0  0  0  0  0
    6.0734  -11.6943   26.6805 C   0  0  0  0  0  0  0  0  0  0  0  0
    7.4391  -11.6062   26.5208 C   0  0  0  0  0  0  0  0  0  0  0  0
    8.2211  -12.7159   26.2833 C   0  0  0  0  0  0  0  0  0  0  0  0
    7.6630  -13.9958   26.1918 C   0  0  0  0  0  0  0  0  0  0  0  0
    8.4869  -15.1819   25.9080 C   0  0  0  0  0  0  0  0  0  0  0  0
    9.2854  -15.1778   24.6575 C   0  0  2  0  0  0  0  0  0  0  0  0
    8.4050  -15.6823   23.5847 N   0  0  0  0  0  0  0  0  0  0  0  0
   10.4775  -16.0415   24.6494 C   0  0  0  0  0  0  0  0  0  0  0  0
   11.4215  -15.8593   25.5030 O   0  0  0  0  0  0  0  0  0  0  0  0
    6.2972  -14.0605   26.3544 C   0  0  0  0  0  0  0  0  0  0  0  0
    5.5151  -12.9511   26.5920 C   0  0  0  0  0  0  0  0  0  0  0  0
   10.7257  -17.1243   23.7597 N   0  0  0  0  0  0  0  0  0  0  0  0
   11.8959  -17.9704   23.8790 C   0  0  1  0  0  0  0  0  0  0  0  0
   11.5239  -19.4400   23.8085 C   0  0  0  0  0  0  0  0  0  0  0  0
   10.5017  -19.8382   24.7738 C   0  0  0  0  0  0  0  0  0  0  0  0
   10.6932  -19.7800   26.0071 O   0  0  0  0  0  0  0  0  0  0  0  0
   12.9867  -17.6385   22.9586 C   0  0  0  0  0  0  0  0  0  0  0  0
   12.8296  -16.7301   22.1117 O   0  0  0  0  0  0  0  0  0  0  0  0
    9.2809  -20.2952   24.3149 O   0  0  0  0  0  0  0  0  0  0  0  0
   14.2154  -18.2752   22.9569 O   0  0  0  0  0  0  0  0  0  0  0  0
  2  1  1  1
  2  3  1  0
  4  2  1  0
  5  4  2  0
  6  7  1  0
  7  8  2  0
  8  9  1  0
 10 11  1  0
 10  9  2  0
 12 11  1  1
 12 13  1  0
 13  4  1  0
 14 12  1  0
 14 15  2  0
 16 10  1  0
 17 16  2  0
 17  7  1  0
 18 14  1  0
 19 18  1  0
 19 20  1  6
 20 21  1  0
 21 22  2  0
 21 25  1  0
 23 19  1  0
 24 23  2  0
 26 23  1  0
M  END
$$$$
