AYD.pdb
     RDKit          3D

 26 26  0  0  1  0  0  0  0  0999 V2000
    7.5831  -13.4578   19.8684 C   0  0  0  0  0  0  0  0  0  0  0  0
    8.1389  -14.7528   20.4022 C   0  0  2  0  0  0  0  0  0  0  0  0
    7.2117  -15.8332   20.3279 N   0  0  0  0  0  0  0  0  0  0  0  0
    8.7050  -14.6271   21.7512 C   0  0  0  0  0  0  0  0  0  0  0  0
    9.6879  -13.8133   21.8762 O   0  0  0  0  0  0  0  0  0  0  0  0
    5.9213  -10.0034   27.0280 O   0  0  0  0  0  0  0  0  0  0  0  0
    6.3661  -11.2502   26.5854 C   0  0  0  0  0  0  0  0  0  0  0  0
    7.7036  -11.5317   26.4115 C   0  0  0  0  0  0  0  0  0  0  0  0
    8.1414  -12.7632   25.9744 C   0  0  0  0  0  0  0  0  0  0  0  0
    7.2430  -13.7959   25.6837 C   0  0  0  0  0  0  0  0  0  0  0  0
    7.7004  -15.1039   25.1874 C   0  0  0  0  0  0  0  0  0  0  0  0
    8.8229  -15.1139   24.2173 C   0  0  2  0  0  0  0  0  0  0  0  0
    8.2337  -15.3368   22.8817 N   0  0  0  0  0  0  0  0  0  0  0  0
    9.8283  -16.1730   24.4036 C   0  0  0  0  0  0  0  0  0  0  0  0
   10.5884  -16.1765   25.4405 O   0  0  0  0  0  0  0  0  0  0  0  0
    5.9121  -13.4929   25.8644 C   0  0  0  0  0  0  0  0  0  0  0  0
    5.4741  -12.2616   26.3014 C   0  0  0  0  0  0  0  0  0  0  0  0
   10.0734  -17.2644   23.5235 N   0  0  0  0  0  0  0  0  0  0  0  0
   11.3317  -17.9827   23.5144 C   0  0  1  0  0  0  0  0  0  0  0  0
   12.4552  -17.1210   22.9682 C   0  0  0  0  0  0  0  0  0  0  0  0
   13.7518  -17.7939   22.9306 C   0  0  0  0  0  0  0  0  0  0  0  0
   13.8725  -18.9852   22.5739 O   0  0  0  0  0  0  0  0  0  0  0  0
   11.6911  -18.6026   24.7927 C   0  0  0  0  0  0  0  0  0  0  0  0
   11.5443  -17.9602   25.8570 O   0  0  0  0  0  0  0  0  0  0  0  0
   14.8859  -17.0960   23.3002 O   0  0  0  0  0  0  0  0  0  0  0  0
   12.1964  -19.8852   24.9130 O   0  0  0  0  0  0  0  0  0  0  0  0
  2  1  1  1
  2  3  1  0
  4  2  1  0
  5  4  2  0
  6  7  1  0
  7  8  2  0
  8  9  1  0
 10 11  1  0
 10  9  2  0
 12 11  1  1
 12 13  1  0
 13  4  1  0
 14 12  1  0
 14 15  2  0
 16 10  1  0
 17 16  2  0
 17  7  1  0
 18 14  1  0
 19 18  1  0
 19 20  1  1
 20 21  1  0
 21 22  2  0
 21 25  1  0
 23 19  1  0
 24 23  2  0
 26 23  1  0
M  END
$$$$
