KPS.pdb
     RDKit          3D

 23 23  0  0  1  0  0  0  0  0999 V2000
    5.9556  -18.6336   18.9631 N   0  0  0  0  0  0  0  0  0  0  0  0
    5.8470  -17.5716   19.8617 C   0  0  1  0  0  0  0  0  0  0  0  0
    4.8994  -17.7614   21.0064 C   0  0  0  0  0  0  0  0  0  0  0  0
    4.5133  -19.1673   21.2836 C   0  0  0  0  0  0  0  0  0  0  0  0
    5.1833  -19.7497   22.5075 C   0  0  0  0  0  0  0  0  0  0  0  0
    4.6342  -21.1193   22.8442 C   0  0  0  0  0  0  0  0  0  0  0  0
    5.3426  -21.7686   23.9075 N   0  0  0  0  0  0  0  0  0  0  0  0
    7.1658  -17.1648   20.4025 C   0  0  0  0  0  0  0  0  0  0  0  0
    8.0197  -18.1270   20.4868 O   0  0  0  0  0  0  0  0  0  0  0  0
    7.5706  -15.8880   20.8170 N   0  0  0  0  0  0  0  0  0  0  0  0
    7.2218  -14.5910   20.1738 C   0  0  0  0  0  0  0  0  0  0  0  0
    6.8537  -13.7567   21.4080 C   0  0  0  0  0  0  0  0  0  0  0  0
    7.3850  -14.5421   22.6188 C   0  0  0  0  0  0  0  0  0  0  0  0
    8.3966  -15.4179   21.8907 C   0  0  1  0  0  0  0  0  0  0  0  0
    9.1608  -16.3135   22.7007 C   0  0  0  0  0  0  0  0  0  0  0  0
    8.6790  -17.2997   23.2821 O   0  0  0  0  0  0  0  0  0  0  0  0
   13.1916  -16.5010   22.4064 O   0  0  0  0  0  0  0  0  0  0  0  0
   12.7878  -16.5521   23.7399 C   0  0  0  0  0  0  0  0  0  0  0  0
   11.3139  -16.9439   23.8513 C   0  0  2  0  0  0  0  0  0  0  0  0
   10.5887  -16.1513   22.9225 N   0  0  0  0  0  0  0  0  0  0  0  0
   10.9302  -16.6810   25.2686 C   0  0  0  0  0  0  0  0  0  0  0  0
   11.4471  -17.5468   26.2237 O   0  0  0  0  0  0  0  0  0  0  0  0
   10.1914  -15.7494   25.6158 O   0  0  0  0  0  0  0  0  0  0  0  0
  2  1  1  1
  2  8  1  0
  3  2  1  0
  4  3  1  0
  5  4  1  0
  6  5  1  0
  7  6  1  0
  8 10  1  0
  8  9  2  0
 10 11  1  0
 12 11  1  0
 13 14  1  0
 13 12  1  0
 14 10  1  0
 14 15  1  1
 16 15  2  0
 17 18  1  0
 19 18  1  1
 19 21  1  0
 19 20  1  0
 20 15  1  0
 21 22  1  0
 23 21  2  0
M  END
$$$$
