KPS.pdb
     RDKit          3D

 23 23  0  0  1  0  0  0  0  0999 V2000
   10.0850  -15.4619   15.5385 N   0  0  0  0  0  0  0  0  0  0  0  0
    9.0335  -15.1133   16.3869 C   0  0  1  0  0  0  0  0  0  0  0  0
    7.8055  -15.9682   16.3123 C   0  0  0  0  0  0  0  0  0  0  0  0
    8.0303  -17.3626   15.8568 C   0  0  0  0  0  0  0  0  0  0  0  0
    7.8723  -18.3913   16.9535 C   0  0  0  0  0  0  0  0  0  0  0  0
    6.7079  -19.3196   16.6826 C   0  0  0  0  0  0  0  0  0  0  0  0
    6.5469  -20.3339   17.6823 N   0  0  0  0  0  0  0  0  0  0  0  0
    9.4662  -15.0301   17.8022 C   0  0  0  0  0  0  0  0  0  0  0  0
   10.2824  -15.9622   18.1588 O   0  0  0  0  0  0  0  0  0  0  0  0
    9.0960  -14.0774   18.7620 N   0  0  0  0  0  0  0  0  0  0  0  0
    8.8831  -12.6211   18.5348 C   0  0  0  0  0  0  0  0  0  0  0  0
    7.5728  -12.4066   19.3040 C   0  0  0  0  0  0  0  0  0  0  0  0
    7.3900  -13.6584   20.1784 C   0  0  0  0  0  0  0  0  0  0  0  0
    8.8319  -14.1498   20.1695 C   0  0  1  0  0  0  0  0  0  0  0  0
    9.1055  -15.3301   20.9274 C   0  0  0  0  0  0  0  0  0  0  0  0
    8.3819  -16.3396   20.9174 O   0  0  0  0  0  0  0  0  0  0  0  0
   12.8655  -15.9417   22.5407 O   0  0  0  0  0  0  0  0  0  0  0  0
   12.0235  -17.0076   22.2265 C   0  0  0  0  0  0  0  0  0  0  0  0
   10.5624  -16.6517   22.5045 C   0  0  2  0  0  0  0  0  0  0  0  0
   10.2685  -15.4599   21.7904 N   0  0  0  0  0  0  0  0  0  0  0  0
   10.4593  -16.4871   23.9835 C   0  0  0  0  0  0  0  0  0  0  0  0
   10.7172  -17.6135   24.7541 O   0  0  0  0  0  0  0  0  0  0  0  0
   10.1618  -15.4181   24.5337 O   0  0  0  0  0  0  0  0  0  0  0  0
  2  1  1  6
  2  8  1  0
  3  2  1  0
  4  3  1  0
  5  4  1  0
  6  5  1  0
  7  6  1  0
  8 10  1  0
  8  9  2  0
 10 11  1  0
 12 11  1  0
 13 14  1  0
 13 12  1  0
 14 10  1  0
 14 15  1  6
 16 15  2  0
 17 18  1  0
 19 18  1  1
 19 21  1  0
 19 20  1  0
 20 15  1  0
 21 22  1  0
 23 21  2  0
M  END
$$$$
