KPS.pdb
     RDKit          3D

 23 23  0  0  1  0  0  0  0  0999 V2000
    9.3384  -16.6069   16.4604 N   0  0  0  0  0  0  0  0  0  0  0  0
    8.4196  -16.2693   17.4549 C   0  0  1  0  0  0  0  0  0  0  0  0
    7.3390  -17.2694   17.7311 C   0  0  0  0  0  0  0  0  0  0  0  0
    7.8046  -18.5781   18.2536 C   0  0  0  0  0  0  0  0  0  0  0  0
    6.6833  -19.5540   18.5299 C   0  0  0  0  0  0  0  0  0  0  0  0
    7.2127  -20.8927   18.9971 C   0  0  0  0  0  0  0  0  0  0  0  0
    6.1787  -21.8145   19.3647 N   0  0  0  0  0  0  0  0  0  0  0  0
    9.0862  -15.9284   18.7341 C   0  0  0  0  0  0  0  0  0  0  0  0
    9.9893  -16.7731   19.0987 O   0  0  0  0  0  0  0  0  0  0  0  0
    8.8484  -14.8218   19.5618 N   0  0  0  0  0  0  0  0  0  0  0  0
    8.6257  -13.4155   19.1256 C   0  0  0  0  0  0  0  0  0  0  0  0
    7.4230  -13.0382   20.0008 C   0  0  0  0  0  0  0  0  0  0  0  0
    7.3355  -14.1259   21.0845 C   0  0  0  0  0  0  0  0  0  0  0  0
    8.7595  -14.6573   20.9834 C   0  0  1  0  0  0  0  0  0  0  0  0
    9.1112  -15.7076   21.8865 C   0  0  0  0  0  0  0  0  0  0  0  0
    8.4238  -16.7273   22.0601 O   0  0  0  0  0  0  0  0  0  0  0  0
   12.8501  -15.7360   23.6303 O   0  0  0  0  0  0  0  0  0  0  0  0
   12.1511  -16.9393   23.5450 C   0  0  0  0  0  0  0  0  0  0  0  0
   10.6423  -16.7031   23.6248 C   0  0  2  0  0  0  0  0  0  0  0  0
   10.3193  -15.6792   22.6953 N   0  0  0  0  0  0  0  0  0  0  0  0
   10.3664  -16.3167   25.0389 C   0  0  0  0  0  0  0  0  0  0  0  0
   10.7091  -17.2434   26.0150 O   0  0  0  0  0  0  0  0  0  0  0  0
    9.8593  -15.2351   25.3660 O   0  0  0  0  0  0  0  0  0  0  0  0
  2  1  1  6
  2  8  1  0
  3  2  1  0
  4  3  1  0
  5  4  1  0
  6  5  1  0
  7  6  1  0
  8 10  1  0
  8  9  2  0
 10 11  1  0
 12 11  1  0
 13 14  1  0
 13 12  1  0
 14 10  1  0
 14 15  1  1
 16 15  2  0
 17 18  1  0
 19 18  1  1
 19 21  1  0
 19 20  1  0
 20 15  1  0
 21 22  1  0
 23 21  2  0
M  END
$$$$
