KPS.pdb
     RDKit          3D

 23 23  0  0  1  0  0  0  0  0999 V2000
    9.0799  -16.2408   16.2372 N   0  0  0  0  0  0  0  0  0  0  0  0
    8.2993  -16.1306   17.3885 C   0  0  1  0  0  0  0  0  0  0  0  0
    7.5244  -17.3491   17.7875 C   0  0  0  0  0  0  0  0  0  0  0  0
    6.9156  -18.1084   16.6672 C   0  0  0  0  0  0  0  0  0  0  0  0
    6.1010  -19.3008   17.1151 C   0  0  0  0  0  0  0  0  0  0  0  0
    5.5455  -20.0702   15.9361 C   0  0  0  0  0  0  0  0  0  0  0  0
    4.6946  -21.1581   16.3190 N   0  0  0  0  0  0  0  0  0  0  0  0
    9.0910  -15.6712   18.5544 C   0  0  0  0  0  0  0  0  0  0  0  0
   10.1969  -16.3115   18.7248 O   0  0  0  0  0  0  0  0  0  0  0  0
    8.7768  -14.6484   19.4605 N   0  0  0  0  0  0  0  0  0  0  0  0
    8.3600  -13.2587   19.1248 C   0  0  0  0  0  0  0  0  0  0  0  0
    7.1801  -13.0798   20.0894 C   0  0  0  0  0  0  0  0  0  0  0  0
    7.2933  -14.2266   21.1078 C   0  0  0  0  0  0  0  0  0  0  0  0
    8.7611  -14.5727   20.8923 C   0  0  1  0  0  0  0  0  0  0  0  0
    9.2934  -15.6188   21.7077 C   0  0  0  0  0  0  0  0  0  0  0  0
    8.8146  -16.7636   21.7609 O   0  0  0  0  0  0  0  0  0  0  0  0
   13.1020  -17.2162   24.2726 O   0  0  0  0  0  0  0  0  0  0  0  0
   12.4935  -16.2149   23.5168 C   0  0  0  0  0  0  0  0  0  0  0  0
   10.9980  -16.4870   23.3500 C   0  0  2  0  0  0  0  0  0  0  0  0
   10.4572  -15.4379   22.5604 N   0  0  0  0  0  0  0  0  0  0  0  0
   10.4365  -16.5275   24.7314 C   0  0  0  0  0  0  0  0  0  0  0  0
   10.7613  -17.6361   25.5026 O   0  0  0  0  0  0  0  0  0  0  0  0
    9.7143  -15.6384   25.2027 O   0  0  0  0  0  0  0  0  0  0  0  0
  2  1  1  6
  2  8  1  0
  3  2  1  0
  4  3  1  0
  5  4  1  0
  6  5  1  0
  7  6  1  0
  8 10  1  0
  8  9  2  0
 10 11  1  0
 12 11  1  0
 13 14  1  0
 13 12  1  0
 14 10  1  0
 14 15  1  1
 16 15  2  0
 17 18  1  0
 19 18  1  1
 19 21  1  0
 19 20  1  0
 20 15  1  0
 21 22  1  0
 23 21  2  0
M  END
$$$$
