KPS.pdb
     RDKit          3D

 23 23  0  0  1  0  0  0  0  0999 V2000
    9.8502  -15.2046   15.4122 N   0  0  0  0  0  0  0  0  0  0  0  0
    8.8914  -15.1801   16.4257 C   0  0  1  0  0  0  0  0  0  0  0  0
    7.9547  -16.3477   16.4853 C   0  0  0  0  0  0  0  0  0  0  0  0
    8.5963  -17.6637   16.7281 C   0  0  0  0  0  0  0  0  0  0  0  0
    7.6134  -18.8084   16.8259 C   0  0  0  0  0  0  0  0  0  0  0  0
    8.3158  -20.1257   17.0753 C   0  0  0  0  0  0  0  0  0  0  0  0
    7.4227  -21.2459   17.1149 N   0  0  0  0  0  0  0  0  0  0  0  0
    9.5022  -14.9955   17.7635 C   0  0  0  0  0  0  0  0  0  0  0  0
   10.5165  -15.7587   17.9890 O   0  0  0  0  0  0  0  0  0  0  0  0
    9.1088  -14.1084   18.7756 N   0  0  0  0  0  0  0  0  0  0  0  0
    8.6995  -12.6870   18.6039 C   0  0  0  0  0  0  0  0  0  0  0  0
    7.4496  -12.6464   19.4932 C   0  0  0  0  0  0  0  0  0  0  0  0
    7.5029  -13.9224   20.3500 C   0  0  0  0  0  0  0  0  0  0  0  0
    8.9870  -14.2311   20.1991 C   0  0  1  0  0  0  0  0  0  0  0  0
    9.4718  -15.3781   20.9004 C   0  0  0  0  0  0  0  0  0  0  0  0
    8.9534  -16.5041   20.8231 O   0  0  0  0  0  0  0  0  0  0  0  0
   13.1791  -16.2586   21.4079 O   0  0  0  0  0  0  0  0  0  0  0  0
   12.5807  -16.3705   22.6622 C   0  0  0  0  0  0  0  0  0  0  0  0
   11.0589  -16.4540   22.5375 C   0  0  2  0  0  0  0  0  0  0  0  0
   10.6291  -15.3326   21.7795 N   0  0  0  0  0  0  0  0  0  0  0  0
   10.5365  -16.4496   23.9348 C   0  0  0  0  0  0  0  0  0  0  0  0
   10.8819  -17.5336   24.7313 O   0  0  0  0  0  0  0  0  0  0  0  0
    9.8287  -15.5446   24.3976 O   0  0  0  0  0  0  0  0  0  0  0  0
  2  1  1  6
  2  8  1  0
  3  2  1  0
  4  3  1  0
  5  4  1  0
  6  5  1  0
  7  6  1  0
  8 10  1  0
  8  9  2  0
 10 11  1  0
 12 11  1  0
 13 14  1  0
 13 12  1  0
 14 10  1  0
 14 15  1  6
 16 15  2  0
 17 18  1  0
 19 18  1  1
 19 21  1  0
 19 20  1  0
 20 15  1  0
 21 22  1  0
 23 21  2  0
M  END
$$$$
