KPS.pdb
     RDKit          3D

 23 23  0  0  1  0  0  0  0  0999 V2000
    5.4418  -18.5125   23.4628 N   0  0  0  0  0  0  0  0  0  0  0  0
    6.4079  -17.5481   23.7520 C   0  0  1  0  0  0  0  0  0  0  0  0
    7.1645  -17.7257   25.0327 C   0  0  0  0  0  0  0  0  0  0  0  0
    8.1434  -16.6549   25.3447 C   0  0  0  0  0  0  0  0  0  0  0  0
    8.3125  -16.4009   26.8256 C   0  0  0  0  0  0  0  0  0  0  0  0
    9.3543  -15.3360   27.0925 C   0  0  0  0  0  0  0  0  0  0  0  0
    9.6738  -15.1909   28.4821 N   0  0  0  0  0  0  0  0  0  0  0  0
    7.3818  -17.3886   22.6460 C   0  0  0  0  0  0  0  0  0  0  0  0
    8.1650  -18.3998   22.4843 O   0  0  0  0  0  0  0  0  0  0  0  0
    7.5364  -16.2928   21.7850 N   0  0  0  0  0  0  0  0  0  0  0  0
    6.4522  -15.5558   21.0788 C   0  0  0  0  0  0  0  0  0  0  0  0
    6.8816  -14.1063   21.3423 C   0  0  0  0  0  0  0  0  0  0  0  0
    8.3356  -14.1831   21.8375 C   0  0  0  0  0  0  0  0  0  0  0  0
    8.6790  -15.5696   21.3081 C   0  0  1  0  0  0  0  0  0  0  0  0
   10.0122  -16.0273   21.5438 C   0  0  0  0  0  0  0  0  0  0  0  0
   10.7766  -15.5228   22.3828 O   0  0  0  0  0  0  0  0  0  0  0  0
   10.9542  -19.7294   20.9873 O   0  0  0  0  0  0  0  0  0  0  0  0
   11.9451  -18.9486   21.5810 C   0  0  0  0  0  0  0  0  0  0  0  0
   11.9552  -17.5368   20.9935 C   0  0  2  0  0  0  0  0  0  0  0  0
   10.6041  -17.1375   20.8149 N   0  0  0  0  0  0  0  0  0  0  0  0
   12.7094  -17.6367   19.7104 C   0  0  0  0  0  0  0  0  0  0  0  0
   14.0696  -17.9002   19.8074 O   0  0  0  0  0  0  0  0  0  0  0  0
   12.1857  -17.4980   18.5965 O   0  0  0  0  0  0  0  0  0  0  0  0
  2  1  1  6
  2  8  1  0
  3  2  1  0
  4  3  1  0
  5  4  1  0
  6  5  1  0
  7  6  1  0
  8 10  1  0
  8  9  2  0
 10 11  1  0
 12 11  1  0
 13 14  1  0
 13 12  1  0
 14 10  1  0
 14 15  1  1
 16 15  2  0
 17 18  1  0
 19 18  1  6
 19 21  1  0
 19 20  1  0
 20 15  1  0
 21 22  1  0
 23 21  2  0
M  END
$$$$
