KPS.pdb
     RDKit          3D

 23 23  0  0  1  0  0  0  0  0999 V2000
    8.4957  -13.1185   19.2559 N   0  0  0  0  0  0  0  0  0  0  0  0
    7.7359  -13.6678   20.2893 C   0  0  1  0  0  0  0  0  0  0  0  0
    6.9549  -14.9027   19.9586 C   0  0  0  0  0  0  0  0  0  0  0  0
    7.7549  -16.0377   19.4350 C   0  0  0  0  0  0  0  0  0  0  0  0
    6.9312  -17.2660   19.1209 C   0  0  0  0  0  0  0  0  0  0  0  0
    7.7969  -18.4070   18.6316 C   0  0  0  0  0  0  0  0  0  0  0  0
    7.0658  -19.6201   18.4127 N   0  0  0  0  0  0  0  0  0  0  0  0
    8.5521  -13.9343   21.4975 C   0  0  0  0  0  0  0  0  0  0  0  0
    9.6508  -14.5661   21.2618 O   0  0  0  0  0  0  0  0  0  0  0  0
    8.2672  -13.5833   22.8248 N   0  0  0  0  0  0  0  0  0  0  0  0
    7.8180  -12.2513   23.3165 C   0  0  0  0  0  0  0  0  0  0  0  0
    6.6815  -12.6697   24.2589 C   0  0  0  0  0  0  0  0  0  0  0  0
    6.8559  -14.1815   24.4809 C   0  0  0  0  0  0  0  0  0  0  0  0
    8.3163  -14.3015   24.0649 C   0  0  1  0  0  0  0  0  0  0  0  0
    8.8987  -15.6032   24.1586 C   0  0  0  0  0  0  0  0  0  0  0  0
    8.3044  -16.6489   23.8487 O   0  0  0  0  0  0  0  0  0  0  0  0
   12.9410  -18.2508   24.6098 O   0  0  0  0  0  0  0  0  0  0  0  0
   12.3123  -17.0140   24.4724 C   0  0  0  0  0  0  0  0  0  0  0  0
   10.8153  -17.1251   24.7644 C   0  0  2  0  0  0  0  0  0  0  0  0
   10.2554  -15.8268   24.6314 N   0  0  0  0  0  0  0  0  0  0  0  0
   10.7115  -17.6669   26.1504 C   0  0  0  0  0  0  0  0  0  0  0  0
   10.9347  -19.0292   26.3040 O   0  0  0  0  0  0  0  0  0  0  0  0
   10.4424  -16.9706   27.1387 O   0  0  0  0  0  0  0  0  0  0  0  0
  2  1  1  6
  2  8  1  0
  3  2  1  0
  4  3  1  0
  5  4  1  0
  6  5  1  0
  7  6  1  0
  8 10  1  0
  8  9  2  0
 10 11  1  0
 12 11  1  0
 13 14  1  0
 13 12  1  0
 14 10  1  0
 14 15  1  6
 16 15  2  0
 17 18  1  0
 19 18  1  1
 19 21  1  0
 19 20  1  0
 20 15  1  0
 21 22  1  0
 23 21  2  0
M  END
$$$$
