KPS.pdb
     RDKit          3D

 23 23  0  0  1  0  0  0  0  0999 V2000
    9.9115  -15.3220   15.4613 N   0  0  0  0  0  0  0  0  0  0  0  0
    8.9502  -15.1871   16.4637 C   0  0  1  0  0  0  0  0  0  0  0  0
    7.9138  -16.2660   16.5427 C   0  0  0  0  0  0  0  0  0  0  0  0
    8.4187  -17.6464   16.3385 C   0  0  0  0  0  0  0  0  0  0  0  0
    7.3398  -18.7033   16.4106 C   0  0  0  0  0  0  0  0  0  0  0  0
    7.8827  -20.0767   16.0794 C   0  0  0  0  0  0  0  0  0  0  0  0
    6.8887  -21.1078   16.1344 N   0  0  0  0  0  0  0  0  0  0  0  0
    9.5637  -15.0222   17.8029 C   0  0  0  0  0  0  0  0  0  0  0  0
   10.5474  -15.8231   18.0335 O   0  0  0  0  0  0  0  0  0  0  0  0
    9.2016  -14.1179   18.8114 N   0  0  0  0  0  0  0  0  0  0  0  0
    8.8527  -12.6810   18.6353 C   0  0  0  0  0  0  0  0  0  0  0  0
    7.6004  -12.5870   19.5171 C   0  0  0  0  0  0  0  0  0  0  0  0
    7.5955  -13.8627   20.3759 C   0  0  0  0  0  0  0  0  0  0  0  0
    9.0663  -14.2332   20.2343 C   0  0  1  0  0  0  0  0  0  0  0  0
    9.4988  -15.3982   20.9400 C   0  0  0  0  0  0  0  0  0  0  0  0
    8.8813  -16.4758   20.9366 O   0  0  0  0  0  0  0  0  0  0  0  0
   13.1388  -15.3645   23.0106 O   0  0  0  0  0  0  0  0  0  0  0  0
   12.6854  -16.5581   22.4506 C   0  0  0  0  0  0  0  0  0  0  0  0
   11.1572  -16.5989   22.4113 C   0  0  2  0  0  0  0  0  0  0  0  0
   10.7148  -15.4302   21.7367 N   0  0  0  0  0  0  0  0  0  0  0  0
   10.7161  -16.6540   23.8352 C   0  0  0  0  0  0  0  0  0  0  0  0
   11.1926  -17.7157   24.5933 O   0  0  0  0  0  0  0  0  0  0  0  0
    9.9647  -15.8156   24.3515 O   0  0  0  0  0  0  0  0  0  0  0  0
  2  1  1  6
  2  8  1  0
  3  2  1  0
  4  3  1  0
  5  4  1  0
  6  5  1  0
  7  6  1  0
  8 10  1  0
  8  9  2  0
 10 11  1  0
 12 11  1  0
 13 14  1  0
 13 12  1  0
 14 10  1  0
 14 15  1  6
 16 15  2  0
 17 18  1  0
 19 18  1  1
 19 21  1  0
 19 20  1  0
 20 15  1  0
 21 22  1  0
 23 21  2  0
M  END
$$$$
