SKN.pdb
     RDKit          3D

 24 23  0  0  1  0  0  0  0  0999 V2000
   11.0402  -12.1419   18.8256 O   0  0  0  0  0  0  0  0  0  0  0  0
   10.3576  -12.6333   19.9396 C   0  0  0  0  0  0  0  0  0  0  0  0
    9.4394  -13.7368   19.5294 C   0  0  2  0  0  0  0  0  0  0  0  0
    8.2810  -13.1684   18.8586 N   0  0  0  0  0  0  0  0  0  0  0  0
    9.0093  -14.5627   20.6944 C   0  0  0  0  0  0  0  0  0  0  0  0
    7.9529  -14.3493   21.3218 O   0  0  0  0  0  0  0  0  0  0  0  0
    9.8241  -15.6399   21.1204 N   0  0  0  0  0  0  0  0  0  0  0  0
    9.3820  -16.5399   22.2373 C   0  0  1  0  0  0  0  0  0  0  0  0
    9.7718  -17.9017   21.7595 C   0  0  0  0  0  0  0  0  0  0  0  0
    9.5641  -19.0279   22.7216 C   0  0  0  0  0  0  0  0  0  0  0  0
    9.9396  -20.3180   21.9546 C   0  0  0  0  0  0  0  0  0  0  0  0
    9.7017  -21.5069   22.8877 C   0  0  0  0  0  0  0  0  0  0  0  0
   10.1345  -22.6963   22.2200 N   0  0  0  0  0  0  0  0  0  0  0  0
   10.0796  -16.1258   23.4448 C   0  0  0  0  0  0  0  0  0  0  0  0
   11.2727  -15.6627   23.3797 O   0  0  0  0  0  0  0  0  0  0  0  0
   10.2654  -13.6054   28.5828 N   0  0  0  0  0  0  0  0  0  0  0  0
    9.9513  -14.9327   28.2431 C   0  0  0  0  0  0  0  0  0  0  0  0
   10.2494  -15.8763   29.0553 O   0  0  0  0  0  0  0  0  0  0  0  0
    9.2888  -15.2766   26.9872 C   0  0  0  0  0  0  0  0  0  0  0  0
   10.2412  -15.6896   25.8958 C   0  0  2  0  0  0  0  0  0  0  0  0
    9.5169  -16.1899   24.7392 N   0  0  0  0  0  0  0  0  0  0  0  0
   11.1661  -16.7170   26.3875 C   0  0  0  0  0  0  0  0  0  0  0  0
   12.3456  -16.4676   26.8146 O   0  0  0  0  0  0  0  0  0  0  0  0
   10.7291  -18.0562   26.3903 O   0  0  0  0  0  0  0  0  0  0  0  0
  1  2  1  0
  2  3  1  0
  3  5  1  0
  3  4  1  1
  5  6  2  0
  7  8  1  0
  7  5  1  0
  8 14  1  0
  8  9  1  6
 10  9  1  0
 10 11  1  0
 11 12  1  0
 13 12  1  0
 14 21  1  0
 14 15  2  0
 16 17  1  0
 17 19  1  0
 18 17  2  0
 20 19  1  1
 20 22  1  0
 21 20  1  0
 22 23  2  0
 22 24  1  0
M  END
$$$$
