SKN.pdb
     RDKit          3D

 24 23  0  0  1  0  0  0  0  0999 V2000
    9.9401  -14.5694   18.0606 O   0  0  0  0  0  0  0  0  0  0  0  0
    8.6212  -14.8425   17.6937 C   0  0  0  0  0  0  0  0  0  0  0  0
    7.6811  -14.0623   18.5519 C   0  0  2  0  0  0  0  0  0  0  0  0
    7.7142  -12.6657   18.1476 N   0  0  0  0  0  0  0  0  0  0  0  0
    8.0155  -14.1902   19.9997 C   0  0  0  0  0  0  0  0  0  0  0  0
    8.4925  -13.2524   20.6693 O   0  0  0  0  0  0  0  0  0  0  0  0
    7.7882  -15.4230   20.6586 N   0  0  0  0  0  0  0  0  0  0  0  0
    8.0760  -15.5730   22.1240 C   0  0  1  0  0  0  0  0  0  0  0  0
    7.3412  -16.8209   22.4952 C   0  0  0  0  0  0  0  0  0  0  0  0
    7.5235  -17.3068   23.8979 C   0  0  0  0  0  0  0  0  0  0  0  0
    6.8110  -18.6782   23.9696 C   0  0  0  0  0  0  0  0  0  0  0  0
    7.1160  -19.2967   25.3353 C   0  0  0  0  0  0  0  0  0  0  0  0
    6.4974  -20.5858   25.3935 N   0  0  0  0  0  0  0  0  0  0  0  0
    9.5178  -15.6776   22.2857 C   0  0  0  0  0  0  0  0  0  0  0  0
   10.0396  -15.7167   23.4555 O   0  0  0  0  0  0  0  0  0  0  0  0
   14.4594  -14.9657   20.0724 N   0  0  0  0  0  0  0  0  0  0  0  0
   13.3492  -14.1253   20.2649 C   0  0  0  0  0  0  0  0  0  0  0  0
   13.1535  -13.1491   19.4603 O   0  0  0  0  0  0  0  0  0  0  0  0
   12.4013  -14.3295   21.3576 C   0  0  0  0  0  0  0  0  0  0  0  0
   11.8623  -15.7339   21.4347 C   0  0  2  0  0  0  0  0  0  0  0  0
   10.4269  -15.7504   21.2066 N   0  0  0  0  0  0  0  0  0  0  0  0
   12.1661  -16.3261   22.7423 C   0  0  0  0  0  0  0  0  0  0  0  0
   11.4126  -16.2094   23.7692 O   0  0  0  0  0  0  0  0  0  0  0  0
   13.3568  -17.0673   22.8741 O   0  0  0  0  0  0  0  0  0  0  0  0
  1  2  1  0
  2  3  1  0
  3  5  1  0
  3  4  1  6
  5  6  2  0
  7  8  1  0
  7  5  1  0
  8 14  1  0
  8  9  1  6
 10  9  1  0
 10 11  1  0
 11 12  1  0
 13 12  1  0
 14 21  1  0
 14 15  2  0
 16 17  1  0
 17 19  1  0
 18 17  2  0
 20 19  1  1
 20 22  1  0
 21 20  1  0
 22 23  2  0
 22 24  1  0
M  END
$$$$
