SKN.pdb
     RDKit          3D

 24 23  0  0  1  0  0  0  0  0999 V2000
   14.3123  -14.4003   20.9670 O   0  0  0  0  0  0  0  0  0  0  0  0
   13.4540  -13.8561   20.0101 C   0  0  0  0  0  0  0  0  0  0  0  0
   12.5902  -14.9276   19.4314 C   0  0  2  0  0  0  0  0  0  0  0  0
   11.9205  -14.4124   18.2478 N   0  0  0  0  0  0  0  0  0  0  0  0
   11.5884  -15.4257   20.4176 C   0  0  0  0  0  0  0  0  0  0  0  0
   10.4921  -14.8635   20.6109 O   0  0  0  0  0  0  0  0  0  0  0  0
   11.8783  -16.5860   21.1761 N   0  0  0  0  0  0  0  0  0  0  0  0
   10.8870  -17.1199   22.1687 C   0  0  1  0  0  0  0  0  0  0  0  0
   10.8877  -18.5908   21.9016 C   0  0  0  0  0  0  0  0  0  0  0  0
    9.9973  -19.0659   20.7977 C   0  0  0  0  0  0  0  0  0  0  0  0
   10.2532  -20.5862   20.6685 C   0  0  0  0  0  0  0  0  0  0  0  0
    9.3393  -21.1258   19.5666 C   0  0  0  0  0  0  0  0  0  0  0  0
    9.5166  -22.5437   19.4893 N   0  0  0  0  0  0  0  0  0  0  0  0
   11.3582  -16.7706   23.4998 C   0  0  0  0  0  0  0  0  0  0  0  0
   12.6137  -16.6954   23.7459 O   0  0  0  0  0  0  0  0  0  0  0  0
   11.8043  -15.3777   28.4949 N   0  0  0  0  0  0  0  0  0  0  0  0
   10.5308  -15.0023   28.0334 C   0  0  0  0  0  0  0  0  0  0  0  0
    9.7538  -14.3385   28.8044 O   0  0  0  0  0  0  0  0  0  0  0  0
   10.0593  -15.3430   26.6932 C   0  0  0  0  0  0  0  0  0  0  0  0
   11.0405  -16.1646   25.8988 C   0  0  2  0  0  0  0  0  0  0  0  0
   10.5025  -16.4880   24.5879 N   0  0  0  0  0  0  0  0  0  0  0  0
   11.3738  -17.3986   26.6193 C   0  0  0  0  0  0  0  0  0  0  0  0
   12.2643  -17.4704   27.5345 O   0  0  0  0  0  0  0  0  0  0  0  0
   10.6710  -18.5726   26.2841 O   0  0  0  0  0  0  0  0  0  0  0  0
  1  2  1  0
  2  3  1  0
  3  5  1  0
  3  4  1  6
  5  6  2  0
  7  8  1  0
  7  5  1  0
  8 14  1  0
  8  9  1  1
 10  9  1  0
 10 11  1  0
 11 12  1  0
 13 12  1  0
 14 21  1  0
 14 15  2  0
 16 17  1  0
 17 19  1  0
 18 17  2  0
 20 19  1  1
 20 22  1  0
 21 20  1  0
 22 23  2  0
 22 24  1  0
M  END
$$$$
