SKN.pdb
     RDKit          3D

 24 23  0  0  1  0  0  0  0  0999 V2000
    7.8692  -14.8896   16.3356 O   0  0  0  0  0  0  0  0  0  0  0  0
    8.9051  -14.6342   17.2357 C   0  0  0  0  0  0  0  0  0  0  0  0
    8.3536  -14.0578   18.4977 C   0  0  2  0  0  0  0  0  0  0  0  0
    7.9231  -12.6911   18.2492 N   0  0  0  0  0  0  0  0  0  0  0  0
    9.3511  -14.0928   19.6059 C   0  0  0  0  0  0  0  0  0  0  0  0
   10.1401  -13.1549   19.8359 O   0  0  0  0  0  0  0  0  0  0  0  0
    9.4191  -15.2332   20.4430 N   0  0  0  0  0  0  0  0  0  0  0  0
   10.4531  -15.3273   21.5270 C   0  0  1  0  0  0  0  0  0  0  0  0
    9.8838  -16.3464   22.4609 C   0  0  0  0  0  0  0  0  0  0  0  0
   10.7785  -16.8065   23.5676 C   0  0  0  0  0  0  0  0  0  0  0  0
    9.9724  -17.8674   24.3538 C   0  0  0  0  0  0  0  0  0  0  0  0
   10.8696  -18.4106   25.4677 C   0  0  0  0  0  0  0  0  0  0  0  0
   10.1933  -19.5033   26.0974 N   0  0  0  0  0  0  0  0  0  0  0  0
   11.7059  -15.7379   20.9122 C   0  0  0  0  0  0  0  0  0  0  0  0
   11.7071  -16.3555   19.7893 O   0  0  0  0  0  0  0  0  0  0  0  0
   16.4788  -15.0204   19.0942 N   0  0  0  0  0  0  0  0  0  0  0  0
   15.3289  -14.2568   18.8287 C   0  0  0  0  0  0  0  0  0  0  0  0
   15.3379  -13.4255   17.8553 O   0  0  0  0  0  0  0  0  0  0  0  0
   14.1128  -14.3810   19.6289 C   0  0  0  0  0  0  0  0  0  0  0  0
   14.1741  -15.4839   20.6529 C   0  0  2  0  0  0  0  0  0  0  0  0
   12.9771  -15.4914   21.4773 N   0  0  0  0  0  0  0  0  0  0  0  0
   15.3619  -15.3283   21.5000 C   0  0  0  0  0  0  0  0  0  0  0  0
   15.3161  -15.0285   22.7425 O   0  0  0  0  0  0  0  0  0  0  0  0
   16.6267  -15.5215   20.9106 O   0  0  0  0  0  0  0  0  0  0  0  0
  1  2  1  0
  2  3  1  0
  3  5  1  0
  3  4  1  6
  5  6  2  0
  7  8  1  0
  7  5  1  0
  8 14  1  0
  8  9  1  1
 10  9  1  0
 10 11  1  0
 11 12  1  0
 13 12  1  0
 14 21  1  0
 14 15  2  0
 16 17  1  0
 17 19  1  0
 18 17  2  0
 20 19  1  6
 20 22  1  0
 21 20  1  0
 22 23  2  0
 22 24  1  0
M  END
$$$$
