SKN.pdb
     RDKit          3D

 24 23  0  0  1  0  0  0  0  0999 V2000
   10.8659  -18.7300   17.2564 O   0  0  0  0  0  0  0  0  0  0  0  0
   10.7309  -17.7969   18.2858 C   0  0  0  0  0  0  0  0  0  0  0  0
    9.2960  -17.4159   18.4439 C   0  0  2  0  0  0  0  0  0  0  0  0
    9.0955  -16.0800   17.9051 N   0  0  0  0  0  0  0  0  0  0  0  0
    8.8617  -17.4695   19.8697 C   0  0  0  0  0  0  0  0  0  0  0  0
    9.0513  -16.5324   20.6704 O   0  0  0  0  0  0  0  0  0  0  0  0
    8.2040  -18.6273   20.3521 N   0  0  0  0  0  0  0  0  0  0  0  0
    7.6861  -18.6838   21.7597 C   0  0  1  0  0  0  0  0  0  0  0  0
    6.7494  -19.8487   21.7374 C   0  0  0  0  0  0  0  0  0  0  0  0
    6.0952  -20.2000   23.0358 C   0  0  0  0  0  0  0  0  0  0  0  0
    5.0778  -21.3193   22.7109 C   0  0  0  0  0  0  0  0  0  0  0  0
    4.2712  -21.6052   23.9791 C   0  0  0  0  0  0  0  0  0  0  0  0
    3.3897  -22.7010   23.7140 N   0  0  0  0  0  0  0  0  0  0  0  0
    8.8247  -18.8704   22.6455 C   0  0  0  0  0  0  0  0  0  0  0  0
    9.5956  -19.8849   22.5082 O   0  0  0  0  0  0  0  0  0  0  0  0
   11.8884  -17.7064   22.3578 N   0  0  0  0  0  0  0  0  0  0  0  0
   11.9593  -16.8471   23.4679 C   0  0  0  0  0  0  0  0  0  0  0  0
   12.7051  -15.8081   23.4114 O   0  0  0  0  0  0  0  0  0  0  0  0
   11.2040  -17.0978   24.6930 C   0  0  0  0  0  0  0  0  0  0  0  0
   10.2635  -18.2701   24.5931 C   0  0  2  0  0  0  0  0  0  0  0  0
    9.1666  -17.9774   23.6856 N   0  0  0  0  0  0  0  0  0  0  0  0
    9.7359  -18.6154   25.9180 C   0  0  0  0  0  0  0  0  0  0  0  0
   10.4303  -19.1681   26.8390 O   0  0  0  0  0  0  0  0  0  0  0  0
    8.3861  -18.3198   26.1919 O   0  0  0  0  0  0  0  0  0  0  0  0
  1  2  1  0
  2  3  1  0
  3  5  1  0
  3  4  1  1
  5  6  2  0
  7  8  1  0
  7  5  1  0
  8 14  1  0
  8  9  1  6
 10  9  1  0
 10 11  1  0
 11 12  1  0
 13 12  1  0
 14 21  1  0
 14 15  2  0
 16 17  1  0
 17 19  1  0
 18 17  2  0
 20 19  1  1
 20 22  1  0
 21 20  1  0
 22 23  2  0
 22 24  1  0
M  END
$$$$
