SKN.pdb
     RDKit          3D

 24 23  0  0  1  0  0  0  0  0999 V2000
   10.3464  -12.8673   19.0867 O   0  0  0  0  0  0  0  0  0  0  0  0
    9.5087  -13.0141   20.1936 C   0  0  0  0  0  0  0  0  0  0  0  0
    8.3669  -13.9140   19.8534 C   0  0  2  0  0  0  0  0  0  0  0  0
    7.4559  -13.2122   18.9630 N   0  0  0  0  0  0  0  0  0  0  0  0
    7.6441  -14.3783   21.0725 C   0  0  0  0  0  0  0  0  0  0  0  0
    6.6480  -13.7873   21.5347 O   0  0  0  0  0  0  0  0  0  0  0  0
    8.0951  -15.5390   21.7471 N   0  0  0  0  0  0  0  0  0  0  0  0
    7.3553  -16.0670   22.9416 C   0  0  1  0  0  0  0  0  0  0  0  0
    7.4265  -17.5498   22.7653 C   0  0  0  0  0  0  0  0  0  0  0  0
    6.8822  -18.3788   23.8849 C   0  0  0  0  0  0  0  0  0  0  0  0
    7.0586  -19.8525   23.4484 C   0  0  0  0  0  0  0  0  0  0  0  0
    6.5211  -20.7436   24.5699 C   0  0  0  0  0  0  0  0  0  0  0  0
    6.6349  -22.1081   24.1540 N   0  0  0  0  0  0  0  0  0  0  0  0
    8.0380  -15.5901   24.1342 C   0  0  0  0  0  0  0  0  0  0  0  0
    9.3167  -15.5105   24.1631 O   0  0  0  0  0  0  0  0  0  0  0  0
    5.6356  -11.8577   26.7668 N   0  0  0  0  0  0  0  0  0  0  0  0
    6.8779  -12.4858   26.5716 C   0  0  0  0  0  0  0  0  0  0  0  0
    7.7273  -11.9623   25.7696 O   0  0  0  0  0  0  0  0  0  0  0  0
    7.2385  -13.7234   27.2592 C   0  0  0  0  0  0  0  0  0  0  0  0
    8.1102  -14.6377   26.4389 C   0  0  2  0  0  0  0  0  0  0  0  0
    7.3719  -15.1826   25.3117 N   0  0  0  0  0  0  0  0  0  0  0  0
    8.6285  -15.7300   27.2703 C   0  0  0  0  0  0  0  0  0  0  0  0
    9.2915  -15.5507   28.3492 O   0  0  0  0  0  0  0  0  0  0  0  0
    8.3804  -17.0535   26.8564 O   0  0  0  0  0  0  0  0  0  0  0  0
  1  2  1  0
  2  3  1  0
  3  5  1  0
  3  4  1  6
  5  6  2  0
  7  8  1  0
  7  5  1  0
  8 14  1  0
  8  9  1  6
 10  9  1  0
 10 11  1  0
 11 12  1  0
 13 12  1  0
 14 21  1  0
 14 15  2  0
 16 17  1  0
 17 19  1  0
 18 17  2  0
 20 19  1  1
 20 22  1  0
 21 20  1  0
 22 23  2  0
 22 24  1  0
M  END
$$$$
