SKN.pdb
     RDKit          3D

 24 23  0  0  1  0  0  0  0  0999 V2000
    7.3652  -13.2051   17.4426 O   0  0  0  0  0  0  0  0  0  0  0  0
    7.7605  -12.5409   18.6050 C   0  0  0  0  0  0  0  0  0  0  0  0
    8.8095  -13.3327   19.3133 C   0  0  2  0  0  0  0  0  0  0  0  0
    9.8281  -13.7370   18.3573 N   0  0  0  0  0  0  0  0  0  0  0  0
    8.2359  -14.5286   19.9953 C   0  0  0  0  0  0  0  0  0  0  0  0
    7.3660  -14.4476   20.8853 O   0  0  0  0  0  0  0  0  0  0  0  0
    8.6874  -15.8200   19.6289 N   0  0  0  0  0  0  0  0  0  0  0  0
    8.2548  -17.0310   20.4029 C   0  0  1  0  0  0  0  0  0  0  0  0
    7.7768  -17.9681   19.3408 C   0  0  0  0  0  0  0  0  0  0  0  0
    7.3106  -19.3125   19.8017 C   0  0  0  0  0  0  0  0  0  0  0  0
    6.8634  -20.0680   18.5278 C   0  0  0  0  0  0  0  0  0  0  0  0
    6.3884  -21.4602   18.9482 C   0  0  0  0  0  0  0  0  0  0  0  0
    6.0042  -22.1787   17.7717 N   0  0  0  0  0  0  0  0  0  0  0  0
    9.4090  -17.5251   21.1375 C   0  0  0  0  0  0  0  0  0  0  0  0
    9.3239  -18.5940   21.8394 O   0  0  0  0  0  0  0  0  0  0  0  0
   10.4893  -15.3536   24.3596 N   0  0  0  0  0  0  0  0  0  0  0  0
   11.6151  -16.0956   23.9622 C   0  0  0  0  0  0  0  0  0  0  0  0
   12.7840  -15.6012   24.1292 O   0  0  0  0  0  0  0  0  0  0  0  0
   11.4980  -17.4229   23.3631 C   0  0  0  0  0  0  0  0  0  0  0  0
   11.7878  -17.4457   21.8852 C   0  0  2  0  0  0  0  0  0  0  0  0
   10.6738  -16.8955   21.1310 N   0  0  0  0  0  0  0  0  0  0  0  0
   12.0623  -18.8167   21.4402 C   0  0  0  0  0  0  0  0  0  0  0  0
   11.1829  -19.7449   21.4097 O   0  0  0  0  0  0  0  0  0  0  0  0
   13.3705  -19.1284   21.0209 O   0  0  0  0  0  0  0  0  0  0  0  0
  1  2  1  0
  2  3  1  0
  3  5  1  0
  3  4  1  6
  5  6  2  0
  7  8  1  0
  7  5  1  0
  8 14  1  0
  8  9  1  6
 10  9  1  0
 10 11  1  0
 11 12  1  0
 13 12  1  0
 14 21  1  0
 14 15  2  0
 16 17  1  0
 17 19  1  0
 18 17  2  0
 20 19  1  1
 20 22  1  0
 21 20  1  0
 22 23  2  0
 22 24  1  0
M  END
$$$$
