SKN.pdb
     RDKit          3D

 24 23  0  0  1  0  0  0  0  0999 V2000
   11.0368  -20.8942   18.2049 O   0  0  0  0  0  0  0  0  0  0  0  0
    9.8412  -20.2562   17.8702 C   0  0  0  0  0  0  0  0  0  0  0  0
   10.1166  -18.8582   17.4239 C   0  0  2  0  0  0  0  0  0  0  0  0
   11.1398  -18.8807   16.3907 N   0  0  0  0  0  0  0  0  0  0  0  0
   10.5443  -17.9882   18.5572 C   0  0  0  0  0  0  0  0  0  0  0  0
   11.7410  -17.7410   18.8062 O   0  0  0  0  0  0  0  0  0  0  0  0
    9.5619  -17.4095   19.3974 N   0  0  0  0  0  0  0  0  0  0  0  0
    9.9551  -16.4793   20.5078 C   0  0  1  0  0  0  0  0  0  0  0  0
    8.8386  -15.4856   20.5386 C   0  0  0  0  0  0  0  0  0  0  0  0
    8.6285  -14.6837   19.2937 C   0  0  0  0  0  0  0  0  0  0  0  0
    7.4068  -13.7765   19.5726 C   0  0  0  0  0  0  0  0  0  0  0  0
    7.1016  -12.9914   18.2954 C   0  0  0  0  0  0  0  0  0  0  0  0
    5.8869  -12.2617   18.4953 N   0  0  0  0  0  0  0  0  0  0  0  0
   10.0680  -17.2647   21.7270 C   0  0  0  0  0  0  0  0  0  0  0  0
    9.6220  -18.4653   21.7703 O   0  0  0  0  0  0  0  0  0  0  0  0
   13.9734  -20.3829   23.4167 N   0  0  0  0  0  0  0  0  0  0  0  0
   13.2193  -19.3296   23.9621 C   0  0  0  0  0  0  0  0  0  0  0  0
   13.1484  -19.2007   25.2337 O   0  0  0  0  0  0  0  0  0  0  0  0
   12.5098  -18.3671   23.1227 C   0  0  0  0  0  0  0  0  0  0  0  0
   11.3572  -17.6927   23.8195 C   0  0  2  0  0  0  0  0  0  0  0  0
   10.6639  -16.7891   22.9165 N   0  0  0  0  0  0  0  0  0  0  0  0
   11.8329  -16.9548   24.9951 C   0  0  0  0  0  0  0  0  0  0  0  0
   11.6899  -17.3639   26.1984 O   0  0  0  0  0  0  0  0  0  0  0  0
   12.4862  -15.7244   24.7861 O   0  0  0  0  0  0  0  0  0  0  0  0
  1  2  1  0
  2  3  1  0
  3  5  1  0
  3  4  1  6
  5  6  2  0
  7  8  1  0
  7  5  1  0
  8 14  1  0
  8  9  1  1
 10  9  1  0
 10 11  1  0
 11 12  1  0
 13 12  1  0
 14 21  1  0
 14 15  2  0
 16 17  1  0
 17 19  1  0
 18 17  2  0
 20 19  1  6
 20 22  1  0
 21 20  1  0
 22 23  2  0
 22 24  1  0
M  END
$$$$
