VQK.pdb
     RDKit          3D

 26 25  0  0  1  0  0  0  0  0999 V2000
   14.5390   -9.6125  -14.4094 C   0  0  0  0  0  0  0  0  0  0  0  0
   15.3307  -10.8289  -14.7691 C   0  0  1  0  0  0  0  0  0  0  0  0
   14.8067  -11.4315  -16.0721 C   0  0  0  0  0  0  0  0  0  0  0  0
   16.7838  -10.4714  -14.9106 C   0  0  2  0  0  0  0  0  0  0  0  0
   17.5576  -11.6468  -15.1436 N   0  0  0  0  0  0  0  0  0  0  0  0
   17.2921   -9.7194  -13.7364 C   0  0  0  0  0  0  0  0  0  0  0  0
   17.4633  -10.2879  -12.6328 O   0  0  0  0  0  0  0  0  0  0  0  0
   20.8110   -7.0667  -11.0440 N   0  0  0  0  0  0  0  0  0  0  0  0
   21.3017   -7.4471  -12.3176 C   0  0  0  0  0  0  0  0  0  0  0  0
   22.4261   -7.9807  -12.3998 O   0  0  0  0  0  0  0  0  0  0  0  0
   20.4904   -7.2187  -13.5710 C   0  0  0  0  0  0  0  0  0  0  0  0
   19.1624   -6.6532  -13.1886 C   0  0  0  0  0  0  0  0  0  0  0  0
   18.1512   -7.6289  -12.6864 C   0  0  2  0  0  0  0  0  0  0  0  0
   17.5880   -8.3560  -13.8515 N   0  0  0  0  0  0  0  0  0  0  0  0
   17.0418   -7.0389  -11.9125 C   0  0  0  0  0  0  0  0  0  0  0  0
   16.0695   -6.4574  -12.5230 O   0  0  0  0  0  0  0  0  0  0  0  0
   16.9594   -7.0713  -10.5220 N   0  0  0  0  0  0  0  0  0  0  0  0
   15.8265   -6.3641   -9.7991 C   0  0  1  0  0  0  0  0  0  0  0  0
   15.1425   -7.5406   -9.1609 C   0  0  0  0  0  0  0  0  0  0  0  0
   13.7633   -7.4188   -8.7584 C   0  0  0  0  0  0  0  0  0  0  0  0
   13.0704   -8.6074   -8.2229 C   0  0  0  0  0  0  0  0  0  0  0  0
   11.6208   -8.1026   -7.8845 C   0  0  0  0  0  0  0  0  0  0  0  0
   10.9112   -9.2809   -7.4440 N   0  0  0  0  0  0  0  0  0  0  0  0
   16.5499   -5.4717   -8.8924 C   0  0  0  0  0  0  0  0  0  0  0  0
   15.9086   -4.3436   -8.3481 O   0  0  0  0  0  0  0  0  0  0  0  0
   17.7284   -5.6319   -8.5526 O   0  0  0  0  0  0  0  0  0  0  0  0
  2  1  1  6
  2  4  1  0
  3  2  1  0
  4  5  1  1
  4  6  1  0
  6 14  1  0
  6  7  2  0
  8  9  1  0
  9 10  2  0
 11  9  1  0
 11 12  1  0
 13 12  1  6
 13 15  1  0
 14 13  1  0
 15 16  2  0
 17 18  1  0
 17 15  1  0
 18 24  1  0
 18 19  1  1
 20 19  1  0
 21 20  1  0
 22 21  1  0
 23 22  1  0
 24 25  1  0
 26 24  2  0
M  END
$$$$
