VQK.pdb
     RDKit          3D

 26 25  0  0  1  0  0  0  0  0999 V2000
   16.0317  -14.1386  -17.0964 C   0  0  0  0  0  0  0  0  0  0  0  0
   17.3579  -14.8187  -16.9763 C   0  0  1  0  0  0  0  0  0  0  0  0
   18.0943  -14.7761  -18.3147 C   0  0  0  0  0  0  0  0  0  0  0  0
   18.1813  -14.1520  -15.9101 C   0  0  2  0  0  0  0  0  0  0  0  0
   17.5653  -14.3243  -14.6352 N   0  0  0  0  0  0  0  0  0  0  0  0
   18.4173  -12.7159  -16.2013 C   0  0  0  0  0  0  0  0  0  0  0  0
   19.1363  -12.3643  -17.1656 O   0  0  0  0  0  0  0  0  0  0  0  0
   14.9252   -8.6071  -17.2243 N   0  0  0  0  0  0  0  0  0  0  0  0
   15.7900   -7.6608  -16.6209 C   0  0  0  0  0  0  0  0  0  0  0  0
   15.6892   -6.4586  -16.9378 O   0  0  0  0  0  0  0  0  0  0  0  0
   16.8266   -8.0809  -15.6058 C   0  0  0  0  0  0  0  0  0  0  0  0
   16.7755   -9.5651  -15.4514 C   0  0  0  0  0  0  0  0  0  0  0  0
   18.0469  -10.2991  -15.7191 C   0  0  2  0  0  0  0  0  0  0  0  0
   17.8338  -11.7318  -15.3946 N   0  0  0  0  0  0  0  0  0  0  0  0
   19.2213   -9.8115  -14.9703 C   0  0  0  0  0  0  0  0  0  0  0  0
   19.2763   -9.9586  -13.6930 O   0  0  0  0  0  0  0  0  0  0  0  0
   20.3181   -9.1887  -15.5623 N   0  0  0  0  0  0  0  0  0  0  0  0
   21.5123   -8.7677  -14.7240 C   0  0  1  0  0  0  0  0  0  0  0  0
   22.6318   -9.0956  -15.6719 C   0  0  0  0  0  0  0  0  0  0  0  0
   23.5937  -10.1041  -15.3019 C   0  0  0  0  0  0  0  0  0  0  0  0
   24.6827  -10.4289  -16.2444 C   0  0  0  0  0  0  0  0  0  0  0  0
   25.3052  -11.7605  -15.6875 C   0  0  0  0  0  0  0  0  0  0  0  0
   26.3375  -12.1117  -16.6346 N   0  0  0  0  0  0  0  0  0  0  0  0
   21.2496   -7.3443  -14.5075 C   0  0  0  0  0  0  0  0  0  0  0  0
   20.3012   -6.6709  -15.2993 O   0  0  0  0  0  0  0  0  0  0  0  0
   21.8178   -6.6545  -13.6522 O   0  0  0  0  0  0  0  0  0  0  0  0
  2  1  1  6
  2  4  1  0
  3  2  1  0
  4  5  1  1
  4  6  1  0
  6 14  1  0
  6  7  2  0
  8  9  1  0
  9 10  2  0
 11  9  1  0
 11 12  1  0
 13 12  1  1
 13 15  1  0
 14 13  1  0
 15 16  2  0
 17 18  1  0
 17 15  1  0
 18 24  1  0
 18 19  1  6
 20 19  1  0
 21 20  1  0
 22 21  1  0
 23 22  1  0
 24 25  1  0
 26 24  2  0
M  END
$$$$
