VQK.pdb
     RDKit          3D

 26 25  0  0  1  0  0  0  0  0999 V2000
   19.8098  -12.2467  -20.2074 C   0  0  0  0  0  0  0  0  0  0  0  0
   19.8743  -13.0021  -18.9187 C   0  0  1  0  0  0  0  0  0  0  0  0
   20.3694  -14.4262  -19.1676 C   0  0  0  0  0  0  0  0  0  0  0  0
   20.7880  -12.2964  -17.9561 C   0  0  2  0  0  0  0  0  0  0  0  0
   21.0375  -13.1231  -16.8209 N   0  0  0  0  0  0  0  0  0  0  0  0
   20.2561  -10.9722  -17.5480 C   0  0  0  0  0  0  0  0  0  0  0  0
   19.9972  -10.0917  -18.4012 O   0  0  0  0  0  0  0  0  0  0  0  0
   16.9378   -9.9304  -12.5233 N   0  0  0  0  0  0  0  0  0  0  0  0
   16.3478  -10.0049  -13.8093 C   0  0  0  0  0  0  0  0  0  0  0  0
   15.1358  -10.2839  -13.9053 O   0  0  0  0  0  0  0  0  0  0  0  0
   17.1572   -9.7535  -15.0595 C   0  0  0  0  0  0  0  0  0  0  0  0
   18.5798   -9.5169  -14.6726 C   0  0  0  0  0  0  0  0  0  0  0  0
   19.5482   -9.3481  -15.7953 C   0  0  2  0  0  0  0  0  0  0  0  0
   20.0366  -10.6919  -16.1941 N   0  0  0  0  0  0  0  0  0  0  0  0
   20.7104   -8.4891  -15.4964 C   0  0  0  0  0  0  0  0  0  0  0  0
   21.7330   -8.9793  -14.8880 O   0  0  0  0  0  0  0  0  0  0  0  0
   20.7915   -7.1418  -15.8418 N   0  0  0  0  0  0  0  0  0  0  0  0
   22.0467   -6.3418  -15.5404 C   0  0  1  0  0  0  0  0  0  0  0  0
   22.0779   -5.4342  -16.7382 C   0  0  0  0  0  0  0  0  0  0  0  0
   23.0267   -4.3491  -16.7737 C   0  0  0  0  0  0  0  0  0  0  0  0
   23.0870   -3.4953  -17.9766 C   0  0  0  0  0  0  0  0  0  0  0  0
   24.1805   -2.4166  -17.6429 C   0  0  0  0  0  0  0  0  0  0  0  0
   23.4875   -1.4131  -16.8691 N   0  0  0  0  0  0  0  0  0  0  0  0
   21.7096   -5.7101  -14.2640 C   0  0  0  0  0  0  0  0  0  0  0  0
   22.7267   -5.3602  -13.3568 O   0  0  0  0  0  0  0  0  0  0  0  0
   20.5564   -5.4498  -13.9001 O   0  0  0  0  0  0  0  0  0  0  0  0
  2  1  1  6
  2  4  1  0
  3  2  1  0
  4  5  1  1
  4  6  1  0
  6 14  1  0
  6  7  2  0
  8  9  1  0
  9 10  2  0
 11  9  1  0
 11 12  1  0
 13 12  1  1
 13 15  1  0
 14 13  1  0
 15 16  2  0
 17 18  1  0
 17 15  1  0
 18 24  1  0
 18 19  1  6
 20 19  1  0
 21 20  1  0
 22 21  1  0
 23 22  1  0
 24 25  1  0
 26 24  2  0
M  END
$$$$
