VQK.pdb
     RDKit          3D

 26 25  0  0  1  0  0  0  0  0999 V2000
   27.0670  -31.5610  -17.2826 C   0  0  0  0  0  0  0  0  0  0  0  0
   26.7862  -32.5131  -16.1645 C   0  0  1  0  0  0  0  0  0  0  0  0
   26.8805  -33.9542  -16.6641 C   0  0  0  0  0  0  0  0  0  0  0  0
   27.7612  -32.2884  -15.0428 C   0  0  2  0  0  0  0  0  0  0  0  0
   29.0974  -32.4507  -15.5146 N   0  0  0  0  0  0  0  0  0  0  0  0
   27.4919  -33.1726  -13.8816 C   0  0  0  0  0  0  0  0  0  0  0  0
   28.2511  -34.1330  -13.6141 O   0  0  0  0  0  0  0  0  0  0  0  0
   25.4096  -31.3492   -8.5856 N   0  0  0  0  0  0  0  0  0  0  0  0
   25.4137  -32.7421   -8.3257 C   0  0  0  0  0  0  0  0  0  0  0  0
   25.1856  -33.1435   -7.1669 O   0  0  0  0  0  0  0  0  0  0  0  0
   25.6880  -33.7439   -9.4223 C   0  0  0  0  0  0  0  0  0  0  0  0
   25.9495  -33.0062  -10.6939 C   0  0  0  0  0  0  0  0  0  0  0  0
   26.1094  -33.8426  -11.9193 C   0  0  2  0  0  0  0  0  0  0  0  0
   26.3777  -32.9399  -13.0667 N   0  0  0  0  0  0  0  0  0  0  0  0
   24.9536  -34.6992  -12.2483 C   0  0  0  0  0  0  0  0  0  0  0  0
   24.1586  -34.3675  -13.2043 O   0  0  0  0  0  0  0  0  0  0  0  0
   24.6509  -35.8863  -11.5848 N   0  0  0  0  0  0  0  0  0  0  0  0
   23.4623  -36.7288  -12.0131 C   0  0  1  0  0  0  0  0  0  0  0  0
   23.8484  -38.0550  -11.4201 C   0  0  0  0  0  0  0  0  0  0  0  0
   23.0065  -39.2019  -11.6545 C   0  0  0  0  0  0  0  0  0  0  0  0
   23.4152  -40.5092  -11.1037 C   0  0  0  0  0  0  0  0  0  0  0  0
   22.2784  -41.4997  -11.5480 C   0  0  0  0  0  0  0  0  0  0  0  0
   22.6237  -42.7603  -10.9335 N   0  0  0  0  0  0  0  0  0  0  0  0
   22.3461  -36.0366  -11.3676 C   0  0  0  0  0  0  0  0  0  0  0  0
   21.0596  -36.0843  -11.9356 O   0  0  0  0  0  0  0  0  0  0  0  0
   22.4443  -35.3834  -10.3217 O   0  0  0  0  0  0  0  0  0  0  0  0
  2  1  1  6
  2  4  1  0
  3  2  1  0
  4  5  1  6
  4  6  1  0
  6 14  1  0
  6  7  2  0
  8  9  1  0
  9 10  2  0
 11  9  1  0
 11 12  1  0
 13 12  1  1
 13 15  1  0
 14 13  1  0
 15 16  2  0
 17 18  1  0
 17 15  1  0
 18 24  1  0
 18 19  1  1
 20 19  1  0
 21 20  1  0
 22 21  1  0
 23 22  1  0
 24 25  1  0
 26 24  2  0
M  END
$$$$
