VQK.pdb
     RDKit          3D

 26 25  0  0  1  0  0  0  0  0999 V2000
   18.0193  -10.4173  -18.8099 C   0  0  0  0  0  0  0  0  0  0  0  0
   18.4663  -11.4245  -17.7993 C   0  0  1  0  0  0  0  0  0  0  0  0
   18.8513  -12.7307  -18.4929 C   0  0  0  0  0  0  0  0  0  0  0  0
   19.6346  -10.8866  -17.0215 C   0  0  2  0  0  0  0  0  0  0  0  0
   20.0966  -11.8643  -16.0914 N   0  0  0  0  0  0  0  0  0  0  0  0
   19.3121   -9.6085  -16.3394 C   0  0  0  0  0  0  0  0  0  0  0  0
   18.9865   -8.5924  -16.9965 O   0  0  0  0  0  0  0  0  0  0  0  0
   16.9634   -9.0783  -10.7440 N   0  0  0  0  0  0  0  0  0  0  0  0
   17.4171   -7.7432  -10.8835 C   0  0  0  0  0  0  0  0  0  0  0  0
   17.1378   -6.9120   -9.9964 O   0  0  0  0  0  0  0  0  0  0  0  0
   18.2289   -7.3118  -12.0820 C   0  0  0  0  0  0  0  0  0  0  0  0
   18.4528   -8.4961  -12.9634 C   0  0  0  0  0  0  0  0  0  0  0  0
   19.1073   -8.2249  -14.2767 C   0  0  2  0  0  0  0  0  0  0  0  0
   19.3690   -9.5252  -14.9431 N   0  0  0  0  0  0  0  0  0  0  0  0
   20.3708   -7.4660  -14.2022 C   0  0  0  0  0  0  0  0  0  0  0  0
   21.4546   -8.0555  -13.8363 O   0  0  0  0  0  0  0  0  0  0  0  0
   20.4860   -6.1136  -14.5166 N   0  0  0  0  0  0  0  0  0  0  0  0
   21.8455   -5.4371  -14.5301 C   0  0  1  0  0  0  0  0  0  0  0  0
   21.6595   -4.4887  -15.6813 C   0  0  0  0  0  0  0  0  0  0  0  0
   22.6204   -3.4330  -15.8850 C   0  0  0  0  0  0  0  0  0  0  0  0
   22.4036   -2.4764  -16.9883 C   0  0  0  0  0  0  0  0  0  0  0  0
   23.5923   -1.4551  -16.8671 C   0  0  0  0  0  0  0  0  0  0  0  0
   23.3923   -0.5227  -17.9518 N   0  0  0  0  0  0  0  0  0  0  0  0
   21.9003   -4.8301  -13.1996 C   0  0  0  0  0  0  0  0  0  0  0  0
   23.1309   -4.7035  -12.5292 O   0  0  0  0  0  0  0  0  0  0  0  0
   20.9129   -4.4036  -12.5887 O   0  0  0  0  0  0  0  0  0  0  0  0
  2  1  1  6
  2  4  1  0
  3  2  1  0
  4  5  1  1
  4  6  1  0
  6 14  1  0
  6  7  2  0
  8  9  1  0
  9 10  2  0
 11  9  1  0
 11 12  1  0
 13 12  1  1
 13 15  1  0
 14 13  1  0
 15 16  2  0
 17 18  1  0
 17 15  1  0
 18 24  1  0
 18 19  1  6
 20 19  1  0
 21 20  1  0
 22 21  1  0
 23 22  1  0
 24 25  1  0
 26 24  2  0
M  END
$$$$
