VQK.pdb
     RDKit          3D

 26 25  0  0  1  0  0  0  0  0999 V2000
   27.3809  -18.5082  -19.0955 C   0  0  0  0  0  0  0  0  0  0  0  0
   26.6595  -19.0049  -17.8837 C   0  0  1  0  0  0  0  0  0  0  0  0
   25.3906  -19.7505  -18.2953 C   0  0  0  0  0  0  0  0  0  0  0  0
   27.5575  -19.9099  -17.0875 C   0  0  2  0  0  0  0  0  0  0  0  0
   28.0388  -20.9708  -17.9104 N   0  0  0  0  0  0  0  0  0  0  0  0
   26.8868  -20.4363  -15.8726 C   0  0  0  0  0  0  0  0  0  0  0  0
   26.2526  -21.5166  -15.9044 O   0  0  0  0  0  0  0  0  0  0  0  0
   25.5381  -21.9892   -9.8566 N   0  0  0  0  0  0  0  0  0  0  0  0
   26.4427  -21.0734  -10.4487 C   0  0  0  0  0  0  0  0  0  0  0  0
   27.6531  -21.3690  -10.5080 O   0  0  0  0  0  0  0  0  0  0  0  0
   25.9687  -19.7523  -11.0066 C   0  0  0  0  0  0  0  0  0  0  0  0
   26.6929  -19.4813  -12.2840 C   0  0  0  0  0  0  0  0  0  0  0  0
   26.1944  -20.2053  -13.4898 C   0  0  2  0  0  0  0  0  0  0  0  0
   26.9572  -19.7248  -14.6691 N   0  0  0  0  0  0  0  0  0  0  0  0
   24.7521  -20.0512  -13.7613 C   0  0  0  0  0  0  0  0  0  0  0  0
   24.3126  -18.9742  -14.3118 O   0  0  0  0  0  0  0  0  0  0  0  0
   23.7963  -21.0204  -13.4640 N   0  0  0  0  0  0  0  0  0  0  0  0
   22.3270  -20.7708  -13.7556 C   0  0  1  0  0  0  0  0  0  0  0  0
   21.9797  -22.0414  -14.4797 C   0  0  0  0  0  0  0  0  0  0  0  0
   20.6034  -22.3022  -14.8216 C   0  0  0  0  0  0  0  0  0  0  0  0
   20.2798  -23.5192  -15.5921 C   0  0  0  0  0  0  0  0  0  0  0  0
   18.7225  -23.4568  -15.7965 C   0  0  0  0  0  0  0  0  0  0  0  0
   18.4043  -24.6267  -16.5815 N   0  0  0  0  0  0  0  0  0  0  0  0
   21.7673  -20.6235  -12.4114 C   0  0  0  0  0  0  0  0  0  0  0  0
   20.5548  -19.9356  -12.2207 O   0  0  0  0  0  0  0  0  0  0  0  0
   22.2953  -21.0699  -11.3856 O   0  0  0  0  0  0  0  0  0  0  0  0
  2  1  1  6
  2  4  1  0
  3  2  1  0
  4  5  1  6
  4  6  1  0
  6 14  1  0
  6  7  2  0
  8  9  1  0
  9 10  2  0
 11  9  1  0
 11 12  1  0
 13 12  1  1
 13 15  1  0
 14 13  1  0
 15 16  2  0
 17 18  1  0
 17 15  1  0
 18 24  1  0
 18 19  1  1
 20 19  1  0
 21 20  1  0
 22 21  1  0
 23 22  1  0
 24 25  1  0
 26 24  2  0
M  END
$$$$
