VQK.pdb
     RDKit          3D

 26 25  0  0  1  0  0  0  0  0999 V2000
   14.2323   -9.2932  -15.5394 C   0  0  0  0  0  0  0  0  0  0  0  0
   14.7865  -10.6748  -15.3998 C   0  0  1  0  0  0  0  0  0  0  0  0
   14.3813  -11.5283  -16.6009 C   0  0  0  0  0  0  0  0  0  0  0  0
   16.2842  -10.6173  -15.2863 C   0  0  2  0  0  0  0  0  0  0  0  0
   16.8198  -11.9357  -15.1892 N   0  0  0  0  0  0  0  0  0  0  0  0
   16.7274   -9.7740  -14.1482 C   0  0  0  0  0  0  0  0  0  0  0  0
   16.4140  -10.0657  -12.9705 O   0  0  0  0  0  0  0  0  0  0  0  0
   22.9489   -8.4795  -13.9988 N   0  0  0  0  0  0  0  0  0  0  0  0
   21.7441   -7.7362  -13.9404 C   0  0  0  0  0  0  0  0  0  0  0  0
   21.7681   -6.5197  -14.2151 O   0  0  0  0  0  0  0  0  0  0  0  0
   20.4380   -8.3884  -13.5530 C   0  0  0  0  0  0  0  0  0  0  0  0
   19.3660   -7.3491  -13.5402 C   0  0  0  0  0  0  0  0  0  0  0  0
   17.9873   -7.8291  -13.2312 C   0  0  2  0  0  0  0  0  0  0  0  0
   17.5066   -8.6347  -14.3816 N   0  0  0  0  0  0  0  0  0  0  0  0
   17.0024   -6.7667  -12.9501 C   0  0  0  0  0  0  0  0  0  0  0  0
   16.3469   -6.2251  -13.9161 O   0  0  0  0  0  0  0  0  0  0  0  0
   16.7115   -6.2935  -11.6723 N   0  0  0  0  0  0  0  0  0  0  0  0
   15.7234   -5.1571  -11.4762 C   0  0  1  0  0  0  0  0  0  0  0  0
   15.2473   -5.4560  -10.0821 C   0  0  0  0  0  0  0  0  0  0  0  0
   14.4720   -4.4659   -9.3765 C   0  0  0  0  0  0  0  0  0  0  0  0
   14.0822   -4.7315   -7.9776 C   0  0  0  0  0  0  0  0  0  0  0  0
   13.2851   -3.4502   -7.5378 C   0  0  0  0  0  0  0  0  0  0  0  0
   12.8822   -3.7133   -6.1760 N   0  0  0  0  0  0  0  0  0  0  0  0
   16.5773   -3.9779  -11.6248 C   0  0  0  0  0  0  0  0  0  0  0  0
   17.9720   -4.0904  -11.4762 O   0  0  0  0  0  0  0  0  0  0  0  0
   16.1570   -2.8425  -11.8781 O   0  0  0  0  0  0  0  0  0  0  0  0
  2  1  1  6
  2  4  1  0
  3  2  1  0
  4  5  1  1
  4  6  1  0
  6 14  1  0
  6  7  2  0
  8  9  1  0
  9 10  2  0
 11  9  1  0
 11 12  1  0
 13 12  1  6
 13 15  1  0
 14 13  1  0
 15 16  2  0
 17 18  1  0
 17 15  1  0
 18 24  1  0
 18 19  1  1
 20 19  1  0
 21 20  1  0
 22 21  1  0
 23 22  1  0
 24 25  1  0
 26 24  2  0
M  END
$$$$
