VQK.pdb
     RDKit          3D

 26 25  0  0  1  0  0  0  0  0999 V2000
   19.1881  -12.0541  -16.4182 C   0  0  0  0  0  0  0  0  0  0  0  0
   20.5713  -11.8835  -16.9599 C   0  0  1  0  0  0  0  0  0  0  0  0
   21.0672  -13.1984  -17.5603 C   0  0  0  0  0  0  0  0  0  0  0  0
   20.5836  -10.8004  -18.0021 C   0  0  2  0  0  0  0  0  0  0  0  0
   21.9018  -10.6340  -18.5209 N   0  0  0  0  0  0  0  0  0  0  0  0
   20.0463   -9.5180  -17.4830 C   0  0  0  0  0  0  0  0  0  0  0  0
   18.8490   -9.4188  -17.1268 O   0  0  0  0  0  0  0  0  0  0  0  0
   22.0865   -6.2138  -13.1380 N   0  0  0  0  0  0  0  0  0  0  0  0
   21.5704   -7.5255  -13.2817 C   0  0  0  0  0  0  0  0  0  0  0  0
   21.6123   -8.3038  -12.3078 O   0  0  0  0  0  0  0  0  0  0  0  0
   20.9734   -7.9949  -14.5873 C   0  0  0  0  0  0  0  0  0  0  0  0
   20.9339   -6.8454  -15.5395 C   0  0  0  0  0  0  0  0  0  0  0  0
   20.3267   -7.1174  -16.8752 C   0  0  2  0  0  0  0  0  0  0  0  0
   20.8794   -8.3972  -17.3853 N   0  0  0  0  0  0  0  0  0  0  0  0
   20.5459   -6.0673  -17.8886 C   0  0  0  0  0  0  0  0  0  0  0  0
   21.5598   -6.1369  -18.6781 O   0  0  0  0  0  0  0  0  0  0  0  0
   19.7048   -4.9711  -18.0678 N   0  0  0  0  0  0  0  0  0  0  0  0
   19.9282   -4.0067  -19.2194 C   0  0  1  0  0  0  0  0  0  0  0  0
   18.5859   -3.3318  -19.2656 C   0  0  0  0  0  0  0  0  0  0  0  0
   18.3924   -2.2114  -20.1524 C   0  0  0  0  0  0  0  0  0  0  0  0
   17.0541   -1.5937  -20.2373 C   0  0  0  0  0  0  0  0  0  0  0  0
   17.2154   -0.4417  -21.2944 C   0  0  0  0  0  0  0  0  0  0  0  0
   15.9187    0.1919  -21.3532 N   0  0  0  0  0  0  0  0  0  0  0  0
   21.0404   -3.1925  -18.7274 C   0  0  0  0  0  0  0  0  0  0  0  0
   21.1774   -2.9392  -17.3501 O   0  0  0  0  0  0  0  0  0  0  0  0
   21.9046   -2.6850  -19.4525 O   0  0  0  0  0  0  0  0  0  0  0  0
  2  1  1  6
  2  4  1  0
  3  2  1  0
  4  5  1  1
  4  6  1  0
  6 14  1  0
  6  7  2  0
  8  9  1  0
  9 10  2  0
 11  9  1  0
 11 12  1  0
 13 12  1  1
 13 15  1  0
 14 13  1  0
 15 16  2  0
 17 18  1  0
 17 15  1  0
 18 24  1  0
 18 19  1  1
 20 19  1  0
 21 20  1  0
 22 21  1  0
 23 22  1  0
 24 25  1  0
 26 24  2  0
M  END
$$$$
