LNA.pdb
     RDKit          3D

 22 21  0  0  1  0  0  0  0  0999 V2000
    5.9018  -11.6881   26.9267 C   0  0  0  0  0  0  0  0  0  0  0  0
    6.9967  -12.0190   25.9151 C   0  0  2  0  0  0  0  0  0  0  0  0
    7.3602  -10.7785   25.1222 C   0  0  0  0  0  0  0  0  0  0  0  0
    6.5246  -13.1134   24.9918 C   0  0  0  0  0  0  0  0  0  0  0  0
    6.5786  -14.4189   25.6968 C   0  0  2  0  0  0  0  0  0  0  0  0
    7.3391  -14.4383   26.9034 N   0  0  0  0  0  0  0  0  0  0  0  0
    7.0911  -15.5247   24.8364 C   0  0  0  0  0  0  0  0  0  0  0  0
    6.6287  -15.7675   23.6983 O   0  0  0  0  0  0  0  0  0  0  0  0
    9.1422  -15.8824   22.4251 N   0  0  0  0  0  0  0  0  0  0  0  0
   10.3109  -16.2447   23.1272 C   0  0  0  0  0  0  0  0  0  0  0  0
   11.4104  -15.8198   22.6864 O   0  0  0  0  0  0  0  0  0  0  0  0
   10.1665  -17.0893   24.3194 C   0  0  0  0  0  0  0  0  0  0  0  0
    8.7104  -17.4565   24.6066 C   0  0  2  0  0  0  0  0  0  0  0  0
    8.1328  -16.3330   25.3090 N   0  0  0  0  0  0  0  0  0  0  0  0
    8.7521  -18.5894   25.5513 C   0  0  0  0  0  0  0  0  0  0  0  0
    9.2565  -19.6741   25.1684 O   0  0  0  0  0  0  0  0  0  0  0  0
    7.5117  -20.8569   26.8012 C   0  0  0  0  0  0  0  0  0  0  0  0
    8.1463  -19.7541   27.6192 C   0  0  2  0  0  0  0  0  0  0  0  0
    8.2516  -18.5215   26.8754 N   0  0  0  0  0  0  0  0  0  0  0  0
    9.4990  -20.1335   28.0982 C   0  0  0  0  0  0  0  0  0  0  0  0
    9.6880  -21.0302   28.9571 O   0  0  0  0  0  0  0  0  0  0  0  0
   10.6180  -19.4884   27.5942 O   0  0  0  0  0  0  0  0  0  0  0  0
  2  1  1  1
  2  3  1  0
  4  2  1  0
  4  5  1  0
  5  7  1  0
  5  6  1  1
  7  8  2  0
  7 14  1  0
  9 10  1  0
 10 12  1  0
 10 11  2  0
 13 15  1  0
 13 12  1  1
 14 13  1  0
 15 16  2  0
 18 17  1  6
 19 18  1  0
 19 15  1  0
 20 22  1  0
 20 18  1  0
 21 20  2  0
M  END
$$$$
