LNA.pdb
     RDKit          3D

 22 21  0  0  1  0  0  0  0  0999 V2000
    9.6813  -12.6863   19.7762 C   0  0  0  0  0  0  0  0  0  0  0  0
    8.2642  -13.2293   19.6083 C   0  0  2  0  0  0  0  0  0  0  0  0
    7.2700  -12.0842   19.5940 C   0  0  0  0  0  0  0  0  0  0  0  0
    7.9479  -14.1859   20.7299 C   0  0  0  0  0  0  0  0  0  0  0  0
    8.9386  -15.2916   20.7368 C   0  0  2  0  0  0  0  0  0  0  0  0
    8.8167  -16.2370   19.6757 N   0  0  0  0  0  0  0  0  0  0  0  0
    8.9422  -16.0626   22.0141 C   0  0  0  0  0  0  0  0  0  0  0  0
    8.0063  -16.8245   22.3481 O   0  0  0  0  0  0  0  0  0  0  0  0
   10.8624  -19.7591   23.9469 N   0  0  0  0  0  0  0  0  0  0  0  0
   11.3966  -18.6156   23.3167 C   0  0  0  0  0  0  0  0  0  0  0  0
   11.7577  -18.7273   22.1163 O   0  0  0  0  0  0  0  0  0  0  0  0
   11.4949  -17.3777   24.1000 C   0  0  0  0  0  0  0  0  0  0  0  0
   10.1729  -16.6117   24.1566 C   0  0  2  0  0  0  0  0  0  0  0  0
   10.0317  -15.9384   22.8855 N   0  0  0  0  0  0  0  0  0  0  0  0
   10.3467  -15.5700   25.1873 C   0  0  0  0  0  0  0  0  0  0  0  0
   11.4502  -14.9747   25.2612 O   0  0  0  0  0  0  0  0  0  0  0  0
    8.5076  -13.3582   27.4945 C   0  0  0  0  0  0  0  0  0  0  0  0
    9.6721  -14.2570   27.1420 C   0  0  2  0  0  0  0  0  0  0  0  0
    9.3314  -15.2012   26.1046 N   0  0  0  0  0  0  0  0  0  0  0  0
   10.1629  -15.0100   28.3232 C   0  0  0  0  0  0  0  0  0  0  0  0
   10.0762  -16.2596   28.4153 O   0  0  0  0  0  0  0  0  0  0  0  0
   10.7454  -14.3321   29.3831 O   0  0  0  0  0  0  0  0  0  0  0  0
  2  1  1  1
  2  3  1  0
  4  2  1  0
  4  5  1  0
  5  7  1  0
  5  6  1  6
  7  8  2  0
  7 14  1  0
  9 10  1  0
 10 12  1  0
 10 11  2  0
 13 15  1  0
 13 12  1  6
 14 13  1  0
 15 16  2  0
 18 17  1  1
 19 18  1  0
 19 15  1  0
 20 22  1  0
 20 18  1  0
 21 20  2  0
M  END
$$$$
