LNA.pdb
     RDKit          3D

 22 21  0  0  1  0  0  0  0  0999 V2000
    9.2519  -11.9325   19.5391 C   0  0  0  0  0  0  0  0  0  0  0  0
    8.3144  -13.0598   19.1131 C   0  0  2  0  0  0  0  0  0  0  0  0
    6.9866  -12.4845   18.6594 C   0  0  0  0  0  0  0  0  0  0  0  0
    8.1086  -14.0142   20.2621 C   0  0  0  0  0  0  0  0  0  0  0  0
    9.4246  -14.4085   20.8249 C   0  0  2  0  0  0  0  0  0  0  0  0
   10.3661  -14.9289   19.8884 N   0  0  0  0  0  0  0  0  0  0  0  0
    9.3106  -15.4022   21.9318 C   0  0  0  0  0  0  0  0  0  0  0  0
    8.3256  -15.4464   22.7038 O   0  0  0  0  0  0  0  0  0  0  0  0
   11.5765  -19.4471   20.4244 N   0  0  0  0  0  0  0  0  0  0  0  0
   10.8441  -19.3075   21.6220 C   0  0  0  0  0  0  0  0  0  0  0  0
    9.7745  -19.9617   21.7302 O   0  0  0  0  0  0  0  0  0  0  0  0
   11.3765  -18.4125   22.6569 C   0  0  0  0  0  0  0  0  0  0  0  0
   10.3517  -17.3780   23.1230 C   0  0  2  0  0  0  0  0  0  0  0  0
   10.3411  -16.3305   22.1271 N   0  0  0  0  0  0  0  0  0  0  0  0
   10.8937  -16.7954   24.3658 C   0  0  0  0  0  0  0  0  0  0  0  0
   12.0807  -16.3848   24.3704 O   0  0  0  0  0  0  0  0  0  0  0  0
   10.0383  -15.0114   27.3616 C   0  0  0  0  0  0  0  0  0  0  0  0
   10.8160  -16.1420   26.7252 C   0  0  2  0  0  0  0  0  0  0  0  0
   10.1448  -16.6725   25.5626 N   0  0  0  0  0  0  0  0  0  0  0  0
   11.0536  -17.2525   27.6810 C   0  0  0  0  0  0  0  0  0  0  0  0
   11.6289  -17.0862   28.7850 O   0  0  0  0  0  0  0  0  0  0  0  0
   10.6338  -18.5364   27.3685 O   0  0  0  0  0  0  0  0  0  0  0  0
  2  1  1  1
  2  3  1  0
  4  2  1  0
  4  5  1  0
  5  7  1  0
  5  6  1  6
  7  8  2  0
  7 14  1  0
  9 10  1  0
 10 12  1  0
 10 11  2  0
 13 15  1  0
 13 12  1  6
 14 13  1  0
 15 16  2  0
 18 17  1  1
 19 18  1  0
 19 15  1  0
 20 22  1  0
 20 18  1  0
 21 20  2  0
M  END
$$$$
