LNA.pdb
     RDKit          3D

 22 21  0  0  1  0  0  0  0  0999 V2000
    7.9557  -11.7894   20.7223 C   0  0  0  0  0  0  0  0  0  0  0  0
    8.2781  -13.2331   20.3437 C   0  0  2  0  0  0  0  0  0  0  0  0
    7.7654  -13.5283   18.9473 C   0  0  0  0  0  0  0  0  0  0  0  0
    7.6541  -14.1743   21.3426 C   0  0  0  0  0  0  0  0  0  0  0  0
    8.2516  -15.5254   21.1958 C   0  0  2  0  0  0  0  0  0  0  0  0
    7.4654  -16.4738   20.4767 N   0  0  0  0  0  0  0  0  0  0  0  0
    8.6070  -16.1504   22.5031 C   0  0  0  0  0  0  0  0  0  0  0  0
    7.7583  -16.6900   23.2490 O   0  0  0  0  0  0  0  0  0  0  0  0
   10.8336  -19.4237   23.9193 N   0  0  0  0  0  0  0  0  0  0  0  0
   11.9915  -18.6437   23.7171 C   0  0  0  0  0  0  0  0  0  0  0  0
   13.0582  -19.2476   23.4322 O   0  0  0  0  0  0  0  0  0  0  0  0
   11.8749  -17.1864   23.8522 C   0  0  0  0  0  0  0  0  0  0  0  0
   10.4431  -16.7360   24.1438 C   0  0  2  0  0  0  0  0  0  0  0  0
    9.9423  -16.1401   22.9260 N   0  0  0  0  0  0  0  0  0  0  0  0
   10.5487  -15.6592   25.1474 C   0  0  0  0  0  0  0  0  0  0  0  0
   11.2664  -14.6619   24.8869 O   0  0  0  0  0  0  0  0  0  0  0  0
    8.9345  -13.6800   27.4364 C   0  0  0  0  0  0  0  0  0  0  0  0
   10.1272  -14.6024   27.3165 C   0  0  2  0  0  0  0  0  0  0  0  0
    9.8811  -15.6876   26.3971 N   0  0  0  0  0  0  0  0  0  0  0  0
   10.5138  -15.1751   28.6302 C   0  0  0  0  0  0  0  0  0  0  0  0
   10.7867  -14.4621   29.6275 O   0  0  0  0  0  0  0  0  0  0  0  0
   10.5848  -16.5503   28.7919 O   0  0  0  0  0  0  0  0  0  0  0  0
  2  1  1  1
  2  3  1  0
  4  2  1  0
  4  5  1  0
  5  7  1  0
  5  6  1  1
  7  8  2  0
  7 14  1  0
  9 10  1  0
 10 12  1  0
 10 11  2  0
 13 15  1  0
 13 12  1  6
 14 13  1  0
 15 16  2  0
 18 17  1  1
 19 18  1  0
 19 15  1  0
 20 22  1  0
 20 18  1  0
 21 20  2  0
M  END
$$$$
