LNA.pdb
     RDKit          3D

 22 21  0  0  1  0  0  0  0  0999 V2000
    7.2211  -12.5044   19.2061 C   0  0  0  0  0  0  0  0  0  0  0  0
    8.0473  -13.0459   18.0418 C   0  0  2  0  0  0  0  0  0  0  0  0
    7.1826  -13.1548   16.8007 C   0  0  0  0  0  0  0  0  0  0  0  0
    8.6184  -14.3933   18.4044 C   0  0  0  0  0  0  0  0  0  0  0  0
    9.2751  -14.3155   19.7336 C   0  0  2  0  0  0  0  0  0  0  0  0
    9.8146  -13.0420   20.0825 N   0  0  0  0  0  0  0  0  0  0  0  0
   10.3679  -15.3170   19.9029 C   0  0  0  0  0  0  0  0  0  0  0  0
   10.2341  -16.5239   19.5970 O   0  0  0  0  0  0  0  0  0  0  0  0
   13.8568  -15.5797   17.9890 N   0  0  0  0  0  0  0  0  0  0  0  0
   14.1731  -14.5713   18.9235 C   0  0  0  0  0  0  0  0  0  0  0  0
   14.6002  -13.4755   18.4757 O   0  0  0  0  0  0  0  0  0  0  0  0
   13.9837  -14.8667   20.3491 C   0  0  0  0  0  0  0  0  0  0  0  0
   12.7602  -15.7460   20.6095 C   0  0  2  0  0  0  0  0  0  0  0  0
   11.6003  -14.9037   20.4247 N   0  0  0  0  0  0  0  0  0  0  0  0
   12.8140  -16.1102   22.0386 C   0  0  0  0  0  0  0  0  0  0  0  0
   13.8785  -16.5946   22.4966 O   0  0  0  0  0  0  0  0  0  0  0  0
   11.2071  -15.4946   25.2825 C   0  0  0  0  0  0  0  0  0  0  0  0
   11.8867  -16.4075   24.2861 C   0  0  2  0  0  0  0  0  0  0  0  0
   11.7245  -15.9428   22.9291 N   0  0  0  0  0  0  0  0  0  0  0  0
   11.3729  -17.7972   24.3739 C   0  0  0  0  0  0  0  0  0  0  0  0
   10.7466  -18.3497   23.4358 O   0  0  0  0  0  0  0  0  0  0  0  0
   11.5781  -18.5395   25.5268 O   0  0  0  0  0  0  0  0  0  0  0  0
  2  1  1  1
  2  3  1  0
  4  2  1  0
  4  5  1  0
  5  7  1  0
  5  6  1  6
  7  8  2  0
  7 14  1  0
  9 10  1  0
 10 12  1  0
 10 11  2  0
 13 15  1  0
 13 12  1  1
 14 13  1  0
 15 16  2  0
 18 17  1  1
 19 18  1  0
 19 15  1  0
 20 22  1  0
 20 18  1  0
 21 20  2  0
M  END
$$$$
