LNA.pdb
     RDKit          3D

 22 21  0  0  1  0  0  0  0  0999 V2000
    5.9723  -12.5284   27.8829 C   0  0  0  0  0  0  0  0  0  0  0  0
    6.7860  -12.1085   26.6611 C   0  0  2  0  0  0  0  0  0  0  0  0
    6.4991  -10.6584   26.3222 C   0  0  0  0  0  0  0  0  0  0  0  0
    6.4475  -12.9984   25.4920 C   0  0  0  0  0  0  0  0  0  0  0  0
    7.4962  -14.0377   25.3361 C   0  0  2  0  0  0  0  0  0  0  0  0
    8.8357  -13.6024   25.5617 N   0  0  0  0  0  0  0  0  0  0  0  0
    7.4680  -14.6975   23.9983 C   0  0  0  0  0  0  0  0  0  0  0  0
    6.4482  -15.2644   23.5439 O   0  0  0  0  0  0  0  0  0  0  0  0
    8.1382  -12.4020   20.2848 N   0  0  0  0  0  0  0  0  0  0  0  0
    8.1469  -13.8127   20.2798 C   0  0  0  0  0  0  0  0  0  0  0  0
    7.1822  -14.3991   19.7236 O   0  0  0  0  0  0  0  0  0  0  0  0
    9.2756  -14.4987   20.9209 C   0  0  0  0  0  0  0  0  0  0  0  0
    8.8284  -15.4741   22.0101 C   0  0  2  0  0  0  0  0  0  0  0  0
    8.6237  -14.6900   23.2069 N   0  0  0  0  0  0  0  0  0  0  0  0
    9.9787  -16.3639   22.2607 C   0  0  0  0  0  0  0  0  0  0  0  0
   11.1384  -15.8997   22.1301 O   0  0  0  0  0  0  0  0  0  0  0  0
   11.4785  -18.7692   24.1429 C   0  0  0  0  0  0  0  0  0  0  0  0
   11.0476  -18.5206   22.7144 C   0  0  2  0  0  0  0  0  0  0  0  0
    9.8472  -17.7221   22.6432 N   0  0  0  0  0  0  0  0  0  0  0  0
   10.8145  -19.7900   21.9814 C   0  0  0  0  0  0  0  0  0  0  0  0
    9.6798  -20.1376   21.5701 O   0  0  0  0  0  0  0  0  0  0  0  0
   11.8744  -20.6466   21.7261 O   0  0  0  0  0  0  0  0  0  0  0  0
  2  1  1  1
  2  3  1  0
  4  2  1  0
  4  5  1  0
  5  7  1  0
  5  6  1  6
  7  8  2  0
  7 14  1  0
  9 10  1  0
 10 12  1  0
 10 11  2  0
 13 15  1  0
 13 12  1  6
 14 13  1  0
 15 16  2  0
 18 17  1  1
 19 18  1  0
 19 15  1  0
 20 22  1  0
 20 18  1  0
 21 20  2  0
M  END
$$$$
