LNA.pdb
     RDKit          3D

 22 21  0  0  1  0  0  0  0  0999 V2000
    8.4193  -12.7593   20.7200 C   0  0  0  0  0  0  0  0  0  0  0  0
    7.7147  -14.1138   20.7358 C   0  0  2  0  0  0  0  0  0  0  0  0
    6.2131  -13.9146   20.8097 C   0  0  0  0  0  0  0  0  0  0  0  0
    8.1957  -14.9256   21.9117 C   0  0  0  0  0  0  0  0  0  0  0  0
    9.6775  -15.0145   21.8838 C   0  0  2  0  0  0  0  0  0  0  0  0
   10.2293  -15.8041   20.8319 N   0  0  0  0  0  0  0  0  0  0  0  0
   10.2548  -15.5212   23.1628 C   0  0  0  0  0  0  0  0  0  0  0  0
   11.1082  -16.4365   23.2052 O   0  0  0  0  0  0  0  0  0  0  0  0
    9.6540  -13.6530   29.0445 N   0  0  0  0  0  0  0  0  0  0  0  0
   10.2925  -14.3694   28.0105 C   0  0  0  0  0  0  0  0  0  0  0  0
   11.3057  -15.0514   28.3141 O   0  0  0  0  0  0  0  0  0  0  0  0
    9.7347  -14.2717   26.6560 C   0  0  0  0  0  0  0  0  0  0  0  0
   10.4105  -15.2271   25.6719 C   0  0  2  0  0  0  0  0  0  0  0  0
    9.8334  -14.9585   24.3743 N   0  0  0  0  0  0  0  0  0  0  0  0
    9.9900  -16.5858   26.0656 C   0  0  0  0  0  0  0  0  0  0  0  0
    8.7622  -16.8467   26.1102 O   0  0  0  0  0  0  0  0  0  0  0  0
   10.9674  -20.0101   25.8620 C   0  0  0  0  0  0  0  0  0  0  0  0
   10.3568  -18.9193   26.7136 C   0  0  2  0  0  0  0  0  0  0  0  0
   10.9003  -17.6196   26.3986 N   0  0  0  0  0  0  0  0  0  0  0  0
   10.5559  -19.1759   28.1620 C   0  0  0  0  0  0  0  0  0  0  0  0
   10.0934  -20.1897   28.7414 O   0  0  0  0  0  0  0  0  0  0  0  0
   11.2780  -18.2765   28.9314 O   0  0  0  0  0  0  0  0  0  0  0  0
  2  1  1  1
  2  3  1  0
  4  2  1  0
  4  5  1  0
  5  7  1  0
  5  6  1  6
  7  8  2  0
  7 14  1  0
  9 10  1  0
 10 12  1  0
 10 11  2  0
 13 15  1  0
 13 12  1  1
 14 13  1  0
 15 16  2  0
 18 17  1  6
 19 18  1  0
 19 15  1  0
 20 22  1  0
 20 18  1  0
 21 20  2  0
M  END
$$$$
