LNA.pdb
     RDKit          3D

 22 21  0  0  1  0  0  0  0  0999 V2000
    5.4361  -12.3641   27.1529 C   0  0  0  0  0  0  0  0  0  0  0  0
    6.6991  -12.9113   26.4920 C   0  0  2  0  0  0  0  0  0  0  0  0
    7.7106  -11.7966   26.3074 C   0  0  0  0  0  0  0  0  0  0  0  0
    6.3517  -13.5314   25.1623 C   0  0  0  0  0  0  0  0  0  0  0  0
    6.9095  -14.9055   25.0917 C   0  0  2  0  0  0  0  0  0  0  0  0
    6.5248  -15.7835   26.1479 N   0  0  0  0  0  0  0  0  0  0  0  0
    8.3998  -14.9263   25.0237 C   0  0  0  0  0  0  0  0  0  0  0  0
    9.0520  -14.2067   24.2332 O   0  0  0  0  0  0  0  0  0  0  0  0
   10.3087  -15.3855   29.6647 N   0  0  0  0  0  0  0  0  0  0  0  0
   10.8199  -15.1503   28.3710 C   0  0  0  0  0  0  0  0  0  0  0  0
   11.2175  -13.9864   28.1046 O   0  0  0  0  0  0  0  0  0  0  0  0
   10.8536  -16.2741   27.4268 C   0  0  0  0  0  0  0  0  0  0  0  0
   10.5510  -15.8443   25.9910 C   0  0  2  0  0  0  0  0  0  0  0  0
    9.1118  -15.7819   25.8739 N   0  0  0  0  0  0  0  0  0  0  0  0
   11.0135  -16.9477   25.1270 C   0  0  0  0  0  0  0  0  0  0  0  0
   10.5411  -18.0965   25.3132 O   0  0  0  0  0  0  0  0  0  0  0  0
   11.0434  -17.7733   22.0493 C   0  0  0  0  0  0  0  0  0  0  0  0
   12.1033  -17.8466   23.1260 C   0  0  2  0  0  0  0  0  0  0  0  0
   11.9672  -16.7825   24.0919 N   0  0  0  0  0  0  0  0  0  0  0  0
   13.4722  -17.7934   22.5547 C   0  0  0  0  0  0  0  0  0  0  0  0
   14.2614  -16.8406   22.7712 O   0  0  0  0  0  0  0  0  0  0  0  0
   13.9250  -18.8240   21.7452 O   0  0  0  0  0  0  0  0  0  0  0  0
  2  1  1  6
  2  3  1  0
  4  2  1  0
  4  5  1  0
  5  7  1  0
  5  6  1  1
  7  8  2  0
  7 14  1  0
  9 10  1  0
 10 12  1  0
 10 11  2  0
 13 15  1  0
 13 12  1  1
 14 13  1  0
 15 16  2  0
 18 17  1  6
 19 18  1  0
 19 15  1  0
 20 22  1  0
 20 18  1  0
 21 20  2  0
M  END
$$$$
