LNA.pdb
     RDKit          3D

 22 21  0  0  1  0  0  0  0  0999 V2000
    7.6426  -13.1465   21.2319 C   0  0  0  0  0  0  0  0  0  0  0  0
    8.2818  -13.3399   19.8588 C   0  0  2  0  0  0  0  0  0  0  0  0
    8.0233  -12.1228   18.9920 C   0  0  0  0  0  0  0  0  0  0  0  0
    7.7230  -14.5786   19.2057 C   0  0  0  0  0  0  0  0  0  0  0  0
    8.1698  -15.7813   19.9527 C   0  0  2  0  0  0  0  0  0  0  0  0
    7.8892  -15.7795   21.3512 N   0  0  0  0  0  0  0  0  0  0  0  0
    9.6282  -16.0550   19.7975 C   0  0  0  0  0  0  0  0  0  0  0  0
   10.1090  -16.6110   18.7838 O   0  0  0  0  0  0  0  0  0  0  0  0
   14.3650  -14.5392   18.7787 N   0  0  0  0  0  0  0  0  0  0  0  0
   13.9730  -14.5647   20.1335 C   0  0  0  0  0  0  0  0  0  0  0  0
   14.8807  -14.6509   21.0010 O   0  0  0  0  0  0  0  0  0  0  0  0
   12.5389  -14.4893   20.4392 C   0  0  0  0  0  0  0  0  0  0  0  0
   11.9429  -15.8501   20.8008 C   0  0  2  0  0  0  0  0  0  0  0  0
   10.5078  -15.6794   20.8208 N   0  0  0  0  0  0  0  0  0  0  0  0
   12.3701  -16.1296   22.1854 C   0  0  0  0  0  0  0  0  0  0  0  0
   13.5956  -16.2749   22.4195 O   0  0  0  0  0  0  0  0  0  0  0  0
   11.2655  -15.9629   25.6994 C   0  0  0  0  0  0  0  0  0  0  0  0
   12.0091  -16.6203   24.5579 C   0  0  2  0  0  0  0  0  0  0  0  0
   11.4691  -16.2442   23.2732 N   0  0  0  0  0  0  0  0  0  0  0  0
   11.9845  -18.1005   24.6654 C   0  0  0  0  0  0  0  0  0  0  0  0
   12.4044  -18.7144   25.6775 O   0  0  0  0  0  0  0  0  0  0  0  0
   11.4829  -18.8621   23.6211 O   0  0  0  0  0  0  0  0  0  0  0  0
  2  1  1  1
  2  3  1  0
  4  2  1  0
  4  5  1  0
  5  7  1  0
  5  6  1  1
  7  8  2  0
  7 14  1  0
  9 10  1  0
 10 12  1  0
 10 11  2  0
 13 15  1  0
 13 12  1  1
 14 13  1  0
 15 16  2  0
 18 17  1  1
 19 18  1  0
 19 15  1  0
 20 22  1  0
 20 18  1  0
 21 20  2  0
M  END
$$$$
