LNA.pdb
     RDKit          3D

 22 21  0  0  1  0  0  0  0  0999 V2000
    8.2098  -12.6925   18.0604 C   0  0  0  0  0  0  0  0  0  0  0  0
    7.5573  -13.6492   19.0555 C   0  0  2  0  0  0  0  0  0  0  0  0
    6.7559  -12.8654   20.0769 C   0  0  0  0  0  0  0  0  0  0  0  0
    8.6172  -14.4746   19.7400 C   0  0  0  0  0  0  0  0  0  0  0  0
    9.3668  -15.2620   18.7289 C   0  0  2  0  0  0  0  0  0  0  0  0
    8.6068  -16.2374   18.0179 N   0  0  0  0  0  0  0  0  0  0  0  0
   10.5552  -15.9609   19.2989 C   0  0  0  0  0  0  0  0  0  0  0  0
   10.5985  -17.2019   19.4603 O   0  0  0  0  0  0  0  0  0  0  0  0
   14.4143  -15.8229   17.9219 N   0  0  0  0  0  0  0  0  0  0  0  0
   14.4761  -14.6388   18.6862 C   0  0  0  0  0  0  0  0  0  0  0  0
   14.9646  -13.6166   18.1382 O   0  0  0  0  0  0  0  0  0  0  0  0
   13.9685  -14.6783   20.0633 C   0  0  0  0  0  0  0  0  0  0  0  0
   12.8862  -15.7401   20.2604 C   0  0  2  0  0  0  0  0  0  0  0  0
   11.6765  -15.2097   19.6735 N   0  0  0  0  0  0  0  0  0  0  0  0
   12.6629  -15.8323   21.7162 C   0  0  0  0  0  0  0  0  0  0  0  0
   13.6177  -16.1893   22.4502 O   0  0  0  0  0  0  0  0  0  0  0  0
   10.1643  -15.0336   24.3781 C   0  0  0  0  0  0  0  0  0  0  0  0
   11.2937  -15.8174   23.7471 C   0  0  2  0  0  0  0  0  0  0  0  0
   11.4232  -15.5386   22.3368 N   0  0  0  0  0  0  0  0  0  0  0  0
   11.1145  -17.2801   23.9248 C   0  0  0  0  0  0  0  0  0  0  0  0
   11.1484  -17.8362   25.0504 O   0  0  0  0  0  0  0  0  0  0  0  0
   10.8991  -18.0903   22.8204 O   0  0  0  0  0  0  0  0  0  0  0  0
  2  1  1  6
  2  3  1  0
  4  2  1  0
  4  5  1  0
  5  7  1  0
  5  6  1  1
  7  8  2  0
  7 14  1  0
  9 10  1  0
 10 12  1  0
 10 11  2  0
 13 15  1  0
 13 12  1  1
 14 13  1  0
 15 16  2  0
 18 17  1  6
 19 18  1  0
 19 15  1  0
 20 22  1  0
 20 18  1  0
 21 20  2  0
M  END
$$$$
