MIQ.pdb
     RDKit          3D

 26 25  0  0  1  0  0  0  0  0999 V2000
    5.6236  -20.6641   24.3121 C   0  0  0  0  0  0  0  0  0  0  0  0
    4.9014  -20.4307   22.6834 S   0  0  0  0  0  0  0  0  0  0  0  0
    5.1254  -18.7940   22.0170 C   0  0  0  0  0  0  0  0  0  0  0  0
    6.0859  -17.9151   22.7498 C   0  0  0  0  0  0  0  0  0  0  0  0
    6.1456  -16.4973   22.2913 C   0  0  2  0  0  0  0  0  0  0  0  0
    6.5426  -16.3655   20.9113 N   0  0  0  0  0  0  0  0  0  0  0  0
    7.2212  -15.8412   23.1294 C   0  0  0  0  0  0  0  0  0  0  0  0
    8.3763  -15.8992   22.7039 O   0  0  0  0  0  0  0  0  0  0  0  0
    5.8545  -11.6072   26.3355 C   0  0  0  0  0  0  0  0  0  0  0  0
    6.6083  -12.5075   25.3354 C   0  0  0  0  0  0  0  0  0  0  0  0
    7.2273  -13.6551   26.0850 C   0  0  2  0  0  0  0  0  0  0  0  0
    8.0589  -13.0652   27.1875 C   0  0  0  0  0  0  0  0  0  0  0  0
    7.7789  -14.7649   25.3275 C   0  0  2  0  0  0  0  0  0  0  0  0
    6.8109  -15.2047   24.3498 N   0  0  0  0  0  0  0  0  0  0  0  0
    8.3437  -15.9410   25.9925 C   0  0  0  0  0  0  0  0  0  0  0  0
    7.5968  -16.9395   26.1710 O   0  0  0  0  0  0  0  0  0  0  0  0
   11.9434  -17.5743   22.2496 N   0  0  0  0  0  0  0  0  0  0  0  0
   11.9557  -18.7088   23.0833 C   0  0  0  0  0  0  0  0  0  0  0  0
   12.3036  -19.8240   22.5483 O   0  0  0  0  0  0  0  0  0  0  0  0
   11.5956  -18.6494   24.5189 C   0  0  0  0  0  0  0  0  0  0  0  0
   10.7142  -17.4960   24.8297 C   0  0  0  0  0  0  0  0  0  0  0  0
   10.3607  -17.3538   26.2631 C   0  0  2  0  0  0  0  0  0  0  0  0
    9.6605  -16.0583   26.4538 N   0  0  0  0  0  0  0  0  0  0  0  0
   11.3784  -17.4229   27.2867 C   0  0  0  0  0  0  0  0  0  0  0  0
   12.1422  -16.3201   27.6226 O   0  0  0  0  0  0  0  0  0  0  0  0
   11.6077  -18.4922   27.8981 O   0  0  0  0  0  0  0  0  0  0  0  0
  2  1  1  0
  3  2  1  0
  4  5  1  0
  4  3  1  0
  5  7  1  0
  5  6  1  6
  7  8  2  0
  7 14  1  0
 10  9  1  0
 11 12  1  6
 11 10  1  0
 13 11  1  0
 13 14  1  6
 15 13  1  0
 15 16  2  0
 17 18  1  0
 18 20  1  0
 18 19  2  0
 20 21  1  0
 22 21  1  6
 22 23  1  0
 23 15  1  0
 24 22  1  0
 25 24  1  0
 26 24  2  0
M  END
$$$$
