MIQ.pdb
     RDKit          3D

 26 25  0  0  1  0  0  0  0  0999 V2000
    6.0955  -11.2514   25.7081 C   0  0  0  0  0  0  0  0  0  0  0  0
    6.4921  -12.1894   27.1885 S   0  0  0  0  0  0  0  0  0  0  0  0
    7.1107  -13.8284   26.8662 C   0  0  0  0  0  0  0  0  0  0  0  0
    6.4423  -14.5735   25.7571 C   0  0  0  0  0  0  0  0  0  0  0  0
    6.9451  -15.9556   25.5102 C   0  0  2  0  0  0  0  0  0  0  0  0
    8.2225  -16.2115   26.1284 N   0  0  0  0  0  0  0  0  0  0  0  0
    7.1457  -16.0569   24.0138 C   0  0  0  0  0  0  0  0  0  0  0  0
    6.2294  -16.5562   23.3582 O   0  0  0  0  0  0  0  0  0  0  0  0
    7.7641  -11.9735   21.2486 C   0  0  0  0  0  0  0  0  0  0  0  0
    7.4428  -13.4101   21.7083 C   0  0  0  0  0  0  0  0  0  0  0  0
    8.6669  -14.2646   21.5251 C   0  0  2  0  0  0  0  0  0  0  0  0
    9.1378  -14.0645   20.1132 C   0  0  0  0  0  0  0  0  0  0  0  0
    8.6608  -15.6142   22.0620 C   0  0  2  0  0  0  0  0  0  0  0  0
    8.3841  -15.5640   23.4788 N   0  0  0  0  0  0  0  0  0  0  0  0
    9.7760  -16.5352   21.8328 C   0  0  0  0  0  0  0  0  0  0  0  0
   10.8728  -16.2953   22.4041 O   0  0  0  0  0  0  0  0  0  0  0  0
    8.7073  -21.5086   17.7914 N   0  0  0  0  0  0  0  0  0  0  0  0
    9.7371  -20.5683   17.9854 C   0  0  0  0  0  0  0  0  0  0  0  0
   10.8149  -20.7326   17.3054 O   0  0  0  0  0  0  0  0  0  0  0  0
    9.6103  -19.4256   18.9194 C   0  0  0  0  0  0  0  0  0  0  0  0
   10.9299  -18.8600   19.2972 C   0  0  0  0  0  0  0  0  0  0  0  0
   11.0118  -18.3521   20.6884 C   0  0  2  0  0  0  0  0  0  0  0  0
    9.7322  -17.6774   21.0242 N   0  0  0  0  0  0  0  0  0  0  0  0
   12.0669  -17.4480   21.0853 C   0  0  0  0  0  0  0  0  0  0  0  0
   12.2545  -16.2331   20.4519 O   0  0  0  0  0  0  0  0  0  0  0  0
   12.8543  -17.7427   22.0142 O   0  0  0  0  0  0  0  0  0  0  0  0
  2  1  1  0
  3  2  1  0
  4  5  1  0
  4  3  1  0
  5  7  1  0
  5  6  1  1
  7  8  2  0
  7 14  1  0
 10  9  1  0
 11 12  1  6
 11 10  1  0
 13 11  1  0
 13 14  1  1
 15 13  1  0
 15 16  2  0
 17 18  1  0
 18 20  1  0
 18 19  2  0
 20 21  1  0
 22 21  1  6
 22 23  1  0
 23 15  1  0
 24 22  1  0
 25 24  1  0
 26 24  2  0
M  END
$$$$
