MIQ.pdb
     RDKit          3D

 26 25  0  0  1  0  0  0  0  0999 V2000
    6.0577  -19.4180   21.5463 C   0  0  0  0  0  0  0  0  0  0  0  0
    6.0939  -18.5940   19.9500 S   0  0  0  0  0  0  0  0  0  0  0  0
    6.0908  -16.8155   20.0500 C   0  0  0  0  0  0  0  0  0  0  0  0
    6.9172  -16.2204   21.1430 C   0  0  0  0  0  0  0  0  0  0  0  0
    6.7577  -14.7521   21.3494 C   0  0  2  0  0  0  0  0  0  0  0  0
    7.1428  -13.9742   20.1978 N   0  0  0  0  0  0  0  0  0  0  0  0
    7.7083  -14.3906   22.4699 C   0  0  0  0  0  0  0  0  0  0  0  0
    8.8598  -14.0878   22.1520 O   0  0  0  0  0  0  0  0  0  0  0  0
    5.9095  -11.3132   26.4351 C   0  0  0  0  0  0  0  0  0  0  0  0
    6.8036  -11.9505   25.3520 C   0  0  0  0  0  0  0  0  0  0  0  0
    7.3246  -13.2655   25.8633 C   0  0  2  0  0  0  0  0  0  0  0  0
    7.9322  -13.0055   27.2118 C   0  0  0  0  0  0  0  0  0  0  0  0
    8.0378  -14.1363   24.9453 C   0  0  2  0  0  0  0  0  0  0  0  0
    7.1938  -14.4288   23.8102 N   0  0  0  0  0  0  0  0  0  0  0  0
    8.6639  -15.3800   25.3990 C   0  0  0  0  0  0  0  0  0  0  0  0
    7.9363  -16.4005   25.5256 O   0  0  0  0  0  0  0  0  0  0  0  0
   14.1074  -17.2423   23.4215 N   0  0  0  0  0  0  0  0  0  0  0  0
   13.7682  -18.2928   24.2954 C   0  0  0  0  0  0  0  0  0  0  0  0
   14.5814  -19.2855   24.3599 O   0  0  0  0  0  0  0  0  0  0  0  0
   12.5391  -18.2793   25.1220 C   0  0  0  0  0  0  0  0  0  0  0  0
   11.7596  -17.0277   24.9491 C   0  0  0  0  0  0  0  0  0  0  0  0
   10.5600  -16.9194   25.8146 C   0  0  2  0  0  0  0  0  0  0  0  0
   10.0201  -15.5401   25.7082 N   0  0  0  0  0  0  0  0  0  0  0  0
   10.6359  -17.2207   27.2258 C   0  0  0  0  0  0  0  0  0  0  0  0
   10.8275  -18.5127   27.6801 O   0  0  0  0  0  0  0  0  0  0  0  0
   10.5205  -16.3172   28.0861 O   0  0  0  0  0  0  0  0  0  0  0  0
  2  1  1  0
  3  2  1  0
  4  5  1  0
  4  3  1  0
  5  7  1  0
  5  6  1  6
  7  8  2  0
  7 14  1  0
 10  9  1  0
 11 12  1  1
 11 10  1  0
 13 11  1  0
 13 14  1  6
 15 13  1  0
 15 16  2  0
 17 18  1  0
 18 20  1  0
 18 19  2  0
 20 21  1  0
 22 21  1  1
 22 23  1  0
 23 15  1  0
 24 22  1  0
 25 24  1  0
 26 24  2  0
M  END
$$$$
