MIQ.pdb
     RDKit          3D

 26 25  0  0  1  0  0  0  0  0999 V2000
    7.6293  -19.0768   20.3280 C   0  0  0  0  0  0  0  0  0  0  0  0
    6.4110  -18.1466   19.3903 S   0  0  0  0  0  0  0  0  0  0  0  0
    6.4754  -16.3870   19.6598 C   0  0  0  0  0  0  0  0  0  0  0  0
    7.1967  -15.9395   20.8892 C   0  0  0  0  0  0  0  0  0  0  0  0
    7.1905  -14.4704   21.1450 C   0  0  2  0  0  0  0  0  0  0  0  0
    7.8072  -13.7094   20.0866 N   0  0  0  0  0  0  0  0  0  0  0  0
    8.0302  -14.2677   22.3874 C   0  0  0  0  0  0  0  0  0  0  0  0
    9.2377  -14.0841   22.2238 O   0  0  0  0  0  0  0  0  0  0  0  0
    5.9592  -11.2938   26.2358 C   0  0  0  0  0  0  0  0  0  0  0  0
    6.9975  -11.9140   25.2787 C   0  0  0  0  0  0  0  0  0  0  0  0
    7.3693  -13.2808   25.7842 C   0  0  2  0  0  0  0  0  0  0  0  0
    7.8849  -13.1088   27.1840 C   0  0  0  0  0  0  0  0  0  0  0  0
    8.0826  -14.1816   24.8956 C   0  0  2  0  0  0  0  0  0  0  0  0
    7.3545  -14.3050   23.6542 N   0  0  0  0  0  0  0  0  0  0  0  0
    8.5001  -15.5161   25.3309 C   0  0  0  0  0  0  0  0  0  0  0  0
    7.6256  -16.4203   25.3989 O   0  0  0  0  0  0  0  0  0  0  0  0
   12.7884  -18.8167   22.9182 N   0  0  0  0  0  0  0  0  0  0  0  0
   12.6306  -19.5251   24.1245 C   0  0  0  0  0  0  0  0  0  0  0  0
   13.3776  -20.5558   24.2995 O   0  0  0  0  0  0  0  0  0  0  0  0
   11.6601  -19.1204   25.1679 C   0  0  0  0  0  0  0  0  0  0  0  0
   11.0914  -17.7729   24.9136 C   0  0  0  0  0  0  0  0  0  0  0  0
   10.0925  -17.3224   25.9132 C   0  0  2  0  0  0  0  0  0  0  0  0
    9.8045  -15.8840   25.6824 N   0  0  0  0  0  0  0  0  0  0  0  0
   10.3451  -17.4665   27.3287 C   0  0  0  0  0  0  0  0  0  0  0  0
   10.6465  -16.3762   28.1242 O   0  0  0  0  0  0  0  0  0  0  0  0
   10.3080  -18.5910   27.8799 O   0  0  0  0  0  0  0  0  0  0  0  0
  2  1  1  0
  3  2  1  0
  4  5  1  0
  4  3  1  0
  5  7  1  0
  5  6  1  6
  7  8  2  0
  7 14  1  0
 10  9  1  0
 11 12  1  1
 11 10  1  0
 13 11  1  0
 13 14  1  6
 15 13  1  0
 15 16  2  0
 17 18  1  0
 18 20  1  0
 18 19  2  0
 20 21  1  0
 22 21  1  6
 22 23  1  0
 23 15  1  0
 24 22  1  0
 25 24  1  0
 26 24  2  0
M  END
$$$$
