MIQ.pdb
     RDKit          3D

 26 25  0  0  1  0  0  0  0  0999 V2000
   10.6623  -16.4089   29.5705 C   0  0  0  0  0  0  0  0  0  0  0  0
   10.1424  -18.1276   29.6390 S   0  0  0  0  0  0  0  0  0  0  0  0
    8.5817  -18.4468   28.8419 C   0  0  0  0  0  0  0  0  0  0  0  0
    8.2551  -17.5777   27.6715 C   0  0  0  0  0  0  0  0  0  0  0  0
    6.9472  -17.8491   27.0084 C   0  0  2  0  0  0  0  0  0  0  0  0
    6.8130  -19.2129   26.5596 N   0  0  0  0  0  0  0  0  0  0  0  0
    6.9225  -16.9700   25.7769 C   0  0  0  0  0  0  0  0  0  0  0  0
    6.3749  -17.4281   24.7725 O   0  0  0  0  0  0  0  0  0  0  0  0
    6.2242  -11.8851   26.7196 C   0  0  0  0  0  0  0  0  0  0  0  0
    6.0468  -13.0762   25.7561 C   0  0  0  0  0  0  0  0  0  0  0  0
    7.3847  -13.4273   25.1654 C   0  0  2  0  0  0  0  0  0  0  0  0
    7.7596  -12.3148   24.2289 C   0  0  0  0  0  0  0  0  0  0  0  0
    7.6189  -14.7948   24.7355 C   0  0  2  0  0  0  0  0  0  0  0  0
    7.5369  -15.6757   25.8773 N   0  0  0  0  0  0  0  0  0  0  0  0
    8.7962  -15.1583   23.9442 C   0  0  0  0  0  0  0  0  0  0  0  0
    9.0596  -14.4733   22.9204 O   0  0  0  0  0  0  0  0  0  0  0  0
   12.0466  -14.0512   19.7415 N   0  0  0  0  0  0  0  0  0  0  0  0
   10.9632  -14.9362   19.9004 C   0  0  0  0  0  0  0  0  0  0  0  0
    9.9960  -14.8334   19.0608 O   0  0  0  0  0  0  0  0  0  0  0  0
   10.9152  -15.9559   20.9737 C   0  0  0  0  0  0  0  0  0  0  0  0
   10.8722  -15.3460   22.3265 C   0  0  0  0  0  0  0  0  0  0  0  0
   10.9290  -16.3165   23.4467 C   0  0  2  0  0  0  0  0  0  0  0  0
    9.6705  -16.2145   24.2283 N   0  0  0  0  0  0  0  0  0  0  0  0
   12.0096  -16.2778   24.4053 C   0  0  0  0  0  0  0  0  0  0  0  0
   11.9056  -15.5620   25.5839 O   0  0  0  0  0  0  0  0  0  0  0  0
   13.0835  -16.8872   24.1926 O   0  0  0  0  0  0  0  0  0  0  0  0
  2  1  1  0
  3  2  1  0
  4  5  1  0
  4  3  1  0
  5  7  1  0
  5  6  1  6
  7  8  2  0
  7 14  1  0
 10  9  1  0
 11 12  1  6
 11 10  1  0
 13 11  1  0
 13 14  1  1
 15 13  1  0
 15 16  2  0
 17 18  1  0
 18 20  1  0
 18 19  2  0
 20 21  1  0
 22 21  1  6
 22 23  1  0
 23 15  1  0
 24 22  1  0
 25 24  1  0
 26 24  2  0
M  END
$$$$
