MIQ.pdb
     RDKit          3D

 26 25  0  0  1  0  0  0  0  0999 V2000
    5.3582  -12.2869   26.7231 C   0  0  0  0  0  0  0  0  0  0  0  0
    6.8566  -13.1098   27.2767 S   0  0  0  0  0  0  0  0  0  0  0  0
    6.7093  -14.8807   27.4013 C   0  0  0  0  0  0  0  0  0  0  0  0
    7.3394  -15.6686   26.2995 C   0  0  0  0  0  0  0  0  0  0  0  0
    6.4340  -16.0529   25.1786 C   0  0  2  0  0  0  0  0  0  0  0  0
    5.7582  -17.3071   25.4022 N   0  0  0  0  0  0  0  0  0  0  0  0
    7.3303  -16.2381   23.9735 C   0  0  0  0  0  0  0  0  0  0  0  0
    7.6067  -17.3955   23.6534 O   0  0  0  0  0  0  0  0  0  0  0  0
    7.0500  -11.9834   20.5644 C   0  0  0  0  0  0  0  0  0  0  0  0
    6.9954  -13.4482   21.0442 C   0  0  0  0  0  0  0  0  0  0  0  0
    8.3961  -13.9230   21.3173 C   0  0  2  0  0  0  0  0  0  0  0  0
    9.1688  -13.7786   20.0378 C   0  0  0  0  0  0  0  0  0  0  0  0
    8.5812  -15.1336   22.0983 C   0  0  2  0  0  0  0  0  0  0  0  0
    7.7853  -15.0534   23.3009 N   0  0  0  0  0  0  0  0  0  0  0  0
    9.9162  -15.6225   22.4493 C   0  0  0  0  0  0  0  0  0  0  0  0
   10.3809  -15.3230   23.5812 O   0  0  0  0  0  0  0  0  0  0  0  0
   13.8401  -21.7703   21.8738 N   0  0  0  0  0  0  0  0  0  0  0  0
   12.9018  -20.7678   21.5626 C   0  0  0  0  0  0  0  0  0  0  0  0
   12.0039  -21.0576   20.6904 O   0  0  0  0  0  0  0  0  0  0  0  0
   12.9189  -19.4313   22.2011 C   0  0  0  0  0  0  0  0  0  0  0  0
   11.8536  -18.5427   21.6725 C   0  0  0  0  0  0  0  0  0  0  0  0
   11.8325  -17.1814   22.2611 C   0  0  2  0  0  0  0  0  0  0  0  0
   10.7352  -16.4067   21.6278 N   0  0  0  0  0  0  0  0  0  0  0  0
   13.0054  -16.3384   22.2184 C   0  0  0  0  0  0  0  0  0  0  0  0
   14.0023  -16.4376   23.1715 O   0  0  0  0  0  0  0  0  0  0  0  0
   13.1514  -15.4806   21.3169 O   0  0  0  0  0  0  0  0  0  0  0  0
  2  1  1  0
  3  2  1  0
  4  5  1  0
  4  3  1  0
  5  7  1  0
  5  6  1  1
  7  8  2  0
  7 14  1  0
 10  9  1  0
 11 12  1  6
 11 10  1  0
 13 11  1  0
 13 14  1  1
 15 13  1  0
 15 16  2  0
 17 18  1  0
 18 20  1  0
 18 19  2  0
 20 21  1  0
 22 21  1  6
 22 23  1  0
 23 15  1  0
 24 22  1  0
 25 24  1  0
 26 24  2  0
M  END
$$$$
