MIQ.pdb
     RDKit          3D

 26 25  0  0  1  0  0  0  0  0999 V2000
    4.9706  -19.4930   21.8171 C   0  0  0  0  0  0  0  0  0  0  0  0
    5.8124  -18.9807   20.3146 S   0  0  0  0  0  0  0  0  0  0  0  0
    6.2307  -17.2497   20.2702 C   0  0  0  0  0  0  0  0  0  0  0  0
    6.9227  -16.7128   21.4805 C   0  0  0  0  0  0  0  0  0  0  0  0
    7.1997  -15.2475   21.4714 C   0  0  2  0  0  0  0  0  0  0  0  0
    7.9874  -14.8279   20.3387 N   0  0  0  0  0  0  0  0  0  0  0  0
    8.0240  -14.9791   22.7117 C   0  0  0  0  0  0  0  0  0  0  0  0
    9.2493  -15.0343   22.5928 O   0  0  0  0  0  0  0  0  0  0  0  0
    6.0667  -11.3076   26.1653 C   0  0  0  0  0  0  0  0  0  0  0  0
    6.9823  -12.1343   25.2396 C   0  0  0  0  0  0  0  0  0  0  0  0
    7.3295  -13.4263   25.9267 C   0  0  2  0  0  0  0  0  0  0  0  0
    7.8610  -13.0745   27.2865 C   0  0  0  0  0  0  0  0  0  0  0  0
    8.0158  -14.4566   25.1669 C   0  0  2  0  0  0  0  0  0  0  0  0
    7.3143  -14.6818   23.9244 N   0  0  0  0  0  0  0  0  0  0  0  0
    8.3490  -15.7530   25.7608 C   0  0  0  0  0  0  0  0  0  0  0  0
    7.4063  -16.5439   26.0302 O   0  0  0  0  0  0  0  0  0  0  0  0
   11.7535  -19.8509   23.4778 N   0  0  0  0  0  0  0  0  0  0  0  0
   12.3053  -18.6228   23.8894 C   0  0  0  0  0  0  0  0  0  0  0  0
   13.3281  -18.1944   23.2403 O   0  0  0  0  0  0  0  0  0  0  0  0
   11.7492  -17.8332   25.0125 C   0  0  0  0  0  0  0  0  0  0  0  0
   10.4734  -18.3986   25.5190 C   0  0  0  0  0  0  0  0  0  0  0  0
    9.8074  -17.5865   26.5664 C   0  0  2  0  0  0  0  0  0  0  0  0
    9.6417  -16.2006   26.0596 N   0  0  0  0  0  0  0  0  0  0  0  0
   10.3784  -17.4724   27.8889 C   0  0  0  0  0  0  0  0  0  0  0  0
   10.6339  -18.5880   28.6651 O   0  0  0  0  0  0  0  0  0  0  0  0
   10.6523  -16.3525   28.3795 O   0  0  0  0  0  0  0  0  0  0  0  0
  2  1  1  0
  3  2  1  0
  4  5  1  0
  4  3  1  0
  5  7  1  0
  5  6  1  6
  7  8  2  0
  7 14  1  0
 10  9  1  0
 11 12  1  1
 11 10  1  0
 13 11  1  0
 13 14  1  6
 15 13  1  0
 15 16  2  0
 17 18  1  0
 18 20  1  0
 18 19  2  0
 20 21  1  0
 22 21  1  6
 22 23  1  0
 23 15  1  0
 24 22  1  0
 25 24  1  0
 26 24  2  0
M  END
$$$$
