MIQ.pdb
     RDKit          3D

 26 25  0  0  1  0  0  0  0  0999 V2000
    8.3540  -11.3230   20.0345 C   0  0  0  0  0  0  0  0  0  0  0  0
    7.7035  -12.4891   18.8321 S   0  0  0  0  0  0  0  0  0  0  0  0
    7.5089  -14.1455   19.4579 C   0  0  0  0  0  0  0  0  0  0  0  0
    7.3095  -14.2680   20.9334 C   0  0  0  0  0  0  0  0  0  0  0  0
    7.8064  -15.5309   21.5513 C   0  0  2  0  0  0  0  0  0  0  0  0
    6.7450  -16.4284   21.9355 N   0  0  0  0  0  0  0  0  0  0  0  0
    8.5183  -15.1135   22.8198 C   0  0  0  0  0  0  0  0  0  0  0  0
    9.6615  -14.6692   22.7003 O   0  0  0  0  0  0  0  0  0  0  0  0
    6.0167  -12.1203   26.1937 C   0  0  0  0  0  0  0  0  0  0  0  0
    7.1154  -12.7872   25.3412 C   0  0  0  0  0  0  0  0  0  0  0  0
    7.6035  -14.0185   26.0536 C   0  0  2  0  0  0  0  0  0  0  0  0
    8.0534  -13.5888   27.4204 C   0  0  0  0  0  0  0  0  0  0  0  0
    8.4310  -14.9632   25.3239 C   0  0  2  0  0  0  0  0  0  0  0  0
    7.8064  -15.2676   24.0576 N   0  0  0  0  0  0  0  0  0  0  0  0
    8.8887  -16.2127   25.9353 C   0  0  0  0  0  0  0  0  0  0  0  0
    8.0281  -17.0905   26.2105 O   0  0  0  0  0  0  0  0  0  0  0  0
   13.6385  -18.4513   24.1017 N   0  0  0  0  0  0  0  0  0  0  0  0
   12.3211  -18.6893   23.6660 C   0  0  0  0  0  0  0  0  0  0  0  0
   12.1371  -18.8143   22.4005 O   0  0  0  0  0  0  0  0  0  0  0  0
   11.1782  -18.8029   24.6016 C   0  0  0  0  0  0  0  0  0  0  0  0
   11.5685  -18.5086   26.0033 C   0  0  0  0  0  0  0  0  0  0  0  0
   10.5112  -17.8632   26.8192 C   0  0  2  0  0  0  0  0  0  0  0  0
   10.2179  -16.5255   26.2450 N   0  0  0  0  0  0  0  0  0  0  0  0
   10.6883  -17.6682   28.2400 C   0  0  0  0  0  0  0  0  0  0  0  0
   10.7308  -18.7367   29.1168 O   0  0  0  0  0  0  0  0  0  0  0  0
   10.8000  -16.5183   28.7249 O   0  0  0  0  0  0  0  0  0  0  0  0
  2  1  1  0
  3  2  1  0
  4  5  1  0
  4  3  1  0
  5  7  1  0
  5  6  1  1
  7  8  2  0
  7 14  1  0
 10  9  1  0
 11 12  1  1
 11 10  1  0
 13 11  1  0
 13 14  1  6
 15 13  1  0
 15 16  2  0
 17 18  1  0
 18 20  1  0
 18 19  2  0
 20 21  1  0
 22 21  1  6
 22 23  1  0
 23 15  1  0
 24 22  1  0
 25 24  1  0
 26 24  2  0
M  END
$$$$
