MIQ.pdb
     RDKit          3D

 26 25  0  0  1  0  0  0  0  0999 V2000
    8.2551  -11.2210   19.2459 C   0  0  0  0  0  0  0  0  0  0  0  0
    7.2747  -12.5321   18.5053 S   0  0  0  0  0  0  0  0  0  0  0  0
    7.3807  -14.0907   19.3612 C   0  0  0  0  0  0  0  0  0  0  0  0
    8.0366  -14.0568   20.7031 C   0  0  0  0  0  0  0  0  0  0  0  0
    8.0658  -15.3515   21.4425 C   0  0  2  0  0  0  0  0  0  0  0  0
    6.7550  -15.9186   21.6420 N   0  0  0  0  0  0  0  0  0  0  0  0
    8.6250  -15.0287   22.8111 C   0  0  0  0  0  0  0  0  0  0  0  0
    9.8002  -14.6618   22.8639 O   0  0  0  0  0  0  0  0  0  0  0  0
    5.8477  -11.9422   25.8311 C   0  0  0  0  0  0  0  0  0  0  0  0
    7.0547  -12.6431   25.1752 C   0  0  0  0  0  0  0  0  0  0  0  0
    7.3220  -13.9327   25.9015 C   0  0  2  0  0  0  0  0  0  0  0  0
    7.5528  -13.5872   27.3446 C   0  0  0  0  0  0  0  0  0  0  0  0
    8.1969  -14.9127   25.2818 C   0  0  2  0  0  0  0  0  0  0  0  0
    7.7436  -15.1749   23.9356 N   0  0  0  0  0  0  0  0  0  0  0  0
    8.5011  -16.1886   25.9328 C   0  0  0  0  0  0  0  0  0  0  0  0
    7.6753  -17.1317   25.8087 O   0  0  0  0  0  0  0  0  0  0  0  0
    9.4229  -19.9951   23.5848 N   0  0  0  0  0  0  0  0  0  0  0  0
   10.6098  -20.3458   24.2561 C   0  0  0  0  0  0  0  0  0  0  0  0
   11.0058  -21.5632   24.1467 O   0  0  0  0  0  0  0  0  0  0  0  0
   11.3931  -19.3747   25.0546 C   0  0  0  0  0  0  0  0  0  0  0  0
   10.6725  -18.0902   25.2411 C   0  0  0  0  0  0  0  0  0  0  0  0
   10.2244  -17.8263   26.6302 C   0  0  2  0  0  0  0  0  0  0  0  0
    9.6462  -16.4598   26.6916 N   0  0  0  0  0  0  0  0  0  0  0  0
   11.1467  -17.9299   27.7377 C   0  0  0  0  0  0  0  0  0  0  0  0
   11.4927  -19.1547   28.2785 O   0  0  0  0  0  0  0  0  0  0  0  0
   11.6568  -16.9071   28.2510 O   0  0  0  0  0  0  0  0  0  0  0  0
  2  1  1  0
  3  2  1  0
  4  5  1  0
  4  3  1  0
  5  7  1  0
  5  6  1  1
  7  8  2  0
  7 14  1  0
 10  9  1  0
 11 12  1  1
 11 10  1  0
 13 11  1  0
 13 14  1  6
 15 13  1  0
 15 16  2  0
 17 18  1  0
 18 20  1  0
 18 19  2  0
 20 21  1  0
 22 21  1  6
 22 23  1  0
 23 15  1  0
 24 22  1  0
 25 24  1  0
 26 24  2  0
M  END
$$$$
