NRS.pdb
     RDKit          3D

 26 25  0  0  1  0  0  0  0  0999 V2000
   25.0498  -14.2207  -15.4763 N   0  0  0  0  0  0  0  0  0  0  0  0
   24.7191  -13.7913  -16.7845 C   0  0  0  0  0  0  0  0  0  0  0  0
   25.0565  -14.5852  -17.7149 O   0  0  0  0  0  0  0  0  0  0  0  0
   24.0424  -12.5467  -17.1444 C   0  0  0  0  0  0  0  0  0  0  0  0
   23.7153  -11.7479  -15.9331 C   0  0  2  0  0  0  0  0  0  0  0  0
   22.7702  -12.3722  -15.0534 N   0  0  0  0  0  0  0  0  0  0  0  0
   23.1323  -10.4402  -16.4114 C   0  0  0  0  0  0  0  0  0  0  0  0
   23.8193   -9.6367  -17.0884 O   0  0  0  0  0  0  0  0  0  0  0  0
   16.7470   -7.2472  -14.1169 N   0  0  0  0  0  0  0  0  0  0  0  0
   16.2441   -6.5518  -15.3071 C   0  0  0  0  0  0  0  0  0  0  0  0
   15.4054   -5.6186  -15.1786 N   0  0  0  0  0  0  0  0  0  0  0  0
   16.7058   -6.9301  -16.5797 N   0  0  0  0  0  0  0  0  0  0  0  0
   17.5276   -8.0348  -16.8995 C   0  0  0  0  0  0  0  0  0  0  0  0
   19.0034   -7.8227  -17.0181 C   0  0  0  0  0  0  0  0  0  0  0  0
   19.7328   -9.0284  -16.4654 C   0  0  0  0  0  0  0  0  0  0  0  0
   21.2070   -8.8838  -16.5824 C   0  0  2  0  0  0  0  0  0  0  0  0
   21.8062  -10.1105  -16.1001 N   0  0  0  0  0  0  0  0  0  0  0  0
   21.7021   -7.7914  -15.6483 C   0  0  0  0  0  0  0  0  0  0  0  0
   21.9043   -8.0602  -14.4366 O   0  0  0  0  0  0  0  0  0  0  0  0
   14.9281   -5.0974  -15.8686 O   0  0  0  0  0  0  0  0  0  0  0  0
   23.2598   -3.1927  -15.4018 C   0  0  0  0  0  0  0  0  0  0  0  0
   22.7487   -4.2069  -16.1839 C   0  0  1  0  0  0  0  0  0  0  0  0
   22.5144   -5.4485  -15.3528 N   0  0  0  0  0  0  0  0  0  0  0  0
   21.9213   -6.5014  -16.1721 C   0  0  0  0  0  0  0  0  0  0  0  0
   21.6594   -5.1824  -14.1808 O   0  0  0  0  0  0  0  0  0  0  0  0
   22.2421   -4.9392  -12.9565 O   0  0  0  0  0  0  0  0  0  0  0  0
  2  1  1  0
  3  2  2  0
  4  2  1  0
  5  4  1  0
  5  6  1  1
  7  5  1  0
  7  8  2  0
  9 10  1  0
 10 12  1  0
 11 10  2  0
 12 13  1  0
 13 14  1  0
 16 15  1  1
 15 14  1  0
 16 17  1  0
 17  7  1  0
 18 16  1  0
 19 18  2  0
 20 21  1  0
 22 21  1  6
 22 24  1  0
 22 23  1  0
 23 18  1  0
 24 25  1  0
 26 24  2  0
M  END
$$$$
