NRS.pdb
     RDKit          3D

 26 25  0  0  1  0  0  0  0  0999 V2000
   29.9379  -27.4208  -18.1464 N   0  0  0  0  0  0  0  0  0  0  0  0
   28.7659  -27.7418  -17.4194 C   0  0  0  0  0  0  0  0  0  0  0  0
   28.6487  -28.9630  -17.0957 O   0  0  0  0  0  0  0  0  0  0  0  0
   27.7094  -26.8132  -17.0221 C   0  0  0  0  0  0  0  0  0  0  0  0
   28.0973  -25.4073  -17.3141 C   0  0  2  0  0  0  0  0  0  0  0  0
   29.2505  -24.9526  -16.5929 N   0  0  0  0  0  0  0  0  0  0  0  0
   26.9227  -24.5380  -16.9355 C   0  0  0  0  0  0  0  0  0  0  0  0
   25.7625  -24.8146  -17.3271 O   0  0  0  0  0  0  0  0  0  0  0  0
   26.1431  -20.7452   -9.2601 N   0  0  0  0  0  0  0  0  0  0  0  0
   24.7822  -20.9586   -9.7655 C   0  0  0  0  0  0  0  0  0  0  0  0
   23.7938  -20.7324   -9.0152 N   0  0  0  0  0  0  0  0  0  0  0  0
   24.5931  -21.4092  -11.0834 N   0  0  0  0  0  0  0  0  0  0  0  0
   25.5535  -21.4541  -12.1196 C   0  0  0  0  0  0  0  0  0  0  0  0
   25.1415  -21.9748  -13.4599 C   0  0  0  0  0  0  0  0  0  0  0  0
   26.3469  -22.0258  -14.3740 C   0  0  0  0  0  0  0  0  0  0  0  0
   26.0058  -22.5863  -15.7072 C   0  0  2  0  0  0  0  0  0  0  0  0
   27.1211  -23.4043  -16.1357 N   0  0  0  0  0  0  0  0  0  0  0  0
   25.8990  -21.4697  -16.7333 C   0  0  0  0  0  0  0  0  0  0  0  0
   26.9346  -20.8430  -17.0736 O   0  0  0  0  0  0  0  0  0  0  0  0
   22.8281  -20.8411   -9.1911 O   0  0  0  0  0  0  0  0  0  0  0  0
   22.1089  -20.3242  -18.2992 C   0  0  0  0  0  0  0  0  0  0  0  0
   23.2308  -20.3594  -19.1001 C   0  0  1  0  0  0  0  0  0  0  0  0
   24.4760  -20.1172  -18.2768 N   0  0  0  0  0  0  0  0  0  0  0  0
   24.6336  -21.1688  -17.2763 C   0  0  0  0  0  0  0  0  0  0  0  0
   24.4626  -18.7968  -17.6196 O   0  0  0  0  0  0  0  0  0  0  0  0
   24.7027  -17.6644  -18.3663 O   0  0  0  0  0  0  0  0  0  0  0  0
  2  1  1  0
  3  2  2  0
  4  2  1  0
  5  4  1  0
  5  6  1  1
  7  5  1  0
  7  8  2  0
  9 10  1  0
 10 12  1  0
 11 10  2  0
 12 13  1  0
 13 14  1  0
 16 15  1  1
 15 14  1  0
 16 17  1  0
 17  7  1  0
 18 16  1  0
 19 18  2  0
 20 21  1  0
 22 21  1  6
 22 24  1  0
 22 23  1  0
 23 18  1  0
 24 25  1  0
 26 24  2  0
M  END
$$$$
