NRS.pdb
     RDKit          3D

 26 25  0  0  1  0  0  0  0  0999 V2000
   27.7619  -15.2516  -16.1777 N   0  0  0  0  0  0  0  0  0  0  0  0
   26.4272  -14.9963  -15.7795 C   0  0  0  0  0  0  0  0  0  0  0  0
   26.2203  -13.8435  -15.2917 O   0  0  0  0  0  0  0  0  0  0  0  0
   25.2998  -15.9213  -15.8787 C   0  0  0  0  0  0  0  0  0  0  0  0
   25.7425  -17.2499  -16.3800 C   0  0  2  0  0  0  0  0  0  0  0  0
   26.0803  -17.2708  -17.7737 N   0  0  0  0  0  0  0  0  0  0  0  0
   24.6013  -18.2107  -16.1498 C   0  0  0  0  0  0  0  0  0  0  0  0
   23.7669  -18.4508  -17.0564 O   0  0  0  0  0  0  0  0  0  0  0  0
   23.5265  -25.1036  -16.3633 N   0  0  0  0  0  0  0  0  0  0  0  0
   24.5949  -24.5987  -15.4934 C   0  0  0  0  0  0  0  0  0  0  0  0
   25.7705  -25.0350  -15.6289 N   0  0  0  0  0  0  0  0  0  0  0  0
   24.2981  -23.6294  -14.5196 N   0  0  0  0  0  0  0  0  0  0  0  0
   23.0699  -22.9570  -14.3265 C   0  0  0  0  0  0  0  0  0  0  0  0
   22.9959  -21.8768  -13.2946 C   0  0  0  0  0  0  0  0  0  0  0  0
   23.9883  -20.7853  -13.6343 C   0  0  0  0  0  0  0  0  0  0  0  0
   23.4821  -19.8939  -14.7100 C   0  0  2  0  0  0  0  0  0  0  0  0
   24.4638  -18.8484  -14.9093 N   0  0  0  0  0  0  0  0  0  0  0  0
   22.2171  -19.1859  -14.2519 C   0  0  0  0  0  0  0  0  0  0  0  0
   22.2075  -18.5966  -13.1411 O   0  0  0  0  0  0  0  0  0  0  0  0
   26.5928  -24.8021  -15.1340 O   0  0  0  0  0  0  0  0  0  0  0  0
   19.0101  -18.8350  -16.9028 C   0  0  0  0  0  0  0  0  0  0  0  0
   19.1764  -17.9180  -15.8865 C   0  0  1  0  0  0  0  0  0  0  0  0
   19.8380  -18.5674  -14.6916 N   0  0  0  0  0  0  0  0  0  0  0  0
   21.0856  -19.2113  -15.0919 C   0  0  0  0  0  0  0  0  0  0  0  0
   18.9567  -19.5476  -14.0299 O   0  0  0  0  0  0  0  0  0  0  0  0
   17.8449  -19.1078  -13.3457 O   0  0  0  0  0  0  0  0  0  0  0  0
  2  1  1  0
  3  2  2  0
  4  2  1  0
  5  4  1  0
  5  6  1  6
  7  5  1  0
  7  8  2  0
  9 10  1  0
 10 12  1  0
 11 10  2  0
 12 13  1  0
 13 14  1  0
 16 15  1  1
 15 14  1  0
 16 17  1  0
 17  7  1  0
 18 16  1  0
 19 18  2  0
 20 21  1  0
 22 21  1  1
 22 24  1  0
 22 23  1  0
 23 18  1  0
 24 25  1  0
 26 24  2  0
M  END
$$$$
