NRS.pdb
     RDKit          3D

 26 25  0  0  1  0  0  0  0  0999 V2000
   26.1000  -20.1170  -14.0064 N   0  0  0  0  0  0  0  0  0  0  0  0
   25.5959  -20.7755  -15.1542 C   0  0  0  0  0  0  0  0  0  0  0  0
   26.4702  -21.1209  -16.0063 O   0  0  0  0  0  0  0  0  0  0  0  0
   24.1943  -21.0819  -15.4335 C   0  0  0  0  0  0  0  0  0  0  0  0
   23.3181  -20.6363  -14.3173 C   0  0  2  0  0  0  0  0  0  0  0  0
   23.5671  -21.3017  -13.0714 N   0  0  0  0  0  0  0  0  0  0  0  0
   21.8950  -20.9181  -14.7342 C   0  0  0  0  0  0  0  0  0  0  0  0
   21.4335  -20.4572  -15.8068 O   0  0  0  0  0  0  0  0  0  0  0  0
   16.6030  -23.6431   -9.1631 N   0  0  0  0  0  0  0  0  0  0  0  0
   16.2006  -24.2033  -10.4582 C   0  0  0  0  0  0  0  0  0  0  0  0
   14.9974  -24.5279  -10.6526 N   0  0  0  0  0  0  0  0  0  0  0  0
   17.1602  -24.3688  -11.4720 N   0  0  0  0  0  0  0  0  0  0  0  0
   18.5500  -24.1269  -11.3838 C   0  0  0  0  0  0  0  0  0  0  0  0
   19.1093  -22.9015  -12.0342 C   0  0  0  0  0  0  0  0  0  0  0  0
   19.2198  -23.1280  -13.5268 C   0  0  0  0  0  0  0  0  0  0  0  0
   19.6725  -21.9050  -14.2390 C   0  0  2  0  0  0  0  0  0  0  0  0
   21.0702  -21.7047  -13.9185 N   0  0  0  0  0  0  0  0  0  0  0  0
   18.9486  -20.6838  -13.6952 C   0  0  0  0  0  0  0  0  0  0  0  0
   19.5540  -19.9030  -12.9173 O   0  0  0  0  0  0  0  0  0  0  0  0
   14.5750  -24.9493  -11.4396 O   0  0  0  0  0  0  0  0  0  0  0  0
   17.6418  -17.7302  -16.5049 C   0  0  0  0  0  0  0  0  0  0  0  0
   17.9854  -18.9486  -15.9583 C   0  0  2  0  0  0  0  0  0  0  0  0
   17.2046  -19.1969  -14.6872 N   0  0  0  0  0  0  0  0  0  0  0  0
   17.6116  -20.4618  -14.0822 C   0  0  0  0  0  0  0  0  0  0  0  0
   15.7478  -19.1964  -14.9179 O   0  0  0  0  0  0  0  0  0  0  0  0
   14.9851  -18.1536  -14.4401 O   0  0  0  0  0  0  0  0  0  0  0  0
  2  1  1  0
  3  2  2  0
  4  2  1  0
  5  4  1  0
  5  6  1  1
  7  5  1  0
  7  8  2  0
  9 10  1  0
 10 12  1  0
 11 10  2  0
 12 13  1  0
 13 14  1  0
 16 15  1  1
 15 14  1  0
 16 17  1  0
 17  7  1  0
 18 16  1  0
 19 18  2  0
 20 21  1  0
 22 21  1  1
 22 24  1  0
 22 23  1  0
 23 18  1  0
 24 25  1  0
 26 24  2  0
M  END
$$$$
