NRS.pdb
     RDKit          3D

 26 25  0  0  1  0  0  0  0  0999 V2000
   31.4562  -23.3220  -10.5835 N   0  0  0  0  0  0  0  0  0  0  0  0
   31.3930  -21.9926  -10.0997 C   0  0  0  0  0  0  0  0  0  0  0  0
   32.4202  -21.5984   -9.4679 O   0  0  0  0  0  0  0  0  0  0  0  0
   30.2769  -21.0626  -10.2607 C   0  0  0  0  0  0  0  0  0  0  0  0
   29.1702  -21.6863  -11.0344 C   0  0  2  0  0  0  0  0  0  0  0  0
   29.5455  -22.1307  -12.3453 N   0  0  0  0  0  0  0  0  0  0  0  0
   28.0877  -20.6436  -11.1743 C   0  0  0  0  0  0  0  0  0  0  0  0
   27.5781  -20.1027  -10.1625 O   0  0  0  0  0  0  0  0  0  0  0  0
   24.6845  -19.3967  -18.1507 N   0  0  0  0  0  0  0  0  0  0  0  0
   24.1057  -18.1029  -17.7710 C   0  0  0  0  0  0  0  0  0  0  0  0
   23.0421  -17.7077  -18.3218 N   0  0  0  0  0  0  0  0  0  0  0  0
   24.7407  -17.3179  -16.7930 N   0  0  0  0  0  0  0  0  0  0  0  0
   25.8192  -17.6938  -15.9602 C   0  0  0  0  0  0  0  0  0  0  0  0
   25.5220  -18.3780  -14.6638 C   0  0  0  0  0  0  0  0  0  0  0  0
   26.8105  -18.5907  -13.8983 C   0  0  0  0  0  0  0  0  0  0  0  0
   26.5784  -19.2962  -12.6113 C   0  0  2  0  0  0  0  0  0  0  0  0
   27.6394  -20.2679  -12.4479 N   0  0  0  0  0  0  0  0  0  0  0  0
   25.2916  -20.1028  -12.6806 C   0  0  0  0  0  0  0  0  0  0  0  0
   25.1895  -21.0310  -13.5227 O   0  0  0  0  0  0  0  0  0  0  0  0
   22.5309  -16.8738  -18.1851 O   0  0  0  0  0  0  0  0  0  0  0  0
   21.0927  -21.0425  -10.4476 C   0  0  0  0  0  0  0  0  0  0  0  0
   22.2070  -20.2344  -10.5298 C   0  0  2  0  0  0  0  0  0  0  0  0
   23.0210  -20.5795  -11.7567 N   0  0  0  0  0  0  0  0  0  0  0  0
   24.2447  -19.7839  -11.7924 C   0  0  0  0  0  0  0  0  0  0  0  0
   22.2592  -20.3854  -13.0047 O   0  0  0  0  0  0  0  0  0  0  0  0
   21.5250  -21.4302  -13.5214 O   0  0  0  0  0  0  0  0  0  0  0  0
  2  1  1  0
  3  2  2  0
  4  2  1  0
  5  4  1  0
  5  6  1  6
  7  5  1  0
  7  8  2  0
  9 10  1  0
 10 12  1  0
 11 10  2  0
 12 13  1  0
 13 14  1  0
 16 15  1  6
 15 14  1  0
 16 17  1  0
 17  7  1  0
 18 16  1  0
 19 18  2  0
 20 21  1  0
 22 21  1  1
 22 24  1  0
 22 23  1  0
 23 18  1  0
 24 25  1  0
 26 24  2  0
M  END
$$$$
