NRS.pdb
     RDKit          3D

 26 25  0  0  1  0  0  0  0  0999 V2000
   16.3272  -14.0500  -14.2097 N   0  0  0  0  0  0  0  0  0  0  0  0
   16.9051  -13.0642  -15.0459 C   0  0  0  0  0  0  0  0  0  0  0  0
   16.1985  -12.7188  -16.0415 O   0  0  0  0  0  0  0  0  0  0  0  0
   18.2093  -12.4293  -14.8658 C   0  0  0  0  0  0  0  0  0  0  0  0
   18.4051  -11.3259  -15.8438 C   0  0  2  0  0  0  0  0  0  0  0  0
   18.6190  -11.7652  -17.1922 N   0  0  0  0  0  0  0  0  0  0  0  0
   19.6193  -10.5493  -15.3952 C   0  0  0  0  0  0  0  0  0  0  0  0
   19.6561  -10.0058  -14.2642 O   0  0  0  0  0  0  0  0  0  0  0  0
   27.8049  -10.6417  -18.8718 N   0  0  0  0  0  0  0  0  0  0  0  0
   27.8205   -9.5167  -17.9299 C   0  0  0  0  0  0  0  0  0  0  0  0
   28.8648   -8.8205  -17.8046 N   0  0  0  0  0  0  0  0  0  0  0  0
   26.6691   -9.2231  -17.1791 N   0  0  0  0  0  0  0  0  0  0  0  0
   25.3842   -9.7945  -17.3224 C   0  0  0  0  0  0  0  0  0  0  0  0
   24.2697   -9.2817  -16.4666 C   0  0  0  0  0  0  0  0  0  0  0  0
   23.0241  -10.1060  -16.7126 C   0  0  0  0  0  0  0  0  0  0  0  0
   21.8936   -9.6683  -15.8534 C   0  0  2  0  0  0  0  0  0  0  0  0
   20.7257  -10.4284  -16.2470 N   0  0  0  0  0  0  0  0  0  0  0  0
   21.5511   -8.2147  -16.1384 C   0  0  0  0  0  0  0  0  0  0  0  0
   21.1251   -7.8927  -17.2768 O   0  0  0  0  0  0  0  0  0  0  0  0
   29.0399   -8.0418  -17.2229 O   0  0  0  0  0  0  0  0  0  0  0  0
   20.4579   -5.5870  -13.1666 C   0  0  0  0  0  0  0  0  0  0  0  0
   20.1955   -5.4591  -14.5143 C   0  0  1  0  0  0  0  0  0  0  0  0
   21.4062   -5.8568  -15.3287 N   0  0  0  0  0  0  0  0  0  0  0  0
   21.7223   -7.2654  -15.1107 C   0  0  0  0  0  0  0  0  0  0  0  0
   22.5841   -5.0243  -15.0206 O   0  0  0  0  0  0  0  0  0  0  0  0
   23.7219   -5.6170  -14.5189 O   0  0  0  0  0  0  0  0  0  0  0  0
  2  1  1  0
  3  2  2  0
  4  2  1  0
  5  4  1  0
  5  6  1  6
  7  5  1  0
  7  8  2  0
  9 10  1  0
 10 12  1  0
 11 10  2  0
 12 13  1  0
 13 14  1  0
 16 15  1  6
 15 14  1  0
 16 17  1  0
 17  7  1  0
 18 16  1  0
 19 18  2  0
 20 21  1  0
 22 21  1  6
 22 24  1  0
 22 23  1  0
 23 18  1  0
 24 25  1  0
 26 24  2  0
M  END
$$$$
