MWY.pdb
     RDKit          3D

 35 37  0  0  1  0  0  0  0  0999 V2000
    7.6517  -11.7923   18.8647 C   0  0  0  0  0  0  0  0  0  0  0  0
    7.4126  -13.3073   17.8700 S   0  0  0  0  0  0  0  0  0  0  0  0
    6.6594  -14.5557   18.9424 C   0  0  0  0  0  0  0  0  0  0  0  0
    7.3401  -14.4286   20.2947 C   0  0  0  0  0  0  0  0  0  0  0  0
    8.3969  -15.5214   20.4398 C   0  0  2  0  0  0  0  0  0  0  0  0
    7.7158  -16.8190   20.5906 N   0  0  0  0  0  0  0  0  0  0  0  0
    9.0994  -15.2530   21.7193 C   0  0  0  0  0  0  0  0  0  0  0  0
    9.8282  -14.2363   21.8123 O   0  0  0  0  0  0  0  0  0  0  0  0
    8.9577  -16.1134   22.8279 N   0  0  0  0  0  0  0  0  0  0  0  0
    9.8147  -15.7314   24.0233 C   0  0  1  0  0  0  0  0  0  0  0  0
    8.9530  -16.1147   25.1666 C   0  0  0  0  0  0  0  0  0  0  0  0
    7.7039  -15.3579   25.2311 C   0  0  0  0  0  0  0  0  0  0  0  0
    6.4091  -15.8326   25.0927 C   0  0  0  0  0  0  0  0  0  0  0  0
    5.5898  -14.8150   25.2968 N   0  0  0  0  0  0  0  0  0  0  0  0
    6.2900  -13.6984   25.5627 C   0  0  0  0  0  0  0  0  0  0  0  0
    5.9304  -12.3966   25.8624 C   0  0  0  0  0  0  0  0  0  0  0  0
    6.9206  -11.4732   26.1133 C   0  0  0  0  0  0  0  0  0  0  0  0
    8.2786  -11.7899   26.0788 C   0  0  0  0  0  0  0  0  0  0  0  0
    8.6172  -13.0881   25.7785 C   0  0  0  0  0  0  0  0  0  0  0  0
    7.6274  -14.0083   25.5287 C   0  0  0  0  0  0  0  0  0  0  0  0
   11.0438  -16.4747   23.8758 C   0  0  0  0  0  0  0  0  0  0  0  0
   10.8889  -17.6836   23.3733 O   0  0  0  0  0  0  0  0  0  0  0  0
   11.2213  -16.7507   31.7870 O   0  0  0  0  0  0  0  0  0  0  0  0
   11.3805  -16.4465   30.4474 C   0  0  0  0  0  0  0  0  0  0  0  0
   10.9394  -15.2265   29.9901 C   0  0  0  0  0  0  0  0  0  0  0  0
   11.0839  -14.8972   28.6613 C   0  0  0  0  0  0  0  0  0  0  0  0
   11.6619  -15.7478   27.7414 C   0  0  0  0  0  0  0  0  0  0  0  0
   11.7948  -15.3374   26.3474 C   0  0  0  0  0  0  0  0  0  0  0  0
   12.8046  -16.1412   25.5872 C   0  0  2  0  0  0  0  0  0  0  0  0
   12.3313  -16.1045   24.1818 N   0  0  0  0  0  0  0  0  0  0  0  0
   12.8913  -17.5349   26.0608 C   0  0  0  0  0  0  0  0  0  0  0  0
   11.8682  -18.4170   26.2630 O   0  0  0  0  0  0  0  0  0  0  0  0
   12.1017  -16.9669   28.2019 C   0  0  0  0  0  0  0  0  0  0  0  0
   11.9628  -17.3083   29.5359 C   0  0  0  0  0  0  0  0  0  0  0  0
   14.0709  -17.9902   26.3228 O   0  0  0  0  0  0  0  0  0  0  0  0
  2  1  1  0
  3  2  1  0
  4  3  1  0
  5  4  1  0
  5  6  1  1
  7  8  2  0
  7  5  1  0
  9  7  1  0
 10  9  1  0
 10 21  1  0
 10 11  1  1
 12 11  1  0
 13 12  2  0
 14 15  1  0
 14 13  1  0
 15 20  2  0
 16 17  2  0
 16 15  1  0
 17 18  1  0
 18 19  2  0
 20 19  1  0
 20 12  1  0
 21 30  1  0
 22 21  2  0
 23 24  1  0
 24 25  2  0
 24 34  1  0
 25 26  1  0
 26 27  2  0
 27 28  1  0
 29 28  1  1
 29 31  1  0
 30 29  1  0
 31 35  2  0
 31 32  1  0
 33 27  1  0
 34 33  2  0
M  END
$$$$
