MWY.pdb
     RDKit          3D

 35 37  0  0  1  0  0  0  0  0999 V2000
    8.0435  -18.1820   15.6959 C   0  0  0  0  0  0  0  0  0  0  0  0
    8.8728  -17.6713   17.2430 S   0  0  0  0  0  0  0  0  0  0  0  0
    7.9393  -16.2836   17.9347 C   0  0  0  0  0  0  0  0  0  0  0  0
    8.6584  -15.8737   19.2087 C   0  0  0  0  0  0  0  0  0  0  0  0
    7.6638  -15.2310   20.1730 C   0  0  2  0  0  0  0  0  0  0  0  0
    7.3006  -13.8995   19.6576 N   0  0  0  0  0  0  0  0  0  0  0  0
    8.3981  -15.0146   21.4444 C   0  0  0  0  0  0  0  0  0  0  0  0
    9.1430  -14.0113   21.5543 O   0  0  0  0  0  0  0  0  0  0  0  0
    8.2690  -15.9094   22.5270 N   0  0  0  0  0  0  0  0  0  0  0  0
    9.2007  -15.6141   23.6906 C   0  0  1  0  0  0  0  0  0  0  0  0
    8.3856  -16.0192   24.8602 C   0  0  0  0  0  0  0  0  0  0  0  0
    7.3220  -15.0698   25.1831 C   0  0  0  0  0  0  0  0  0  0  0  0
    5.9516  -15.2673   25.1183 C   0  0  0  0  0  0  0  0  0  0  0  0
    5.3709  -14.1689   25.5709 N   0  0  0  0  0  0  0  0  0  0  0  0
    6.2989  -13.2641   25.9288 C   0  0  0  0  0  0  0  0  0  0  0  0
    6.2315  -11.9920   26.4682 C   0  0  0  0  0  0  0  0  0  0  0  0
    7.4029  -11.3245   26.7483 C   0  0  0  0  0  0  0  0  0  0  0  0
    8.6632  -11.8737   26.5118 C   0  0  0  0  0  0  0  0  0  0  0  0
    8.7107  -13.1383   25.9748 C   0  0  0  0  0  0  0  0  0  0  0  0
    7.5404  -13.8029   25.6962 C   0  0  0  0  0  0  0  0  0  0  0  0
   10.3914  -16.3928   23.4445 C   0  0  0  0  0  0  0  0  0  0  0  0
   10.1686  -17.5535   22.8602 O   0  0  0  0  0  0  0  0  0  0  0  0
   13.0086  -13.9852   17.9523 O   0  0  0  0  0  0  0  0  0  0  0  0
   13.2530  -14.5983   19.1675 C   0  0  0  0  0  0  0  0  0  0  0  0
   12.9490  -13.9177   20.3237 C   0  0  0  0  0  0  0  0  0  0  0  0
   13.1826  -14.5029   21.5476 C   0  0  0  0  0  0  0  0  0  0  0  0
   13.7191  -15.7673   21.6787 C   0  0  0  0  0  0  0  0  0  0  0  0
   13.9350  -16.3371   23.0046 C   0  0  0  0  0  0  0  0  0  0  0  0
   12.7607  -17.1156   23.5130 C   0  0  2  0  0  0  0  0  0  0  0  0
   11.7029  -16.0986   23.7303 N   0  0  0  0  0  0  0  0  0  0  0  0
   13.0541  -17.8246   24.7722 C   0  0  0  0  0  0  0  0  0  0  0  0
   12.4429  -17.6694   25.9839 O   0  0  0  0  0  0  0  0  0  0  0  0
   14.0222  -16.4449   20.5208 C   0  0  0  0  0  0  0  0  0  0  0  0
   13.7905  -15.8671   19.2848 C   0  0  0  0  0  0  0  0  0  0  0  0
   14.0031  -18.6997   24.7421 O   0  0  0  0  0  0  0  0  0  0  0  0
  2  1  1  0
  3  2  1  0
  4  3  1  0
  5  4  1  0
  5  6  1  6
  7  8  2  0
  7  5  1  0
  9  7  1  0
 10  9  1  0
 10 21  1  0
 10 11  1  1
 12 11  1  0
 13 12  2  0
 14 15  1  0
 14 13  1  0
 15 20  2  0
 16 17  2  0
 16 15  1  0
 17 18  1  0
 18 19  2  0
 20 19  1  0
 20 12  1  0
 21 30  1  0
 22 21  2  0
 23 24  1  0
 24 25  2  0
 24 34  1  0
 25 26  1  0
 26 27  2  0
 27 28  1  0
 29 28  1  1
 29 31  1  0
 30 29  1  0
 31 35  2  0
 31 32  1  0
 33 27  1  0
 34 33  2  0
M  END
$$$$
