MWY.pdb
     RDKit          3D

 35 37  0  0  1  0  0  0  0  0999 V2000
    7.4050  -12.2001   19.6468 C   0  0  0  0  0  0  0  0  0  0  0  0
    7.3822  -13.6693   18.5592 S   0  0  0  0  0  0  0  0  0  0  0  0
    7.3861  -15.1371   19.6180 C   0  0  0  0  0  0  0  0  0  0  0  0
    8.3134  -14.8264   20.7808 C   0  0  0  0  0  0  0  0  0  0  0  0
    8.8542  -16.1293   21.3656 C   0  0  2  0  0  0  0  0  0  0  0  0
    7.7160  -16.9747   21.7661 N   0  0  0  0  0  0  0  0  0  0  0  0
    9.5740  -15.7594   22.6095 C   0  0  0  0  0  0  0  0  0  0  0  0
   10.5481  -14.9722   22.5383 O   0  0  0  0  0  0  0  0  0  0  0  0
    9.1804  -16.2701   23.8639 N   0  0  0  0  0  0  0  0  0  0  0  0
    9.9469  -15.6873   25.0395 C   0  0  1  0  0  0  0  0  0  0  0  0
    8.9484  -15.7525   26.1328 C   0  0  0  0  0  0  0  0  0  0  0  0
    7.7304  -14.9945   25.8524 C   0  0  0  0  0  0  0  0  0  0  0  0
    6.4850  -15.4822   25.4887 C   0  0  0  0  0  0  0  0  0  0  0  0
    5.6626  -14.4498   25.4097 N   0  0  0  0  0  0  0  0  0  0  0  0
    6.3134  -13.3111   25.7055 C   0  0  0  0  0  0  0  0  0  0  0  0
    5.9257  -11.9858   25.7891 C   0  0  0  0  0  0  0  0  0  0  0  0
    6.8589  -11.0405   26.1517 C   0  0  0  0  0  0  0  0  0  0  0  0
    8.1863  -11.3577   26.4405 C   0  0  0  0  0  0  0  0  0  0  0  0
    8.5536  -12.6795   26.3515 C   0  0  0  0  0  0  0  0  0  0  0  0
    7.6206  -13.6214   25.9895 C   0  0  0  0  0  0  0  0  0  0  0  0
   11.1158  -16.5204   25.1948 C   0  0  0  0  0  0  0  0  0  0  0  0
   12.0065  -16.0511   26.0460 O   0  0  0  0  0  0  0  0  0  0  0  0
    9.1780  -19.5080   30.3225 O   0  0  0  0  0  0  0  0  0  0  0  0
    9.9254  -19.5586   29.1600 C   0  0  0  0  0  0  0  0  0  0  0  0
    9.3647  -20.1241   28.0384 C   0  0  0  0  0  0  0  0  0  0  0  0
   10.0857  -20.1890   26.8675 C   0  0  0  0  0  0  0  0  0  0  0  0
   11.3731  -19.7050   26.7574 C   0  0  0  0  0  0  0  0  0  0  0  0
   12.0828  -19.7949   25.4856 C   0  0  0  0  0  0  0  0  0  0  0  0
   12.6225  -18.4795   25.0143 C   0  0  2  0  0  0  0  0  0  0  0  0
   11.4252  -17.7143   24.5887 N   0  0  0  0  0  0  0  0  0  0  0  0
   13.5631  -18.6246   23.8880 C   0  0  0  0  0  0  0  0  0  0  0  0
   13.4073  -18.1864   22.6036 O   0  0  0  0  0  0  0  0  0  0  0  0
   11.9308  -19.1404   27.8808 C   0  0  0  0  0  0  0  0  0  0  0  0
   11.2149  -19.0686   29.0630 C   0  0  0  0  0  0  0  0  0  0  0  0
   14.6720  -19.2407   24.1290 O   0  0  0  0  0  0  0  0  0  0  0  0
  2  1  1  0
  3  2  1  0
  4  3  1  0
  5  4  1  0
  5  6  1  1
  7  8  2  0
  7  5  1  0
  9  7  1  0
 10  9  1  0
 10 21  1  0
 10 11  1  1
 12 11  1  0
 13 12  2  0
 14 15  1  0
 14 13  1  0
 15 20  2  0
 16 17  2  0
 16 15  1  0
 17 18  1  0
 18 19  2  0
 20 19  1  0
 20 12  1  0
 21 30  1  0
 22 21  2  0
 23 24  1  0
 24 25  2  0
 24 34  1  0
 25 26  1  0
 26 27  2  0
 27 28  1  0
 29 28  1  6
 29 31  1  0
 30 29  1  0
 31 35  2  0
 31 32  1  0
 33 27  1  0
 34 33  2  0
M  END
$$$$
