MWY.pdb
     RDKit          3D

 35 37  0  0  1  0  0  0  0  0999 V2000
    7.2822  -11.4955   20.1577 C   0  0  0  0  0  0  0  0  0  0  0  0
    7.7277  -12.5108   18.7042 S   0  0  0  0  0  0  0  0  0  0  0  0
    7.6949  -14.2466   19.2154 C   0  0  0  0  0  0  0  0  0  0  0  0
    8.3327  -14.3015   20.5934 C   0  0  0  0  0  0  0  0  0  0  0  0
    8.9179  -15.6920   20.8308 C   0  0  2  0  0  0  0  0  0  0  0  0
    7.8402  -16.6870   20.6929 N   0  0  0  0  0  0  0  0  0  0  0  0
    9.3532  -15.7230   22.2492 C   0  0  0  0  0  0  0  0  0  0  0  0
   10.2828  -14.9656   22.6177 O   0  0  0  0  0  0  0  0  0  0  0  0
    8.7392  -16.5803   23.1859 N   0  0  0  0  0  0  0  0  0  0  0  0
    9.3149  -16.4807   24.5888 C   0  0  1  0  0  0  0  0  0  0  0  0
    8.1317  -16.7568   25.4374 C   0  0  0  0  0  0  0  0  0  0  0  0
    7.2413  -15.6067   25.5837 C   0  0  0  0  0  0  0  0  0  0  0  0
    5.8678  -15.5609   25.4033 C   0  0  0  0  0  0  0  0  0  0  0  0
    5.4677  -14.3392   25.7131 N   0  0  0  0  0  0  0  0  0  0  0  0
    6.5165  -13.5859   26.0879 C   0  0  0  0  0  0  0  0  0  0  0  0
    6.6445  -12.2779   26.5197 C   0  0  0  0  0  0  0  0  0  0  0  0
    7.8935  -11.8077   26.8587 C   0  0  0  0  0  0  0  0  0  0  0  0
    9.0442  -12.5930   26.7866 C   0  0  0  0  0  0  0  0  0  0  0  0
    8.8978  -13.8900   26.3547 C   0  0  0  0  0  0  0  0  0  0  0  0
    7.6503  -14.3573   26.0170 C   0  0  0  0  0  0  0  0  0  0  0  0
   10.3789  -17.4552   24.6441 C   0  0  0  0  0  0  0  0  0  0  0  0
   10.4539  -18.2362   23.5846 O   0  0  0  0  0  0  0  0  0  0  0  0
   17.6533  -22.1166   24.7978 O   0  0  0  0  0  0  0  0  0  0  0  0
   16.6575  -21.1637   24.9108 C   0  0  0  0  0  0  0  0  0  0  0  0
   15.8146  -20.9594   23.8431 C   0  0  0  0  0  0  0  0  0  0  0  0
   14.8149  -20.0167   23.9269 C   0  0  0  0  0  0  0  0  0  0  0  0
   14.6094  -19.2467   25.0533 C   0  0  0  0  0  0  0  0  0  0  0  0
   13.5263  -18.2693   25.0843 C   0  0  0  0  0  0  0  0  0  0  0  0
   12.2224  -18.8446   25.5451 C   0  0  2  0  0  0  0  0  0  0  0  0
   11.3084  -17.6794   25.6310 N   0  0  0  0  0  0  0  0  0  0  0  0
   12.3289  -19.5083   26.8575 C   0  0  0  0  0  0  0  0  0  0  0  0
   12.7916  -20.7650   27.1265 O   0  0  0  0  0  0  0  0  0  0  0  0
   15.4540  -19.4533   26.1188 C   0  0  0  0  0  0  0  0  0  0  0  0
   16.4617  -20.3992   26.0464 C   0  0  0  0  0  0  0  0  0  0  0  0
   11.9389  -18.8329   27.8866 O   0  0  0  0  0  0  0  0  0  0  0  0
  2  1  1  0
  3  2  1  0
  4  3  1  0
  5  4  1  0
  5  6  1  1
  7  8  2  0
  7  5  1  0
  9  7  1  0
 10  9  1  0
 10 21  1  0
 10 11  1  1
 12 11  1  0
 13 12  2  0
 14 15  1  0
 14 13  1  0
 15 20  2  0
 16 17  2  0
 16 15  1  0
 17 18  1  0
 18 19  2  0
 20 19  1  0
 20 12  1  0
 21 30  1  0
 22 21  2  0
 23 24  1  0
 24 25  2  0
 24 34  1  0
 25 26  1  0
 26 27  2  0
 27 28  1  0
 29 28  1  1
 29 31  1  0
 30 29  1  0
 31 35  2  0
 31 32  1  0
 33 27  1  0
 34 33  2  0
M  END
$$$$
