MWY.pdb
     RDKit          3D

 35 37  0  0  1  0  0  0  0  0999 V2000
    7.4800  -12.0730   19.1810 C   0  0  0  0  0  0  0  0  0  0  0  0
    8.9511  -13.0834   18.7848 S   0  0  0  0  0  0  0  0  0  0  0  0
    8.4300  -14.3900   17.6461 C   0  0  0  0  0  0  0  0  0  0  0  0
    7.5704  -15.3474   18.4541 C   0  0  0  0  0  0  0  0  0  0  0  0
    8.4670  -16.2605   19.2874 C   0  0  2  0  0  0  0  0  0  0  0  0
    7.9351  -17.6327   19.2203 N   0  0  0  0  0  0  0  0  0  0  0  0
    8.3237  -15.8119   20.6948 C   0  0  0  0  0  0  0  0  0  0  0  0
    7.6405  -14.7892   20.9415 O   0  0  0  0  0  0  0  0  0  0  0  0
    8.9341  -16.5151   21.7542 N   0  0  0  0  0  0  0  0  0  0  0  0
    8.8840  -15.7914   23.0895 C   0  0  1  0  0  0  0  0  0  0  0  0
    7.8807  -16.5820   23.8411 C   0  0  0  0  0  0  0  0  0  0  0  0
    7.0785  -15.7774   24.7609 C   0  0  0  0  0  0  0  0  0  0  0  0
    6.0751  -16.2038   25.6168 C   0  0  0  0  0  0  0  0  0  0  0  0
    5.6756  -15.1534   26.3137 N   0  0  0  0  0  0  0  0  0  0  0  0
    6.3723  -14.0616   25.9527 C   0  0  0  0  0  0  0  0  0  0  0  0
    6.3647  -12.7438   26.3737 C   0  0  0  0  0  0  0  0  0  0  0  0
    7.2473  -11.8563   25.7998 C   0  0  0  0  0  0  0  0  0  0  0  0
    8.1547  -12.2251   24.8066 C   0  0  0  0  0  0  0  0  0  0  0  0
    8.1474  -13.5384   24.4003 C   0  0  0  0  0  0  0  0  0  0  0  0
    7.2658  -14.4227   24.9745 C   0  0  0  0  0  0  0  0  0  0  0  0
   10.2334  -15.8241   23.6020 C   0  0  0  0  0  0  0  0  0  0  0  0
   11.1057  -16.3952   22.7951 O   0  0  0  0  0  0  0  0  0  0  0  0
    9.8218  -16.9348   30.7910 O   0  0  0  0  0  0  0  0  0  0  0  0
   10.4100  -16.3288   29.6959 C   0  0  0  0  0  0  0  0  0  0  0  0
   11.5742  -16.8612   29.1925 C   0  0  0  0  0  0  0  0  0  0  0  0
   12.1824  -16.2783   28.1038 C   0  0  0  0  0  0  0  0  0  0  0  0
   11.6730  -15.1602   27.4758 C   0  0  0  0  0  0  0  0  0  0  0  0
   12.3595  -14.5934   26.3196 C   0  0  0  0  0  0  0  0  0  0  0  0
   12.1838  -15.4023   25.0713 C   0  0  2  0  0  0  0  0  0  0  0  0
   10.7274  -15.3517   24.7941 N   0  0  0  0  0  0  0  0  0  0  0  0
   12.6243  -16.7999   25.2359 C   0  0  0  0  0  0  0  0  0  0  0  0
   11.8476  -17.9216   25.3021 O   0  0  0  0  0  0  0  0  0  0  0  0
   10.5091  -14.6302   27.9819 C   0  0  0  0  0  0  0  0  0  0  0  0
    9.8882  -15.2086   29.0752 C   0  0  0  0  0  0  0  0  0  0  0  0
   13.8956  -17.0037   25.3333 O   0  0  0  0  0  0  0  0  0  0  0  0
  2  1  1  0
  3  2  1  0
  4  3  1  0
  5  4  1  0
  5  6  1  1
  7  8  2  0
  7  5  1  0
  9  7  1  0
 10  9  1  0
 10 21  1  0
 10 11  1  1
 12 11  1  0
 13 12  2  0
 14 15  1  0
 14 13  1  0
 15 20  2  0
 16 17  2  0
 16 15  1  0
 17 18  1  0
 18 19  2  0
 20 19  1  0
 20 12  1  0
 21 30  1  0
 22 21  2  0
 23 24  1  0
 24 25  2  0
 24 34  1  0
 25 26  1  0
 26 27  2  0
 27 28  1  0
 29 28  1  1
 29 31  1  0
 30 29  1  0
 31 35  2  0
 31 32  1  0
 33 27  1  0
 34 33  2  0
M  END
$$$$
