MWY.pdb
     RDKit          3D

 35 37  0  0  1  0  0  0  0  0999 V2000
    7.1779  -12.6497   19.6178 C   0  0  0  0  0  0  0  0  0  0  0  0
    6.5820  -14.1003   18.6783 S   0  0  0  0  0  0  0  0  0  0  0  0
    7.1780  -15.5854   19.5239 C   0  0  0  0  0  0  0  0  0  0  0  0
    8.1514  -15.1121   20.5901 C   0  0  0  0  0  0  0  0  0  0  0  0
    8.7589  -16.3199   21.3002 C   0  0  2  0  0  0  0  0  0  0  0  0
    7.6700  -17.1131   21.8967 N   0  0  0  0  0  0  0  0  0  0  0  0
    9.5635  -15.7800   22.4242 C   0  0  0  0  0  0  0  0  0  0  0  0
   10.5522  -15.0509   22.1704 O   0  0  0  0  0  0  0  0  0  0  0  0
    9.2340  -16.0662   23.7654 N   0  0  0  0  0  0  0  0  0  0  0  0
   10.1218  -15.3712   24.7844 C   0  0  1  0  0  0  0  0  0  0  0  0
    9.2354  -15.2822   25.9688 C   0  0  0  0  0  0  0  0  0  0  0  0
    7.9434  -14.6616   25.6815 C   0  0  0  0  0  0  0  0  0  0  0  0
    6.7322  -15.2867   25.4298 C   0  0  0  0  0  0  0  0  0  0  0  0
    5.8180  -14.3408   25.2966 N   0  0  0  0  0  0  0  0  0  0  0  0
    6.3763  -13.1273   25.4505 C   0  0  0  0  0  0  0  0  0  0  0  0
    5.8753  -11.8380   25.4292 C   0  0  0  0  0  0  0  0  0  0  0  0
    6.7348  -10.7858   25.6532 C   0  0  0  0  0  0  0  0  0  0  0  0
    8.0964  -10.9592   25.9018 C   0  0  0  0  0  0  0  0  0  0  0  0
    8.5766  -12.2473   25.9184 C   0  0  0  0  0  0  0  0  0  0  0  0
    7.7170  -13.2961   25.6948 C   0  0  0  0  0  0  0  0  0  0  0  0
   11.2876  -16.2115   24.9238 C   0  0  0  0  0  0  0  0  0  0  0  0
   12.4162  -15.5497   25.0862 O   0  0  0  0  0  0  0  0  0  0  0  0
   10.0009  -16.4476   30.9956 O   0  0  0  0  0  0  0  0  0  0  0  0
   10.4639  -17.1418   29.8928 C   0  0  0  0  0  0  0  0  0  0  0  0
   11.7178  -16.8507   29.4077 C   0  0  0  0  0  0  0  0  0  0  0  0
   12.2042  -17.5251   28.3107 C   0  0  0  0  0  0  0  0  0  0  0  0
   11.4821  -18.5016   27.6558 C   0  0  0  0  0  0  0  0  0  0  0  0
   12.0563  -19.1875   26.5030 C   0  0  0  0  0  0  0  0  0  0  0  0
   12.5875  -18.2517   25.4611 C   0  0  2  0  0  0  0  0  0  0  0  0
   11.3838  -17.5822   24.9103 N   0  0  0  0  0  0  0  0  0  0  0  0
   13.3173  -18.9536   24.3891 C   0  0  0  0  0  0  0  0  0  0  0  0
   14.4719  -19.6757   24.4946 O   0  0  0  0  0  0  0  0  0  0  0  0
   10.2287  -18.7900   28.1432 C   0  0  0  0  0  0  0  0  0  0  0  0
    9.7298  -18.1193   29.2462 C   0  0  0  0  0  0  0  0  0  0  0  0
   12.8177  -18.8841   23.2004 O   0  0  0  0  0  0  0  0  0  0  0  0
  2  1  1  0
  3  2  1  0
  4  3  1  0
  5  4  1  0
  5  6  1  1
  7  8  2  0
  7  5  1  0
  9  7  1  0
 10  9  1  0
 10 21  1  0
 10 11  1  1
 12 11  1  0
 13 12  2  0
 14 15  1  0
 14 13  1  0
 15 20  2  0
 16 17  2  0
 16 15  1  0
 17 18  1  0
 18 19  2  0
 20 19  1  0
 20 12  1  0
 21 30  1  0
 22 21  2  0
 23 24  1  0
 24 25  2  0
 24 34  1  0
 25 26  1  0
 26 27  2  0
 27 28  1  0
 29 28  1  1
 29 31  1  0
 30 29  1  0
 31 35  2  0
 31 32  1  0
 33 27  1  0
 34 33  2  0
M  END
$$$$
