MWY.pdb
     RDKit          3D

 35 37  0  0  1  0  0  0  0  0999 V2000
    7.8787  -12.1048   18.9416 C   0  0  0  0  0  0  0  0  0  0  0  0
    6.8528  -13.3211   18.0415 S   0  0  0  0  0  0  0  0  0  0  0  0
    7.2400  -14.9616   18.7005 C   0  0  0  0  0  0  0  0  0  0  0  0
    7.9307  -14.7372   20.0350 C   0  0  0  0  0  0  0  0  0  0  0  0
    8.5348  -16.0512   20.5253 C   0  0  2  0  0  0  0  0  0  0  0  0
    7.4416  -16.9450   20.9455 N   0  0  0  0  0  0  0  0  0  0  0  0
    9.3135  -15.7212   21.7448 C   0  0  0  0  0  0  0  0  0  0  0  0
   10.3651  -15.0466   21.6320 O   0  0  0  0  0  0  0  0  0  0  0  0
    8.8909  -16.1457   23.0218 N   0  0  0  0  0  0  0  0  0  0  0  0
    9.7824  -15.6747   24.1588 C   0  0  1  0  0  0  0  0  0  0  0  0
    8.9671  -15.9949   25.3543 C   0  0  0  0  0  0  0  0  0  0  0  0
    7.6676  -15.3256   25.3669 C   0  0  0  0  0  0  0  0  0  0  0  0
    6.4092  -15.9010   25.2868 C   0  0  0  0  0  0  0  0  0  0  0  0
    5.5205  -14.9296   25.4100 N   0  0  0  0  0  0  0  0  0  0  0  0
    6.1407  -13.7471   25.5676 C   0  0  0  0  0  0  0  0  0  0  0  0
    5.6908  -12.4525   25.7554 C   0  0  0  0  0  0  0  0  0  0  0  0
    6.6139  -11.4428   25.9116 C   0  0  0  0  0  0  0  0  0  0  0  0
    7.9909  -11.6646   25.8888 C   0  0  0  0  0  0  0  0  0  0  0  0
    8.4195  -12.9572   25.7003 C   0  0  0  0  0  0  0  0  0  0  0  0
    7.4965  -13.9635   25.5449 C   0  0  0  0  0  0  0  0  0  0  0  0
   11.0176  -16.4086   24.0158 C   0  0  0  0  0  0  0  0  0  0  0  0
   11.7066  -16.1041   22.9339 O   0  0  0  0  0  0  0  0  0  0  0  0
    9.9754  -16.3570   31.0466 O   0  0  0  0  0  0  0  0  0  0  0  0
   10.6895  -16.2928   29.8641 C   0  0  0  0  0  0  0  0  0  0  0  0
   10.6548  -15.1275   29.1340 C   0  0  0  0  0  0  0  0  0  0  0  0
   11.3552  -15.0352   27.9525 C   0  0  0  0  0  0  0  0  0  0  0  0
   12.1084  -16.0762   27.4496 C   0  0  0  0  0  0  0  0  0  0  0  0
   12.8361  -15.9141   26.1953 C   0  0  0  0  0  0  0  0  0  0  0  0
   12.9269  -17.1774   25.3957 C   0  0  2  0  0  0  0  0  0  0  0  0
   11.5660  -17.3650   24.8361 N   0  0  0  0  0  0  0  0  0  0  0  0
   13.3063  -18.3413   26.2177 C   0  0  0  0  0  0  0  0  0  0  0  0
   14.5545  -18.6949   26.6452 O   0  0  0  0  0  0  0  0  0  0  0  0
   12.1407  -17.2400   28.1819 C   0  0  0  0  0  0  0  0  0  0  0  0
   11.4416  -17.3437   29.3718 C   0  0  0  0  0  0  0  0  0  0  0  0
   12.3540  -19.1331   26.5834 O   0  0  0  0  0  0  0  0  0  0  0  0
  2  1  1  0
  3  2  1  0
  4  3  1  0
  5  4  1  0
  5  6  1  1
  7  8  2  0
  7  5  1  0
  9  7  1  0
 10  9  1  0
 10 21  1  0
 10 11  1  1
 12 11  1  0
 13 12  2  0
 14 15  1  0
 14 13  1  0
 15 20  2  0
 16 17  2  0
 16 15  1  0
 17 18  1  0
 18 19  2  0
 20 19  1  0
 20 12  1  0
 21 30  1  0
 22 21  2  0
 23 24  1  0
 24 25  2  0
 24 34  1  0
 25 26  1  0
 26 27  2  0
 27 28  1  0
 29 28  1  1
 29 31  1  0
 30 29  1  0
 31 35  2  0
 31 32  1  0
 33 27  1  0
 34 33  2  0
M  END
$$$$
