MWY.pdb
     RDKit          3D

 35 37  0  0  1  0  0  0  0  0999 V2000
   11.7699  -21.1457   18.2738 C   0  0  0  0  0  0  0  0  0  0  0  0
   11.7907  -19.7692   17.0710 S   0  0  0  0  0  0  0  0  0  0  0  0
   10.1895  -18.9311   17.1670 C   0  0  0  0  0  0  0  0  0  0  0  0
   10.2402  -18.0463   18.4011 C   0  0  0  0  0  0  0  0  0  0  0  0
    8.9154  -17.3017   18.5512 C   0  0  2  0  0  0  0  0  0  0  0  0
    8.8423  -16.2562   17.5158 N   0  0  0  0  0  0  0  0  0  0  0  0
    8.9753  -16.6066   19.8610 C   0  0  0  0  0  0  0  0  0  0  0  0
    9.6516  -15.5549   19.9620 O   0  0  0  0  0  0  0  0  0  0  0  0
    8.2843  -17.1022   20.9863 N   0  0  0  0  0  0  0  0  0  0  0  0
    8.4116  -16.2318   22.2255 C   0  0  1  0  0  0  0  0  0  0  0  0
    7.2278  -16.6365   23.0201 C   0  0  0  0  0  0  0  0  0  0  0  0
    7.0550  -15.8547   24.2432 C   0  0  0  0  0  0  0  0  0  0  0  0
    6.7175  -16.3102   25.5080 C   0  0  0  0  0  0  0  0  0  0  0  0
    6.7453  -15.2703   26.3243 N   0  0  0  0  0  0  0  0  0  0  0  0
    7.0860  -14.1576   25.6510 C   0  0  0  0  0  0  0  0  0  0  0  0
    7.2754  -12.8387   26.0232 C   0  0  0  0  0  0  0  0  0  0  0  0
    7.6568  -11.9249   25.0663 C   0  0  0  0  0  0  0  0  0  0  0  0
    7.8623  -12.2680   23.7299 C   0  0  0  0  0  0  0  0  0  0  0  0
    7.6687  -13.5829   23.3783 C   0  0  0  0  0  0  0  0  0  0  0  0
    7.2882  -14.4934   24.3349 C   0  0  0  0  0  0  0  0  0  0  0  0
    9.6995  -16.5501   22.7953 C   0  0  0  0  0  0  0  0  0  0  0  0
    9.9603  -17.8409   22.8577 O   0  0  0  0  0  0  0  0  0  0  0  0
   10.8133  -15.2222   31.0507 O   0  0  0  0  0  0  0  0  0  0  0  0
   10.5810  -15.3179   29.6909 C   0  0  0  0  0  0  0  0  0  0  0  0
   10.5930  -14.1679   28.9361 C   0  0  0  0  0  0  0  0  0  0  0  0
   10.3639  -14.2329   27.5803 C   0  0  0  0  0  0  0  0  0  0  0  0
   10.1163  -15.4203   26.9226 C   0  0  0  0  0  0  0  0  0  0  0  0
    9.8895  -15.4252   25.4811 C   0  0  0  0  0  0  0  0  0  0  0  0
   11.1065  -15.7975   24.6913 C   0  0  2  0  0  0  0  0  0  0  0  0
   10.6751  -15.7094   23.2748 N   0  0  0  0  0  0  0  0  0  0  0  0
   11.5843  -17.1588   24.9961 C   0  0  0  0  0  0  0  0  0  0  0  0
   10.8760  -18.3259   24.9504 O   0  0  0  0  0  0  0  0  0  0  0  0
   10.1046  -16.5682   27.6801 C   0  0  0  0  0  0  0  0  0  0  0  0
   10.3350  -16.5151   29.0437 C   0  0  0  0  0  0  0  0  0  0  0  0
   12.8194  -17.2777   25.3535 O   0  0  0  0  0  0  0  0  0  0  0  0
  2  1  1  0
  3  2  1  0
  4  3  1  0
  5  4  1  0
  5  6  1  6
  7  8  2  0
  7  5  1  0
  9  7  1  0
 10  9  1  0
 10 21  1  0
 10 11  1  1
 12 11  1  0
 13 12  2  0
 14 15  1  0
 14 13  1  0
 15 20  2  0
 16 17  2  0
 16 15  1  0
 17 18  1  0
 18 19  2  0
 20 19  1  0
 20 12  1  0
 21 30  1  0
 22 21  2  0
 23 24  1  0
 24 25  2  0
 24 34  1  0
 25 26  1  0
 26 27  2  0
 27 28  1  0
 29 28  1  1
 29 31  1  0
 30 29  1  0
 31 35  2  0
 31 32  1  0
 33 27  1  0
 34 33  2  0
M  END
$$$$
