IAE.pdb
     RDKit          3D

 23 22  0  0  1  0  0  0  0  0999 V2000
    7.0518  -11.7792   19.3808 C   0  0  0  0  0  0  0  0  0  0  0  0
    7.3979  -13.1211   19.9386 C   0  0  0  0  0  0  0  0  0  0  0  0
    8.8163  -13.5557   19.7125 C   0  0  2  0  0  0  0  0  0  0  0  0
    9.0051  -13.6142   18.1923 C   0  0  0  0  0  0  0  0  0  0  0  0
    9.1128  -14.9144   20.2686 C   0  0  2  0  0  0  0  0  0  0  0  0
    8.2371  -15.9599   19.8206 N   0  0  0  0  0  0  0  0  0  0  0  0
    9.0617  -14.8495   21.7479 C   0  0  0  0  0  0  0  0  0  0  0  0
    8.9600  -13.7239   22.3065 O   0  0  0  0  0  0  0  0  0  0  0  0
    7.7604  -16.1111   24.6359 C   0  0  0  0  0  0  0  0  0  0  0  0
    9.1074  -15.9723   23.9938 C   0  0  2  0  0  0  0  0  0  0  0  0
    9.1243  -16.0142   22.5668 N   0  0  0  0  0  0  0  0  0  0  0  0
   10.0408  -17.0426   24.5176 C   0  0  0  0  0  0  0  0  0  0  0  0
    9.6418  -18.2270   24.5139 O   0  0  0  0  0  0  0  0  0  0  0  0
   11.3057  -16.6633   24.9865 N   0  0  0  0  0  0  0  0  0  0  0  0
   12.3000  -17.6441   25.4452 C   0  0  1  0  0  0  0  0  0  0  0  0
   13.6684  -17.0836   25.3475 C   0  0  0  0  0  0  0  0  0  0  0  0
   14.3067  -17.1289   23.9969 C   0  0  0  0  0  0  0  0  0  0  0  0
   15.4983  -16.2423   23.9181 C   0  0  0  0  0  0  0  0  0  0  0  0
   16.5400  -16.5183   24.5630 O   0  0  0  0  0  0  0  0  0  0  0  0
   11.9106  -18.1743   26.7698 C   0  0  0  0  0  0  0  0  0  0  0  0
   10.8531  -17.7185   27.5257 O   0  0  0  0  0  0  0  0  0  0  0  0
   15.5331  -15.0730   23.1351 O   0  0  0  0  0  0  0  0  0  0  0  0
   12.6002  -19.1275   27.2618 O   0  0  0  0  0  0  0  0  0  0  0  0
  1  2  1  0
  2  3  1  0
  3  4  1  6
  3  5  1  0
  5  7  1  0
  5  6  1  6
  7  8  2  0
 10  9  1  1
 10 12  1  0
 11 10  1  0
 11  7  1  0
 12 13  2  0
 12 14  1  0
 14 15  1  0
 15 16  1  1
 16 17  1  0
 18 22  1  0
 18 17  1  0
 19 18  2  0
 20 15  1  0
 20 21  1  0
 23 20  2  0
M  END
$$$$
