IAE.pdb
     RDKit          3D

 23 22  0  0  1  0  0  0  0  0999 V2000
    8.3058  -12.3212   18.9074 C   0  0  0  0  0  0  0  0  0  0  0  0
    7.5186  -13.4875   19.4090 C   0  0  0  0  0  0  0  0  0  0  0  0
    7.8001  -13.8790   20.8301 C   0  0  2  0  0  0  0  0  0  0  0  0
    9.2744  -14.2970   20.8711 C   0  0  0  0  0  0  0  0  0  0  0  0
    6.9766  -15.0399   21.2963 C   0  0  2  0  0  0  0  0  0  0  0  0
    5.5653  -14.9176   21.0639 N   0  0  0  0  0  0  0  0  0  0  0  0
    7.2063  -15.2401   22.7463 C   0  0  0  0  0  0  0  0  0  0  0  0
    7.1474  -14.2441   23.5169 O   0  0  0  0  0  0  0  0  0  0  0  0
    6.7342  -17.3554   25.5134 C   0  0  0  0  0  0  0  0  0  0  0  0
    7.8084  -16.7208   24.6832 C   0  0  2  0  0  0  0  0  0  0  0  0
    7.4933  -16.5191   23.3054 N   0  0  0  0  0  0  0  0  0  0  0  0
    9.0789  -17.5388   24.7714 C   0  0  0  0  0  0  0  0  0  0  0  0
    9.1737  -18.5605   24.0578 O   0  0  0  0  0  0  0  0  0  0  0  0
   10.0898  -17.1218   25.6477 N   0  0  0  0  0  0  0  0  0  0  0  0
   11.2907  -17.9301   25.9032 C   0  0  1  0  0  0  0  0  0  0  0  0
   12.5127  -17.1821   25.5246 C   0  0  0  0  0  0  0  0  0  0  0  0
   13.0018  -17.3787   24.1262 C   0  0  0  0  0  0  0  0  0  0  0  0
   13.6958  -16.1697   23.6076 C   0  0  0  0  0  0  0  0  0  0  0  0
   14.4174  -15.4762   24.3662 O   0  0  0  0  0  0  0  0  0  0  0  0
   11.2573  -18.4593   27.2839 C   0  0  0  0  0  0  0  0  0  0  0  0
   12.0337  -19.4955   27.7539 O   0  0  0  0  0  0  0  0  0  0  0  0
   13.5927  -15.7412   22.2706 O   0  0  0  0  0  0  0  0  0  0  0  0
   10.4504  -17.9234   28.1133 O   0  0  0  0  0  0  0  0  0  0  0  0
  1  2  1  0
  2  3  1  0
  3  4  1  6
  3  5  1  0
  5  7  1  0
  5  6  1  1
  7  8  2  0
 10  9  1  1
 10 12  1  0
 11 10  1  0
 11  7  1  0
 12 13  2  0
 12 14  1  0
 14 15  1  0
 15 16  1  1
 16 17  1  0
 18 22  1  0
 18 17  1  0
 19 18  2  0
 20 15  1  0
 20 21  1  0
 23 20  2  0
M  END
$$$$
