IAE.pdb
     RDKit          3D

 23 22  0  0  1  0  0  0  0  0999 V2000
    6.9252  -11.5879   27.0571 C   0  0  0  0  0  0  0  0  0  0  0  0
    6.4091  -12.9547   26.7458 C   0  0  0  0  0  0  0  0  0  0  0  0
    7.2290  -13.7331   25.7590 C   0  0  2  0  0  0  0  0  0  0  0  0
    7.1977  -12.9296   24.4538 C   0  0  0  0  0  0  0  0  0  0  0  0
    6.6756  -15.0960   25.4770 C   0  0  2  0  0  0  0  0  0  0  0  0
    6.4779  -15.9239   26.6329 N   0  0  0  0  0  0  0  0  0  0  0  0
    7.5809  -15.7969   24.5366 C   0  0  0  0  0  0  0  0  0  0  0  0
    8.6480  -16.3021   24.9787 O   0  0  0  0  0  0  0  0  0  0  0  0
    7.3366  -17.1252   20.9787 C   0  0  0  0  0  0  0  0  0  0  0  0
    8.0190  -16.7797   22.2675 C   0  0  2  0  0  0  0  0  0  0  0  0
    7.2918  -15.9216   23.1467 N   0  0  0  0  0  0  0  0  0  0  0  0
    9.3657  -16.1491   21.9848 C   0  0  0  0  0  0  0  0  0  0  0  0
    9.3965  -14.9406   21.6675 O   0  0  0  0  0  0  0  0  0  0  0  0
   10.5162  -16.9427   22.0858 N   0  0  0  0  0  0  0  0  0  0  0  0
   11.8563  -16.4268   21.7715 C   0  0  1  0  0  0  0  0  0  0  0  0
   12.8297  -16.8368   22.8111 C   0  0  0  0  0  0  0  0  0  0  0  0
   13.1169  -15.8334   23.8806 C   0  0  0  0  0  0  0  0  0  0  0  0
   14.3100  -16.2090   24.6856 C   0  0  0  0  0  0  0  0  0  0  0  0
   15.3629  -15.5280   24.6177 O   0  0  0  0  0  0  0  0  0  0  0  0
   12.2142  -16.7701   20.3781 C   0  0  0  0  0  0  0  0  0  0  0  0
   13.0950  -16.0633   19.5895 O   0  0  0  0  0  0  0  0  0  0  0  0
   14.3315  -17.3181   25.5522 O   0  0  0  0  0  0  0  0  0  0  0  0
   11.6711  -17.7982   19.8542 O   0  0  0  0  0  0  0  0  0  0  0  0
  1  2  1  0
  2  3  1  0
  3  4  1  6
  3  5  1  0
  5  7  1  0
  5  6  1  1
  7  8  2  0
 10  9  1  6
 10 12  1  0
 11 10  1  0
 11  7  1  0
 12 13  2  0
 12 14  1  0
 14 15  1  0
 15 16  1  1
 16 17  1  0
 18 22  1  0
 18 17  1  0
 19 18  2  0
 20 15  1  0
 20 21  1  0
 23 20  2  0
M  END
$$$$
