IAE.pdb
     RDKit          3D

 23 22  0  0  1  0  0  0  0  0999 V2000
    6.3702  -11.6807   27.7567 C   0  0  0  0  0  0  0  0  0  0  0  0
    5.8615  -12.8964   27.0532 C   0  0  0  0  0  0  0  0  0  0  0  0
    6.8043  -13.4883   26.0469 C   0  0  2  0  0  0  0  0  0  0  0  0
    7.0098  -12.4129   24.9739 C   0  0  0  0  0  0  0  0  0  0  0  0
    6.2600  -14.7125   25.3773 C   0  0  2  0  0  0  0  0  0  0  0  0
    5.9848  -15.8149   26.2545 N   0  0  0  0  0  0  0  0  0  0  0  0
    7.2173  -15.1569   24.3375 C   0  0  0  0  0  0  0  0  0  0  0  0
    8.1964  -15.8753   24.6761 O   0  0  0  0  0  0  0  0  0  0  0  0
    7.6206  -14.8250   20.5456 C   0  0  0  0  0  0  0  0  0  0  0  0
    7.8691  -15.3655   21.9211 C   0  0  2  0  0  0  0  0  0  0  0  0
    7.0744  -14.8018   22.9647 N   0  0  0  0  0  0  0  0  0  0  0  0
    9.3289  -15.1985   22.2846 C   0  0  0  0  0  0  0  0  0  0  0  0
    9.6290  -14.3418   23.1437 O   0  0  0  0  0  0  0  0  0  0  0  0
   10.2796  -16.0041   21.6435 N   0  0  0  0  0  0  0  0  0  0  0  0
   11.4766  -16.5067   22.3331 C   0  0  1  0  0  0  0  0  0  0  0  0
   11.1022  -17.2017   23.5874 C   0  0  0  0  0  0  0  0  0  0  0  0
   11.8600  -16.8072   24.8135 C   0  0  0  0  0  0  0  0  0  0  0  0
   11.7667  -17.8415   25.8784 C   0  0  0  0  0  0  0  0  0  0  0  0
   10.7553  -18.5815   25.9592 O   0  0  0  0  0  0  0  0  0  0  0  0
   12.3141  -17.2791   21.3901 C   0  0  0  0  0  0  0  0  0  0  0  0
   13.6906  -17.2517   21.3481 O   0  0  0  0  0  0  0  0  0  0  0  0
   12.7795  -18.0518   26.8331 O   0  0  0  0  0  0  0  0  0  0  0  0
   11.7280  -18.0326   20.5445 O   0  0  0  0  0  0  0  0  0  0  0  0
  1  2  1  0
  2  3  1  0
  3  4  1  6
  3  5  1  0
  5  7  1  0
  5  6  1  1
  7  8  2  0
 10  9  1  6
 10 12  1  0
 11 10  1  0
 11  7  1  0
 12 13  2  0
 12 14  1  0
 14 15  1  0
 15 16  1  1
 16 17  1  0
 18 22  1  0
 18 17  1  0
 19 18  2  0
 20 15  1  0
 20 21  1  0
 23 20  2  0
M  END
$$$$
