IAE.pdb
     RDKit          3D

 23 22  0  0  1  0  0  0  0  0999 V2000
    7.7595  -11.7202   27.2333 C   0  0  0  0  0  0  0  0  0  0  0  0
    6.8372  -12.7337   26.6384 C   0  0  0  0  0  0  0  0  0  0  0  0
    7.4946  -13.7398   25.7399 C   0  0  2  0  0  0  0  0  0  0  0  0
    8.1240  -12.9386   24.5945 C   0  0  0  0  0  0  0  0  0  0  0  0
    6.5297  -14.7185   25.1446 C   0  0  2  0  0  0  0  0  0  0  0  0
    5.8066  -15.5152   26.0949 N   0  0  0  0  0  0  0  0  0  0  0  0
    7.2647  -15.6198   24.2267 C   0  0  0  0  0  0  0  0  0  0  0  0
    7.6683  -16.7336   24.6581 O   0  0  0  0  0  0  0  0  0  0  0  0
    7.9446  -15.8064   20.4830 C   0  0  0  0  0  0  0  0  0  0  0  0
    8.0928  -16.1875   21.9247 C   0  0  2  0  0  0  0  0  0  0  0  0
    7.5352  -15.2750   22.8706 N   0  0  0  0  0  0  0  0  0  0  0  0
    9.5556  -16.3901   22.2566 C   0  0  0  0  0  0  0  0  0  0  0  0
   10.3824  -16.3643   21.3196 O   0  0  0  0  0  0  0  0  0  0  0  0
    9.9208  -16.6014   23.5929 N   0  0  0  0  0  0  0  0  0  0  0  0
   11.2850  -16.9855   23.9831 C   0  0  1  0  0  0  0  0  0  0  0  0
   12.2361  -15.8831   23.7064 C   0  0  0  0  0  0  0  0  0  0  0  0
   12.8140  -15.8385   22.3289 C   0  0  0  0  0  0  0  0  0  0  0  0
   14.2818  -15.5985   22.3522 C   0  0  0  0  0  0  0  0  0  0  0  0
   14.8743  -15.3868   23.4390 O   0  0  0  0  0  0  0  0  0  0  0  0
   11.2848  -17.5084   25.3666 C   0  0  0  0  0  0  0  0  0  0  0  0
   12.2887  -18.2672   25.9266 O   0  0  0  0  0  0  0  0  0  0  0  0
   15.0765  -15.5971   21.1903 O   0  0  0  0  0  0  0  0  0  0  0  0
   10.2822  -17.2434   26.1089 O   0  0  0  0  0  0  0  0  0  0  0  0
  1  2  1  0
  2  3  1  0
  3  4  1  6
  3  5  1  0
  5  7  1  0
  5  6  1  1
  7  8  2  0
 10  9  1  6
 10 12  1  0
 11 10  1  0
 11  7  1  0
 12 13  2  0
 12 14  1  0
 14 15  1  0
 15 16  1  1
 16 17  1  0
 18 22  1  0
 18 17  1  0
 19 18  2  0
 20 15  1  0
 20 21  1  0
 23 20  2  0
M  END
$$$$
