IAE.pdb
     RDKit          3D

 23 22  0  0  1  0  0  0  0  0999 V2000
    6.7045  -11.3614   27.3177 C   0  0  0  0  0  0  0  0  0  0  0  0
    6.1102  -12.6241   26.7847 C   0  0  0  0  0  0  0  0  0  0  0  0
    6.9941  -13.3960   25.8494 C   0  0  2  0  0  0  0  0  0  0  0  0
    7.2244  -12.4874   24.6363 C   0  0  0  0  0  0  0  0  0  0  0  0
    6.3704  -14.6680   25.3633 C   0  0  2  0  0  0  0  0  0  0  0  0
    6.1344  -15.6565   26.3771 N   0  0  0  0  0  0  0  0  0  0  0  0
    7.2354  -15.2567   24.3144 C   0  0  0  0  0  0  0  0  0  0  0  0
    8.1205  -16.0896   24.6494 O   0  0  0  0  0  0  0  0  0  0  0  0
    7.5501  -15.0909   20.5029 C   0  0  0  0  0  0  0  0  0  0  0  0
    7.7899  -15.6053   21.8899 C   0  0  2  0  0  0  0  0  0  0  0  0
    7.1060  -14.9161   22.9366 N   0  0  0  0  0  0  0  0  0  0  0  0
    9.2724  -15.5937   22.1948 C   0  0  0  0  0  0  0  0  0  0  0  0
    9.8238  -14.4914   22.4019 O   0  0  0  0  0  0  0  0  0  0  0  0
    9.9633  -16.8125   22.2283 N   0  0  0  0  0  0  0  0  0  0  0  0
   11.3854  -16.8996   22.5902 C   0  0  1  0  0  0  0  0  0  0  0  0
   11.5883  -17.8940   23.6703 C   0  0  0  0  0  0  0  0  0  0  0  0
   10.8059  -17.6766   24.9248 C   0  0  0  0  0  0  0  0  0  0  0  0
   11.0171  -18.7745   25.9058 C   0  0  0  0  0  0  0  0  0  0  0  0
   11.8280  -19.7010   25.6585 O   0  0  0  0  0  0  0  0  0  0  0  0
   12.2041  -17.0894   21.3733 C   0  0  0  0  0  0  0  0  0  0  0  0
   13.5642  -16.8860   21.2941 O   0  0  0  0  0  0  0  0  0  0  0  0
   10.3426  -18.8399   27.1396 O   0  0  0  0  0  0  0  0  0  0  0  0
   11.6168  -17.4702   20.3073 O   0  0  0  0  0  0  0  0  0  0  0  0
  1  2  1  0
  2  3  1  0
  3  4  1  6
  3  5  1  0
  5  7  1  0
  5  6  1  1
  7  8  2  0
 10  9  1  6
 10 12  1  0
 11 10  1  0
 11  7  1  0
 12 13  2  0
 12 14  1  0
 14 15  1  0
 15 16  1  1
 16 17  1  0
 18 22  1  0
 18 17  1  0
 19 18  2  0
 20 15  1  0
 20 21  1  0
 23 20  2  0
M  END
$$$$
