FHE.pdb
     RDKit          3D

 31 32  0  0  1  0  0  0  0  0999 V2000
   21.2166  -27.8236  -16.0159 N   0  0  0  0  0  0  0  0  0  0  0  0
   21.9349  -28.6255  -16.9591 C   0  0  1  0  0  0  0  0  0  0  0  0
   21.5989  -28.2489  -18.3856 C   0  0  0  0  0  0  0  0  0  0  0  0
   21.4333  -26.7941  -18.5664 C   0  0  0  0  0  0  0  0  0  0  0  0
   20.2238  -26.1696  -18.3519 C   0  0  0  0  0  0  0  0  0  0  0  0
   20.0629  -24.8123  -18.5181 C   0  0  0  0  0  0  0  0  0  0  0  0
   21.1591  -24.0547  -18.9147 C   0  0  0  0  0  0  0  0  0  0  0  0
   22.3938  -24.6442  -19.1409 C   0  0  0  0  0  0  0  0  0  0  0  0
   22.5157  -26.0111  -18.9632 C   0  0  0  0  0  0  0  0  0  0  0  0
   23.3995  -28.5243  -16.7277 C   0  0  0  0  0  0  0  0  0  0  0  0
   23.8764  -27.8789  -15.7699 O   0  0  0  0  0  0  0  0  0  0  0  0
   24.2803  -29.1898  -17.6346 N   0  0  0  0  0  0  0  0  0  0  0  0
   25.3890  -29.9936  -17.1949 C   0  0  1  0  0  0  0  0  0  0  0  0
   24.9885  -31.0166  -16.1564 C   0  0  0  0  0  0  0  0  0  0  0  0
   26.1845  -31.7095  -15.5884 C   0  0  0  0  0  0  0  0  0  0  0  0
   27.0296  -31.1458  -14.6584 C   0  0  0  0  0  0  0  0  0  0  0  0
   27.9790  -32.0403  -14.3800 N   0  0  0  0  0  0  0  0  0  0  0  0
   27.7532  -33.1541  -15.1119 C   0  0  0  0  0  0  0  0  0  0  0  0
   26.6565  -32.9231  -15.8361 N   0  0  0  0  0  0  0  0  0  0  0  0
   26.0554  -30.7008  -18.2950 C   0  0  0  0  0  0  0  0  0  0  0  0
   25.3898  -31.4956  -18.9993 O   0  0  0  0  0  0  0  0  0  0  0  0
   27.4298  -30.4868  -18.5552 N   0  0  0  0  0  0  0  0  0  0  0  0
   28.1089  -31.2470  -19.5902 C   0  0  1  0  0  0  0  0  0  0  0  0
   29.3199  -31.8940  -18.9543 C   0  0  0  0  0  0  0  0  0  0  0  0
   30.2926  -30.8805  -18.4417 C   0  0  0  0  0  0  0  0  0  0  0  0
   30.8798  -30.1903  -19.6407 C   0  0  0  0  0  0  0  0  0  0  0  0
   31.3983  -30.9283  -20.5071 O   0  0  0  0  0  0  0  0  0  0  0  0
   27.1926  -32.2281  -20.1767 C   0  0  0  0  0  0  0  0  0  0  0  0
   27.1536  -32.5225  -21.5411 O   0  0  0  0  0  0  0  0  0  0  0  0
   30.8534  -28.8208  -19.7863 O   0  0  0  0  0  0  0  0  0  0  0  0
   26.3940  -32.8464  -19.4344 O   0  0  0  0  0  0  0  0  0  0  0  0
  2  1  1  1
  2  3  1  0
  3  4  1  0
  4  5  2  0
  5  6  1  0
  7  6  2  0
  8  7  1  0
  9  8  2  0
  9  4  1  0
 10 11  2  0
 10  2  1  0
 12 10  1  0
 13 12  1  0
 13 14  1  1
 15 16  2  0
 15 14  1  0
 17 16  1  0
 18 19  2  0
 18 17  1  0
 19 15  1  0
 20 13  1  0
 20 22  1  0
 21 20  2  0
 23 22  1  0
 23 28  1  0
 23 24  1  1
 25 24  1  0
 26 27  2  0
 26 25  1  0
 28 29  1  0
 30 26  1  0
 31 28  2  0
M  END
$$$$
