FHE.pdb
     RDKit          3D

 31 32  0  0  1  0  0  0  0  0999 V2000
   23.6640   -9.9368  -17.7279 N   0  0  0  0  0  0  0  0  0  0  0  0
   23.3192   -9.3625  -16.4630 C   0  0  1  0  0  0  0  0  0  0  0  0
   24.4881   -8.6275  -15.8439 C   0  0  0  0  0  0  0  0  0  0  0  0
   25.6965   -9.4671  -15.7375 C   0  0  0  0  0  0  0  0  0  0  0  0
   25.7006  -10.6449  -15.0221 C   0  0  0  0  0  0  0  0  0  0  0  0
   26.8248  -11.4333  -14.9196 C   0  0  0  0  0  0  0  0  0  0  0  0
   27.9881  -11.0220  -15.5603 C   0  0  0  0  0  0  0  0  0  0  0  0
   28.0262   -9.8436  -16.2903 C   0  0  0  0  0  0  0  0  0  0  0  0
   26.8760   -9.0784  -16.3700 C   0  0  0  0  0  0  0  0  0  0  0  0
   22.1497   -8.4555  -16.5986 C   0  0  0  0  0  0  0  0  0  0  0  0
   21.9593   -7.7680  -17.6245 O   0  0  0  0  0  0  0  0  0  0  0  0
   21.2206   -8.3750  -15.5162 N   0  0  0  0  0  0  0  0  0  0  0  0
   19.9836   -7.6466  -15.6043 C   0  0  1  0  0  0  0  0  0  0  0  0
   18.8719   -8.2922  -14.8088 C   0  0  0  0  0  0  0  0  0  0  0  0
   18.3809   -9.5367  -15.4745 C   0  0  0  0  0  0  0  0  0  0  0  0
   18.8335   -9.9847  -16.6958 C   0  0  0  0  0  0  0  0  0  0  0  0
   18.1827  -11.1140  -16.9788 N   0  0  0  0  0  0  0  0  0  0  0  0
   17.3307  -11.3889  -15.9659 C   0  0  0  0  0  0  0  0  0  0  0  0
   17.4737  -10.4131  -15.0671 N   0  0  0  0  0  0  0  0  0  0  0  0
   20.1074   -6.2525  -15.1620 C   0  0  0  0  0  0  0  0  0  0  0  0
   20.7103   -6.0048  -14.0915 O   0  0  0  0  0  0  0  0  0  0  0  0
   19.5533   -5.2044  -15.9346 N   0  0  0  0  0  0  0  0  0  0  0  0
   19.7843   -3.8183  -15.5662 C   0  0  1  0  0  0  0  0  0  0  0  0
   20.2946   -3.1026  -16.7978 C   0  0  0  0  0  0  0  0  0  0  0  0
   19.2441   -2.9896  -17.8560 C   0  0  0  0  0  0  0  0  0  0  0  0
   19.8430   -2.2008  -18.9864 C   0  0  0  0  0  0  0  0  0  0  0  0
   21.0114   -1.7880  -18.8171 O   0  0  0  0  0  0  0  0  0  0  0  0
   18.5510   -3.2247  -15.0439 C   0  0  0  0  0  0  0  0  0  0  0  0
   18.5124   -2.0006  -14.3730 O   0  0  0  0  0  0  0  0  0  0  0  0
   19.1510   -1.9414  -20.1489 O   0  0  0  0  0  0  0  0  0  0  0  0
   17.4636   -3.8291  -15.1955 O   0  0  0  0  0  0  0  0  0  0  0  0
  2  1  1  6
  2  3  1  0
  3  4  1  0
  4  5  2  0
  5  6  1  0
  7  6  2  0
  8  7  1  0
  9  8  2  0
  9  4  1  0
 10 11  2  0
 10  2  1  0
 12 10  1  0
 13 12  1  0
 13 14  1  1
 15 16  2  0
 15 14  1  0
 17 16  1  0
 18 19  2  0
 18 17  1  0
 19 15  1  0
 20 13  1  0
 20 22  1  0
 21 20  2  0
 23 22  1  0
 23 28  1  0
 23 24  1  6
 25 24  1  0
 26 27  2  0
 26 25  1  0
 28 29  1  0
 30 26  1  0
 31 28  2  0
M  END
$$$$
