FHE.pdb
     RDKit          3D

 31 32  0  0  1  0  0  0  0  0999 V2000
   26.1850  -18.5141   -7.5179 N   0  0  0  0  0  0  0  0  0  0  0  0
   26.9425  -19.5888   -8.0835 C   0  0  1  0  0  0  0  0  0  0  0  0
   27.0238  -20.7723   -7.1440 C   0  0  0  0  0  0  0  0  0  0  0  0
   27.8362  -20.4923   -5.9448 C   0  0  0  0  0  0  0  0  0  0  0  0
   29.2081  -20.3788   -6.0084 C   0  0  0  0  0  0  0  0  0  0  0  0
   29.9719  -20.1170   -4.8932 C   0  0  0  0  0  0  0  0  0  0  0  0
   29.3324  -19.9635   -3.6683 C   0  0  0  0  0  0  0  0  0  0  0  0
   27.9539  -20.0699   -3.5610 C   0  0  0  0  0  0  0  0  0  0  0  0
   27.2207  -20.3339   -4.7045 C   0  0  0  0  0  0  0  0  0  0  0  0
   26.3713  -20.0035   -9.3913 C   0  0  0  0  0  0  0  0  0  0  0  0
   25.1390  -20.0376   -9.5957 O   0  0  0  0  0  0  0  0  0  0  0  0
   27.2682  -20.3725  -10.4404 N   0  0  0  0  0  0  0  0  0  0  0  0
   26.9169  -20.2841  -11.8323 C   0  0  1  0  0  0  0  0  0  0  0  0
   28.1073  -20.4743  -12.7446 C   0  0  0  0  0  0  0  0  0  0  0  0
   27.7200  -20.3230  -14.1800 C   0  0  0  0  0  0  0  0  0  0  0  0
   26.4369  -20.0602  -14.6062 C   0  0  0  0  0  0  0  0  0  0  0  0
   26.4594  -19.9907  -15.9379 N   0  0  0  0  0  0  0  0  0  0  0  0
   27.7252  -20.2034  -16.3618 C   0  0  0  0  0  0  0  0  0  0  0  0
   28.4681  -20.4023  -15.2713 N   0  0  0  0  0  0  0  0  0  0  0  0
   25.8852  -21.2514  -12.2251 C   0  0  0  0  0  0  0  0  0  0  0  0
   26.0936  -22.4731  -12.0383 O   0  0  0  0  0  0  0  0  0  0  0  0
   24.6730  -20.8091  -12.8060 N   0  0  0  0  0  0  0  0  0  0  0  0
   23.5998  -21.7507  -13.0740 C   0  0  1  0  0  0  0  0  0  0  0  0
   22.3114  -21.1135  -12.6013 C   0  0  0  0  0  0  0  0  0  0  0  0
   21.7371  -20.1854  -13.6235 C   0  0  0  0  0  0  0  0  0  0  0  0
   20.7174  -19.3345  -12.9200 C   0  0  0  0  0  0  0  0  0  0  0  0
   19.9918  -19.9157  -12.0833 O   0  0  0  0  0  0  0  0  0  0  0  0
   23.5690  -22.0856  -14.4998 C   0  0  0  0  0  0  0  0  0  0  0  0
   24.2316  -21.3411  -15.4779 O   0  0  0  0  0  0  0  0  0  0  0  0
   20.5817  -17.9878  -13.1759 O   0  0  0  0  0  0  0  0  0  0  0  0
   22.9209  -23.0873  -14.8839 O   0  0  0  0  0  0  0  0  0  0  0  0
  2  1  1  1
  2  3  1  0
  3  4  1  0
  4  5  2  0
  5  6  1  0
  7  6  2  0
  8  7  1  0
  9  8  2  0
  9  4  1  0
 10 11  2  0
 10  2  1  0
 12 10  1  0
 13 12  1  0
 13 14  1  6
 15 16  2  0
 15 14  1  0
 17 16  1  0
 18 19  2  0
 18 17  1  0
 19 15  1  0
 20 13  1  0
 20 22  1  0
 21 20  2  0
 23 22  1  0
 23 28  1  0
 23 24  1  6
 25 24  1  0
 26 27  2  0
 26 25  1  0
 28 29  1  0
 30 26  1  0
 31 28  2  0
M  END
$$$$
