FHE.pdb
     RDKit          3D

 31 32  0  0  1  0  0  0  0  0999 V2000
   22.9026  -31.6885  -11.2275 N   0  0  0  0  0  0  0  0  0  0  0  0
   23.0932  -32.6334  -10.1695 C   0  0  1  0  0  0  0  0  0  0  0  0
   24.5343  -32.6771   -9.7099 C   0  0  0  0  0  0  0  0  0  0  0  0
   25.4225  -33.3393  -10.6841 C   0  0  0  0  0  0  0  0  0  0  0  0
   25.6326  -34.7011  -10.6653 C   0  0  0  0  0  0  0  0  0  0  0  0
   26.4597  -35.3252  -11.5720 C   0  0  0  0  0  0  0  0  0  0  0  0
   27.0994  -34.5511  -12.5335 C   0  0  0  0  0  0  0  0  0  0  0  0
   26.9150  -33.1777  -12.5870 C   0  0  0  0  0  0  0  0  0  0  0  0
   26.0760  -32.5872  -11.6585 C   0  0  0  0  0  0  0  0  0  0  0  0
   22.1935  -32.3310   -9.0259 C   0  0  0  0  0  0  0  0  0  0  0  0
   21.3361  -31.4235   -9.0788 O   0  0  0  0  0  0  0  0  0  0  0  0
   22.3214  -33.1084   -7.8340 N   0  0  0  0  0  0  0  0  0  0  0  0
   21.1883  -33.5402   -7.0605 C   0  0  1  0  0  0  0  0  0  0  0  0
   20.1620  -34.2735   -7.8938 C   0  0  0  0  0  0  0  0  0  0  0  0
   18.9171  -34.5387   -7.1109 C   0  0  0  0  0  0  0  0  0  0  0  0
   18.7349  -35.6429   -6.3079 C   0  0  0  0  0  0  0  0  0  0  0  0
   17.5188  -35.5538   -5.7677 N   0  0  0  0  0  0  0  0  0  0  0  0
   16.9296  -34.4205   -6.2105 C   0  0  0  0  0  0  0  0  0  0  0  0
   17.8033  -33.8253   -7.0247 N   0  0  0  0  0  0  0  0  0  0  0  0
   21.5599  -34.4049   -5.9342 C   0  0  0  0  0  0  0  0  0  0  0  0
   22.1618  -35.4799   -6.1649 O   0  0  0  0  0  0  0  0  0  0  0  0
   21.2425  -34.0286   -4.6075 N   0  0  0  0  0  0  0  0  0  0  0  0
   21.4965  -34.9392   -3.5045 C   0  0  1  0  0  0  0  0  0  0  0  0
   20.3211  -34.8398   -2.5569 C   0  0  0  0  0  0  0  0  0  0  0  0
   20.7545  -34.5565   -1.1540 C   0  0  0  0  0  0  0  0  0  0  0  0
   21.1274  -33.1018   -1.0953 C   0  0  0  0  0  0  0  0  0  0  0  0
   20.1896  -32.2832   -1.2153 O   0  0  0  0  0  0  0  0  0  0  0  0
   21.6946  -36.2995   -4.0109 C   0  0  0  0  0  0  0  0  0  0  0  0
   20.8669  -36.8908   -4.9676 O   0  0  0  0  0  0  0  0  0  0  0  0
   22.4280  -32.6833   -0.9193 O   0  0  0  0  0  0  0  0  0  0  0  0
   22.6494  -36.9858   -3.5770 O   0  0  0  0  0  0  0  0  0  0  0  0
  2  1  1  6
  2  3  1  0
  3  4  1  0
  4  5  2  0
  5  6  1  0
  7  6  2  0
  8  7  1  0
  9  8  2  0
  9  4  1  0
 10 11  2  0
 10  2  1  0
 12 10  1  0
 13 12  1  0
 13 14  1  6
 15 16  2  0
 15 14  1  0
 17 16  1  0
 18 19  2  0
 18 17  1  0
 19 15  1  0
 20 13  1  0
 20 22  1  0
 21 20  2  0
 23 22  1  0
 23 28  1  0
 23 24  1  1
 25 24  1  0
 26 27  2  0
 26 25  1  0
 28 29  1  0
 30 26  1  0
 31 28  2  0
M  END
$$$$
