FHE.pdb
     RDKit          3D

 31 32  0  0  1  0  0  0  0  0999 V2000
   27.6026  -22.0667  -12.3258 N   0  0  0  0  0  0  0  0  0  0  0  0
   26.4325  -21.4208  -11.8136 C   0  0  1  0  0  0  0  0  0  0  0  0
   26.7658  -20.1041  -11.1465 C   0  0  0  0  0  0  0  0  0  0  0  0
   27.4028  -20.2796   -9.8274 C   0  0  0  0  0  0  0  0  0  0  0  0
   28.7665  -20.4263   -9.6943 C   0  0  0  0  0  0  0  0  0  0  0  0
   29.3672  -20.5897   -8.4661 C   0  0  0  0  0  0  0  0  0  0  0  0
   28.5667  -20.6061   -7.3295 C   0  0  0  0  0  0  0  0  0  0  0  0
   27.1905  -20.4617   -7.4198 C   0  0  0  0  0  0  0  0  0  0  0  0
   26.6240  -20.2997   -8.6719 C   0  0  0  0  0  0  0  0  0  0  0  0
   25.4301  -21.2164  -12.8917 C   0  0  0  0  0  0  0  0  0  0  0  0
   25.7560  -20.8368  -14.0367 O   0  0  0  0  0  0  0  0  0  0  0  0
   24.0540  -21.4648  -12.5987 N   0  0  0  0  0  0  0  0  0  0  0  0
   23.0232  -21.4148  -13.6005 C   0  0  1  0  0  0  0  0  0  0  0  0
   22.3369  -22.7478  -13.7942 C   0  0  0  0  0  0  0  0  0  0  0  0
   21.3473  -22.6907  -14.9125 C   0  0  0  0  0  0  0  0  0  0  0  0
   21.0196  -21.5375  -15.5905 C   0  0  0  0  0  0  0  0  0  0  0  0
   20.1127  -21.8560  -16.5152 N   0  0  0  0  0  0  0  0  0  0  0  0
   19.8605  -23.1817  -16.4366 C   0  0  0  0  0  0  0  0  0  0  0  0
   20.6252  -23.6614  -15.4540 N   0  0  0  0  0  0  0  0  0  0  0  0
   21.9919  -20.4113  -13.3113 C   0  0  0  0  0  0  0  0  0  0  0  0
   21.4219  -20.4285  -12.1952 O   0  0  0  0  0  0  0  0  0  0  0  0
   21.6474  -19.4389  -14.2800 N   0  0  0  0  0  0  0  0  0  0  0  0
   20.6249  -18.4473  -13.9948 C   0  0  1  0  0  0  0  0  0  0  0  0
   20.6758  -17.4152  -15.1001 C   0  0  0  0  0  0  0  0  0  0  0  0
   20.8997  -18.0398  -16.4402 C   0  0  0  0  0  0  0  0  0  0  0  0
   20.8363  -16.9338  -17.4558 C   0  0  0  0  0  0  0  0  0  0  0  0
   20.5821  -15.7908  -17.0165 O   0  0  0  0  0  0  0  0  0  0  0  0
   19.3138  -19.0925  -13.8906 C   0  0  0  0  0  0  0  0  0  0  0  0
   18.8938  -20.1193  -14.7387 O   0  0  0  0  0  0  0  0  0  0  0  0
   21.0453  -17.1569  -18.7990 O   0  0  0  0  0  0  0  0  0  0  0  0
   18.5121  -18.7196  -13.0023 O   0  0  0  0  0  0  0  0  0  0  0  0
  2  1  1  6
  2  3  1  0
  3  4  1  0
  4  5  2  0
  5  6  1  0
  7  6  2  0
  8  7  1  0
  9  8  2  0
  9  4  1  0
 10 11  2  0
 10  2  1  0
 12 10  1  0
 13 12  1  0
 13 14  1  1
 15 16  2  0
 15 14  1  0
 17 16  1  0
 18 19  2  0
 18 17  1  0
 19 15  1  0
 20 13  1  0
 20 22  1  0
 21 20  2  0
 23 22  1  0
 23 28  1  0
 23 24  1  6
 25 24  1  0
 26 27  2  0
 26 25  1  0
 28 29  1  0
 30 26  1  0
 31 28  2  0
M  END
$$$$
