FHE.pdb
     RDKit          3D

 31 32  0  0  1  0  0  0  0  0999 V2000
   24.4042  -10.4283  -17.8355 N   0  0  0  0  0  0  0  0  0  0  0  0
   24.2374   -9.5474  -16.7198 C   0  0  1  0  0  0  0  0  0  0  0  0
   25.4737   -8.7091  -16.4779 C   0  0  0  0  0  0  0  0  0  0  0  0
   26.6930   -9.5249  -16.3222 C   0  0  0  0  0  0  0  0  0  0  0  0
   27.8340   -9.2704  -17.0517 C   0  0  0  0  0  0  0  0  0  0  0  0
   28.9754  -10.0274  -16.9105 C   0  0  0  0  0  0  0  0  0  0  0  0
   28.9691  -11.0797  -16.0019 C   0  0  0  0  0  0  0  0  0  0  0  0
   27.8417  -11.3693  -15.2482 C   0  0  0  0  0  0  0  0  0  0  0  0
   26.7140  -10.5856  -15.4184 C   0  0  0  0  0  0  0  0  0  0  0  0
   23.0492   -8.6753  -16.9114 C   0  0  0  0  0  0  0  0  0  0  0  0
   22.5203   -8.5122  -18.0316 O   0  0  0  0  0  0  0  0  0  0  0  0
   22.5030   -8.0079  -15.7723 N   0  0  0  0  0  0  0  0  0  0  0  0
   21.2629   -7.2808  -15.8163 C   0  0  1  0  0  0  0  0  0  0  0  0
   20.5288   -7.3046  -14.4949 C   0  0  0  0  0  0  0  0  0  0  0  0
   19.7946   -8.5923  -14.3056 C   0  0  0  0  0  0  0  0  0  0  0  0
   19.7922   -9.6179  -15.2249 C   0  0  0  0  0  0  0  0  0  0  0  0
   19.0408  -10.6026  -14.7303 N   0  0  0  0  0  0  0  0  0  0  0  0
   18.5693  -10.2229  -13.5216 C   0  0  0  0  0  0  0  0  0  0  0  0
   19.0441   -8.9974  -13.2909 N   0  0  0  0  0  0  0  0  0  0  0  0
   21.4350   -5.8786  -16.2144 C   0  0  0  0  0  0  0  0  0  0  0  0
   22.1849   -5.1402  -15.5336 O   0  0  0  0  0  0  0  0  0  0  0  0
   20.7633   -5.3694  -17.3511 N   0  0  0  0  0  0  0  0  0  0  0  0
   20.9611   -3.9913  -17.7656 C   0  0  1  0  0  0  0  0  0  0  0  0
   20.7677   -3.9386  -19.2654 C   0  0  0  0  0  0  0  0  0  0  0  0
   21.7800   -4.7667  -19.9905 C   0  0  0  0  0  0  0  0  0  0  0  0
   21.5008   -4.6143  -21.4593 C   0  0  0  0  0  0  0  0  0  0  0  0
   20.2969   -4.5440  -21.7910 O   0  0  0  0  0  0  0  0  0  0  0  0
   20.0328   -3.1127  -17.0498 C   0  0  0  0  0  0  0  0  0  0  0  0
   19.0373   -3.5837  -16.1912 O   0  0  0  0  0  0  0  0  0  0  0  0
   22.5086   -4.5544  -22.3965 O   0  0  0  0  0  0  0  0  0  0  0  0
   20.1182   -1.8714  -17.2010 O   0  0  0  0  0  0  0  0  0  0  0  0
  2  1  1  6
  2  3  1  0
  3  4  1  0
  4  5  2  0
  5  6  1  0
  7  6  2  0
  8  7  1  0
  9  8  2  0
  9  4  1  0
 10 11  2  0
 10  2  1  0
 12 10  1  0
 13 12  1  0
 13 14  1  1
 15 16  2  0
 15 14  1  0
 17 16  1  0
 18 19  2  0
 18 17  1  0
 19 15  1  0
 20 13  1  0
 20 22  1  0
 21 20  2  0
 23 22  1  0
 23 28  1  0
 23 24  1  6
 25 24  1  0
 26 27  2  0
 26 25  1  0
 28 29  1  0
 30 26  1  0
 31 28  2  0
M  END
$$$$
