FHE.pdb
     RDKit          3D

 31 32  0  0  1  0  0  0  0  0999 V2000
   27.6050  -21.0740  -14.7284 N   0  0  0  0  0  0  0  0  0  0  0  0
   26.5737  -21.5147  -13.8391 C   0  0  1  0  0  0  0  0  0  0  0  0
   26.4451  -20.6061  -12.6359 C   0  0  0  0  0  0  0  0  0  0  0  0
   27.6716  -20.5691  -11.8169 C   0  0  0  0  0  0  0  0  0  0  0  0
   28.6839  -19.6682  -12.0669 C   0  0  0  0  0  0  0  0  0  0  0  0
   29.8305  -19.6281  -11.3058 C   0  0  0  0  0  0  0  0  0  0  0  0
   29.9643  -20.5273  -10.2540 C   0  0  0  0  0  0  0  0  0  0  0  0
   28.9691  -21.4500   -9.9687 C   0  0  0  0  0  0  0  0  0  0  0  0
   27.8314  -21.4592  -10.7564 C   0  0  0  0  0  0  0  0  0  0  0  0
   25.2736  -21.6183  -14.5517 C   0  0  0  0  0  0  0  0  0  0  0  0
   24.7413  -20.6333  -15.1063 O   0  0  0  0  0  0  0  0  0  0  0  0
   24.6212  -22.8885  -14.5979 N   0  0  0  0  0  0  0  0  0  0  0  0
   23.3480  -23.0872  -15.2368 C   0  0  1  0  0  0  0  0  0  0  0  0
   23.2775  -24.3918  -15.9974 C   0  0  0  0  0  0  0  0  0  0  0  0
   22.0165  -24.4877  -16.7936 C   0  0  0  0  0  0  0  0  0  0  0  0
   21.8240  -23.8636  -18.0062 C   0  0  0  0  0  0  0  0  0  0  0  0
   20.5947  -24.1661  -18.4261 N   0  0  0  0  0  0  0  0  0  0  0  0
   20.0074  -24.9656  -17.5078 C   0  0  0  0  0  0  0  0  0  0  0  0
   20.8955  -25.1432  -16.5278 N   0  0  0  0  0  0  0  0  0  0  0  0
   22.2228  -23.0498  -14.2949 C   0  0  0  0  0  0  0  0  0  0  0  0
   22.3283  -23.6445  -13.1967 O   0  0  0  0  0  0  0  0  0  0  0  0
   21.0367  -22.3516  -14.6239 N   0  0  0  0  0  0  0  0  0  0  0  0
   19.9493  -22.2576  -13.6654 C   0  0  1  0  0  0  0  0  0  0  0  0
   19.4749  -20.8208  -13.6599 C   0  0  0  0  0  0  0  0  0  0  0  0
   20.5092  -19.8911  -13.1103 C   0  0  0  0  0  0  0  0  0  0  0  0
   19.9136  -18.5114  -13.1296 C   0  0  0  0  0  0  0  0  0  0  0  0
   18.7044  -18.4332  -13.4389 O   0  0  0  0  0  0  0  0  0  0  0  0
   18.8836  -23.1982  -14.0201 C   0  0  0  0  0  0  0  0  0  0  0  0
   18.5462  -23.5149  -15.3376 O   0  0  0  0  0  0  0  0  0  0  0  0
   20.6511  -17.3885  -12.8248 O   0  0  0  0  0  0  0  0  0  0  0  0
   18.2282  -23.7588  -13.1106 O   0  0  0  0  0  0  0  0  0  0  0  0
  2  1  1  6
  2  3  1  0
  3  4  1  0
  4  5  2  0
  5  6  1  0
  7  6  2  0
  8  7  1  0
  9  8  2  0
  9  4  1  0
 10 11  2  0
 10  2  1  0
 12 10  1  0
 13 12  1  0
 13 14  1  1
 15 16  2  0
 15 14  1  0
 17 16  1  0
 18 19  2  0
 18 17  1  0
 19 15  1  0
 20 13  1  0
 20 22  1  0
 21 20  2  0
 23 22  1  0
 23 28  1  0
 23 24  1  6
 25 24  1  0
 26 27  2  0
 26 25  1  0
 28 29  1  0
 30 26  1  0
 31 28  2  0
M  END
$$$$
