FHE.pdb
     RDKit          3D

 31 32  0  0  1  0  0  0  0  0999 V2000
   21.3133  -12.7898  -17.4586 N   0  0  0  0  0  0  0  0  0  0  0  0
   21.4340  -11.6791  -18.3533 C   0  0  1  0  0  0  0  0  0  0  0  0
   20.1825  -11.4889  -19.1824 C   0  0  0  0  0  0  0  0  0  0  0  0
   19.8734  -12.6608  -20.0236 C   0  0  0  0  0  0  0  0  0  0  0  0
   18.7070  -13.3779  -19.8680 C   0  0  0  0  0  0  0  0  0  0  0  0
   18.4123  -14.4720  -20.6502 C   0  0  0  0  0  0  0  0  0  0  0  0
   19.3244  -14.8595  -21.6252 C   0  0  0  0  0  0  0  0  0  0  0  0
   20.5099  -14.1652  -21.8143 C   0  0  0  0  0  0  0  0  0  0  0  0
   20.7702  -13.0708  -21.0084 C   0  0  0  0  0  0  0  0  0  0  0  0
   21.7551  -10.4349  -17.6066 C   0  0  0  0  0  0  0  0  0  0  0  0
   21.2246  -10.1654  -16.5079 O   0  0  0  0  0  0  0  0  0  0  0  0
   22.7013   -9.5259  -18.1719 N   0  0  0  0  0  0  0  0  0  0  0  0
   22.9653   -8.2280  -17.6112 C   0  0  1  0  0  0  0  0  0  0  0  0
   24.2236   -7.6007  -18.1667 C   0  0  0  0  0  0  0  0  0  0  0  0
   24.5427   -6.3175  -17.4704 C   0  0  0  0  0  0  0  0  0  0  0  0
   23.7964   -5.7985  -16.4356 C   0  0  0  0  0  0  0  0  0  0  0  0
   24.3675   -4.6533  -16.0599 N   0  0  0  0  0  0  0  0  0  0  0  0
   25.4556   -4.4375  -16.8325 C   0  0  0  0  0  0  0  0  0  0  0  0
   25.5360   -5.4652  -17.6798 N   0  0  0  0  0  0  0  0  0  0  0  0
   21.8606   -7.2824  -17.8112 C   0  0  0  0  0  0  0  0  0  0  0  0
   21.3725   -7.1504  -18.9581 O   0  0  0  0  0  0  0  0  0  0  0  0
   21.3551   -6.5316  -16.7235 N   0  0  0  0  0  0  0  0  0  0  0  0
   20.3752   -5.4827  -16.9467 C   0  0  1  0  0  0  0  0  0  0  0  0
   19.1024   -5.8958  -16.2405 C   0  0  0  0  0  0  0  0  0  0  0  0
   18.4744   -7.0961  -16.8738 C   0  0  0  0  0  0  0  0  0  0  0  0
   17.2292   -7.4044  -16.0907 C   0  0  0  0  0  0  0  0  0  0  0  0
   16.6490   -6.4294  -15.5644 O   0  0  0  0  0  0  0  0  0  0  0  0
   20.8928   -4.2000  -16.4639 C   0  0  0  0  0  0  0  0  0  0  0  0
   20.4350   -2.9644  -16.9259 O   0  0  0  0  0  0  0  0  0  0  0  0
   16.7457   -8.6870  -15.9544 O   0  0  0  0  0  0  0  0  0  0  0  0
   21.7929   -4.1875  -15.5918 O   0  0  0  0  0  0  0  0  0  0  0  0
  2  1  1  1
  2  3  1  0
  3  4  1  0
  4  5  2  0
  5  6  1  0
  7  6  2  0
  8  7  1  0
  9  8  2  0
  9  4  1  0
 10 11  2  0
 10  2  1  0
 12 10  1  0
 13 12  1  0
 13 14  1  6
 15 16  2  0
 15 14  1  0
 17 16  1  0
 18 19  2  0
 18 17  1  0
 19 15  1  0
 20 13  1  0
 20 22  1  0
 21 20  2  0
 23 22  1  0
 23 28  1  0
 23 24  1  1
 25 24  1  0
 26 27  2  0
 26 25  1  0
 28 29  1  0
 30 26  1  0
 31 28  2  0
M  END
$$$$
