MLD.pdb
     RDKit          3D

 25 24  0  0  1  0  0  0  0  0999 V2000
    5.3697  -12.0527   26.8513 C   0  0  0  0  0  0  0  0  0  0  0  0
    7.1083  -11.6854   27.2356 S   0  0  0  0  0  0  0  0  0  0  0  0
    8.1730  -13.0712   26.7902 C   0  0  0  0  0  0  0  0  0  0  0  0
    7.4903  -13.9727   25.8305 C   0  0  0  0  0  0  0  0  0  0  0  0
    8.2145  -15.1692   25.3401 C   0  0  2  0  0  0  0  0  0  0  0  0
    9.6654  -14.8527   25.3507 N   0  0  0  0  0  0  0  0  0  0  0  0
    7.8947  -15.6625   24.0025 C   0  0  0  0  0  0  0  0  0  0  0  0
    6.8024  -16.2701   23.7677 O   0  0  0  0  0  0  0  0  0  0  0  0
    8.3038  -12.4055   20.0743 C   0  0  0  0  0  0  0  0  0  0  0  0
    7.9550  -13.5081   21.0517 C   0  0  1  0  0  0  0  0  0  0  0  0
    6.4486  -13.7191   20.9462 C   0  0  0  0  0  0  0  0  0  0  0  0
    8.6625  -14.7505   20.5937 C   0  0  0  0  0  0  0  0  0  0  0  0
    8.4847  -15.9114   21.5669 C   0  0  2  0  0  0  0  0  0  0  0  0
    8.8025  -15.4712   22.9322 N   0  0  0  0  0  0  0  0  0  0  0  0
    9.5275  -16.8968   21.1896 C   0  0  0  0  0  0  0  0  0  0  0  0
    9.4118  -17.5015   20.0971 O   0  0  0  0  0  0  0  0  0  0  0  0
   10.6485  -17.1773   22.0212 N   0  0  0  0  0  0  0  0  0  0  0  0
   11.5198  -18.2591   21.6312 C   0  0  1  0  0  0  0  0  0  0  0  0
   12.9481  -17.7968   21.6636 C   0  0  0  0  0  0  0  0  0  0  0  0
   13.2700  -16.9882   20.4752 C   0  0  0  0  0  0  0  0  0  0  0  0
   12.5139  -16.9702   19.4864 O   0  0  0  0  0  0  0  0  0  0  0  0
   11.4454  -19.3990   22.6168 C   0  0  0  0  0  0  0  0  0  0  0  0
   10.6454  -19.2576   23.5732 O   0  0  0  0  0  0  0  0  0  0  0  0
   14.4454  -16.2425   20.4870 O   0  0  0  0  0  0  0  0  0  0  0  0
   12.2227  -20.5094   22.4440 O   0  0  0  0  0  0  0  0  0  0  0  0
  1  2  1  0
  3  4  1  0
  3  2  1  0
  5  4  1  0
  5  6  1  6
  7  5  1  0
  8  7  2  0
 10  9  1  6
 11 10  1  0
 12 10  1  0
 13 12  1  6
 13 14  1  0
 14  7  1  0
 15 13  1  0
 15 17  1  0
 16 15  2  0
 18 19  1  1
 18 22  1  0
 18 17  1  0
 19 20  1  0
 20 24  1  0
 20 21  2  0
 22 25  1  0
 23 22  2  0
M  END
$$$$
