MLD.pdb
     RDKit          3D

 25 24  0  0  1  0  0  0  0  0999 V2000
    9.1648  -12.8793   28.3797 C   0  0  0  0  0  0  0  0  0  0  0  0
    9.9457  -14.3949   29.0109 S   0  0  0  0  0  0  0  0  0  0  0  0
    9.5538  -15.8070   27.9599 C   0  0  0  0  0  0  0  0  0  0  0  0
    8.3120  -15.5601   27.1873 C   0  0  0  0  0  0  0  0  0  0  0  0
    7.7275  -16.6750   26.4050 C   0  0  2  0  0  0  0  0  0  0  0  0
    8.3785  -17.9311   26.8563 N   0  0  0  0  0  0  0  0  0  0  0  0
    7.8511  -16.6287   24.9499 C   0  0  0  0  0  0  0  0  0  0  0  0
    7.9360  -17.6947   24.2613 O   0  0  0  0  0  0  0  0  0  0  0  0
    6.5695  -13.9122   20.4817 C   0  0  0  0  0  0  0  0  0  0  0  0
    8.0185  -13.7088   20.8708 C   0  0  1  0  0  0  0  0  0  0  0  0
    8.3694  -12.2730   20.4965 C   0  0  0  0  0  0  0  0  0  0  0  0
    8.1069  -13.8679   22.3610 C   0  0  0  0  0  0  0  0  0  0  0  0
    7.8806  -15.3096   22.8049 C   0  0  2  0  0  0  0  0  0  0  0  0
    7.8781  -15.3853   24.2722 N   0  0  0  0  0  0  0  0  0  0  0  0
    9.0827  -16.0492   22.3480 C   0  0  0  0  0  0  0  0  0  0  0  0
    9.0109  -16.7078   21.2833 O   0  0  0  0  0  0  0  0  0  0  0  0
   10.3077  -16.0363   23.0732 N   0  0  0  0  0  0  0  0  0  0  0  0
   11.4590  -16.6505   22.4575 C   0  0  1  0  0  0  0  0  0  0  0  0
   12.0810  -15.6956   21.4797 C   0  0  0  0  0  0  0  0  0  0  0  0
   13.2171  -16.3196   20.7800 C   0  0  0  0  0  0  0  0  0  0  0  0
   13.5633  -17.4886   21.0320 O   0  0  0  0  0  0  0  0  0  0  0  0
   12.5334  -16.9356   23.4776 C   0  0  0  0  0  0  0  0  0  0  0  0
   13.6056  -17.4171   23.0382 O   0  0  0  0  0  0  0  0  0  0  0  0
   13.8956  -15.5656   19.8266 O   0  0  0  0  0  0  0  0  0  0  0  0
   12.3139  -16.6705   24.8000 O   0  0  0  0  0  0  0  0  0  0  0  0
  1  2  1  0
  3  4  1  0
  3  2  1  0
  5  4  1  0
  5  6  1  1
  7  5  1  0
  8  7  2  0
 10  9  1  1
 11 10  1  0
 12 10  1  0
 13 12  1  1
 13 14  1  0
 14  7  1  0
 15 13  1  0
 15 17  1  0
 16 15  2  0
 18 19  1  6
 18 22  1  0
 18 17  1  0
 19 20  1  0
 20 24  1  0
 20 21  2  0
 22 25  1  0
 23 22  2  0
M  END
$$$$
