MLD.pdb
     RDKit          3D

 25 24  0  0  1  0  0  0  0  0999 V2000
    7.5521  -10.7820   19.9302 C   0  0  0  0  0  0  0  0  0  0  0  0
    8.1743  -12.4228   19.4547 S   0  0  0  0  0  0  0  0  0  0  0  0
    8.0186  -13.5910   20.8197 C   0  0  0  0  0  0  0  0  0  0  0  0
    8.4838  -14.9398   20.4144 C   0  0  0  0  0  0  0  0  0  0  0  0
    8.4959  -16.0220   21.4270 C   0  0  2  0  0  0  0  0  0  0  0  0
    7.1065  -16.5289   21.5605 N   0  0  0  0  0  0  0  0  0  0  0  0
    8.9626  -15.6954   22.7724 C   0  0  0  0  0  0  0  0  0  0  0  0
   10.1568  -15.3105   22.9806 O   0  0  0  0  0  0  0  0  0  0  0  0
    5.7762  -13.1882   26.5984 C   0  0  0  0  0  0  0  0  0  0  0  0
    6.9627  -13.5542   25.7319 C   0  0  1  0  0  0  0  0  0  0  0  0
    8.1009  -12.6265   26.1428 C   0  0  0  0  0  0  0  0  0  0  0  0
    7.3352  -14.9709   26.0605 C   0  0  0  0  0  0  0  0  0  0  0  0
    8.5240  -15.4630   25.2414 C   0  0  2  0  0  0  0  0  0  0  0  0
    8.0864  -15.8012   23.8801 N   0  0  0  0  0  0  0  0  0  0  0  0
    8.9337  -16.7378   25.8799 C   0  0  0  0  0  0  0  0  0  0  0  0
    8.0396  -17.5297   26.2623 O   0  0  0  0  0  0  0  0  0  0  0  0
   10.2996  -17.0903   26.0721 N   0  0  0  0  0  0  0  0  0  0  0  0
   10.5842  -18.3662   26.6827 C   0  0  1  0  0  0  0  0  0  0  0  0
   11.9342  -18.8511   26.2385 C   0  0  0  0  0  0  0  0  0  0  0  0
   12.1270  -18.6315   24.7948 C   0  0  0  0  0  0  0  0  0  0  0  0
   11.3271  -19.0964   23.9618 O   0  0  0  0  0  0  0  0  0  0  0  0
   10.6773  -18.2417   28.1834 C   0  0  0  0  0  0  0  0  0  0  0  0
   10.8543  -19.3077   28.8213 O   0  0  0  0  0  0  0  0  0  0  0  0
   13.2304  -17.8882   24.3851 O   0  0  0  0  0  0  0  0  0  0  0  0
   10.5698  -17.0170   28.7798 O   0  0  0  0  0  0  0  0  0  0  0  0
  1  2  1  0
  3  4  1  0
  3  2  1  0
  5  4  1  0
  5  6  1  1
  7  5  1  0
  8  7  2  0
 10  9  1  1
 11 10  1  0
 12 10  1  0
 13 12  1  1
 13 14  1  0
 14  7  1  0
 15 13  1  0
 15 17  1  0
 16 15  2  0
 18 19  1  6
 18 22  1  0
 18 17  1  0
 19 20  1  0
 20 24  1  0
 20 21  2  0
 22 25  1  0
 23 22  2  0
M  END
$$$$
