MLD.pdb
     RDKit          3D

 25 24  0  0  1  0  0  0  0  0999 V2000
    8.3625  -11.2381   19.8620 C   0  0  0  0  0  0  0  0  0  0  0  0
    7.1277  -12.5139   19.4709 S   0  0  0  0  0  0  0  0  0  0  0  0
    7.2082  -13.8724   20.6542 C   0  0  0  0  0  0  0  0  0  0  0  0
    8.4073  -14.7112   20.4124 C   0  0  0  0  0  0  0  0  0  0  0  0
    8.7122  -15.8068   21.3628 C   0  0  2  0  0  0  0  0  0  0  0  0
    7.5055  -16.6668   21.4604 N   0  0  0  0  0  0  0  0  0  0  0  0
    9.0898  -15.4443   22.7270 C   0  0  0  0  0  0  0  0  0  0  0  0
   10.2675  -15.0511   23.0025 O   0  0  0  0  0  0  0  0  0  0  0  0
    5.8913  -12.7889   26.4893 C   0  0  0  0  0  0  0  0  0  0  0  0
    7.0973  -13.2137   25.6783 C   0  0  1  0  0  0  0  0  0  0  0  0
    8.2873  -12.4398   26.2350 C   0  0  0  0  0  0  0  0  0  0  0  0
    7.3036  -14.6809   25.9204 C   0  0  0  0  0  0  0  0  0  0  0  0
    8.5125  -15.2286   25.1687 C   0  0  2  0  0  0  0  0  0  0  0  0
    8.1433  -15.5238   23.7775 N   0  0  0  0  0  0  0  0  0  0  0  0
    8.8099  -16.5326   25.8104 C   0  0  0  0  0  0  0  0  0  0  0  0
    7.9540  -17.4459   25.7339 O   0  0  0  0  0  0  0  0  0  0  0  0
   10.0271  -16.7805   26.5059 N   0  0  0  0  0  0  0  0  0  0  0  0
   10.4334  -18.1540   26.6796 C   0  0  1  0  0  0  0  0  0  0  0  0
   11.1962  -18.6139   25.4706 C   0  0  0  0  0  0  0  0  0  0  0  0
   10.5213  -19.7496   24.8192 C   0  0  0  0  0  0  0  0  0  0  0  0
    9.4652  -20.2201   25.2809 O   0  0  0  0  0  0  0  0  0  0  0  0
   11.3926  -18.2949   27.8357 C   0  0  0  0  0  0  0  0  0  0  0  0
   11.7097  -19.4656   28.1575 O   0  0  0  0  0  0  0  0  0  0  0  0
   11.0971  -20.2845   23.6702 O   0  0  0  0  0  0  0  0  0  0  0  0
   11.8688  -17.1842   28.4734 O   0  0  0  0  0  0  0  0  0  0  0  0
  1  2  1  0
  3  4  1  0
  3  2  1  0
  5  4  1  0
  5  6  1  1
  7  5  1  0
  8  7  2  0
 10  9  1  1
 11 10  1  0
 12 10  1  0
 13 12  1  1
 13 14  1  0
 14  7  1  0
 15 13  1  0
 15 17  1  0
 16 15  2  0
 18 19  1  6
 18 22  1  0
 18 17  1  0
 19 20  1  0
 20 24  1  0
 20 21  2  0
 22 25  1  0
 23 22  2  0
M  END
$$$$
