MLD.pdb
     RDKit          3D

 25 24  0  0  1  0  0  0  0  0999 V2000
   10.1491  -13.1348   27.9583 C   0  0  0  0  0  0  0  0  0  0  0  0
    8.5448  -13.7700   27.3856 S   0  0  0  0  0  0  0  0  0  0  0  0
    8.5256  -15.5732   27.3950 C   0  0  0  0  0  0  0  0  0  0  0  0
    7.2202  -16.0886   26.9152 C   0  0  0  0  0  0  0  0  0  0  0  0
    7.2109  -17.2126   25.9491 C   0  0  2  0  0  0  0  0  0  0  0  0
    8.1965  -18.2187   26.4198 N   0  0  0  0  0  0  0  0  0  0  0  0
    7.5330  -16.9191   24.5544 C   0  0  0  0  0  0  0  0  0  0  0  0
    7.6698  -17.8507   23.6994 O   0  0  0  0  0  0  0  0  0  0  0  0
    6.8917  -13.7284   20.2885 C   0  0  0  0  0  0  0  0  0  0  0  0
    8.1038  -13.3226   21.1001 C   0  0  1  0  0  0  0  0  0  0  0  0
    8.1880  -11.8022   21.0211 C   0  0  0  0  0  0  0  0  0  0  0  0
    7.8462  -13.7312   22.5215 C   0  0  0  0  0  0  0  0  0  0  0  0
    7.8744  -15.2453   22.7041 C   0  0  2  0  0  0  0  0  0  0  0  0
    7.6997  -15.5801   24.1240 N   0  0  0  0  0  0  0  0  0  0  0  0
    9.2539  -15.6538   22.3426 C   0  0  0  0  0  0  0  0  0  0  0  0
    9.5940  -15.6101   21.1363 O   0  0  0  0  0  0  0  0  0  0  0  0
   10.1991  -16.0911   23.3132 N   0  0  0  0  0  0  0  0  0  0  0  0
   11.5216  -16.4392   22.8533 C   0  0  1  0  0  0  0  0  0  0  0  0
   12.5512  -15.7466   23.6991 C   0  0  0  0  0  0  0  0  0  0  0  0
   12.5704  -16.2960   25.0657 C   0  0  0  0  0  0  0  0  0  0  0  0
   11.8029  -17.2181   25.3982 O   0  0  0  0  0  0  0  0  0  0  0  0
   11.7867  -17.9142   23.0275 C   0  0  0  0  0  0  0  0  0  0  0  0
   10.9547  -18.5526   23.7166 O   0  0  0  0  0  0  0  0  0  0  0  0
   13.4720  -15.7555   25.9782 O   0  0  0  0  0  0  0  0  0  0  0  0
   12.8843  -18.4885   22.4507 O   0  0  0  0  0  0  0  0  0  0  0  0
  1  2  1  0
  3  4  1  0
  3  2  1  0
  5  4  1  0
  5  6  1  1
  7  5  1  0
  8  7  2  0
 10  9  1  6
 11 10  1  0
 12 10  1  0
 13 12  1  1
 13 14  1  0
 14  7  1  0
 15 13  1  0
 15 17  1  0
 16 15  2  0
 18 19  1  1
 18 22  1  0
 18 17  1  0
 19 20  1  0
 20 24  1  0
 20 21  2  0
 22 25  1  0
 23 22  2  0
M  END
$$$$
