MLD.pdb
     RDKit          3D

 25 24  0  0  1  0  0  0  0  0999 V2000
    9.8824  -14.1783   30.4529 C   0  0  0  0  0  0  0  0  0  0  0  0
   10.7868  -15.7469   30.2894 S   0  0  0  0  0  0  0  0  0  0  0  0
    9.7617  -17.0019   29.4979 C   0  0  0  0  0  0  0  0  0  0  0  0
    9.1906  -16.4914   28.2278 C   0  0  0  0  0  0  0  0  0  0  0  0
    8.1109  -17.2660   27.5714 C   0  0  2  0  0  0  0  0  0  0  0  0
    8.5191  -18.6938   27.5689 N   0  0  0  0  0  0  0  0  0  0  0  0
    7.7590  -16.9199   26.1962 C   0  0  0  0  0  0  0  0  0  0  0  0
    7.5385  -17.8205   25.3256 O   0  0  0  0  0  0  0  0  0  0  0  0
    7.5841  -11.5365   25.3962 C   0  0  0  0  0  0  0  0  0  0  0  0
    7.2916  -12.9939   25.6839 C   0  0  1  0  0  0  0  0  0  0  0  0
    6.0043  -13.0238   26.5005 C   0  0  0  0  0  0  0  0  0  0  0  0
    7.0570  -13.6709   24.3646 C   0  0  0  0  0  0  0  0  0  0  0  0
    7.2100  -15.1858   24.4545 C   0  0  2  0  0  0  0  0  0  0  0  0
    7.6550  -15.5632   25.8030 N   0  0  0  0  0  0  0  0  0  0  0  0
    8.3260  -15.5181   23.5353 C   0  0  0  0  0  0  0  0  0  0  0  0
    8.1837  -15.2820   22.3119 O   0  0  0  0  0  0  0  0  0  0  0  0
    9.5457  -16.0924   23.9926 N   0  0  0  0  0  0  0  0  0  0  0  0
   10.4914  -16.5394   22.9989 C   0  0  1  0  0  0  0  0  0  0  0  0
   11.2148  -15.3579   22.4195 C   0  0  0  0  0  0  0  0  0  0  0  0
   12.1347  -15.7741   21.3470 C   0  0  0  0  0  0  0  0  0  0  0  0
   13.2873  -16.1673   21.6058 O   0  0  0  0  0  0  0  0  0  0  0  0
   11.5639  -17.4012   23.6183 C   0  0  0  0  0  0  0  0  0  0  0  0
   11.5579  -17.4845   24.8704 O   0  0  0  0  0  0  0  0  0  0  0  0
   11.6801  -15.7161   20.0326 O   0  0  0  0  0  0  0  0  0  0  0  0
   12.4750  -18.0408   22.8260 O   0  0  0  0  0  0  0  0  0  0  0  0
  1  2  1  0
  3  4  1  0
  3  2  1  0
  5  4  1  0
  5  6  1  6
  7  5  1  0
  8  7  2  0
 10  9  1  6
 11 10  1  0
 12 10  1  0
 13 12  1  1
 13 14  1  0
 14  7  1  0
 15 13  1  0
 15 17  1  0
 16 15  2  0
 18 19  1  1
 18 22  1  0
 18 17  1  0
 19 20  1  0
 20 24  1  0
 20 21  2  0
 22 25  1  0
 23 22  2  0
M  END
$$$$
