MLD.pdb
     RDKit          3D

 25 24  0  0  1  0  0  0  0  0999 V2000
    8.6744  -19.0408   20.2529 C   0  0  0  0  0  0  0  0  0  0  0  0
    7.0503  -18.6046   19.5621 S   0  0  0  0  0  0  0  0  0  0  0  0
    6.8629  -16.8153   19.4375 C   0  0  0  0  0  0  0  0  0  0  0  0
    7.9147  -16.1199   20.2186 C   0  0  0  0  0  0  0  0  0  0  0  0
    7.5800  -14.8338   20.8748 C   0  0  2  0  0  0  0  0  0  0  0  0
    7.9294  -13.7424   19.9303 N   0  0  0  0  0  0  0  0  0  0  0  0
    8.2312  -14.5239   22.1455 C   0  0  0  0  0  0  0  0  0  0  0  0
    9.4823  -14.3043   22.2088 O   0  0  0  0  0  0  0  0  0  0  0  0
    5.3779  -12.3002   26.3879 C   0  0  0  0  0  0  0  0  0  0  0  0
    6.4661  -12.5496   25.3651 C   0  0  1  0  0  0  0  0  0  0  0  0
    7.5020  -11.4475   25.5580 C   0  0  0  0  0  0  0  0  0  0  0  0
    7.0884  -13.8766   25.6903 C   0  0  0  0  0  0  0  0  0  0  0  0
    8.1209  -14.3033   24.6517 C   0  0  2  0  0  0  0  0  0  0  0  0
    7.4750  -14.4607   23.3414 N   0  0  0  0  0  0  0  0  0  0  0  0
    8.5559  -15.6580   25.0713 C   0  0  0  0  0  0  0  0  0  0  0  0
    8.2312  -16.6378   24.3591 O   0  0  0  0  0  0  0  0  0  0  0  0
    9.3250  -15.8818   26.2482 N   0  0  0  0  0  0  0  0  0  0  0  0
   10.2583  -16.9822   26.2412 C   0  0  1  0  0  0  0  0  0  0  0  0
   11.5282  -16.5656   25.5565 C   0  0  0  0  0  0  0  0  0  0  0  0
   11.7872  -17.3980   24.3692 C   0  0  0  0  0  0  0  0  0  0  0  0
   10.9878  -18.2865   24.0206 O   0  0  0  0  0  0  0  0  0  0  0  0
   10.6649  -17.3587   27.6445 C   0  0  0  0  0  0  0  0  0  0  0  0
   10.3204  -16.5679   28.5558 O   0  0  0  0  0  0  0  0  0  0  0  0
   12.9528  -17.1645   23.6449 O   0  0  0  0  0  0  0  0  0  0  0  0
   11.3698  -18.5070   27.8715 O   0  0  0  0  0  0  0  0  0  0  0  0
  1  2  1  0
  3  4  1  0
  3  2  1  0
  5  4  1  0
  5  6  1  6
  7  5  1  0
  8  7  2  0
 10  9  1  1
 11 10  1  0
 12 10  1  0
 13 12  1  1
 13 14  1  0
 14  7  1  0
 15 13  1  0
 15 17  1  0
 16 15  2  0
 18 19  1  6
 18 22  1  0
 18 17  1  0
 19 20  1  0
 20 24  1  0
 20 21  2  0
 22 25  1  0
 23 22  2  0
M  END
$$$$
