MLD.pdb
     RDKit          3D

 25 24  0  0  1  0  0  0  0  0999 V2000
    5.6620  -11.4737   26.1751 C   0  0  0  0  0  0  0  0  0  0  0  0
    7.0363  -11.6454   27.3529 S   0  0  0  0  0  0  0  0  0  0  0  0
    7.9444  -13.1765   27.0642 C   0  0  0  0  0  0  0  0  0  0  0  0
    7.3459  -13.9404   25.9425 C   0  0  0  0  0  0  0  0  0  0  0  0
    7.9660  -15.2273   25.5476 C   0  0  2  0  0  0  0  0  0  0  0  0
    9.4367  -15.0816   25.6933 N   0  0  0  0  0  0  0  0  0  0  0  0
    7.7176  -15.7203   24.1948 C   0  0  0  0  0  0  0  0  0  0  0  0
    6.6196  -16.2853   23.8904 O   0  0  0  0  0  0  0  0  0  0  0  0
    8.2976  -12.6449   20.2318 C   0  0  0  0  0  0  0  0  0  0  0  0
    7.9544  -13.7177   21.2435 C   0  0  1  0  0  0  0  0  0  0  0  0
    6.4456  -13.9221   21.1623 C   0  0  0  0  0  0  0  0  0  0  0  0
    8.6487  -14.9768   20.8117 C   0  0  0  0  0  0  0  0  0  0  0  0
    8.4974  -16.1015   21.8308 C   0  0  2  0  0  0  0  0  0  0  0  0
    8.7029  -15.5765   23.1876 N   0  0  0  0  0  0  0  0  0  0  0  0
    9.6277  -17.0237   21.5613 C   0  0  0  0  0  0  0  0  0  0  0  0
    9.6655  -17.6169   20.4571 O   0  0  0  0  0  0  0  0  0  0  0  0
   10.6649  -17.2563   22.5084 N   0  0  0  0  0  0  0  0  0  0  0  0
   11.5829  -18.3382   22.2465 C   0  0  1  0  0  0  0  0  0  0  0  0
   12.9855  -17.8068   22.1739 C   0  0  0  0  0  0  0  0  0  0  0  0
   13.3346  -17.4206   20.7960 C   0  0  0  0  0  0  0  0  0  0  0  0
   12.6652  -16.5727   20.1772 O   0  0  0  0  0  0  0  0  0  0  0  0
   11.5894  -19.3320   23.3818 C   0  0  0  0  0  0  0  0  0  0  0  0
   12.3584  -20.3157   23.2571 O   0  0  0  0  0  0  0  0  0  0  0  0
   14.4360  -18.0304   20.2021 O   0  0  0  0  0  0  0  0  0  0  0  0
   10.7873  -19.1373   24.4708 O   0  0  0  0  0  0  0  0  0  0  0  0
  1  2  1  0
  3  4  1  0
  3  2  1  0
  5  4  1  0
  5  6  1  6
  7  5  1  0
  8  7  2  0
 10  9  1  6
 11 10  1  0
 12 10  1  0
 13 12  1  6
 13 14  1  0
 14  7  1  0
 15 13  1  0
 15 17  1  0
 16 15  2  0
 18 19  1  1
 18 22  1  0
 18 17  1  0
 19 20  1  0
 20 24  1  0
 20 21  2  0
 22 25  1  0
 23 22  2  0
M  END
$$$$
