MLD.pdb
     RDKit          3D

 25 24  0  0  1  0  0  0  0  0999 V2000
    9.8915  -13.8803   29.6046 C   0  0  0  0  0  0  0  0  0  0  0  0
   11.1917  -15.1295   29.3717 S   0  0  0  0  0  0  0  0  0  0  0  0
   10.4811  -16.7815   29.2380 C   0  0  0  0  0  0  0  0  0  0  0  0
    9.1060  -16.7203   28.6856 C   0  0  0  0  0  0  0  0  0  0  0  0
    8.8431  -17.3340   27.3624 C   0  0  2  0  0  0  0  0  0  0  0  0
   10.1136  -17.3082   26.5940 N   0  0  0  0  0  0  0  0  0  0  0  0
    7.8197  -16.7244   26.5162 C   0  0  0  0  0  0  0  0  0  0  0  0
    6.6417  -17.2004   26.4598 O   0  0  0  0  0  0  0  0  0  0  0  0
    7.4462  -11.5355   25.6295 C   0  0  0  0  0  0  0  0  0  0  0  0
    7.1895  -13.0125   25.8420 C   0  0  1  0  0  0  0  0  0  0  0  0
    5.7844  -13.1281   26.4227 C   0  0  0  0  0  0  0  0  0  0  0  0
    7.2236  -13.6700   24.4928 C   0  0  0  0  0  0  0  0  0  0  0  0
    7.2905  -15.1907   24.5902 C   0  0  2  0  0  0  0  0  0  0  0  0
    8.1223  -15.5813   25.7366 N   0  0  0  0  0  0  0  0  0  0  0  0
    8.0203  -15.6253   23.3739 C   0  0  0  0  0  0  0  0  0  0  0  0
    7.5680  -15.2903   22.2533 O   0  0  0  0  0  0  0  0  0  0  0  0
    9.2096  -16.4053   23.4359 N   0  0  0  0  0  0  0  0  0  0  0  0
    9.8119  -16.8113   22.1892 C   0  0  1  0  0  0  0  0  0  0  0  0
   10.3609  -15.6093   21.4761 C   0  0  0  0  0  0  0  0  0  0  0  0
   11.0957  -16.0038   20.2619 C   0  0  0  0  0  0  0  0  0  0  0  0
   10.9616  -17.1397   19.7704 O   0  0  0  0  0  0  0  0  0  0  0  0
   10.9985  -17.7124   22.4271 C   0  0  0  0  0  0  0  0  0  0  0  0
   11.3681  -17.8443   23.6190 O   0  0  0  0  0  0  0  0  0  0  0  0
   11.9465  -15.0703   19.6767 O   0  0  0  0  0  0  0  0  0  0  0  0
   11.6116  -18.3340   21.3761 O   0  0  0  0  0  0  0  0  0  0  0  0
  1  2  1  0
  3  4  1  0
  3  2  1  0
  5  4  1  0
  5  6  1  6
  7  5  1  0
  8  7  2  0
 10  9  1  6
 11 10  1  0
 12 10  1  0
 13 12  1  6
 13 14  1  0
 14  7  1  0
 15 13  1  0
 15 17  1  0
 16 15  2  0
 18 19  1  1
 18 22  1  0
 18 17  1  0
 19 20  1  0
 20 24  1  0
 20 21  2  0
 22 25  1  0
 23 22  2  0
M  END
$$$$
