CMP.pdb
     RDKit          3D

 22 22  0  0  1  0  0  0  0  0999 V2000
   26.0676  -12.6275  -18.0435 N   0  0  0  0  0  0  0  0  0  0  0  0
   25.9122  -11.8973  -16.8178 C   0  0  1  0  0  0  0  0  0  0  0  0
   27.2130  -11.2169  -16.4792 C   0  0  0  0  0  0  0  0  0  0  0  0
   28.4207  -12.5118  -16.0567 S   0  0  0  0  0  0  0  0  0  0  0  0
   24.7838  -10.9268  -16.8855 C   0  0  0  0  0  0  0  0  0  0  0  0
   24.6565  -10.2551  -17.9573 O   0  0  0  0  0  0  0  0  0  0  0  0
   17.3103   -9.6892  -15.1860 C   0  0  0  0  0  0  0  0  0  0  0  0
   18.8176  -10.6763  -15.1510 S   0  0  0  0  0  0  0  0  0  0  0  0
   20.2686   -9.7231  -15.6781 C   0  0  0  0  0  0  0  0  0  0  0  0
   21.4728  -10.6273  -15.5743 C   0  0  0  0  0  0  0  0  0  0  0  0
   22.7544   -9.9075  -15.9372 C   0  0  2  0  0  0  0  0  0  0  0  0
   23.9006  -10.7710  -15.7954 N   0  0  0  0  0  0  0  0  0  0  0  0
   22.9295   -8.6734  -15.1098 C   0  0  0  0  0  0  0  0  0  0  0  0
   23.5494   -8.8333  -14.0113 O   0  0  0  0  0  0  0  0  0  0  0  0
   22.4575   -7.3937  -15.4814 N   0  0  0  0  0  0  0  0  0  0  0  0
   21.6905   -6.9742  -16.6256 C   0  0  0  0  0  0  0  0  0  0  0  0
   22.2022   -5.5524  -16.9195 C   0  0  0  0  0  0  0  0  0  0  0  0
   23.1756   -5.2430  -15.8027 C   0  0  0  0  0  0  0  0  0  0  0  0
   22.6830   -6.1843  -14.7112 C   0  0  1  0  0  0  0  0  0  0  0  0
   21.4269   -5.6343  -14.1450 C   0  0  0  0  0  0  0  0  0  0  0  0
   21.5073   -4.6207  -13.4015 O   0  0  0  0  0  0  0  0  0  0  0  0
   20.1664   -6.1443  -14.3662 O   0  0  0  0  0  0  0  0  0  0  0  0
  2  1  1  6
  3  2  1  0
  4  3  1  0
  5 12  1  0
  5  2  1  0
  6  5  2  0
  7  8  1  0
  8  9  1  0
  9 10  1  0
 11 10  1  1
 11 12  1  0
 11 13  1  0
 13 15  1  0
 14 13  2  0
 15 16  1  0
 15 19  1  0
 16 17  1  0
 17 18  1  0
 19 20  1  6
 19 18  1  0
 20 22  1  0
 21 20  2  0
M  END
$$$$
