CMP.pdb
     RDKit          3D

 22 22  0  0  1  0  0  0  0  0999 V2000
   28.8993  -20.0486  -16.4156 N   0  0  0  0  0  0  0  0  0  0  0  0
   28.1211  -19.3640  -15.4229 C   0  0  1  0  0  0  0  0  0  0  0  0
   27.3757  -18.2289  -16.0752 C   0  0  0  0  0  0  0  0  0  0  0  0
   28.5497  -16.8569  -16.3063 S   0  0  0  0  0  0  0  0  0  0  0  0
   27.1995  -20.2865  -14.7022 C   0  0  0  0  0  0  0  0  0  0  0  0
   26.6504  -21.2099  -15.3818 O   0  0  0  0  0  0  0  0  0  0  0  0
   26.3131  -20.2952   -8.3041 C   0  0  0  0  0  0  0  0  0  0  0  0
   24.7498  -21.0498   -8.7880 S   0  0  0  0  0  0  0  0  0  0  0  0
   24.6667  -21.3596  -10.5737 C   0  0  0  0  0  0  0  0  0  0  0  0
   25.8463  -20.6686  -11.2137 C   0  0  0  0  0  0  0  0  0  0  0  0
   25.8389  -20.8146  -12.7206 C   0  0  2  0  0  0  0  0  0  0  0  0
   26.9562  -20.1284  -13.3207 N   0  0  0  0  0  0  0  0  0  0  0  0
   24.5528  -20.3181  -13.3017 C   0  0  0  0  0  0  0  0  0  0  0  0
   24.5037  -19.0697  -13.5376 O   0  0  0  0  0  0  0  0  0  0  0  0
   23.4399  -21.1414  -13.5882 N   0  0  0  0  0  0  0  0  0  0  0  0
   23.2092  -22.5351  -13.3092 C   0  0  0  0  0  0  0  0  0  0  0  0
   22.3572  -23.0194  -14.4962 C   0  0  0  0  0  0  0  0  0  0  0  0
   22.0811  -21.7788  -15.3179 C   0  0  0  0  0  0  0  0  0  0  0  0
   22.2408  -20.6867  -14.2682 C   0  0  1  0  0  0  0  0  0  0  0  0
   21.0502  -20.7045  -13.3835 C   0  0  0  0  0  0  0  0  0  0  0  0
   19.9437  -20.3552  -13.8738 O   0  0  0  0  0  0  0  0  0  0  0  0
   21.0526  -21.0747  -12.0565 O   0  0  0  0  0  0  0  0  0  0  0  0
  2  1  1  6
  3  2  1  0
  4  3  1  0
  5 12  1  0
  5  2  1  0
  6  5  2  0
  7  8  1  0
  8  9  1  0
  9 10  1  0
 11 10  1  1
 11 12  1  0
 11 13  1  0
 13 15  1  0
 14 13  2  0
 15 16  1  0
 15 19  1  0
 16 17  1  0
 17 18  1  0
 19 20  1  1
 19 18  1  0
 20 22  1  0
 21 20  2  0
M  END
$$$$
