CMP.pdb
     RDKit          3D

 22 22  0  0  1  0  0  0  0  0999 V2000
   29.5627  -22.3488  -15.2038 N   0  0  0  0  0  0  0  0  0  0  0  0
   28.7780  -21.1712  -14.9651 C   0  0  1  0  0  0  0  0  0  0  0  0
   28.4520  -20.5186  -16.2833 C   0  0  0  0  0  0  0  0  0  0  0  0
   27.5344  -18.9866  -15.9298 S   0  0  0  0  0  0  0  0  0  0  0  0
   27.5481  -21.4699  -14.1789 C   0  0  0  0  0  0  0  0  0  0  0  0
   26.8195  -22.4313  -14.5799 O   0  0  0  0  0  0  0  0  0  0  0  0
   27.3419  -20.7194   -7.0641 C   0  0  0  0  0  0  0  0  0  0  0  0
   26.4682  -19.9597   -8.4450 S   0  0  0  0  0  0  0  0  0  0  0  0
   26.5912  -20.9530   -9.9583 C   0  0  0  0  0  0  0  0  0  0  0  0
   25.8814  -20.2014  -11.0582 C   0  0  0  0  0  0  0  0  0  0  0  0
   25.9547  -20.9323  -12.3821 C   0  0  2  0  0  0  0  0  0  0  0  0
   27.2192  -20.7071  -13.0376 N   0  0  0  0  0  0  0  0  0  0  0  0
   24.8268  -20.5315  -13.2796 C   0  0  0  0  0  0  0  0  0  0  0  0
   25.1076  -19.6515  -14.1532 O   0  0  0  0  0  0  0  0  0  0  0  0
   23.5207  -21.0668  -13.2020 N   0  0  0  0  0  0  0  0  0  0  0  0
   22.9568  -22.0334  -12.2960 C   0  0  0  0  0  0  0  0  0  0  0  0
   21.9252  -22.7917  -13.1505 C   0  0  0  0  0  0  0  0  0  0  0  0
   21.9223  -22.0842  -14.4884 C   0  0  0  0  0  0  0  0  0  0  0  0
   22.4351  -20.7050  -14.0951 C   0  0  1  0  0  0  0  0  0  0  0  0
   21.3475  -19.9789  -13.3946 C   0  0  0  0  0  0  0  0  0  0  0  0
   21.4345  -19.8455  -12.1451 O   0  0  0  0  0  0  0  0  0  0  0  0
   20.2382  -19.4325  -14.0020 O   0  0  0  0  0  0  0  0  0  0  0  0
  2  1  1  6
  3  2  1  0
  4  3  1  0
  5 12  1  0
  5  2  1  0
  6  5  2  0
  7  8  1  0
  8  9  1  0
  9 10  1  0
 11 10  1  1
 11 12  1  0
 11 13  1  0
 13 15  1  0
 14 13  2  0
 15 16  1  0
 15 19  1  0
 16 17  1  0
 17 18  1  0
 19 20  1  1
 19 18  1  0
 20 22  1  0
 21 20  2  0
M  END
$$$$
