CMP.pdb
     RDKit          3D

 22 22  0  0  1  0  0  0  0  0999 V2000
   28.6926  -17.0946  -17.1372 N   0  0  0  0  0  0  0  0  0  0  0  0
   27.4809  -16.9836  -16.3762 C   0  0  1  0  0  0  0  0  0  0  0  0
   26.3444  -16.6400  -17.3035 C   0  0  0  0  0  0  0  0  0  0  0  0
   25.6490  -15.0480  -16.7596 S   0  0  0  0  0  0  0  0  0  0  0  0
   27.1987  -18.2189  -15.5926 C   0  0  0  0  0  0  0  0  0  0  0  0
   27.2876  -19.3299  -16.2042 O   0  0  0  0  0  0  0  0  0  0  0  0
   25.5255  -21.3112   -8.4789 C   0  0  0  0  0  0  0  0  0  0  0  0
   26.1665  -19.9731   -9.5017 S   0  0  0  0  0  0  0  0  0  0  0  0
   25.9893  -20.3245  -11.2728 C   0  0  0  0  0  0  0  0  0  0  0  0
   26.6313  -19.1884  -12.0315 C   0  0  0  0  0  0  0  0  0  0  0  0
   26.4741  -19.3470  -13.5289 C   0  0  2  0  0  0  0  0  0  0  0  0
   26.8481  -18.1422  -14.2274 N   0  0  0  0  0  0  0  0  0  0  0  0
   25.0741  -19.7382  -13.8831 C   0  0  0  0  0  0  0  0  0  0  0  0
   24.3341  -18.7977  -14.3122 O   0  0  0  0  0  0  0  0  0  0  0  0
   24.5623  -21.0509  -13.7674 N   0  0  0  0  0  0  0  0  0  0  0  0
   25.1172  -22.2205  -13.1370 C   0  0  0  0  0  0  0  0  0  0  0  0
   24.6190  -23.3881  -14.0075 C   0  0  0  0  0  0  0  0  0  0  0  0
   23.7006  -22.7556  -15.0308 C   0  0  0  0  0  0  0  0  0  0  0  0
   23.2856  -21.4806  -14.3082 C   0  0  1  0  0  0  0  0  0  0  0  0
   22.3140  -21.8355  -13.2449 C   0  0  0  0  0  0  0  0  0  0  0  0
   22.7133  -21.8222  -12.0503 O   0  0  0  0  0  0  0  0  0  0  0  0
   20.9975  -22.1824  -13.4561 O   0  0  0  0  0  0  0  0  0  0  0  0
  2  1  1  6
  3  2  1  0
  4  3  1  0
  5 12  1  0
  5  2  1  0
  6  5  2  0
  7  8  1  0
  8  9  1  0
  9 10  1  0
 11 10  1  1
 11 12  1  0
 11 13  1  0
 13 15  1  0
 14 13  2  0
 15 16  1  0
 15 19  1  0
 16 17  1  0
 17 18  1  0
 19 20  1  1
 19 18  1  0
 20 22  1  0
 21 20  2  0
M  END
$$$$
