CEN.pdb
     RDKit          3D

 24 23  0  0  1  0  0  0  0  0999 V2000
    6.7302  -16.4239   19.7844 N   0  0  0  0  0  0  0  0  0  0  0  0
    7.8192  -15.5762   20.2333 C   0  0  1  0  0  0  0  0  0  0  0  0
    7.2331  -14.2876   20.8242 C   0  0  0  0  0  0  0  0  0  0  0  0
    6.1206  -14.6768   22.1806 S   0  0  0  0  0  0  0  0  0  0  0  0
    8.6382  -16.2852   21.2453 C   0  0  0  0  0  0  0  0  0  0  0  0
    8.0803  -17.0979   22.0136 O   0  0  0  0  0  0  0  0  0  0  0  0
   10.0328  -16.0588   21.3550 N   0  0  0  0  0  0  0  0  0  0  0  0
   10.8563  -16.7239   22.3815 C   0  0  1  0  0  0  0  0  0  0  0  0
   12.2859  -16.5071   22.0357 C   0  0  0  0  0  0  0  0  0  0  0  0
   13.3125  -17.0286   22.9526 C   0  0  0  0  0  0  0  0  0  0  0  0
   14.7064  -16.7087   22.5615 C   0  0  0  0  0  0  0  0  0  0  0  0
   15.0052  -15.5573   22.1699 O   0  0  0  0  0  0  0  0  0  0  0  0
   10.4728  -16.2743   23.7315 C   0  0  0  0  0  0  0  0  0  0  0  0
   10.4935  -15.0538   24.0121 O   0  0  0  0  0  0  0  0  0  0  0  0
   15.7259  -17.6532   22.6108 O   0  0  0  0  0  0  0  0  0  0  0  0
    7.8256  -18.6184   25.1373 N   0  0  0  0  0  0  0  0  0  0  0  0
    7.4362  -17.3720   25.6692 C   0  0  0  0  0  0  0  0  0  0  0  0
    6.1788  -17.1425   25.6614 O   0  0  0  0  0  0  0  0  0  0  0  0
    8.2967  -16.3301   26.2210 C   0  0  0  0  0  0  0  0  0  0  0  0
    9.7438  -16.7149   26.1345 C   0  0  2  0  0  0  0  0  0  0  0  0
   10.0694  -17.1591   24.7648 N   0  0  0  0  0  0  0  0  0  0  0  0
    9.9756  -17.9225   26.9764 C   0  0  0  0  0  0  0  0  0  0  0  0
    9.7751  -17.8728   28.2388 O   0  0  0  0  0  0  0  0  0  0  0  0
   10.4058  -19.1458   26.5000 O   0  0  0  0  0  0  0  0  0  0  0  0
  2  1  1  1
  3  4  1  0
  3  2  1  0
  5  2  1  0
  6  5  2  0
  7  5  1  0
  8  7  1  0
  8  9  1  6
  9 10  1  0
 10 11  1  0
 11 12  2  0
 11 15  1  0
 13  8  1  0
 14 13  2  0
 16 17  1  0
 17 18  2  0
 19 17  1  0
 20 19  1  6
 20 21  1  0
 21 13  1  0
 22 24  1  0
 22 20  1  0
 23 22  2  0
M  END
$$$$
