CEN.pdb
     RDKit          3D

 24 23  0  0  1  0  0  0  0  0999 V2000
    8.3584  -15.1204   16.5143 N   0  0  0  0  0  0  0  0  0  0  0  0
    9.1215  -14.3231   17.4565 C   0  0  1  0  0  0  0  0  0  0  0  0
    8.1699  -13.3556   18.1720 C   0  0  0  0  0  0  0  0  0  0  0  0
    7.3757  -12.2710   16.9798 S   0  0  0  0  0  0  0  0  0  0  0  0
    9.8034  -15.2004   18.4376 C   0  0  0  0  0  0  0  0  0  0  0  0
    9.2102  -16.2191   18.8530 O   0  0  0  0  0  0  0  0  0  0  0  0
   11.1071  -14.9059   18.9088 N   0  0  0  0  0  0  0  0  0  0  0  0
   11.7832  -15.7418   19.9177 C   0  0  1  0  0  0  0  0  0  0  0  0
   13.2494  -15.6340   19.6967 C   0  0  0  0  0  0  0  0  0  0  0  0
   13.8826  -14.3137   19.8468 C   0  0  0  0  0  0  0  0  0  0  0  0
   15.3458  -14.3023   19.6078 C   0  0  0  0  0  0  0  0  0  0  0  0
   15.7959  -14.2946   18.4392 O   0  0  0  0  0  0  0  0  0  0  0  0
   11.3360  -15.3861   21.2761 C   0  0  0  0  0  0  0  0  0  0  0  0
   11.4259  -14.2014   21.6724 O   0  0  0  0  0  0  0  0  0  0  0  0
   16.2674  -14.2994   20.6492 O   0  0  0  0  0  0  0  0  0  0  0  0
    7.3388  -15.3936   21.6996 N   0  0  0  0  0  0  0  0  0  0  0  0
    7.9650  -15.3134   22.9603 C   0  0  0  0  0  0  0  0  0  0  0  0
    7.7625  -14.2276   23.6038 O   0  0  0  0  0  0  0  0  0  0  0  0
    8.8054  -16.3183   23.6039 C   0  0  0  0  0  0  0  0  0  0  0  0
   10.2574  -15.9531   23.5156 C   0  0  2  0  0  0  0  0  0  0  0  0
   10.7943  -16.3250   22.1916 N   0  0  0  0  0  0  0  0  0  0  0  0
   11.0284  -16.7951   24.4735 C   0  0  0  0  0  0  0  0  0  0  0  0
   11.7563  -17.7545   24.0426 O   0  0  0  0  0  0  0  0  0  0  0  0
   11.0310  -16.6289   25.8450 O   0  0  0  0  0  0  0  0  0  0  0  0
  2  1  1  6
  3  4  1  0
  3  2  1  0
  5  2  1  0
  6  5  2  0
  7  5  1  0
  8  7  1  0
  8  9  1  1
  9 10  1  0
 10 11  1  0
 11 12  2  0
 11 15  1  0
 13  8  1  0
 14 13  2  0
 16 17  1  0
 17 18  2  0
 19 17  1  0
 20 19  1  6
 20 21  1  0
 21 13  1  0
 22 24  1  0
 22 20  1  0
 23 22  2  0
M  END
$$$$
