CEN.pdb
     RDKit          3D

 24 23  0  0  1  0  0  0  0  0999 V2000
    7.2167  -15.8531   21.9909 N   0  0  0  0  0  0  0  0  0  0  0  0
    8.3618  -15.1692   22.5626 C   0  0  1  0  0  0  0  0  0  0  0  0
    7.9546  -14.5635   23.9120 C   0  0  0  0  0  0  0  0  0  0  0  0
    6.8675  -13.1556   23.6575 S   0  0  0  0  0  0  0  0  0  0  0  0
    9.4899  -16.1147   22.7379 C   0  0  0  0  0  0  0  0  0  0  0  0
    9.2682  -17.2324   23.2516 O   0  0  0  0  0  0  0  0  0  0  0  0
   10.8056  -15.7754   22.3354 N   0  0  0  0  0  0  0  0  0  0  0  0
   11.9561  -16.6619   22.5895 C   0  0  1  0  0  0  0  0  0  0  0  0
   13.0659  -16.2436   21.6931 C   0  0  0  0  0  0  0  0  0  0  0  0
   13.0031  -16.6348   20.2755 C   0  0  0  0  0  0  0  0  0  0  0  0
   13.7520  -17.8710   19.9447 C   0  0  0  0  0  0  0  0  0  0  0  0
   13.2817  -18.6963   19.1287 O   0  0  0  0  0  0  0  0  0  0  0  0
   12.2948  -16.6807   24.0236 C   0  0  0  0  0  0  0  0  0  0  0  0
   12.8216  -15.6755   24.5536 O   0  0  0  0  0  0  0  0  0  0  0  0
   14.9864  -18.1650   20.5136 O   0  0  0  0  0  0  0  0  0  0  0  0
   12.4506  -18.2583   29.1630 N   0  0  0  0  0  0  0  0  0  0  0  0
   11.2176  -18.2405   28.4792 C   0  0  0  0  0  0  0  0  0  0  0  0
   10.1833  -18.4071   29.2117 O   0  0  0  0  0  0  0  0  0  0  0  0
   10.9938  -18.0543   27.0490 C   0  0  0  0  0  0  0  0  0  0  0  0
   12.2783  -17.7716   26.3279 C   0  0  2  0  0  0  0  0  0  0  0  0
   12.0563  -17.7953   24.8686 N   0  0  0  0  0  0  0  0  0  0  0  0
   13.2287  -18.8931   26.5725 C   0  0  0  0  0  0  0  0  0  0  0  0
   13.6730  -19.1119   27.7519 O   0  0  0  0  0  0  0  0  0  0  0  0
   13.6958  -19.7575   25.6014 O   0  0  0  0  0  0  0  0  0  0  0  0
  2  1  1  1
  3  4  1  0
  3  2  1  0
  5  2  1  0
  6  5  2  0
  7  5  1  0
  8  7  1  0
  8  9  1  6
  9 10  1  0
 10 11  1  0
 11 12  2  0
 11 15  1  0
 13  8  1  0
 14 13  2  0
 16 17  1  0
 17 18  2  0
 19 17  1  0
 20 19  1  1
 20 21  1  0
 21 13  1  0
 22 24  1  0
 22 20  1  0
 23 22  2  0
M  END
$$$$
