CEN.pdb
     RDKit          3D

 24 23  0  0  1  0  0  0  0  0999 V2000
    6.9426  -15.1342   20.0932 N   0  0  0  0  0  0  0  0  0  0  0  0
    8.2583  -14.7057   20.5304 C   0  0  1  0  0  0  0  0  0  0  0  0
    8.1675  -13.2581   21.0299 C   0  0  0  0  0  0  0  0  0  0  0  0
    7.9261  -12.1380   19.6458 S   0  0  0  0  0  0  0  0  0  0  0  0
    8.7569  -15.5953   21.6062 C   0  0  0  0  0  0  0  0  0  0  0  0
    7.9572  -15.9955   22.4795 O   0  0  0  0  0  0  0  0  0  0  0  0
   10.1148  -15.9968   21.6607 N   0  0  0  0  0  0  0  0  0  0  0  0
   10.6393  -16.8413   22.7496 C   0  0  1  0  0  0  0  0  0  0  0  0
   11.8734  -17.5099   22.2595 C   0  0  0  0  0  0  0  0  0  0  0  0
   12.6188  -18.3700   23.1928 C   0  0  0  0  0  0  0  0  0  0  0  0
   13.2409  -19.5620   22.5677 C   0  0  0  0  0  0  0  0  0  0  0  0
   12.8132  -20.7094   22.8295 O   0  0  0  0  0  0  0  0  0  0  0  0
   10.8120  -16.0552   23.9840 C   0  0  0  0  0  0  0  0  0  0  0  0
   11.2991  -14.9027   23.9269 O   0  0  0  0  0  0  0  0  0  0  0  0
   14.3064  -19.4626   21.6796 O   0  0  0  0  0  0  0  0  0  0  0  0
    8.8928  -13.0097   28.4206 N   0  0  0  0  0  0  0  0  0  0  0  0
    9.8452  -13.8391   27.7936 C   0  0  0  0  0  0  0  0  0  0  0  0
   10.9783  -13.9121   28.3807 O   0  0  0  0  0  0  0  0  0  0  0  0
    9.6832  -14.6136   26.5671 C   0  0  0  0  0  0  0  0  0  0  0  0
   10.6531  -15.7562   26.5110 C   0  0  2  0  0  0  0  0  0  0  0  0
   10.4519  -16.5318   25.2710 N   0  0  0  0  0  0  0  0  0  0  0  0
   10.3318  -16.7191   27.6020 C   0  0  0  0  0  0  0  0  0  0  0  0
    9.7406  -17.8208   27.3320 O   0  0  0  0  0  0  0  0  0  0  0  0
   10.6261  -16.5250   28.9378 O   0  0  0  0  0  0  0  0  0  0  0  0
  2  1  1  1
  3  4  1  0
  3  2  1  0
  5  2  1  0
  6  5  2  0
  7  5  1  0
  8  7  1  0
  8  9  1  6
  9 10  1  0
 10 11  1  0
 11 12  2  0
 11 15  1  0
 13  8  1  0
 14 13  2  0
 16 17  1  0
 17 18  2  0
 19 17  1  0
 20 19  1  6
 20 21  1  0
 21 13  1  0
 22 24  1  0
 22 20  1  0
 23 22  2  0
M  END
$$$$
