LCW.pdb
     RDKit          3D

 29 30  0  0  1  0  0  0  0  0999 V2000
    9.4795  -12.7345   18.9940 C   0  0  0  0  0  0  0  0  0  0  0  0
    8.0678  -13.3265   18.8507 C   0  0  2  0  0  0  0  0  0  0  0  0
    7.1021  -12.2054   19.0593 C   0  0  0  0  0  0  0  0  0  0  0  0
    7.9625  -14.4250   19.8418 C   0  0  0  0  0  0  0  0  0  0  0  0
    8.9473  -15.5578   19.6572 C   0  0  2  0  0  0  0  0  0  0  0  0
    8.4525  -16.3200   18.5295 N   0  0  0  0  0  0  0  0  0  0  0  0
    9.0166  -16.3969   20.8795 C   0  0  0  0  0  0  0  0  0  0  0  0
    8.0686  -17.1916   21.1351 O   0  0  0  0  0  0  0  0  0  0  0  0
   10.0984  -16.3677   21.7912 N   0  0  0  0  0  0  0  0  0  0  0  0
   10.1091  -17.2873   22.9424 C   0  0  1  0  0  0  0  0  0  0  0  0
   11.1821  -18.3469   22.6339 C   0  0  0  0  0  0  0  0  0  0  0  0
   12.7763  -17.5528   22.4174 S   0  0  0  0  0  0  0  0  0  0  0  0
   10.3861  -16.5356   24.1761 C   0  0  0  0  0  0  0  0  0  0  0  0
   11.2543  -15.5800   24.1511 O   0  0  0  0  0  0  0  0  0  0  0  0
    9.7507  -16.8084   25.3811 N   0  0  0  0  0  0  0  0  0  0  0  0
   10.1251  -16.3773   26.7117 C   0  0  1  0  0  0  0  0  0  0  0  0
    8.9697  -16.0755   27.5659 C   0  0  0  0  0  0  0  0  0  0  0  0
    7.8171  -15.4701   26.8805 C   0  0  0  0  0  0  0  0  0  0  0  0
    6.7175  -16.0604   26.3263 C   0  0  0  0  0  0  0  0  0  0  0  0
    5.8923  -15.1326   25.8093 N   0  0  0  0  0  0  0  0  0  0  0  0
    6.4455  -13.9209   26.0213 C   0  0  0  0  0  0  0  0  0  0  0  0
    6.0199  -12.6498   25.7060 C   0  0  0  0  0  0  0  0  0  0  0  0
    6.7824  -11.5647   26.0514 C   0  0  0  0  0  0  0  0  0  0  0  0
    7.9681  -11.7272   26.7084 C   0  0  0  0  0  0  0  0  0  0  0  0
    8.4104  -13.0141   27.0335 C   0  0  0  0  0  0  0  0  0  0  0  0
    7.6429  -14.1008   26.6858 C   0  0  0  0  0  0  0  0  0  0  0  0
   11.1918  -17.2305   27.3150 C   0  0  0  0  0  0  0  0  0  0  0  0
   11.6810  -18.3993   26.7955 O   0  0  0  0  0  0  0  0  0  0  0  0
   11.6980  -16.8303   28.4159 O   0  0  0  0  0  0  0  0  0  0  0  0
  2  1  1  1
  3  2  1  0
  4  2  1  0
  5  4  1  0
  5  6  1  6
  7  8  2  0
  7  5  1  0
  9  7  1  0
 10  9  1  0
 10 11  1  6
 11 12  1  0
 13 15  1  0
 13 10  1  0
 14 13  2  0
 16 15  1  0
 17 18  1  0
 16 17  1  1
 18 19  2  0
 19 20  1  0
 21 20  1  0
 22 21  2  0
 23 22  1  0
 24 25  1  0
 24 23  2  0
 25 26  2  0
 26 18  1  0
 26 21  1  0
 27 16  1  0
 27 28  1  0
 29 27  2  0
M  END
$$$$
