LCW.pdb
     RDKit          3D

 29 30  0  0  1  0  0  0  0  0999 V2000
    9.3812  -12.5847   19.4037 C   0  0  0  0  0  0  0  0  0  0  0  0
    8.0776  -13.1759   18.8421 C   0  0  2  0  0  0  0  0  0  0  0  0
    7.0256  -12.1244   18.9843 C   0  0  0  0  0  0  0  0  0  0  0  0
    7.8119  -14.4222   19.6012 C   0  0  0  0  0  0  0  0  0  0  0  0
    8.8659  -15.4983   19.4653 C   0  0  2  0  0  0  0  0  0  0  0  0
    8.5925  -16.1493   18.2008 N   0  0  0  0  0  0  0  0  0  0  0  0
    8.7802  -16.4616   20.5912 C   0  0  0  0  0  0  0  0  0  0  0  0
    8.0732  -17.5001   20.4604 O   0  0  0  0  0  0  0  0  0  0  0  0
    9.4560  -16.2914   21.8227 N   0  0  0  0  0  0  0  0  0  0  0  0
    9.3669  -17.3379   22.8561 C   0  0  1  0  0  0  0  0  0  0  0  0
    9.9255  -18.6211   22.2152 C   0  0  0  0  0  0  0  0  0  0  0  0
   10.0030  -19.9288   23.4411 S   0  0  0  0  0  0  0  0  0  0  0  0
   10.1178  -16.9219   24.0506 C   0  0  0  0  0  0  0  0  0  0  0  0
   11.3570  -16.5795   23.9292 O   0  0  0  0  0  0  0  0  0  0  0  0
    9.5505  -16.8797   25.3181 N   0  0  0  0  0  0  0  0  0  0  0  0
   10.1762  -16.5098   26.5704 C   0  0  1  0  0  0  0  0  0  0  0  0
    9.2578  -15.8350   27.4961 C   0  0  0  0  0  0  0  0  0  0  0  0
    8.0371  -15.2841   26.8869 C   0  0  0  0  0  0  0  0  0  0  0  0
    6.8885  -15.9139   26.5014 C   0  0  0  0  0  0  0  0  0  0  0  0
    6.0095  -15.0290   25.9981 N   0  0  0  0  0  0  0  0  0  0  0  0
    6.5761  -13.8060   26.0500 C   0  0  0  0  0  0  0  0  0  0  0  0
    6.1139  -12.5638   25.6765 C   0  0  0  0  0  0  0  0  0  0  0  0
    6.9031  -11.4568   25.8492 C   0  0  0  0  0  0  0  0  0  0  0  0
    8.1517  -11.5690   26.3900 C   0  0  0  0  0  0  0  0  0  0  0  0
    8.6316  -12.8262   26.7728 C   0  0  0  0  0  0  0  0  0  0  0  0
    7.8371  -13.9350   26.5985 C   0  0  0  0  0  0  0  0  0  0  0  0
   11.0095  -17.6078   27.1446 C   0  0  0  0  0  0  0  0  0  0  0  0
   11.9857  -17.4682   28.0948 O   0  0  0  0  0  0  0  0  0  0  0  0
   10.7880  -18.7878   26.7120 O   0  0  0  0  0  0  0  0  0  0  0  0
  2  1  1  1
  3  2  1  0
  4  2  1  0
  5  4  1  0
  5  6  1  6
  7  8  2  0
  7  5  1  0
  9  7  1  0
 10  9  1  0
 10 11  1  6
 11 12  1  0
 13 15  1  0
 13 10  1  0
 14 13  2  0
 16 15  1  0
 17 18  1  0
 16 17  1  1
 18 19  2  0
 19 20  1  0
 21 20  1  0
 22 21  2  0
 23 22  1  0
 24 25  1  0
 24 23  2  0
 25 26  2  0
 26 18  1  0
 26 21  1  0
 27 16  1  0
 27 28  1  0
 29 27  2  0
M  END
$$$$
