LCW.pdb
     RDKit          3D

 29 30  0  0  1  0  0  0  0  0999 V2000
    9.5547  -12.8949   18.7366 C   0  0  0  0  0  0  0  0  0  0  0  0
    8.1032  -13.3552   18.9496 C   0  0  2  0  0  0  0  0  0  0  0  0
    7.2909  -12.1283   19.2098 C   0  0  0  0  0  0  0  0  0  0  0  0
    8.1240  -14.3308   20.0666 C   0  0  0  0  0  0  0  0  0  0  0  0
    8.9071  -15.5976   19.8032 C   0  0  2  0  0  0  0  0  0  0  0  0
    8.2076  -16.2675   18.7266 N   0  0  0  0  0  0  0  0  0  0  0  0
    8.9544  -16.4473   21.0192 C   0  0  0  0  0  0  0  0  0  0  0  0
    7.9445  -17.1417   21.3247 O   0  0  0  0  0  0  0  0  0  0  0  0
   10.0805  -16.5356   21.8716 N   0  0  0  0  0  0  0  0  0  0  0  0
   10.0588  -17.4610   23.0179 C   0  0  1  0  0  0  0  0  0  0  0  0
   11.1836  -18.4811   22.7661 C   0  0  0  0  0  0  0  0  0  0  0  0
   12.7173  -17.6198   22.4124 S   0  0  0  0  0  0  0  0  0  0  0  0
   10.2397  -16.7075   24.2682 C   0  0  0  0  0  0  0  0  0  0  0  0
   10.8511  -15.5705   24.2367 O   0  0  0  0  0  0  0  0  0  0  0  0
    9.7789  -17.1667   25.4958 N   0  0  0  0  0  0  0  0  0  0  0  0
    9.9730  -16.5791   26.8049 C   0  0  1  0  0  0  0  0  0  0  0  0
    8.7143  -16.3457   27.5239 C   0  0  0  0  0  0  0  0  0  0  0  0
    7.6652  -15.6570   26.7559 C   0  0  0  0  0  0  0  0  0  0  0  0
    6.5982  -16.1691   26.0747 C   0  0  0  0  0  0  0  0  0  0  0  0
    5.8736  -15.1816   25.5188 N   0  0  0  0  0  0  0  0  0  0  0  0
    6.4612  -14.0087   25.8323 C   0  0  0  0  0  0  0  0  0  0  0  0
    6.1306  -12.7067   25.5295 C   0  0  0  0  0  0  0  0  0  0  0  0
    6.9069  -11.6758   25.9906 C   0  0  0  0  0  0  0  0  0  0  0  0
    8.0131  -11.9233   26.7516 C   0  0  0  0  0  0  0  0  0  0  0  0
    8.3586  -13.2423   27.0652 C   0  0  0  0  0  0  0  0  0  0  0  0
    7.5774  -14.2744   26.6012 C   0  0  0  0  0  0  0  0  0  0  0  0
   11.0658  -17.2414   27.5775 C   0  0  0  0  0  0  0  0  0  0  0  0
   11.6863  -16.7397   28.6904 O   0  0  0  0  0  0  0  0  0  0  0  0
   11.4550  -18.3842   27.1639 O   0  0  0  0  0  0  0  0  0  0  0  0
  2  1  1  1
  3  2  1  0
  4  2  1  0
  5  4  1  0
  5  6  1  6
  7  8  2  0
  7  5  1  0
  9  7  1  0
 10  9  1  0
 10 11  1  6
 11 12  1  0
 13 15  1  0
 13 10  1  0
 14 13  2  0
 16 15  1  0
 17 18  1  0
 16 17  1  1
 18 19  2  0
 19 20  1  0
 21 20  1  0
 22 21  2  0
 23 22  1  0
 24 25  1  0
 24 23  2  0
 25 26  2  0
 26 18  1  0
 26 21  1  0
 27 16  1  0
 27 28  1  0
 29 27  2  0
M  END
$$$$
