LCW.pdb
     RDKit          3D

 29 30  0  0  1  0  0  0  0  0999 V2000
    9.0748  -13.4089   19.2799 C   0  0  0  0  0  0  0  0  0  0  0  0
    7.6502  -13.4968   19.8517 C   0  0  2  0  0  0  0  0  0  0  0  0
    7.2492  -12.1099   20.2372 C   0  0  0  0  0  0  0  0  0  0  0  0
    7.7006  -14.4608   20.9779 C   0  0  0  0  0  0  0  0  0  0  0  0
    8.1348  -15.8619   20.6096 C   0  0  2  0  0  0  0  0  0  0  0  0
    6.9294  -16.5393   20.1789 N   0  0  0  0  0  0  0  0  0  0  0  0
    8.7433  -16.5464   21.7776 C   0  0  0  0  0  0  0  0  0  0  0  0
    7.9898  -17.0710   22.6451 O   0  0  0  0  0  0  0  0  0  0  0  0
   10.1390  -16.6560   21.9834 N   0  0  0  0  0  0  0  0  0  0  0  0
   10.6495  -17.3697   23.1671 C   0  0  1  0  0  0  0  0  0  0  0  0
   12.1216  -17.7024   22.8646 C   0  0  0  0  0  0  0  0  0  0  0  0
   12.8310  -18.6202   24.2333 S   0  0  0  0  0  0  0  0  0  0  0  0
   10.4876  -16.5282   24.3627 C   0  0  0  0  0  0  0  0  0  0  0  0
   10.8913  -15.3020   24.3305 O   0  0  0  0  0  0  0  0  0  0  0  0
    9.9146  -16.9957   25.5388 N   0  0  0  0  0  0  0  0  0  0  0  0
   10.1328  -16.5285   26.8919 C   0  0  1  0  0  0  0  0  0  0  0  0
    8.8958  -16.1113   27.5639 C   0  0  0  0  0  0  0  0  0  0  0  0
    7.8510  -15.5650   26.6838 C   0  0  0  0  0  0  0  0  0  0  0  0
    6.8683  -16.2071   25.9862 C   0  0  0  0  0  0  0  0  0  0  0  0
    6.1118  -15.3229   25.3117 N   0  0  0  0  0  0  0  0  0  0  0  0
    6.5934  -14.0882   25.5626 C   0  0  0  0  0  0  0  0  0  0  0  0
    6.1906  -12.8421   25.1372 C   0  0  0  0  0  0  0  0  0  0  0  0
    6.8609  -11.7230   25.5572 C   0  0  0  0  0  0  0  0  0  0  0  0
    7.9316  -11.8269   26.3980 C   0  0  0  0  0  0  0  0  0  0  0  0
    8.3497  -13.0880   26.8364 C   0  0  0  0  0  0  0  0  0  0  0  0
    7.6749  -14.2089   26.4132 C   0  0  0  0  0  0  0  0  0  0  0  0
   11.0425  -17.4212   27.6700 C   0  0  0  0  0  0  0  0  0  0  0  0
   11.5079  -18.6456   27.2707 O   0  0  0  0  0  0  0  0  0  0  0  0
   11.4254  -17.0014   28.8126 O   0  0  0  0  0  0  0  0  0  0  0  0
  2  1  1  1
  3  2  1  0
  4  2  1  0
  5  4  1  0
  5  6  1  1
  7  8  2  0
  7  5  1  0
  9  7  1  0
 10  9  1  0
 10 11  1  6
 11 12  1  0
 13 15  1  0
 13 10  1  0
 14 13  2  0
 16 15  1  0
 17 18  1  0
 16 17  1  1
 18 19  2  0
 19 20  1  0
 21 20  1  0
 22 21  2  0
 23 22  1  0
 24 25  1  0
 24 23  2  0
 25 26  2  0
 26 18  1  0
 26 21  1  0
 27 16  1  0
 27 28  1  0
 29 27  2  0
M  END
$$$$
