LCW.pdb
     RDKit          3D

 29 30  0  0  1  0  0  0  0  0999 V2000
    9.5014  -12.9096   18.6774 C   0  0  0  0  0  0  0  0  0  0  0  0
    8.0305  -13.3061   18.8854 C   0  0  2  0  0  0  0  0  0  0  0  0
    7.2434  -12.0379   18.9564 C   0  0  0  0  0  0  0  0  0  0  0  0
    7.9809  -14.1337   20.1153 C   0  0  0  0  0  0  0  0  0  0  0  0
    9.0142  -15.2352   20.1946 C   0  0  2  0  0  0  0  0  0  0  0  0
    8.7158  -16.1250   19.0915 N   0  0  0  0  0  0  0  0  0  0  0  0
    8.9236  -15.9467   21.4939 C   0  0  0  0  0  0  0  0  0  0  0  0
    7.9557  -15.6973   22.2662 O   0  0  0  0  0  0  0  0  0  0  0  0
    9.8660  -16.9083   21.9295 N   0  0  0  0  0  0  0  0  0  0  0  0
    9.6120  -17.6746   23.1621 C   0  0  1  0  0  0  0  0  0  0  0  0
   10.2411  -19.0618   22.9411 C   0  0  0  0  0  0  0  0  0  0  0  0
    9.9940  -20.0803   24.3974 S   0  0  0  0  0  0  0  0  0  0  0  0
   10.1850  -16.9641   24.3157 C   0  0  0  0  0  0  0  0  0  0  0  0
   11.2598  -16.2663   24.1564 O   0  0  0  0  0  0  0  0  0  0  0  0
    9.6182  -17.0091   25.5833 N   0  0  0  0  0  0  0  0  0  0  0  0
   10.1583  -16.5016   26.8272 C   0  0  1  0  0  0  0  0  0  0  0  0
    9.1496  -15.8444   27.6676 C   0  0  0  0  0  0  0  0  0  0  0  0
    7.9745  -15.3211   26.9535 C   0  0  0  0  0  0  0  0  0  0  0  0
    6.9262  -15.9863   26.3849 C   0  0  0  0  0  0  0  0  0  0  0  0
    6.0537  -15.1186   25.8417 N   0  0  0  0  0  0  0  0  0  0  0  0
    6.5240  -13.8717   26.0507 C   0  0  0  0  0  0  0  0  0  0  0  0
    6.0243  -12.6338   25.7130 C   0  0  0  0  0  0  0  0  0  0  0  0
    6.7087  -11.4986   26.0607 C   0  0  0  0  0  0  0  0  0  0  0  0
    7.8891  -11.5782   26.7422 C   0  0  0  0  0  0  0  0  0  0  0  0
    8.4063  -12.8307   27.0902 C   0  0  0  0  0  0  0  0  0  0  0  0
    7.7170  -13.9678   26.7400 C   0  0  0  0  0  0  0  0  0  0  0  0
   11.0537  -17.4827   27.5094 C   0  0  0  0  0  0  0  0  0  0  0  0
   11.9620  -17.1980   28.4940 O   0  0  0  0  0  0  0  0  0  0  0  0
   10.9606  -18.7016   27.1432 O   0  0  0  0  0  0  0  0  0  0  0  0
  2  1  1  1
  3  2  1  0
  4  2  1  0
  5  4  1  0
  5  6  1  6
  7  8  2  0
  7  5  1  0
  9  7  1  0
 10  9  1  0
 10 11  1  6
 11 12  1  0
 13 15  1  0
 13 10  1  0
 14 13  2  0
 16 15  1  0
 17 18  1  0
 16 17  1  1
 18 19  2  0
 19 20  1  0
 21 20  1  0
 22 21  2  0
 23 22  1  0
 24 25  1  0
 24 23  2  0
 25 26  2  0
 26 18  1  0
 26 21  1  0
 27 16  1  0
 27 28  1  0
 29 27  2  0
M  END
$$$$
