LCW.pdb
     RDKit          3D

 29 30  0  0  1  0  0  0  0  0999 V2000
    9.2235  -13.8517   20.3934 C   0  0  0  0  0  0  0  0  0  0  0  0
    9.1441  -13.5117   18.8960 C   0  0  2  0  0  0  0  0  0  0  0  0
    8.6973  -12.0894   18.7954 C   0  0  0  0  0  0  0  0  0  0  0  0
    8.2180  -14.4950   18.2832 C   0  0  0  0  0  0  0  0  0  0  0  0
    8.6535  -15.9401   18.3807 C   0  0  2  0  0  0  0  0  0  0  0  0
    7.7555  -16.6736   17.5130 N   0  0  0  0  0  0  0  0  0  0  0  0
    8.5568  -16.4236   19.7806 C   0  0  0  0  0  0  0  0  0  0  0  0
    7.4323  -16.4226   20.3559 O   0  0  0  0  0  0  0  0  0  0  0  0
    9.6623  -16.8997   20.5246 N   0  0  0  0  0  0  0  0  0  0  0  0
    9.4388  -17.5743   21.8153 C   0  0  1  0  0  0  0  0  0  0  0  0
    9.9495  -19.0156   21.6392 C   0  0  0  0  0  0  0  0  0  0  0  0
    9.9504  -19.8580   23.2233 S   0  0  0  0  0  0  0  0  0  0  0  0
   10.1394  -16.8461   22.8843 C   0  0  0  0  0  0  0  0  0  0  0  0
   11.2390  -16.2272   22.6102 O   0  0  0  0  0  0  0  0  0  0  0  0
    9.6687  -16.7925   24.1904 N   0  0  0  0  0  0  0  0  0  0  0  0
   10.2491  -16.1083   25.3269 C   0  0  1  0  0  0  0  0  0  0  0  0
    9.6946  -14.7648   25.5351 C   0  0  0  0  0  0  0  0  0  0  0  0
    8.2864  -14.7202   25.9590 C   0  0  0  0  0  0  0  0  0  0  0  0
    7.3947  -15.7372   26.1464 C   0  0  0  0  0  0  0  0  0  0  0  0
    6.2064  -15.2557   26.5530 N   0  0  0  0  0  0  0  0  0  0  0  0
    6.3092  -13.9134   26.6368 C   0  0  0  0  0  0  0  0  0  0  0  0
    5.4032  -12.9449   27.0073 C   0  0  0  0  0  0  0  0  0  0  0  0
    5.7734  -11.6254   27.0163 C   0  0  0  0  0  0  0  0  0  0  0  0
    7.0379  -11.2543   26.6595 C   0  0  0  0  0  0  0  0  0  0  0  0
    7.9666  -12.2299   26.2810 C   0  0  0  0  0  0  0  0  0  0  0  0
    7.5921  -13.5530   26.2733 C   0  0  0  0  0  0  0  0  0  0  0  0
   10.3485  -16.9801   26.5351 C   0  0  0  0  0  0  0  0  0  0  0  0
   11.0885  -16.7222   27.6582 O   0  0  0  0  0  0  0  0  0  0  0  0
    9.6772  -18.0653   26.5213 O   0  0  0  0  0  0  0  0  0  0  0  0
  2  1  1  1
  3  2  1  0
  4  2  1  0
  5  4  1  0
  5  6  1  6
  7  8  2  0
  7  5  1  0
  9  7  1  0
 10  9  1  0
 10 11  1  6
 11 12  1  0
 13 15  1  0
 13 10  1  0
 14 13  2  0
 16 15  1  0
 17 18  1  0
 16 17  1  1
 18 19  2  0
 19 20  1  0
 21 20  1  0
 22 21  2  0
 23 22  1  0
 24 25  1  0
 24 23  2  0
 25 26  2  0
 26 18  1  0
 26 21  1  0
 27 16  1  0
 27 28  1  0
 29 27  2  0
M  END
$$$$
