LCW.pdb
     RDKit          3D

 29 30  0  0  1  0  0  0  0  0999 V2000
    9.2511  -12.3814   19.5139 C   0  0  0  0  0  0  0  0  0  0  0  0
    7.9525  -13.1109   19.1327 C   0  0  2  0  0  0  0  0  0  0  0  0
    6.8277  -12.1620   19.3917 C   0  0  0  0  0  0  0  0  0  0  0  0
    7.9090  -14.3552   19.9390 C   0  0  0  0  0  0  0  0  0  0  0  0
    9.0613  -15.3093   19.7167 C   0  0  2  0  0  0  0  0  0  0  0  0
    8.8024  -15.9362   18.4371 N   0  0  0  0  0  0  0  0  0  0  0  0
    9.1232  -16.3188   20.8029 C   0  0  0  0  0  0  0  0  0  0  0  0
    8.2726  -17.2523   20.8250 O   0  0  0  0  0  0  0  0  0  0  0  0
   10.0949  -16.3061   21.8315 N   0  0  0  0  0  0  0  0  0  0  0  0
   10.0756  -17.3531   22.8681 C   0  0  1  0  0  0  0  0  0  0  0  0
   11.2384  -18.3055   22.5363 C   0  0  0  0  0  0  0  0  0  0  0  0
   12.7640  -17.3732   22.3863 S   0  0  0  0  0  0  0  0  0  0  0  0
   10.2024  -16.7378   24.1982 C   0  0  0  0  0  0  0  0  0  0  0  0
   10.7873  -15.5920   24.3100 O   0  0  0  0  0  0  0  0  0  0  0  0
    9.7173  -17.3382   25.3533 N   0  0  0  0  0  0  0  0  0  0  0  0
    9.8877  -16.9120   26.7266 C   0  0  1  0  0  0  0  0  0  0  0  0
    8.6145  -16.7156   27.4311 C   0  0  0  0  0  0  0  0  0  0  0  0
    7.6274  -15.8779   26.7322 C   0  0  0  0  0  0  0  0  0  0  0  0
    6.5363  -16.2392   25.9948 C   0  0  0  0  0  0  0  0  0  0  0  0
    5.8909  -15.1503   25.5399 N   0  0  0  0  0  0  0  0  0  0  0  0
    6.5555  -14.0611   25.9773 C   0  0  0  0  0  0  0  0  0  0  0  0
    6.3218  -12.7145   25.8094 C   0  0  0  0  0  0  0  0  0  0  0  0
    7.1627  -11.7950   26.3800 C   0  0  0  0  0  0  0  0  0  0  0  0
    8.2380  -12.1983   27.1182 C   0  0  0  0  0  0  0  0  0  0  0  0
    8.4852  -13.5639   27.2951 C   0  0  0  0  0  0  0  0  0  0  0  0
    7.6395  -14.4840   26.7214 C   0  0  0  0  0  0  0  0  0  0  0  0
   10.9315  -17.6986   27.4488 C   0  0  0  0  0  0  0  0  0  0  0  0
   11.4832  -17.3851   28.6623 O   0  0  0  0  0  0  0  0  0  0  0  0
   11.3451  -18.7653   26.8836 O   0  0  0  0  0  0  0  0  0  0  0  0
  2  1  1  1
  3  2  1  0
  4  2  1  0
  5  4  1  0
  5  6  1  6
  7  8  2  0
  7  5  1  0
  9  7  1  0
 10  9  1  0
 10 11  1  6
 11 12  1  0
 13 15  1  0
 13 10  1  0
 14 13  2  0
 16 15  1  0
 17 18  1  0
 16 17  1  1
 18 19  2  0
 19 20  1  0
 21 20  1  0
 22 21  2  0
 23 22  1  0
 24 25  1  0
 24 23  2  0
 25 26  2  0
 26 18  1  0
 26 21  1  0
 27 16  1  0
 27 28  1  0
 29 27  2  0
M  END
$$$$
