LCW.pdb
     RDKit          3D

 29 30  0  0  1  0  0  0  0  0999 V2000
    9.3565  -12.9400   18.4243 C   0  0  0  0  0  0  0  0  0  0  0  0
    7.9627  -13.5629   18.6076 C   0  0  2  0  0  0  0  0  0  0  0  0
    7.0061  -12.4349   18.8201 C   0  0  0  0  0  0  0  0  0  0  0  0
    8.0641  -14.5095   19.7451 C   0  0  0  0  0  0  0  0  0  0  0  0
    8.9926  -15.6833   19.5275 C   0  0  2  0  0  0  0  0  0  0  0  0
    8.3222  -16.5331   18.5654 N   0  0  0  0  0  0  0  0  0  0  0  0
    9.2324  -16.4055   20.8018 C   0  0  0  0  0  0  0  0  0  0  0  0
    8.4205  -17.3032   21.1628 O   0  0  0  0  0  0  0  0  0  0  0  0
   10.3350  -16.1524   21.6518 N   0  0  0  0  0  0  0  0  0  0  0  0
   10.5398  -16.9841   22.8507 C   0  0  1  0  0  0  0  0  0  0  0  0
   11.3084  -18.2318   22.3800 C   0  0  0  0  0  0  0  0  0  0  0  0
   11.7567  -19.2395   23.7952 S   0  0  0  0  0  0  0  0  0  0  0  0
   11.2688  -16.2146   23.8706 C   0  0  0  0  0  0  0  0  0  0  0  0
   12.5528  -16.1095   23.7834 O   0  0  0  0  0  0  0  0  0  0  0  0
   10.6338  -15.5885   24.9360 N   0  0  0  0  0  0  0  0  0  0  0  0
    9.8468  -16.1904   25.9919 C   0  0  1  0  0  0  0  0  0  0  0  0
    8.5014  -16.5838   25.5549 C   0  0  0  0  0  0  0  0  0  0  0  0
    7.4263  -15.6351   25.8848 C   0  0  0  0  0  0  0  0  0  0  0  0
    6.0875  -15.8493   26.0474 C   0  0  0  0  0  0  0  0  0  0  0  0
    5.4592  -14.7018   26.3599 N   0  0  0  0  0  0  0  0  0  0  0  0
    6.3844  -13.7213   26.4057 C   0  0  0  0  0  0  0  0  0  0  0  0
    6.2835  -12.3766   26.6844 C   0  0  0  0  0  0  0  0  0  0  0  0
    7.4035  -11.5869   26.6737 C   0  0  0  0  0  0  0  0  0  0  0  0
    8.6280  -12.1188   26.3876 C   0  0  0  0  0  0  0  0  0  0  0  0
    8.7422  -13.4838   26.1027 C   0  0  0  0  0  0  0  0  0  0  0  0
    7.6165  -14.2734   26.1145 C   0  0  0  0  0  0  0  0  0  0  0  0
   10.6133  -17.2044   26.7754 C   0  0  0  0  0  0  0  0  0  0  0  0
   11.7908  -17.7939   26.3994 O   0  0  0  0  0  0  0  0  0  0  0  0
   10.1273  -17.5510   27.9033 O   0  0  0  0  0  0  0  0  0  0  0  0
  2  1  1  1
  3  2  1  0
  4  2  1  0
  5  4  1  0
  5  6  1  6
  7  8  2  0
  7  5  1  0
  9  7  1  0
 10  9  1  0
 10 11  1  6
 11 12  1  0
 13 15  1  0
 13 10  1  0
 14 13  2  0
 16 15  1  0
 17 18  1  0
 16 17  1  6
 18 19  2  0
 19 20  1  0
 21 20  1  0
 22 21  2  0
 23 22  1  0
 24 25  1  0
 24 23  2  0
 25 26  2  0
 26 18  1  0
 26 21  1  0
 27 16  1  0
 27 28  1  0
 29 27  2  0
M  END
$$$$
