LCW.pdb
     RDKit          3D

 29 30  0  0  1  0  0  0  0  0999 V2000
    9.0223  -12.5552   19.2553 C   0  0  0  0  0  0  0  0  0  0  0  0
    7.6536  -13.2461   19.1399 C   0  0  2  0  0  0  0  0  0  0  0  0
    6.6181  -12.2181   19.4619 C   0  0  0  0  0  0  0  0  0  0  0  0
    7.6812  -14.4058   20.0643 C   0  0  0  0  0  0  0  0  0  0  0  0
    8.6132  -15.5280   19.6649 C   0  0  2  0  0  0  0  0  0  0  0  0
    7.9828  -16.1678   18.5288 N   0  0  0  0  0  0  0  0  0  0  0  0
    8.7919  -16.4850   20.7851 C   0  0  0  0  0  0  0  0  0  0  0  0
    7.8229  -17.2188   21.1285 O   0  0  0  0  0  0  0  0  0  0  0  0
   10.0019  -16.6353   21.5034 N   0  0  0  0  0  0  0  0  0  0  0  0
   10.0556  -17.5426   22.6630 C   0  0  1  0  0  0  0  0  0  0  0  0
   11.1138  -18.6079   22.3245 C   0  0  0  0  0  0  0  0  0  0  0  0
   12.6675  -17.8115   21.9109 S   0  0  0  0  0  0  0  0  0  0  0  0
   10.3817  -16.7785   23.8770 C   0  0  0  0  0  0  0  0  0  0  0  0
   11.1910  -15.7758   23.7929 O   0  0  0  0  0  0  0  0  0  0  0  0
    9.8542  -17.0884   25.1244 N   0  0  0  0  0  0  0  0  0  0  0  0
   10.3051  -16.6426   26.4261 C   0  0  1  0  0  0  0  0  0  0  0  0
    9.8795  -15.2742   26.7457 C   0  0  0  0  0  0  0  0  0  0  0  0
    8.4769  -14.9585   26.4329 C   0  0  0  0  0  0  0  0  0  0  0  0
    7.4429  -15.7889   26.1077 C   0  0  0  0  0  0  0  0  0  0  0  0
    6.3142  -15.0844   25.9103 N   0  0  0  0  0  0  0  0  0  0  0  0
    6.5994  -13.7806   26.1056 C   0  0  0  0  0  0  0  0  0  0  0  0
    5.8160  -12.6501   26.0402 C   0  0  0  0  0  0  0  0  0  0  0  0
    6.3621  -11.4201   26.2991 C   0  0  0  0  0  0  0  0  0  0  0  0
    7.6829  -11.2985   26.6230 C   0  0  0  0  0  0  0  0  0  0  0  0
    8.4882  -12.4405   26.6921 C   0  0  0  0  0  0  0  0  0  0  0  0
    7.9372  -13.6732   26.4320 C   0  0  0  0  0  0  0  0  0  0  0  0
   10.0962  -17.6686   27.4908 C   0  0  0  0  0  0  0  0  0  0  0  0
   10.6414  -17.6513   28.7469 O   0  0  0  0  0  0  0  0  0  0  0  0
    9.3345  -18.6515   27.2043 O   0  0  0  0  0  0  0  0  0  0  0  0
  2  1  1  1
  3  2  1  0
  4  2  1  0
  5  4  1  0
  5  6  1  6
  7  8  2  0
  7  5  1  0
  9  7  1  0
 10  9  1  0
 10 11  1  6
 11 12  1  0
 13 15  1  0
 13 10  1  0
 14 13  2  0
 16 15  1  0
 17 18  1  0
 16 17  1  1
 18 19  2  0
 19 20  1  0
 21 20  1  0
 22 21  2  0
 23 22  1  0
 24 25  1  0
 24 23  2  0
 25 26  2  0
 26 18  1  0
 26 21  1  0
 27 16  1  0
 27 28  1  0
 29 27  2  0
M  END
$$$$
