LCW.pdb
     RDKit          3D

 29 30  0  0  1  0  0  0  0  0999 V2000
    9.2012  -12.9252   18.7572 C   0  0  0  0  0  0  0  0  0  0  0  0
    7.7765  -13.3994   19.0878 C   0  0  2  0  0  0  0  0  0  0  0  0
    7.0335  -12.2138   19.6123 C   0  0  0  0  0  0  0  0  0  0  0  0
    7.9116  -14.5194   20.0508 C   0  0  0  0  0  0  0  0  0  0  0  0
    8.6210  -15.7452   19.5201 C   0  0  2  0  0  0  0  0  0  0  0  0
    7.6713  -16.3890   18.6364 N   0  0  0  0  0  0  0  0  0  0  0  0
    9.0118  -16.6474   20.6320 C   0  0  0  0  0  0  0  0  0  0  0  0
    8.1129  -17.2683   21.2659 O   0  0  0  0  0  0  0  0  0  0  0  0
   10.3516  -16.8651   21.0319 N   0  0  0  0  0  0  0  0  0  0  0  0
   10.6347  -17.6825   22.2247 C   0  0  1  0  0  0  0  0  0  0  0  0
   11.9023  -18.4923   21.8977 C   0  0  0  0  0  0  0  0  0  0  0  0
   12.4456  -19.3860   23.3555 S   0  0  0  0  0  0  0  0  0  0  0  0
   10.8004  -16.8099   23.3972 C   0  0  0  0  0  0  0  0  0  0  0  0
   11.6133  -15.8089   23.3288 O   0  0  0  0  0  0  0  0  0  0  0  0
   10.1160  -17.0142   24.5888 N   0  0  0  0  0  0  0  0  0  0  0  0
   10.3898  -16.4436   25.8911 C   0  0  1  0  0  0  0  0  0  0  0  0
    9.9661  -15.0425   26.0068 C   0  0  0  0  0  0  0  0  0  0  0  0
    8.5164  -14.8100   25.9117 C   0  0  0  0  0  0  0  0  0  0  0  0
    7.5010  -15.6911   25.6725 C   0  0  0  0  0  0  0  0  0  0  0  0
    6.3139  -15.0589   25.6817 N   0  0  0  0  0  0  0  0  0  0  0  0
    6.5413  -13.7525   25.9287 C   0  0  0  0  0  0  0  0  0  0  0  0
    5.6872  -12.6794   26.0515 C   0  0  0  0  0  0  0  0  0  0  0  0
    6.1861  -11.4317   26.3204 C   0  0  0  0  0  0  0  0  0  0  0  0
    7.5291  -11.2356   26.4688 C   0  0  0  0  0  0  0  0  0  0  0  0
    8.4061  -12.3186   26.3458 C   0  0  0  0  0  0  0  0  0  0  0  0
    7.9024  -13.5694   26.0761 C   0  0  0  0  0  0  0  0  0  0  0  0
    9.9984  -17.3501   27.0113 C   0  0  0  0  0  0  0  0  0  0  0  0
    9.3466  -18.5484   26.8901 O   0  0  0  0  0  0  0  0  0  0  0  0
   10.3040  -16.9747   28.1920 O   0  0  0  0  0  0  0  0  0  0  0  0
  2  1  1  1
  3  2  1  0
  4  2  1  0
  5  4  1  0
  5  6  1  6
  7  8  2  0
  7  5  1  0
  9  7  1  0
 10  9  1  0
 10 11  1  6
 11 12  1  0
 13 15  1  0
 13 10  1  0
 14 13  2  0
 16 15  1  0
 17 18  1  0
 16 17  1  1
 18 19  2  0
 19 20  1  0
 21 20  1  0
 22 21  2  0
 23 22  1  0
 24 25  1  0
 24 23  2  0
 25 26  2  0
 26 18  1  0
 26 21  1  0
 27 16  1  0
 27 28  1  0
 29 27  2  0
M  END
$$$$
