LCW.pdb
     RDKit          3D

 29 30  0  0  1  0  0  0  0  0999 V2000
    7.6999  -22.1807   21.2042 C   0  0  0  0  0  0  0  0  0  0  0  0
    8.5710  -21.1454   21.9345 C   0  0  2  0  0  0  0  0  0  0  0  0
    8.6477  -21.5718   23.3646 C   0  0  0  0  0  0  0  0  0  0  0  0
    7.9354  -19.8229   21.7174 C   0  0  0  0  0  0  0  0  0  0  0  0
    8.3725  -19.0939   20.4665 C   0  0  2  0  0  0  0  0  0  0  0  0
    9.3078  -19.9824   19.8085 N   0  0  0  0  0  0  0  0  0  0  0  0
    9.0159  -17.8014   20.8106 C   0  0  0  0  0  0  0  0  0  0  0  0
   10.1871  -17.5681   20.3994 O   0  0  0  0  0  0  0  0  0  0  0  0
    8.3885  -16.7926   21.5794 N   0  0  0  0  0  0  0  0  0  0  0  0
    9.0078  -15.4595   21.6810 C   0  0  1  0  0  0  0  0  0  0  0  0
    7.8945  -14.4449   21.3642 C   0  0  0  0  0  0  0  0  0  0  0  0
    6.4213  -14.8448   22.3071 S   0  0  0  0  0  0  0  0  0  0  0  0
    9.5808  -15.2788   23.0237 C   0  0  0  0  0  0  0  0  0  0  0  0
   10.1834  -14.1729   23.3088 O   0  0  0  0  0  0  0  0  0  0  0  0
    9.5038  -16.2532   24.0110 N   0  0  0  0  0  0  0  0  0  0  0  0
   10.1353  -16.2634   25.3140 C   0  0  1  0  0  0  0  0  0  0  0  0
    9.1717  -16.3126   26.4207 C   0  0  0  0  0  0  0  0  0  0  0  0
    7.8595  -15.7072   26.1446 C   0  0  0  0  0  0  0  0  0  0  0  0
    6.7031  -16.2843   25.7037 C   0  0  0  0  0  0  0  0  0  0  0  0
    5.7267  -15.3654   25.5962 N   0  0  0  0  0  0  0  0  0  0  0  0
    6.2363  -14.1731   25.9677 C   0  0  0  0  0  0  0  0  0  0  0  0
    5.6722  -12.9197   26.0508 C   0  0  0  0  0  0  0  0  0  0  0  0
    6.4230  -11.8554   26.4770 C   0  0  0  0  0  0  0  0  0  0  0  0
    7.7334  -12.0213   26.8226 C   0  0  0  0  0  0  0  0  0  0  0  0
    8.3169  -13.2903   26.7418 C   0  0  0  0  0  0  0  0  0  0  0  0
    7.5608  -14.3562   26.3140 C   0  0  0  0  0  0  0  0  0  0  0  0
   11.2833  -17.2152   25.3905 C   0  0  0  0  0  0  0  0  0  0  0  0
   12.2495  -17.2385   26.3607 O   0  0  0  0  0  0  0  0  0  0  0  0
   11.3695  -18.0918   24.4671 O   0  0  0  0  0  0  0  0  0  0  0  0
  2  1  1  6
  3  2  1  0
  4  2  1  0
  5  4  1  0
  5  6  1  1
  7  8  2  0
  7  5  1  0
  9  7  1  0
 10  9  1  0
 10 11  1  1
 11 12  1  0
 13 15  1  0
 13 10  1  0
 14 13  2  0
 16 15  1  0
 17 18  1  0
 16 17  1  1
 18 19  2  0
 19 20  1  0
 21 20  1  0
 22 21  2  0
 23 22  1  0
 24 25  1  0
 24 23  2  0
 25 26  2  0
 26 18  1  0
 26 21  1  0
 27 16  1  0
 27 28  1  0
 29 27  2  0
M  END
$$$$
