RCT.pdb
     RDKit          3D

 25 24  0  0  1  0  0  0  0  0999 V2000
   30.3729  -22.3396  -18.4433 N   0  0  0  0  0  0  0  0  0  0  0  0
   29.4141  -23.3615  -18.1741 C   0  0  0  0  0  0  0  0  0  0  0  0
   29.6838  -24.5612  -18.5851 N   0  0  0  0  0  0  0  0  0  0  0  0
   28.2110  -23.0628  -17.4800 N   0  0  0  0  0  0  0  0  0  0  0  0
   28.0097  -21.6747  -17.0993 C   0  0  0  0  0  0  0  0  0  0  0  0
   28.8137  -21.2753  -15.9159 C   0  0  0  0  0  0  0  0  0  0  0  0
   28.0906  -21.6761  -14.6611 C   0  0  0  0  0  0  0  0  0  0  0  0
   27.2619  -20.5339  -14.1793 C   0  0  2  0  0  0  0  0  0  0  0  0
   28.0182  -19.8807  -13.1038 N   0  0  0  0  0  0  0  0  0  0  0  0
   25.9784  -21.0296  -13.5425 C   0  0  0  0  0  0  0  0  0  0  0  0
   25.1448  -21.7207  -14.1814 O   0  0  0  0  0  0  0  0  0  0  0  0
   29.0121  -25.3508  -18.4831 N   0  0  0  0  0  0  0  0  0  0  0  0
   25.6790  -20.7232  -12.1897 C   0  0  1  0  0  0  0  0  0  0  0  0
   24.4662  -21.1411  -11.5170 C   0  0  0  0  0  0  0  0  0  0  0  0
   24.5407  -20.9466  -10.0292 S   0  0  0  0  0  0  0  0  0  0  0  0
   26.0866  -20.1307   -9.5486 C   0  0  0  0  0  0  0  0  0  0  0  0
   23.2722  -20.5777  -12.1420 O   0  0  0  0  0  0  0  0  0  0  0  0
   23.1611  -19.3220  -12.1813 C   0  0  0  0  0  0  0  0  0  0  0  0
   19.3789  -21.4017  -15.1183 C   0  0  2  0  0  0  0  0  0  0  0  0
   20.6832  -21.7812  -14.4759 O   0  0  0  0  0  0  0  0  0  0  0  0
   21.6752  -21.7513  -15.4642 C   0  0  1  0  0  0  0  0  0  0  0  0
   21.0936  -20.7560  -13.4140 N   0  0  0  0  0  0  0  0  0  0  0  0
   22.2232  -21.3296  -12.7106 C   0  0  0  0  0  0  0  0  0  0  0  0
   19.9471  -20.6339  -12.4645 O   0  0  0  0  0  0  0  0  0  0  0  0
   19.8131  -21.5525  -11.4432 O   0  0  0  0  0  0  0  0  0  0  0  0
  2  3  2  0
  2  1  1  0
  4  2  1  0
  5  4  1  0
  6  5  1  0
  7  8  1  0
  7  6  1  0
  8  9  1  1
 10  8  1  0
 10 12  1  0
 11 10  2  0
 13 16  1  0
 13 12  1  0
 13 14  1  1
 14 15  1  0
 16 17  2  0
 19 18  1  6
 19 21  1  0
 20 19  1  0
 21 23  1  0
 21 22  1  1
 22 16  1  0
 23 25  2  0
 23 24  1  0
M  END
$$$$
