RCT.pdb
     RDKit          3D

 25 24  0  0  1  0  0  0  0  0999 V2000
   17.3254  -18.0185  -19.4652 N   0  0  0  0  0  0  0  0  0  0  0  0
   17.8863  -17.5674  -20.6972 C   0  0  0  0  0  0  0  0  0  0  0  0
   17.6940  -18.3009  -21.7489 N   0  0  0  0  0  0  0  0  0  0  0  0
   18.6270  -16.3564  -20.7568 N   0  0  0  0  0  0  0  0  0  0  0  0
   18.7457  -15.6075  -19.5170 C   0  0  0  0  0  0  0  0  0  0  0  0
   19.5147  -14.3462  -19.6725 C   0  0  0  0  0  0  0  0  0  0  0  0
   19.6537  -13.6765  -18.3347 C   0  0  0  0  0  0  0  0  0  0  0  0
   21.0410  -13.8711  -17.8236 C   0  0  2  0  0  0  0  0  0  0  0  0
   21.0471  -15.1333  -17.0737 N   0  0  0  0  0  0  0  0  0  0  0  0
   21.4036  -12.7916  -16.8228 C   0  0  0  0  0  0  0  0  0  0  0  0
   20.8886  -12.7498  -15.6766 O   0  0  0  0  0  0  0  0  0  0  0  0
   18.0697  -18.0437  -22.6857 N   0  0  0  0  0  0  0  0  0  0  0  0
   22.3467  -11.7854  -17.1568 C   0  0  1  0  0  0  0  0  0  0  0  0
   22.7458  -10.7228  -16.2570 C   0  0  0  0  0  0  0  0  0  0  0  0
   24.2361  -10.6500  -16.0824 S   0  0  0  0  0  0  0  0  0  0  0  0
   24.8206  -11.8862  -14.8922 C   0  0  0  0  0  0  0  0  0  0  0  0
   22.1135   -9.4510  -16.5982 O   0  0  0  0  0  0  0  0  0  0  0  0
   22.4329   -8.9051  -17.6894 C   0  0  0  0  0  0  0  0  0  0  0  0
   18.3042   -8.5741  -16.4717 C   0  0  2  0  0  0  0  0  0  0  0  0
   19.1005   -7.5912  -15.6605 O   0  0  0  0  0  0  0  0  0  0  0  0
   19.1523   -8.0621  -14.3425 C   0  0  2  0  0  0  0  0  0  0  0  0
   20.5488   -7.5144  -16.1540 N   0  0  0  0  0  0  0  0  0  0  0  0
   21.1661   -8.7768  -15.8002 C   0  0  0  0  0  0  0  0  0  0  0  0
   21.2117   -6.4213  -15.3815 O   0  0  0  0  0  0  0  0  0  0  0  0
   20.8643   -5.1091  -15.6310 O   0  0  0  0  0  0  0  0  0  0  0  0
  2  3  2  0
  2  1  1  0
  4  2  1  0
  5  4  1  0
  6  5  1  0
  7  8  1  0
  7  6  1  0
  8  9  1  1
 10  8  1  0
 10 12  1  0
 11 10  2  0
 13 16  1  0
 13 12  1  0
 13 14  1  1
 14 15  1  0
 16 17  2  0
 19 18  1  1
 19 21  1  0
 20 19  1  0
 21 23  1  0
 21 22  1  6
 22 16  1  0
 23 25  2  0
 23 24  1  0
M  END
$$$$
