RCT.pdb
     RDKit          3D

 25 24  0  0  1  0  0  0  0  0999 V2000
   18.7165  -12.5607  -19.8593 N   0  0  0  0  0  0  0  0  0  0  0  0
   17.4161  -12.8032  -19.3245 C   0  0  0  0  0  0  0  0  0  0  0  0
   16.7831  -13.8561  -19.7388 N   0  0  0  0  0  0  0  0  0  0  0  0
   16.8460  -11.9156  -18.3728 N   0  0  0  0  0  0  0  0  0  0  0  0
   17.7023  -10.8449  -17.8906 C   0  0  0  0  0  0  0  0  0  0  0  0
   16.9936   -9.8929  -16.9975 C   0  0  0  0  0  0  0  0  0  0  0  0
   17.9476   -8.8219  -16.5495 C   0  0  0  0  0  0  0  0  0  0  0  0
   18.6519   -9.2694  -15.3137 C   0  0  2  0  0  0  0  0  0  0  0  0
   17.6781  -10.0258  -14.5168 N   0  0  0  0  0  0  0  0  0  0  0  0
   19.0529   -8.0815  -14.4613 C   0  0  0  0  0  0  0  0  0  0  0  0
   18.2100   -7.4283  -13.7953 O   0  0  0  0  0  0  0  0  0  0  0  0
   15.8528  -14.1334  -19.3612 N   0  0  0  0  0  0  0  0  0  0  0  0
   20.4088   -7.6690  -14.3909 C   0  0  1  0  0  0  0  0  0  0  0  0
   20.8781   -6.5771  -13.5629 C   0  0  0  0  0  0  0  0  0  0  0  0
   21.9385   -7.0105  -12.5909 S   0  0  0  0  0  0  0  0  0  0  0  0
   21.2607   -8.1231  -11.3302 C   0  0  0  0  0  0  0  0  0  0  0  0
   21.2277   -5.4009  -14.3554 O   0  0  0  0  0  0  0  0  0  0  0  0
   22.1298   -5.5223  -15.2284 C   0  0  0  0  0  0  0  0  0  0  0  0
   18.6116   -2.9602  -16.0452 C   0  0  2  0  0  0  0  0  0  0  0  0
   19.6130   -2.2120  -15.2113 O   0  0  0  0  0  0  0  0  0  0  0  0
   19.0917   -2.0913  -13.9170 C   0  0  2  0  0  0  0  0  0  0  0  0
   20.9215   -2.9984  -15.0835 N   0  0  0  0  0  0  0  0  0  0  0  0
   20.6339   -4.1286  -14.2233 C   0  0  0  0  0  0  0  0  0  0  0  0
   21.8982   -2.1041  -14.3927 O   0  0  0  0  0  0  0  0  0  0  0  0
   22.4250   -1.0241  -15.0716 O   0  0  0  0  0  0  0  0  0  0  0  0
  2  3  2  0
  2  1  1  0
  4  2  1  0
  5  4  1  0
  6  5  1  0
  7  8  1  0
  7  6  1  0
  8  9  1  1
 10  8  1  0
 10 12  1  0
 11 10  2  0
 13 16  1  0
 13 12  1  0
 13 14  1  1
 14 15  1  0
 16 17  2  0
 19 18  1  6
 19 21  1  0
 20 19  1  0
 21 23  1  0
 21 22  1  6
 22 16  1  0
 23 25  2  0
 23 24  1  0
M  END
$$$$
