RCT.pdb
     RDKit          3D

 25 24  0  0  1  0  0  0  0  0999 V2000
   20.5900  -19.7784  -15.4912 N   0  0  0  0  0  0  0  0  0  0  0  0
   21.0682  -18.6395  -16.2056 C   0  0  0  0  0  0  0  0  0  0  0  0
   20.2748  -18.1015  -17.0785 N   0  0  0  0  0  0  0  0  0  0  0  0
   22.3689  -18.1231  -15.9606 N   0  0  0  0  0  0  0  0  0  0  0  0
   23.2423  -18.9340  -15.1289 C   0  0  0  0  0  0  0  0  0  0  0  0
   23.4852  -20.2876  -15.6901 C   0  0  0  0  0  0  0  0  0  0  0  0
   24.2307  -21.1197  -14.6853 C   0  0  0  0  0  0  0  0  0  0  0  0
   24.2032  -20.4393  -13.3587 C   0  0  2  0  0  0  0  0  0  0  0  0
   25.4907  -20.7158  -12.7097 N   0  0  0  0  0  0  0  0  0  0  0  0
   23.1457  -21.0507  -12.4607 C   0  0  0  0  0  0  0  0  0  0  0  0
   23.2541  -22.2188  -12.0085 O   0  0  0  0  0  0  0  0  0  0  0  0
   20.5415  -17.2607  -17.6325 N   0  0  0  0  0  0  0  0  0  0  0  0
   21.9891  -20.3113  -12.1013 C   0  0  2  0  0  0  0  0  0  0  0  0
   20.9446  -20.8177  -11.2349 C   0  0  0  0  0  0  0  0  0  0  0  0
   20.8009  -20.0079   -9.9777 S   0  0  0  0  0  0  0  0  0  0  0  0
   19.5170  -20.6930   -8.8965 C   0  0  0  0  0  0  0  0  0  0  0  0
   19.6949  -21.0405  -11.9575 O   0  0  0  0  0  0  0  0  0  0  0  0
   19.1662  -20.0564  -12.5431 C   0  0  0  0  0  0  0  0  0  0  0  0
   18.8705  -23.9463  -14.5067 C   0  0  2  0  0  0  0  0  0  0  0  0
   17.8749  -23.8925  -13.3824 O   0  0  0  0  0  0  0  0  0  0  0  0
   18.3345  -24.7313  -12.3592 C   0  0  2  0  0  0  0  0  0  0  0  0
   17.7908  -22.4834  -12.7873 N   0  0  0  0  0  0  0  0  0  0  0  0
   19.0242  -22.2773  -12.0551 C   0  0  0  0  0  0  0  0  0  0  0  0
   16.6524  -22.4893  -11.8203 O   0  0  0  0  0  0  0  0  0  0  0  0
   15.3605  -22.5870  -12.2959 O   0  0  0  0  0  0  0  0  0  0  0  0
  2  3  2  0
  2  1  1  0
  4  2  1  0
  5  4  1  0
  6  5  1  0
  7  8  1  0
  7  6  1  0
  8  9  1  1
 10  8  1  0
 10 12  1  0
 11 10  2  0
 13 16  1  0
 13 12  1  0
 13 14  1  1
 14 15  1  0
 16 17  2  0
 19 18  1  6
 19 21  1  0
 20 19  1  0
 21 23  1  0
 21 22  1  6
 22 16  1  0
 23 25  2  0
 23 24  1  0
M  END
$$$$
