RCT.pdb
     RDKit          3D

 25 24  0  0  1  0  0  0  0  0999 V2000
   27.6633  -21.8667   -9.5941 N   0  0  0  0  0  0  0  0  0  0  0  0
   27.8772  -21.5427  -10.9672 C   0  0  0  0  0  0  0  0  0  0  0  0
   28.9356  -22.0248  -11.5402 N   0  0  0  0  0  0  0  0  0  0  0  0
   26.9565  -20.7204  -11.6705 N   0  0  0  0  0  0  0  0  0  0  0  0
   25.6659  -20.5045  -11.0380 C   0  0  0  0  0  0  0  0  0  0  0  0
   24.5668  -21.2621  -11.6892 C   0  0  0  0  0  0  0  0  0  0  0  0
   24.5372  -20.9393  -13.1565 C   0  0  0  0  0  0  0  0  0  0  0  0
   23.4849  -21.7582  -13.8240 C   0  0  2  0  0  0  0  0  0  0  0  0
   23.5140  -21.4114  -15.2503 N   0  0  0  0  0  0  0  0  0  0  0  0
   22.1051  -21.3699  -13.3303 C   0  0  0  0  0  0  0  0  0  0  0  0
   21.7315  -21.6047  -12.1530 O   0  0  0  0  0  0  0  0  0  0  0  0
   29.2355  -21.7346  -12.4945 N   0  0  0  0  0  0  0  0  0  0  0  0
   21.1853  -20.7221  -14.1950 C   0  0  1  0  0  0  0  0  0  0  0  0
   19.8581  -20.3030  -13.7935 C   0  0  0  0  0  0  0  0  0  0  0  0
   19.6479  -18.8254  -13.9652 S   0  0  0  0  0  0  0  0  0  0  0  0
   17.9786  -18.3345  -13.4562 C   0  0  0  0  0  0  0  0  0  0  0  0
   18.8175  -21.1359  -14.3911 O   0  0  0  0  0  0  0  0  0  0  0  0
   18.6629  -21.0835  -15.6417 C   0  0  0  0  0  0  0  0  0  0  0  0
   17.8726  -24.9309  -13.3830 C   0  0  2  0  0  0  0  0  0  0  0  0
   16.6958  -23.9970  -13.3523 O   0  0  0  0  0  0  0  0  0  0  0  0
   16.5903  -23.4790  -12.0553 C   0  0  2  0  0  0  0  0  0  0  0  0
   16.9168  -22.8008  -14.2836 N   0  0  0  0  0  0  0  0  0  0  0  0
   17.9632  -22.0021  -13.6777 C   0  0  0  0  0  0  0  0  0  0  0  0
   15.6483  -22.0121  -14.2834 O   0  0  0  0  0  0  0  0  0  0  0  0
   14.5225  -22.5404  -14.8820 O   0  0  0  0  0  0  0  0  0  0  0  0
  2  3  2  0
  2  1  1  0
  4  2  1  0
  5  4  1  0
  6  5  1  0
  7  8  1  0
  7  6  1  0
  8  9  1  6
 10  8  1  0
 10 12  1  0
 11 10  2  0
 13 16  1  0
 13 12  1  0
 13 14  1  1
 14 15  1  0
 16 17  2  0
 19 18  1  1
 19 21  1  0
 20 19  1  0
 21 23  1  0
 21 22  1  6
 22 16  1  0
 23 25  2  0
 23 24  1  0
M  END
$$$$
