RCT.pdb
     RDKit          3D

 25 24  0  0  1  0  0  0  0  0999 V2000
   15.3833  -15.3763  -14.2320 N   0  0  0  0  0  0  0  0  0  0  0  0
   14.6167  -14.5797  -15.1341 C   0  0  0  0  0  0  0  0  0  0  0  0
   13.3376  -14.5091  -14.9346 N   0  0  0  0  0  0  0  0  0  0  0  0
   15.2438  -13.8935  -16.2086 N   0  0  0  0  0  0  0  0  0  0  0  0
   16.6963  -13.9303  -16.2415 C   0  0  0  0  0  0  0  0  0  0  0  0
   17.2667  -13.2541  -17.4347 C   0  0  0  0  0  0  0  0  0  0  0  0
   17.1439  -11.7652  -17.2727 C   0  0  0  0  0  0  0  0  0  0  0  0
   18.4941  -11.1784  -17.0359 C   0  0  2  0  0  0  0  0  0  0  0  0
   19.1454  -12.0038  -16.0112 N   0  0  0  0  0  0  0  0  0  0  0  0
   18.3814   -9.7889  -16.4400 C   0  0  0  0  0  0  0  0  0  0  0  0
   17.7305   -8.8748  -17.0070 O   0  0  0  0  0  0  0  0  0  0  0  0
   12.6959  -14.0184  -15.5921 N   0  0  0  0  0  0  0  0  0  0  0  0
   19.0159   -9.4780  -15.2095 C   0  0  1  0  0  0  0  0  0  0  0  0
   18.9399   -8.1819  -14.5672 C   0  0  0  0  0  0  0  0  0  0  0  0
   18.1073   -8.2104  -13.3170 S   0  0  0  0  0  0  0  0  0  0  0  0
   18.8021   -9.3491  -12.0893 C   0  0  0  0  0  0  0  0  0  0  0  0
   20.2583   -7.5749  -14.4027 O   0  0  0  0  0  0  0  0  0  0  0  0
   21.1853   -8.2908  -13.9349 C   0  0  0  0  0  0  0  0  0  0  0  0
   22.4718   -6.0205  -16.9653 C   0  0  2  0  0  0  0  0  0  0  0  0
   22.2476   -4.9918  -15.8931 O   0  0  0  0  0  0  0  0  0  0  0  0
   21.1366   -4.2219  -16.2600 C   0  0  2  0  0  0  0  0  0  0  0  0
   21.8973   -5.6551  -14.5572 N   0  0  0  0  0  0  0  0  0  0  0  0
   20.5831   -6.2413  -14.7270 C   0  0  0  0  0  0  0  0  0  0  0  0
   21.8096   -4.5631  -13.5418 O   0  0  0  0  0  0  0  0  0  0  0  0
   22.9667   -3.9517  -13.1034 O   0  0  0  0  0  0  0  0  0  0  0  0
  2  3  2  0
  2  1  1  0
  4  2  1  0
  5  4  1  0
  6  5  1  0
  7  8  1  0
  7  6  1  0
  8  9  1  1
 10  8  1  0
 10 12  1  0
 11 10  2  0
 13 16  1  0
 13 12  1  0
 13 14  1  6
 14 15  1  0
 16 17  2  0
 19 18  1  6
 19 21  1  0
 20 19  1  0
 21 23  1  0
 21 22  1  1
 22 16  1  0
 23 25  2  0
 23 24  1  0
M  END
$$$$
