GIW.pdb
     RDKit          3D

 27 28  0  0  1  0  0  0  0  0999 V2000
   25.3450  -25.2463  -16.1594 N   0  0  0  0  0  0  0  0  0  0  0  0
   24.8063  -23.9305  -15.9691 C   0  0  0  0  0  0  0  0  0  0  0  0
   25.6795  -23.1730  -15.0525 C   0  0  0  0  0  0  0  0  0  0  0  0
   26.2746  -23.7873  -14.1169 O   0  0  0  0  0  0  0  0  0  0  0  0
   27.9356  -18.2970  -16.6370 C   0  0  0  0  0  0  0  0  0  0  0  0
   27.8368  -19.6682  -16.0316 C   0  0  0  0  0  0  0  0  0  0  0  0
   27.0575  -19.6593  -14.7305 C   0  0  2  0  0  0  0  0  0  0  0  0
   27.7979  -18.8948  -13.6553 C   0  0  0  0  0  0  0  0  0  0  0  0
   26.7932  -21.0575  -14.2312 C   0  0  2  0  0  0  0  0  0  0  0  0
   25.9041  -21.7787  -15.1466 N   0  0  0  0  0  0  0  0  0  0  0  0
   26.1555  -20.9737  -12.8935 C   0  0  0  0  0  0  0  0  0  0  0  0
   24.9442  -20.6695  -12.8172 O   0  0  0  0  0  0  0  0  0  0  0  0
   26.9036  -21.2327  -11.7374 N   0  0  0  0  0  0  0  0  0  0  0  0
   26.2589  -21.1325  -10.4142 C   0  0  1  0  0  0  0  0  0  0  0  0
   27.3721  -21.3004   -9.4143 C   0  0  0  0  0  0  0  0  0  0  0  0
   27.1019  -20.8063   -8.0680 C   0  0  0  0  0  0  0  0  0  0  0  0
   25.8383  -20.5388   -7.5052 C   0  0  0  0  0  0  0  0  0  0  0  0
   25.9870  -20.0720   -6.2716 N   0  0  0  0  0  0  0  0  0  0  0  0
   27.2791  -20.0071   -5.9619 C   0  0  0  0  0  0  0  0  0  0  0  0
   27.9517  -19.6190   -4.8348 C   0  0  0  0  0  0  0  0  0  0  0  0
   29.3258  -19.6613   -4.7507 C   0  0  0  0  0  0  0  0  0  0  0  0
   30.0137  -20.1087   -5.8409 C   0  0  0  0  0  0  0  0  0  0  0  0
   29.3784  -20.5053   -6.9871 C   0  0  0  0  0  0  0  0  0  0  0  0
   27.9943  -20.4585   -7.0627 C   0  0  0  0  0  0  0  0  0  0  0  0
   25.5186  -19.8893  -10.3455 C   0  0  0  0  0  0  0  0  0  0  0  0
   24.2062  -19.8781   -9.8914 O   0  0  0  0  0  0  0  0  0  0  0  0
   26.0142  -18.8030  -10.6825 O   0  0  0  0  0  0  0  0  0  0  0  0
  2  3  1  0
  2  1  1  0
  3  4  2  0
  6  5  1  0
  7  6  1  0
  7  9  1  0
  7  8  1  1
  9 10  1  6
 10  3  1  0
 11  9  1  0
 12 11  2  0
 13 11  1  0
 14 13  1  0
 14 25  1  0
 14 15  1  1
 16 15  1  0
 17 16  2  0
 18 17  1  0
 19 18  1  0
 19 24  2  0
 20 21  2  0
 20 19  1  0
 21 22  1  0
 22 23  2  0
 23 24  1  0
 24 16  1  0
 25 26  1  0
 27 25  2  0
M  END
$$$$
