GIW.pdb
     RDKit          3D

 27 28  0  0  1  0  0  0  0  0999 V2000
   28.7381  -23.8265  -16.9620 N   0  0  0  0  0  0  0  0  0  0  0  0
   27.5235  -23.1477  -16.6129 C   0  0  0  0  0  0  0  0  0  0  0  0
   27.8087  -22.1390  -15.5748 C   0  0  0  0  0  0  0  0  0  0  0  0
   28.9912  -22.0242  -15.1328 O   0  0  0  0  0  0  0  0  0  0  0  0
   26.8647  -17.2013  -16.4295 C   0  0  0  0  0  0  0  0  0  0  0  0
   27.4068  -18.4798  -15.8567 C   0  0  0  0  0  0  0  0  0  0  0  0
   26.7018  -18.8697  -14.5717 C   0  0  2  0  0  0  0  0  0  0  0  0
   26.9348  -17.8413  -13.4868 C   0  0  0  0  0  0  0  0  0  0  0  0
   27.1661  -20.2133  -14.0685 C   0  0  2  0  0  0  0  0  0  0  0  0
   26.8336  -21.2721  -15.0261 N   0  0  0  0  0  0  0  0  0  0  0  0
   26.4963  -20.4954  -12.7743 C   0  0  0  0  0  0  0  0  0  0  0  0
   25.2699  -20.7434  -12.7676 O   0  0  0  0  0  0  0  0  0  0  0  0
   27.2314  -20.4832  -11.5815 N   0  0  0  0  0  0  0  0  0  0  0  0
   26.5637  -20.8210  -10.3101 C   0  0  1  0  0  0  0  0  0  0  0  0
   27.6325  -20.7071   -9.2557 C   0  0  0  0  0  0  0  0  0  0  0  0
   27.1667  -20.6888   -7.8728 C   0  0  0  0  0  0  0  0  0  0  0  0
   25.9030  -21.0976   -7.4027 C   0  0  0  0  0  0  0  0  0  0  0  0
   25.8296  -20.9065   -6.0912 N   0  0  0  0  0  0  0  0  0  0  0  0
   26.9708  -20.3918   -5.6414 C   0  0  0  0  0  0  0  0  0  0  0  0
   27.4064  -20.0317   -4.3948 C   0  0  0  0  0  0  0  0  0  0  0  0
   28.6694  -19.5267   -4.1778 C   0  0  0  0  0  0  0  0  0  0  0  0
   29.4919  -19.3916   -5.2582 C   0  0  0  0  0  0  0  0  0  0  0  0
   29.0937  -19.7396   -6.5212 C   0  0  0  0  0  0  0  0  0  0  0  0
   27.8198  -20.2467   -6.7300 C   0  0  0  0  0  0  0  0  0  0  0  0
   25.4073  -19.9644  -10.1449 C   0  0  0  0  0  0  0  0  0  0  0  0
   24.1927  -20.4968   -9.7326 O   0  0  0  0  0  0  0  0  0  0  0  0
   25.4505  -18.7434  -10.3603 O   0  0  0  0  0  0  0  0  0  0  0  0
  2  3  1  0
  2  1  1  0
  3  4  2  0
  6  5  1  0
  7  6  1  0
  7  9  1  0
  7  8  1  1
  9 10  1  6
 10  3  1  0
 11  9  1  0
 12 11  2  0
 13 11  1  0
 14 13  1  0
 14 25  1  0
 14 15  1  1
 16 15  1  0
 17 16  2  0
 18 17  1  0
 19 18  1  0
 19 24  2  0
 20 21  2  0
 20 19  1  0
 21 22  1  0
 22 23  2  0
 23 24  1  0
 24 16  1  0
 25 26  1  0
 27 25  2  0
M  END
$$$$
