GIW.pdb
     RDKit          3D

 27 28  0  0  1  0  0  0  0  0999 V2000
   28.1860  -21.7002  -15.5744 N   0  0  0  0  0  0  0  0  0  0  0  0
   27.9042  -20.6723  -14.6143 C   0  0  0  0  0  0  0  0  0  0  0  0
   26.8347  -21.1309  -13.7075 C   0  0  0  0  0  0  0  0  0  0  0  0
   26.2013  -22.1930  -13.9861 O   0  0  0  0  0  0  0  0  0  0  0  0
   27.1237  -20.4369   -8.3557 C   0  0  0  0  0  0  0  0  0  0  0  0
   26.7836  -21.0418   -9.6880 C   0  0  0  0  0  0  0  0  0  0  0  0
   25.5079  -20.4601  -10.2664 C   0  0  2  0  0  0  0  0  0  0  0  0
   24.2975  -20.9007   -9.4730 C   0  0  0  0  0  0  0  0  0  0  0  0
   25.3139  -20.8668  -11.7055 C   0  0  2  0  0  0  0  0  0  0  0  0
   26.4583  -20.4536  -12.5230 N   0  0  0  0  0  0  0  0  0  0  0  0
   24.0830  -20.2184  -12.2227 C   0  0  0  0  0  0  0  0  0  0  0  0
   24.0330  -18.9694  -12.2780 O   0  0  0  0  0  0  0  0  0  0  0  0
   22.9969  -20.9984  -12.6414 N   0  0  0  0  0  0  0  0  0  0  0  0
   21.9681  -20.4054  -13.5169 C   0  0  1  0  0  0  0  0  0  0  0  0
   22.6889  -20.0372  -14.7866 C   0  0  0  0  0  0  0  0  0  0  0  0
   21.8620  -19.4814  -15.8529 C   0  0  0  0  0  0  0  0  0  0  0  0
   21.1637  -18.2579  -15.8282 C   0  0  0  0  0  0  0  0  0  0  0  0
   20.4944  -18.1011  -16.9638 N   0  0  0  0  0  0  0  0  0  0  0  0
   20.6976  -19.1470  -17.7603 C   0  0  0  0  0  0  0  0  0  0  0  0
   20.2601  -19.4628  -19.0181 C   0  0  0  0  0  0  0  0  0  0  0  0
   20.6344  -20.6262  -19.6533 C   0  0  0  0  0  0  0  0  0  0  0  0
   21.4689  -21.4732  -18.9839 C   0  0  0  0  0  0  0  0  0  0  0  0
   21.9282  -21.1942  -17.7245 C   0  0  0  0  0  0  0  0  0  0  0  0
   21.5453  -20.0204  -17.0926 C   0  0  0  0  0  0  0  0  0  0  0  0
   20.8704  -21.3408  -13.6520 C   0  0  0  0  0  0  0  0  0  0  0  0
   19.5819  -20.8810  -13.8906 O   0  0  0  0  0  0  0  0  0  0  0  0
   21.0300  -22.5678  -13.5620 O   0  0  0  0  0  0  0  0  0  0  0  0
  2  3  1  0
  2  1  1  0
  3  4  2  0
  6  5  1  0
  7  6  1  0
  7  9  1  0
  7  8  1  1
  9 10  1  6
 10  3  1  0
 11  9  1  0
 12 11  2  0
 13 11  1  0
 14 13  1  0
 14 25  1  0
 14 15  1  6
 16 15  1  0
 17 16  2  0
 18 17  1  0
 19 18  1  0
 19 24  2  0
 20 21  2  0
 20 19  1  0
 21 22  1  0
 22 23  2  0
 23 24  1  0
 24 16  1  0
 25 26  1  0
 27 25  2  0
M  END
$$$$
