GIW.pdb
     RDKit          3D

 27 28  0  0  1  0  0  0  0  0999 V2000
   22.1194  -20.3480   -8.7291 N   0  0  0  0  0  0  0  0  0  0  0  0
   23.1636  -21.3266   -8.8276 C   0  0  0  0  0  0  0  0  0  0  0  0
   24.2323  -20.8138   -9.7058 C   0  0  0  0  0  0  0  0  0  0  0  0
   23.9648  -19.8876  -10.5289 O   0  0  0  0  0  0  0  0  0  0  0  0
   29.6739  -21.1130   -8.4510 C   0  0  0  0  0  0  0  0  0  0  0  0
   28.3086  -20.6862   -8.9095 C   0  0  0  0  0  0  0  0  0  0  0  0
   27.9474  -21.2884  -10.2538 C   0  0  2  0  0  0  0  0  0  0  0  0
   28.9297  -20.8654  -11.3238 C   0  0  0  0  0  0  0  0  0  0  0  0
   26.5604  -20.8867  -10.6883 C   0  0  2  0  0  0  0  0  0  0  0  0
   25.5638  -21.2938   -9.6935 N   0  0  0  0  0  0  0  0  0  0  0  0
   26.2568  -21.5450  -11.9835 C   0  0  0  0  0  0  0  0  0  0  0  0
   25.9315  -22.7532  -11.9881 O   0  0  0  0  0  0  0  0  0  0  0  0
   26.3347  -20.8193  -13.1796 N   0  0  0  0  0  0  0  0  0  0  0  0
   25.4265  -21.1509  -14.2939 C   0  0  1  0  0  0  0  0  0  0  0  0
   24.0403  -21.0962  -13.7084 C   0  0  0  0  0  0  0  0  0  0  0  0
   22.9397  -21.1519  -14.6651 C   0  0  0  0  0  0  0  0  0  0  0  0
   22.1247  -20.0789  -15.0770 C   0  0  0  0  0  0  0  0  0  0  0  0
   21.2086  -20.5151  -15.9328 N   0  0  0  0  0  0  0  0  0  0  0  0
   21.3534  -21.8230  -16.1277 C   0  0  0  0  0  0  0  0  0  0  0  0
   20.6903  -22.7306  -16.9086 C   0  0  0  0  0  0  0  0  0  0  0  0
   21.0502  -24.0593  -16.9537 C   0  0  0  0  0  0  0  0  0  0  0  0
   22.1053  -24.4563  -16.1848 C   0  0  0  0  0  0  0  0  0  0  0  0
   22.7940  -23.5798  -15.3898 C   0  0  0  0  0  0  0  0  0  0  0  0
   22.4239  -22.2437  -15.3505 C   0  0  0  0  0  0  0  0  0  0  0  0
   25.6909  -20.2521  -15.3987 C   0  0  0  0  0  0  0  0  0  0  0  0
   25.4419  -20.6531  -16.7047 O   0  0  0  0  0  0  0  0  0  0  0  0
   26.1422  -19.1088  -15.2299 O   0  0  0  0  0  0  0  0  0  0  0  0
  2  3  1  0
  2  1  1  0
  3  4  2  0
  6  5  1  0
  7  6  1  0
  7  9  1  0
  7  8  1  6
  9 10  1  1
 10  3  1  0
 11  9  1  0
 12 11  2  0
 13 11  1  0
 14 13  1  0
 14 25  1  0
 14 15  1  1
 16 15  1  0
 17 16  2  0
 18 17  1  0
 19 18  1  0
 19 24  2  0
 20 21  2  0
 20 19  1  0
 21 22  1  0
 22 23  2  0
 23 24  1  0
 24 16  1  0
 25 26  1  0
 27 25  2  0
M  END
$$$$
