GIW.pdb
     RDKit          3D

 27 28  0  0  1  0  0  0  0  0999 V2000
   20.7488  -20.3403  -13.6583 N   0  0  0  0  0  0  0  0  0  0  0  0
   21.8468  -19.4893  -13.3003 C   0  0  0  0  0  0  0  0  0  0  0  0
   22.9574  -20.3143  -12.7880 C   0  0  0  0  0  0  0  0  0  0  0  0
   22.7016  -21.4439  -12.2728 O   0  0  0  0  0  0  0  0  0  0  0  0
   28.2453  -19.3833  -14.4952 C   0  0  0  0  0  0  0  0  0  0  0  0
   27.0681  -19.3796  -13.5621 C   0  0  0  0  0  0  0  0  0  0  0  0
   26.5680  -20.7820  -13.2738 C   0  0  2  0  0  0  0  0  0  0  0  0
   26.1464  -21.4842  -14.5458 C   0  0  0  0  0  0  0  0  0  0  0  0
   25.3994  -20.7706  -12.3207 C   0  0  2  0  0  0  0  0  0  0  0  0
   24.3173  -19.9246  -12.8324 N   0  0  0  0  0  0  0  0  0  0  0  0
   25.8570  -20.2421  -11.0113 C   0  0  0  0  0  0  0  0  0  0  0  0
   25.2633  -19.2599  -10.5130 O   0  0  0  0  0  0  0  0  0  0  0  0
   26.9376  -20.8384  -10.3480 N   0  0  0  0  0  0  0  0  0  0  0  0
   27.2858  -20.4014   -8.9826 C   0  0  1  0  0  0  0  0  0  0  0  0
   26.0579  -20.6686   -8.1530 C   0  0  0  0  0  0  0  0  0  0  0  0
   26.2407  -20.6188   -6.7060 C   0  0  0  0  0  0  0  0  0  0  0  0
   25.3882  -21.1690   -5.7285 C   0  0  0  0  0  0  0  0  0  0  0  0
   25.8607  -20.8979   -4.5181 N   0  0  0  0  0  0  0  0  0  0  0  0
   26.9862  -20.1955   -4.6154 C   0  0  0  0  0  0  0  0  0  0  0  0
   27.8554  -19.6897   -3.6870 C   0  0  0  0  0  0  0  0  0  0  0  0
   28.9896  -18.9961   -4.0468 C   0  0  0  0  0  0  0  0  0  0  0  0
   29.2299  -18.8221   -5.3788 C   0  0  0  0  0  0  0  0  0  0  0  0
   28.3849  -19.3117   -6.3385 C   0  0  0  0  0  0  0  0  0  0  0  0
   27.2448  -20.0085   -5.9664 C   0  0  0  0  0  0  0  0  0  0  0  0
   28.4981  -21.0772   -8.5680 C   0  0  0  0  0  0  0  0  0  0  0  0
   29.4549  -20.4054   -7.8185 O   0  0  0  0  0  0  0  0  0  0  0  0
   28.7298  -22.2609   -8.8586 O   0  0  0  0  0  0  0  0  0  0  0  0
  2  3  1  0
  2  1  1  0
  3  4  2  0
  6  5  1  0
  7  6  1  0
  7  9  1  0
  7  8  1  6
  9 10  1  6
 10  3  1  0
 11  9  1  0
 12 11  2  0
 13 11  1  0
 14 13  1  0
 14 25  1  0
 14 15  1  1
 16 15  1  0
 17 16  2  0
 18 17  1  0
 19 18  1  0
 19 24  2  0
 20 21  2  0
 20 19  1  0
 21 22  1  0
 22 23  2  0
 23 24  1  0
 24 16  1  0
 25 26  1  0
 27 25  2  0
M  END
$$$$
