TCP.pdb
     RDKit          3D

 21 21  0  0  1  0  0  0  0  0999 V2000
   23.0772  -21.1200  -11.9901 C   0  0  0  0  0  0  0  0  0  0  0  0
   23.3172  -20.6035  -10.5897 C   0  0  1  0  0  0  0  0  0  0  0  0
   22.3337  -21.0868   -9.7271 O   0  0  0  0  0  0  0  0  0  0  0  0
   24.6851  -21.0926  -10.1312 C   0  0  2  0  0  0  0  0  0  0  0  0
   24.8853  -20.6476   -8.7759 N   0  0  0  0  0  0  0  0  0  0  0  0
   25.7473  -20.5606  -11.0308 C   0  0  0  0  0  0  0  0  0  0  0  0
   26.2258  -19.4398  -10.7361 O   0  0  0  0  0  0  0  0  0  0  0  0
   26.1577  -21.3249  -12.1488 N   0  0  0  0  0  0  0  0  0  0  0  0
   27.0873  -20.7823  -13.1080 C   0  0  1  0  0  0  0  0  0  0  0  0
   28.1933  -21.7728  -13.2520 C   0  0  0  0  0  0  0  0  0  0  0  0
   29.0466  -21.3605  -14.8281 S   0  0  0  0  0  0  0  0  0  0  0  0
   26.3940  -20.4195  -14.3752 C   0  0  0  0  0  0  0  0  0  0  0  0
   25.9495  -21.3929  -15.0217 O   0  0  0  0  0  0  0  0  0  0  0  0
   26.2423  -19.1036  -14.8211 N   0  0  0  0  0  0  0  0  0  0  0  0
   26.4941  -17.8665  -14.0424 C   0  0  0  0  0  0  0  0  0  0  0  0
   27.3343  -17.0649  -15.0047 C   0  0  0  0  0  0  0  0  0  0  0  0
   27.0898  -17.6762  -16.3696 C   0  0  0  0  0  0  0  0  0  0  0  0
   25.8520  -18.5429  -16.0682 C   0  0  1  0  0  0  0  0  0  0  0  0
   25.4861  -19.3690  -17.1869 C   0  0  0  0  0  0  0  0  0  0  0  0
   26.3744  -20.4430  -17.5136 O   0  0  0  0  0  0  0  0  0  0  0  0
   24.5044  -19.2976  -17.9282 O   0  0  0  0  0  0  0  0  0  0  0  0
  2  3  1  0
  2  1  1  6
  4  2  1  0
  4  5  1  1
  6  4  1  0
  6  8  1  0
  7  6  2  0
  9  8  1  0
  9 12  1  0
  9 10  1  6
 11 10  1  0
 12 14  1  0
 12 13  2  0
 14 15  1  0
 16 15  1  0
 17 16  1  0
 18 17  1  0
 18 14  1  0
 18 19  1  6
 19 20  1  0
 21 19  2  0
M  END
$$$$
