TCP.pdb
     RDKit          3D

 21 21  0  0  1  0  0  0  0  0999 V2000
   20.8626  -12.0241  -21.0363 C   0  0  0  0  0  0  0  0  0  0  0  0
   21.3147  -11.4704  -19.7041 C   0  0  1  0  0  0  0  0  0  0  0  0
   20.3234  -11.6682  -18.7433 O   0  0  0  0  0  0  0  0  0  0  0  0
   22.5826  -12.2061  -19.2898 C   0  0  2  0  0  0  0  0  0  0  0  0
   22.2878  -13.6157  -19.2554 N   0  0  0  0  0  0  0  0  0  0  0  0
   23.0426  -11.7236  -17.9571 C   0  0  0  0  0  0  0  0  0  0  0  0
   23.3457  -12.6008  -17.1142 O   0  0  0  0  0  0  0  0  0  0  0  0
   23.1147  -10.3322  -17.7091 N   0  0  0  0  0  0  0  0  0  0  0  0
   23.8027   -9.8281  -16.5467 C   0  0  1  0  0  0  0  0  0  0  0  0
   25.2048  -10.3323  -16.6169 C   0  0  0  0  0  0  0  0  0  0  0  0
   26.1090   -9.5224  -15.2353 S   0  0  0  0  0  0  0  0  0  0  0  0
   23.6668   -8.3484  -16.4474 C   0  0  0  0  0  0  0  0  0  0  0  0
   24.4313   -7.7045  -17.1984 O   0  0  0  0  0  0  0  0  0  0  0  0
   22.7633   -7.7133  -15.5908 N   0  0  0  0  0  0  0  0  0  0  0  0
   21.6878   -8.3570  -14.7975 C   0  0  0  0  0  0  0  0  0  0  0  0
   21.9061   -7.7480  -13.4351 C   0  0  0  0  0  0  0  0  0  0  0  0
   22.7340   -6.5009  -13.6717 C   0  0  0  0  0  0  0  0  0  0  0  0
   22.5900   -6.3574  -15.1991 C   0  0  1  0  0  0  0  0  0  0  0  0
   23.4208   -5.3072  -15.7232 C   0  0  0  0  0  0  0  0  0  0  0  0
   22.7933   -4.3645  -16.5991 O   0  0  0  0  0  0  0  0  0  0  0  0
   24.6177   -5.0838  -15.5335 O   0  0  0  0  0  0  0  0  0  0  0  0
  2  3  1  0
  2  1  1  6
  4  2  1  0
  4  5  1  1
  6  4  1  0
  6  8  1  0
  7  6  2  0
  9  8  1  0
  9 12  1  0
  9 10  1  6
 11 10  1  0
 12 14  1  0
 12 13  2  0
 14 15  1  0
 16 15  1  0
 17 16  1  0
 18 17  1  0
 18 14  1  0
 18 19  1  6
 19 20  1  0
 21 19  2  0
M  END
$$$$
