TCP.pdb
     RDKit          3D

 21 21  0  0  1  0  0  0  0  0999 V2000
   43.7364  -10.7613   -5.5873 C   0  0  0  0  0  0  0  0  0  0  0  0
   44.8528  -11.5739   -6.2028 C   0  0  1  0  0  0  0  0  0  0  0  0
   45.3783  -12.4557   -5.2588 O   0  0  0  0  0  0  0  0  0  0  0  0
   44.2773  -12.3610   -7.3733 C   0  0  2  0  0  0  0  0  0  0  0  0
   45.2431  -13.3588   -7.7560 N   0  0  0  0  0  0  0  0  0  0  0  0
   43.9775  -11.4441   -8.5091 C   0  0  0  0  0  0  0  0  0  0  0  0
   44.8944  -11.2644   -9.3451 O   0  0  0  0  0  0  0  0  0  0  0  0
   42.7038  -10.8329   -8.5908 N   0  0  0  0  0  0  0  0  0  0  0  0
   42.3881   -9.9352   -9.6740 C   0  0  1  0  0  0  0  0  0  0  0  0
   42.2200  -10.7708  -10.8981 C   0  0  0  0  0  0  0  0  0  0  0  0
   40.8223  -11.9138  -10.5486 S   0  0  0  0  0  0  0  0  0  0  0  0
   41.2219   -9.0750   -9.3300 C   0  0  0  0  0  0  0  0  0  0  0  0
   40.2035   -9.7016   -8.9650 O   0  0  0  0  0  0  0  0  0  0  0  0
   41.2458   -7.6795   -9.4026 N   0  0  0  0  0  0  0  0  0  0  0  0
   42.4480   -6.8133   -9.4722 C   0  0  0  0  0  0  0  0  0  0  0  0
   42.0976   -5.8949  -10.6160 C   0  0  0  0  0  0  0  0  0  0  0  0
   40.5934   -5.9910  -10.7726 C   0  0  0  0  0  0  0  0  0  0  0  0
   40.2211   -6.6950   -9.4535 C   0  0  1  0  0  0  0  0  0  0  0  0
   38.8284   -7.0504   -9.4058 C   0  0  0  0  0  0  0  0  0  0  0  0
   38.3795   -8.0285  -10.3498 O   0  0  0  0  0  0  0  0  0  0  0  0
   37.9371   -6.6363   -8.6625 O   0  0  0  0  0  0  0  0  0  0  0  0
  2  3  1  0
  2  1  1  1
  4  2  1  0
  4  5  1  6
  6  4  1  0
  6  8  1  0
  7  6  2  0
  9  8  1  0
  9 12  1  0
  9 10  1  6
 11 10  1  0
 12 14  1  0
 12 13  2  0
 14 15  1  0
 16 15  1  0
 17 16  1  0
 18 17  1  0
 18 14  1  0
 18 19  1  6
 19 20  1  0
 21 19  2  0
M  END
$$$$
