TCP.pdb
     RDKit          3D

 21 21  0  0  1  0  0  0  0  0999 V2000
   20.2527  -28.4980  -11.1473 C   0  0  0  0  0  0  0  0  0  0  0  0
   20.9351  -27.7623  -12.2780 C   0  0  1  0  0  0  0  0  0  0  0  0
   21.5149  -28.6739  -13.1600 O   0  0  0  0  0  0  0  0  0  0  0  0
   19.8840  -26.9387  -13.0112 C   0  0  2  0  0  0  0  0  0  0  0  0
   20.5167  -26.3212  -14.1485 N   0  0  0  0  0  0  0  0  0  0  0  0
   19.3084  -25.9122  -12.0972 C   0  0  0  0  0  0  0  0  0  0  0  0
   19.4657  -24.7128  -12.4267 O   0  0  0  0  0  0  0  0  0  0  0  0
   18.6274  -26.3268  -10.9281 N   0  0  0  0  0  0  0  0  0  0  0  0
   17.7767  -25.4108  -10.2098 C   0  0  1  0  0  0  0  0  0  0  0  0
   16.7838  -24.8793  -11.1880 C   0  0  0  0  0  0  0  0  0  0  0  0
   15.6497  -23.7960  -10.2275 S   0  0  0  0  0  0  0  0  0  0  0  0
   17.1916  -26.0610   -9.0045 C   0  0  0  0  0  0  0  0  0  0  0  0
   16.1901  -26.7736   -9.2327 O   0  0  0  0  0  0  0  0  0  0  0  0
   17.7070  -25.9000   -7.7153 N   0  0  0  0  0  0  0  0  0  0  0  0
   18.9991  -25.2716   -7.3466 C   0  0  0  0  0  0  0  0  0  0  0  0
   18.5789  -24.3327   -6.2437 C   0  0  0  0  0  0  0  0  0  0  0  0
   17.2329  -24.8386   -5.7654 C   0  0  0  0  0  0  0  0  0  0  0  0
   17.2090  -26.2308   -6.4252 C   0  0  1  0  0  0  0  0  0  0  0  0
   15.9427  -26.8895   -6.2499 C   0  0  0  0  0  0  0  0  0  0  0  0
   15.7691  -27.6438   -5.0456 O   0  0  0  0  0  0  0  0  0  0  0  0
   14.9579  -26.9084   -6.9904 O   0  0  0  0  0  0  0  0  0  0  0  0
  2  3  1  0
  2  1  1  1
  4  2  1  0
  4  5  1  6
  6  4  1  0
  6  8  1  0
  7  6  2  0
  9  8  1  0
  9 12  1  0
  9 10  1  6
 11 10  1  0
 12 14  1  0
 12 13  2  0
 14 15  1  0
 16 15  1  0
 17 16  1  0
 18 17  1  0
 18 14  1  0
 18 19  1  6
 19 20  1  0
 21 19  2  0
M  END
$$$$
