TCP.pdb
     RDKit          3D

 21 21  0  0  1  0  0  0  0  0999 V2000
   25.0879  -10.1503  -18.8859 C   0  0  0  0  0  0  0  0  0  0  0  0
   24.6547  -11.5654  -18.5771 C   0  0  1  0  0  0  0  0  0  0  0  0
   25.5848  -12.4716  -19.0858 O   0  0  0  0  0  0  0  0  0  0  0  0
   24.5689  -11.7160  -17.0636 C   0  0  2  0  0  0  0  0  0  0  0  0
   24.4251  -13.1175  -16.7635 N   0  0  0  0  0  0  0  0  0  0  0  0
   23.4146  -10.9353  -16.5358 C   0  0  0  0  0  0  0  0  0  0  0  0
   22.2922  -11.1798  -17.0382 O   0  0  0  0  0  0  0  0  0  0  0  0
   23.6316   -9.9773  -15.5171 N   0  0  0  0  0  0  0  0  0  0  0  0
   22.5279   -9.2374  -14.9575 C   0  0  1  0  0  0  0  0  0  0  0  0
   22.4888   -9.5487  -13.4992 C   0  0  0  0  0  0  0  0  0  0  0  0
   21.8629  -11.2724  -13.3612 S   0  0  0  0  0  0  0  0  0  0  0  0
   22.6324   -7.7901  -15.2929 C   0  0  0  0  0  0  0  0  0  0  0  0
   23.7040   -7.2510  -14.9410 O   0  0  0  0  0  0  0  0  0  0  0  0
   21.6251   -7.0763  -15.9482 N   0  0  0  0  0  0  0  0  0  0  0  0
   20.4907   -7.6429  -16.7178 C   0  0  0  0  0  0  0  0  0  0  0  0
   19.3232   -6.8724  -16.1539 C   0  0  0  0  0  0  0  0  0  0  0  0
   19.9216   -5.6458  -15.4953 C   0  0  0  0  0  0  0  0  0  0  0  0
   21.3486   -5.6873  -16.0751 C   0  0  1  0  0  0  0  0  0  0  0  0
   22.2002   -4.6901  -15.4848 C   0  0  0  0  0  0  0  0  0  0  0  0
   22.7667   -4.9998  -14.2071 O   0  0  0  0  0  0  0  0  0  0  0  0
   22.5283   -3.5829  -15.9149 O   0  0  0  0  0  0  0  0  0  0  0  0
  2  3  1  0
  2  1  1  1
  4  2  1  0
  4  5  1  6
  6  4  1  0
  6  8  1  0
  7  6  2  0
  9  8  1  0
  9 12  1  0
  9 10  1  1
 11 10  1  0
 12 14  1  0
 12 13  2  0
 14 15  1  0
 16 15  1  0
 17 16  1  0
 18 17  1  0
 18 14  1  0
 18 19  1  1
 19 20  1  0
 21 19  2  0
M  END
$$$$
