TFI.pdb
     RDKit          3D

 27 27  0  0  1  0  0  0  0  0999 V2000
   14.2267   -8.6331  -16.3136 C   0  0  0  0  0  0  0  0  0  0  0  0
   14.2630  -10.1369  -16.1347 C   0  0  1  0  0  0  0  0  0  0  0  0
   13.4716  -10.7841  -17.0813 O   0  0  0  0  0  0  0  0  0  0  0  0
   15.7040  -10.5848  -16.2264 C   0  0  2  0  0  0  0  0  0  0  0  0
   15.6989  -12.0316  -16.1627 N   0  0  0  0  0  0  0  0  0  0  0  0
   16.5475  -10.0272  -15.1662 C   0  0  0  0  0  0  0  0  0  0  0  0
   16.4526  -10.5268  -14.0011 O   0  0  0  0  0  0  0  0  0  0  0  0
   17.4564   -8.9835  -15.3259 N   0  0  0  0  0  0  0  0  0  0  0  0
   18.3113   -8.4417  -14.2402 C   0  0  1  0  0  0  0  0  0  0  0  0
   19.6656   -8.4095  -14.8363 C   0  0  0  0  0  0  0  0  0  0  0  0
   20.7334   -7.7427  -14.1148 C   0  0  0  0  0  0  0  0  0  0  0  0
   21.5059   -8.4662  -13.2338 C   0  0  0  0  0  0  0  0  0  0  0  0
   22.5423   -7.9221  -12.5046 C   0  0  0  0  0  0  0  0  0  0  0  0
   22.8262   -6.5763  -12.6624 C   0  0  0  0  0  0  0  0  0  0  0  0
   22.0500   -5.8556  -13.5457 C   0  0  0  0  0  0  0  0  0  0  0  0
   21.0225   -6.3997  -14.2672 C   0  0  0  0  0  0  0  0  0  0  0  0
   17.6904   -7.1715  -13.8625 C   0  0  0  0  0  0  0  0  0  0  0  0
   17.2075   -6.4132  -14.7769 O   0  0  0  0  0  0  0  0  0  0  0  0
   14.8838   -3.8070   -9.4249 C   0  0  0  0  0  0  0  0  0  0  0  0
   15.7207   -3.8593  -10.6713 C   0  0  0  0  0  0  0  0  0  0  0  0
   16.2878   -5.1758  -11.0203 C   0  0  2  0  0  0  0  0  0  0  0  0
   17.1098   -5.6894   -9.8381 C   0  0  0  0  0  0  0  0  0  0  0  0
   17.0121   -5.3144  -12.3054 C   0  0  2  0  0  0  0  0  0  0  0  0
   17.5366   -6.6387  -12.5476 N   0  0  0  0  0  0  0  0  0  0  0  0
   18.0398   -4.2965  -12.4643 C   0  0  0  0  0  0  0  0  0  0  0  0
   19.3753   -4.6614  -12.4061 O   0  0  0  0  0  0  0  0  0  0  0  0
   17.7724   -3.0663  -12.6594 O   0  0  0  0  0  0  0  0  0  0  0  0
  2  4  1  0
  2  1  1  6
  2  3  1  0
  4  5  1  1
  6  4  1  0
  6  7  2  0
  8  6  1  0
  9  8  1  0
 10 11  1  0
  9 10  1  6
 11 12  2  0
 11 16  1  0
 12 13  1  0
 13 14  2  0
 15 14  1  0
 16 15  2  0
 17 18  2  0
 17  9  1  0
 20 21  1  0
 20 19  1  0
 21 22  1  1
 23 24  1  1
 23 21  1  0
 24 17  1  0
 25 23  1  0
 26 25  1  0
 27 25  2  0
M  END
$$$$
