TFI.pdb
     RDKit          3D

 27 27  0  0  1  0  0  0  0  0999 V2000
   28.0088  -19.5364  -15.1680 C   0  0  0  0  0  0  0  0  0  0  0  0
   27.2663  -19.9244  -13.9058 C   0  0  1  0  0  0  0  0  0  0  0  0
   25.9644  -20.3352  -14.1838 O   0  0  0  0  0  0  0  0  0  0  0  0
   28.0513  -21.0182  -13.2181 C   0  0  2  0  0  0  0  0  0  0  0  0
   27.9111  -22.2094  -14.0297 N   0  0  0  0  0  0  0  0  0  0  0  0
   27.6003  -21.2745  -11.8480 C   0  0  0  0  0  0  0  0  0  0  0  0
   26.7804  -22.2268  -11.6562 O   0  0  0  0  0  0  0  0  0  0  0  0
   27.9971  -20.5560  -10.7222 N   0  0  0  0  0  0  0  0  0  0  0  0
   27.4517  -20.7655   -9.3578 C   0  0  1  0  0  0  0  0  0  0  0  0
   28.4046  -20.0498   -8.4801 C   0  0  0  0  0  0  0  0  0  0  0  0
   28.1008  -19.9297   -7.0663 C   0  0  0  0  0  0  0  0  0  0  0  0
   28.3398  -20.9992   -6.2322 C   0  0  0  0  0  0  0  0  0  0  0  0
   28.0854  -20.9803   -4.8770 C   0  0  0  0  0  0  0  0  0  0  0  0
   27.5614  -19.8268   -4.3189 C   0  0  0  0  0  0  0  0  0  0  0  0
   27.3236  -18.7583   -5.1579 C   0  0  0  0  0  0  0  0  0  0  0  0
   27.5776  -18.7815   -6.5022 C   0  0  0  0  0  0  0  0  0  0  0  0
   26.0712  -20.2839   -9.4198 C   0  0  0  0  0  0  0  0  0  0  0  0
   25.8309  -19.1330   -9.9317 O   0  0  0  0  0  0  0  0  0  0  0  0
   23.2629  -20.2223  -13.0618 C   0  0  0  0  0  0  0  0  0  0  0  0
   23.7847  -19.9567  -11.6784 C   0  0  0  0  0  0  0  0  0  0  0  0
   23.0665  -20.6193  -10.5730 C   0  0  2  0  0  0  0  0  0  0  0  0
   21.5759  -20.3016  -10.6909 C   0  0  0  0  0  0  0  0  0  0  0  0
   23.5693  -20.4322   -9.1918 C   0  0  2  0  0  0  0  0  0  0  0  0
   24.8966  -20.9583   -8.9705 N   0  0  0  0  0  0  0  0  0  0  0  0
   22.6277  -20.9249   -8.1977 C   0  0  0  0  0  0  0  0  0  0  0  0
   23.0588  -21.8280   -7.2394 O   0  0  0  0  0  0  0  0  0  0  0  0
   21.4071  -20.5621   -8.1598 O   0  0  0  0  0  0  0  0  0  0  0  0
  2  4  1  0
  2  1  1  6
  2  3  1  0
  4  5  1  6
  6  4  1  0
  6  7  2  0
  8  6  1  0
  9  8  1  0
 10 11  1  0
  9 10  1  1
 11 12  2  0
 11 16  1  0
 12 13  1  0
 13 14  2  0
 15 14  1  0
 16 15  2  0
 17 18  2  0
 17  9  1  0
 20 21  1  0
 20 19  1  0
 21 22  1  1
 23 24  1  6
 23 21  1  0
 24 17  1  0
 25 23  1  0
 26 25  1  0
 27 25  2  0
M  END
$$$$
