TFI.pdb
     RDKit          3D

 27 27  0  0  1  0  0  0  0  0999 V2000
   28.8458  -22.0677  -15.0830 C   0  0  0  0  0  0  0  0  0  0  0  0
   29.1326  -20.8547  -15.9439 C   0  0  1  0  0  0  0  0  0  0  0  0
   29.9632  -21.1730  -17.0162 O   0  0  0  0  0  0  0  0  0  0  0  0
   27.8113  -20.2959  -16.4210 C   0  0  2  0  0  0  0  0  0  0  0  0
   28.1176  -19.1928  -17.3079 N   0  0  0  0  0  0  0  0  0  0  0  0
   26.9474  -19.8492  -15.3254 C   0  0  0  0  0  0  0  0  0  0  0  0
   26.8960  -18.6043  -15.0734 O   0  0  0  0  0  0  0  0  0  0  0  0
   26.1669  -20.6809  -14.5253 N   0  0  0  0  0  0  0  0  0  0  0  0
   25.1485  -20.2005  -13.5583 C   0  0  1  0  0  0  0  0  0  0  0  0
   23.8653  -20.6596  -14.1356 C   0  0  0  0  0  0  0  0  0  0  0  0
   22.6427  -20.4484  -13.3832 C   0  0  0  0  0  0  0  0  0  0  0  0
   21.4560  -20.9484  -13.8713 C   0  0  0  0  0  0  0  0  0  0  0  0
   20.2449  -20.8000  -13.2286 C   0  0  0  0  0  0  0  0  0  0  0  0
   20.2140  -20.1123  -12.0275 C   0  0  0  0  0  0  0  0  0  0  0  0
   21.4047  -19.6133  -11.5425 C   0  0  0  0  0  0  0  0  0  0  0  0
   22.6042  -19.7629  -12.1837 C   0  0  0  0  0  0  0  0  0  0  0  0
   25.5613  -20.7473  -12.2652 C   0  0  0  0  0  0  0  0  0  0  0  0
   25.8987  -21.9819  -12.1853 O   0  0  0  0  0  0  0  0  0  0  0  0
   28.2917  -19.7007   -6.8146 C   0  0  0  0  0  0  0  0  0  0  0  0
   27.3823  -20.5459   -7.6603 C   0  0  0  0  0  0  0  0  0  0  0  0
   26.8648  -19.9164   -8.8902 C   0  0  2  0  0  0  0  0  0  0  0  0
   26.2226  -18.5772   -8.5279 C   0  0  0  0  0  0  0  0  0  0  0  0
   26.0050  -20.7226   -9.7880 C   0  0  2  0  0  0  0  0  0  0  0  0
   25.6492  -20.0562  -11.0198 N   0  0  0  0  0  0  0  0  0  0  0  0
   24.8296  -21.2361   -9.1008 C   0  0  0  0  0  0  0  0  0  0  0  0
   23.5683  -20.8604   -9.5341 O   0  0  0  0  0  0  0  0  0  0  0  0
   24.8998  -22.0282   -8.1055 O   0  0  0  0  0  0  0  0  0  0  0  0
  2  4  1  0
  2  1  1  6
  2  3  1  0
  4  5  1  6
  6  4  1  0
  6  7  2  0
  8  6  1  0
  9  8  1  0
 10 11  1  0
  9 10  1  6
 11 12  2  0
 11 16  1  0
 12 13  1  0
 13 14  2  0
 15 14  1  0
 16 15  2  0
 17 18  2  0
 17  9  1  0
 20 21  1  0
 20 19  1  0
 21 22  1  1
 23 24  1  6
 23 21  1  0
 24 17  1  0
 25 23  1  0
 26 25  1  0
 27 25  2  0
M  END
$$$$
