TFI.pdb
     RDKit          3D

 27 27  0  0  1  0  0  0  0  0999 V2000
   21.5357   -8.8642  -20.8265 C   0  0  0  0  0  0  0  0  0  0  0  0
   21.7096  -10.2742  -20.3008 C   0  0  1  0  0  0  0  0  0  0  0  0
   21.7870  -11.2012  -21.3379 O   0  0  0  0  0  0  0  0  0  0  0  0
   22.9550  -10.3045  -19.4443 C   0  0  2  0  0  0  0  0  0  0  0  0
   23.1238  -11.6715  -18.9968 N   0  0  0  0  0  0  0  0  0  0  0  0
   22.8867   -9.3940  -18.2987 C   0  0  0  0  0  0  0  0  0  0  0  0
   22.1532   -9.7246  -17.3145 O   0  0  0  0  0  0  0  0  0  0  0  0
   23.5647   -8.1815  -18.1925 N   0  0  0  0  0  0  0  0  0  0  0  0
   23.4423   -7.2494  -17.0439 C   0  0  1  0  0  0  0  0  0  0  0  0
   24.8423   -7.0167  -16.6238 C   0  0  0  0  0  0  0  0  0  0  0  0
   25.6022   -8.1234  -16.0734 C   0  0  0  0  0  0  0  0  0  0  0  0
   26.7925   -8.4840  -16.6648 C   0  0  0  0  0  0  0  0  0  0  0  0
   27.5844   -9.5191  -16.2142 C   0  0  0  0  0  0  0  0  0  0  0  0
   27.1656  -10.2385  -15.1080 C   0  0  0  0  0  0  0  0  0  0  0  0
   25.9729   -9.8740  -14.5190 C   0  0  0  0  0  0  0  0  0  0  0  0
   25.1903   -8.8461  -14.9695 C   0  0  0  0  0  0  0  0  0  0  0  0
   22.6741   -6.1130  -17.5539 C   0  0  0  0  0  0  0  0  0  0  0  0
   23.1037   -5.4758  -18.5804 O   0  0  0  0  0  0  0  0  0  0  0  0
   18.0591   -4.1259  -20.3839 C   0  0  0  0  0  0  0  0  0  0  0  0
   19.0190   -3.7165  -19.3033 C   0  0  0  0  0  0  0  0  0  0  0  0
   19.7536   -4.8086  -18.6365 C   0  0  2  0  0  0  0  0  0  0  0  0
   18.7470   -5.8264  -18.1001 C   0  0  0  0  0  0  0  0  0  0  0  0
   20.7813   -4.4561  -17.6292 C   0  0  2  0  0  0  0  0  0  0  0  0
   21.4469   -5.5959  -17.0412 N   0  0  0  0  0  0  0  0  0  0  0  0
   20.2596   -3.5586  -16.6094 C   0  0  0  0  0  0  0  0  0  0  0  0
   20.0413   -2.2263  -16.9210 O   0  0  0  0  0  0  0  0  0  0  0  0
   19.9864   -3.9399  -15.4250 O   0  0  0  0  0  0  0  0  0  0  0  0
  2  4  1  0
  2  1  1  6
  2  3  1  0
  4  5  1  1
  6  4  1  0
  6  7  2  0
  8  6  1  0
  9  8  1  0
 10 11  1  0
  9 10  1  6
 11 12  2  0
 11 16  1  0
 12 13  1  0
 13 14  2  0
 15 14  1  0
 16 15  2  0
 17 18  2  0
 17  9  1  0
 20 21  1  0
 20 19  1  0
 21 22  1  1
 23 24  1  1
 23 21  1  0
 24 17  1  0
 25 23  1  0
 26 25  1  0
 27 25  2  0
M  END
$$$$
