TFI.pdb
     RDKit          3D

 27 27  0  0  1  0  0  0  0  0999 V2000
   28.9987  -19.3835  -15.3521 C   0  0  0  0  0  0  0  0  0  0  0  0
   28.2534  -19.8215  -14.1081 C   0  0  1  0  0  0  0  0  0  0  0  0
   27.0294  -20.4068  -14.4243 O   0  0  0  0  0  0  0  0  0  0  0  0
   29.1387  -20.7805  -13.3450 C   0  0  2  0  0  0  0  0  0  0  0  0
   29.2954  -21.9575  -14.1740 N   0  0  0  0  0  0  0  0  0  0  0  0
   28.5956  -21.1445  -12.0340 C   0  0  0  0  0  0  0  0  0  0  0  0
   27.8740  -22.1880  -11.9540 O   0  0  0  0  0  0  0  0  0  0  0  0
   28.8037  -20.4373  -10.8518 N   0  0  0  0  0  0  0  0  0  0  0  0
   28.1476  -20.7531   -9.5584 C   0  0  1  0  0  0  0  0  0  0  0  0
   29.0388  -20.1397   -8.5484 C   0  0  0  0  0  0  0  0  0  0  0  0
   28.5659  -20.0102   -7.1827 C   0  0  0  0  0  0  0  0  0  0  0  0
   28.8375  -21.0119   -6.2775 C   0  0  0  0  0  0  0  0  0  0  0  0
   28.4321  -20.9786   -4.9598 C   0  0  0  0  0  0  0  0  0  0  0  0
   27.7130  -19.8816   -4.5171 C   0  0  0  0  0  0  0  0  0  0  0  0
   27.4433  -18.8809   -5.4269 C   0  0  0  0  0  0  0  0  0  0  0  0
   27.8476  -18.9181   -6.7336 C   0  0  0  0  0  0  0  0  0  0  0  0
   26.7845  -20.2358   -9.6849 C   0  0  0  0  0  0  0  0  0  0  0  0
   26.6038  -19.0467  -10.1297 O   0  0  0  0  0  0  0  0  0  0  0  0
   22.4399  -20.1100  -13.1590 C   0  0  0  0  0  0  0  0  0  0  0  0
   22.6736  -20.0016  -11.6791 C   0  0  0  0  0  0  0  0  0  0  0  0
   23.9393  -20.5690  -11.1762 C   0  0  2  0  0  0  0  0  0  0  0  0
   24.0329  -22.0316  -11.6109 C   0  0  0  0  0  0  0  0  0  0  0  0
   24.2733  -20.3903   -9.7438 C   0  0  2  0  0  0  0  0  0  0  0  0
   25.5679  -20.9118   -9.3700 N   0  0  0  0  0  0  0  0  0  0  0  0
   23.2231  -20.8952   -8.8722 C   0  0  0  0  0  0  0  0  0  0  0  0
   21.9304  -20.4170   -9.0149 O   0  0  0  0  0  0  0  0  0  0  0  0
   23.4322  -21.7702   -7.9703 O   0  0  0  0  0  0  0  0  0  0  0  0
  2  4  1  0
  2  1  1  6
  2  3  1  0
  4  5  1  6
  6  4  1  0
  6  7  2  0
  8  6  1  0
  9  8  1  0
 10 11  1  0
  9 10  1  1
 11 12  2  0
 11 16  1  0
 12 13  1  0
 13 14  2  0
 15 14  1  0
 16 15  2  0
 17 18  2  0
 17  9  1  0
 20 21  1  0
 20 19  1  0
 21 22  1  1
 23 24  1  1
 23 21  1  0
 24 17  1  0
 25 23  1  0
 26 25  1  0
 27 25  2  0
M  END
$$$$
