CNN.pdb
     RDKit          3D

 23 22  0  0  1  0  0  0  0  0999 V2000
    5.1967  -13.9445   26.2691 N   0  0  0  0  0  0  0  0  0  0  0  0
    6.3455  -13.2834   25.6889 C   0  0  1  0  0  0  0  0  0  0  0  0
    7.1761  -12.7362   26.8061 C   0  0  0  0  0  0  0  0  0  0  0  0
    8.6584  -11.9349   26.1242 S   0  0  0  0  0  0  0  0  0  0  0  0
    7.0495  -14.2447   24.8319 C   0  0  0  0  0  0  0  0  0  0  0  0
    7.2055  -15.4219   25.2345 O   0  0  0  0  0  0  0  0  0  0  0  0
    7.2694  -12.6568   20.1264 N   0  0  0  0  0  0  0  0  0  0  0  0
    7.4301  -13.9837   20.5844 C   0  0  0  0  0  0  0  0  0  0  0  0
    6.5554  -14.8267   20.3335 O   0  0  0  0  0  0  0  0  0  0  0  0
    8.6291  -14.3433   21.3494 C   0  0  0  0  0  0  0  0  0  0  0  0
    8.3365  -14.8080   22.7635 C   0  0  2  0  0  0  0  0  0  0  0  0
    7.5709  -13.9114   23.5544 N   0  0  0  0  0  0  0  0  0  0  0  0
    9.5759  -15.2700   23.4488 C   0  0  0  0  0  0  0  0  0  0  0  0
   10.4788  -14.4306   23.7934 O   0  0  0  0  0  0  0  0  0  0  0  0
    8.7274  -18.9641   26.0757 N   0  0  0  0  0  0  0  0  0  0  0  0
    9.9780  -18.2528   26.1814 C   0  0  0  0  0  0  0  0  0  0  0  0
   10.1007  -17.6182   27.2686 O   0  0  0  0  0  0  0  0  0  0  0  0
   10.9743  -18.2985   25.0978 C   0  0  0  0  0  0  0  0  0  0  0  0
   11.0845  -16.9825   24.4121 C   0  0  2  0  0  0  0  0  0  0  0  0
    9.8236  -16.6266   23.7521 N   0  0  0  0  0  0  0  0  0  0  0  0
   12.0705  -17.0905   23.2965 C   0  0  0  0  0  0  0  0  0  0  0  0
   11.6505  -17.3731   22.0268 O   0  0  0  0  0  0  0  0  0  0  0  0
   13.2804  -16.9201   23.5401 O   0  0  0  0  0  0  0  0  0  0  0  0
  2  1  1  1
  2  3  1  0
  4  3  1  0
  5 12  1  0
  5  2  1  0
  6  5  2  0
  8  7  1  0
  8 10  1  0
  9  8  2  0
 11 13  1  0
 11 10  1  6
 11 12  1  0
 13 20  1  0
 14 13  2  0
 16 17  2  0
 16 15  1  0
 18 16  1  0
 19 18  1  6
 20 19  1  0
 21 22  1  0
 21 19  1  0
 23 21  2  0
M  END
$$$$
