CNN.pdb
     RDKit          3D

 23 22  0  0  1  0  0  0  0  0999 V2000
   11.5792  -15.6368   15.5303 N   0  0  0  0  0  0  0  0  0  0  0  0
   10.8310  -16.3261   16.5592 C   0  0  1  0  0  0  0  0  0  0  0  0
   11.4029  -17.7009   16.7029 C   0  0  0  0  0  0  0  0  0  0  0  0
   10.7045  -18.7856   15.4224 S   0  0  0  0  0  0  0  0  0  0  0  0
   10.8822  -15.5227   17.7864 C   0  0  0  0  0  0  0  0  0  0  0  0
   11.8860  -14.8036   18.0042 O   0  0  0  0  0  0  0  0  0  0  0  0
    7.4131  -12.3247   18.8155 N   0  0  0  0  0  0  0  0  0  0  0  0
    7.6742  -13.6890   19.0739 C   0  0  0  0  0  0  0  0  0  0  0  0
    7.2159  -14.5537   18.3117 O   0  0  0  0  0  0  0  0  0  0  0  0
    8.4835  -14.0612   20.2396 C   0  0  0  0  0  0  0  0  0  0  0  0
    9.8337  -14.6538   19.8834 C   0  0  2  0  0  0  0  0  0  0  0  0
    9.8438  -15.5142   18.7542 N   0  0  0  0  0  0  0  0  0  0  0  0
   10.4917  -15.2569   21.0761 C   0  0  0  0  0  0  0  0  0  0  0  0
   10.5337  -14.6204   22.1859 O   0  0  0  0  0  0  0  0  0  0  0  0
    9.1183  -19.2916   21.9379 N   0  0  0  0  0  0  0  0  0  0  0  0
    9.9828  -18.5614   22.8327 C   0  0  0  0  0  0  0  0  0  0  0  0
    9.3747  -18.0810   23.8324 O   0  0  0  0  0  0  0  0  0  0  0  0
   11.4227  -18.4230   22.5568 C   0  0  0  0  0  0  0  0  0  0  0  0
   11.7807  -17.0091   22.2612 C   0  0  2  0  0  0  0  0  0  0  0  0
   11.0934  -16.5342   21.0554 N   0  0  0  0  0  0  0  0  0  0  0  0
   13.2312  -16.9307   21.9177 C   0  0  0  0  0  0  0  0  0  0  0  0
   13.6442  -17.0730   20.6224 O   0  0  0  0  0  0  0  0  0  0  0  0
   14.0587  -16.7348   22.8282 O   0  0  0  0  0  0  0  0  0  0  0  0
  2  1  1  6
  2  3  1  0
  4  3  1  0
  5 12  1  0
  5  2  1  0
  6  5  2  0
  8  7  1  0
  8 10  1  0
  9  8  2  0
 11 13  1  0
 11 10  1  1
 11 12  1  0
 13 20  1  0
 14 13  2  0
 16 17  2  0
 16 15  1  0
 18 16  1  0
 19 18  1  6
 20 19  1  0
 21 22  1  0
 21 19  1  0
 23 21  2  0
M  END
$$$$
