CNN.pdb
     RDKit          3D

 23 22  0  0  1  0  0  0  0  0999 V2000
    9.8355  -16.8675   13.8088 N   0  0  0  0  0  0  0  0  0  0  0  0
    9.9311  -17.0152   15.2450 C   0  0  1  0  0  0  0  0  0  0  0  0
   11.0651  -17.9453   15.5388 C   0  0  0  0  0  0  0  0  0  0  0  0
   11.0236  -18.4178   17.2936 S   0  0  0  0  0  0  0  0  0  0  0  0
   10.0784  -15.6814   15.8394 C   0  0  0  0  0  0  0  0  0  0  0  0
   10.1559  -14.6822   15.0858 O   0  0  0  0  0  0  0  0  0  0  0  0
    7.8181  -12.4852   19.0885 N   0  0  0  0  0  0  0  0  0  0  0  0
    7.1342  -13.4117   18.2698 C   0  0  0  0  0  0  0  0  0  0  0  0
    5.9142  -13.2815   18.0873 O   0  0  0  0  0  0  0  0  0  0  0  0
    7.8781  -14.5129   17.6484 C   0  0  0  0  0  0  0  0  0  0  0  0
    9.3722  -14.4648   17.9065 C   0  0  2  0  0  0  0  0  0  0  0  0
   10.1389  -15.4562   17.2396 N   0  0  0  0  0  0  0  0  0  0  0  0
    9.6675  -14.3890   19.3647 C   0  0  0  0  0  0  0  0  0  0  0  0
    9.1674  -13.4532   20.0807 O   0  0  0  0  0  0  0  0  0  0  0  0
    6.8119  -14.8043   22.1441 N   0  0  0  0  0  0  0  0  0  0  0  0
    7.9132  -15.6881   22.4396 C   0  0  0  0  0  0  0  0  0  0  0  0
    8.0964  -15.8594   23.6793 O   0  0  0  0  0  0  0  0  0  0  0  0
    8.7089  -16.3004   21.3622 C   0  0  0  0  0  0  0  0  0  0  0  0
   10.1046  -15.7845   21.3641 C   0  0  2  0  0  0  0  0  0  0  0  0
   10.4953  -15.3207   20.0283 N   0  0  0  0  0  0  0  0  0  0  0  0
   11.0434  -16.9074   21.6571 C   0  0  0  0  0  0  0  0  0  0  0  0
   11.4443  -17.1574   22.9399 O   0  0  0  0  0  0  0  0  0  0  0  0
   11.4562  -17.6119   20.7162 O   0  0  0  0  0  0  0  0  0  0  0  0
  2  1  1  6
  2  3  1  0
  4  3  1  0
  5 12  1  0
  5  2  1  0
  6  5  2  0
  8  7  1  0
  8 10  1  0
  9  8  2  0
 11 13  1  0
 11 10  1  1
 11 12  1  0
 13 20  1  0
 14 13  2  0
 16 17  2  0
 16 15  1  0
 18 16  1  0
 19 18  1  6
 20 19  1  0
 21 22  1  0
 21 19  1  0
 23 21  2  0
M  END
$$$$
