CNN.pdb
     RDKit          3D

 23 22  0  0  1  0  0  0  0  0999 V2000
    7.5702  -15.4597   15.1424 N   0  0  0  0  0  0  0  0  0  0  0  0
    8.8404  -15.1677   15.7708 C   0  0  1  0  0  0  0  0  0  0  0  0
    8.6929  -13.8929   16.5393 C   0  0  0  0  0  0  0  0  0  0  0  0
    8.4220  -12.5157   15.3842 S   0  0  0  0  0  0  0  0  0  0  0  0
    9.2283  -16.3219   16.5903 C   0  0  0  0  0  0  0  0  0  0  0  0
    8.3337  -17.0238   17.1188 O   0  0  0  0  0  0  0  0  0  0  0  0
   13.3272  -20.6098   17.7813 N   0  0  0  0  0  0  0  0  0  0  0  0
   12.0404  -20.0283   17.8289 C   0  0  0  0  0  0  0  0  0  0  0  0
   11.1906  -20.4881   18.6068 O   0  0  0  0  0  0  0  0  0  0  0  0
   11.7298  -18.8896   16.9575 C   0  0  0  0  0  0  0  0  0  0  0  0
   10.9605  -17.7807   17.6500 C   0  0  2  0  0  0  0  0  0  0  0  0
   10.5788  -16.6932   16.8212 N   0  0  0  0  0  0  0  0  0  0  0  0
   11.6465  -17.3438   18.8981 C   0  0  0  0  0  0  0  0  0  0  0  0
   12.7975  -16.7860   18.8453 O   0  0  0  0  0  0  0  0  0  0  0  0
   11.0105  -13.7134   20.2637 N   0  0  0  0  0  0  0  0  0  0  0  0
   11.8773  -14.6218   20.9740 C   0  0  0  0  0  0  0  0  0  0  0  0
   13.1060  -14.3746   20.8039 O   0  0  0  0  0  0  0  0  0  0  0  0
   11.3277  -15.7103   21.7998 C   0  0  0  0  0  0  0  0  0  0  0  0
   11.8324  -17.0355   21.3490 C   0  0  2  0  0  0  0  0  0  0  0  0
   11.0834  -17.5137   20.1818 N   0  0  0  0  0  0  0  0  0  0  0  0
   11.5595  -18.0517   22.4078 C   0  0  0  0  0  0  0  0  0  0  0  0
   12.3124  -18.0819   23.5483 O   0  0  0  0  0  0  0  0  0  0  0  0
   10.6369  -18.8713   22.2362 O   0  0  0  0  0  0  0  0  0  0  0  0
  2  1  1  1
  2  3  1  0
  4  3  1  0
  5 12  1  0
  5  2  1  0
  6  5  2  0
  8  7  1  0
  8 10  1  0
  9  8  2  0
 11 13  1  0
 11 10  1  6
 11 12  1  0
 13 20  1  0
 14 13  2  0
 16 17  2  0
 16 15  1  0
 18 16  1  0
 19 18  1  1
 20 19  1  0
 21 22  1  0
 21 19  1  0
 23 21  2  0
M  END
$$$$
