CNN.pdb
     RDKit          3D

 23 22  0  0  1  0  0  0  0  0999 V2000
    5.5633  -14.0906   26.4827 N   0  0  0  0  0  0  0  0  0  0  0  0
    6.4140  -13.3833   25.5502 C   0  0  1  0  0  0  0  0  0  0  0  0
    7.2669  -12.4349   26.3316 C   0  0  0  0  0  0  0  0  0  0  0  0
    6.2069  -11.3482   27.3315 S   0  0  0  0  0  0  0  0  0  0  0  0
    7.1713  -14.3713   24.7726 C   0  0  0  0  0  0  0  0  0  0  0  0
    7.1958  -15.5639   25.1590 O   0  0  0  0  0  0  0  0  0  0  0  0
    7.8141  -12.7614   20.2096 N   0  0  0  0  0  0  0  0  0  0  0  0
    7.8595  -14.1065   20.6396 C   0  0  0  0  0  0  0  0  0  0  0  0
    6.9333  -14.8753   20.3397 O   0  0  0  0  0  0  0  0  0  0  0  0
    9.0015  -14.5726   21.4340 C   0  0  0  0  0  0  0  0  0  0  0  0
    8.6346  -14.9958   22.8437 C   0  0  2  0  0  0  0  0  0  0  0  0
    7.8875  -14.0473   23.5906 N   0  0  0  0  0  0  0  0  0  0  0  0
    9.8233  -15.5066   23.5822 C   0  0  0  0  0  0  0  0  0  0  0  0
   11.0032  -15.1432   23.2442 O   0  0  0  0  0  0  0  0  0  0  0  0
    9.5490  -15.0061   28.1590 N   0  0  0  0  0  0  0  0  0  0  0  0
   10.6555  -15.4050   27.3238 C   0  0  0  0  0  0  0  0  0  0  0  0
   11.4635  -14.4623   27.0823 O   0  0  0  0  0  0  0  0  0  0  0  0
   10.7787  -16.7875   26.8315 C   0  0  0  0  0  0  0  0  0  0  0  0
   10.9521  -16.8192   25.3539 C   0  0  2  0  0  0  0  0  0  0  0  0
    9.7232  -16.3994   24.6715 N   0  0  0  0  0  0  0  0  0  0  0  0
   11.1585  -18.2305   24.9133 C   0  0  0  0  0  0  0  0  0  0  0  0
   12.2906  -18.9083   25.2706 O   0  0  0  0  0  0  0  0  0  0  0  0
   10.2851  -18.7802   24.2155 O   0  0  0  0  0  0  0  0  0  0  0  0
  2  1  1  1
  2  3  1  0
  4  3  1  0
  5 12  1  0
  5  2  1  0
  6  5  2  0
  8  7  1  0
  8 10  1  0
  9  8  2  0
 11 13  1  0
 11 10  1  6
 11 12  1  0
 13 20  1  0
 14 13  2  0
 16 17  2  0
 16 15  1  0
 18 16  1  0
 19 18  1  1
 20 19  1  0
 21 22  1  0
 21 19  1  0
 23 21  2  0
M  END
$$$$
