CNN.pdb
     RDKit          3D

 23 22  0  0  1  0  0  0  0  0999 V2000
    8.2310  -14.8202   16.9535 N   0  0  0  0  0  0  0  0  0  0  0  0
    8.8227  -14.1570   18.0952 C   0  0  1  0  0  0  0  0  0  0  0  0
    7.8621  -13.1140   18.5719 C   0  0  0  0  0  0  0  0  0  0  0  0
    8.5180  -12.3253   20.0725 S   0  0  0  0  0  0  0  0  0  0  0  0
    9.1542  -15.1731   19.1011 C   0  0  0  0  0  0  0  0  0  0  0  0
    8.4354  -16.1962   19.1956 O   0  0  0  0  0  0  0  0  0  0  0  0
   13.2914  -17.3842   22.9602 N   0  0  0  0  0  0  0  0  0  0  0  0
   12.2833  -17.5461   21.9835 C   0  0  0  0  0  0  0  0  0  0  0  0
   11.6317  -18.6009   21.9471 O   0  0  0  0  0  0  0  0  0  0  0  0
   12.0233  -16.4637   21.0279 C   0  0  0  0  0  0  0  0  0  0  0  0
   10.5708  -16.0296   20.9750 C   0  0  2  0  0  0  0  0  0  0  0  0
   10.2590  -15.0607   19.9852 N   0  0  0  0  0  0  0  0  0  0  0  0
   10.0673  -15.6580   22.3269 C   0  0  0  0  0  0  0  0  0  0  0  0
    9.3325  -14.6216   22.4839 O   0  0  0  0  0  0  0  0  0  0  0  0
    7.8446  -14.0641   24.3087 N   0  0  0  0  0  0  0  0  0  0  0  0
    7.2741  -15.3849   24.2037 C   0  0  0  0  0  0  0  0  0  0  0  0
    6.0340  -15.3744   23.9547 O   0  0  0  0  0  0  0  0  0  0  0  0
    8.1036  -16.5891   24.3789 C   0  0  0  0  0  0  0  0  0  0  0  0
    9.5175  -16.2306   24.6734 C   0  0  2  0  0  0  0  0  0  0  0  0
   10.3622  -16.4068   23.4871 N   0  0  0  0  0  0  0  0  0  0  0  0
   10.0713  -17.1935   25.6706 C   0  0  0  0  0  0  0  0  0  0  0  0
   11.1056  -18.0210   25.3328 O   0  0  0  0  0  0  0  0  0  0  0  0
    9.5770  -17.2320   26.8135 O   0  0  0  0  0  0  0  0  0  0  0  0
  2  1  1  6
  2  3  1  0
  4  3  1  0
  5 12  1  0
  5  2  1  0
  6  5  2  0
  8  7  1  0
  8 10  1  0
  9  8  2  0
 11 13  1  0
 11 10  1  1
 11 12  1  0
 13 20  1  0
 14 13  2  0
 16 17  2  0
 16 15  1  0
 18 16  1  0
 19 18  1  6
 20 19  1  0
 21 22  1  0
 21 19  1  0
 23 21  2  0
M  END
$$$$
