CNN.pdb
     RDKit          3D

 23 22  0  0  1  0  0  0  0  0999 V2000
    7.3060  -13.1978   17.3582 N   0  0  0  0  0  0  0  0  0  0  0  0
    8.1423  -12.9736   18.5175 C   0  0  1  0  0  0  0  0  0  0  0  0
    7.2519  -12.6305   19.6694 C   0  0  0  0  0  0  0  0  0  0  0  0
    8.2205  -12.6350   21.2076 S   0  0  0  0  0  0  0  0  0  0  0  0
    8.9682  -14.1679   18.7312 C   0  0  0  0  0  0  0  0  0  0  0  0
    8.5584  -15.2767   18.3128 O   0  0  0  0  0  0  0  0  0  0  0  0
   12.1916  -17.9388   18.0535 N   0  0  0  0  0  0  0  0  0  0  0  0
   12.8015  -16.7509   18.5151 C   0  0  0  0  0  0  0  0  0  0  0  0
   13.9458  -16.7970   18.9917 O   0  0  0  0  0  0  0  0  0  0  0  0
   12.0716  -15.4816   18.4231 C   0  0  0  0  0  0  0  0  0  0  0  0
   11.0612  -15.2745   19.5354 C   0  0  2  0  0  0  0  0  0  0  0  0
   10.2228  -14.1374   19.3944 N   0  0  0  0  0  0  0  0  0  0  0  0
   11.7073  -15.3541   20.8754 C   0  0  0  0  0  0  0  0  0  0  0  0
   12.4469  -14.3983   21.2974 O   0  0  0  0  0  0  0  0  0  0  0  0
   13.3710  -16.6129   25.5421 N   0  0  0  0  0  0  0  0  0  0  0  0
   12.2614  -17.4911   25.2616 C   0  0  0  0  0  0  0  0  0  0  0  0
   11.9751  -18.2571   26.2265 O   0  0  0  0  0  0  0  0  0  0  0  0
   11.5697  -17.4535   23.9619 C   0  0  0  0  0  0  0  0  0  0  0  0
   12.1374  -16.3976   23.0804 C   0  0  2  0  0  0  0  0  0  0  0  0
   11.5472  -16.4597   21.7388 N   0  0  0  0  0  0  0  0  0  0  0  0
   13.5889  -16.6684   22.8609 C   0  0  0  0  0  0  0  0  0  0  0  0
   13.9869  -17.7287   22.0955 O   0  0  0  0  0  0  0  0  0  0  0  0
   14.4309  -15.9149   23.3857 O   0  0  0  0  0  0  0  0  0  0  0  0
  2  1  1  6
  2  3  1  0
  4  3  1  0
  5 12  1  0
  5  2  1  0
  6  5  2  0
  8  7  1  0
  8 10  1  0
  9  8  2  0
 11 13  1  0
 11 10  1  6
 11 12  1  0
 13 20  1  0
 14 13  2  0
 16 17  2  0
 16 15  1  0
 18 16  1  0
 19 18  1  1
 20 19  1  0
 21 22  1  0
 21 19  1  0
 23 21  2  0
M  END
$$$$
