PLK.pdb
     RDKit          3D

 25 25  0  0  1  0  0  0  0  0999 V2000
   31.0225  -21.3763   -9.9231 N   0  0  0  0  0  0  0  0  0  0  0  0
   32.4252  -21.5632  -10.1711 C   0  0  0  0  0  0  0  0  0  0  0  0
   32.8460  -22.8225   -9.4455 C   0  0  0  0  0  0  0  0  0  0  0  0
   31.7315  -22.9433   -8.3989 C   0  0  0  0  0  0  0  0  0  0  0  0
   30.5334  -22.5123   -9.2129 C   0  0  1  0  0  0  0  0  0  0  0  0
   29.3766  -22.1532   -8.3566 C   0  0  0  0  0  0  0  0  0  0  0  0
   28.7148  -23.0918   -7.8451 O   0  0  0  0  0  0  0  0  0  0  0  0
   28.8911  -20.7108   -4.4571 C   0  0  0  0  0  0  0  0  0  0  0  0
   29.0371  -19.5244   -5.3571 C   0  0  2  0  0  0  0  0  0  0  0  0
   29.3394  -18.2724   -4.5656 C   0  0  0  0  0  0  0  0  0  0  0  0
   27.9841  -19.3527   -6.3770 C   0  0  0  0  0  0  0  0  0  0  0  0
   27.8123  -20.4118   -7.4008 C   0  0  2  0  0  0  0  0  0  0  0  0
   28.9964  -20.8083   -8.0984 N   0  0  0  0  0  0  0  0  0  0  0  0
   26.6807  -20.0830   -8.3217 C   0  0  0  0  0  0  0  0  0  0  0  0
   25.6529  -19.5834   -7.7957 O   0  0  0  0  0  0  0  0  0  0  0  0
   26.7337  -20.3098   -9.7116 N   0  0  0  0  0  0  0  0  0  0  0  0
   25.5636  -20.0208  -10.5590 C   0  0  1  0  0  0  0  0  0  0  0  0
   25.9425  -20.1962  -12.0066 C   0  0  0  0  0  0  0  0  0  0  0  0
   24.7936  -19.9816  -12.9558 C   0  0  0  0  0  0  0  0  0  0  0  0
   25.2975  -20.1757  -14.3959 C   0  0  0  0  0  0  0  0  0  0  0  0
   24.1272  -19.9235  -15.3170 C   0  0  0  0  0  0  0  0  0  0  0  0
   24.6229  -19.9721  -16.6914 N   0  0  0  0  0  0  0  0  0  0  0  0
   24.4212  -20.8237  -10.1180 C   0  0  0  0  0  0  0  0  0  0  0  0
   24.4937  -22.1329   -9.6761 O   0  0  0  0  0  0  0  0  0  0  0  0
   23.2343  -20.3372  -10.1174 O   0  0  0  0  0  0  0  0  0  0  0  0
  1  2  1  0
  1  5  1  0
  2  3  1  0
  3  4  1  0
  5  4  1  0
  5  6  1  1
  6 13  1  0
  7  6  2  0
  9  8  1  1
  9 10  1  0
 12 11  1  6
 11  9  1  0
 12 13  1  0
 14 12  1  0
 15 14  2  0
 16 14  1  0
 17 23  1  0
 17 16  1  0
 17 18  1  6
 19 18  1  0
 20 19  1  0
 21 20  1  0
 22 21  1  0
 23 24  1  0
 25 23  2  0
M  END
$$$$
