PLK.pdb
     RDKit          3D

 25 25  0  0  1  0  0  0  0  0999 V2000
   26.0092  -17.9955  -18.7766 N   0  0  0  0  0  0  0  0  0  0  0  0
   27.2595  -18.1368  -19.4701 C   0  0  0  0  0  0  0  0  0  0  0  0
   28.2584  -18.7030  -18.4847 C   0  0  0  0  0  0  0  0  0  0  0  0
   27.6004  -18.3257  -17.1517 C   0  0  0  0  0  0  0  0  0  0  0  0
   26.1449  -18.5689  -17.4778 C   0  0  1  0  0  0  0  0  0  0  0  0
   25.2376  -17.9139  -16.5040 C   0  0  0  0  0  0  0  0  0  0  0  0
   25.3001  -18.2870  -15.3051 O   0  0  0  0  0  0  0  0  0  0  0  0
   25.2771  -14.3178  -14.3801 C   0  0  0  0  0  0  0  0  0  0  0  0
   24.6643  -14.0652  -15.7216 C   0  0  2  0  0  0  0  0  0  0  0  0
   24.6238  -12.5866  -16.0338 C   0  0  0  0  0  0  0  0  0  0  0  0
   23.3999  -14.7742  -15.9990 C   0  0  0  0  0  0  0  0  0  0  0  0
   23.4016  -16.2571  -15.9773 C   0  0  2  0  0  0  0  0  0  0  0  0
   24.3159  -16.8967  -16.8724 N   0  0  0  0  0  0  0  0  0  0  0  0
   22.0099  -16.7924  -16.0915 C   0  0  0  0  0  0  0  0  0  0  0  0
   21.4978  -16.7906  -17.2406 O   0  0  0  0  0  0  0  0  0  0  0  0
   21.2840  -17.2806  -14.9866 N   0  0  0  0  0  0  0  0  0  0  0  0
   19.9108  -17.7851  -15.1612 C   0  0  1  0  0  0  0  0  0  0  0  0
   19.6837  -18.9432  -14.2246 C   0  0  0  0  0  0  0  0  0  0  0  0
   19.2465  -20.2022  -14.9251 C   0  0  0  0  0  0  0  0  0  0  0  0
   19.1576  -21.3386  -13.8926 C   0  0  0  0  0  0  0  0  0  0  0  0
   18.5729  -22.5393  -14.5984 C   0  0  0  0  0  0  0  0  0  0  0  0
   18.4398  -23.6133  -13.6155 N   0  0  0  0  0  0  0  0  0  0  0  0
   18.9561  -16.6833  -15.0238 C   0  0  0  0  0  0  0  0  0  0  0  0
   17.7219  -16.6195  -15.6459 O   0  0  0  0  0  0  0  0  0  0  0  0
   19.2225  -15.6682  -14.2862 O   0  0  0  0  0  0  0  0  0  0  0  0
  1  2  1  0
  1  5  1  0
  2  3  1  0
  3  4  1  0
  5  4  1  0
  5  6  1  1
  6 13  1  0
  7  6  2  0
  9  8  1  1
  9 10  1  0
 12 11  1  6
 11  9  1  0
 12 13  1  0
 14 12  1  0
 15 14  2  0
 16 14  1  0
 17 23  1  0
 17 16  1  0
 17 18  1  1
 19 18  1  0
 20 19  1  0
 21 20  1  0
 22 21  1  0
 23 24  1  0
 25 23  2  0
M  END
$$$$
