PLK.pdb
     RDKit          3D

 25 25  0  0  1  0  0  0  0  0999 V2000
   27.9739  -26.2012  -18.1324 N   0  0  0  0  0  0  0  0  0  0  0  0
   27.3703  -24.9425  -17.7925 C   0  0  0  0  0  0  0  0  0  0  0  0
   26.8283  -25.0694  -16.3856 C   0  0  0  0  0  0  0  0  0  0  0  0
   26.7082  -26.5927  -16.2547 C   0  0  0  0  0  0  0  0  0  0  0  0
   27.9595  -27.0365  -16.9765 C   0  0  1  0  0  0  0  0  0  0  0  0
   27.9090  -28.4710  -17.3511 C   0  0  0  0  0  0  0  0  0  0  0  0
   27.6177  -28.7541  -18.5408 O   0  0  0  0  0  0  0  0  0  0  0  0
   29.5712  -34.1280  -15.1730 C   0  0  0  0  0  0  0  0  0  0  0  0
   29.1050  -33.2182  -16.2656 C   0  0  2  0  0  0  0  0  0  0  0  0
   29.8371  -33.4973  -17.5584 C   0  0  0  0  0  0  0  0  0  0  0  0
   29.0163  -31.7857  -15.9207 C   0  0  0  0  0  0  0  0  0  0  0  0
   28.1417  -30.9139  -16.7419 C   0  0  2  0  0  0  0  0  0  0  0  0
   28.1737  -29.5187  -16.4280 N   0  0  0  0  0  0  0  0  0  0  0  0
   26.7514  -31.4615  -16.8033 C   0  0  0  0  0  0  0  0  0  0  0  0
   25.9612  -31.0964  -15.8950 O   0  0  0  0  0  0  0  0  0  0  0  0
   26.3194  -32.3432  -17.8143 N   0  0  0  0  0  0  0  0  0  0  0  0
   24.9097  -32.7657  -17.8823 C   0  0  1  0  0  0  0  0  0  0  0  0
   24.0762  -31.6322  -18.4211 C   0  0  0  0  0  0  0  0  0  0  0  0
   22.6034  -31.7921  -18.1520 C   0  0  0  0  0  0  0  0  0  0  0  0
   22.3770  -31.8147  -16.6309 C   0  0  0  0  0  0  0  0  0  0  0  0
   20.8935  -31.9829  -16.4020 C   0  0  0  0  0  0  0  0  0  0  0  0
   20.6766  -32.1151  -14.9624 N   0  0  0  0  0  0  0  0  0  0  0  0
   24.8032  -34.0202  -18.6301 C   0  0  0  0  0  0  0  0  0  0  0  0
   23.7332  -34.8951  -18.5655 O   0  0  0  0  0  0  0  0  0  0  0  0
   25.7389  -34.3968  -19.4226 O   0  0  0  0  0  0  0  0  0  0  0  0
  1  2  1  0
  1  5  1  0
  2  3  1  0
  3  4  1  0
  5  4  1  0
  5  6  1  6
  6 13  1  0
  7  6  2  0
  9  8  1  1
  9 10  1  0
 12 11  1  1
 11  9  1  0
 12 13  1  0
 14 12  1  0
 15 14  2  0
 16 14  1  0
 17 23  1  0
 17 16  1  0
 17 18  1  6
 19 18  1  0
 20 19  1  0
 21 20  1  0
 22 21  1  0
 23 24  1  0
 25 23  2  0
M  END
$$$$
