PLK.pdb
     RDKit          3D

 25 25  0  0  1  0  0  0  0  0999 V2000
   21.6963  -11.8434  -19.2635 N   0  0  0  0  0  0  0  0  0  0  0  0
   21.2990  -13.0749  -19.8877 C   0  0  0  0  0  0  0  0  0  0  0  0
   20.2829  -13.7318  -18.9792 C   0  0  0  0  0  0  0  0  0  0  0  0
   20.6014  -13.0500  -17.6429 C   0  0  0  0  0  0  0  0  0  0  0  0
   20.8864  -11.6404  -18.1073 C   0  0  1  0  0  0  0  0  0  0  0  0
   21.6060  -10.8488  -17.0796 C   0  0  0  0  0  0  0  0  0  0  0  0
   20.9968  -10.5868  -16.0116 O   0  0  0  0  0  0  0  0  0  0  0  0
   25.3866  -11.3969  -14.6800 C   0  0  0  0  0  0  0  0  0  0  0  0
   25.7645  -10.8362  -16.0147 C   0  0  2  0  0  0  0  0  0  0  0  0
   27.2649  -10.8305  -16.1998 C   0  0  0  0  0  0  0  0  0  0  0  0
   25.1059   -9.5711  -16.3948 C   0  0  0  0  0  0  0  0  0  0  0  0
   23.6247   -9.5071  -16.3599 C   0  0  2  0  0  0  0  0  0  0  0  0
   22.9374  -10.3841  -17.2570 N   0  0  0  0  0  0  0  0  0  0  0  0
   23.1509   -8.0919  -16.4575 C   0  0  0  0  0  0  0  0  0  0  0  0
   23.2700   -7.5338  -17.5786 O   0  0  0  0  0  0  0  0  0  0  0  0
   22.5955   -7.3933  -15.3669 N   0  0  0  0  0  0  0  0  0  0  0  0
   22.0294   -6.0461  -15.5553 C   0  0  1  0  0  0  0  0  0  0  0  0
   20.5468   -6.1593  -15.7982 C   0  0  0  0  0  0  0  0  0  0  0  0
   19.8644   -4.8273  -15.9637 C   0  0  0  0  0  0  0  0  0  0  0  0
   18.3636   -5.0653  -16.2008 C   0  0  0  0  0  0  0  0  0  0  0  0
   17.7187   -3.7110  -16.3784 C   0  0  0  0  0  0  0  0  0  0  0  0
   16.2947   -3.9248  -16.6309 N   0  0  0  0  0  0  0  0  0  0  0  0
   22.4071   -5.1875  -14.4309 C   0  0  0  0  0  0  0  0  0  0  0  0
   22.4463   -3.8049  -14.4654 O   0  0  0  0  0  0  0  0  0  0  0  0
   22.7395   -5.6915  -13.2991 O   0  0  0  0  0  0  0  0  0  0  0  0
  1  2  1  0
  1  5  1  0
  2  3  1  0
  3  4  1  0
  5  4  1  0
  5  6  1  1
  6 13  1  0
  7  6  2  0
  9  8  1  1
  9 10  1  0
 12 11  1  6
 11  9  1  0
 12 13  1  0
 14 12  1  0
 15 14  2  0
 16 14  1  0
 17 23  1  0
 17 16  1  0
 17 18  1  1
 19 18  1  0
 20 19  1  0
 21 20  1  0
 22 21  1  0
 23 24  1  0
 25 23  2  0
M  END
$$$$
