PLK.pdb
     RDKit          3D

 25 25  0  0  1  0  0  0  0  0999 V2000
   22.2106  -11.3079  -20.0044 N   0  0  0  0  0  0  0  0  0  0  0  0
   22.0193  -12.5334  -20.7293 C   0  0  0  0  0  0  0  0  0  0  0  0
   21.0754  -13.3932  -19.9173 C   0  0  0  0  0  0  0  0  0  0  0  0
   21.2415  -12.7742  -18.5240 C   0  0  0  0  0  0  0  0  0  0  0  0
   21.3369  -11.3079  -18.8772 C   0  0  1  0  0  0  0  0  0  0  0  0
   21.8953  -10.5010  -17.7648 C   0  0  0  0  0  0  0  0  0  0  0  0
   21.1596  -10.2943  -16.7665 O   0  0  0  0  0  0  0  0  0  0  0  0
   25.3644  -11.0936  -14.9868 C   0  0  0  0  0  0  0  0  0  0  0  0
   25.8733  -10.4639  -16.2452 C   0  0  2  0  0  0  0  0  0  0  0  0
   27.3846  -10.4451  -16.2741 C   0  0  0  0  0  0  0  0  0  0  0  0
   25.2475   -9.1825  -16.6261 C   0  0  0  0  0  0  0  0  0  0  0  0
   23.7722   -9.1310  -16.7679 C   0  0  2  0  0  0  0  0  0  0  0  0
   23.2103   -9.9623  -17.7874 N   0  0  0  0  0  0  0  0  0  0  0  0
   23.2944   -7.7160  -16.8464 C   0  0  0  0  0  0  0  0  0  0  0  0
   23.4869   -7.1156  -17.9351 O   0  0  0  0  0  0  0  0  0  0  0  0
   22.6580   -7.0618  -15.7726 N   0  0  0  0  0  0  0  0  0  0  0  0
   22.2292   -5.6584  -15.9037 C   0  0  1  0  0  0  0  0  0  0  0  0
   20.8275   -5.6161  -16.4543 C   0  0  0  0  0  0  0  0  0  0  0  0
   20.2905   -4.2188  -16.6167 C   0  0  0  0  0  0  0  0  0  0  0  0
   18.8798   -4.2973  -17.2241 C   0  0  0  0  0  0  0  0  0  0  0  0
   18.3738   -2.8809  -17.3643 C   0  0  0  0  0  0  0  0  0  0  0  0
   17.0499   -2.9394  -17.9816 N   0  0  0  0  0  0  0  0  0  0  0  0
   22.4131   -4.9622  -14.6286 C   0  0  0  0  0  0  0  0  0  0  0  0
   22.6675   -3.6091  -14.4919 O   0  0  0  0  0  0  0  0  0  0  0  0
   22.3468   -5.5964  -13.5156 O   0  0  0  0  0  0  0  0  0  0  0  0
  1  2  1  0
  1  5  1  0
  2  3  1  0
  3  4  1  0
  5  4  1  0
  5  6  1  1
  6 13  1  0
  7  6  2  0
  9  8  1  1
  9 10  1  0
 12 11  1  6
 11  9  1  0
 12 13  1  0
 14 12  1  0
 15 14  2  0
 16 14  1  0
 17 23  1  0
 17 16  1  0
 17 18  1  1
 19 18  1  0
 20 19  1  0
 21 20  1  0
 22 21  1  0
 23 24  1  0
 25 23  2  0
M  END
$$$$
