RNR.pdb
     RDKit          3D

 31 30  0  0  1  0  0  0  0  0999 V2000
    6.7927  -12.7471   16.4348 N   0  0  0  0  0  0  0  0  0  0  0  0
    7.9986  -13.3950   16.0264 C   0  0  0  0  0  0  0  0  0  0  0  0
    8.7308  -12.7832   15.1371 N   0  0  0  0  0  0  0  0  0  0  0  0
    8.4116  -14.6346   16.5294 N   0  0  0  0  0  0  0  0  0  0  0  0
    7.5704  -15.4250   17.3918 C   0  0  0  0  0  0  0  0  0  0  0  0
    8.2169  -15.5431   18.7492 C   0  0  0  0  0  0  0  0  0  0  0  0
    7.3832  -16.4265   19.6565 C   0  0  0  0  0  0  0  0  0  0  0  0
    7.8045  -17.8588   19.6011 C   0  0  2  0  0  0  0  0  0  0  0  0
    6.7770  -18.7642   20.0810 N   0  0  0  0  0  0  0  0  0  0  0  0
    9.0502  -17.9829   20.4190 C   0  0  0  0  0  0  0  0  0  0  0  0
    8.9268  -18.1493   21.6549 O   0  0  0  0  0  0  0  0  0  0  0  0
    9.6267  -13.2050   14.7904 N   0  0  0  0  0  0  0  0  0  0  0  0
   12.9013  -18.7955   17.4421 C   0  0  0  0  0  0  0  0  0  0  0  0
   12.8188  -18.9777   18.8510 O   0  0  0  0  0  0  0  0  0  0  0  0
   12.8325  -20.1481   19.3319 C   0  0  0  0  0  0  0  0  0  0  0  0
   12.7198  -17.7915   19.7472 C   0  0  2  0  0  0  0  0  0  0  0  0
   11.5282  -17.9679   20.7093 N   0  0  0  0  0  0  0  0  0  0  0  0
   10.3453  -17.9208   19.8619 C   0  0  0  0  0  0  0  0  0  0  0  0
   11.5735  -16.8778   21.6771 O   0  0  0  0  0  0  0  0  0  0  0  0
   11.5226  -15.6814   21.2681 N   0  0  0  0  0  0  0  0  0  0  0  0
   10.4775  -13.4872   30.2505 C   0  0  0  0  0  0  0  0  0  0  0  0
   10.2993  -14.7637   29.6618 N   0  0  0  0  0  0  0  0  0  0  0  0
   10.4314  -15.8557   30.3680 N   0  0  0  0  0  0  0  0  0  0  0  0
    9.9717  -14.9186   28.2927 C   0  0  0  0  0  0  0  0  0  0  0  0
   10.8536  -15.6001   27.3664 C   0  0  0  0  0  0  0  0  0  0  0  0
   10.4225  -15.0922   25.9795 C   0  0  0  0  0  0  0  0  0  0  0  0
   10.5862  -16.2381   25.0346 C   0  0  2  0  0  0  0  0  0  0  0  0
   11.6635  -15.9584   24.0166 N   0  0  0  0  0  0  0  0  0  0  0  0
   11.6726  -17.0888   23.0747 C   0  0  0  0  0  0  0  0  0  0  0  0
   12.9574  -15.9246   24.7465 O   0  0  0  0  0  0  0  0  0  0  0  0
   13.3798  -14.7324   25.3644 O   0  0  0  0  0  0  0  0  0  0  0  0
  1  2  1  0
  2  4  1  0
  2  3  2  0
  4  5  1  0
  6  7  1  0
  6  5  1  0
  8  9  1  1
  8  7  1  0
 10  8  1  0
 10 11  2  0
 13 15  1  0
 13 12  1  0
 14 13  2  0
 16 15  1  6
 16 18  1  0
 16 17  1  0
 17 10  1  0
 18 19  2  0
 20 21  1  0
 21 22  2  0
 23 21  1  0
 23 24  1  0
 24 25  1  0
 26 25  1  0
 27 26  1  6
 28 27  1  0
 28 18  1  0
 29 27  1  0
 30 29  1  0
 31 29  2  0
M  END
$$$$
