RNR.pdb
     RDKit          3D

 31 30  0  0  1  0  0  0  0  0999 V2000
    9.8855  -13.3092   20.5058 N   0  0  0  0  0  0  0  0  0  0  0  0
    8.8233  -12.5148   19.9754 C   0  0  0  0  0  0  0  0  0  0  0  0
    9.1438  -11.3596   19.4616 N   0  0  0  0  0  0  0  0  0  0  0  0
    7.4826  -12.9181   19.9905 N   0  0  0  0  0  0  0  0  0  0  0  0
    7.0666  -14.1979   19.4758 C   0  0  0  0  0  0  0  0  0  0  0  0
    7.5155  -15.2858   20.4190 C   0  0  0  0  0  0  0  0  0  0  0  0
    7.1353  -16.6482   19.8734 C   0  0  0  0  0  0  0  0  0  0  0  0
    8.2649  -17.3088   19.1524 C   0  0  2  0  0  0  0  0  0  0  0  0
    7.8711  -18.5492   18.5104 N   0  0  0  0  0  0  0  0  0  0  0  0
    9.3479  -17.5469   20.1555 C   0  0  0  0  0  0  0  0  0  0  0  0
    9.1248  -18.3665   21.0767 O   0  0  0  0  0  0  0  0  0  0  0  0
    8.4114  -10.7210   19.0661 N   0  0  0  0  0  0  0  0  0  0  0  0
   15.2962  -16.7516   20.4285 C   0  0  0  0  0  0  0  0  0  0  0  0
   14.0095  -17.2108   20.8266 O   0  0  0  0  0  0  0  0  0  0  0  0
   13.8788  -18.3816   21.2886 C   0  0  0  0  0  0  0  0  0  0  0  0
   12.8290  -16.3106   20.6992 C   0  0  2  0  0  0  0  0  0  0  0  0
   11.5638  -17.0444   21.1863 N   0  0  0  0  0  0  0  0  0  0  0  0
   10.5977  -16.8931   20.1078 C   0  0  0  0  0  0  0  0  0  0  0  0
   11.1311  -16.4088   22.4256 O   0  0  0  0  0  0  0  0  0  0  0  0
   10.7525  -15.2016   22.4054 N   0  0  0  0  0  0  0  0  0  0  0  0
    5.0908  -13.0706   25.7277 C   0  0  0  0  0  0  0  0  0  0  0  0
    6.4356  -12.7068   25.9865 N   0  0  0  0  0  0  0  0  0  0  0  0
    6.7856  -11.4517   26.0914 N   0  0  0  0  0  0  0  0  0  0  0  0
    7.4572  -13.6749   26.1434 C   0  0  0  0  0  0  0  0  0  0  0  0
    7.3118  -15.0292   25.6484 C   0  0  0  0  0  0  0  0  0  0  0  0
    8.5968  -15.7446   26.1004 C   0  0  0  0  0  0  0  0  0  0  0  0
    9.1544  -16.4256   24.8929 C   0  0  2  0  0  0  0  0  0  0  0  0
   10.6625  -16.3987   24.8969 N   0  0  0  0  0  0  0  0  0  0  0  0
   11.1106  -17.0811   23.6728 C   0  0  0  0  0  0  0  0  0  0  0  0
   11.1112  -17.1789   26.0793 O   0  0  0  0  0  0  0  0  0  0  0  0
   11.0476  -16.6022   27.3618 O   0  0  0  0  0  0  0  0  0  0  0  0
  1  2  1  0
  2  4  1  0
  2  3  2  0
  4  5  1  0
  6  7  1  0
  6  5  1  0
  8  9  1  1
  8  7  1  0
 10  8  1  0
 10 11  2  0
 13 15  1  0
 13 12  1  0
 14 13  2  0
 16 15  1  6
 16 18  1  0
 16 17  1  0
 17 10  1  0
 18 19  2  0
 20 21  1  0
 21 22  2  0
 23 21  1  0
 23 24  1  0
 24 25  1  0
 26 25  1  0
 27 26  1  6
 28 27  1  0
 28 18  1  0
 29 27  1  0
 30 29  1  0
 31 29  2  0
M  END
$$$$
