RNR.pdb
     RDKit          3D

 31 30  0  0  1  0  0  0  0  0999 V2000
    6.5551  -13.3584   15.2078 N   0  0  0  0  0  0  0  0  0  0  0  0
    7.9812  -13.4258   15.2578 C   0  0  0  0  0  0  0  0  0  0  0  0
    8.6031  -13.7016   14.1450 N   0  0  0  0  0  0  0  0  0  0  0  0
    8.7183  -13.2164   16.4297 N   0  0  0  0  0  0  0  0  0  0  0  0
    8.0795  -12.9677   17.6969 C   0  0  0  0  0  0  0  0  0  0  0  0
    7.6373  -14.2776   18.2994 C   0  0  0  0  0  0  0  0  0  0  0  0
    8.8148  -14.9922   18.9329 C   0  0  0  0  0  0  0  0  0  0  0  0
    9.3338  -16.1029   18.0790 C   0  0  2  0  0  0  0  0  0  0  0  0
    8.3749  -17.1799   17.9164 N   0  0  0  0  0  0  0  0  0  0  0  0
   10.5910  -16.5991   18.7188 C   0  0  0  0  0  0  0  0  0  0  0  0
   10.5193  -17.6233   19.4372 O   0  0  0  0  0  0  0  0  0  0  0  0
    9.6485  -13.7843   14.1152 N   0  0  0  0  0  0  0  0  0  0  0  0
   13.8749  -13.5390   18.6985 C   0  0  0  0  0  0  0  0  0  0  0  0
   13.9161  -14.6396   17.7975 O   0  0  0  0  0  0  0  0  0  0  0  0
   13.7046  -14.4467   16.5648 C   0  0  0  0  0  0  0  0  0  0  0  0
   14.2101  -16.0071   18.3108 C   0  0  1  0  0  0  0  0  0  0  0  0
   13.0392  -16.4933   19.1879 N   0  0  0  0  0  0  0  0  0  0  0  0
   11.8415  -15.9677   18.5485 C   0  0  0  0  0  0  0  0  0  0  0  0
   13.2410  -15.9636   20.5316 O   0  0  0  0  0  0  0  0  0  0  0  0
   13.8287  -14.8528   20.6798 N   0  0  0  0  0  0  0  0  0  0  0  0
   11.8482  -20.5234   27.5655 C   0  0  0  0  0  0  0  0  0  0  0  0
   12.5927  -21.0305   26.4718 N   0  0  0  0  0  0  0  0  0  0  0  0
   12.6924  -22.3171   26.2635 N   0  0  0  0  0  0  0  0  0  0  0  0
   13.2589  -20.1773   25.5586 C   0  0  0  0  0  0  0  0  0  0  0  0
   13.5186  -18.7841   25.8616 C   0  0  0  0  0  0  0  0  0  0  0  0
   14.3593  -18.2820   24.6748 C   0  0  0  0  0  0  0  0  0  0  0  0
   13.4075  -18.0396   23.5488 C   0  0  1  0  0  0  0  0  0  0  0  0
   13.6565  -16.7007   22.9004 N   0  0  0  0  0  0  0  0  0  0  0  0
   12.8069  -16.6362   21.7008 C   0  0  0  0  0  0  0  0  0  0  0  0
   15.0834  -16.6734   22.4862 O   0  0  0  0  0  0  0  0  0  0  0  0
   15.8980  -15.5874   22.8585 O   0  0  0  0  0  0  0  0  0  0  0  0
  1  2  1  0
  2  4  1  0
  2  3  2  0
  4  5  1  0
  6  7  1  0
  6  5  1  0
  8  9  1  1
  8  7  1  0
 10  8  1  0
 10 11  2  0
 13 15  1  0
 13 12  1  0
 14 13  2  0
 16 15  1  6
 16 18  1  0
 16 17  1  0
 17 10  1  0
 18 19  2  0
 20 21  1  0
 21 22  2  0
 23 21  1  0
 23 24  1  0
 24 25  1  0
 26 25  1  0
 27 26  1  1
 28 27  1  0
 28 18  1  0
 29 27  1  0
 30 29  1  0
 31 29  2  0
M  END
$$$$
