RNR.pdb
     RDKit          3D

 31 30  0  0  1  0  0  0  0  0999 V2000
    9.3560  -15.2635   17.6965 N   0  0  0  0  0  0  0  0  0  0  0  0
    8.8471  -13.9320   17.7912 C   0  0  0  0  0  0  0  0  0  0  0  0
    8.8827  -13.2033   16.7101 N   0  0  0  0  0  0  0  0  0  0  0  0
    8.3284  -13.3915   18.9740 N   0  0  0  0  0  0  0  0  0  0  0  0
    8.6034  -13.9745   20.2626 C   0  0  0  0  0  0  0  0  0  0  0  0
    7.8230  -13.2373   21.3217 C   0  0  0  0  0  0  0  0  0  0  0  0
    8.1837  -13.7549   22.7003 C   0  0  0  0  0  0  0  0  0  0  0  0
    7.9737  -15.2285   22.8286 C   0  0  2  0  0  0  0  0  0  0  0  0
    6.5894  -15.5768   23.0897 N   0  0  0  0  0  0  0  0  0  0  0  0
    8.8619  -15.7049   23.9332 C   0  0  0  0  0  0  0  0  0  0  0  0
    9.1811  -14.8845   24.8249 O   0  0  0  0  0  0  0  0  0  0  0  0
    8.6703  -12.1764   16.7421 N   0  0  0  0  0  0  0  0  0  0  0  0
   11.9719  -18.4652   26.9112 C   0  0  0  0  0  0  0  0  0  0  0  0
   11.1573  -19.3989   26.2116 O   0  0  0  0  0  0  0  0  0  0  0  0
   11.2008  -20.6243   26.5247 C   0  0  0  0  0  0  0  0  0  0  0  0
   10.2594  -18.9274   25.1201 C   0  0  2  0  0  0  0  0  0  0  0  0
   10.3618  -17.3945   24.9917 N   0  0  0  0  0  0  0  0  0  0  0  0
    9.3502  -17.0267   24.0116 C   0  0  0  0  0  0  0  0  0  0  0  0
   11.7156  -17.0750   24.5534 O   0  0  0  0  0  0  0  0  0  0  0  0
   12.7023  -17.5399   25.1948 N   0  0  0  0  0  0  0  0  0  0  0  0
   15.6222  -13.1815   18.4086 C   0  0  0  0  0  0  0  0  0  0  0  0
   15.5497  -14.4417   17.7650 N   0  0  0  0  0  0  0  0  0  0  0  0
   16.4546  -14.8068   16.8951 N   0  0  0  0  0  0  0  0  0  0  0  0
   14.5043  -15.3597   18.0297 C   0  0  0  0  0  0  0  0  0  0  0  0
   13.4872  -15.0954   19.0276 C   0  0  0  0  0  0  0  0  0  0  0  0
   13.8307  -16.0447   20.1887 C   0  0  0  0  0  0  0  0  0  0  0  0
   12.6946  -15.9658   21.1559 C   0  0  1  0  0  0  0  0  0  0  0  0
   13.0480  -16.6172   22.4696 N   0  0  0  0  0  0  0  0  0  0  0  0
   11.9913  -16.2585   23.4286 C   0  0  0  0  0  0  0  0  0  0  0  0
   14.3339  -16.0243   22.9204 O   0  0  0  0  0  0  0  0  0  0  0  0
   15.5212  -16.3197   22.2244 O   0  0  0  0  0  0  0  0  0  0  0  0
  1  2  1  0
  2  4  1  0
  2  3  2  0
  4  5  1  0
  6  7  1  0
  6  5  1  0
  8  9  1  1
  8  7  1  0
 10  8  1  0
 10 11  2  0
 13 15  1  0
 13 12  1  0
 14 13  2  0
 16 15  1  1
 16 18  1  0
 16 17  1  0
 17 10  1  0
 18 19  2  0
 20 21  1  0
 21 22  2  0
 23 21  1  0
 23 24  1  0
 24 25  1  0
 26 25  1  0
 27 26  1  6
 28 27  1  0
 28 18  1  0
 29 27  1  0
 30 29  1  0
 31 29  2  0
M  END
$$$$
