RNR.pdb
     RDKit          3D

 31 30  0  0  1  0  0  0  0  0999 V2000
    8.4607  -15.9299   13.9159 N   0  0  0  0  0  0  0  0  0  0  0  0
    9.3432  -16.6712   14.7599 C   0  0  0  0  0  0  0  0  0  0  0  0
   10.3475  -17.2746   14.1869 N   0  0  0  0  0  0  0  0  0  0  0  0
    9.1716  -16.7757   16.1456 N   0  0  0  0  0  0  0  0  0  0  0  0
    8.1355  -16.0556   16.8411 C   0  0  0  0  0  0  0  0  0  0  0  0
    8.6760  -14.7266   17.3059 C   0  0  0  0  0  0  0  0  0  0  0  0
    8.9885  -14.7725   18.7886 C   0  0  0  0  0  0  0  0  0  0  0  0
    8.1451  -13.8254   19.5783 C   0  0  2  0  0  0  0  0  0  0  0  0
    8.2656  -12.4532   19.1217 N   0  0  0  0  0  0  0  0  0  0  0  0
    8.5637  -13.9510   21.0084 C   0  0  0  0  0  0  0  0  0  0  0  0
    9.7503  -13.6727   21.2993 O   0  0  0  0  0  0  0  0  0  0  0  0
   11.0546  -17.8049   14.7521 N   0  0  0  0  0  0  0  0  0  0  0  0
    7.9008  -17.1592   24.5201 C   0  0  0  0  0  0  0  0  0  0  0  0
    6.8581  -16.2298   24.7922 O   0  0  0  0  0  0  0  0  0  0  0  0
    5.8744  -16.5848   25.5046 C   0  0  0  0  0  0  0  0  0  0  0  0
    6.9338  -14.8482   24.2395 C   0  0  1  0  0  0  0  0  0  0  0  0
    8.1888  -14.7130   23.3545 N   0  0  0  0  0  0  0  0  0  0  0  0
    7.6863  -14.3661   22.0329 C   0  0  0  0  0  0  0  0  0  0  0  0
    8.8870  -15.9933   23.3751 O   0  0  0  0  0  0  0  0  0  0  0  0
    8.6156  -16.8631   22.4971 N   0  0  0  0  0  0  0  0  0  0  0  0
   13.9851  -14.3706   19.1590 C   0  0  0  0  0  0  0  0  0  0  0  0
   14.9848  -15.0233   19.9222 N   0  0  0  0  0  0  0  0  0  0  0  0
   16.2495  -14.7327   19.7647 N   0  0  0  0  0  0  0  0  0  0  0  0
   14.6670  -16.0126   20.8844 C   0  0  0  0  0  0  0  0  0  0  0  0
   13.2969  -16.3208   21.2423 C   0  0  0  0  0  0  0  0  0  0  0  0
   13.2654  -16.2098   22.7766 C   0  0  0  0  0  0  0  0  0  0  0  0
   11.8794  -15.7917   23.1467 C   0  0  1  0  0  0  0  0  0  0  0  0
   11.1776  -16.8651   23.9406 N   0  0  0  0  0  0  0  0  0  0  0  0
    9.8701  -16.3219   24.3412 C   0  0  0  0  0  0  0  0  0  0  0  0
   11.9932  -17.1135   25.1577 O   0  0  0  0  0  0  0  0  0  0  0  0
   13.1200  -17.9539   25.0838 O   0  0  0  0  0  0  0  0  0  0  0  0
  1  2  1  0
  2  4  1  0
  2  3  2  0
  4  5  1  0
  6  7  1  0
  6  5  1  0
  8  9  1  6
  8  7  1  0
 10  8  1  0
 10 11  2  0
 13 15  1  0
 13 12  1  0
 14 13  2  0
 16 15  1  1
 16 18  1  0
 16 17  1  0
 17 10  1  0
 18 19  2  0
 20 21  1  0
 21 22  2  0
 23 21  1  0
 23 24  1  0
 24 25  1  0
 26 25  1  0
 27 26  1  6
 28 27  1  0
 28 18  1  0
 29 27  1  0
 30 29  1  0
 31 29  2  0
M  END
$$$$
