RNR.pdb
     RDKit          3D

 31 30  0  0  1  0  0  0  0  0999 V2000
    7.5133  -11.4428   20.0570 N   0  0  0  0  0  0  0  0  0  0  0  0
    7.6074  -12.8646   20.1582 C   0  0  0  0  0  0  0  0  0  0  0  0
    7.6620  -13.3734   21.3579 N   0  0  0  0  0  0  0  0  0  0  0  0
    7.6471  -13.7119   19.0442 N   0  0  0  0  0  0  0  0  0  0  0  0
    7.9388  -15.1175   19.1665 C   0  0  0  0  0  0  0  0  0  0  0  0
    9.1013  -15.3066   20.1085 C   0  0  0  0  0  0  0  0  0  0  0  0
    8.6798  -16.1308   21.3092 C   0  0  0  0  0  0  0  0  0  0  0  0
    9.4140  -17.4291   21.3952 C   0  0  2  0  0  0  0  0  0  0  0  0
    9.0673  -18.3414   20.3213 N   0  0  0  0  0  0  0  0  0  0  0  0
    9.0950  -18.0274   22.7281 C   0  0  0  0  0  0  0  0  0  0  0  0
    9.1661  -17.2865   23.7362 O   0  0  0  0  0  0  0  0  0  0  0  0
    7.7152  -14.4109   21.5042 N   0  0  0  0  0  0  0  0  0  0  0  0
    6.4820  -21.6994   21.7927 C   0  0  0  0  0  0  0  0  0  0  0  0
    6.5259  -21.1138   23.0889 O   0  0  0  0  0  0  0  0  0  0  0  0
    5.5306  -20.4569   23.5122 C   0  0  0  0  0  0  0  0  0  0  0  0
    7.7397  -21.2805   23.9368 C   0  0  2  0  0  0  0  0  0  0  0  0
    8.3744  -19.9021   24.2084 N   0  0  0  0  0  0  0  0  0  0  0  0
    8.7214  -19.3780   22.8952 C   0  0  0  0  0  0  0  0  0  0  0  0
    9.5402  -20.1099   25.0597 O   0  0  0  0  0  0  0  0  0  0  0  0
   10.6775  -20.2679   24.5281 N   0  0  0  0  0  0  0  0  0  0  0  0
    9.2817  -15.0663   25.4843 C   0  0  0  0  0  0  0  0  0  0  0  0
    9.8147  -14.5893   26.7075 N   0  0  0  0  0  0  0  0  0  0  0  0
    9.4506  -13.4327   27.1956 N   0  0  0  0  0  0  0  0  0  0  0  0
   10.7588  -15.3347   27.4551 C   0  0  0  0  0  0  0  0  0  0  0  0
   11.4675  -16.4634   26.8859 C   0  0  0  0  0  0  0  0  0  0  0  0
   10.6065  -17.6843   27.2538 C   0  0  0  0  0  0  0  0  0  0  0  0
   11.4452  -18.8932   26.9933 C   0  0  1  0  0  0  0  0  0  0  0  0
   10.6871  -20.1611   27.2978 N   0  0  0  0  0  0  0  0  0  0  0  0
    9.4677  -20.1445   26.4744 C   0  0  0  0  0  0  0  0  0  0  0  0
   10.3043  -20.1086   28.7327 O   0  0  0  0  0  0  0  0  0  0  0  0
   11.2830  -20.3091   29.7244 O   0  0  0  0  0  0  0  0  0  0  0  0
  1  2  1  0
  2  4  1  0
  2  3  2  0
  4  5  1  0
  6  7  1  0
  6  5  1  0
  8  9  1  6
  8  7  1  0
 10  8  1  0
 10 11  2  0
 13 15  1  0
 13 12  1  0
 14 13  2  0
 16 15  1  6
 16 18  1  0
 16 17  1  0
 17 10  1  0
 18 19  2  0
 20 21  1  0
 21 22  2  0
 23 21  1  0
 23 24  1  0
 24 25  1  0
 26 25  1  0
 27 26  1  6
 28 27  1  0
 28 18  1  0
 29 27  1  0
 30 29  1  0
 31 29  2  0
M  END
$$$$
