RNR.pdb
     RDKit          3D

 31 30  0  0  1  0  0  0  0  0999 V2000
    8.1634  -12.1409   19.8422 N   0  0  0  0  0  0  0  0  0  0  0  0
    8.1252  -13.1365   18.8184 C   0  0  0  0  0  0  0  0  0  0  0  0
    7.0139  -13.2563   18.1463 N   0  0  0  0  0  0  0  0  0  0  0  0
    9.2086  -13.9717   18.5200 N   0  0  0  0  0  0  0  0  0  0  0  0
    9.1588  -14.9283   17.4437 C   0  0  0  0  0  0  0  0  0  0  0  0
    8.2641  -16.0770   17.8369 C   0  0  0  0  0  0  0  0  0  0  0  0
    8.9819  -16.9993   18.8025 C   0  0  0  0  0  0  0  0  0  0  0  0
    8.1814  -18.2181   19.1279 C   0  0  2  0  0  0  0  0  0  0  0  0
    7.1727  -18.5103   18.1264 N   0  0  0  0  0  0  0  0  0  0  0  0
    7.5547  -17.9885   20.4661 C   0  0  0  0  0  0  0  0  0  0  0  0
    6.3113  -17.8410   20.5143 O   0  0  0  0  0  0  0  0  0  0  0  0
    6.9089  -13.9851   17.3990 N   0  0  0  0  0  0  0  0  0  0  0  0
    6.3789  -18.2802   25.3461 C   0  0  0  0  0  0  0  0  0  0  0  0
    6.2256  -19.3329   24.4010 O   0  0  0  0  0  0  0  0  0  0  0  0
    5.5113  -20.3360   24.6927 C   0  0  0  0  0  0  0  0  0  0  0  0
    6.9037  -19.2451   23.0772 C   0  0  1  0  0  0  0  0  0  0  0  0
    7.6326  -17.8919   22.9580 N   0  0  0  0  0  0  0  0  0  0  0  0
    8.2985  -17.9315   21.6640 C   0  0  0  0  0  0  0  0  0  0  0  0
    8.5684  -17.7918   24.0721 O   0  0  0  0  0  0  0  0  0  0  0  0
    9.3743  -18.7418   24.2938 N   0  0  0  0  0  0  0  0  0  0  0  0
    5.7923  -11.5496   25.4387 C   0  0  0  0  0  0  0  0  0  0  0  0
    5.9012  -12.0136   26.7731 N   0  0  0  0  0  0  0  0  0  0  0  0
    5.2494  -11.4302   27.7444 N   0  0  0  0  0  0  0  0  0  0  0  0
    6.7129  -13.1218   27.1175 C   0  0  0  0  0  0  0  0  0  0  0  0
    7.9228  -13.4416   26.3868 C   0  0  0  0  0  0  0  0  0  0  0  0
    8.4580  -14.7142   27.0661 C   0  0  0  0  0  0  0  0  0  0  0  0
    9.7208  -15.0793   26.3556 C   0  0  1  0  0  0  0  0  0  0  0  0
    9.7069  -16.5240   25.9223 N   0  0  0  0  0  0  0  0  0  0  0  0
    8.6260  -16.6691   24.9346 C   0  0  0  0  0  0  0  0  0  0  0  0
    9.3801  -17.3378   27.1220 O   0  0  0  0  0  0  0  0  0  0  0  0
   10.3678  -17.5717   28.0974 O   0  0  0  0  0  0  0  0  0  0  0  0
  1  2  1  0
  2  4  1  0
  2  3  2  0
  4  5  1  0
  6  7  1  0
  6  5  1  0
  8  9  1  6
  8  7  1  0
 10  8  1  0
 10 11  2  0
 13 15  1  0
 13 12  1  0
 14 13  2  0
 16 15  1  6
 16 18  1  0
 16 17  1  0
 17 10  1  0
 18 19  2  0
 20 21  1  0
 21 22  2  0
 23 21  1  0
 23 24  1  0
 24 25  1  0
 26 25  1  0
 27 26  1  6
 28 27  1  0
 28 18  1  0
 29 27  1  0
 30 29  1  0
 31 29  2  0
M  END
$$$$
