RNR.pdb
     RDKit          3D

 31 30  0  0  1  0  0  0  0  0999 V2000
    7.3527  -13.4156   16.4650 N   0  0  0  0  0  0  0  0  0  0  0  0
    8.3262  -13.4033   17.5105 C   0  0  0  0  0  0  0  0  0  0  0  0
    8.4097  -12.3207   18.2329 N   0  0  0  0  0  0  0  0  0  0  0  0
    9.1769  -14.4825   17.7790 N   0  0  0  0  0  0  0  0  0  0  0  0
    9.3240  -15.0242   19.1060 C   0  0  0  0  0  0  0  0  0  0  0  0
    7.9930  -15.5501   19.5816 C   0  0  0  0  0  0  0  0  0  0  0  0
    8.1389  -16.2057   20.9408 C   0  0  0  0  0  0  0  0  0  0  0  0
    8.7189  -17.5797   20.8514 C   0  0  2  0  0  0  0  0  0  0  0  0
    7.7233  -18.5894   20.5431 N   0  0  0  0  0  0  0  0  0  0  0  0
    9.3801  -17.8642   22.1622 C   0  0  0  0  0  0  0  0  0  0  0  0
    8.6510  -18.1805   23.1309 O   0  0  0  0  0  0  0  0  0  0  0  0
    9.1723  -12.2013   18.9434 N   0  0  0  0  0  0  0  0  0  0  0  0
   13.5671  -19.6972   21.3865 C   0  0  0  0  0  0  0  0  0  0  0  0
   12.9770  -19.6384   22.6801 O   0  0  0  0  0  0  0  0  0  0  0  0
   12.5621  -20.7015   23.2269 C   0  0  0  0  0  0  0  0  0  0  0  0
   12.8551  -18.3288   23.3803 C   0  0  2  0  0  0  0  0  0  0  0  0
   11.3692  -18.0277   23.6594 N   0  0  0  0  0  0  0  0  0  0  0  0
   10.7768  -17.7917   22.3507 C   0  0  0  0  0  0  0  0  0  0  0  0
   11.3085  -16.8566   24.5264 O   0  0  0  0  0  0  0  0  0  0  0  0
   11.5847  -15.7168   24.0512 N   0  0  0  0  0  0  0  0  0  0  0  0
    5.0489  -12.5494   25.8143 C   0  0  0  0  0  0  0  0  0  0  0  0
    6.2669  -12.3070   26.4965 N   0  0  0  0  0  0  0  0  0  0  0  0
    6.5815  -11.1066   26.9074 N   0  0  0  0  0  0  0  0  0  0  0  0
    7.1947  -13.3428   26.7651 C   0  0  0  0  0  0  0  0  0  0  0  0
    7.0100  -14.6873   26.2569 C   0  0  0  0  0  0  0  0  0  0  0  0
    8.1833  -15.4874   26.8490 C   0  0  0  0  0  0  0  0  0  0  0  0
    9.3979  -15.1080   26.0657 C   0  0  1  0  0  0  0  0  0  0  0  0
   10.6450  -15.7094   26.6643 N   0  0  0  0  0  0  0  0  0  0  0  0
   10.9505  -16.9263   25.8956 C   0  0  0  0  0  0  0  0  0  0  0  0
   10.3200  -16.0885   28.0639 O   0  0  0  0  0  0  0  0  0  0  0  0
   10.3050  -15.1030   29.0689 O   0  0  0  0  0  0  0  0  0  0  0  0
  1  2  1  0
  2  4  1  0
  2  3  2  0
  4  5  1  0
  6  7  1  0
  6  5  1  0
  8  9  1  1
  8  7  1  0
 10  8  1  0
 10 11  2  0
 13 15  1  0
 13 12  1  0
 14 13  2  0
 16 15  1  6
 16 18  1  0
 16 17  1  0
 17 10  1  0
 18 19  2  0
 20 21  1  0
 21 22  2  0
 23 21  1  0
 23 24  1  0
 24 25  1  0
 26 25  1  0
 27 26  1  6
 28 27  1  0
 28 18  1  0
 29 27  1  0
 30 29  1  0
 31 29  2  0
M  END
$$$$
