RNR.pdb
     RDKit          3D

 31 30  0  0  1  0  0  0  0  0999 V2000
    7.9704  -13.4377   13.0186 N   0  0  0  0  0  0  0  0  0  0  0  0
    8.4030  -13.7463   14.3446 C   0  0  0  0  0  0  0  0  0  0  0  0
    9.5664  -14.3218   14.4721 N   0  0  0  0  0  0  0  0  0  0  0  0
    7.6407  -13.4651   15.4850 N   0  0  0  0  0  0  0  0  0  0  0  0
    8.0598  -13.8750   16.8012 C   0  0  0  0  0  0  0  0  0  0  0  0
    8.1729  -15.3783   16.8441 C   0  0  0  0  0  0  0  0  0  0  0  0
    8.4048  -15.8504   18.2660 C   0  0  0  0  0  0  0  0  0  0  0  0
    8.4450  -17.3400   18.3725 C   0  0  2  0  0  0  0  0  0  0  0  0
    7.1640  -17.9575   18.0835 N   0  0  0  0  0  0  0  0  0  0  0  0
    8.8962  -17.6700   19.7594 C   0  0  0  0  0  0  0  0  0  0  0  0
    8.0226  -17.7738   20.6518 O   0  0  0  0  0  0  0  0  0  0  0  0
   10.1460  -14.5635   13.6316 N   0  0  0  0  0  0  0  0  0  0  0  0
   12.3672  -20.2840   23.3041 C   0  0  0  0  0  0  0  0  0  0  0  0
   12.5933  -18.9945   22.7464 O   0  0  0  0  0  0  0  0  0  0  0  0
   13.2256  -18.1260   23.4153 C   0  0  0  0  0  0  0  0  0  0  0  0
   12.0872  -18.6783   21.3811 C   0  0  1  0  0  0  0  0  0  0  0  0
   10.6450  -18.1419   21.4753 N   0  0  0  0  0  0  0  0  0  0  0  0
   10.2512  -17.8670   20.1009 C   0  0  0  0  0  0  0  0  0  0  0  0
   10.6701  -16.9436   22.3062 O   0  0  0  0  0  0  0  0  0  0  0  0
   11.3307  -15.9350   21.9221 N   0  0  0  0  0  0  0  0  0  0  0  0
    5.9147  -13.1803   27.5341 C   0  0  0  0  0  0  0  0  0  0  0  0
    6.1501  -12.0593   26.7000 N   0  0  0  0  0  0  0  0  0  0  0  0
    5.9813  -10.8417   27.1444 N   0  0  0  0  0  0  0  0  0  0  0  0
    6.5763  -12.2007   25.3568 C   0  0  0  0  0  0  0  0  0  0  0  0
    6.7167  -13.5000   24.7304 C   0  0  0  0  0  0  0  0  0  0  0  0
    8.1946  -13.8719   24.9420 C   0  0  0  0  0  0  0  0  0  0  0  0
    8.4164  -15.1656   24.2281 C   0  0  1  0  0  0  0  0  0  0  0  0
    9.8722  -15.5598   24.2492 N   0  0  0  0  0  0  0  0  0  0  0  0
    9.9827  -16.8450   23.5413 C   0  0  0  0  0  0  0  0  0  0  0  0
   10.2522  -15.7556   25.6724 O   0  0  0  0  0  0  0  0  0  0  0  0
   11.2661  -16.6738   26.0045 O   0  0  0  0  0  0  0  0  0  0  0  0
  1  2  1  0
  2  4  1  0
  2  3  2  0
  4  5  1  0
  6  7  1  0
  6  5  1  0
  8  9  1  1
  8  7  1  0
 10  8  1  0
 10 11  2  0
 13 15  1  0
 13 12  1  0
 14 13  2  0
 16 15  1  6
 16 18  1  0
 16 17  1  0
 17 10  1  0
 18 19  2  0
 20 21  1  0
 21 22  2  0
 23 21  1  0
 23 24  1  0
 24 25  1  0
 26 25  1  0
 27 26  1  6
 28 27  1  0
 28 18  1  0
 29 27  1  0
 30 29  1  0
 31 29  2  0
M  END
$$$$
