RNR.pdb
     RDKit          3D

 31 30  0  0  1  0  0  0  0  0999 V2000
    8.6987  -14.4860   13.9406 N   0  0  0  0  0  0  0  0  0  0  0  0
    8.1403  -13.7468   15.0280 C   0  0  0  0  0  0  0  0  0  0  0  0
    8.4560  -12.4842   15.1135 N   0  0  0  0  0  0  0  0  0  0  0  0
    7.2907  -14.3146   15.9853 N   0  0  0  0  0  0  0  0  0  0  0  0
    6.9231  -15.7071   15.9469 C   0  0  0  0  0  0  0  0  0  0  0  0
    7.5576  -16.4240   17.1122 C   0  0  0  0  0  0  0  0  0  0  0  0
    9.0173  -16.7140   16.8229 C   0  0  0  0  0  0  0  0  0  0  0  0
    9.6281  -17.6278   17.8347 C   0  0  2  0  0  0  0  0  0  0  0  0
    8.7756  -18.7569   18.1574 N   0  0  0  0  0  0  0  0  0  0  0  0
    9.9128  -16.8082   19.0527 C   0  0  0  0  0  0  0  0  0  0  0  0
   10.9541  -16.1112   19.0609 O   0  0  0  0  0  0  0  0  0  0  0  0
    8.1582  -11.9061   15.9368 N   0  0  0  0  0  0  0  0  0  0  0  0
    7.0982  -13.9047   21.4440 C   0  0  0  0  0  0  0  0  0  0  0  0
    7.0094  -15.3140   21.6206 O   0  0  0  0  0  0  0  0  0  0  0  0
    5.9701  -15.9275   21.2401 C   0  0  0  0  0  0  0  0  0  0  0  0
    8.1394  -16.0550   22.2483 C   0  0  2  0  0  0  0  0  0  0  0  0
    9.3829  -15.9675   21.3412 N   0  0  0  0  0  0  0  0  0  0  0  0
    9.0657  -16.7881   20.1813 C   0  0  0  0  0  0  0  0  0  0  0  0
   10.5214  -16.4752   22.0981 O   0  0  0  0  0  0  0  0  0  0  0  0
   10.4660  -17.6354   22.6003 N   0  0  0  0  0  0  0  0  0  0  0  0
   18.1508  -14.3143   19.5099 C   0  0  0  0  0  0  0  0  0  0  0  0
   17.8736  -13.8319   20.8130 N   0  0  0  0  0  0  0  0  0  0  0  0
   18.5024  -12.7918   21.2942 N   0  0  0  0  0  0  0  0  0  0  0  0
   16.9106  -14.4458   21.6505 C   0  0  0  0  0  0  0  0  0  0  0  0
   16.2715  -15.6967   21.2941 C   0  0  0  0  0  0  0  0  0  0  0  0
   15.4248  -16.0614   22.5260 C   0  0  0  0  0  0  0  0  0  0  0  0
   14.0855  -15.4297   22.3265 C   0  0  2  0  0  0  0  0  0  0  0  0
   12.9719  -16.3911   22.6592 N   0  0  0  0  0  0  0  0  0  0  0  0
   11.7072  -15.7277   22.3050 C   0  0  0  0  0  0  0  0  0  0  0  0
   13.0088  -16.6124   24.1282 O   0  0  0  0  0  0  0  0  0  0  0  0
   13.9538  -17.4995   24.6774 O   0  0  0  0  0  0  0  0  0  0  0  0
  1  2  1  0
  2  4  1  0
  2  3  2  0
  4  5  1  0
  6  7  1  0
  6  5  1  0
  8  9  1  1
  8  7  1  0
 10  8  1  0
 10 11  2  0
 13 15  1  0
 13 12  1  0
 14 13  2  0
 16 15  1  6
 16 18  1  0
 16 17  1  0
 17 10  1  0
 18 19  2  0
 20 21  1  0
 21 22  2  0
 23 21  1  0
 23 24  1  0
 24 25  1  0
 26 25  1  0
 27 26  1  6
 28 27  1  0
 28 18  1  0
 29 27  1  0
 30 29  1  0
 31 29  2  0
M  END
$$$$
