EGK.pdb
     RDKit          3D

 23 22  0  0  1  0  0  0  0  0999 V2000
   -3.6292  -23.7013   28.2536 N   0  0  0  0  0  0  0  0  0  0  0  0
   -3.9024  -24.5285   29.4033 C   0  0  1  0  0  0  0  0  0  0  0  0
   -5.2301  -25.2377   29.2786 C   0  0  0  0  0  0  0  0  0  0  0  0
   -5.5294  -26.0480   30.5146 C   0  0  0  0  0  0  0  0  0  0  0  0
   -6.7930  -26.7820   30.3063 C   0  0  0  0  0  0  0  0  0  0  0  0
   -6.8679  -27.9893   30.6074 O   0  0  0  0  0  0  0  0  0  0  0  0
   -2.8529  -25.5072   29.6946 C   0  0  0  0  0  0  0  0  0  0  0  0
   -2.9008  -26.1721   30.7557 O   0  0  0  0  0  0  0  0  0  0  0  0
   -7.8937  -26.1447   29.7809 O   0  0  0  0  0  0  0  0  0  0  0  0
   -1.7438  -25.7684   28.8350 N   0  0  0  0  0  0  0  0  0  0  0  0
   -0.7425  -26.7674   29.0728 C   0  0  0  0  0  0  0  0  0  0  0  0
    0.3220  -26.8317   28.0682 C   0  0  0  0  0  0  0  0  0  0  0  0
    0.1834  -26.2023   26.9850 O   0  0  0  0  0  0  0  0  0  0  0  0
    1.5180  -27.5517   28.2058 N   0  0  0  0  0  0  0  0  0  0  0  0
    2.6379  -27.5036   27.2660 C   0  0  1  0  0  0  0  0  0  0  0  0
    3.8180  -28.0174   27.9969 C   0  0  0  0  0  0  0  0  0  0  0  0
    4.3545  -27.2056   29.1115 C   0  0  0  0  0  0  0  0  0  0  0  0
    5.4285  -27.7988   29.9456 C   0  0  0  0  0  0  0  0  0  0  0  0
    5.7497  -26.9791   31.1680 C   0  0  0  0  0  0  0  0  0  0  0  0
    6.8479  -27.5471   31.9248 N   0  0  0  0  0  0  0  0  0  0  0  0
    2.3188  -28.0374   25.9649 C   0  0  0  0  0  0  0  0  0  0  0  0
    2.7605  -27.4518   24.7530 O   0  0  0  0  0  0  0  0  0  0  0  0
    1.6227  -29.0675   25.7754 O   0  0  0  0  0  0  0  0  0  0  0  0
  2  1  1  6
  2  7  1  0
  3  2  1  0
  4  3  1  0
  5  4  1  0
  6  5  2  0
  7 10  1  0
  8  7  2  0
  9  5  1  0
 10 11  1  0
 11 12  1  0
 12 13  2  0
 12 14  1  0
 14 15  1  0
 15 21  1  0
 15 16  1  1
 17 16  1  0
 18 17  1  0
 19 18  1  0
 20 19  1  0
 21 23  2  0
 21 22  1  0
M  END
$$$$
