EGK.pdb
     RDKit          3D

 23 22  0  0  1  0  0  0  0  0999 V2000
   10.9646  -19.1792   19.4184 N   0  0  0  0  0  0  0  0  0  0  0  0
   10.7339  -17.8259   18.9754 C   0  0  1  0  0  0  0  0  0  0  0  0
   10.2364  -17.7817   17.5500 C   0  0  0  0  0  0  0  0  0  0  0  0
    9.3539  -18.9665   17.2475 C   0  0  0  0  0  0  0  0  0  0  0  0
    8.8925  -18.8695   15.8487 C   0  0  0  0  0  0  0  0  0  0  0  0
    9.3789  -19.6196   14.9800 O   0  0  0  0  0  0  0  0  0  0  0  0
    9.8219  -17.0667   19.8333 C   0  0  0  0  0  0  0  0  0  0  0  0
    9.6449  -15.8440   19.6234 O   0  0  0  0  0  0  0  0  0  0  0  0
    7.9271  -17.9559   15.4923 O   0  0  0  0  0  0  0  0  0  0  0  0
    9.0976  -17.6313   20.9260 N   0  0  0  0  0  0  0  0  0  0  0  0
    8.1076  -16.9364   21.6969 C   0  0  0  0  0  0  0  0  0  0  0  0
    8.6378  -16.0682   22.7512 C   0  0  0  0  0  0  0  0  0  0  0  0
    9.8826  -16.0274   22.9454 O   0  0  0  0  0  0  0  0  0  0  0  0
    7.8633  -15.2530   23.5898 N   0  0  0  0  0  0  0  0  0  0  0  0
    8.3975  -14.3685   24.6252 C   0  0  1  0  0  0  0  0  0  0  0  0
    7.4415  -13.2453   24.7480 C   0  0  0  0  0  0  0  0  0  0  0  0
    6.9548  -12.8895   26.0992 C   0  0  0  0  0  0  0  0  0  0  0  0
    5.9565  -11.7977   26.2103 C   0  0  0  0  0  0  0  0  0  0  0  0
    5.5911  -11.4724   27.6351 C   0  0  0  0  0  0  0  0  0  0  0  0
    4.5727  -10.4434   27.7090 N   0  0  0  0  0  0  0  0  0  0  0  0
    8.8304  -15.0674   25.8100 C   0  0  0  0  0  0  0  0  0  0  0  0
    9.8954  -14.6228   26.6313 O   0  0  0  0  0  0  0  0  0  0  0  0
    8.3111  -16.1327   26.2310 O   0  0  0  0  0  0  0  0  0  0  0  0
  2  1  1  1
  2  7  1  0
  3  2  1  0
  4  3  1  0
  5  4  1  0
  6  5  2  0
  7 10  1  0
  8  7  2  0
  9  5  1  0
 10 11  1  0
 11 12  1  0
 12 13  2  0
 12 14  1  0
 14 15  1  0
 15 21  1  0
 15 16  1  1
 17 16  1  0
 18 17  1  0
 19 18  1  0
 20 19  1  0
 21 23  2  0
 21 22  1  0
M  END
$$$$
