EGK.pdb
     RDKit          3D

 23 22  0  0  1  0  0  0  0  0999 V2000
    7.9734  -17.0220   16.7003 N   0  0  0  0  0  0  0  0  0  0  0  0
    7.9574  -18.0040   17.7567 C   0  0  1  0  0  0  0  0  0  0  0  0
    9.2487  -18.7854   17.8129 C   0  0  0  0  0  0  0  0  0  0  0  0
   10.4287  -17.8677   18.0115 C   0  0  0  0  0  0  0  0  0  0  0  0
   11.6583  -18.6823   18.0718 C   0  0  0  0  0  0  0  0  0  0  0  0
   11.6440  -19.7883   18.6467 O   0  0  0  0  0  0  0  0  0  0  0  0
    7.6660  -17.4490   19.0801 C   0  0  0  0  0  0  0  0  0  0  0  0
    7.4142  -18.2200   20.0353 O   0  0  0  0  0  0  0  0  0  0  0  0
   12.8249  -18.2316   17.4977 O   0  0  0  0  0  0  0  0  0  0  0  0
    7.6450  -16.0523   19.3733 N   0  0  0  0  0  0  0  0  0  0  0  0
    7.3001  -15.4892   20.6465 C   0  0  0  0  0  0  0  0  0  0  0  0
    8.3102  -15.6572   21.6944 C   0  0  0  0  0  0  0  0  0  0  0  0
    9.3552  -16.3146   21.4406 O   0  0  0  0  0  0  0  0  0  0  0  0
    8.2178  -15.1375   22.9941 N   0  0  0  0  0  0  0  0  0  0  0  0
    9.2892  -15.1740   23.9892 C   0  0  1  0  0  0  0  0  0  0  0  0
    8.7247  -14.5992   25.2309 C   0  0  0  0  0  0  0  0  0  0  0  0
    9.6107  -14.4833   26.4102 C   0  0  0  0  0  0  0  0  0  0  0  0
    9.1331  -13.6738   27.5581 C   0  0  0  0  0  0  0  0  0  0  0  0
   10.1589  -13.5359   28.6528 C   0  0  0  0  0  0  0  0  0  0  0  0
    9.6581  -12.7528   29.7652 N   0  0  0  0  0  0  0  0  0  0  0  0
    9.9821  -16.4376   24.0408 C   0  0  0  0  0  0  0  0  0  0  0  0
    9.3257  -17.6900   23.9548 O   0  0  0  0  0  0  0  0  0  0  0  0
   11.2280  -16.5554   24.1660 O   0  0  0  0  0  0  0  0  0  0  0  0
  2  1  1  6
  2  7  1  0
  3  2  1  0
  4  3  1  0
  5  4  1  0
  6  5  2  0
  7 10  1  0
  8  7  2  0
  9  5  1  0
 10 11  1  0
 11 12  1  0
 12 13  2  0
 12 14  1  0
 14 15  1  0
 15 21  1  0
 15 16  1  1
 17 16  1  0
 18 17  1  0
 19 18  1  0
 20 19  1  0
 21 23  2  0
 21 22  1  0
M  END
$$$$
