EGK.pdb
     RDKit          3D

 23 22  0  0  1  0  0  0  0  0999 V2000
   11.8560  -19.3094   19.9229 N   0  0  0  0  0  0  0  0  0  0  0  0
   11.7727  -17.9454   19.4610 C   0  0  1  0  0  0  0  0  0  0  0  0
   11.6761  -17.8702   17.9556 C   0  0  0  0  0  0  0  0  0  0  0  0
   10.7325  -18.9177   17.4205 C   0  0  0  0  0  0  0  0  0  0  0  0
   10.6414  -18.7697   15.9546 C   0  0  0  0  0  0  0  0  0  0  0  0
   11.5416  -19.2306   15.2259 O   0  0  0  0  0  0  0  0  0  0  0  0
   10.6755  -17.1814   20.0582 C   0  0  0  0  0  0  0  0  0  0  0  0
   10.5411  -15.9668   19.7806 O   0  0  0  0  0  0  0  0  0  0  0  0
    9.5686  -18.1257   15.3819 O   0  0  0  0  0  0  0  0  0  0  0  0
    9.7182  -17.7323   20.9624 N   0  0  0  0  0  0  0  0  0  0  0  0
    8.6117  -17.0109   21.5212 C   0  0  0  0  0  0  0  0  0  0  0  0
    8.9279  -16.2074   22.7048 C   0  0  0  0  0  0  0  0  0  0  0  0
   10.0917  -16.2546   23.1865 O   0  0  0  0  0  0  0  0  0  0  0  0
    8.0264  -15.3644   23.3715 N   0  0  0  0  0  0  0  0  0  0  0  0
    8.3255  -14.6147   24.5913 C   0  0  1  0  0  0  0  0  0  0  0  0
    7.1799  -13.7039   24.8125 C   0  0  0  0  0  0  0  0  0  0  0  0
    7.2197  -12.8079   25.9892 C   0  0  0  0  0  0  0  0  0  0  0  0
    6.0461  -11.9339   26.2338 C   0  0  0  0  0  0  0  0  0  0  0  0
    6.2305  -11.0105   27.4098 C   0  0  0  0  0  0  0  0  0  0  0  0
    5.0229  -10.2644   27.7040 N   0  0  0  0  0  0  0  0  0  0  0  0
    8.7951  -15.4435   25.6740 C   0  0  0  0  0  0  0  0  0  0  0  0
    9.8451  -15.0647   26.5462 O   0  0  0  0  0  0  0  0  0  0  0  0
    8.3246  -16.5763   25.9517 O   0  0  0  0  0  0  0  0  0  0  0  0
  2  1  1  6
  2  7  1  0
  3  2  1  0
  4  3  1  0
  5  4  1  0
  6  5  2  0
  7 10  1  0
  8  7  2  0
  9  5  1  0
 10 11  1  0
 11 12  1  0
 12 13  2  0
 12 14  1  0
 14 15  1  0
 15 21  1  0
 15 16  1  1
 17 16  1  0
 18 17  1  0
 19 18  1  0
 20 19  1  0
 21 23  2  0
 21 22  1  0
M  END
$$$$
