EGK.pdb
     RDKit          3D

 23 22  0  0  1  0  0  0  0  0999 V2000
    9.5750  -14.8503   17.2623 N   0  0  0  0  0  0  0  0  0  0  0  0
    9.3857  -16.2728   17.4083 C   0  0  1  0  0  0  0  0  0  0  0  0
    9.6466  -17.0070   16.1144 C   0  0  0  0  0  0  0  0  0  0  0  0
   10.9341  -16.5449   15.4798 C   0  0  0  0  0  0  0  0  0  0  0  0
   11.1187  -17.2636   14.2037 C   0  0  0  0  0  0  0  0  0  0  0  0
   10.1704  -17.9021   13.7067 O   0  0  0  0  0  0  0  0  0  0  0  0
   10.1856  -16.8725   18.4783 C   0  0  0  0  0  0  0  0  0  0  0  0
    9.9543  -18.0492   18.8419 O   0  0  0  0  0  0  0  0  0  0  0  0
   12.3317  -17.2360   13.5545 O   0  0  0  0  0  0  0  0  0  0  0  0
   11.2410  -16.1963   19.1611 N   0  0  0  0  0  0  0  0  0  0  0  0
   12.0427  -16.7723   20.2016 C   0  0  0  0  0  0  0  0  0  0  0  0
   11.6281  -16.4331   21.5653 C   0  0  0  0  0  0  0  0  0  0  0  0
   11.8460  -15.2712   22.0026 O   0  0  0  0  0  0  0  0  0  0  0  0
   10.9914  -17.3099   22.4560 N   0  0  0  0  0  0  0  0  0  0  0  0
   10.4524  -16.9322   23.7623 C   0  0  1  0  0  0  0  0  0  0  0  0
    9.0492  -17.4025   23.7863 C   0  0  0  0  0  0  0  0  0  0  0  0
    8.1269  -16.8954   22.7465 C   0  0  0  0  0  0  0  0  0  0  0  0
    6.7855  -17.5212   22.6460 C   0  0  0  0  0  0  0  0  0  0  0  0
    5.9912  -17.0322   21.4630 C   0  0  0  0  0  0  0  0  0  0  0  0
    4.7170  -17.7141   21.3501 N   0  0  0  0  0  0  0  0  0  0  0  0
   11.3299  -17.2544   24.8604 C   0  0  0  0  0  0  0  0  0  0  0  0
   11.2663  -16.6137   26.1222 O   0  0  0  0  0  0  0  0  0  0  0  0
   12.2323  -18.1289   24.8102 O   0  0  0  0  0  0  0  0  0  0  0  0
  2  1  1  6
  2  7  1  0
  3  2  1  0
  4  3  1  0
  5  4  1  0
  6  5  2  0
  7 10  1  0
  8  7  2  0
  9  5  1  0
 10 11  1  0
 11 12  1  0
 12 13  2  0
 12 14  1  0
 14 15  1  0
 15 21  1  0
 15 16  1  1
 17 16  1  0
 18 17  1  0
 19 18  1  0
 20 19  1  0
 21 23  2  0
 21 22  1  0
M  END
$$$$
