EGK.pdb
     RDKit          3D

 23 22  0  0  1  0  0  0  0  0999 V2000
    7.0328  -18.4100   18.7916 N   0  0  0  0  0  0  0  0  0  0  0  0
    8.1731  -18.3263   19.6710 C   0  0  1  0  0  0  0  0  0  0  0  0
    9.4707  -18.5250   18.9239 C   0  0  0  0  0  0  0  0  0  0  0  0
    9.3971  -17.9257   17.5421 C   0  0  0  0  0  0  0  0  0  0  0  0
   10.6706  -18.1875   16.8430 C   0  0  0  0  0  0  0  0  0  0  0  0
   11.6788  -17.5052   17.1109 O   0  0  0  0  0  0  0  0  0  0  0  0
    8.2401  -17.0827   20.4412 C   0  0  0  0  0  0  0  0  0  0  0  0
    9.1474  -16.9267   21.2913 O   0  0  0  0  0  0  0  0  0  0  0  0
   10.7566  -19.1811   15.8948 O   0  0  0  0  0  0  0  0  0  0  0  0
    7.3203  -16.0013   20.2933 N   0  0  0  0  0  0  0  0  0  0  0  0
    7.4063  -14.7531   20.9944 C   0  0  0  0  0  0  0  0  0  0  0  0
    7.1206  -14.8255   22.4296 C   0  0  0  0  0  0  0  0  0  0  0  0
    5.9428  -15.0634   22.8103 O   0  0  0  0  0  0  0  0  0  0  0  0
    8.0668  -14.6490   23.4500 N   0  0  0  0  0  0  0  0  0  0  0  0
    7.7686  -14.6684   24.8819 C   0  0  1  0  0  0  0  0  0  0  0  0
    8.8464  -15.4556   25.5217 C   0  0  0  0  0  0  0  0  0  0  0  0
    9.1194  -16.8138   25.0019 C   0  0  0  0  0  0  0  0  0  0  0  0
   10.2768  -17.5511   25.5655 C   0  0  0  0  0  0  0  0  0  0  0  0
   10.3825  -18.9652   25.0568 C   0  0  0  0  0  0  0  0  0  0  0  0
   11.6013  -19.6096   25.5047 N   0  0  0  0  0  0  0  0  0  0  0  0
    7.4213  -13.3737   25.4136 C   0  0  0  0  0  0  0  0  0  0  0  0
    7.7648  -12.1540   24.7805 O   0  0  0  0  0  0  0  0  0  0  0  0
    6.7839  -13.1973   26.4833 O   0  0  0  0  0  0  0  0  0  0  0  0
  2  1  1  6
  2  7  1  0
  3  2  1  0
  4  3  1  0
  5  4  1  0
  6  5  2  0
  7 10  1  0
  8  7  2  0
  9  5  1  0
 10 11  1  0
 11 12  1  0
 12 13  2  0
 12 14  1  0
 14 15  1  0
 15 21  1  0
 15 16  1  1
 17 16  1  0
 18 17  1  0
 19 18  1  0
 20 19  1  0
 21 23  2  0
 21 22  1  0
M  END
$$$$
