HAV.pdb
     RDKit          3D

 23 23  0  0  1  0  0  0  0  0999 V2000
   28.1451  -35.6675   -7.3842 N   0  0  0  0  0  0  0  0  0  0  0  0
   28.9493  -34.7518   -6.6299 C   0  0  1  0  0  0  0  0  0  0  0  0
   28.0564  -33.7780   -5.9372 C   0  0  0  0  0  0  0  0  0  0  0  0
   27.4369  -32.8840   -6.9516 C   0  0  0  0  0  0  0  0  0  0  0  0
   28.0375  -32.2298   -8.0180 C   0  0  0  0  0  0  0  0  0  0  0  0
   27.1420  -31.5152   -8.7056 N   0  0  0  0  0  0  0  0  0  0  0  0
   25.9518  -31.6991   -8.0915 C   0  0  0  0  0  0  0  0  0  0  0  0
   26.1234  -32.5213   -7.0363 N   0  0  0  0  0  0  0  0  0  0  0  0
   29.8333  -35.4499   -5.6542 C   0  0  0  0  0  0  0  0  0  0  0  0
   29.4355  -36.4197   -4.9617 O   0  0  0  0  0  0  0  0  0  0  0  0
   33.4860  -35.0507   -4.6587 C   0  0  0  0  0  0  0  0  0  0  0  0
   32.0842  -35.5816   -4.5305 C   0  0  2  0  0  0  0  0  0  0  0  0
   31.1667  -35.0366   -5.4748 N   0  0  0  0  0  0  0  0  0  0  0  0
   31.5576  -35.4692   -3.1563 C   0  0  0  0  0  0  0  0  0  0  0  0
   30.8419  -34.4836   -2.8663 O   0  0  0  0  0  0  0  0  0  0  0  0
   29.3989  -37.6791   -0.9957 C   0  0  0  0  0  0  0  0  0  0  0  0
   30.7464  -37.4814   -0.3043 C   0  0  2  0  0  0  0  0  0  0  0  0
   30.5974  -37.4848    1.1819 C   0  0  0  0  0  0  0  0  0  0  0  0
   31.4028  -36.1956   -0.7966 C   0  0  2  0  0  0  0  0  0  0  0  0
   31.8283  -36.4303   -2.1512 N   0  0  0  0  0  0  0  0  0  0  0  0
   32.5777  -35.8514    0.0249 C   0  0  0  0  0  0  0  0  0  0  0  0
   33.8667  -36.1049   -0.4224 O   0  0  0  0  0  0  0  0  0  0  0  0
   32.4440  -35.3197    1.1515 O   0  0  0  0  0  0  0  0  0  0  0  0
  2  1  1  1
  2  9  1  0
  2  3  1  0
  3  4  1  0
  4  5  2  0
  6  5  1  0
  7  6  1  0
  8  7  2  0
  8  4  1  0
  9 13  1  0
 10  9  2  0
 12 11  1  1
 12 14  1  0
 13 12  1  0
 14 15  2  0
 14 20  1  0
 17 16  1  6
 18 17  1  0
 19 21  1  0
 19 17  1  0
 19 20  1  6
 21 22  1  0
 23 21  2  0
M  END
$$$$
