HAV.pdb
     RDKit          3D

 23 23  0  0  1  0  0  0  0  0999 V2000
   19.5707  -14.5352  -19.3388 N   0  0  0  0  0  0  0  0  0  0  0  0
   18.8472  -14.1218  -18.1726 C   0  0  1  0  0  0  0  0  0  0  0  0
   19.3532  -14.8814  -16.9925 C   0  0  0  0  0  0  0  0  0  0  0  0
   19.0020  -16.3174  -17.1552 C   0  0  0  0  0  0  0  0  0  0  0  0
   19.8204  -17.3779  -17.5178 C   0  0  0  0  0  0  0  0  0  0  0  0
   19.1312  -18.5221  -17.5554 N   0  0  0  0  0  0  0  0  0  0  0  0
   17.8590  -18.2144  -17.2174 C   0  0  0  0  0  0  0  0  0  0  0  0
   17.7758  -16.8901  -16.9758 N   0  0  0  0  0  0  0  0  0  0  0  0
   18.9437  -12.6529  -17.9408 C   0  0  0  0  0  0  0  0  0  0  0  0
   20.0006  -12.0075  -18.1524 O   0  0  0  0  0  0  0  0  0  0  0  0
   16.3640   -9.9765  -17.1950 C   0  0  0  0  0  0  0  0  0  0  0  0
   17.7631  -10.5127  -17.3309 C   0  0  2  0  0  0  0  0  0  0  0  0
   17.8328  -11.9293  -17.4686 N   0  0  0  0  0  0  0  0  0  0  0  0
   18.6589  -10.0412  -16.2569 C   0  0  0  0  0  0  0  0  0  0  0  0
   18.7562  -10.7252  -15.2127 O   0  0  0  0  0  0  0  0  0  0  0  0
   22.5904   -7.4253  -14.9835 C   0  0  0  0  0  0  0  0  0  0  0  0
   21.5685   -7.8817  -16.0228 C   0  0  2  0  0  0  0  0  0  0  0  0
   21.1667   -6.7550  -16.9173 C   0  0  0  0  0  0  0  0  0  0  0  0
   20.3598   -8.5026  -15.3298 C   0  0  2  0  0  0  0  0  0  0  0  0
   19.4136   -8.8465  -16.3583 N   0  0  0  0  0  0  0  0  0  0  0  0
   19.7331   -7.5468  -14.3984 C   0  0  0  0  0  0  0  0  0  0  0  0
   20.1727   -7.4272  -13.0876 O   0  0  0  0  0  0  0  0  0  0  0  0
   18.7848   -6.8151  -14.7659 O   0  0  0  0  0  0  0  0  0  0  0  0
  2  1  1  6
  2  9  1  0
  2  3  1  0
  3  4  1  0
  4  5  2  0
  6  5  1  0
  7  6  1  0
  8  7  2  0
  8  4  1  0
  9 13  1  0
 10  9  2  0
 12 11  1  1
 12 14  1  0
 13 12  1  0
 14 15  2  0
 14 20  1  0
 17 16  1  1
 18 17  1  0
 19 21  1  0
 19 17  1  0
 19 20  1  6
 21 22  1  0
 23 21  2  0
M  END
$$$$
