HAV.pdb
     RDKit          3D

 23 23  0  0  1  0  0  0  0  0999 V2000
   24.2829  -34.0545  -12.0757 N   0  0  0  0  0  0  0  0  0  0  0  0
   25.3904  -34.7703  -11.5143 C   0  0  1  0  0  0  0  0  0  0  0  0
   26.6456  -34.0092  -11.7801 C   0  0  0  0  0  0  0  0  0  0  0  0
   26.8860  -33.9707  -13.2473 C   0  0  0  0  0  0  0  0  0  0  0  0
   26.9135  -32.8733  -14.0963 C   0  0  0  0  0  0  0  0  0  0  0  0
   27.1620  -33.2487  -15.3544 N   0  0  0  0  0  0  0  0  0  0  0  0
   27.2981  -34.5935  -15.3333 C   0  0  0  0  0  0  0  0  0  0  0  0
   27.1332  -35.0328  -14.0688 N   0  0  0  0  0  0  0  0  0  0  0  0
   25.2187  -35.0198  -10.0552 C   0  0  0  0  0  0  0  0  0  0  0  0
   24.8140  -34.1311   -9.2647 O   0  0  0  0  0  0  0  0  0  0  0  0
   25.5066  -38.1317   -7.8859 C   0  0  0  0  0  0  0  0  0  0  0  0
   25.3118  -36.6630   -8.1479 C   0  0  2  0  0  0  0  0  0  0  0  0
   25.5101  -36.2829   -9.5068 N   0  0  0  0  0  0  0  0  0  0  0  0
   26.1070  -35.8136   -7.2399 C   0  0  0  0  0  0  0  0  0  0  0  0
   27.3454  -35.7464   -7.4113 O   0  0  0  0  0  0  0  0  0  0  0  0
   24.2531  -32.9786   -4.7068 C   0  0  0  0  0  0  0  0  0  0  0  0
   25.6168  -32.8276   -5.3779 C   0  0  2  0  0  0  0  0  0  0  0  0
   25.4837  -32.2515   -6.7496 C   0  0  0  0  0  0  0  0  0  0  0  0
   26.3380  -34.1714   -5.4043 C   0  0  2  0  0  0  0  0  0  0  0  0
   25.5272  -35.0708   -6.1820 N   0  0  0  0  0  0  0  0  0  0  0  0
   26.4935  -34.7169   -4.0435 C   0  0  0  0  0  0  0  0  0  0  0  0
   27.3890  -34.1575   -3.1429 O   0  0  0  0  0  0  0  0  0  0  0  0
   25.8201  -35.7024   -3.6624 O   0  0  0  0  0  0  0  0  0  0  0  0
  2  1  1  1
  2  9  1  0
  2  3  1  0
  3  4  1  0
  4  5  2  0
  6  5  1  0
  7  6  1  0
  8  7  2  0
  8  4  1  0
  9 13  1  0
 10  9  2  0
 12 11  1  6
 12 14  1  0
 13 12  1  0
 14 15  2  0
 14 20  1  0
 17 16  1  6
 18 17  1  0
 19 21  1  0
 19 17  1  0
 19 20  1  6
 21 22  1  0
 23 21  2  0
M  END
$$$$
