HAV.pdb
     RDKit          3D

 23 23  0  0  1  0  0  0  0  0999 V2000
   18.8503  -11.9242  -17.5111 N   0  0  0  0  0  0  0  0  0  0  0  0
   20.0834  -11.2131  -17.6785 C   0  0  1  0  0  0  0  0  0  0  0  0
   20.0062  -10.3935  -18.9227 C   0  0  0  0  0  0  0  0  0  0  0  0
   19.8969  -11.3029  -20.0945 C   0  0  0  0  0  0  0  0  0  0  0  0
   20.8086  -12.2422  -20.5553 C   0  0  0  0  0  0  0  0  0  0  0  0
   20.3445  -12.8650  -21.6426 N   0  0  0  0  0  0  0  0  0  0  0  0
   19.1270  -12.3354  -21.8974 C   0  0  0  0  0  0  0  0  0  0  0  0
   18.8530  -11.3957  -20.9695 N   0  0  0  0  0  0  0  0  0  0  0  0
   20.4069  -10.3608  -16.4997 C   0  0  0  0  0  0  0  0  0  0  0  0
   19.5608   -9.5983  -15.9695 O   0  0  0  0  0  0  0  0  0  0  0  0
   23.3929  -10.1036  -14.1767 C   0  0  0  0  0  0  0  0  0  0  0  0
   22.1241   -9.6093  -14.8165 C   0  0  2  0  0  0  0  0  0  0  0  0
   21.6949  -10.3842  -15.9327 N   0  0  0  0  0  0  0  0  0  0  0  0
   22.1823   -8.1751  -15.1597 C   0  0  0  0  0  0  0  0  0  0  0  0
   22.6421   -7.8429  -16.2759 O   0  0  0  0  0  0  0  0  0  0  0  0
   19.6056   -5.3764  -13.8257 C   0  0  0  0  0  0  0  0  0  0  0  0
   20.5841   -5.1949  -14.9844 C   0  0  2  0  0  0  0  0  0  0  0  0
   20.0540   -5.8049  -16.2405 C   0  0  0  0  0  0  0  0  0  0  0  0
   21.9458   -5.7738  -14.6141 C   0  0  2  0  0  0  0  0  0  0  0  0
   21.7394   -7.1580  -14.2785 N   0  0  0  0  0  0  0  0  0  0  0  0
   22.5201   -5.0759  -13.4492 C   0  0  0  0  0  0  0  0  0  0  0  0
   22.5835   -5.6869  -12.2048 O   0  0  0  0  0  0  0  0  0  0  0  0
   22.9672   -3.9100  -13.5513 O   0  0  0  0  0  0  0  0  0  0  0  0
  2  1  1  1
  2  9  1  0
  2  3  1  0
  3  4  1  0
  4  5  2  0
  6  5  1  0
  7  6  1  0
  8  7  2  0
  8  4  1  0
  9 13  1  0
 10  9  2  0
 12 11  1  6
 12 14  1  0
 13 12  1  0
 14 15  2  0
 14 20  1  0
 17 16  1  1
 18 17  1  0
 19 21  1  0
 19 17  1  0
 19 20  1  1
 21 22  1  0
 23 21  2  0
M  END
$$$$
