HAV.pdb
     RDKit          3D

 23 23  0  0  1  0  0  0  0  0999 V2000
   20.9543  -13.3645  -19.6463 N   0  0  0  0  0  0  0  0  0  0  0  0
   21.9852  -12.4099  -19.3627 C   0  0  1  0  0  0  0  0  0  0  0  0
   22.1645  -11.5222  -20.5482 C   0  0  0  0  0  0  0  0  0  0  0  0
   22.8787  -12.2760  -21.6129 C   0  0  0  0  0  0  0  0  0  0  0  0
   22.3850  -12.7633  -22.8149 C   0  0  0  0  0  0  0  0  0  0  0  0
   23.3420  -13.3903  -23.5053 N   0  0  0  0  0  0  0  0  0  0  0  0
   24.4657  -13.3157  -22.7574 C   0  0  0  0  0  0  0  0  0  0  0  0
   24.1927  -12.6467  -21.6186 N   0  0  0  0  0  0  0  0  0  0  0  0
   21.6922  -11.6108  -18.1395 C   0  0  0  0  0  0  0  0  0  0  0  0
   20.5655  -11.0974  -17.9264 O   0  0  0  0  0  0  0  0  0  0  0  0
   23.6203  -10.9474  -14.9375 C   0  0  0  0  0  0  0  0  0  0  0  0
   22.5042  -10.7311  -15.9229 C   0  0  2  0  0  0  0  0  0  0  0  0
   22.6874  -11.4025  -17.1664 N   0  0  0  0  0  0  0  0  0  0  0  0
   22.2011   -9.3022  -16.1333 C   0  0  0  0  0  0  0  0  0  0  0  0
   22.8428   -8.6744  -17.0063 O   0  0  0  0  0  0  0  0  0  0  0  0
   19.0661   -5.7897  -16.5845 C   0  0  0  0  0  0  0  0  0  0  0  0
   19.4931   -7.2256  -16.2865 C   0  0  2  0  0  0  0  0  0  0  0  0
   18.5182   -7.9027  -15.3799 C   0  0  0  0  0  0  0  0  0  0  0  0
   20.9022   -7.2413  -15.7027 C   0  0  2  0  0  0  0  0  0  0  0  0
   21.2141   -8.6107  -15.3885 N   0  0  0  0  0  0  0  0  0  0  0  0
   20.9749   -6.4354  -14.4702 C   0  0  0  0  0  0  0  0  0  0  0  0
   21.1778   -5.0635  -14.5194 O   0  0  0  0  0  0  0  0  0  0  0  0
   20.8552   -6.9684  -13.3426 O   0  0  0  0  0  0  0  0  0  0  0  0
  2  1  1  6
  2  9  1  0
  2  3  1  0
  3  4  1  0
  4  5  2  0
  6  5  1  0
  7  6  1  0
  8  7  2  0
  8  4  1  0
  9 13  1  0
 10  9  2  0
 12 11  1  1
 12 14  1  0
 13 12  1  0
 14 15  2  0
 14 20  1  0
 17 16  1  1
 18 17  1  0
 19 21  1  0
 19 17  1  0
 19 20  1  1
 21 22  1  0
 23 21  2  0
M  END
$$$$
