HAV.pdb
     RDKit          3D

 23 23  0  0  1  0  0  0  0  0999 V2000
   24.7410  -17.4582  -18.1467 N   0  0  0  0  0  0  0  0  0  0  0  0
   25.8506  -18.0151  -17.4306 C   0  0  1  0  0  0  0  0  0  0  0  0
   26.5603  -16.9205  -16.7070 C   0  0  0  0  0  0  0  0  0  0  0  0
   27.2450  -16.0497  -17.6994 C   0  0  0  0  0  0  0  0  0  0  0  0
   27.2156  -16.1192  -19.0851 C   0  0  0  0  0  0  0  0  0  0  0  0
   27.9644  -15.1547  -19.6278 N   0  0  0  0  0  0  0  0  0  0  0  0
   28.4868  -14.4503  -18.5989 C   0  0  0  0  0  0  0  0  0  0  0  0
   28.0574  -14.9842  -17.4372 N   0  0  0  0  0  0  0  0  0  0  0  0
   25.4306  -19.0905  -16.4883 C   0  0  0  0  0  0  0  0  0  0  0  0
   24.4879  -18.9378  -15.6720 O   0  0  0  0  0  0  0  0  0  0  0  0
   26.5226  -22.6987  -15.9669 C   0  0  0  0  0  0  0  0  0  0  0  0
   25.7781  -21.4345  -15.6333 C   0  0  2  0  0  0  0  0  0  0  0  0
   26.0895  -20.3342  -16.4834 N   0  0  0  0  0  0  0  0  0  0  0  0
   25.9070  -21.0576  -14.2122 C   0  0  0  0  0  0  0  0  0  0  0  0
   26.7835  -20.2239  -13.8892 O   0  0  0  0  0  0  0  0  0  0  0  0
   23.2547  -19.7299  -12.0329 C   0  0  0  0  0  0  0  0  0  0  0  0
   23.8851  -20.8872  -11.2610 C   0  0  2  0  0  0  0  0  0  0  0  0
   23.9486  -20.5909   -9.7984 C   0  0  0  0  0  0  0  0  0  0  0  0
   25.2660  -21.2024  -11.8272 C   0  0  2  0  0  0  0  0  0  0  0  0
   25.0799  -21.5999  -13.1978 N   0  0  0  0  0  0  0  0  0  0  0  0
   25.9034  -22.3069  -11.0873 C   0  0  0  0  0  0  0  0  0  0  0  0
   26.7325  -22.0607  -10.0021 O   0  0  0  0  0  0  0  0  0  0  0  0
   25.7135  -23.5001  -11.4189 O   0  0  0  0  0  0  0  0  0  0  0  0
  2  1  1  1
  2  9  1  0
  2  3  1  0
  3  4  1  0
  4  5  2  0
  6  5  1  0
  7  6  1  0
  8  7  2  0
  8  4  1  0
  9 13  1  0
 10  9  2  0
 12 11  1  6
 12 14  1  0
 13 12  1  0
 14 15  2  0
 14 20  1  0
 17 16  1  6
 18 17  1  0
 19 21  1  0
 19 17  1  0
 19 20  1  6
 21 22  1  0
 23 21  2  0
M  END
$$$$
