HAV.pdb
     RDKit          3D

 23 23  0  0  1  0  0  0  0  0999 V2000
   35.1192  -11.2073  -17.8683 N   0  0  0  0  0  0  0  0  0  0  0  0
   34.0645  -11.1613  -18.8377 C   0  0  1  0  0  0  0  0  0  0  0  0
   34.1321  -12.3857  -19.6873 C   0  0  0  0  0  0  0  0  0  0  0  0
   35.3024  -12.2776  -20.5988 C   0  0  0  0  0  0  0  0  0  0  0  0
   35.9951  -11.1423  -20.9950 C   0  0  0  0  0  0  0  0  0  0  0  0
   36.9926  -11.4571  -21.8264 N   0  0  0  0  0  0  0  0  0  0  0  0
   36.9563  -12.8001  -21.9774 C   0  0  0  0  0  0  0  0  0  0  0  0
   35.9419  -13.2984  -21.2414 N   0  0  0  0  0  0  0  0  0  0  0  0
   32.7224  -11.0270  -18.2043 C   0  0  0  0  0  0  0  0  0  0  0  0
   32.2813  -11.8667  -17.3804 O   0  0  0  0  0  0  0  0  0  0  0  0
   30.0486   -8.3239  -18.2783 C   0  0  0  0  0  0  0  0  0  0  0  0
   30.6073   -9.6820  -17.9512 C   0  0  2  0  0  0  0  0  0  0  0  0
   31.8913   -9.9344  -18.5151 N   0  0  0  0  0  0  0  0  0  0  0  0
   29.6668  -10.7744  -18.2680 C   0  0  0  0  0  0  0  0  0  0  0  0
   29.7514  -11.3348  -19.3845 O   0  0  0  0  0  0  0  0  0  0  0  0
   26.8067  -14.4182  -16.8396 C   0  0  0  0  0  0  0  0  0  0  0  0
   27.7365  -13.2464  -16.5313 C   0  0  2  0  0  0  0  0  0  0  0  0
   27.3159  -12.5350  -15.2870 C   0  0  0  0  0  0  0  0  0  0  0  0
   27.7948  -12.2975  -17.7242 C   0  0  2  0  0  0  0  0  0  0  0  0
   28.6719  -11.2158  -17.3611 N   0  0  0  0  0  0  0  0  0  0  0  0
   26.4604  -11.7527  -18.0345 C   0  0  0  0  0  0  0  0  0  0  0  0
   25.6029  -12.4059  -18.9084 O   0  0  0  0  0  0  0  0  0  0  0  0
   26.0637  -10.6830  -17.5167 O   0  0  0  0  0  0  0  0  0  0  0  0
  2  1  1  1
  2  9  1  0
  2  3  1  0
  3  4  1  0
  4  5  2  0
  6  5  1  0
  7  6  1  0
  8  7  2  0
  8  4  1  0
  9 13  1  0
 10  9  2  0
 12 11  1  6
 12 14  1  0
 13 12  1  0
 14 15  2  0
 14 20  1  0
 17 16  1  6
 18 17  1  0
 19 21  1  0
 19 17  1  0
 19 20  1  1
 21 22  1  0
 23 21  2  0
M  END
$$$$
