HAV.pdb
     RDKit          3D

 23 23  0  0  1  0  0  0  0  0999 V2000
   15.3914  -12.1280  -14.0548 N   0  0  0  0  0  0  0  0  0  0  0  0
   15.4123  -10.7097  -14.2604 C   0  0  1  0  0  0  0  0  0  0  0  0
   14.0990  -10.2812  -14.8236 C   0  0  0  0  0  0  0  0  0  0  0  0
   13.9662  -10.8194  -16.2038 C   0  0  0  0  0  0  0  0  0  0  0  0
   14.6359  -10.4338  -17.3565 C   0  0  0  0  0  0  0  0  0  0  0  0
   14.2385  -11.1600  -18.4054 N   0  0  0  0  0  0  0  0  0  0  0  0
   13.3070  -12.0237  -17.9428 C   0  0  0  0  0  0  0  0  0  0  0  0
   13.1395  -11.8231  -16.6196 N   0  0  0  0  0  0  0  0  0  0  0  0
   15.7230   -9.9633  -13.0085 C   0  0  0  0  0  0  0  0  0  0  0  0
   15.0828  -10.1434  -11.9426 O   0  0  0  0  0  0  0  0  0  0  0  0
   18.5772   -7.6961  -11.9744 C   0  0  0  0  0  0  0  0  0  0  0  0
   17.2113   -8.3092  -11.8273 C   0  0  2  0  0  0  0  0  0  0  0  0
   16.7629   -9.0154  -12.9809 N   0  0  0  0  0  0  0  0  0  0  0  0
   16.1975   -7.3362  -11.3761 C   0  0  0  0  0  0  0  0  0  0  0  0
   15.5224   -6.7289  -12.2382 O   0  0  0  0  0  0  0  0  0  0  0  0
   15.4063   -6.6427   -7.2402 C   0  0  0  0  0  0  0  0  0  0  0  0
   14.3617   -6.4590   -8.3393 C   0  0  2  0  0  0  0  0  0  0  0  0
   13.5605   -7.7039   -8.5376 C   0  0  0  0  0  0  0  0  0  0  0  0
   15.0372   -6.0177   -9.6338 C   0  0  2  0  0  0  0  0  0  0  0  0
   15.9561   -7.0604  -10.0075 N   0  0  0  0  0  0  0  0  0  0  0  0
   15.7855   -4.7622   -9.4406 C   0  0  0  0  0  0  0  0  0  0  0  0
   15.1289   -3.5457   -9.3185 O   0  0  0  0  0  0  0  0  0  0  0  0
   17.0370   -4.7594   -9.3812 O   0  0  0  0  0  0  0  0  0  0  0  0
  2  1  1  1
  2  9  1  0
  2  3  1  0
  3  4  1  0
  4  5  2  0
  6  5  1  0
  7  6  1  0
  8  7  2  0
  8  4  1  0
  9 13  1  0
 10  9  2  0
 12 11  1  6
 12 14  1  0
 13 12  1  0
 14 15  2  0
 14 20  1  0
 17 16  1  1
 18 17  1  0
 19 21  1  0
 19 17  1  0
 19 20  1  1
 21 22  1  0
 23 21  2  0
M  END
$$$$
