FDK.pdb
     RDKit          3D

 29 29  0  0  1  0  0  0  0  0999 V2000
   28.3222  -21.0329   -8.9005 N   0  0  0  0  0  0  0  0  0  0  0  0
   27.0230  -20.4362   -8.7872 C   0  0  1  0  0  0  0  0  0  0  0  0
   27.0837  -19.1922   -7.9663 C   0  0  0  0  0  0  0  0  0  0  0  0
   27.7053  -19.5255   -6.6618 C   0  0  0  0  0  0  0  0  0  0  0  0
   27.0395  -20.3583   -5.7848 C   0  0  0  0  0  0  0  0  0  0  0  0
   27.5818  -20.6999   -4.5515 C   0  0  0  0  0  0  0  0  0  0  0  0
   28.8053  -20.1983   -4.1987 C   0  0  0  0  0  0  0  0  0  0  0  0
   29.4918  -19.3662   -5.0522 C   0  0  0  0  0  0  0  0  0  0  0  0
   28.9355  -19.0383   -6.2742 C   0  0  0  0  0  0  0  0  0  0  0  0
   26.3822  -20.1921  -10.1301 C   0  0  0  0  0  0  0  0  0  0  0  0
   26.6018  -19.1625  -10.7847 O   0  0  0  0  0  0  0  0  0  0  0  0
   25.5035  -21.1697  -10.6566 N   0  0  0  0  0  0  0  0  0  0  0  0
   24.8486  -21.0378  -11.9345 C   0  0  1  0  0  0  0  0  0  0  0  0
   25.2924  -22.1918  -12.8299 C   0  0  0  0  0  0  0  0  0  0  0  0
   26.5233  -21.8074  -13.5315 C   0  0  0  0  0  0  0  0  0  0  0  0
   27.5906  -22.3860  -13.1920 O   0  0  0  0  0  0  0  0  0  0  0  0
   23.3790  -21.1192  -11.8264 C   0  0  0  0  0  0  0  0  0  0  0  0
   22.8713  -21.7819  -10.8981 O   0  0  0  0  0  0  0  0  0  0  0  0
   26.4868  -20.8405  -14.5272 O   0  0  0  0  0  0  0  0  0  0  0  0
   22.5487  -20.4641  -12.7501 N   0  0  0  0  0  0  0  0  0  0  0  0
   21.0738  -20.5356  -12.7145 C   0  0  1  0  0  0  0  0  0  0  0  0
   20.5560  -19.8518  -13.9202 C   0  0  0  0  0  0  0  0  0  0  0  0
   19.0865  -19.7320  -14.0707 C   0  0  0  0  0  0  0  0  0  0  0  0
   18.5872  -19.0296  -15.2865 C   0  0  0  0  0  0  0  0  0  0  0  0
   17.0596  -18.9004  -15.2708 C   0  0  0  0  0  0  0  0  0  0  0  0
   16.6685  -18.0223  -16.3350 N   0  0  0  0  0  0  0  0  0  0  0  0
   20.6396  -21.9018  -12.4512 C   0  0  0  0  0  0  0  0  0  0  0  0
   19.7018  -22.1414  -11.6084 O   0  0  0  0  0  0  0  0  0  0  0  0
   21.1618  -23.0327  -13.0526 O   0  0  0  0  0  0  0  0  0  0  0  0
  2  1  1  6
  2  3  1  0
  2 10  1  0
  3  4  1  0
  4  5  2  0
  5  6  1  0
  7  6  2  0
  8  7  1  0
  9  8  2  0
  9  4  1  0
 10 11  2  0
 12 10  1  0
 12 13  1  0
 13 14  1  6
 14 15  1  0
 15 16  2  0
 17 13  1  0
 17 18  2  0
 19 15  1  0
 20 17  1  0
 21 27  1  0
 21 20  1  0
 21 22  1  6
 23 22  1  0
 24 23  1  0
 25 26  1  0
 25 24  1  0
 27 29  1  0
 28 27  2  0
M  END
$$$$
