FDK.pdb
     RDKit          3D

 29 29  0  0  1  0  0  0  0  0999 V2000
   19.7494   -8.2969  -15.6548 N   0  0  0  0  0  0  0  0  0  0  0  0
   19.5211   -8.2729  -14.2392 C   0  0  1  0  0  0  0  0  0  0  0  0
   20.6900   -7.6804  -13.5264 C   0  0  0  0  0  0  0  0  0  0  0  0
   21.8506   -8.5864  -13.7030 C   0  0  0  0  0  0  0  0  0  0  0  0
   22.8589   -8.2365  -14.5786 C   0  0  0  0  0  0  0  0  0  0  0  0
   23.9665   -9.0524  -14.7770 C   0  0  0  0  0  0  0  0  0  0  0  0
   24.0591  -10.2308  -14.0873 C   0  0  0  0  0  0  0  0  0  0  0  0
   23.0698  -10.6055  -13.2081 C   0  0  0  0  0  0  0  0  0  0  0  0
   21.9762   -9.7803  -13.0249 C   0  0  0  0  0  0  0  0  0  0  0  0
   18.2318   -7.5808  -13.8754 C   0  0  0  0  0  0  0  0  0  0  0  0
   17.8444   -6.5621  -14.4661 O   0  0  0  0  0  0  0  0  0  0  0  0
   17.4422   -8.1124  -12.8270 N   0  0  0  0  0  0  0  0  0  0  0  0
   16.1872   -7.5359  -12.4123 C   0  0  1  0  0  0  0  0  0  0  0  0
   15.1904   -8.6659  -12.1672 C   0  0  0  0  0  0  0  0  0  0  0  0
   14.7540   -9.2083  -13.4598 C   0  0  0  0  0  0  0  0  0  0  0  0
   15.0748  -10.3972  -13.7292 O   0  0  0  0  0  0  0  0  0  0  0  0
   16.3023   -6.7835  -11.1480 C   0  0  0  0  0  0  0  0  0  0  0  0
   16.9614   -7.2704  -10.2061 O   0  0  0  0  0  0  0  0  0  0  0  0
   14.0174   -8.4210  -14.3346 O   0  0  0  0  0  0  0  0  0  0  0  0
   15.6828   -5.5331  -10.9918 N   0  0  0  0  0  0  0  0  0  0  0  0
   15.6650   -4.7855   -9.7181 C   0  0  1  0  0  0  0  0  0  0  0  0
   15.5426   -3.3458  -10.0373 C   0  0  0  0  0  0  0  0  0  0  0  0
   15.4593   -2.3908   -8.9072 C   0  0  0  0  0  0  0  0  0  0  0  0
   15.3569   -0.9444   -9.2514 C   0  0  0  0  0  0  0  0  0  0  0  0
   15.2494   -0.0756   -7.9928 C   0  0  0  0  0  0  0  0  0  0  0  0
   15.2113    1.3005   -8.3945 N   0  0  0  0  0  0  0  0  0  0  0  0
   14.7017   -5.3765   -8.7978 C   0  0  0  0  0  0  0  0  0  0  0  0
   13.6926   -6.0361   -9.2382 O   0  0  0  0  0  0  0  0  0  0  0  0
   14.7676   -5.2985   -7.4183 O   0  0  0  0  0  0  0  0  0  0  0  0
  2  1  1  6
  2  3  1  0
  2 10  1  0
  3  4  1  0
  4  5  2  0
  5  6  1  0
  7  6  2  0
  8  7  1  0
  9  8  2  0
  9  4  1  0
 10 11  2  0
 12 10  1  0
 12 13  1  0
 13 14  1  1
 14 15  1  0
 15 16  2  0
 17 13  1  0
 17 18  2  0
 19 15  1  0
 20 17  1  0
 21 27  1  0
 21 20  1  0
 21 22  1  6
 23 22  1  0
 24 23  1  0
 25 26  1  0
 25 24  1  0
 27 29  1  0
 28 27  2  0
M  END
$$$$
