FDK.pdb
     RDKit          3D

 29 29  0  0  1  0  0  0  0  0999 V2000
   22.4280   -7.6989  -15.3748 N   0  0  0  0  0  0  0  0  0  0  0  0
   21.3875   -8.0435  -14.4500 C   0  0  1  0  0  0  0  0  0  0  0  0
   21.9044   -8.9587  -13.3915 C   0  0  0  0  0  0  0  0  0  0  0  0
   22.3735  -10.2055  -14.0430 C   0  0  0  0  0  0  0  0  0  0  0  0
   21.4519  -11.0701  -14.5990 C   0  0  0  0  0  0  0  0  0  0  0  0
   21.8432  -12.2499  -15.2208 C   0  0  0  0  0  0  0  0  0  0  0  0
   23.1744  -12.5614  -15.2831 C   0  0  0  0  0  0  0  0  0  0  0  0
   24.1154  -11.7190  -14.7379 C   0  0  0  0  0  0  0  0  0  0  0  0
   23.7060  -10.5505  -14.1238 C   0  0  0  0  0  0  0  0  0  0  0  0
   20.7138   -6.8292  -13.8624 C   0  0  0  0  0  0  0  0  0  0  0  0
   21.3522   -5.9457  -13.2721 O   0  0  0  0  0  0  0  0  0  0  0  0
   19.3097   -6.6971  -13.9899 N   0  0  0  0  0  0  0  0  0  0  0  0
   18.5764   -5.5528  -13.5078 C   0  0  1  0  0  0  0  0  0  0  0  0
   18.1268   -4.7225  -14.7074 C   0  0  0  0  0  0  0  0  0  0  0  0
   17.4417   -5.5982  -15.6660 C   0  0  0  0  0  0  0  0  0  0  0  0
   18.1529   -6.1967  -16.5176 O   0  0  0  0  0  0  0  0  0  0  0  0
   17.3572   -5.9345  -12.7689 C   0  0  0  0  0  0  0  0  0  0  0  0
   16.8497   -7.0576  -12.9679 O   0  0  0  0  0  0  0  0  0  0  0  0
   16.0620   -5.7445  -15.6158 O   0  0  0  0  0  0  0  0  0  0  0  0
   16.7638   -5.0545  -11.8496 N   0  0  0  0  0  0  0  0  0  0  0  0
   15.4693   -5.3172  -11.1885 C   0  0  1  0  0  0  0  0  0  0  0  0
   15.6154   -6.5436  -10.3736 C   0  0  0  0  0  0  0  0  0  0  0  0
   14.4670   -6.9570   -9.5330 C   0  0  0  0  0  0  0  0  0  0  0  0
   14.6412   -8.1867   -8.7092 C   0  0  0  0  0  0  0  0  0  0  0  0
   13.3422   -8.5666   -7.9888 C   0  0  0  0  0  0  0  0  0  0  0  0
   13.5463   -9.8168   -7.3166 N   0  0  0  0  0  0  0  0  0  0  0  0
   14.9773   -4.1079  -10.5405 C   0  0  0  0  0  0  0  0  0  0  0  0
   13.7587   -4.0238  -10.1466 O   0  0  0  0  0  0  0  0  0  0  0  0
   15.7323   -2.9767  -10.2885 O   0  0  0  0  0  0  0  0  0  0  0  0
  2  1  1  6
  2  3  1  0
  2 10  1  0
  3  4  1  0
  4  5  2  0
  5  6  1  0
  7  6  2  0
  8  7  1  0
  9  8  2  0
  9  4  1  0
 10 11  2  0
 12 10  1  0
 12 13  1  0
 13 14  1  6
 14 15  1  0
 15 16  2  0
 17 13  1  0
 17 18  2  0
 19 15  1  0
 20 17  1  0
 21 27  1  0
 21 20  1  0
 21 22  1  1
 23 22  1  0
 24 23  1  0
 25 26  1  0
 25 24  1  0
 27 29  1  0
 28 27  2  0
M  END
$$$$
