FDK.pdb
     RDKit          3D

 29 29  0  0  1  0  0  0  0  0999 V2000
   23.7322  -10.7177  -15.0598 N   0  0  0  0  0  0  0  0  0  0  0  0
   22.7812   -9.9214  -15.7798 C   0  0  1  0  0  0  0  0  0  0  0  0
   21.7035  -10.7780  -16.3543 C   0  0  0  0  0  0  0  0  0  0  0  0
   22.3006  -11.6315  -17.4098 C   0  0  0  0  0  0  0  0  0  0  0  0
   22.6809  -11.0631  -18.6091 C   0  0  0  0  0  0  0  0  0  0  0  0
   23.2454  -11.8217  -19.6277 C   0  0  0  0  0  0  0  0  0  0  0  0
   23.4282  -13.1645  -19.4365 C   0  0  0  0  0  0  0  0  0  0  0  0
   23.0588  -13.7584  -18.2521 C   0  0  0  0  0  0  0  0  0  0  0  0
   22.4991  -12.9867  -17.2513 C   0  0  0  0  0  0  0  0  0  0  0  0
   22.2206   -8.7983  -14.9444 C   0  0  0  0  0  0  0  0  0  0  0  0
   21.7483   -8.9931  -13.8149 O   0  0  0  0  0  0  0  0  0  0  0  0
   22.2349   -7.4830  -15.4685 N   0  0  0  0  0  0  0  0  0  0  0  0
   21.6668   -6.3511  -14.7789 C   0  0  1  0  0  0  0  0  0  0  0  0
   22.7432   -5.2780  -14.6363 C   0  0  0  0  0  0  0  0  0  0  0  0
   22.1982   -4.1523  -13.8675 C   0  0  0  0  0  0  0  0  0  0  0  0
   22.0927   -4.2977  -12.6199 O   0  0  0  0  0  0  0  0  0  0  0  0
   20.5481   -5.7404  -15.5231 C   0  0  0  0  0  0  0  0  0  0  0  0
   20.6486   -5.5867  -16.7580 O   0  0  0  0  0  0  0  0  0  0  0  0
   21.8205   -2.9830  -14.5139 O   0  0  0  0  0  0  0  0  0  0  0  0
   19.3780   -5.3321  -14.8628 N   0  0  0  0  0  0  0  0  0  0  0  0
   18.2211   -4.7271  -15.5535 C   0  0  1  0  0  0  0  0  0  0  0  0
   17.2488   -5.8047  -15.8418 C   0  0  0  0  0  0  0  0  0  0  0  0
   15.9702   -5.4283  -16.4895 C   0  0  0  0  0  0  0  0  0  0  0  0
   15.0066   -6.5295  -16.7722 C   0  0  0  0  0  0  0  0  0  0  0  0
   13.7697   -6.0136  -17.5169 C   0  0  0  0  0  0  0  0  0  0  0  0
   12.8514   -7.1033  -17.6784 N   0  0  0  0  0  0  0  0  0  0  0  0
   17.7580   -3.5502  -14.8291 C   0  0  0  0  0  0  0  0  0  0  0  0
   17.9619   -3.4339  -13.5673 O   0  0  0  0  0  0  0  0  0  0  0  0
   17.0850   -2.4818  -15.3938 O   0  0  0  0  0  0  0  0  0  0  0  0
  2  1  1  1
  2  3  1  0
  2 10  1  0
  3  4  1  0
  4  5  2  0
  5  6  1  0
  7  6  2  0
  8  7  1  0
  9  8  2  0
  9  4  1  0
 10 11  2  0
 12 10  1  0
 12 13  1  0
 13 14  1  6
 14 15  1  0
 15 16  2  0
 17 13  1  0
 17 18  2  0
 19 15  1  0
 20 17  1  0
 21 27  1  0
 21 20  1  0
 21 22  1  1
 23 22  1  0
 24 23  1  0
 25 26  1  0
 25 24  1  0
 27 29  1  0
 28 27  2  0
M  END
$$$$
