FDK.pdb
     RDKit          3D

 29 29  0  0  1  0  0  0  0  0999 V2000
   23.5207  -13.7628  -14.8459 N   0  0  0  0  0  0  0  0  0  0  0  0
   23.8604  -12.4337  -15.2642 C   0  0  1  0  0  0  0  0  0  0  0  0
   24.6175  -12.4625  -16.5492 C   0  0  0  0  0  0  0  0  0  0  0  0
   25.9017  -13.1668  -16.3168 C   0  0  0  0  0  0  0  0  0  0  0  0
   26.0935  -14.4248  -16.8523 C   0  0  0  0  0  0  0  0  0  0  0  0
   27.2798  -15.1236  -16.6625 C   0  0  0  0  0  0  0  0  0  0  0  0
   28.2814  -14.5504  -15.9269 C   0  0  0  0  0  0  0  0  0  0  0  0
   28.1187  -13.2982  -15.3812 C   0  0  0  0  0  0  0  0  0  0  0  0
   26.9315  -12.6195  -15.5813 C   0  0  0  0  0  0  0  0  0  0  0  0
   22.6566  -11.5290  -15.3418 C   0  0  0  0  0  0  0  0  0  0  0  0
   21.5105  -11.9738  -15.5009 O   0  0  0  0  0  0  0  0  0  0  0  0
   22.8441  -10.1299  -15.2298 N   0  0  0  0  0  0  0  0  0  0  0  0
   21.7609   -9.1799  -15.2898 C   0  0  1  0  0  0  0  0  0  0  0  0
   21.9035   -8.2054  -14.1234 C   0  0  0  0  0  0  0  0  0  0  0  0
   20.7104   -7.3520  -14.0639 C   0  0  0  0  0  0  0  0  0  0  0  0
   20.8345   -6.1531  -14.4331 O   0  0  0  0  0  0  0  0  0  0  0  0
   21.7842   -8.3752  -16.5267 C   0  0  0  0  0  0  0  0  0  0  0  0
   22.8663   -7.8928  -16.9205 O   0  0  0  0  0  0  0  0  0  0  0  0
   19.5033   -7.8697  -13.6140 O   0  0  0  0  0  0  0  0  0  0  0  0
   20.6103   -8.1462  -17.2624 N   0  0  0  0  0  0  0  0  0  0  0  0
   20.5729   -7.3658  -18.5159 C   0  0  1  0  0  0  0  0  0  0  0  0
   19.3725   -7.7813  -19.2748 C   0  0  0  0  0  0  0  0  0  0  0  0
   19.1656   -7.1932  -20.6193 C   0  0  0  0  0  0  0  0  0  0  0  0
   18.0228   -7.7194  -21.4180 C   0  0  0  0  0  0  0  0  0  0  0  0
   17.9289   -7.0285  -22.7834 C   0  0  0  0  0  0  0  0  0  0  0  0
   16.9282   -7.6986  -23.5620 N   0  0  0  0  0  0  0  0  0  0  0  0
   20.7601   -5.9479  -18.2350 C   0  0  0  0  0  0  0  0  0  0  0  0
   20.3239   -5.4319  -17.1438 O   0  0  0  0  0  0  0  0  0  0  0  0
   21.3989   -5.0488  -19.0698 O   0  0  0  0  0  0  0  0  0  0  0  0
  2  1  1  6
  2  3  1  0
  2 10  1  0
  3  4  1  0
  4  5  2  0
  5  6  1  0
  7  6  2  0
  8  7  1  0
  9  8  2  0
  9  4  1  0
 10 11  2  0
 12 10  1  0
 12 13  1  0
 13 14  1  1
 14 15  1  0
 15 16  2  0
 17 13  1  0
 17 18  2  0
 19 15  1  0
 20 17  1  0
 21 27  1  0
 21 20  1  0
 21 22  1  1
 23 22  1  0
 24 23  1  0
 25 26  1  0
 25 24  1  0
 27 29  1  0
 28 27  2  0
M  END
$$$$
