FDK.pdb
     RDKit          3D

 29 29  0  0  1  0  0  0  0  0999 V2000
   18.5069   -9.3198  -13.9689 N   0  0  0  0  0  0  0  0  0  0  0  0
   18.5875   -8.7405  -12.6594 C   0  0  1  0  0  0  0  0  0  0  0  0
   19.6667   -7.7122  -12.6032 C   0  0  0  0  0  0  0  0  0  0  0  0
   20.9541   -8.3704  -12.9324 C   0  0  0  0  0  0  0  0  0  0  0  0
   21.5840   -8.0732  -14.1244 C   0  0  0  0  0  0  0  0  0  0  0  0
   22.7919   -8.6638  -14.4764 C   0  0  0  0  0  0  0  0  0  0  0  0
   23.3702   -9.5613  -13.6203 C   0  0  0  0  0  0  0  0  0  0  0  0
   22.7657   -9.8768  -12.4257 C   0  0  0  0  0  0  0  0  0  0  0  0
   21.5646   -9.2788  -12.0939 C   0  0  0  0  0  0  0  0  0  0  0  0
   17.2638   -8.1918  -12.1899 C   0  0  0  0  0  0  0  0  0  0  0  0
   16.4158   -7.7561  -12.9822 O   0  0  0  0  0  0  0  0  0  0  0  0
   16.9841   -8.1745  -10.8019 N   0  0  0  0  0  0  0  0  0  0  0  0
   15.7296   -7.7214  -10.2540 C   0  0  1  0  0  0  0  0  0  0  0  0
   15.2939   -8.6976   -9.1642 C   0  0  0  0  0  0  0  0  0  0  0  0
   14.7412   -9.9030   -9.7943 C   0  0  0  0  0  0  0  0  0  0  0  0
   13.7750   -9.7519  -10.5897 O   0  0  0  0  0  0  0  0  0  0  0  0
   15.8375   -6.3924   -9.6213 C   0  0  0  0  0  0  0  0  0  0  0  0
   16.7121   -6.1999   -8.7515 O   0  0  0  0  0  0  0  0  0  0  0  0
   15.2799  -11.1502   -9.5082 O   0  0  0  0  0  0  0  0  0  0  0  0
   14.9729   -5.3469   -9.9836 N   0  0  0  0  0  0  0  0  0  0  0  0
   15.0409   -3.9927   -9.3978 C   0  0  1  0  0  0  0  0  0  0  0  0
   14.6503   -3.0236  -10.4456 C   0  0  0  0  0  0  0  0  0  0  0  0
   15.5496   -2.8664  -11.6130 C   0  0  0  0  0  0  0  0  0  0  0  0
   15.0617   -2.0101  -12.7308 C   0  0  0  0  0  0  0  0  0  0  0  0
   16.0461   -2.0091  -13.9062 C   0  0  0  0  0  0  0  0  0  0  0  0
   15.4815   -1.2290  -14.9689 N   0  0  0  0  0  0  0  0  0  0  0  0
   14.3365   -3.9571   -8.1223 C   0  0  0  0  0  0  0  0  0  0  0  0
   13.4793   -4.8634   -7.8205 O   0  0  0  0  0  0  0  0  0  0  0  0
   14.5082   -2.9935   -7.1449 O   0  0  0  0  0  0  0  0  0  0  0  0
  2  1  1  6
  2  3  1  0
  2 10  1  0
  3  4  1  0
  4  5  2  0
  5  6  1  0
  7  6  2  0
  8  7  1  0
  9  8  2  0
  9  4  1  0
 10 11  2  0
 12 10  1  0
 12 13  1  0
 13 14  1  1
 14 15  1  0
 15 16  2  0
 17 13  1  0
 17 18  2  0
 19 15  1  0
 20 17  1  0
 21 27  1  0
 21 20  1  0
 21 22  1  6
 23 22  1  0
 24 23  1  0
 25 26  1  0
 25 24  1  0
 27 29  1  0
 28 27  2  0
M  END
$$$$
