FDK.pdb
     RDKit          3D

 29 29  0  0  1  0  0  0  0  0999 V2000
   28.9124  -21.2183   -9.0129 N   0  0  0  0  0  0  0  0  0  0  0  0
   27.5309  -20.8340   -8.9849 C   0  0  1  0  0  0  0  0  0  0  0  0
   27.3505  -19.5706   -8.2126 C   0  0  0  0  0  0  0  0  0  0  0  0
   27.8303  -19.7990   -6.8281 C   0  0  0  0  0  0  0  0  0  0  0  0
   29.0484  -19.2803   -6.4367 C   0  0  0  0  0  0  0  0  0  0  0  0
   29.5396  -19.4673   -5.1501 C   0  0  0  0  0  0  0  0  0  0  0  0
   28.7974  -20.1828   -4.2500 C   0  0  0  0  0  0  0  0  0  0  0  0
   27.5801  -20.7115   -4.6117 C   0  0  0  0  0  0  0  0  0  0  0  0
   27.1091  -20.5146   -5.8960 C   0  0  0  0  0  0  0  0  0  0  0  0
   26.9314  -20.7390  -10.3652 C   0  0  0  0  0  0  0  0  0  0  0  0
   27.4714  -20.0886  -11.2718 O   0  0  0  0  0  0  0  0  0  0  0  0
   25.7150  -21.4135  -10.6305 N   0  0  0  0  0  0  0  0  0  0  0  0
   25.0849  -21.4263  -11.9275 C   0  0  1  0  0  0  0  0  0  0  0  0
   24.8410  -22.8771  -12.3354 C   0  0  0  0  0  0  0  0  0  0  0  0
   24.6265  -22.9368  -13.7865 C   0  0  0  0  0  0  0  0  0  0  0  0
   24.4632  -24.0749  -14.3034 O   0  0  0  0  0  0  0  0  0  0  0  0
   23.7706  -20.7551  -11.9229 C   0  0  0  0  0  0  0  0  0  0  0  0
   23.0104  -20.9089  -10.9446 O   0  0  0  0  0  0  0  0  0  0  0  0
   24.6090  -21.7699  -14.5386 O   0  0  0  0  0  0  0  0  0  0  0  0
   23.3664  -19.9497  -12.9998 N   0  0  0  0  0  0  0  0  0  0  0  0
   22.0187  -19.3558  -13.1128 C   0  0  1  0  0  0  0  0  0  0  0  0
   22.0092  -18.4718  -14.2995 C   0  0  0  0  0  0  0  0  0  0  0  0
   20.7650  -17.7227  -14.5947 C   0  0  0  0  0  0  0  0  0  0  0  0
   20.7638  -16.8706  -15.8173 C   0  0  0  0  0  0  0  0  0  0  0  0
   19.4637  -16.0669  -15.9382 C   0  0  0  0  0  0  0  0  0  0  0  0
   19.5579  -15.2251  -17.0954 N   0  0  0  0  0  0  0  0  0  0  0  0
   20.9988  -20.3920  -13.0112 C   0  0  0  0  0  0  0  0  0  0  0  0
   19.9283  -20.1947  -12.3313 O   0  0  0  0  0  0  0  0  0  0  0  0
   21.0675  -21.6376  -13.6088 O   0  0  0  0  0  0  0  0  0  0  0  0
  2  1  1  6
  2  3  1  0
  2 10  1  0
  3  4  1  0
  4  5  2  0
  5  6  1  0
  7  6  2  0
  8  7  1  0
  9  8  2  0
  9  4  1  0
 10 11  2  0
 12 10  1  0
 12 13  1  0
 13 14  1  1
 14 15  1  0
 15 16  2  0
 17 13  1  0
 17 18  2  0
 19 15  1  0
 20 17  1  0
 21 27  1  0
 21 20  1  0
 21 22  1  6
 23 22  1  0
 24 23  1  0
 25 26  1  0
 25 24  1  0
 27 29  1  0
 28 27  2  0
M  END
$$$$
