MHY.pdb
     RDKit          3D

 31 32  0  0  1  0  0  0  0  0999 V2000
    8.0068  -11.6627   20.7154 C   0  0  0  0  0  0  0  0  0  0  0  0
    7.7492  -11.9626   18.9538 S   0  0  0  0  0  0  0  0  0  0  0  0
    7.6170  -13.7404   18.6411 C   0  0  0  0  0  0  0  0  0  0  0  0
    7.6450  -14.5267   19.9449 C   0  0  0  0  0  0  0  0  0  0  0  0
    8.8032  -15.4419   20.0777 C   0  0  2  0  0  0  0  0  0  0  0  0
    8.9586  -16.2989   18.9378 N   0  0  0  0  0  0  0  0  0  0  0  0
    8.7078  -16.2445   21.3296 C   0  0  0  0  0  0  0  0  0  0  0  0
    7.7099  -16.0723   22.0945 O   0  0  0  0  0  0  0  0  0  0  0  0
    9.6634  -17.2001   21.7441 N   0  0  0  0  0  0  0  0  0  0  0  0
    9.5481  -18.0394   22.9036 C   0  0  1  0  0  0  0  0  0  0  0  0
   10.3046  -19.3613   22.6802 C   0  0  0  0  0  0  0  0  0  0  0  0
    9.6151  -20.1795   21.6763 C   0  0  0  0  0  0  0  0  0  0  0  0
    8.6055  -21.0830   21.8080 C   0  0  0  0  0  0  0  0  0  0  0  0
    8.3345  -21.5934   20.5779 N   0  0  0  0  0  0  0  0  0  0  0  0
    9.1655  -21.0152   19.6831 C   0  0  0  0  0  0  0  0  0  0  0  0
    9.9497  -20.1456   20.3638 N   0  0  0  0  0  0  0  0  0  0  0  0
    9.9892  -17.3715   24.1677 C   0  0  0  0  0  0  0  0  0  0  0  0
   11.0567  -16.7309   24.2888 O   0  0  0  0  0  0  0  0  0  0  0  0
    6.6010  -11.2151   25.9070 O   0  0  0  0  0  0  0  0  0  0  0  0
    7.0204  -12.4987   26.2656 C   0  0  0  0  0  0  0  0  0  0  0  0
    8.3068  -12.7529   26.6954 C   0  0  0  0  0  0  0  0  0  0  0  0
    8.6763  -14.0223   27.0380 C   0  0  0  0  0  0  0  0  0  0  0  0
    7.8258  -15.1331   26.9870 C   0  0  0  0  0  0  0  0  0  0  0  0
    8.2390  -16.4942   27.3488 C   0  0  0  0  0  0  0  0  0  0  0  0
    9.4821  -16.8860   26.6150 C   0  0  2  0  0  0  0  0  0  0  0  0
    9.1636  -17.4561   25.3094 N   0  0  0  0  0  0  0  0  0  0  0  0
   10.2002  -17.9153   27.3685 C   0  0  0  0  0  0  0  0  0  0  0  0
   10.6461  -17.6649   28.5032 O   0  0  0  0  0  0  0  0  0  0  0  0
    6.5347  -14.8215   26.5451 C   0  0  0  0  0  0  0  0  0  0  0  0
    6.1537  -13.5617   26.2013 C   0  0  0  0  0  0  0  0  0  0  0  0
   10.4004  -19.1796   26.8405 O   0  0  0  0  0  0  0  0  0  0  0  0
  2  1  1  0
  3  2  1  0
  4  3  1  0
  5  4  1  0
  5  6  1  6
  7  5  1  0
  7  8  2  0
  9  7  1  0
 10  9  1  0
 10 11  1  6
 12 11  1  0
 12 16  1  0
 13 12  2  0
 14 13  1  0
 14 15  1  0
 15 16  2  0
 17 10  1  0
 18 17  2  0
 19 20  1  0
 20 21  2  0
 20 30  1  0
 21 22  1  0
 22 23  2  0
 23 24  1  0
 25 24  1  1
 25 26  1  0
 25 27  1  0
 26 17  1  0
 27 31  1  0
 28 27  2  0
 29 23  1  0
 30 29  2  0
M  END
$$$$
