MHY.pdb
     RDKit          3D

 31 32  0  0  1  0  0  0  0  0999 V2000
    8.1398  -11.8887   19.9557 C   0  0  0  0  0  0  0  0  0  0  0  0
    8.4578  -12.6632   18.3562 S   0  0  0  0  0  0  0  0  0  0  0  0
    7.5746  -14.2390   18.2445 C   0  0  0  0  0  0  0  0  0  0  0  0
    7.4329  -14.8830   19.6172 C   0  0  0  0  0  0  0  0  0  0  0  0
    8.7207  -15.2535   20.2503 C   0  0  2  0  0  0  0  0  0  0  0  0
    9.5944  -15.9494   19.3499 N   0  0  0  0  0  0  0  0  0  0  0  0
    8.4962  -16.0528   21.4876 C   0  0  0  0  0  0  0  0  0  0  0  0
    7.6076  -15.6736   22.3105 O   0  0  0  0  0  0  0  0  0  0  0  0
    9.2127  -17.2232   21.8273 N   0  0  0  0  0  0  0  0  0  0  0  0
    9.1723  -17.8792   23.1040 C   0  0  1  0  0  0  0  0  0  0  0  0
    9.2577  -19.4053   22.9202 C   0  0  0  0  0  0  0  0  0  0  0  0
    9.3767  -19.7412   21.4970 C   0  0  0  0  0  0  0  0  0  0  0  0
    9.4710  -18.9404   20.4002 C   0  0  0  0  0  0  0  0  0  0  0  0
    9.5358  -19.7376   19.3015 N   0  0  0  0  0  0  0  0  0  0  0  0
    9.4833  -21.0261   19.7051 C   0  0  0  0  0  0  0  0  0  0  0  0
    9.3870  -21.0222   21.0560 N   0  0  0  0  0  0  0  0  0  0  0  0
   10.2168  -17.3906   24.0572 C   0  0  0  0  0  0  0  0  0  0  0  0
   11.3250  -17.9444   24.2301 O   0  0  0  0  0  0  0  0  0  0  0  0
    5.9398  -11.0272   26.6033 O   0  0  0  0  0  0  0  0  0  0  0  0
    6.4647  -12.3216   26.5709 C   0  0  0  0  0  0  0  0  0  0  0  0
    5.6570  -13.4387   26.6335 C   0  0  0  0  0  0  0  0  0  0  0  0
    6.2101  -14.6870   26.5975 C   0  0  0  0  0  0  0  0  0  0  0  0
    7.5836  -14.9393   26.4994 C   0  0  0  0  0  0  0  0  0  0  0  0
    8.1656  -16.2865   26.4717 C   0  0  0  0  0  0  0  0  0  0  0  0
    9.6429  -16.2237   26.2461 C   0  0  2  0  0  0  0  0  0  0  0  0
    9.9572  -16.2321   24.8205 N   0  0  0  0  0  0  0  0  0  0  0  0
   10.2856  -17.4005   26.8336 C   0  0  0  0  0  0  0  0  0  0  0  0
   10.3532  -17.5259   28.0700 O   0  0  0  0  0  0  0  0  0  0  0  0
    8.3573  -13.7744   26.4393 C   0  0  0  0  0  0  0  0  0  0  0  0
    7.8190  -12.5255   26.4738 C   0  0  0  0  0  0  0  0  0  0  0  0
   10.8303  -18.3918   26.0348 O   0  0  0  0  0  0  0  0  0  0  0  0
  2  1  1  0
  3  2  1  0
  4  3  1  0
  5  4  1  0
  5  6  1  6
  7  5  1  0
  7  8  2  0
  9  7  1  0
 10  9  1  0
 10 11  1  6
 12 11  1  0
 12 16  1  0
 13 12  2  0
 14 13  1  0
 14 15  1  0
 15 16  2  0
 17 10  1  0
 18 17  2  0
 19 20  1  0
 20 21  2  0
 20 30  1  0
 21 22  1  0
 22 23  2  0
 23 24  1  0
 25 24  1  6
 25 26  1  0
 25 27  1  0
 26 17  1  0
 27 31  1  0
 28 27  2  0
 29 23  1  0
 30 29  2  0
M  END
$$$$
