MHY.pdb
     RDKit          3D

 31 32  0  0  1  0  0  0  0  0999 V2000
    9.2489  -11.8861   20.2609 C   0  0  0  0  0  0  0  0  0  0  0  0
    8.4214  -12.2738   18.7039 S   0  0  0  0  0  0  0  0  0  0  0  0
    8.2598  -14.0669   18.5181 C   0  0  0  0  0  0  0  0  0  0  0  0
    7.8883  -14.7208   19.8423 C   0  0  0  0  0  0  0  0  0  0  0  0
    7.7249  -16.1920   19.7687 C   0  0  2  0  0  0  0  0  0  0  0  0
    6.7382  -16.5868   18.8051 N   0  0  0  0  0  0  0  0  0  0  0  0
    7.4079  -16.7610   21.1089 C   0  0  0  0  0  0  0  0  0  0  0  0
    6.2172  -16.6863   21.5414 O   0  0  0  0  0  0  0  0  0  0  0  0
    8.3495  -17.3872   21.9573 N   0  0  0  0  0  0  0  0  0  0  0  0
    8.0635  -17.9315   23.2550 C   0  0  1  0  0  0  0  0  0  0  0  0
    8.3530  -19.4433   23.2728 C   0  0  0  0  0  0  0  0  0  0  0  0
    8.0023  -20.0138   24.5783 C   0  0  0  0  0  0  0  0  0  0  0  0
    7.3962  -19.4512   25.6596 C   0  0  0  0  0  0  0  0  0  0  0  0
    7.3197  -20.3930   26.6364 N   0  0  0  0  0  0  0  0  0  0  0  0
    7.8718  -21.5355   26.1722 C   0  0  0  0  0  0  0  0  0  0  0  0
    8.2885  -21.2969   24.9058 N   0  0  0  0  0  0  0  0  0  0  0  0
    8.7812  -17.2309   24.3653 C   0  0  0  0  0  0  0  0  0  0  0  0
    9.9689  -16.8439   24.3007 O   0  0  0  0  0  0  0  0  0  0  0  0
    6.5115  -10.4636   24.9399 O   0  0  0  0  0  0  0  0  0  0  0  0
    6.7470  -11.6945   25.5576 C   0  0  0  0  0  0  0  0  0  0  0  0
    5.8379  -12.2602   26.4281 C   0  0  0  0  0  0  0  0  0  0  0  0
    6.1059  -13.4664   27.0101 C   0  0  0  0  0  0  0  0  0  0  0  0
    7.2731  -14.2072   26.7899 C   0  0  0  0  0  0  0  0  0  0  0  0
    7.5530  -15.4981   27.4301 C   0  0  0  0  0  0  0  0  0  0  0  0
    8.6351  -16.2301   26.7018 C   0  0  2  0  0  0  0  0  0  0  0  0
    8.0937  -16.9796   25.5721 N   0  0  0  0  0  0  0  0  0  0  0  0
    9.2674  -17.2009   27.5966 C   0  0  0  0  0  0  0  0  0  0  0  0
    9.0801  -18.4201   27.4313 O   0  0  0  0  0  0  0  0  0  0  0  0
    8.1607  -13.5901   25.9007 C   0  0  0  0  0  0  0  0  0  0  0  0
    7.9058  -12.3896   25.3140 C   0  0  0  0  0  0  0  0  0  0  0  0
   10.0796  -16.7891   28.6398 O   0  0  0  0  0  0  0  0  0  0  0  0
  2  1  1  0
  3  2  1  0
  4  3  1  0
  5  4  1  0
  5  6  1  6
  7  5  1  0
  7  8  2  0
  9  7  1  0
 10  9  1  0
 10 11  1  6
 12 11  1  0
 12 16  1  0
 13 12  2  0
 14 13  1  0
 14 15  1  0
 15 16  2  0
 17 10  1  0
 18 17  2  0
 19 20  1  0
 20 21  2  0
 20 30  1  0
 21 22  1  0
 22 23  2  0
 23 24  1  0
 25 24  1  1
 25 26  1  0
 25 27  1  0
 26 17  1  0
 27 31  1  0
 28 27  2  0
 29 23  1  0
 30 29  2  0
M  END
$$$$
