MHY.pdb
     RDKit          3D

 31 32  0  0  1  0  0  0  0  0999 V2000
    8.5658  -12.0665   19.4818 C   0  0  0  0  0  0  0  0  0  0  0  0
    8.1412  -12.9961   17.9935 S   0  0  0  0  0  0  0  0  0  0  0  0
    7.5259  -14.6378   18.4432 C   0  0  0  0  0  0  0  0  0  0  0  0
    8.0686  -15.0708   19.7986 C   0  0  0  0  0  0  0  0  0  0  0  0
    7.9957  -16.5306   20.0440 C   0  0  2  0  0  0  0  0  0  0  0  0
    7.1681  -17.2070   19.0872 N   0  0  0  0  0  0  0  0  0  0  0  0
    7.5349  -16.8156   21.4321 C   0  0  0  0  0  0  0  0  0  0  0  0
    7.0105  -15.8791   22.1092 O   0  0  0  0  0  0  0  0  0  0  0  0
    7.6416  -18.0726   22.0703 N   0  0  0  0  0  0  0  0  0  0  0  0
    7.5849  -18.2902   23.4885 C   0  0  1  0  0  0  0  0  0  0  0  0
    7.3606  -19.7834   23.7885 C   0  0  0  0  0  0  0  0  0  0  0  0
    7.1508  -19.9883   25.2261 C   0  0  0  0  0  0  0  0  0  0  0  0
    7.1205  -19.0976   26.2551 C   0  0  0  0  0  0  0  0  0  0  0  0
    6.9174  -19.7913   27.4060 N   0  0  0  0  0  0  0  0  0  0  0  0
    6.8203  -21.1042   27.1019 C   0  0  0  0  0  0  0  0  0  0  0  0
    6.9631  -21.2192   25.7600 N   0  0  0  0  0  0  0  0  0  0  0  0
    8.7807  -17.7661   24.2191 C   0  0  0  0  0  0  0  0  0  0  0  0
    9.9632  -18.0517   23.9281 O   0  0  0  0  0  0  0  0  0  0  0  0
    5.0550  -11.8467   26.9302 O   0  0  0  0  0  0  0  0  0  0  0  0
    6.2170  -12.5609   26.6271 C   0  0  0  0  0  0  0  0  0  0  0  0
    7.2906  -12.6096   27.4926 C   0  0  0  0  0  0  0  0  0  0  0  0
    8.4080  -13.3207   27.1588 C   0  0  0  0  0  0  0  0  0  0  0  0
    8.5628  -14.0327   25.9635 C   0  0  0  0  0  0  0  0  0  0  0  0
    9.7735  -14.7848   25.6129 C   0  0  0  0  0  0  0  0  0  0  0  0
    9.6544  -16.2138   26.0383 C   0  0  2  0  0  0  0  0  0  0  0  0
    8.5861  -16.8914   25.3096 N   0  0  0  0  0  0  0  0  0  0  0  0
    9.3133  -16.2821   27.4602 C   0  0  0  0  0  0  0  0  0  0  0  0
    8.1807  -16.6561   27.8158 O   0  0  0  0  0  0  0  0  0  0  0  0
    7.4471  -13.9508   25.1222 C   0  0  0  0  0  0  0  0  0  0  0  0
    6.3281  -13.2466   25.4427 C   0  0  0  0  0  0  0  0  0  0  0  0
   10.2338  -15.9334   28.4342 O   0  0  0  0  0  0  0  0  0  0  0  0
  2  1  1  0
  3  2  1  0
  4  3  1  0
  5  4  1  0
  5  6  1  6
  7  5  1  0
  7  8  2  0
  9  7  1  0
 10  9  1  0
 10 11  1  6
 12 11  1  0
 12 16  1  0
 13 12  2  0
 14 13  1  0
 14 15  1  0
 15 16  2  0
 17 10  1  0
 18 17  2  0
 19 20  1  0
 20 21  2  0
 20 30  1  0
 21 22  1  0
 22 23  2  0
 23 24  1  0
 25 24  1  6
 25 26  1  0
 25 27  1  0
 26 17  1  0
 27 31  1  0
 28 27  2  0
 29 23  1  0
 30 29  2  0
M  END
$$$$
