MHY.pdb
     RDKit          3D

 31 32  0  0  1  0  0  0  0  0999 V2000
    8.0994  -11.9886   20.2232 C   0  0  0  0  0  0  0  0  0  0  0  0
    8.2676  -13.3386   19.0364 S   0  0  0  0  0  0  0  0  0  0  0  0
    7.1637  -14.7004   19.4868 C   0  0  0  0  0  0  0  0  0  0  0  0
    7.5031  -15.2430   20.8686 C   0  0  0  0  0  0  0  0  0  0  0  0
    8.8998  -15.7187   21.0083 C   0  0  2  0  0  0  0  0  0  0  0  0
    9.2766  -16.6279   19.9644 N   0  0  0  0  0  0  0  0  0  0  0  0
    9.1221  -16.3342   22.3469 C   0  0  0  0  0  0  0  0  0  0  0  0
    8.5059  -15.8608   23.3502 O   0  0  0  0  0  0  0  0  0  0  0  0
    9.9871  -17.4247   22.5945 N   0  0  0  0  0  0  0  0  0  0  0  0
   10.2065  -18.0352   23.8755 C   0  0  1  0  0  0  0  0  0  0  0  0
   10.9146  -19.3912   23.7038 C   0  0  0  0  0  0  0  0  0  0  0  0
   10.0178  -20.3560   23.0575 C   0  0  0  0  0  0  0  0  0  0  0  0
    8.6918  -20.5999   23.2451 C   0  0  0  0  0  0  0  0  0  0  0  0
    8.3294  -21.6145   22.4167 N   0  0  0  0  0  0  0  0  0  0  0  0
    9.4172  -22.0029   21.7157 C   0  0  0  0  0  0  0  0  0  0  0  0
   10.4521  -21.2246   22.1127 N   0  0  0  0  0  0  0  0  0  0  0  0
   10.9467  -17.1568   24.8342 C   0  0  0  0  0  0  0  0  0  0  0  0
   12.0923  -16.6992   24.6275 O   0  0  0  0  0  0  0  0  0  0  0  0
    5.4900  -12.5777   27.0721 O   0  0  0  0  0  0  0  0  0  0  0  0
    6.7976  -13.0556   26.9537 C   0  0  0  0  0  0  0  0  0  0  0  0
    7.2362  -13.7086   25.8199 C   0  0  0  0  0  0  0  0  0  0  0  0
    8.5233  -14.1593   25.7437 C   0  0  0  0  0  0  0  0  0  0  0  0
    9.4737  -14.0096   26.7605 C   0  0  0  0  0  0  0  0  0  0  0  0
   10.8513  -14.5079   26.6694 C   0  0  0  0  0  0  0  0  0  0  0  0
   10.9252  -15.9460   27.0738 C   0  0  2  0  0  0  0  0  0  0  0  0
   10.3322  -16.8087   26.0563 N   0  0  0  0  0  0  0  0  0  0  0  0
   10.1660  -16.1546   28.3079 C   0  0  0  0  0  0  0  0  0  0  0  0
   10.4825  -15.5491   29.3482 O   0  0  0  0  0  0  0  0  0  0  0  0
    8.9786  -13.3419   27.8868 C   0  0  0  0  0  0  0  0  0  0  0  0
    7.6994  -12.8877   27.9753 C   0  0  0  0  0  0  0  0  0  0  0  0
    9.0890  -17.0241   28.3470 O   0  0  0  0  0  0  0  0  0  0  0  0
  2  1  1  0
  3  2  1  0
  4  3  1  0
  5  4  1  0
  5  6  1  6
  7  5  1  0
  7  8  2  0
  9  7  1  0
 10  9  1  0
 10 11  1  6
 12 11  1  0
 12 16  1  0
 13 12  2  0
 14 13  1  0
 14 15  1  0
 15 16  2  0
 17 10  1  0
 18 17  2  0
 19 20  1  0
 20 21  2  0
 20 30  1  0
 21 22  1  0
 22 23  2  0
 23 24  1  0
 25 24  1  6
 25 26  1  0
 25 27  1  0
 26 17  1  0
 27 31  1  0
 28 27  2  0
 29 23  1  0
 30 29  2  0
M  END
$$$$
