MHY.pdb
     RDKit          3D

 31 32  0  0  1  0  0  0  0  0999 V2000
    5.3427  -11.6696   26.7651 C   0  0  0  0  0  0  0  0  0  0  0  0
    6.6015  -12.7000   25.9822 S   0  0  0  0  0  0  0  0  0  0  0  0
    6.0808  -14.4334   25.9982 C   0  0  0  0  0  0  0  0  0  0  0  0
    7.0422  -15.2988   25.1945 C   0  0  0  0  0  0  0  0  0  0  0  0
    6.7619  -15.3280   23.7395 C   0  0  2  0  0  0  0  0  0  0  0  0
    5.5052  -15.9495   23.4354 N   0  0  0  0  0  0  0  0  0  0  0  0
    7.8699  -15.9917   22.9962 C   0  0  0  0  0  0  0  0  0  0  0  0
    7.9354  -17.2590   22.9950 O   0  0  0  0  0  0  0  0  0  0  0  0
    8.8783  -15.3068   22.2804 N   0  0  0  0  0  0  0  0  0  0  0  0
   10.0313  -15.9184   21.6816 C   0  0  1  0  0  0  0  0  0  0  0  0
   10.5690  -15.0356   20.5408 C   0  0  0  0  0  0  0  0  0  0  0  0
    9.4746  -14.6289   19.6522 C   0  0  0  0  0  0  0  0  0  0  0  0
    8.1835  -15.0542   19.5811 C   0  0  0  0  0  0  0  0  0  0  0  0
    7.5748  -14.3837   18.5677 N   0  0  0  0  0  0  0  0  0  0  0  0
    8.4752  -13.5454   18.0089 C   0  0  0  0  0  0  0  0  0  0  0  0
    9.6411  -13.6994   18.6807 N   0  0  0  0  0  0  0  0  0  0  0  0
   11.1097  -16.2457   22.6656 C   0  0  0  0  0  0  0  0  0  0  0  0
   12.2512  -15.7343   22.6536 O   0  0  0  0  0  0  0  0  0  0  0  0
   10.1392  -13.3893   29.4415 O   0  0  0  0  0  0  0  0  0  0  0  0
   10.3231  -14.4853   28.5946 C   0  0  0  0  0  0  0  0  0  0  0  0
    9.3298  -14.9251   27.7437 C   0  0  0  0  0  0  0  0  0  0  0  0
    9.5506  -16.0001   26.9305 C   0  0  0  0  0  0  0  0  0  0  0  0
   10.7483  -16.7236   26.8862 C   0  0  0  0  0  0  0  0  0  0  0  0
   10.9687  -17.8836   26.0144 C   0  0  0  0  0  0  0  0  0  0  0  0
   11.7400  -17.4932   24.7937 C   0  0  2  0  0  0  0  0  0  0  0  0
   10.8445  -17.1887   23.6817 N   0  0  0  0  0  0  0  0  0  0  0  0
   12.5907  -18.6054   24.3668 C   0  0  0  0  0  0  0  0  0  0  0  0
   13.6245  -18.8832   25.0016 O   0  0  0  0  0  0  0  0  0  0  0  0
   11.7213  -16.2375   27.7673 C   0  0  0  0  0  0  0  0  0  0  0  0
   11.5144  -15.1678   28.5819 C   0  0  0  0  0  0  0  0  0  0  0  0
   12.2691  -19.3663   23.2554 O   0  0  0  0  0  0  0  0  0  0  0  0
  2  1  1  0
  3  2  1  0
  4  3  1  0
  5  4  1  0
  5  6  1  1
  7  5  1  0
  7  8  2  0
  9  7  1  0
 10  9  1  0
 10 11  1  6
 12 11  1  0
 12 16  1  0
 13 12  2  0
 14 13  1  0
 14 15  1  0
 15 16  2  0
 17 10  1  0
 18 17  2  0
 19 20  1  0
 20 21  2  0
 20 30  1  0
 21 22  1  0
 22 23  2  0
 23 24  1  0
 25 24  1  1
 25 26  1  0
 25 27  1  0
 26 17  1  0
 27 31  1  0
 28 27  2  0
 29 23  1  0
 30 29  2  0
M  END
$$$$
