MHY.pdb
     RDKit          3D

 31 32  0  0  1  0  0  0  0  0999 V2000
    8.0617  -11.9709   25.5582 C   0  0  0  0  0  0  0  0  0  0  0  0
    6.7703  -13.2149   25.7686 S   0  0  0  0  0  0  0  0  0  0  0  0
    7.4100  -14.8513   25.3339 C   0  0  0  0  0  0  0  0  0  0  0  0
    6.3133  -15.7250   24.7397 C   0  0  0  0  0  0  0  0  0  0  0  0
    6.4388  -15.9487   23.2799 C   0  0  2  0  0  0  0  0  0  0  0  0
    5.4019  -16.7950   22.7636 N   0  0  0  0  0  0  0  0  0  0  0  0
    7.7822  -16.4950   22.9377 C   0  0  0  0  0  0  0  0  0  0  0  0
    8.1525  -17.5886   23.4645 O   0  0  0  0  0  0  0  0  0  0  0  0
    8.6989  -15.8764   22.0572 N   0  0  0  0  0  0  0  0  0  0  0  0
   10.0321  -16.3377   21.7894 C   0  0  1  0  0  0  0  0  0  0  0  0
   10.4957  -15.8486   20.4052 C   0  0  0  0  0  0  0  0  0  0  0  0
    9.8292  -16.6134   19.3452 C   0  0  0  0  0  0  0  0  0  0  0  0
    8.9483  -17.6487   19.4166 C   0  0  0  0  0  0  0  0  0  0  0  0
    8.6411  -18.0279   18.1482 N   0  0  0  0  0  0  0  0  0  0  0  0
    9.3221  -17.2377   17.2894 C   0  0  0  0  0  0  0  0  0  0  0  0
   10.0498  -16.3689   18.0310 N   0  0  0  0  0  0  0  0  0  0  0  0
   11.0161  -15.9628   22.8522 C   0  0  0  0  0  0  0  0  0  0  0  0
   11.4942  -14.8158   22.9946 O   0  0  0  0  0  0  0  0  0  0  0  0
   11.7772  -15.3278   31.4146 O   0  0  0  0  0  0  0  0  0  0  0  0
   11.4902  -15.4743   30.0551 C   0  0  0  0  0  0  0  0  0  0  0  0
   10.8587  -14.4834   29.3315 C   0  0  0  0  0  0  0  0  0  0  0  0
   10.5975  -14.6658   28.0033 C   0  0  0  0  0  0  0  0  0  0  0  0
   10.9291  -15.8206   27.2848 C   0  0  0  0  0  0  0  0  0  0  0  0
   10.6335  -16.0075   25.8593 C   0  0  0  0  0  0  0  0  0  0  0  0
   11.7595  -16.7104   25.1697 C   0  0  2  0  0  0  0  0  0  0  0  0
   11.4464  -16.9504   23.7642 N   0  0  0  0  0  0  0  0  0  0  0  0
   11.9821  -18.0182   25.7886 C   0  0  0  0  0  0  0  0  0  0  0  0
   11.1596  -18.9376   25.6237 O   0  0  0  0  0  0  0  0  0  0  0  0
   11.5666  -16.7931   28.0640 C   0  0  0  0  0  0  0  0  0  0  0  0
   11.8329  -16.6239   29.3873 C   0  0  0  0  0  0  0  0  0  0  0  0
   13.1017  -18.2602   26.5667 O   0  0  0  0  0  0  0  0  0  0  0  0
  2  1  1  0
  3  2  1  0
  4  3  1  0
  5  4  1  0
  5  6  1  1
  7  5  1  0
  7  8  2  0
  9  7  1  0
 10  9  1  0
 10 11  1  6
 12 11  1  0
 12 16  1  0
 13 12  2  0
 14 13  1  0
 14 15  1  0
 15 16  2  0
 17 10  1  0
 18 17  2  0
 19 20  1  0
 20 21  2  0
 20 30  1  0
 21 22  1  0
 22 23  2  0
 23 24  1  0
 25 24  1  1
 25 26  1  0
 25 27  1  0
 26 17  1  0
 27 31  1  0
 28 27  2  0
 29 23  1  0
 30 29  2  0
M  END
$$$$
