MHY.pdb
     RDKit          3D

 31 32  0  0  1  0  0  0  0  0999 V2000
    5.9273  -12.3606   17.4474 C   0  0  0  0  0  0  0  0  0  0  0  0
    7.3828  -11.9076   18.4148 S   0  0  0  0  0  0  0  0  0  0  0  0
    8.4048  -13.3704   18.7179 C   0  0  0  0  0  0  0  0  0  0  0  0
    9.6440  -13.0114   19.5270 C   0  0  0  0  0  0  0  0  0  0  0  0
   10.5954  -14.1328   19.7110 C   0  0  2  0  0  0  0  0  0  0  0  0
   10.8865  -14.8124   18.4815 N   0  0  0  0  0  0  0  0  0  0  0  0
   10.0970  -15.0921   20.7365 C   0  0  0  0  0  0  0  0  0  0  0  0
    9.7231  -14.6458   21.8641 O   0  0  0  0  0  0  0  0  0  0  0  0
   10.0097  -16.4908   20.5508 N   0  0  0  0  0  0  0  0  0  0  0  0
    9.5083  -17.4262   21.5181 C   0  0  1  0  0  0  0  0  0  0  0  0
    9.4574  -18.8407   20.9128 C   0  0  0  0  0  0  0  0  0  0  0  0
    8.4823  -18.8915   19.8176 C   0  0  0  0  0  0  0  0  0  0  0  0
    7.1315  -18.7230   19.8225 C   0  0  0  0  0  0  0  0  0  0  0  0
    6.6817  -18.8928   18.5514 N   0  0  0  0  0  0  0  0  0  0  0  0
    7.7401  -19.1645   17.7566 C   0  0  0  0  0  0  0  0  0  0  0  0
    8.8447  -19.1610   18.5403 N   0  0  0  0  0  0  0  0  0  0  0  0
   10.2703  -17.4167   22.8056 C   0  0  0  0  0  0  0  0  0  0  0  0
   11.4706  -17.7513   22.9146 O   0  0  0  0  0  0  0  0  0  0  0  0
   11.2919  -14.8996   31.2959 O   0  0  0  0  0  0  0  0  0  0  0  0
   10.8290  -15.0790   29.9898 C   0  0  0  0  0  0  0  0  0  0  0  0
   10.2376  -16.2565   29.5803 C   0  0  0  0  0  0  0  0  0  0  0  0
    9.7970  -16.3909   28.2944 C   0  0  0  0  0  0  0  0  0  0  0  0
    9.8999  -15.3944   27.3166 C   0  0  0  0  0  0  0  0  0  0  0  0
    9.4312  -15.5558   25.9350 C   0  0  0  0  0  0  0  0  0  0  0  0
   10.2826  -16.5381   25.1952 C   0  0  2  0  0  0  0  0  0  0  0  0
    9.6131  -17.0070   23.9857 N   0  0  0  0  0  0  0  0  0  0  0  0
   10.5270  -17.7135   26.0329 C   0  0  0  0  0  0  0  0  0  0  0  0
   11.3661  -17.6653   26.9508 O   0  0  0  0  0  0  0  0  0  0  0  0
   10.5065  -14.2222   27.7827 C   0  0  0  0  0  0  0  0  0  0  0  0
   10.9491  -14.0753   29.0606 C   0  0  0  0  0  0  0  0  0  0  0  0
    9.8382  -18.8965   25.8242 O   0  0  0  0  0  0  0  0  0  0  0  0
  2  1  1  0
  3  2  1  0
  4  3  1  0
  5  4  1  0
  5  6  1  6
  7  5  1  0
  7  8  2  0
  9  7  1  0
 10  9  1  0
 10 11  1  6
 12 11  1  0
 12 16  1  0
 13 12  2  0
 14 13  1  0
 14 15  1  0
 15 16  2  0
 17 10  1  0
 18 17  2  0
 19 20  1  0
 20 21  2  0
 20 30  1  0
 21 22  1  0
 22 23  2  0
 23 24  1  0
 25 24  1  1
 25 26  1  0
 25 27  1  0
 26 17  1  0
 27 31  1  0
 28 27  2  0
 29 23  1  0
 30 29  2  0
M  END
$$$$
