MHY.pdb
     RDKit          3D

 31 32  0  0  1  0  0  0  0  0999 V2000
    7.7923  -11.4233   19.4860 C   0  0  0  0  0  0  0  0  0  0  0  0
    7.2000  -12.9317   18.6903 S   0  0  0  0  0  0  0  0  0  0  0  0
    8.2346  -14.3353   19.1757 C   0  0  0  0  0  0  0  0  0  0  0  0
    8.1510  -14.5808   20.6763 C   0  0  0  0  0  0  0  0  0  0  0  0
    9.0766  -15.6262   21.1733 C   0  0  2  0  0  0  0  0  0  0  0  0
    9.3390  -16.6385   20.1913 N   0  0  0  0  0  0  0  0  0  0  0  0
    8.5652  -16.2361   22.4330 C   0  0  0  0  0  0  0  0  0  0  0  0
    8.0778  -15.4793   23.3276 O   0  0  0  0  0  0  0  0  0  0  0  0
    8.5839  -17.6204   22.7190 N   0  0  0  0  0  0  0  0  0  0  0  0
    8.3124  -18.2062   24.0016 C   0  0  1  0  0  0  0  0  0  0  0  0
    7.8863  -19.6760   23.8351 C   0  0  0  0  0  0  0  0  0  0  0  0
    7.2730  -19.8826   22.5183 C   0  0  0  0  0  0  0  0  0  0  0  0
    7.0860  -19.0217   21.4806 C   0  0  0  0  0  0  0  0  0  0  0  0
    6.4454  -19.6927   20.4874 N   0  0  0  0  0  0  0  0  0  0  0  0
    6.2333  -20.9624   20.8978 C   0  0  0  0  0  0  0  0  0  0  0  0
    6.7455  -21.0739   22.1466 N   0  0  0  0  0  0  0  0  0  0  0  0
    9.4489  -18.0792   24.9663 C   0  0  0  0  0  0  0  0  0  0  0  0
   10.2345  -19.0092   25.2536 O   0  0  0  0  0  0  0  0  0  0  0  0
    6.6266  -11.1631   25.5654 O   0  0  0  0  0  0  0  0  0  0  0  0
    6.9971  -12.4269   26.0318 C   0  0  0  0  0  0  0  0  0  0  0  0
    6.0938  -13.4664   26.1195 C   0  0  0  0  0  0  0  0  0  0  0  0
    6.4971  -14.6875   26.5797 C   0  0  0  0  0  0  0  0  0  0  0  0
    7.8027  -14.9857   26.9874 C   0  0  0  0  0  0  0  0  0  0  0  0
    8.2204  -16.3001   27.4895 C   0  0  0  0  0  0  0  0  0  0  0  0
    9.6127  -16.6212   27.0471 C   0  0  2  0  0  0  0  0  0  0  0  0
    9.6682  -16.8396   25.6048 N   0  0  0  0  0  0  0  0  0  0  0  0
   10.0639  -17.8588   27.6856 C   0  0  0  0  0  0  0  0  0  0  0  0
   10.2567  -18.8818   27.0034 O   0  0  0  0  0  0  0  0  0  0  0  0
    8.6781  -13.8988   26.8789 C   0  0  0  0  0  0  0  0  0  0  0  0
    8.2894  -12.6778   26.4219 C   0  0  0  0  0  0  0  0  0  0  0  0
   10.2828  -17.9205   29.0515 O   0  0  0  0  0  0  0  0  0  0  0  0
  2  1  1  0
  3  2  1  0
  4  3  1  0
  5  4  1  0
  5  6  1  6
  7  5  1  0
  7  8  2  0
  9  7  1  0
 10  9  1  0
 10 11  1  6
 12 11  1  0
 12 16  1  0
 13 12  2  0
 14 13  1  0
 14 15  1  0
 15 16  2  0
 17 10  1  0
 18 17  2  0
 19 20  1  0
 20 21  2  0
 20 30  1  0
 21 22  1  0
 22 23  2  0
 23 24  1  0
 25 24  1  1
 25 26  1  0
 25 27  1  0
 26 17  1  0
 27 31  1  0
 28 27  2  0
 29 23  1  0
 30 29  2  0
M  END
$$$$
