MHY.pdb
     RDKit          3D

 31 32  0  0  1  0  0  0  0  0999 V2000
    6.2514  -11.6616   23.6191 C   0  0  0  0  0  0  0  0  0  0  0  0
    7.0547  -11.8046   22.0086 S   0  0  0  0  0  0  0  0  0  0  0  0
    7.0747  -13.5349   21.4780 C   0  0  0  0  0  0  0  0  0  0  0  0
    7.7192  -13.6767   20.1055 C   0  0  0  0  0  0  0  0  0  0  0  0
    7.6411  -15.0426   19.5358 C   0  0  2  0  0  0  0  0  0  0  0  0
    6.2885  -15.4887   19.3640 N   0  0  0  0  0  0  0  0  0  0  0  0
    8.4127  -16.0111   20.3648 C   0  0  0  0  0  0  0  0  0  0  0  0
    7.8376  -16.5733   21.3465 O   0  0  0  0  0  0  0  0  0  0  0  0
    9.7650  -16.3577   20.1426 N   0  0  0  0  0  0  0  0  0  0  0  0
   10.5602  -17.1891   21.0019 C   0  0  1  0  0  0  0  0  0  0  0  0
   11.7581  -17.7645   20.2249 C   0  0  0  0  0  0  0  0  0  0  0  0
   11.2921  -18.6620   19.1618 C   0  0  0  0  0  0  0  0  0  0  0  0
   11.2604  -18.4975   17.8109 C   0  0  0  0  0  0  0  0  0  0  0  0
   10.7114  -19.6139   17.2639 N   0  0  0  0  0  0  0  0  0  0  0  0
   10.4023  -20.4708   18.2619 C   0  0  0  0  0  0  0  0  0  0  0  0
   10.7629  -19.8809   19.4265 N   0  0  0  0  0  0  0  0  0  0  0  0
   11.0082  -16.4975   22.2507 C   0  0  0  0  0  0  0  0  0  0  0  0
   11.7570  -15.4958   22.2695 O   0  0  0  0  0  0  0  0  0  0  0  0
   10.7285  -14.2114   30.8080 O   0  0  0  0  0  0  0  0  0  0  0  0
   10.4485  -14.6821   29.5226 C   0  0  0  0  0  0  0  0  0  0  0  0
   10.3681  -16.0304   29.2404 C   0  0  0  0  0  0  0  0  0  0  0  0
   10.0906  -16.4492   27.9702 C   0  0  0  0  0  0  0  0  0  0  0  0
    9.8730  -15.5909   26.8859 C   0  0  0  0  0  0  0  0  0  0  0  0
    9.5855  -16.0547   25.5233 C   0  0  0  0  0  0  0  0  0  0  0  0
   10.8509  -16.3648   24.7884 C   0  0  2  0  0  0  0  0  0  0  0  0
   10.5698  -16.9891   23.4990 N   0  0  0  0  0  0  0  0  0  0  0  0
   11.6528  -17.3162   25.5595 C   0  0  0  0  0  0  0  0  0  0  0  0
   11.3916  -18.5325   25.5201 O   0  0  0  0  0  0  0  0  0  0  0  0
    9.9659  -14.2361   27.2252 C   0  0  0  0  0  0  0  0  0  0  0  0
   10.2411  -13.8058   28.4861 C   0  0  0  0  0  0  0  0  0  0  0  0
   12.7100  -16.8890   26.3452 O   0  0  0  0  0  0  0  0  0  0  0  0
  2  1  1  0
  3  2  1  0
  4  3  1  0
  5  4  1  0
  5  6  1  1
  7  5  1  0
  7  8  2  0
  9  7  1  0
 10  9  1  0
 10 11  1  6
 12 11  1  0
 12 16  1  0
 13 12  2  0
 14 13  1  0
 14 15  1  0
 15 16  2  0
 17 10  1  0
 18 17  2  0
 19 20  1  0
 20 21  2  0
 20 30  1  0
 21 22  1  0
 22 23  2  0
 23 24  1  0
 25 24  1  1
 25 26  1  0
 25 27  1  0
 26 17  1  0
 27 31  1  0
 28 27  2  0
 29 23  1  0
 30 29  2  0
M  END
$$$$
