YLV.pdb
     RDKit          3D

 28 28  0  0  1  0  0  0  0  0999 V2000
    3.8150  -21.7809   20.2593 O   0  0  0  0  0  0  0  0  0  0  0  0
    4.6589  -20.9440   20.9852 C   0  0  0  0  0  0  0  0  0  0  0  0
    5.9899  -20.8776   20.6598 C   0  0  0  0  0  0  0  0  0  0  0  0
    6.8170  -20.0492   21.3808 C   0  0  0  0  0  0  0  0  0  0  0  0
    6.3060  -19.2926   22.4232 C   0  0  0  0  0  0  0  0  0  0  0  0
    7.2053  -18.4019   23.1955 C   0  0  0  0  0  0  0  0  0  0  0  0
    7.1339  -16.9756   22.6816 C   0  0  2  0  0  0  0  0  0  0  0  0
    7.7634  -16.9292   21.3776 N   0  0  0  0  0  0  0  0  0  0  0  0
    7.8868  -16.1171   23.6605 C   0  0  0  0  0  0  0  0  0  0  0  0
    9.1261  -15.9885   23.5600 O   0  0  0  0  0  0  0  0  0  0  0  0
    4.9752  -19.3624   22.7445 C   0  0  0  0  0  0  0  0  0  0  0  0
    4.1388  -20.1941   22.0224 C   0  0  0  0  0  0  0  0  0  0  0  0
    7.6312  -11.7288   25.4960 C   0  0  0  0  0  0  0  0  0  0  0  0
    6.4489  -12.6698   25.6928 C   0  0  2  0  0  0  0  0  0  0  0  0
    5.4086  -11.9150   26.4822 C   0  0  0  0  0  0  0  0  0  0  0  0
    6.9509  -13.8512   26.4751 C   0  0  0  0  0  0  0  0  0  0  0  0
    7.9499  -14.6868   25.7241 C   0  0  2  0  0  0  0  0  0  0  0  0
    7.2120  -15.4458   24.7032 N   0  0  0  0  0  0  0  0  0  0  0  0
    8.6585  -15.6594   26.5712 C   0  0  0  0  0  0  0  0  0  0  0  0
    8.0938  -16.6506   27.1008 O   0  0  0  0  0  0  0  0  0  0  0  0
   11.8461  -17.5391   25.7338 C   0  0  0  0  0  0  0  0  0  0  0  0
   12.0977  -16.9013   27.0800 C   0  0  1  0  0  0  0  0  0  0  0  0
   13.0859  -15.7797   27.0065 C   0  0  0  0  0  0  0  0  0  0  0  0
   10.7744  -16.4777   27.6758 C   0  0  2  0  0  0  0  0  0  0  0  0
   10.0682  -15.5397   26.8551 N   0  0  0  0  0  0  0  0  0  0  0  0
   10.9521  -16.0032   29.0693 C   0  0  0  0  0  0  0  0  0  0  0  0
   10.6358  -14.7313   29.5165 O   0  0  0  0  0  0  0  0  0  0  0  0
   11.4236  -16.8136   29.9035 O   0  0  0  0  0  0  0  0  0  0  0  0
  2  1  1  0
  3  2  2  0
  4  3  1  0
  5  4  2  0
  5 11  1  0
  6  5  1  0
  7  9  1  0
  7  6  1  0
  7  8  1  6
  9 18  1  0
 10  9  2  0
 11 12  2  0
 12  2  1  0
 14 13  1  1
 14 15  1  0
 17 16  1  1
 16 14  1  0
 18 17  1  0
 19 17  1  0
 19 20  2  0
 22 21  1  6
 22 24  1  0
 23 22  1  0
 24 25  1  6
 24 26  1  0
 25 19  1  0
 26 27  1  0
 28 26  2  0
M  END
$$$$
