YLV.pdb
     RDKit          3D

 28 28  0  0  1  0  0  0  0  0999 V2000
    7.9586  -23.3982   29.0891 O   0  0  0  0  0  0  0  0  0  0  0  0
    8.1868  -22.2123   28.3956 C   0  0  0  0  0  0  0  0  0  0  0  0
    7.2792  -21.7918   27.4568 C   0  0  0  0  0  0  0  0  0  0  0  0
    7.5112  -20.6201   26.7760 C   0  0  0  0  0  0  0  0  0  0  0  0
    8.6506  -19.8768   27.0398 C   0  0  0  0  0  0  0  0  0  0  0  0
    8.8927  -18.6143   26.3008 C   0  0  0  0  0  0  0  0  0  0  0  0
    9.1493  -18.8836   24.8294 C   0  0  2  0  0  0  0  0  0  0  0  0
   10.4008  -19.6035   24.7096 N   0  0  0  0  0  0  0  0  0  0  0  0
    9.2437  -17.5465   24.1474 C   0  0  0  0  0  0  0  0  0  0  0  0
   10.3067  -16.8905   24.1949 O   0  0  0  0  0  0  0  0  0  0  0  0
    9.5545  -20.3012   27.9788 C   0  0  0  0  0  0  0  0  0  0  0  0
    9.3260  -21.4792   28.6665 C   0  0  0  0  0  0  0  0  0  0  0  0
    6.1245  -13.8922   20.3665 C   0  0  0  0  0  0  0  0  0  0  0  0
    7.0082  -13.9224   21.6076 C   0  0  2  0  0  0  0  0  0  0  0  0
    8.3195  -13.2776   21.2334 C   0  0  0  0  0  0  0  0  0  0  0  0
    7.2141  -15.3673   21.9675 C   0  0  0  0  0  0  0  0  0  0  0  0
    8.0039  -15.5634   23.2317 C   0  0  2  0  0  0  0  0  0  0  0  0
    8.1411  -17.0119   23.4461 N   0  0  0  0  0  0  0  0  0  0  0  0
    7.3530  -15.0000   24.4254 C   0  0  0  0  0  0  0  0  0  0  0  0
    6.3163  -15.4918   24.9405 O   0  0  0  0  0  0  0  0  0  0  0  0
    8.8272  -14.4560   27.7581 C   0  0  0  0  0  0  0  0  0  0  0  0
    8.2385  -13.1088   27.4106 C   0  0  1  0  0  0  0  0  0  0  0  0
    9.2886  -12.0818   27.1233 C   0  0  0  0  0  0  0  0  0  0  0  0
    7.2609  -13.2814   26.2705 C   0  0  2  0  0  0  0  0  0  0  0  0
    7.8675  -13.8294   25.0941 N   0  0  0  0  0  0  0  0  0  0  0  0
    6.5317  -12.0176   26.0062 C   0  0  0  0  0  0  0  0  0  0  0  0
    5.6595  -11.4092   26.8933 O   0  0  0  0  0  0  0  0  0  0  0  0
    6.7190  -11.4594   24.8979 O   0  0  0  0  0  0  0  0  0  0  0  0
  2  1  1  0
  3  2  2  0
  4  3  1  0
  5  4  2  0
  5 11  1  0
  6  5  1  0
  7  9  1  0
  7  6  1  0
  7  8  1  1
  9 18  1  0
 10  9  2  0
 11 12  2  0
 12  2  1  0
 14 13  1  6
 14 15  1  0
 17 16  1  6
 16 14  1  0
 18 17  1  0
 19 17  1  0
 19 20  2  0
 22 21  1  6
 22 24  1  0
 23 22  1  0
 24 25  1  6
 24 26  1  0
 25 19  1  0
 26 27  1  0
 28 26  2  0
M  END
$$$$
