YLV.pdb
     RDKit          3D

 28 28  0  0  1  0  0  0  0  0999 V2000
    9.8188  -20.2059   31.0285 O   0  0  0  0  0  0  0  0  0  0  0  0
    9.4127  -19.9108   29.7295 C   0  0  0  0  0  0  0  0  0  0  0  0
   10.3015  -19.3366   28.8564 C   0  0  0  0  0  0  0  0  0  0  0  0
    9.8935  -19.0480   27.5757 C   0  0  0  0  0  0  0  0  0  0  0  0
    8.5979  -19.3362   27.1772 C   0  0  0  0  0  0  0  0  0  0  0  0
    8.1665  -19.0216   25.7940 C   0  0  0  0  0  0  0  0  0  0  0  0
    6.7257  -18.5456   25.7665 C   0  0  2  0  0  0  0  0  0  0  0  0
    5.9099  -19.5957   25.1916 N   0  0  0  0  0  0  0  0  0  0  0  0
    6.6853  -17.3149   24.9028 C   0  0  0  0  0  0  0  0  0  0  0  0
    6.3108  -17.3944   23.7129 O   0  0  0  0  0  0  0  0  0  0  0  0
    7.7135  -19.9100   28.0533 C   0  0  0  0  0  0  0  0  0  0  0  0
    8.1188  -20.2023   29.3429 C   0  0  0  0  0  0  0  0  0  0  0  0
    5.6563  -12.8498   26.0830 C   0  0  0  0  0  0  0  0  0  0  0  0
    6.9623  -13.4569   26.5807 C   0  0  2  0  0  0  0  0  0  0  0  0
    7.6409  -12.4118   27.4309 C   0  0  0  0  0  0  0  0  0  0  0  0
    7.7929  -13.7717   25.3680 C   0  0  0  0  0  0  0  0  0  0  0  0
    7.2361  -14.8923   24.5346 C   0  0  2  0  0  0  0  0  0  0  0  0
    7.0670  -16.0567   25.4170 N   0  0  0  0  0  0  0  0  0  0  0  0
    8.1199  -15.2996   23.4306 C   0  0  0  0  0  0  0  0  0  0  0  0
    7.7180  -15.4549   22.2490 O   0  0  0  0  0  0  0  0  0  0  0  0
   11.3691  -15.3411   20.3671 C   0  0  0  0  0  0  0  0  0  0  0  0
   10.4348  -14.8696   21.4568 C   0  0  1  0  0  0  0  0  0  0  0  0
    9.0692  -14.5431   20.9387 C   0  0  0  0  0  0  0  0  0  0  0  0
   10.4108  -15.9017   22.5612 C   0  0  2  0  0  0  0  0  0  0  0  0
    9.5263  -15.5516   23.6323 N   0  0  0  0  0  0  0  0  0  0  0  0
   11.7852  -16.2070   23.0266 C   0  0  0  0  0  0  0  0  0  0  0  0
   12.2005  -16.1588   24.3468 O   0  0  0  0  0  0  0  0  0  0  0  0
   12.6331  -16.5327   22.1606 O   0  0  0  0  0  0  0  0  0  0  0  0
  2  1  1  0
  3  2  2  0
  4  3  1  0
  5  4  2  0
  5 11  1  0
  6  5  1  0
  7  9  1  0
  7  6  1  0
  7  8  1  6
  9 18  1  0
 10  9  2  0
 11 12  2  0
 12  2  1  0
 14 13  1  6
 14 15  1  0
 17 16  1  1
 16 14  1  0
 18 17  1  0
 19 17  1  0
 19 20  2  0
 22 21  1  6
 22 24  1  0
 23 22  1  0
 24 25  1  1
 24 26  1  0
 25 19  1  0
 26 27  1  0
 28 26  2  0
M  END
$$$$
