YLV.pdb
     RDKit          3D

 28 28  0  0  1  0  0  0  0  0999 V2000
   11.5818  -20.9069   30.3008 O   0  0  0  0  0  0  0  0  0  0  0  0
   10.6070  -20.1882   29.6132 C   0  0  0  0  0  0  0  0  0  0  0  0
    9.5718  -20.8571   29.0108 C   0  0  0  0  0  0  0  0  0  0  0  0
    8.6132  -20.1410   28.3338 C   0  0  0  0  0  0  0  0  0  0  0  0
    8.6972  -18.7596   28.2643 C   0  0  0  0  0  0  0  0  0  0  0  0
    7.6588  -17.9954   27.5320 C   0  0  0  0  0  0  0  0  0  0  0  0
    8.0122  -17.8647   26.0619 C   0  0  2  0  0  0  0  0  0  0  0  0
    9.4070  -17.4864   25.9605 N   0  0  0  0  0  0  0  0  0  0  0  0
    7.1315  -16.7870   25.4917 C   0  0  0  0  0  0  0  0  0  0  0  0
    5.8884  -16.9157   25.5111 O   0  0  0  0  0  0  0  0  0  0  0  0
    9.7335  -18.0958   28.8680 C   0  0  0  0  0  0  0  0  0  0  0  0
   10.7006  -18.8113   29.5503 C   0  0  0  0  0  0  0  0  0  0  0  0
    5.4799  -12.8686   26.5479 C   0  0  0  0  0  0  0  0  0  0  0  0
    6.9747  -13.1345   26.4178 C   0  0  2  0  0  0  0  0  0  0  0  0
    7.6893  -11.9440   27.0071 C   0  0  0  0  0  0  0  0  0  0  0  0
    7.2748  -13.2570   24.9499 C   0  0  0  0  0  0  0  0  0  0  0  0
    6.8362  -14.5666   24.3557 C   0  0  2  0  0  0  0  0  0  0  0  0
    7.6893  -15.6189   24.9283 N   0  0  0  0  0  0  0  0  0  0  0  0
    6.9825  -14.6270   22.8926 C   0  0  0  0  0  0  0  0  0  0  0  0
    6.0377  -14.3917   22.0963 O   0  0  0  0  0  0  0  0  0  0  0  0
    6.8566  -13.0404   20.7933 C   0  0  0  0  0  0  0  0  0  0  0  0
    8.1606  -13.5715   20.2457 C   0  0  1  0  0  0  0  0  0  0  0  0
    9.2974  -12.6195   20.4493 C   0  0  0  0  0  0  0  0  0  0  0  0
    8.4238  -14.9345   20.8445 C   0  0  2  0  0  0  0  0  0  0  0  0
    8.2368  -14.9651   22.2644 N   0  0  0  0  0  0  0  0  0  0  0  0
    9.7523  -15.4449   20.4282 C   0  0  0  0  0  0  0  0  0  0  0  0
   10.1521  -15.6259   19.1147 O   0  0  0  0  0  0  0  0  0  0  0  0
   10.5734  -15.7337   21.3322 O   0  0  0  0  0  0  0  0  0  0  0  0
  2  1  1  0
  3  2  2  0
  4  3  1  0
  5  4  2  0
  5 11  1  0
  6  5  1  0
  7  9  1  0
  7  6  1  0
  7  8  1  1
  9 18  1  0
 10  9  2  0
 11 12  2  0
 12  2  1  0
 14 13  1  6
 14 15  1  0
 17 16  1  1
 16 14  1  0
 18 17  1  0
 19 17  1  0
 19 20  2  0
 22 21  1  1
 22 24  1  0
 23 22  1  0
 24 25  1  1
 24 26  1  0
 25 19  1  0
 26 27  1  0
 28 26  2  0
M  END
$$$$
