YLV.pdb
     RDKit          3D

 28 28  0  0  1  0  0  0  0  0999 V2000
    5.0090  -23.3436   27.2573 O   0  0  0  0  0  0  0  0  0  0  0  0
    5.7356  -22.2749   26.7384 C   0  0  0  0  0  0  0  0  0  0  0  0
    5.0782  -21.2623   26.0869 C   0  0  0  0  0  0  0  0  0  0  0  0
    5.8020  -20.2105   25.5772 C   0  0  0  0  0  0  0  0  0  0  0  0
    7.1797  -20.1793   25.7231 C   0  0  0  0  0  0  0  0  0  0  0  0
    7.9524  -19.0410   25.1702 C   0  0  0  0  0  0  0  0  0  0  0  0
    7.7258  -18.9018   23.6760 C   0  0  2  0  0  0  0  0  0  0  0  0
    8.1493  -20.1298   23.0347 N   0  0  0  0  0  0  0  0  0  0  0  0
    8.5678  -17.7464   23.2090 C   0  0  0  0  0  0  0  0  0  0  0  0
    9.7068  -17.9496   22.7361 O   0  0  0  0  0  0  0  0  0  0  0  0
    7.8321  -21.1935   26.3749 C   0  0  0  0  0  0  0  0  0  0  0  0
    7.1086  -22.2540   26.8895 C   0  0  0  0  0  0  0  0  0  0  0  0
    8.3767  -14.5906   20.0889 C   0  0  0  0  0  0  0  0  0  0  0  0
    7.3216  -14.4935   21.1840 C   0  0  2  0  0  0  0  0  0  0  0  0
    6.3905  -13.3694   20.8036 C   0  0  0  0  0  0  0  0  0  0  0  0
    8.0421  -14.1722   22.4636 C   0  0  0  0  0  0  0  0  0  0  0  0
    8.9437  -15.2779   22.9377 C   0  0  2  0  0  0  0  0  0  0  0  0
    8.0900  -16.4207   23.2958 N   0  0  0  0  0  0  0  0  0  0  0  0
    9.7314  -14.9245   24.1296 C   0  0  0  0  0  0  0  0  0  0  0  0
   10.8448  -14.3424   24.0708 O   0  0  0  0  0  0  0  0  0  0  0  0
    9.5797  -12.5247   26.5747 C   0  0  0  0  0  0  0  0  0  0  0  0
    9.5078  -13.7706   27.4262 C   0  0  1  0  0  0  0  0  0  0  0  0
    8.1320  -14.0213   27.9593 C   0  0  0  0  0  0  0  0  0  0  0  0
   10.0498  -14.9376   26.6326 C   0  0  2  0  0  0  0  0  0  0  0  0
    9.2729  -15.2261   25.4641 N   0  0  0  0  0  0  0  0  0  0  0  0
   10.2414  -16.1226   27.5030 C   0  0  0  0  0  0  0  0  0  0  0  0
    9.6600  -17.3612   27.2894 O   0  0  0  0  0  0  0  0  0  0  0  0
   10.9846  -15.9930   28.5059 O   0  0  0  0  0  0  0  0  0  0  0  0
  2  1  1  0
  3  2  2  0
  4  3  1  0
  5  4  2  0
  5 11  1  0
  6  5  1  0
  7  9  1  0
  7  6  1  0
  7  8  1  6
  9 18  1  0
 10  9  2  0
 11 12  2  0
 12  2  1  0
 14 13  1  6
 14 15  1  0
 17 16  1  1
 16 14  1  0
 18 17  1  0
 19 17  1  0
 19 20  2  0
 22 21  1  6
 22 24  1  0
 23 22  1  0
 24 25  1  6
 24 26  1  0
 25 19  1  0
 26 27  1  0
 28 26  2  0
M  END
$$$$
