YLV.pdb
     RDKit          3D

 28 28  0  0  1  0  0  0  0  0999 V2000
   11.3778  -24.2465   22.2109 O   0  0  0  0  0  0  0  0  0  0  0  0
   11.2129  -22.8911   22.4852 C   0  0  0  0  0  0  0  0  0  0  0  0
   12.0590  -22.2717   23.3697 C   0  0  0  0  0  0  0  0  0  0  0  0
   11.8902  -20.9335   23.6356 C   0  0  0  0  0  0  0  0  0  0  0  0
   10.8751  -20.2238   23.0140 C   0  0  0  0  0  0  0  0  0  0  0  0
   10.7004  -18.7808   23.3067 C   0  0  0  0  0  0  0  0  0  0  0  0
   10.7258  -17.9582   22.0316 C   0  0  2  0  0  0  0  0  0  0  0  0
   12.0819  -17.9497   21.5219 N   0  0  0  0  0  0  0  0  0  0  0  0
   10.2922  -16.5654   22.3978 C   0  0  0  0  0  0  0  0  0  0  0  0
   11.1143  -15.7585   22.8832 O   0  0  0  0  0  0  0  0  0  0  0  0
   10.0322  -20.8473   22.1309 C   0  0  0  0  0  0  0  0  0  0  0  0
   10.1977  -22.1934   21.8599 C   0  0  0  0  0  0  0  0  0  0  0  0
    8.5378  -12.7358   20.4826 C   0  0  0  0  0  0  0  0  0  0  0  0
    7.7258  -14.0185   20.3510 C   0  0  2  0  0  0  0  0  0  0  0  0
    6.5002  -13.6853   19.5374 C   0  0  0  0  0  0  0  0  0  0  0  0
    7.3384  -14.4398   21.7410 C   0  0  0  0  0  0  0  0  0  0  0  0
    8.5127  -14.8052   22.6058 C   0  0  2  0  0  0  0  0  0  0  0  0
    8.9581  -16.1472   22.2015 N   0  0  0  0  0  0  0  0  0  0  0  0
    8.1918  -14.8602   24.0410 C   0  0  0  0  0  0  0  0  0  0  0  0
    8.0041  -15.9369   24.6633 O   0  0  0  0  0  0  0  0  0  0  0  0
    6.2821  -11.6645   26.0561 C   0  0  0  0  0  0  0  0  0  0  0  0
    7.4326  -12.3141   26.7887 C   0  0  1  0  0  0  0  0  0  0  0  0
    7.2317  -12.3292   28.2717 C   0  0  0  0  0  0  0  0  0  0  0  0
    7.6614  -13.6939   26.2148 C   0  0  2  0  0  0  0  0  0  0  0  0
    8.0690  -13.6660   24.8417 N   0  0  0  0  0  0  0  0  0  0  0  0
    6.4829  -14.5631   26.4474 C   0  0  0  0  0  0  0  0  0  0  0  0
    6.2781  -15.3279   27.5836 O   0  0  0  0  0  0  0  0  0  0  0  0
    5.6078  -14.6086   25.5490 O   0  0  0  0  0  0  0  0  0  0  0  0
  2  1  1  0
  3  2  2  0
  4  3  1  0
  5  4  2  0
  5 11  1  0
  6  5  1  0
  7  9  1  0
  7  6  1  0
  7  8  1  1
  9 18  1  0
 10  9  2  0
 11 12  2  0
 12  2  1  0
 14 13  1  1
 14 15  1  0
 17 16  1  6
 16 14  1  0
 18 17  1  0
 19 17  1  0
 19 20  2  0
 22 21  1  6
 22 24  1  0
 23 22  1  0
 24 25  1  6
 24 26  1  0
 25 19  1  0
 26 27  1  0
 28 26  2  0
M  END
$$$$
