YLV.pdb
     RDKit          3D

 28 28  0  0  1  0  0  0  0  0999 V2000
    0.5393  -20.4876   21.7738 O   0  0  0  0  0  0  0  0  0  0  0  0
    1.7808  -19.8822   21.9517 C   0  0  0  0  0  0  0  0  0  0  0  0
    2.6444  -20.3739   22.8974 C   0  0  0  0  0  0  0  0  0  0  0  0
    3.8682  -19.7712   23.0674 C   0  0  0  0  0  0  0  0  0  0  0  0
    4.2197  -18.6798   22.2893 C   0  0  0  0  0  0  0  0  0  0  0  0
    5.5418  -18.0360   22.4794 C   0  0  0  0  0  0  0  0  0  0  0  0
    6.2826  -17.9106   21.1608 C   0  0  2  0  0  0  0  0  0  0  0  0
    6.6141  -19.2422   20.6962 N   0  0  0  0  0  0  0  0  0  0  0  0
    7.5336  -17.1211   21.4323 C   0  0  0  0  0  0  0  0  0  0  0  0
    8.6203  -17.7101   21.6187 O   0  0  0  0  0  0  0  0  0  0  0  0
    3.3534  -18.1921   21.3455 C   0  0  0  0  0  0  0  0  0  0  0  0
    2.1209  -18.7948   21.1704 C   0  0  0  0  0  0  0  0  0  0  0  0
    9.1353  -13.7909   18.8853 C   0  0  0  0  0  0  0  0  0  0  0  0
    7.9569  -13.4646   19.7945 C   0  0  2  0  0  0  0  0  0  0  0  0
    7.5092  -12.0649   19.4543 C   0  0  0  0  0  0  0  0  0  0  0  0
    8.4604  -13.5286   21.2094 C   0  0  0  0  0  0  0  0  0  0  0  0
    8.7317  -14.9284   21.6864 C   0  0  2  0  0  0  0  0  0  0  0  0
    7.5032  -15.7105   21.4812 N   0  0  0  0  0  0  0  0  0  0  0  0
    9.0718  -15.0072   23.1161 C   0  0  0  0  0  0  0  0  0  0  0  0
   10.2299  -14.7992   23.5604 O   0  0  0  0  0  0  0  0  0  0  0  0
    7.9184  -13.0904   26.0168 C   0  0  0  0  0  0  0  0  0  0  0  0
    7.5875  -14.5192   26.3793 C   0  0  1  0  0  0  0  0  0  0  0  0
    6.1197  -14.8028   26.3083 C   0  0  0  0  0  0  0  0  0  0  0  0
    8.4057  -15.4467   25.5098 C   0  0  2  0  0  0  0  0  0  0  0  0
    8.0858  -15.3329   24.1180 N   0  0  0  0  0  0  0  0  0  0  0  0
    8.3252  -16.8415   26.0063 C   0  0  0  0  0  0  0  0  0  0  0  0
    8.7010  -17.2507   27.2748 O   0  0  0  0  0  0  0  0  0  0  0  0
    7.8846  -17.7141   25.2193 O   0  0  0  0  0  0  0  0  0  0  0  0
  2  1  1  0
  3  2  2  0
  4  3  1  0
  5  4  2  0
  5 11  1  0
  6  5  1  0
  7  9  1  0
  7  6  1  0
  7  8  1  1
  9 18  1  0
 10  9  2  0
 11 12  2  0
 12  2  1  0
 14 13  1  6
 14 15  1  0
 17 16  1  1
 16 14  1  0
 18 17  1  0
 19 17  1  0
 19 20  2  0
 22 21  1  6
 22 24  1  0
 23 22  1  0
 24 25  1  6
 24 26  1  0
 25 19  1  0
 26 27  1  0
 28 26  2  0
M  END
$$$$
