YLV.pdb
     RDKit          3D

 28 28  0  0  1  0  0  0  0  0999 V2000
    8.6879  -13.4478   15.8524 O   0  0  0  0  0  0  0  0  0  0  0  0
    8.2894  -13.7718   17.1469 C   0  0  0  0  0  0  0  0  0  0  0  0
    7.2228  -13.1185   17.7103 C   0  0  0  0  0  0  0  0  0  0  0  0
    6.8351  -13.4436   18.9886 C   0  0  0  0  0  0  0  0  0  0  0  0
    7.5181  -14.4209   19.6948 C   0  0  0  0  0  0  0  0  0  0  0  0
    7.0932  -14.7652   21.0730 C   0  0  0  0  0  0  0  0  0  0  0  0
    7.0139  -16.2692   21.2602 C   0  0  2  0  0  0  0  0  0  0  0  0
    5.9153  -16.7706   20.4598 N   0  0  0  0  0  0  0  0  0  0  0  0
    6.7573  -16.5178   22.7212 C   0  0  0  0  0  0  0  0  0  0  0  0
    5.6481  -16.9526   23.0992 O   0  0  0  0  0  0  0  0  0  0  0  0
    8.5834  -15.0709   19.1275 C   0  0  0  0  0  0  0  0  0  0  0  0
    8.9775  -14.7477   17.8418 C   0  0  0  0  0  0  0  0  0  0  0  0
    8.0584  -20.7247   25.5052 C   0  0  0  0  0  0  0  0  0  0  0  0
    7.9218  -19.2739   25.9509 C   0  0  2  0  0  0  0  0  0  0  0  0
    6.6292  -19.1669   26.7209 C   0  0  0  0  0  0  0  0  0  0  0  0
    7.8659  -18.4334   24.7059 C   0  0  0  0  0  0  0  0  0  0  0  0
    7.7581  -16.9595   24.9820 C   0  0  2  0  0  0  0  0  0  0  0  0
    7.7578  -16.2662   23.6850 N   0  0  0  0  0  0  0  0  0  0  0  0
    8.8812  -16.4246   25.7684 C   0  0  0  0  0  0  0  0  0  0  0  0
   10.0854  -16.6788   25.5092 O   0  0  0  0  0  0  0  0  0  0  0  0
    8.5950  -12.7734   27.2880 C   0  0  0  0  0  0  0  0  0  0  0  0
    9.3339  -13.6389   28.2817 C   0  0  1  0  0  0  0  0  0  0  0  0
    8.5448  -13.8786   29.5305 C   0  0  0  0  0  0  0  0  0  0  0  0
    9.7519  -14.9209   27.5980 C   0  0  2  0  0  0  0  0  0  0  0  0
    8.6734  -15.5607   26.9054 N   0  0  0  0  0  0  0  0  0  0  0  0
   10.4407  -15.8251   28.5503 C   0  0  0  0  0  0  0  0  0  0  0  0
   11.6825  -15.5812   29.1128 O   0  0  0  0  0  0  0  0  0  0  0  0
    9.8553  -16.8883   28.8692 O   0  0  0  0  0  0  0  0  0  0  0  0
  2  1  1  0
  3  2  2  0
  4  3  1  0
  5  4  2  0
  5 11  1  0
  6  5  1  0
  7  9  1  0
  7  6  1  0
  7  8  1  6
  9 18  1  0
 10  9  2  0
 11 12  2  0
 12  2  1  0
 14 13  1  6
 14 15  1  0
 17 16  1  6
 16 14  1  0
 18 17  1  0
 19 17  1  0
 19 20  2  0
 22 21  1  6
 22 24  1  0
 23 22  1  0
 24 25  1  1
 24 26  1  0
 25 19  1  0
 26 27  1  0
 28 26  2  0
M  END
$$$$
