YLV.pdb
     RDKit          3D

 28 28  0  0  1  0  0  0  0  0999 V2000
    6.0913  -20.7283   17.9144 O   0  0  0  0  0  0  0  0  0  0  0  0
    6.6323  -20.0440   19.0000 C   0  0  0  0  0  0  0  0  0  0  0  0
    7.7346  -19.2481   18.8173 C   0  0  0  0  0  0  0  0  0  0  0  0
    8.2632  -18.5756   19.8936 C   0  0  0  0  0  0  0  0  0  0  0  0
    7.6845  -18.7043   21.1462 C   0  0  0  0  0  0  0  0  0  0  0  0
    8.2612  -17.9753   22.3013 C   0  0  0  0  0  0  0  0  0  0  0  0
    8.2978  -16.4806   22.0405 C   0  0  2  0  0  0  0  0  0  0  0  0
    9.1899  -16.2344   20.9259 N   0  0  0  0  0  0  0  0  0  0  0  0
    8.8236  -15.8287   23.2897 C   0  0  0  0  0  0  0  0  0  0  0  0
   10.0086  -15.4346   23.3418 O   0  0  0  0  0  0  0  0  0  0  0  0
    6.5831  -19.5008   21.3236 C   0  0  0  0  0  0  0  0  0  0  0  0
    6.0474  -20.1795   20.2442 C   0  0  0  0  0  0  0  0  0  0  0  0
    7.8573  -11.9787   25.5103 C   0  0  0  0  0  0  0  0  0  0  0  0
    6.7404  -13.0133   25.4447 C   0  0  2  0  0  0  0  0  0  0  0  0
    5.5396  -12.4128   26.1323 C   0  0  0  0  0  0  0  0  0  0  0  0
    7.2209  -14.2288   26.1871 C   0  0  0  0  0  0  0  0  0  0  0  0
    8.4400  -14.8616   25.5757 C   0  0  2  0  0  0  0  0  0  0  0  0
    7.9938  -15.6515   24.4181 N   0  0  0  0  0  0  0  0  0  0  0  0
    9.1484  -15.7748   26.4868 C   0  0  0  0  0  0  0  0  0  0  0  0
    9.5678  -15.4273   27.6205 O   0  0  0  0  0  0  0  0  0  0  0  0
   10.2663  -19.6884   25.1661 C   0  0  0  0  0  0  0  0  0  0  0  0
   11.0749  -18.9538   26.2096 C   0  0  1  0  0  0  0  0  0  0  0  0
   12.2520  -18.2391   25.6234 C   0  0  0  0  0  0  0  0  0  0  0  0
   10.1567  -18.0342   26.9821 C   0  0  2  0  0  0  0  0  0  0  0  0
    9.4131  -17.1492   26.1358 N   0  0  0  0  0  0  0  0  0  0  0  0
   10.9009  -17.3209   28.0479 C   0  0  0  0  0  0  0  0  0  0  0  0
   11.5977  -17.9385   29.0729 O   0  0  0  0  0  0  0  0  0  0  0  0
   10.8986  -16.0662   28.0183 O   0  0  0  0  0  0  0  0  0  0  0  0
  2  1  1  0
  3  2  2  0
  4  3  1  0
  5  4  2  0
  5 11  1  0
  6  5  1  0
  7  9  1  0
  7  6  1  0
  7  8  1  6
  9 18  1  0
 10  9  2  0
 11 12  2  0
 12  2  1  0
 14 13  1  1
 14 15  1  0
 17 16  1  1
 16 14  1  0
 18 17  1  0
 19 17  1  0
 19 20  2  0
 22 21  1  6
 22 24  1  0
 23 22  1  0
 24 25  1  6
 24 26  1  0
 25 19  1  0
 26 27  1  0
 28 26  2  0
M  END
$$$$
