KGP.pdb
     RDKit          3D

 21 21  0  0  1  0  0  0  0  0999 V2000
   15.0160  -19.8142    2.6199 N   0  0  0  0  0  0  0  0  0  0  0  0
   15.8464  -20.9573    2.8092 C   0  0  1  0  0  0  0  0  0  0  0  0
   15.9642  -21.8397    1.6211 C   0  0  0  0  0  0  0  0  0  0  0  0
   14.7698  -22.6214    1.2306 C   0  0  0  0  0  0  0  0  0  0  0  0
   14.7821  -24.0647    1.6459 C   0  0  0  0  0  0  0  0  0  0  0  0
   13.5310  -24.8124    1.2215 C   0  0  0  0  0  0  0  0  0  0  0  0
   13.6140  -26.1363    1.7937 N   0  0  0  0  0  0  0  0  0  0  0  0
   17.1791  -20.6006    3.3985 C   0  0  0  0  0  0  0  0  0  0  0  0
   17.9894  -21.4682    3.8151 O   0  0  0  0  0  0  0  0  0  0  0  0
   17.5964  -19.2442    3.5160 N   0  0  0  0  0  0  0  0  0  0  0  0
   18.8027  -18.8627    4.2207 C   0  0  0  0  0  0  0  0  0  0  0  0
   18.5245  -18.8114    5.6999 C   0  0  0  0  0  0  0  0  0  0  0  0
   17.3869  -19.1424    6.1266 O   0  0  0  0  0  0  0  0  0  0  0  0
   19.5501  -18.3905    6.5880 N   0  0  0  0  0  0  0  0  0  0  0  0
   20.9214  -18.0959    6.2289 C   0  0  0  0  0  0  0  0  0  0  0  0
   21.7206  -18.1096    7.4932 C   0  0  0  0  0  0  0  0  0  0  0  0
   20.7663  -18.6983    8.5118 C   0  0  0  0  0  0  0  0  0  0  0  0
   19.4256  -18.1777    8.0032 C   0  0  1  0  0  0  0  0  0  0  0  0
   19.3600  -16.7396    8.3106 C   0  0  0  0  0  0  0  0  0  0  0  0
   19.7682  -15.9192    7.4514 O   0  0  0  0  0  0  0  0  0  0  0  0
   18.8664  -16.2560    9.5088 O   0  0  0  0  0  0  0  0  0  0  0  0
  2  8  1  0
  2  1  1  6
  3  2  1  0
  4  3  1  0
  5  4  1  0
  6  5  1  0
  7  6  1  0
  8  9  2  0
 10  8  1  0
 10 11  1  0
 12 14  1  0
 12 11  1  0
 13 12  2  0
 14 18  1  0
 15 14  1  0
 15 16  1  0
 16 17  1  0
 18 19  1  6
 18 17  1  0
 19 21  1  0
 20 19  2  0
M  END
$$$$
