KGP.pdb
     RDKit          3D

 21 21  0  0  1  0  0  0  0  0999 V2000
   20.4101  -20.7583  -12.3439 N   0  0  0  0  0  0  0  0  0  0  0  0
   21.1094  -21.7002  -13.1536 C   0  0  1  0  0  0  0  0  0  0  0  0
   20.9224  -21.5186  -14.6151 C   0  0  0  0  0  0  0  0  0  0  0  0
   20.6898  -20.1424  -15.1075 C   0  0  0  0  0  0  0  0  0  0  0  0
   19.2543  -19.7014  -15.1289 C   0  0  0  0  0  0  0  0  0  0  0  0
   19.0477  -18.3980  -15.8791 C   0  0  0  0  0  0  0  0  0  0  0  0
   17.6585  -18.0341  -15.7218 N   0  0  0  0  0  0  0  0  0  0  0  0
   22.5537  -21.8211  -12.7665 C   0  0  0  0  0  0  0  0  0  0  0  0
   23.3405  -22.6257  -13.3291 O   0  0  0  0  0  0  0  0  0  0  0  0
   23.1108  -21.0199  -11.7294 N   0  0  0  0  0  0  0  0  0  0  0  0
   24.5230  -21.0389  -11.4091 C   0  0  0  0  0  0  0  0  0  0  0  0
   25.2898  -20.3061  -12.4782 C   0  0  0  0  0  0  0  0  0  0  0  0
   24.6980  -19.4483  -13.1851 O   0  0  0  0  0  0  0  0  0  0  0  0
   26.6672  -20.5951  -12.6706 N   0  0  0  0  0  0  0  0  0  0  0  0
   27.4268  -21.6211  -11.9876 C   0  0  0  0  0  0  0  0  0  0  0  0
   28.8746  -21.2965  -12.1763 C   0  0  0  0  0  0  0  0  0  0  0  0
   28.8536  -19.8973  -12.7566 C   0  0  0  0  0  0  0  0  0  0  0  0
   27.5655  -19.9301  -13.5731 C   0  0  1  0  0  0  0  0  0  0  0  0
   27.8141  -20.7572  -14.7652 C   0  0  0  0  0  0  0  0  0  0  0  0
   27.4296  -21.9531  -14.7614 O   0  0  0  0  0  0  0  0  0  0  0  0
   28.4548  -20.2693  -15.8896 O   0  0  0  0  0  0  0  0  0  0  0  0
  2  8  1  0
  2  1  1  1
  3  2  1  0
  4  3  1  0
  5  4  1  0
  6  5  1  0
  7  6  1  0
  8  9  2  0
 10  8  1  0
 10 11  1  0
 12 14  1  0
 12 11  1  0
 13 12  2  0
 14 18  1  0
 15 14  1  0
 15 16  1  0
 16 17  1  0
 18 19  1  6
 18 17  1  0
 19 21  1  0
 20 19  2  0
M  END
$$$$
