KGP.pdb
     RDKit          3D

 21 21  0  0  1  0  0  0  0  0999 V2000
   22.9014  -22.2674  -13.0322 N   0  0  0  0  0  0  0  0  0  0  0  0
   22.8149  -20.9527  -13.5762 C   0  0  1  0  0  0  0  0  0  0  0  0
   23.9934  -20.5358  -14.3770 C   0  0  0  0  0  0  0  0  0  0  0  0
   24.4558  -21.4556  -15.4402 C   0  0  0  0  0  0  0  0  0  0  0  0
   25.8695  -21.9426  -15.2989 C   0  0  0  0  0  0  0  0  0  0  0  0
   26.2656  -22.9293  -16.3824 C   0  0  0  0  0  0  0  0  0  0  0  0
   27.6201  -23.3458  -16.1015 N   0  0  0  0  0  0  0  0  0  0  0  0
   21.5175  -20.7178  -14.2920 C   0  0  0  0  0  0  0  0  0  0  0  0
   20.6978  -21.6424  -14.5289 O   0  0  0  0  0  0  0  0  0  0  0  0
   21.1469  -19.4192  -14.7438 N   0  0  0  0  0  0  0  0  0  0  0  0
   21.2503  -19.0231  -16.1329 C   0  0  0  0  0  0  0  0  0  0  0  0
   20.9225  -17.5590  -16.2628 C   0  0  0  0  0  0  0  0  0  0  0  0
   20.8269  -16.8527  -15.2246 O   0  0  0  0  0  0  0  0  0  0  0  0
   20.7266  -17.0001  -17.5540 N   0  0  0  0  0  0  0  0  0  0  0  0
   20.6756  -17.7330  -18.8016 C   0  0  0  0  0  0  0  0  0  0  0  0
   20.8781  -16.7417  -19.9033 C   0  0  0  0  0  0  0  0  0  0  0  0
   21.3167  -15.4866  -19.1774 C   0  0  0  0  0  0  0  0  0  0  0  0
   20.5428  -15.6106  -17.8686 C   0  0  1  0  0  0  0  0  0  0  0  0
   19.1283  -15.3240  -18.1581 C   0  0  0  0  0  0  0  0  0  0  0  0
   18.7765  -14.1302  -18.3282 O   0  0  0  0  0  0  0  0  0  0  0  0
   18.1709  -16.3180  -18.2503 O   0  0  0  0  0  0  0  0  0  0  0  0
  2  8  1  0
  2  1  1  6
  3  2  1  0
  4  3  1  0
  5  4  1  0
  6  5  1  0
  7  6  1  0
  8  9  2  0
 10  8  1  0
 10 11  1  0
 12 14  1  0
 12 11  1  0
 13 12  2  0
 14 18  1  0
 15 14  1  0
 15 16  1  0
 16 17  1  0
 18 19  1  6
 18 17  1  0
 19 21  1  0
 20 19  2  0
M  END
$$$$
