KGP.pdb
     RDKit          3D

 21 21  0  0  1  0  0  0  0  0999 V2000
   17.0677  -14.4405  -18.2379 N   0  0  0  0  0  0  0  0  0  0  0  0
   18.0668  -14.3711  -17.2236 C   0  0  1  0  0  0  0  0  0  0  0  0
   18.8828  -15.6022  -17.0739 C   0  0  0  0  0  0  0  0  0  0  0  0
   18.2115  -16.8037  -16.5298 C   0  0  0  0  0  0  0  0  0  0  0  0
   19.1215  -17.9475  -16.1844 C   0  0  0  0  0  0  0  0  0  0  0  0
   18.3696  -19.1801  -15.7158 C   0  0  0  0  0  0  0  0  0  0  0  0
   19.3580  -20.1386  -15.2783 N   0  0  0  0  0  0  0  0  0  0  0  0
   18.9054  -13.1321  -17.3355 C   0  0  0  0  0  0  0  0  0  0  0  0
   18.9956  -12.4694  -18.4012 O   0  0  0  0  0  0  0  0  0  0  0  0
   19.6496  -12.6403  -16.2255 N   0  0  0  0  0  0  0  0  0  0  0  0
   20.4884  -11.4632  -16.3152 C   0  0  0  0  0  0  0  0  0  0  0  0
   19.9676  -10.4037  -15.3802 C   0  0  0  0  0  0  0  0  0  0  0  0
   18.9336  -10.6344  -14.6994 O   0  0  0  0  0  0  0  0  0  0  0  0
   20.6516   -9.1626  -15.2825 N   0  0  0  0  0  0  0  0  0  0  0  0
   21.8119   -8.7654  -16.0520 C   0  0  0  0  0  0  0  0  0  0  0  0
   22.4327   -7.6027  -15.3449 C   0  0  0  0  0  0  0  0  0  0  0  0
   21.7125   -7.5699  -14.0126 C   0  0  0  0  0  0  0  0  0  0  0  0
   20.3267   -8.0703  -14.4078 C   0  0  1  0  0  0  0  0  0  0  0  0
   19.6571   -6.9895  -15.1497 C   0  0  0  0  0  0  0  0  0  0  0  0
   19.1393   -6.0446  -14.5039 O   0  0  0  0  0  0  0  0  0  0  0  0
   19.5758   -6.9733  -16.5303 O   0  0  0  0  0  0  0  0  0  0  0  0
  2  8  1  0
  2  1  1  6
  3  2  1  0
  4  3  1  0
  5  4  1  0
  6  5  1  0
  7  6  1  0
  8  9  2  0
 10  8  1  0
 10 11  1  0
 12 14  1  0
 12 11  1  0
 13 12  2  0
 14 18  1  0
 15 14  1  0
 15 16  1  0
 16 17  1  0
 18 19  1  6
 18 17  1  0
 19 21  1  0
 20 19  2  0
M  END
$$$$
