KGP.pdb
     RDKit          3D

 21 21  0  0  1  0  0  0  0  0999 V2000
   25.2264  -19.2071  -18.4362 N   0  0  0  0  0  0  0  0  0  0  0  0
   25.7983  -18.1157  -17.7195 C   0  0  1  0  0  0  0  0  0  0  0  0
   25.3581  -16.7748  -18.1800 C   0  0  0  0  0  0  0  0  0  0  0  0
   24.8810  -16.6553  -19.5758 C   0  0  0  0  0  0  0  0  0  0  0  0
   23.5051  -16.0751  -19.7374 C   0  0  0  0  0  0  0  0  0  0  0  0
   23.0554  -16.0156  -21.1860 C   0  0  0  0  0  0  0  0  0  0  0  0
   21.6838  -15.5619  -21.1856 N   0  0  0  0  0  0  0  0  0  0  0  0
   25.6767  -18.2851  -16.2338 C   0  0  0  0  0  0  0  0  0  0  0  0
   24.5748  -18.4958  -15.6643 O   0  0  0  0  0  0  0  0  0  0  0  0
   26.8184  -18.2146  -15.3856 N   0  0  0  0  0  0  0  0  0  0  0  0
   26.7504  -18.5059  -13.9687 C   0  0  0  0  0  0  0  0  0  0  0  0
   26.3751  -19.9510  -13.7711 C   0  0  0  0  0  0  0  0  0  0  0  0
   26.5202  -20.7628  -14.7228 O   0  0  0  0  0  0  0  0  0  0  0  0
   25.8640  -20.3731  -12.5148 N   0  0  0  0  0  0  0  0  0  0  0  0
   25.5936  -19.5226  -11.3747 C   0  0  0  0  0  0  0  0  0  0  0  0
   25.4814  -20.4126  -10.1778 C   0  0  0  0  0  0  0  0  0  0  0  0
   25.9788  -21.7518  -10.6816 C   0  0  0  0  0  0  0  0  0  0  0  0
   25.5194  -21.7152  -12.1358 C   0  0  1  0  0  0  0  0  0  0  0  0
   24.0593  -21.9018  -12.1470 C   0  0  0  0  0  0  0  0  0  0  0  0
   23.3212  -20.8870  -12.2049 O   0  0  0  0  0  0  0  0  0  0  0  0
   23.4679  -23.1511  -12.0963 O   0  0  0  0  0  0  0  0  0  0  0  0
  2  8  1  0
  2  1  1  6
  3  2  1  0
  4  3  1  0
  5  4  1  0
  6  5  1  0
  7  6  1  0
  8  9  2  0
 10  8  1  0
 10 11  1  0
 12 14  1  0
 12 11  1  0
 13 12  2  0
 14 18  1  0
 15 14  1  0
 15 16  1  0
 16 17  1  0
 18 19  1  1
 18 17  1  0
 19 21  1  0
 20 19  2  0
M  END
$$$$
