KGP.pdb
     RDKit          3D

 21 21  0  0  1  0  0  0  0  0999 V2000
   29.0610  -21.8823  -15.9362 N   0  0  0  0  0  0  0  0  0  0  0  0
   28.3207  -20.9196  -16.6826 C   0  0  1  0  0  0  0  0  0  0  0  0
   27.3915  -21.4967  -17.6864 C   0  0  0  0  0  0  0  0  0  0  0  0
   26.8609  -22.8533  -17.4245 C   0  0  0  0  0  0  0  0  0  0  0  0
   25.8894  -22.9543  -16.2835 C   0  0  0  0  0  0  0  0  0  0  0  0
   25.4207  -24.3759  -16.0308 C   0  0  0  0  0  0  0  0  0  0  0  0
   24.6103  -24.3486  -14.8352 N   0  0  0  0  0  0  0  0  0  0  0  0
   27.6592  -19.9024  -15.8004 C   0  0  0  0  0  0  0  0  0  0  0  0
   28.0866  -19.6230  -14.6506 O   0  0  0  0  0  0  0  0  0  0  0  0
   26.4998  -19.1948  -16.2283 N   0  0  0  0  0  0  0  0  0  0  0  0
   26.0675  -17.9636  -15.6003 C   0  0  0  0  0  0  0  0  0  0  0  0
   25.5459  -17.0203  -16.6520 C   0  0  0  0  0  0  0  0  0  0  0  0
   25.5322  -17.3851  -17.8573 O   0  0  0  0  0  0  0  0  0  0  0  0
   25.0783  -15.7356  -16.2664 N   0  0  0  0  0  0  0  0  0  0  0  0
   25.1974  -15.1445  -14.9501 C   0  0  0  0  0  0  0  0  0  0  0  0
   24.2249  -14.0097  -14.8871 C   0  0  0  0  0  0  0  0  0  0  0  0
   23.3820  -14.1931  -16.1324 C   0  0  0  0  0  0  0  0  0  0  0  0
   24.4022  -14.7823  -17.1016 C   0  0  1  0  0  0  0  0  0  0  0  0
   25.3151  -13.6988  -17.5010 C   0  0  0  0  0  0  0  0  0  0  0  0
   26.4734  -13.6752  -17.0153 O   0  0  0  0  0  0  0  0  0  0  0  0
   24.9477  -12.7054  -18.3905 O   0  0  0  0  0  0  0  0  0  0  0  0
  2  8  1  0
  2  1  1  1
  3  2  1  0
  4  3  1  0
  5  4  1  0
  6  5  1  0
  7  6  1  0
  8  9  2  0
 10  8  1  0
 10 11  1  0
 12 14  1  0
 12 11  1  0
 13 12  2  0
 14 18  1  0
 15 14  1  0
 15 16  1  0
 16 17  1  0
 18 19  1  1
 18 17  1  0
 19 21  1  0
 20 19  2  0
M  END
$$$$
