KGP.pdb
     RDKit          3D

 21 21  0  0  1  0  0  0  0  0999 V2000
   21.7368  -18.8849  -18.3877 N   0  0  0  0  0  0  0  0  0  0  0  0
   22.8068  -18.0037  -18.0552 C   0  0  1  0  0  0  0  0  0  0  0  0
   22.5051  -16.5633  -18.2503 C   0  0  0  0  0  0  0  0  0  0  0  0
   22.6397  -16.0172  -19.6192 C   0  0  0  0  0  0  0  0  0  0  0  0
   24.0125  -16.1191  -20.2199 C   0  0  0  0  0  0  0  0  0  0  0  0
   24.1126  -15.4547  -21.5811 C   0  0  0  0  0  0  0  0  0  0  0  0
   25.4435  -15.7114  -22.0810 N   0  0  0  0  0  0  0  0  0  0  0  0
   23.3834  -18.2951  -16.7012 C   0  0  0  0  0  0  0  0  0  0  0  0
   22.7707  -18.0341  -15.6338 O   0  0  0  0  0  0  0  0  0  0  0  0
   24.6695  -18.8893  -16.5575 N   0  0  0  0  0  0  0  0  0  0  0  0
   25.2502  -19.1766  -15.2623 C   0  0  0  0  0  0  0  0  0  0  0  0
   24.4716  -20.2809  -14.5973 C   0  0  0  0  0  0  0  0  0  0  0  0
   23.5701  -20.8772  -15.2436 O   0  0  0  0  0  0  0  0  0  0  0  0
   24.7674  -20.6307  -13.2528 N   0  0  0  0  0  0  0  0  0  0  0  0
   25.7982  -20.0404  -12.4250 C   0  0  0  0  0  0  0  0  0  0  0  0
   26.0293  -20.9719  -11.2778 C   0  0  0  0  0  0  0  0  0  0  0  0
   25.2724  -22.2223  -11.6759 C   0  0  0  0  0  0  0  0  0  0  0  0
   24.1061  -21.6302  -12.4608 C   0  0  1  0  0  0  0  0  0  0  0  0
   23.1885  -21.0063  -11.4935 C   0  0  0  0  0  0  0  0  0  0  0  0
   23.2522  -19.7645  -11.3151 O   0  0  0  0  0  0  0  0  0  0  0  0
   22.2587  -21.7339  -10.7730 O   0  0  0  0  0  0  0  0  0  0  0  0
  2  8  1  0
  2  1  1  1
  3  2  1  0
  4  3  1  0
  5  4  1  0
  6  5  1  0
  7  6  1  0
  8  9  2  0
 10  8  1  0
 10 11  1  0
 12 14  1  0
 12 11  1  0
 13 12  2  0
 14 18  1  0
 15 14  1  0
 15 16  1  0
 16 17  1  0
 18 19  1  1
 18 17  1  0
 19 21  1  0
 20 19  2  0
M  END
$$$$
