KGP.pdb
     RDKit          3D

 21 21  0  0  1  0  0  0  0  0999 V2000
   29.6116  -31.4560  -19.2039 N   0  0  0  0  0  0  0  0  0  0  0  0
   29.8698  -30.1196  -18.7805 C   0  0  1  0  0  0  0  0  0  0  0  0
   30.6905  -29.3195  -19.7241 C   0  0  0  0  0  0  0  0  0  0  0  0
   32.0742  -29.7769  -19.9818 C   0  0  0  0  0  0  0  0  0  0  0  0
   33.1067  -29.2806  -19.0106 C   0  0  0  0  0  0  0  0  0  0  0  0
   34.5103  -29.7488  -19.3498 C   0  0  0  0  0  0  0  0  0  0  0  0
   35.3983  -29.1730  -18.3664 N   0  0  0  0  0  0  0  0  0  0  0  0
   28.6204  -29.4070  -18.3540 C   0  0  0  0  0  0  0  0  0  0  0  0
   27.6223  -29.2791  -19.1092 O   0  0  0  0  0  0  0  0  0  0  0  0
   28.5029  -28.8333  -17.0559 N   0  0  0  0  0  0  0  0  0  0  0  0
   27.3442  -28.0655  -16.6499 C   0  0  0  0  0  0  0  0  0  0  0  0
   27.1939  -26.8690  -17.5520 C   0  0  0  0  0  0  0  0  0  0  0  0
   28.0128  -26.6982  -18.4934 O   0  0  0  0  0  0  0  0  0  0  0  0
   26.1314  -25.9540  -17.3255 N   0  0  0  0  0  0  0  0  0  0  0  0
   25.0974  -26.0797  -16.3197 C   0  0  0  0  0  0  0  0  0  0  0  0
   23.9891  -25.1538  -16.7091 C   0  0  0  0  0  0  0  0  0  0  0  0
   24.3556  -24.7314  -18.1169 C   0  0  0  0  0  0  0  0  0  0  0  0
   25.8793  -24.7365  -18.0451 C   0  0  1  0  0  0  0  0  0  0  0  0
   26.2923  -23.5670  -17.2523 C   0  0  0  0  0  0  0  0  0  0  0  0
   26.6455  -23.7403  -16.0593 O   0  0  0  0  0  0  0  0  0  0  0  0
   26.3068  -22.2843  -17.7694 O   0  0  0  0  0  0  0  0  0  0  0  0
  2  8  1  0
  2  1  1  6
  3  2  1  0
  4  3  1  0
  5  4  1  0
  6  5  1  0
  7  6  1  0
  8  9  2  0
 10  8  1  0
 10 11  1  0
 12 14  1  0
 12 11  1  0
 13 12  2  0
 14 18  1  0
 15 14  1  0
 15 16  1  0
 16 17  1  0
 18 19  1  1
 18 17  1  0
 19 21  1  0
 20 19  2  0
M  END
$$$$
