KGP.pdb
     RDKit          3D

 21 21  0  0  1  0  0  0  0  0999 V2000
   22.5914  -19.6770  -15.6186 N   0  0  0  0  0  0  0  0  0  0  0  0
   22.7050  -21.0965  -15.5555 C   0  0  1  0  0  0  0  0  0  0  0  0
   22.4841  -21.7927  -16.8480 C   0  0  0  0  0  0  0  0  0  0  0  0
   21.6277  -21.1180  -17.8488 C   0  0  0  0  0  0  0  0  0  0  0  0
   20.4985  -20.3043  -17.2844 C   0  0  0  0  0  0  0  0  0  0  0  0
   19.5891  -19.7321  -18.3568 C   0  0  0  0  0  0  0  0  0  0  0  0
   18.5454  -18.9977  -17.6797 N   0  0  0  0  0  0  0  0  0  0  0  0
   23.9652  -21.5361  -14.8704 C   0  0  0  0  0  0  0  0  0  0  0  0
   24.2079  -22.7423  -14.6079 O   0  0  0  0  0  0  0  0  0  0  0  0
   24.9607  -20.5959  -14.4791 N   0  0  0  0  0  0  0  0  0  0  0  0
   26.1442  -20.9829  -13.7396 C   0  0  0  0  0  0  0  0  0  0  0  0
   25.7779  -21.2291  -12.2998 C   0  0  0  0  0  0  0  0  0  0  0  0
   24.6521  -21.7215  -12.0241 O   0  0  0  0  0  0  0  0  0  0  0  0
   26.7085  -20.9017  -11.2777 N   0  0  0  0  0  0  0  0  0  0  0  0
   28.0124  -20.3031  -11.4715 C   0  0  0  0  0  0  0  0  0  0  0  0
   28.7909  -20.5261  -10.2139 C   0  0  0  0  0  0  0  0  0  0  0  0
   27.9421  -21.5134   -9.4396 C   0  0  0  0  0  0  0  0  0  0  0  0
   26.5368  -21.1000   -9.8654 C   0  0  1  0  0  0  0  0  0  0  0  0
   26.2236  -19.8278   -9.1943 C   0  0  0  0  0  0  0  0  0  0  0  0
   26.3058  -18.7614   -9.8531 O   0  0  0  0  0  0  0  0  0  0  0  0
   25.8424  -19.7604   -7.8665 O   0  0  0  0  0  0  0  0  0  0  0  0
  2  8  1  0
  2  1  1  6
  3  2  1  0
  4  3  1  0
  5  4  1  0
  6  5  1  0
  7  6  1  0
  8  9  2  0
 10  8  1  0
 10 11  1  0
 12 14  1  0
 12 11  1  0
 13 12  2  0
 14 18  1  0
 15 14  1  0
 15 16  1  0
 16 17  1  0
 18 19  1  1
 18 17  1  0
 19 21  1  0
 20 19  2  0
M  END
$$$$
