WMG.pdb
     RDKit          3D

 27 28  0  0  1  0  0  0  0  0999 V2000
   17.7685  -26.8925   -4.6301 N   0  0  0  0  0  0  0  0  0  0  0  0
   16.9804  -26.6846   -3.3933 C   0  0  1  0  0  0  0  0  0  0  0  0
   15.6490  -26.1412   -3.7979 C   0  0  0  0  0  0  0  0  0  0  0  0
   15.3280  -24.8785   -3.0917 C   0  0  0  0  0  0  0  0  0  0  0  0
   15.3906  -23.5988   -3.6722 C   0  0  0  0  0  0  0  0  0  0  0  0
   15.0035  -22.6951   -2.7652 N   0  0  0  0  0  0  0  0  0  0  0  0
   14.6767  -23.2887   -1.5845 C   0  0  0  0  0  0  0  0  0  0  0  0
   14.2392  -22.7961   -0.3756 C   0  0  0  0  0  0  0  0  0  0  0  0
   13.9944  -23.6562    0.6633 C   0  0  0  0  0  0  0  0  0  0  0  0
   14.1964  -25.0067    0.4646 C   0  0  0  0  0  0  0  0  0  0  0  0
   14.6340  -25.4967   -0.7469 C   0  0  0  0  0  0  0  0  0  0  0  0
   14.8884  -24.6489   -1.8154 C   0  0  0  0  0  0  0  0  0  0  0  0
   16.9998  -27.9224   -2.6386 C   0  0  0  0  0  0  0  0  0  0  0  0
   16.5202  -29.0013   -3.1358 O   0  0  0  0  0  0  0  0  0  0  0  0
   22.1924  -30.6309   -2.8351 C   0  0  0  0  0  0  0  0  0  0  0  0
   21.2406  -29.6088   -1.6429 S   0  0  0  0  0  0  0  0  0  0  0  0
   19.6545  -30.4547   -1.2589 C   0  0  0  0  0  0  0  0  0  0  0  0
   18.9644  -29.6012   -0.2593 C   0  0  0  0  0  0  0  0  0  0  0  0
   17.4850  -29.3357   -0.5915 C   0  0  2  0  0  0  0  0  0  0  0  0
   17.5283  -28.0855   -1.3270 N   0  0  0  0  0  0  0  0  0  0  0  0
   16.6518  -29.2785    0.6111 C   0  0  0  0  0  0  0  0  0  0  0  0
   17.0767  -28.6579    1.6291 O   0  0  0  0  0  0  0  0  0  0  0  0
   15.3697  -29.8893    0.7052 N   0  0  0  0  0  0  0  0  0  0  0  0
   15.1126  -30.8267    1.7731 C   0  0  0  0  0  0  0  0  0  0  0  0
   15.1351  -30.1201    3.0550 C   0  0  0  0  0  0  0  0  0  0  0  0
   15.1462  -30.8292    4.2398 O   0  0  0  0  0  0  0  0  0  0  0  0
   15.1460  -28.8585    3.1526 O   0  0  0  0  0  0  0  0  0  0  0  0
  2  3  1  0
  2  1  1  6
  4  5  2  0
  4  3  1  0
  6  5  1  0
  7 12  2  0
  7  6  1  0
  8  7  1  0
  9 10  1  0
  9  8  2  0
 10 11  2  0
 11 12  1  0
 12  4  1  0
 13  2  1  0
 14 13  2  0
 16 15  1  0
 17 16  1  0
 18 17  1  0
 19 18  1  1
 19 20  1  0
 20 13  1  0
 21 19  1  0
 21 22  2  0
 23 21  1  0
 24 23  1  0
 24 25  1  0
 25 27  2  0
 25 26  1  0
M  END
$$$$
