WMG.pdb
     RDKit          3D

 27 28  0  0  1  0  0  0  0  0999 V2000
   21.4279  -20.2752  -13.3375 N   0  0  0  0  0  0  0  0  0  0  0  0
   22.5440  -20.0510  -14.2851 C   0  0  1  0  0  0  0  0  0  0  0  0
   22.1733  -18.8867  -15.1447 C   0  0  0  0  0  0  0  0  0  0  0  0
   21.0045  -19.1836  -16.0059 C   0  0  0  0  0  0  0  0  0  0  0  0
   19.7049  -18.6911  -15.7887 C   0  0  0  0  0  0  0  0  0  0  0  0
   18.9094  -19.1269  -16.7718 N   0  0  0  0  0  0  0  0  0  0  0  0
   19.5968  -19.8980  -17.6585 C   0  0  0  0  0  0  0  0  0  0  0  0
   19.2284  -20.5651  -18.8051 C   0  0  0  0  0  0  0  0  0  0  0  0
   20.1606  -21.2879  -19.5033 C   0  0  0  0  0  0  0  0  0  0  0  0
   21.4564  -21.3263  -19.0306 C   0  0  0  0  0  0  0  0  0  0  0  0
   21.8221  -20.6571  -17.8826 C   0  0  0  0  0  0  0  0  0  0  0  0
   20.8992  -19.9173  -17.1572 C   0  0  0  0  0  0  0  0  0  0  0  0
   23.7697  -19.9554  -13.5164 C   0  0  0  0  0  0  0  0  0  0  0  0
   24.0667  -18.8800  -12.8867 O   0  0  0  0  0  0  0  0  0  0  0  0
   24.0359  -20.7089   -8.6881 C   0  0  0  0  0  0  0  0  0  0  0  0
   24.4999  -21.5260  -10.2658 S   0  0  0  0  0  0  0  0  0  0  0  0
   26.2492  -21.1217  -10.6596 C   0  0  0  0  0  0  0  0  0  0  0  0
   26.5107  -21.6927  -12.0048 C   0  0  0  0  0  0  0  0  0  0  0  0
   26.1532  -20.7396  -13.1595 C   0  0  2  0  0  0  0  0  0  0  0  0
   24.7388  -20.9875  -13.3698 N   0  0  0  0  0  0  0  0  0  0  0  0
   26.9729  -20.9821  -14.3481 C   0  0  0  0  0  0  0  0  0  0  0  0
   28.1430  -21.4442  -14.2089 O   0  0  0  0  0  0  0  0  0  0  0  0
   26.5243  -20.7256  -15.6743 N   0  0  0  0  0  0  0  0  0  0  0  0
   27.4269  -20.9498  -16.7790 C   0  0  0  0  0  0  0  0  0  0  0  0
   27.3617  -19.8117  -17.6975 C   0  0  0  0  0  0  0  0  0  0  0  0
   28.1173  -19.8067  -18.8533 O   0  0  0  0  0  0  0  0  0  0  0  0
   26.6331  -18.7971  -17.4957 O   0  0  0  0  0  0  0  0  0  0  0  0
  2  3  1  0
  2  1  1  1
  4  5  2  0
  4  3  1  0
  6  5  1  0
  7 12  2  0
  7  6  1  0
  8  7  1  0
  9 10  1  0
  9  8  2  0
 10 11  2  0
 11 12  1  0
 12  4  1  0
 13  2  1  0
 14 13  2  0
 16 15  1  0
 17 16  1  0
 18 17  1  0
 19 18  1  1
 19 20  1  0
 20 13  1  0
 21 19  1  0
 21 22  2  0
 23 21  1  0
 24 23  1  0
 24 25  1  0
 25 27  2  0
 25 26  1  0
M  END
$$$$
