WMG.pdb
     RDKit          3D

 27 28  0  0  1  0  0  0  0  0999 V2000
   26.4374  -20.8032  -15.7368 N   0  0  0  0  0  0  0  0  0  0  0  0
   25.8706  -21.0565  -14.3920 C   0  0  1  0  0  0  0  0  0  0  0  0
   26.1034  -19.8304  -13.5707 C   0  0  0  0  0  0  0  0  0  0  0  0
   27.3635  -19.9138  -12.7953 C   0  0  0  0  0  0  0  0  0  0  0  0
   28.6266  -19.5251  -13.2769 C   0  0  0  0  0  0  0  0  0  0  0  0
   29.5305  -19.7019  -12.3068 N   0  0  0  0  0  0  0  0  0  0  0  0
   28.9527  -20.1952  -11.1771 C   0  0  0  0  0  0  0  0  0  0  0  0
   29.4522  -20.5424   -9.9421 C   0  0  0  0  0  0  0  0  0  0  0  0
   28.6097  -21.0337   -8.9788 C   0  0  0  0  0  0  0  0  0  0  0  0
   27.2696  -21.1678   -9.2791 C   0  0  0  0  0  0  0  0  0  0  0  0
   26.7726  -20.8190  -10.5164 C   0  0  0  0  0  0  0  0  0  0  0  0
   27.6026  -20.3182  -11.5091 C   0  0  0  0  0  0  0  0  0  0  0  0
   24.5012  -21.5016  -14.5616 C   0  0  0  0  0  0  0  0  0  0  0  0
   23.7348  -20.9501  -15.4275 O   0  0  0  0  0  0  0  0  0  0  0  0
   20.2249  -27.9587  -14.8053 C   0  0  0  0  0  0  0  0  0  0  0  0
   21.7411  -27.0187  -14.3704 S   0  0  0  0  0  0  0  0  0  0  0  0
   21.3551  -25.2215  -14.3735 C   0  0  0  0  0  0  0  0  0  0  0  0
   22.6452  -24.5230  -14.1467 C   0  0  0  0  0  0  0  0  0  0  0  0
   22.5116  -22.9916  -14.0667 C   0  0  2  0  0  0  0  0  0  0  0  0
   23.8741  -22.5505  -13.8318 N   0  0  0  0  0  0  0  0  0  0  0  0
   21.5732  -22.5740  -13.0232 C   0  0  0  0  0  0  0  0  0  0  0  0
   21.9626  -22.5383  -11.8194 O   0  0  0  0  0  0  0  0  0  0  0  0
   20.2259  -22.1985  -13.2865 N   0  0  0  0  0  0  0  0  0  0  0  0
   19.3468  -21.9062  -12.1787 C   0  0  0  0  0  0  0  0  0  0  0  0
   18.7700  -23.1537  -11.6746 C   0  0  0  0  0  0  0  0  0  0  0  0
   18.6674  -23.3730  -10.3152 O   0  0  0  0  0  0  0  0  0  0  0  0
   18.3439  -24.0764  -12.4285 O   0  0  0  0  0  0  0  0  0  0  0  0
  2  3  1  0
  2  1  1  6
  4  5  2  0
  4  3  1  0
  6  5  1  0
  7 12  2  0
  7  6  1  0
  8  7  1  0
  9 10  1  0
  9  8  2  0
 10 11  2  0
 11 12  1  0
 12  4  1  0
 13  2  1  0
 14 13  2  0
 16 15  1  0
 17 16  1  0
 18 17  1  0
 19 18  1  1
 19 20  1  0
 20 13  1  0
 21 19  1  0
 21 22  2  0
 23 21  1  0
 24 23  1  0
 24 25  1  0
 25 27  2  0
 25 26  1  0
M  END
$$$$
