WMG.pdb
     RDKit          3D

 27 28  0  0  1  0  0  0  0  0999 V2000
   26.1665  -19.9513  -15.9327 N   0  0  0  0  0  0  0  0  0  0  0  0
   24.8009  -19.7203  -15.4077 C   0  0  1  0  0  0  0  0  0  0  0  0
   23.8566  -19.8163  -16.5614 C   0  0  0  0  0  0  0  0  0  0  0  0
   23.7759  -18.5450  -17.3187 C   0  0  0  0  0  0  0  0  0  0  0  0
   24.8222  -18.0037  -18.0872 C   0  0  0  0  0  0  0  0  0  0  0  0
   24.3956  -16.8722  -18.6591 N   0  0  0  0  0  0  0  0  0  0  0  0
   23.1041  -16.6047  -18.3221 C   0  0  0  0  0  0  0  0  0  0  0  0
   22.2432  -15.5795  -18.6435 C   0  0  0  0  0  0  0  0  0  0  0  0
   20.9709  -15.5716  -18.1333 C   0  0  0  0  0  0  0  0  0  0  0  0
   20.5859  -16.6039  -17.3024 C   0  0  0  0  0  0  0  0  0  0  0  0
   21.4500  -17.6289  -16.9829 C   0  0  0  0  0  0  0  0  0  0  0  0
   22.7426  -17.6622  -17.4860 C   0  0  0  0  0  0  0  0  0  0  0  0
   24.5930  -20.6232  -14.2924 C   0  0  0  0  0  0  0  0  0  0  0  0
   24.8472  -21.8738  -14.4048 O   0  0  0  0  0  0  0  0  0  0  0  0
   27.6851  -20.4110   -8.6251 C   0  0  0  0  0  0  0  0  0  0  0  0
   25.8612  -20.3925   -8.8379 S   0  0  0  0  0  0  0  0  0  0  0  0
   25.4462  -21.0152  -10.5168 C   0  0  0  0  0  0  0  0  0  0  0  0
   24.0010  -20.7379  -10.7129 C   0  0  0  0  0  0  0  0  0  0  0  0
   23.4699  -21.1778  -12.0891 C   0  0  2  0  0  0  0  0  0  0  0  0
   24.1122  -20.2532  -13.0048 N   0  0  0  0  0  0  0  0  0  0  0  0
   22.0076  -21.1431  -12.1523 C   0  0  0  0  0  0  0  0  0  0  0  0
   21.4032  -20.0593  -11.9031 O   0  0  0  0  0  0  0  0  0  0  0  0
   21.2111  -22.2750  -12.4839 N   0  0  0  0  0  0  0  0  0  0  0  0
   19.7757  -22.1314  -12.5498 C   0  0  0  0  0  0  0  0  0  0  0  0
   19.1609  -22.8991  -11.4655 C   0  0  0  0  0  0  0  0  0  0  0  0
   17.7914  -22.8803  -11.2898 O   0  0  0  0  0  0  0  0  0  0  0  0
   19.8244  -23.6038  -10.6504 O   0  0  0  0  0  0  0  0  0  0  0  0
  2  3  1  0
  2  1  1  6
  4  5  2  0
  4  3  1  0
  6  5  1  0
  7 12  2  0
  7  6  1  0
  8  7  1  0
  9 10  1  0
  9  8  2  0
 10 11  2  0
 11 12  1  0
 12  4  1  0
 13  2  1  0
 14 13  2  0
 16 15  1  0
 17 16  1  0
 18 17  1  0
 19 18  1  1
 19 20  1  0
 20 13  1  0
 21 19  1  0
 21 22  2  0
 23 21  1  0
 24 23  1  0
 24 25  1  0
 25 27  2  0
 25 26  1  0
M  END
$$$$
