WMG.pdb
     RDKit          3D

 27 28  0  0  1  0  0  0  0  0999 V2000
   28.1576  -21.0746  -14.2470 N   0  0  0  0  0  0  0  0  0  0  0  0
   27.2746  -20.1334  -13.5202 C   0  0  1  0  0  0  0  0  0  0  0  0
   26.2361  -19.6601  -14.4843 C   0  0  0  0  0  0  0  0  0  0  0  0
   26.8059  -18.7614  -15.5155 C   0  0  0  0  0  0  0  0  0  0  0  0
   27.0334  -19.1237  -16.8555 C   0  0  0  0  0  0  0  0  0  0  0  0
   27.5206  -18.0646  -17.5112 N   0  0  0  0  0  0  0  0  0  0  0  0
   27.6416  -16.9868  -16.6884 C   0  0  0  0  0  0  0  0  0  0  0  0
   28.0902  -15.7003  -16.8865 C   0  0  0  0  0  0  0  0  0  0  0  0
   28.1058  -14.8145  -15.8404 C   0  0  0  0  0  0  0  0  0  0  0  0
   27.6663  -15.2436  -14.6047 C   0  0  0  0  0  0  0  0  0  0  0  0
   27.2175  -16.5320  -14.4099 C   0  0  0  0  0  0  0  0  0  0  0  0
   27.1900  -17.4486  -15.4512 C   0  0  0  0  0  0  0  0  0  0  0  0
   26.8189  -20.7921  -12.3116 C   0  0  0  0  0  0  0  0  0  0  0  0
   26.6926  -22.0661  -12.2667 O   0  0  0  0  0  0  0  0  0  0  0  0
   29.2282  -19.7369   -5.8813 C   0  0  0  0  0  0  0  0  0  0  0  0
   27.6654  -19.2623   -6.7205 S   0  0  0  0  0  0  0  0  0  0  0  0
   27.3111  -20.4718   -8.0585 C   0  0  0  0  0  0  0  0  0  0  0  0
   26.1240  -19.9498   -8.7813 C   0  0  0  0  0  0  0  0  0  0  0  0
   25.7401  -20.7818  -10.0182 C   0  0  2  0  0  0  0  0  0  0  0  0
   26.4787  -20.1427  -11.0915 N   0  0  0  0  0  0  0  0  0  0  0  0
   24.2928  -20.8069  -10.2380 C   0  0  0  0  0  0  0  0  0  0  0  0
   23.5409  -21.3060   -9.3504 O   0  0  0  0  0  0  0  0  0  0  0  0
   23.6697  -20.2939  -11.4103 N   0  0  0  0  0  0  0  0  0  0  0  0
   22.2303  -20.3351  -11.5185 C   0  0  0  0  0  0  0  0  0  0  0  0
   21.8353  -21.5148  -12.2901 C   0  0  0  0  0  0  0  0  0  0  0  0
   20.5010  -21.7663  -12.5419 O   0  0  0  0  0  0  0  0  0  0  0  0
   22.6644  -22.3481  -12.7584 O   0  0  0  0  0  0  0  0  0  0  0  0
  2  3  1  0
  2  1  1  6
  4  5  2  0
  4  3  1  0
  6  5  1  0
  7 12  2  0
  7  6  1  0
  8  7  1  0
  9 10  1  0
  9  8  2  0
 10 11  2  0
 11 12  1  0
 12  4  1  0
 13  2  1  0
 14 13  2  0
 16 15  1  0
 17 16  1  0
 18 17  1  0
 19 18  1  1
 19 20  1  0
 20 13  1  0
 21 19  1  0
 21 22  2  0
 23 21  1  0
 24 23  1  0
 24 25  1  0
 25 27  2  0
 25 26  1  0
M  END
$$$$
