WMG.pdb
     RDKit          3D

 27 28  0  0  1  0  0  0  0  0999 V2000
   25.7885  -19.5797  -15.5618 N   0  0  0  0  0  0  0  0  0  0  0  0
   25.0456  -19.6987  -14.2860 C   0  0  1  0  0  0  0  0  0  0  0  0
   23.7740  -20.4274  -14.5757 C   0  0  0  0  0  0  0  0  0  0  0  0
   22.8481  -19.6187  -15.4032 C   0  0  0  0  0  0  0  0  0  0  0  0
   22.7754  -19.6721  -16.8069 C   0  0  0  0  0  0  0  0  0  0  0  0
   21.8122  -18.8409  -17.2200 N   0  0  0  0  0  0  0  0  0  0  0  0
   21.2156  -18.2145  -16.1689 C   0  0  0  0  0  0  0  0  0  0  0  0
   20.2024  -17.2865  -16.0813 C   0  0  0  0  0  0  0  0  0  0  0  0
   19.8105  -16.8179  -14.8541 C   0  0  0  0  0  0  0  0  0  0  0  0
   20.4510  -17.2958  -13.7291 C   0  0  0  0  0  0  0  0  0  0  0  0
   21.4647  -18.2251  -13.8202 C   0  0  0  0  0  0  0  0  0  0  0  0
   21.8804  -18.7170  -15.0492 C   0  0  0  0  0  0  0  0  0  0  0  0
   25.9402  -20.2741  -13.3007 C   0  0  0  0  0  0  0  0  0  0  0  0
   26.6861  -21.2729  -13.5961 O   0  0  0  0  0  0  0  0  0  0  0  0
   29.0306  -19.1592   -7.1172 C   0  0  0  0  0  0  0  0  0  0  0  0
   27.1949  -19.1794   -7.1566 S   0  0  0  0  0  0  0  0  0  0  0  0
   26.6339  -20.4629   -8.3469 C   0  0  0  0  0  0  0  0  0  0  0  0
   26.4178  -19.7613   -9.6372 C   0  0  0  0  0  0  0  0  0  0  0  0
   26.1029  -20.7084  -10.8090 C   0  0  2  0  0  0  0  0  0  0  0  0
   26.0962  -19.8239  -11.9594 N   0  0  0  0  0  0  0  0  0  0  0  0
   24.8412  -21.4252  -10.6146 C   0  0  0  0  0  0  0  0  0  0  0  0
   24.7558  -22.2884   -9.6928 O   0  0  0  0  0  0  0  0  0  0  0  0
   23.6843  -21.2050  -11.4138 N   0  0  0  0  0  0  0  0  0  0  0  0
   22.5438  -22.0770  -11.2577 C   0  0  0  0  0  0  0  0  0  0  0  0
   21.5786  -21.4554  -10.3493 C   0  0  0  0  0  0  0  0  0  0  0  0
   20.4090  -22.1124  -10.0219 O   0  0  0  0  0  0  0  0  0  0  0  0
   21.7513  -20.3165   -9.8256 O   0  0  0  0  0  0  0  0  0  0  0  0
  2  3  1  0
  2  1  1  6
  4  5  2  0
  4  3  1  0
  6  5  1  0
  7 12  2  0
  7  6  1  0
  8  7  1  0
  9 10  1  0
  9  8  2  0
 10 11  2  0
 11 12  1  0
 12  4  1  0
 13  2  1  0
 14 13  2  0
 16 15  1  0
 17 16  1  0
 18 17  1  0
 19 18  1  1
 19 20  1  0
 20 13  1  0
 21 19  1  0
 21 22  2  0
 23 21  1  0
 24 23  1  0
 24 25  1  0
 25 27  2  0
 25 26  1  0
M  END
$$$$
