WMG.pdb
     RDKit          3D

 27 28  0  0  1  0  0  0  0  0999 V2000
   26.9533  -20.4646  -15.4641 N   0  0  0  0  0  0  0  0  0  0  0  0
   27.2083  -19.6463  -14.2561 C   0  0  1  0  0  0  0  0  0  0  0  0
   26.3307  -18.4402  -14.3400 C   0  0  0  0  0  0  0  0  0  0  0  0
   26.6130  -17.6325  -15.5499 C   0  0  0  0  0  0  0  0  0  0  0  0
   25.6517  -16.8882  -16.2573 C   0  0  0  0  0  0  0  0  0  0  0  0
   26.2558  -16.2566  -17.2700 N   0  0  0  0  0  0  0  0  0  0  0  0
   27.5892  -16.5292  -17.2972 C   0  0  0  0  0  0  0  0  0  0  0  0
   28.6114  -16.1336  -18.1304 C   0  0  0  0  0  0  0  0  0  0  0  0
   29.8854  -16.5897  -17.9114 C   0  0  0  0  0  0  0  0  0  0  0  0
   30.1086  -17.4424  -16.8497 C   0  0  0  0  0  0  0  0  0  0  0  0
   29.0832  -17.8363  -16.0172 C   0  0  0  0  0  0  0  0  0  0  0  0
   27.7848  -17.3890  -16.2152 C   0  0  0  0  0  0  0  0  0  0  0  0
   27.0617  -20.5046  -13.0967 C   0  0  0  0  0  0  0  0  0  0  0  0
   26.8445  -21.7597  -13.2332 O   0  0  0  0  0  0  0  0  0  0  0  0
   26.4639  -19.8586   -5.2946 C   0  0  0  0  0  0  0  0  0  0  0  0
   27.4767  -19.5610   -6.7971 S   0  0  0  0  0  0  0  0  0  0  0  0
   26.9957  -20.7706   -8.0949 C   0  0  0  0  0  0  0  0  0  0  0  0
   27.2135  -20.0877   -9.3949 C   0  0  0  0  0  0  0  0  0  0  0  0
   26.7987  -20.9330  -10.6126 C   0  0  2  0  0  0  0  0  0  0  0  0
   27.1410  -20.0845  -11.7390 N   0  0  0  0  0  0  0  0  0  0  0  0
   25.3832  -21.3048  -10.5690 C   0  0  0  0  0  0  0  0  0  0  0  0
   24.9851  -22.1216   -9.6878 O   0  0  0  0  0  0  0  0  0  0  0  0
   24.4109  -20.7931  -11.4737 N   0  0  0  0  0  0  0  0  0  0  0  0
   23.0701  -21.3283  -11.4436 C   0  0  0  0  0  0  0  0  0  0  0  0
   22.2752  -20.5912  -10.4597 C   0  0  0  0  0  0  0  0  0  0  0  0
   20.9746  -20.9700  -10.1920 O   0  0  0  0  0  0  0  0  0  0  0  0
   22.7167  -19.5956   -9.8155 O   0  0  0  0  0  0  0  0  0  0  0  0
  2  3  1  0
  2  1  1  6
  4  5  2  0
  4  3  1  0
  6  5  1  0
  7 12  2  0
  7  6  1  0
  8  7  1  0
  9 10  1  0
  9  8  2  0
 10 11  2  0
 11 12  1  0
 12  4  1  0
 13  2  1  0
 14 13  2  0
 16 15  1  0
 17 16  1  0
 18 17  1  0
 19 18  1  1
 19 20  1  0
 20 13  1  0
 21 19  1  0
 21 22  2  0
 23 21  1  0
 24 23  1  0
 24 25  1  0
 25 27  2  0
 25 26  1  0
M  END
$$$$
