WMG.pdb
     RDKit          3D

 27 28  0  0  1  0  0  0  0  0999 V2000
   26.8122  -18.8526  -12.4997 N   0  0  0  0  0  0  0  0  0  0  0  0
   27.0547  -20.2963  -12.7255 C   0  0  1  0  0  0  0  0  0  0  0  0
   28.0623  -20.4139  -13.8222 C   0  0  0  0  0  0  0  0  0  0  0  0
   27.8391  -19.4107  -14.8898 C   0  0  0  0  0  0  0  0  0  0  0  0
   28.7253  -18.3641  -15.2023 C   0  0  0  0  0  0  0  0  0  0  0  0
   28.2297  -17.6742  -16.2356 N   0  0  0  0  0  0  0  0  0  0  0  0
   27.0424  -18.1935  -16.6524 C   0  0  0  0  0  0  0  0  0  0  0  0
   26.1621  -17.8403  -17.6503 C   0  0  0  0  0  0  0  0  0  0  0  0
   25.0116  -18.5632  -17.8326 C   0  0  0  0  0  0  0  0  0  0  0  0
   24.7667  -19.6362  -17.0003 C   0  0  0  0  0  0  0  0  0  0  0  0
   25.6501  -19.9873  -16.0025 C   0  0  0  0  0  0  0  0  0  0  0  0
   26.8223  -19.2739  -15.7967 C   0  0  0  0  0  0  0  0  0  0  0  0
   27.3790  -20.8995  -11.4476 C   0  0  0  0  0  0  0  0  0  0  0  0
   27.7340  -22.1282  -11.3736 O   0  0  0  0  0  0  0  0  0  0  0  0
   27.3368  -20.1157   -3.5921 C   0  0  0  0  0  0  0  0  0  0  0  0
   27.8723  -19.6106   -5.2744 S   0  0  0  0  0  0  0  0  0  0  0  0
   26.8319  -20.4736   -6.5201 C   0  0  0  0  0  0  0  0  0  0  0  0
   27.3729  -20.0865   -7.8473 C   0  0  0  0  0  0  0  0  0  0  0  0
   26.6384  -20.7456   -9.0286 C   0  0  2  0  0  0  0  0  0  0  0  0
   27.3496  -20.2383  -10.1875 N   0  0  0  0  0  0  0  0  0  0  0  0
   25.2089  -20.4291   -9.0346 C   0  0  0  0  0  0  0  0  0  0  0  0
   24.8375  -19.2498   -9.3056 O   0  0  0  0  0  0  0  0  0  0  0  0
   24.1940  -21.3853   -8.7494 N   0  0  0  0  0  0  0  0  0  0  0  0
   22.8226  -20.9461   -8.6413 C   0  0  0  0  0  0  0  0  0  0  0  0
   22.2551  -20.7928   -9.9821 C   0  0  0  0  0  0  0  0  0  0  0  0
   20.9347  -20.4210  -10.1399 O   0  0  0  0  0  0  0  0  0  0  0  0
   22.9177  -20.9847  -11.0429 O   0  0  0  0  0  0  0  0  0  0  0  0
  2  3  1  0
  2  1  1  1
  4  5  2  0
  4  3  1  0
  6  5  1  0
  7 12  2  0
  7  6  1  0
  8  7  1  0
  9 10  1  0
  9  8  2  0
 10 11  2  0
 11 12  1  0
 12  4  1  0
 13  2  1  0
 14 13  2  0
 16 15  1  0
 17 16  1  0
 18 17  1  0
 19 18  1  1
 19 20  1  0
 20 13  1  0
 21 19  1  0
 21 22  2  0
 23 21  1  0
 24 23  1  0
 24 25  1  0
 25 27  2  0
 25 26  1  0
M  END
$$$$
