WMG.pdb
     RDKit          3D

 27 28  0  0  1  0  0  0  0  0999 V2000
   26.7319  -21.6484  -14.3608 N   0  0  0  0  0  0  0  0  0  0  0  0
   26.5617  -20.5838  -13.3451 C   0  0  1  0  0  0  0  0  0  0  0  0
   25.5752  -19.6020  -13.8880 C   0  0  0  0  0  0  0  0  0  0  0  0
   25.9777  -19.0905  -15.2193 C   0  0  0  0  0  0  0  0  0  0  0  0
   25.1293  -19.0186  -16.3389 C   0  0  0  0  0  0  0  0  0  0  0  0
   25.8060  -18.4774  -17.3580 N   0  0  0  0  0  0  0  0  0  0  0  0
   27.0825  -18.1721  -16.9968 C   0  0  0  0  0  0  0  0  0  0  0  0
   28.1437  -17.6184  -17.6772 C   0  0  0  0  0  0  0  0  0  0  0  0
   29.3426  -17.4348  -17.0385 C   0  0  0  0  0  0  0  0  0  0  0  0
   29.4520  -17.8151  -15.7165 C   0  0  0  0  0  0  0  0  0  0  0  0
   28.3878  -18.3687  -15.0382 C   0  0  0  0  0  0  0  0  0  0  0  0
   27.1629  -18.5648  -15.6598 C   0  0  0  0  0  0  0  0  0  0  0  0
   26.2499  -21.2199  -12.0800 C   0  0  0  0  0  0  0  0  0  0  0  0
   25.8628  -22.4403  -12.0374 O   0  0  0  0  0  0  0  0  0  0  0  0
   29.4672  -20.2063   -5.9850 C   0  0  0  0  0  0  0  0  0  0  0  0
   27.7865  -19.7161   -6.5390 S   0  0  0  0  0  0  0  0  0  0  0  0
   27.3320  -20.7017   -8.0225 C   0  0  0  0  0  0  0  0  0  0  0  0
   26.0543  -20.1321   -8.5194 C   0  0  0  0  0  0  0  0  0  0  0  0
   25.4456  -20.9164   -9.6958 C   0  0  2  0  0  0  0  0  0  0  0  0
   26.3345  -20.6041  -10.7995 N   0  0  0  0  0  0  0  0  0  0  0  0
   24.0515  -20.5441   -9.9439 C   0  0  0  0  0  0  0  0  0  0  0  0
   23.7748  -19.8089  -10.9363 O   0  0  0  0  0  0  0  0  0  0  0  0
   22.9697  -20.9676   -9.1216 N   0  0  0  0  0  0  0  0  0  0  0  0
   22.0281  -21.9328   -9.6383 C   0  0  0  0  0  0  0  0  0  0  0  0
   21.0042  -21.2402  -10.4226 C   0  0  0  0  0  0  0  0  0  0  0  0
   20.7074  -21.6602  -11.7041 O   0  0  0  0  0  0  0  0  0  0  0  0
   20.3500  -20.2478   -9.9886 O   0  0  0  0  0  0  0  0  0  0  0  0
  2  3  1  0
  2  1  1  6
  4  5  2  0
  4  3  1  0
  6  5  1  0
  7 12  2  0
  7  6  1  0
  8  7  1  0
  9 10  1  0
  9  8  2  0
 10 11  2  0
 11 12  1  0
 12  4  1  0
 13  2  1  0
 14 13  2  0
 16 15  1  0
 17 16  1  0
 18 17  1  0
 19 18  1  1
 19 20  1  0
 20 13  1  0
 21 19  1  0
 21 22  2  0
 23 21  1  0
 24 23  1  0
 24 25  1  0
 25 27  2  0
 25 26  1  0
M  END
$$$$
