WMG.pdb
     RDKit          3D

 27 28  0  0  1  0  0  0  0  0999 V2000
   27.9640  -21.5138   -9.8383 N   0  0  0  0  0  0  0  0  0  0  0  0
   26.5066  -21.2735   -9.7282 C   0  0  1  0  0  0  0  0  0  0  0  0
   26.2711  -20.5318   -8.4530 C   0  0  0  0  0  0  0  0  0  0  0  0
   27.5400  -20.1922   -7.7670 C   0  0  0  0  0  0  0  0  0  0  0  0
   28.7992  -20.1428   -8.3920 C   0  0  0  0  0  0  0  0  0  0  0  0
   29.7137  -19.7715   -7.4892 N   0  0  0  0  0  0  0  0  0  0  0  0
   29.1472  -19.5623   -6.2692 C   0  0  0  0  0  0  0  0  0  0  0  0
   29.6598  -19.1848   -5.0484 C   0  0  0  0  0  0  0  0  0  0  0  0
   28.8265  -19.0619   -3.9669 C   0  0  0  0  0  0  0  0  0  0  0  0
   27.4822  -19.3236   -4.1356 C   0  0  0  0  0  0  0  0  0  0  0  0
   26.9721  -19.7010   -5.3590 C   0  0  0  0  0  0  0  0  0  0  0  0
   27.7926  -19.8319   -6.4703 C   0  0  0  0  0  0  0  0  0  0  0  0
   26.0629  -20.6501  -10.9598 C   0  0  0  0  0  0  0  0  0  0  0  0
   26.5474  -19.5259  -11.3375 O   0  0  0  0  0  0  0  0  0  0  0  0
   26.0310  -24.0397  -15.3570 C   0  0  0  0  0  0  0  0  0  0  0  0
   26.9807  -22.5120  -15.7258 S   0  0  0  0  0  0  0  0  0  0  0  0
   26.5735  -21.2338  -14.4691 C   0  0  0  0  0  0  0  0  0  0  0  0
   25.1221  -21.3770  -14.1917 C   0  0  0  0  0  0  0  0  0  0  0  0
   24.6236  -20.4863  -13.0395 C   0  0  2  0  0  0  0  0  0  0  0  0
   25.0920  -21.1814  -11.8549 N   0  0  0  0  0  0  0  0  0  0  0  0
   23.1716  -20.3019  -13.0740 C   0  0  0  0  0  0  0  0  0  0  0  0
   22.6523  -19.6585  -14.0324 O   0  0  0  0  0  0  0  0  0  0  0  0
   22.2935  -20.8125  -12.0770 N   0  0  0  0  0  0  0  0  0  0  0  0
   20.8900  -20.4777  -12.1360 C   0  0  0  0  0  0  0  0  0  0  0  0
   20.1851  -21.4806  -12.9364 C   0  0  0  0  0  0  0  0  0  0  0  0
   18.8095  -21.5807  -12.8713 O   0  0  0  0  0  0  0  0  0  0  0  0
   20.7735  -22.2896  -13.7113 O   0  0  0  0  0  0  0  0  0  0  0  0
  2  3  1  0
  2  1  1  6
  4  5  2  0
  4  3  1  0
  6  5  1  0
  7 12  2  0
  7  6  1  0
  8  7  1  0
  9 10  1  0
  9  8  2  0
 10 11  2  0
 11 12  1  0
 12  4  1  0
 13  2  1  0
 14 13  2  0
 16 15  1  0
 17 16  1  0
 18 17  1  0
 19 18  1  6
 19 20  1  0
 20 13  1  0
 21 19  1  0
 21 22  2  0
 23 21  1  0
 24 23  1  0
 24 25  1  0
 25 27  2  0
 25 26  1  0
M  END
$$$$
