WMG.pdb
     RDKit          3D

 27 28  0  0  1  0  0  0  0  0999 V2000
   24.9743  -20.5425   -8.4311 N   0  0  0  0  0  0  0  0  0  0  0  0
   26.0569  -20.3100   -9.4148 C   0  0  1  0  0  0  0  0  0  0  0  0
   27.3267  -20.8125   -8.8090 C   0  0  0  0  0  0  0  0  0  0  0  0
   27.7029  -20.0479   -7.5966 C   0  0  0  0  0  0  0  0  0  0  0  0
   27.1426  -18.8128   -7.2237 C   0  0  0  0  0  0  0  0  0  0  0  0
   27.6856  -18.4263   -6.0639 N   0  0  0  0  0  0  0  0  0  0  0  0
   28.5954  -19.3350   -5.6172 C   0  0  0  0  0  0  0  0  0  0  0  0
   29.4043  -19.3842   -4.5041 C   0  0  0  0  0  0  0  0  0  0  0  0
   30.2480  -20.4489   -4.3202 C   0  0  0  0  0  0  0  0  0  0  0  0
   30.2621  -21.4520   -5.2677 C   0  0  0  0  0  0  0  0  0  0  0  0
   29.4509  -21.3999   -6.3807 C   0  0  0  0  0  0  0  0  0  0  0  0
   28.5869  -20.3348   -6.5911 C   0  0  0  0  0  0  0  0  0  0  0  0
   25.6419  -20.8855  -10.6793 C   0  0  0  0  0  0  0  0  0  0  0  0
   25.0789  -22.0354  -10.7232 O   0  0  0  0  0  0  0  0  0  0  0  0
   22.3397  -17.7484  -14.6041 C   0  0  0  0  0  0  0  0  0  0  0  0
   23.3548  -18.5180  -15.9267 S   0  0  0  0  0  0  0  0  0  0  0  0
   24.1389  -20.0452  -15.2698 C   0  0  0  0  0  0  0  0  0  0  0  0
   24.6735  -19.6902  -13.9310 C   0  0  0  0  0  0  0  0  0  0  0  0
   25.3261  -20.8736  -13.1940 C   0  0  2  0  0  0  0  0  0  0  0  0
   25.7954  -20.2772  -11.9570 N   0  0  0  0  0  0  0  0  0  0  0  0
   26.3900  -21.4959  -13.9841 C   0  0  0  0  0  0  0  0  0  0  0  0
   26.0850  -22.3427  -14.8741 O   0  0  0  0  0  0  0  0  0  0  0  0
   27.7710  -21.1999  -13.8087 N   0  0  0  0  0  0  0  0  0  0  0  0
   28.7451  -21.8622  -14.6441 C   0  0  0  0  0  0  0  0  0  0  0  0
   28.9270  -21.0960  -15.8782 C   0  0  0  0  0  0  0  0  0  0  0  0
   28.0499  -20.0797  -16.2014 O   0  0  0  0  0  0  0  0  0  0  0  0
   29.8679  -21.3106  -16.6966 O   0  0  0  0  0  0  0  0  0  0  0  0
  2  3  1  0
  2  1  1  1
  4  5  2  0
  4  3  1  0
  6  5  1  0
  7 12  2  0
  7  6  1  0
  8  7  1  0
  9 10  1  0
  9  8  2  0
 10 11  2  0
 11 12  1  0
 12  4  1  0
 13  2  1  0
 14 13  2  0
 16 15  1  0
 17 16  1  0
 18 17  1  0
 19 18  1  6
 19 20  1  0
 20 13  1  0
 21 19  1  0
 21 22  2  0
 23 21  1  0
 24 23  1  0
 24 25  1  0
 25 27  2  0
 25 26  1  0
M  END
$$$$
