WMG.pdb
     RDKit          3D

 27 28  0  0  1  0  0  0  0  0999 V2000
   24.9618  -19.2046  -12.3467 N   0  0  0  0  0  0  0  0  0  0  0  0
   24.6799  -20.5711  -12.8436 C   0  0  1  0  0  0  0  0  0  0  0  0
   25.6418  -21.4975  -12.1739 C   0  0  0  0  0  0  0  0  0  0  0  0
   27.0457  -21.0529  -12.3392 C   0  0  0  0  0  0  0  0  0  0  0  0
   27.5442  -20.3802  -13.4695 C   0  0  0  0  0  0  0  0  0  0  0  0
   28.8367  -20.1002  -13.2687 N   0  0  0  0  0  0  0  0  0  0  0  0
   29.2562  -20.5479  -12.0535 C   0  0  0  0  0  0  0  0  0  0  0  0
   30.4707  -20.5073  -11.4064 C   0  0  0  0  0  0  0  0  0  0  0  0
   30.5987  -21.0635  -10.1600 C   0  0  0  0  0  0  0  0  0  0  0  0
   29.4932  -21.6552   -9.5839 C   0  0  0  0  0  0  0  0  0  0  0  0
   28.2787  -21.6939  -10.2343 C   0  0  0  0  0  0  0  0  0  0  0  0
   28.1209  -21.1378  -11.4956 C   0  0  0  0  0  0  0  0  0  0  0  0
   23.2642  -20.8279  -12.6643 C   0  0  0  0  0  0  0  0  0  0  0  0
   22.6324  -20.3461  -11.6593 O   0  0  0  0  0  0  0  0  0  0  0  0
   19.6522  -18.4821  -16.9786 C   0  0  0  0  0  0  0  0  0  0  0  0
   19.1301  -19.5244  -15.5599 S   0  0  0  0  0  0  0  0  0  0  0  0
   20.5651  -20.5190  -14.9852 C   0  0  0  0  0  0  0  0  0  0  0  0
   20.1528  -21.1299  -13.6965 C   0  0  0  0  0  0  0  0  0  0  0  0
   21.1613  -22.1565  -13.1502 C   0  0  2  0  0  0  0  0  0  0  0  0
   22.4448  -21.5998  -13.5355 N   0  0  0  0  0  0  0  0  0  0  0  0
   20.9228  -23.4998  -13.6815 C   0  0  0  0  0  0  0  0  0  0  0  0
   21.3880  -23.8072  -14.8178 O   0  0  0  0  0  0  0  0  0  0  0  0
   20.1868  -24.4985  -12.9839 N   0  0  0  0  0  0  0  0  0  0  0  0
   20.0851  -25.8230  -13.5502 C   0  0  0  0  0  0  0  0  0  0  0  0
   18.9424  -25.8736  -14.4639 C   0  0  0  0  0  0  0  0  0  0  0  0
   18.5498  -27.0747  -15.0206 O   0  0  0  0  0  0  0  0  0  0  0  0
   18.2667  -24.8541  -14.7882 O   0  0  0  0  0  0  0  0  0  0  0  0
  2  3  1  0
  2  1  1  1
  4  5  2  0
  4  3  1  0
  6  5  1  0
  7 12  2  0
  7  6  1  0
  8  7  1  0
  9 10  1  0
  9  8  2  0
 10 11  2  0
 11 12  1  0
 12  4  1  0
 13  2  1  0
 14 13  2  0
 16 15  1  0
 17 16  1  0
 18 17  1  0
 19 18  1  6
 19 20  1  0
 20 13  1  0
 21 19  1  0
 21 22  2  0
 23 21  1  0
 24 23  1  0
 24 25  1  0
 25 27  2  0
 25 26  1  0
M  END
$$$$
