WMG.pdb
     RDKit          3D

 27 28  0  0  1  0  0  0  0  0999 V2000
   26.7507  -20.9658  -16.6389 N   0  0  0  0  0  0  0  0  0  0  0  0
   25.6004  -20.2015  -16.1037 C   0  0  1  0  0  0  0  0  0  0  0  0
   24.6895  -19.9040  -17.2498 C   0  0  0  0  0  0  0  0  0  0  0  0
   24.3035  -18.4739  -17.2941 C   0  0  0  0  0  0  0  0  0  0  0  0
   25.0597  -17.4597  -17.9088 C   0  0  0  0  0  0  0  0  0  0  0  0
   24.4022  -16.3007  -17.7908 N   0  0  0  0  0  0  0  0  0  0  0  0
   23.2273  -16.4650  -17.1231 C   0  0  0  0  0  0  0  0  0  0  0  0
   22.2277  -15.5933  -16.7539 C   0  0  0  0  0  0  0  0  0  0  0  0
   21.1391  -16.0571  -16.0618 C   0  0  0  0  0  0  0  0  0  0  0  0
   21.0767  -17.4002  -15.7515 C   0  0  0  0  0  0  0  0  0  0  0  0
   22.0789  -18.2703  -16.1228 C   0  0  0  0  0  0  0  0  0  0  0  0
   23.1911  -17.8280  -16.8248 C   0  0  0  0  0  0  0  0  0  0  0  0
   25.0527  -20.9442  -14.9854 C   0  0  0  0  0  0  0  0  0  0  0  0
   24.6279  -22.1430  -15.1392 O   0  0  0  0  0  0  0  0  0  0  0  0
   26.3473  -19.9083   -8.9674 C   0  0  0  0  0  0  0  0  0  0  0  0
   27.3275  -21.1718   -9.8700 S   0  0  0  0  0  0  0  0  0  0  0  0
   26.4485  -21.6181  -11.4215 C   0  0  0  0  0  0  0  0  0  0  0  0
   25.1342  -20.9304  -11.3623 C   0  0  0  0  0  0  0  0  0  0  0  0
   24.2479  -21.1869  -12.5944 C   0  0  2  0  0  0  0  0  0  0  0  0
   24.9298  -20.4632  -13.6514 N   0  0  0  0  0  0  0  0  0  0  0  0
   22.8674  -20.7482  -12.3812 C   0  0  0  0  0  0  0  0  0  0  0  0
   22.5815  -19.5217  -12.5083 O   0  0  0  0  0  0  0  0  0  0  0  0
   21.8089  -21.6341  -12.0342 N   0  0  0  0  0  0  0  0  0  0  0  0
   20.4796  -21.1031  -11.8438 C   0  0  0  0  0  0  0  0  0  0  0  0
   19.7817  -21.0695  -13.1303 C   0  0  0  0  0  0  0  0  0  0  0  0
   18.4803  -20.6139  -13.2036 O   0  0  0  0  0  0  0  0  0  0  0  0
   20.3107  -21.4427  -14.2175 O   0  0  0  0  0  0  0  0  0  0  0  0
  2  3  1  0
  2  1  1  6
  4  5  2  0
  4  3  1  0
  6  5  1  0
  7 12  2  0
  7  6  1  0
  8  7  1  0
  9 10  1  0
  9  8  2  0
 10 11  2  0
 11 12  1  0
 12  4  1  0
 13  2  1  0
 14 13  2  0
 16 15  1  0
 17 16  1  0
 18 17  1  0
 19 18  1  1
 19 20  1  0
 20 13  1  0
 21 19  1  0
 21 22  2  0
 23 21  1  0
 24 23  1  0
 24 25  1  0
 25 27  2  0
 25 26  1  0
M  END
$$$$
