WMG.pdb
     RDKit          3D

 27 28  0  0  1  0  0  0  0  0999 V2000
   20.5271   -6.2076  -12.3787 N   0  0  0  0  0  0  0  0  0  0  0  0
   19.3873   -7.1441  -12.2464 C   0  0  1  0  0  0  0  0  0  0  0  0
   19.9439   -8.5304  -12.2619 C   0  0  0  0  0  0  0  0  0  0  0  0
   20.3351   -8.9553  -13.6266 C   0  0  0  0  0  0  0  0  0  0  0  0
   21.6110   -8.7674  -14.1882 C   0  0  0  0  0  0  0  0  0  0  0  0
   21.6239   -9.2996  -15.4154 N   0  0  0  0  0  0  0  0  0  0  0  0
   20.4174   -9.8461  -15.7297 C   0  0  0  0  0  0  0  0  0  0  0  0
   19.9415  -10.4895  -16.8500 C   0  0  0  0  0  0  0  0  0  0  0  0
   18.6451  -10.9337  -16.8828 C   0  0  0  0  0  0  0  0  0  0  0  0
   17.8454  -10.7200  -15.7787 C   0  0  0  0  0  0  0  0  0  0  0  0
   18.3249  -10.0759  -14.6586 C   0  0  0  0  0  0  0  0  0  0  0  0
   19.6330   -9.6172  -14.5982 C   0  0  0  0  0  0  0  0  0  0  0  0
   18.6131   -6.7439  -11.0877 C   0  0  0  0  0  0  0  0  0  0  0  0
   19.0870   -5.9100  -10.2384 O   0  0  0  0  0  0  0  0  0  0  0  0
   13.8843   -1.7457   -9.3222 C   0  0  0  0  0  0  0  0  0  0  0  0
   15.0776   -2.7687  -10.2716 S   0  0  0  0  0  0  0  0  0  0  0  0
   15.1571   -4.4466   -9.5253 C   0  0  0  0  0  0  0  0  0  0  0  0
   16.1834   -5.1920  -10.2967 C   0  0  0  0  0  0  0  0  0  0  0  0
   16.4700   -6.5992   -9.7425 C   0  0  2  0  0  0  0  0  0  0  0  0
   17.3022   -7.1982  -10.7694 N   0  0  0  0  0  0  0  0  0  0  0  0
   15.2401   -7.3475   -9.4758 C   0  0  0  0  0  0  0  0  0  0  0  0
   14.3817   -7.4753  -10.3971 O   0  0  0  0  0  0  0  0  0  0  0  0
   14.9473   -7.9510   -8.2205 N   0  0  0  0  0  0  0  0  0  0  0  0
   13.6882   -8.6358   -8.0447 C   0  0  0  0  0  0  0  0  0  0  0  0
   13.7079   -9.8893   -8.8006 C   0  0  0  0  0  0  0  0  0  0  0  0
   12.7052  -10.8225   -8.6260 O   0  0  0  0  0  0  0  0  0  0  0  0
   14.6144  -10.1844   -9.6327 O   0  0  0  0  0  0  0  0  0  0  0  0
  2  3  1  0
  2  1  1  1
  4  5  2  0
  4  3  1  0
  6  5  1  0
  7 12  2  0
  7  6  1  0
  8  7  1  0
  9 10  1  0
  9  8  2  0
 10 11  2  0
 11 12  1  0
 12  4  1  0
 13  2  1  0
 14 13  2  0
 16 15  1  0
 17 16  1  0
 18 17  1  0
 19 18  1  6
 19 20  1  0
 20 13  1  0
 21 19  1  0
 21 22  2  0
 23 21  1  0
 24 23  1  0
 24 25  1  0
 25 27  2  0
 25 26  1  0
M  END
$$$$
