TCR.pdb
     RDKit          3D

 25 24  0  0  1  0  0  0  0  0999 V2000
    7.0854  -15.4462   16.2994 C   0  0  0  0  0  0  0  0  0  0  0  0
    7.7265  -15.3423   17.6551 C   0  0  1  0  0  0  0  0  0  0  0  0
    9.0226  -15.8746   17.5770 O   0  0  0  0  0  0  0  0  0  0  0  0
    7.8412  -13.9056   18.1411 C   0  0  2  0  0  0  0  0  0  0  0  0
    8.6475  -13.1071   17.2666 N   0  0  0  0  0  0  0  0  0  0  0  0
    8.4486  -13.9914   19.5110 C   0  0  0  0  0  0  0  0  0  0  0  0
    9.6943  -13.9499   19.6750 O   0  0  0  0  0  0  0  0  0  0  0  0
    7.6504  -14.1239   20.6926 N   0  0  0  0  0  0  0  0  0  0  0  0
    8.2807  -14.2033   21.9760 C   0  0  1  0  0  0  0  0  0  0  0  0
    7.3518  -13.8561   23.1002 C   0  0  0  0  0  0  0  0  0  0  0  0
    8.2537  -14.0292   24.6737 S   0  0  0  0  0  0  0  0  0  0  0  0
    8.9381  -15.5376   22.1929 C   0  0  0  0  0  0  0  0  0  0  0  0
    8.3291  -16.5852   21.8404 O   0  0  0  0  0  0  0  0  0  0  0  0
   14.7428  -14.5716   18.3755 N   0  0  0  0  0  0  0  0  0  0  0  0
   13.9645  -14.5684   19.5767 C   0  0  0  0  0  0  0  0  0  0  0  0
   13.0826  -13.6158   19.7268 N   0  0  0  0  0  0  0  0  0  0  0  0
   14.1418  -15.5520   20.5611 N   0  0  0  0  0  0  0  0  0  0  0  0
   13.7110  -16.9323   20.2731 C   0  0  0  0  0  0  0  0  0  0  0  0
   12.3727  -17.0807   20.8859 C   0  0  0  0  0  0  0  0  0  0  0  0
   12.1351  -16.8560   22.2979 C   0  0  0  0  0  0  0  0  0  0  0  0
   10.8475  -17.0193   22.9866 C   0  0  2  0  0  0  0  0  0  0  0  0
   10.1981  -15.6686   22.7696 N   0  0  0  0  0  0  0  0  0  0  0  0
   10.8004  -17.3082   24.4110 C   0  0  0  0  0  0  0  0  0  0  0  0
   10.6631  -16.4964   25.3418 O   0  0  0  0  0  0  0  0  0  0  0  0
   10.9203  -18.6557   24.8192 O   0  0  0  0  0  0  0  0  0  0  0  0
  2  3  1  0
  2  1  1  6
  4  2  1  0
  4  5  1  6
  6  4  1  0
  7  6  2  0
  8  6  1  0
  9 12  1  0
  9  8  1  0
  9 10  1  1
 11 10  1  0
 12 22  1  0
 13 12  2  0
 15 14  1  0
 15 16  2  0
 17 15  1  0
 18 17  1  0
 19 18  1  0
 20 19  1  0
 21 20  1  1
 22 21  1  0
 23 25  1  0
 23 21  1  0
 24 23  2  0
M  END
$$$$
