TCR.pdb
     RDKit          3D

 25 24  0  0  1  0  0  0  0  0999 V2000
   10.1434  -14.3911   16.8706 C   0  0  0  0  0  0  0  0  0  0  0  0
    9.4701  -14.7187   18.1741 C   0  0  1  0  0  0  0  0  0  0  0  0
   10.3161  -14.3273   19.2231 O   0  0  0  0  0  0  0  0  0  0  0  0
    8.1449  -13.9927   18.3484 C   0  0  2  0  0  0  0  0  0  0  0  0
    8.3119  -12.5699   18.3656 N   0  0  0  0  0  0  0  0  0  0  0  0
    7.5825  -14.4884   19.6487 C   0  0  0  0  0  0  0  0  0  0  0  0
    7.6894  -13.8137   20.7040 O   0  0  0  0  0  0  0  0  0  0  0  0
    6.9011  -15.7433   19.7563 N   0  0  0  0  0  0  0  0  0  0  0  0
    6.3967  -16.1766   21.0246 C   0  0  1  0  0  0  0  0  0  0  0  0
    5.4249  -17.3116   20.9046 C   0  0  0  0  0  0  0  0  0  0  0  0
    4.8663  -17.7776   22.5749 S   0  0  0  0  0  0  0  0  0  0  0  0
    7.5067  -16.4974   21.9861 C   0  0  0  0  0  0  0  0  0  0  0  0
    8.4970  -17.1649   21.5782 O   0  0  0  0  0  0  0  0  0  0  0  0
    9.8348  -13.8965   30.1547 N   0  0  0  0  0  0  0  0  0  0  0  0
   10.4540  -15.1313   29.7801 C   0  0  0  0  0  0  0  0  0  0  0  0
   11.3982  -15.5970   30.5543 N   0  0  0  0  0  0  0  0  0  0  0  0
   10.0635  -15.8189   28.6214 N   0  0  0  0  0  0  0  0  0  0  0  0
    8.7834  -15.4644   27.9814 C   0  0  0  0  0  0  0  0  0  0  0  0
    9.0837  -15.2641   26.5466 C   0  0  0  0  0  0  0  0  0  0  0  0
    8.1952  -15.7187   25.4956 C   0  0  0  0  0  0  0  0  0  0  0  0
    8.6025  -16.4383   24.2811 C   0  0  2  0  0  0  0  0  0  0  0  0
    7.4896  -16.0872   23.3161 N   0  0  0  0  0  0  0  0  0  0  0  0
    8.7403  -17.8859   24.2885 C   0  0  0  0  0  0  0  0  0  0  0  0
    7.8533  -18.7297   24.0754 O   0  0  0  0  0  0  0  0  0  0  0  0
   10.0148  -18.4298   24.5650 O   0  0  0  0  0  0  0  0  0  0  0  0
  2  3  1  0
  2  1  1  6
  4  2  1  0
  4  5  1  1
  6  4  1  0
  7  6  2  0
  8  6  1  0
  9 12  1  0
  9  8  1  0
  9 10  1  6
 11 10  1  0
 12 22  1  0
 13 12  2  0
 15 14  1  0
 15 16  2  0
 17 15  1  0
 18 17  1  0
 19 18  1  0
 20 19  1  0
 21 20  1  1
 22 21  1  0
 23 25  1  0
 23 21  1  0
 24 23  2  0
M  END
$$$$
