TCR.pdb
     RDKit          3D

 25 24  0  0  1  0  0  0  0  0999 V2000
    8.0250  -15.1896   16.3582 C   0  0  0  0  0  0  0  0  0  0  0  0
    8.5840  -15.0526   17.7469 C   0  0  1  0  0  0  0  0  0  0  0  0
    9.9822  -15.1504   17.6759 O   0  0  0  0  0  0  0  0  0  0  0  0
    8.2423  -13.7160   18.3873 C   0  0  2  0  0  0  0  0  0  0  0  0
    8.7248  -12.6118   17.6125 N   0  0  0  0  0  0  0  0  0  0  0  0
    8.8809  -13.7455   19.7454 C   0  0  0  0  0  0  0  0  0  0  0  0
   10.0532  -13.3277   19.9232 O   0  0  0  0  0  0  0  0  0  0  0  0
    8.1967  -14.2460   20.8995 N   0  0  0  0  0  0  0  0  0  0  0  0
    8.8910  -14.3661   22.1462 C   0  0  1  0  0  0  0  0  0  0  0  0
    7.9788  -14.2554   23.3306 C   0  0  0  0  0  0  0  0  0  0  0  0
    6.5415  -15.3420   23.0607 S   0  0  0  0  0  0  0  0  0  0  0  0
    9.7228  -15.6168   22.2029 C   0  0  0  0  0  0  0  0  0  0  0  0
    9.2409  -16.6941   21.7559 O   0  0  0  0  0  0  0  0  0  0  0  0
   15.1502  -16.0495   17.8409 N   0  0  0  0  0  0  0  0  0  0  0  0
   14.6098  -14.7908   18.2559 C   0  0  0  0  0  0  0  0  0  0  0  0
   15.2953  -13.7136   17.9775 N   0  0  0  0  0  0  0  0  0  0  0  0
   13.3873  -14.7139   18.9398 N   0  0  0  0  0  0  0  0  0  0  0  0
   13.3944  -14.7359   20.4140 C   0  0  0  0  0  0  0  0  0  0  0  0
   13.2038  -16.1502   20.8041 C   0  0  0  0  0  0  0  0  0  0  0  0
   13.0678  -16.5636   22.1867 C   0  0  0  0  0  0  0  0  0  0  0  0
   11.8084  -16.9196   22.8544 C   0  0  2  0  0  0  0  0  0  0  0  0
   11.0106  -15.6385   22.7309 N   0  0  0  0  0  0  0  0  0  0  0  0
   11.7974  -17.3135   24.2542 C   0  0  0  0  0  0  0  0  0  0  0  0
   11.3540  -16.6654   25.2173 O   0  0  0  0  0  0  0  0  0  0  0  0
   12.3445  -18.5712   24.5941 O   0  0  0  0  0  0  0  0  0  0  0  0
  2  3  1  0
  2  1  1  6
  4  2  1  0
  4  5  1  6
  6  4  1  0
  7  6  2  0
  8  6  1  0
  9 12  1  0
  9  8  1  0
  9 10  1  1
 11 10  1  0
 12 22  1  0
 13 12  2  0
 15 14  1  0
 15 16  2  0
 17 15  1  0
 18 17  1  0
 19 18  1  0
 20 19  1  0
 21 20  1  1
 22 21  1  0
 23 25  1  0
 23 21  1  0
 24 23  2  0
M  END
$$$$
