TCR.pdb
     RDKit          3D

 25 24  0  0  1  0  0  0  0  0999 V2000
    5.6682  -22.3100   23.5949 C   0  0  0  0  0  0  0  0  0  0  0  0
    6.3322  -20.9678   23.4645 C   0  0  1  0  0  0  0  0  0  0  0  0
    7.1786  -20.9964   22.3455 O   0  0  0  0  0  0  0  0  0  0  0  0
    5.3347  -19.8369   23.2655 C   0  0  2  0  0  0  0  0  0  0  0  0
    4.6237  -19.9613   22.0279 N   0  0  0  0  0  0  0  0  0  0  0  0
    6.1456  -18.5743   23.3003 C   0  0  0  0  0  0  0  0  0  0  0  0
    6.5242  -18.0138   22.2406 O   0  0  0  0  0  0  0  0  0  0  0  0
    6.5278  -17.9466   24.5294 N   0  0  0  0  0  0  0  0  0  0  0  0
    7.3770  -16.7937   24.5097 C   0  0  1  0  0  0  0  0  0  0  0  0
    7.2821  -15.9825   25.7667 C   0  0  0  0  0  0  0  0  0  0  0  0
    8.3785  -14.5360   25.6090 S   0  0  0  0  0  0  0  0  0  0  0  0
    8.8006  -17.1552   24.1901 C   0  0  0  0  0  0  0  0  0  0  0  0
    9.2881  -18.2130   24.6758 O   0  0  0  0  0  0  0  0  0  0  0  0
   14.1718  -14.8432   17.0341 N   0  0  0  0  0  0  0  0  0  0  0  0
   14.6133  -14.5625   18.3664 C   0  0  0  0  0  0  0  0  0  0  0  0
   15.4909  -13.6078   18.5272 N   0  0  0  0  0  0  0  0  0  0  0  0
   14.1233  -15.2873   19.4630 N   0  0  0  0  0  0  0  0  0  0  0  0
   12.7731  -14.9827   19.9710 C   0  0  0  0  0  0  0  0  0  0  0  0
   12.5235  -15.9390   21.0718 C   0  0  0  0  0  0  0  0  0  0  0  0
   11.3149  -15.9059   21.8712 C   0  0  0  0  0  0  0  0  0  0  0  0
   11.0303  -16.7637   23.0297 C   0  0  2  0  0  0  0  0  0  0  0  0
    9.6101  -16.3683   23.3758 N   0  0  0  0  0  0  0  0  0  0  0  0
   11.8259  -16.6591   24.2425 C   0  0  0  0  0  0  0  0  0  0  0  0
   12.9544  -17.1367   24.4485 O   0  0  0  0  0  0  0  0  0  0  0  0
   11.2852  -15.9380   25.3308 O   0  0  0  0  0  0  0  0  0  0  0  0
  2  3  1  0
  2  1  1  6
  4  2  1  0
  4  5  1  6
  6  4  1  0
  7  6  2  0
  8  6  1  0
  9 12  1  0
  9  8  1  0
  9 10  1  1
 11 10  1  0
 12 22  1  0
 13 12  2  0
 15 14  1  0
 15 16  2  0
 17 15  1  0
 18 17  1  0
 19 18  1  0
 20 19  1  0
 21 20  1  6
 22 21  1  0
 23 25  1  0
 23 21  1  0
 24 23  2  0
M  END
$$$$
