TCR.pdb
     RDKit          3D

 25 24  0  0  1  0  0  0  0  0999 V2000
   11.1321  -14.5262   19.4762 C   0  0  0  0  0  0  0  0  0  0  0  0
   10.2346  -13.4182   19.0001 C   0  0  1  0  0  0  0  0  0  0  0  0
   10.8512  -12.7821   17.9117 O   0  0  0  0  0  0  0  0  0  0  0  0
    8.8762  -13.9218   18.5372 C   0  0  2  0  0  0  0  0  0  0  0  0
    8.0671  -12.8666   18.0038 N   0  0  0  0  0  0  0  0  0  0  0  0
    8.2387  -14.5333   19.7508 C   0  0  0  0  0  0  0  0  0  0  0  0
    7.7207  -13.8175   20.6450 O   0  0  0  0  0  0  0  0  0  0  0  0
    8.1869  -15.9499   19.9534 N   0  0  0  0  0  0  0  0  0  0  0  0
    7.6424  -16.4791   21.1676 C   0  0  1  0  0  0  0  0  0  0  0  0
    7.2535  -17.9219   21.0479 C   0  0  0  0  0  0  0  0  0  0  0  0
    8.7701  -18.9257   20.9409 S   0  0  0  0  0  0  0  0  0  0  0  0
    8.5583  -16.2477   22.3368 C   0  0  0  0  0  0  0  0  0  0  0  0
    9.7943  -16.1023   22.1276 O   0  0  0  0  0  0  0  0  0  0  0  0
    5.3851  -11.5246   27.7596 N   0  0  0  0  0  0  0  0  0  0  0  0
    6.0279  -11.5089   26.4808 C   0  0  0  0  0  0  0  0  0  0  0  0
    5.7423  -10.5255   25.6691 N   0  0  0  0  0  0  0  0  0  0  0  0
    6.9325  -12.5146   26.1089 N   0  0  0  0  0  0  0  0  0  0  0  0
    7.9820  -12.9158   27.0636 C   0  0  0  0  0  0  0  0  0  0  0  0
    8.8311  -13.8962   26.3517 C   0  0  0  0  0  0  0  0  0  0  0  0
    8.2800  -15.0455   25.6618 C   0  0  0  0  0  0  0  0  0  0  0  0
    9.0363  -15.9840   24.8214 C   0  0  2  0  0  0  0  0  0  0  0  0
    8.0991  -16.1864   23.6493 N   0  0  0  0  0  0  0  0  0  0  0  0
    9.4046  -17.2978   25.3244 C   0  0  0  0  0  0  0  0  0  0  0  0
    8.8566  -18.3839   25.0710 O   0  0  0  0  0  0  0  0  0  0  0  0
   10.5076  -17.3867   26.2032 O   0  0  0  0  0  0  0  0  0  0  0  0
  2  3  1  0
  2  1  1  6
  4  2  1  0
  4  5  1  1
  6  4  1  0
  7  6  2  0
  8  6  1  0
  9 12  1  0
  9  8  1  0
  9 10  1  6
 11 10  1  0
 12 22  1  0
 13 12  2  0
 15 14  1  0
 15 16  2  0
 17 15  1  0
 18 17  1  0
 19 18  1  0
 20 19  1  0
 21 20  1  1
 22 21  1  0
 23 25  1  0
 23 21  1  0
 24 23  2  0
M  END
$$$$
