TCR.pdb
     RDKit          3D

 25 24  0  0  1  0  0  0  0  0999 V2000
    8.2619  -15.9972   18.9176 C   0  0  0  0  0  0  0  0  0  0  0  0
    8.3646  -15.2395   20.2118 C   0  0  1  0  0  0  0  0  0  0  0  0
    7.3526  -14.2677   20.2406 O   0  0  0  0  0  0  0  0  0  0  0  0
    8.1877  -16.1328   21.4301 C   0  0  2  0  0  0  0  0  0  0  0  0
    6.8980  -16.7563   21.4543 N   0  0  0  0  0  0  0  0  0  0  0  0
    8.3786  -15.2356   22.6182 C   0  0  0  0  0  0  0  0  0  0  0  0
    9.4522  -14.6051   22.7925 O   0  0  0  0  0  0  0  0  0  0  0  0
    7.3592  -15.0514   23.6067 N   0  0  0  0  0  0  0  0  0  0  0  0
    7.6220  -14.2503   24.7643 C   0  0  1  0  0  0  0  0  0  0  0  0
    6.3753  -13.6769   25.3675 C   0  0  0  0  0  0  0  0  0  0  0  0
    6.8252  -12.7774   26.8867 S   0  0  0  0  0  0  0  0  0  0  0  0
    8.4388  -14.9944   25.7835 C   0  0  0  0  0  0  0  0  0  0  0  0
    8.0537  -16.1345   26.1636 O   0  0  0  0  0  0  0  0  0  0  0  0
   16.4818  -16.1394   25.1191 N   0  0  0  0  0  0  0  0  0  0  0  0
   15.7524  -17.3673   25.0249 C   0  0  0  0  0  0  0  0  0  0  0  0
   16.4379  -18.4745   24.9164 N   0  0  0  0  0  0  0  0  0  0  0  0
   14.3498  -17.3838   25.0464 N   0  0  0  0  0  0  0  0  0  0  0  0
   13.6242  -16.1016   25.1044 C   0  0  0  0  0  0  0  0  0  0  0  0
   12.7113  -16.1990   26.2646 C   0  0  0  0  0  0  0  0  0  0  0  0
   11.8162  -15.1232   26.6417 C   0  0  0  0  0  0  0  0  0  0  0  0
   10.4919  -15.2865   27.2568 C   0  0  2  0  0  0  0  0  0  0  0  0
    9.6095  -14.4768   26.3301 N   0  0  0  0  0  0  0  0  0  0  0  0
   10.2439  -14.8287   28.6146 C   0  0  0  0  0  0  0  0  0  0  0  0
    9.6597  -13.7899   28.9661 O   0  0  0  0  0  0  0  0  0  0  0  0
   10.7055  -15.6330   29.6809 O   0  0  0  0  0  0  0  0  0  0  0  0
  2  3  1  0
  2  1  1  6
  4  2  1  0
  4  5  1  1
  6  4  1  0
  7  6  2  0
  8  6  1  0
  9 12  1  0
  9  8  1  0
  9 10  1  1
 11 10  1  0
 12 22  1  0
 13 12  2  0
 15 14  1  0
 15 16  2  0
 17 15  1  0
 18 17  1  0
 19 18  1  0
 20 19  1  0
 21 20  1  6
 22 21  1  0
 23 25  1  0
 23 21  1  0
 24 23  2  0
M  END
$$$$
