TCR.pdb
     RDKit          3D

 25 24  0  0  1  0  0  0  0  0999 V2000
    8.4124  -15.5949   19.1236 C   0  0  0  0  0  0  0  0  0  0  0  0
    8.6046  -14.8515   20.4159 C   0  0  1  0  0  0  0  0  0  0  0  0
    8.0749  -13.5601   20.2699 O   0  0  0  0  0  0  0  0  0  0  0  0
    7.8960  -15.5164   21.5860 C   0  0  2  0  0  0  0  0  0  0  0  0
    6.4751  -15.5454   21.4052 N   0  0  0  0  0  0  0  0  0  0  0  0
    8.2724  -14.7104   22.7950 C   0  0  0  0  0  0  0  0  0  0  0  0
    9.4762  -14.5369   23.1133 O   0  0  0  0  0  0  0  0  0  0  0  0
    7.2912  -14.1022   23.6422 N   0  0  0  0  0  0  0  0  0  0  0  0
    7.6894  -13.4971   24.8776 C   0  0  1  0  0  0  0  0  0  0  0  0
    6.6917  -12.4983   25.3817 C   0  0  0  0  0  0  0  0  0  0  0  0
    5.2073  -13.3925   25.9439 S   0  0  0  0  0  0  0  0  0  0  0  0
    8.0185  -14.5267   25.9221 C   0  0  0  0  0  0  0  0  0  0  0  0
    8.4418  -14.1441   27.0477 O   0  0  0  0  0  0  0  0  0  0  0  0
    8.3097  -22.5002   27.8801 N   0  0  0  0  0  0  0  0  0  0  0  0
    6.9144  -22.1938   27.9690 C   0  0  0  0  0  0  0  0  0  0  0  0
    6.2096  -22.8262   28.8695 N   0  0  0  0  0  0  0  0  0  0  0  0
    6.3215  -21.2488   27.1185 N   0  0  0  0  0  0  0  0  0  0  0  0
    7.1322  -20.6555   26.0394 C   0  0  0  0  0  0  0  0  0  0  0  0
    7.8179  -19.4881   26.6359 C   0  0  0  0  0  0  0  0  0  0  0  0
    7.5328  -18.1269   26.2275 C   0  0  0  0  0  0  0  0  0  0  0  0
    8.1609  -16.9180   26.7780 C   0  0  2  0  0  0  0  0  0  0  0  0
    7.8755  -15.8934   25.7002 N   0  0  0  0  0  0  0  0  0  0  0  0
    9.5885  -16.8842   27.0528 C   0  0  0  0  0  0  0  0  0  0  0  0
   10.5042  -16.6163   26.2567 O   0  0  0  0  0  0  0  0  0  0  0  0
   10.0191  -17.1839   28.3648 O   0  0  0  0  0  0  0  0  0  0  0  0
  2  3  1  0
  2  1  1  6
  4  2  1  0
  4  5  1  6
  6  4  1  0
  7  6  2  0
  8  6  1  0
  9 12  1  0
  9  8  1  0
  9 10  1  1
 11 10  1  0
 12 22  1  0
 13 12  2  0
 15 14  1  0
 15 16  2  0
 17 15  1  0
 18 17  1  0
 19 18  1  0
 20 19  1  0
 21 20  1  6
 22 21  1  0
 23 25  1  0
 23 21  1  0
 24 23  2  0
M  END
$$$$
