TCR.pdb
     RDKit          3D

 25 24  0  0  1  0  0  0  0  0999 V2000
    6.6319  -14.3677   18.3238 C   0  0  0  0  0  0  0  0  0  0  0  0
    7.3188  -14.4670   19.6572 C   0  0  1  0  0  0  0  0  0  0  0  0
    8.5272  -15.1596   19.4852 O   0  0  0  0  0  0  0  0  0  0  0  0
    7.6426  -13.1056   20.2530 C   0  0  2  0  0  0  0  0  0  0  0  0
    8.4823  -12.3292   19.3899 N   0  0  0  0  0  0  0  0  0  0  0  0
    8.3238  -13.3900   21.5599 C   0  0  0  0  0  0  0  0  0  0  0  0
    9.5744  -13.4953   21.6333 O   0  0  0  0  0  0  0  0  0  0  0  0
    7.5938  -13.5549   22.7807 N   0  0  0  0  0  0  0  0  0  0  0  0
    8.2924  -13.8319   23.9998 C   0  0  1  0  0  0  0  0  0  0  0  0
    7.4725  -13.5324   25.2185 C   0  0  0  0  0  0  0  0  0  0  0  0
    5.9379  -14.5113   25.1414 S   0  0  0  0  0  0  0  0  0  0  0  0
    8.8326  -15.2344   24.0266 C   0  0  0  0  0  0  0  0  0  0  0  0
    8.1985  -16.1468   23.4284 O   0  0  0  0  0  0  0  0  0  0  0  0
   14.7182  -15.5698   19.6798 N   0  0  0  0  0  0  0  0  0  0  0  0
   14.5029  -15.0498   20.9959 C   0  0  0  0  0  0  0  0  0  0  0  0
   15.4125  -14.2525   21.4905 N   0  0  0  0  0  0  0  0  0  0  0  0
   13.3565  -15.3846   21.7319 N   0  0  0  0  0  0  0  0  0  0  0  0
   12.5731  -16.5670   21.3295 C   0  0  0  0  0  0  0  0  0  0  0  0
   11.4386  -16.6489   22.2755 C   0  0  0  0  0  0  0  0  0  0  0  0
   11.6228  -16.9095   23.6894 C   0  0  0  0  0  0  0  0  0  0  0  0
   10.5523  -16.9865   24.6928 C   0  0  2  0  0  0  0  0  0  0  0  0
   10.0100  -15.5727   24.6874 N   0  0  0  0  0  0  0  0  0  0  0  0
   10.8527  -17.3390   26.0713 C   0  0  0  0  0  0  0  0  0  0  0  0
   10.8471  -16.5876   27.0610 O   0  0  0  0  0  0  0  0  0  0  0  0
   11.1930  -18.6810   26.3541 O   0  0  0  0  0  0  0  0  0  0  0  0
  2  3  1  0
  2  1  1  6
  4  2  1  0
  4  5  1  6
  6  4  1  0
  7  6  2  0
  8  6  1  0
  9 12  1  0
  9  8  1  0
  9 10  1  1
 11 10  1  0
 12 22  1  0
 13 12  2  0
 15 14  1  0
 15 16  2  0
 17 15  1  0
 18 17  1  0
 19 18  1  0
 20 19  1  0
 21 20  1  6
 22 21  1  0
 23 25  1  0
 23 21  1  0
 24 23  2  0
M  END
$$$$
