TCR.pdb
     RDKit          3D

 25 24  0  0  1  0  0  0  0  0999 V2000
    7.4930  -11.8951   18.8146 C   0  0  0  0  0  0  0  0  0  0  0  0
    8.6390  -12.8200   19.1161 C   0  0  1  0  0  0  0  0  0  0  0  0
    8.2090  -13.7707   20.0546 O   0  0  0  0  0  0  0  0  0  0  0  0
    9.1283  -13.5681   17.8855 C   0  0  2  0  0  0  0  0  0  0  0  0
    8.0834  -14.3338   17.2735 N   0  0  0  0  0  0  0  0  0  0  0  0
   10.2386  -14.4550   18.3688 C   0  0  0  0  0  0  0  0  0  0  0  0
   10.0148  -15.6348   18.7409 O   0  0  0  0  0  0  0  0  0  0  0  0
   11.5982  -14.0099   18.4315 N   0  0  0  0  0  0  0  0  0  0  0  0
   12.6098  -14.8742   18.9609 C   0  0  1  0  0  0  0  0  0  0  0  0
   13.9474  -14.6628   18.3180 C   0  0  0  0  0  0  0  0  0  0  0  0
   15.1302  -15.8495   19.0334 S   0  0  0  0  0  0  0  0  0  0  0  0
   12.6946  -14.7813   20.4589 C   0  0  0  0  0  0  0  0  0  0  0  0
   12.9325  -13.6619   20.9909 O   0  0  0  0  0  0  0  0  0  0  0  0
    8.4607  -17.7715   26.9386 N   0  0  0  0  0  0  0  0  0  0  0  0
    8.0485  -17.7753   25.5679 C   0  0  0  0  0  0  0  0  0  0  0  0
    7.0987  -18.6031   25.2213 N   0  0  0  0  0  0  0  0  0  0  0  0
    8.6436  -16.9219   24.6269 N   0  0  0  0  0  0  0  0  0  0  0  0
    9.7395  -16.0369   25.0622 C   0  0  0  0  0  0  0  0  0  0  0  0
   10.9916  -16.6790   24.6054 C   0  0  0  0  0  0  0  0  0  0  0  0
   11.4678  -16.5703   23.2408 C   0  0  0  0  0  0  0  0  0  0  0  0
   12.6243  -15.7798   22.7975 C   0  0  2  0  0  0  0  0  0  0  0  0
   12.5209  -15.8839   21.2903 N   0  0  0  0  0  0  0  0  0  0  0  0
   13.9745  -16.1659   23.1752 C   0  0  0  0  0  0  0  0  0  0  0  0
   14.6296  -15.7632   24.1513 O   0  0  0  0  0  0  0  0  0  0  0  0
   14.6480  -17.1054   22.3625 O   0  0  0  0  0  0  0  0  0  0  0  0
  2  3  1  0
  2  1  1  6
  4  2  1  0
  4  5  1  1
  6  4  1  0
  7  6  2  0
  8  6  1  0
  9 12  1  0
  9  8  1  0
  9 10  1  6
 11 10  1  0
 12 22  1  0
 13 12  2  0
 15 14  1  0
 15 16  2  0
 17 15  1  0
 18 17  1  0
 19 18  1  0
 20 19  1  0
 21 20  1  1
 22 21  1  0
 23 25  1  0
 23 21  1  0
 24 23  2  0
M  END
$$$$
