TCR.pdb
     RDKit          3D

 25 24  0  0  1  0  0  0  0  0999 V2000
    6.2647  -14.0378   19.2831 C   0  0  0  0  0  0  0  0  0  0  0  0
    6.8133  -14.2386   20.6682 C   0  0  1  0  0  0  0  0  0  0  0  0
    7.8345  -15.1994   20.6078 O   0  0  0  0  0  0  0  0  0  0  0  0
    7.4048  -12.9661   21.2548 C   0  0  2  0  0  0  0  0  0  0  0  0
    8.4782  -12.4559   20.4548 N   0  0  0  0  0  0  0  0  0  0  0  0
    7.8822  -13.3400   22.6279 C   0  0  0  0  0  0  0  0  0  0  0  0
    9.0530  -13.7560   22.8196 O   0  0  0  0  0  0  0  0  0  0  0  0
    7.0390  -13.2442   23.7813 N   0  0  0  0  0  0  0  0  0  0  0  0
    7.5220  -13.6767   25.0581 C   0  0  1  0  0  0  0  0  0  0  0  0
    6.6374  -13.2454   26.1888 C   0  0  0  0  0  0  0  0  0  0  0  0
    6.8236  -11.4478   26.4193 S   0  0  0  0  0  0  0  0  0  0  0  0
    7.7740  -15.1583   25.0863 C   0  0  0  0  0  0  0  0  0  0  0  0
    7.0045  -15.9231   24.4416 O   0  0  0  0  0  0  0  0  0  0  0  0
   10.7890  -17.9888   19.1984 N   0  0  0  0  0  0  0  0  0  0  0  0
   11.4294  -18.9437   20.0510 C   0  0  0  0  0  0  0  0  0  0  0  0
   11.6591  -20.1347   19.5648 N   0  0  0  0  0  0  0  0  0  0  0  0
   11.7971  -18.6149   21.3642 N   0  0  0  0  0  0  0  0  0  0  0  0
   11.2876  -17.3630   21.9534 C   0  0  0  0  0  0  0  0  0  0  0  0
   10.7246  -17.7293   23.2716 C   0  0  0  0  0  0  0  0  0  0  0  0
   10.0199  -16.7777   24.1074 C   0  0  0  0  0  0  0  0  0  0  0  0
    9.4231  -17.0665   25.4186 C   0  0  2  0  0  0  0  0  0  0  0  0
    8.8265  -15.7273   25.7975 N   0  0  0  0  0  0  0  0  0  0  0  0
   10.2516  -17.5108   26.5281 C   0  0  0  0  0  0  0  0  0  0  0  0
   10.7168  -16.8168   27.4479 O   0  0  0  0  0  0  0  0  0  0  0  0
   10.5841  -18.8822   26.6005 O   0  0  0  0  0  0  0  0  0  0  0  0
  2  3  1  0
  2  1  1  6
  4  2  1  0
  4  5  1  6
  6  4  1  0
  7  6  2  0
  8  6  1  0
  9 12  1  0
  9  8  1  0
  9 10  1  1
 11 10  1  0
 12 22  1  0
 13 12  2  0
 15 14  1  0
 15 16  2  0
 17 15  1  0
 18 17  1  0
 19 18  1  0
 20 19  1  0
 21 20  1  6
 22 21  1  0
 23 25  1  0
 23 21  1  0
 24 23  2  0
M  END
$$$$
