ILL.pdb
     RDKit          3D

 25 24  0  0  1  0  0  0  0  0999 V2000
   24.9369  -14.4405  -15.3507 C   0  0  0  0  0  0  0  0  0  0  0  0
   26.0938  -15.3681  -15.5672 C   0  0  0  0  0  0  0  0  0  0  0  0
   25.7296  -16.8226  -15.3067 C   0  0  2  0  0  0  0  0  0  0  0  0
   26.0609  -17.1339  -13.8850 C   0  0  0  0  0  0  0  0  0  0  0  0
   26.4386  -17.6564  -16.3166 C   0  0  2  0  0  0  0  0  0  0  0  0
   26.0772  -17.1737  -17.6359 N   0  0  0  0  0  0  0  0  0  0  0  0
   26.2000  -19.0990  -16.2063 C   0  0  0  0  0  0  0  0  0  0  0  0
   25.1997  -19.6948  -16.6690 O   0  0  0  0  0  0  0  0  0  0  0  0
   30.1100  -23.1993  -16.4775 C   0  0  0  0  0  0  0  0  0  0  0  0
   28.6892  -22.6666  -16.7004 C   0  0  2  0  0  0  0  0  0  0  0  0
   28.6286  -21.8134  -17.9208 C   0  0  0  0  0  0  0  0  0  0  0  0
   28.2991  -21.9748  -15.4456 C   0  0  0  0  0  0  0  0  0  0  0  0
   26.9509  -21.3551  -15.4326 C   0  0  2  0  0  0  0  0  0  0  0  0
   27.1564  -19.9003  -15.5312 N   0  0  0  0  0  0  0  0  0  0  0  0
   26.2444  -21.6801  -14.1624 C   0  0  0  0  0  0  0  0  0  0  0  0
   25.7796  -22.8369  -14.0566 O   0  0  0  0  0  0  0  0  0  0  0  0
   24.5255  -20.1580   -8.8849 C   0  0  0  0  0  0  0  0  0  0  0  0
   25.8102  -20.7146   -9.3538 C   0  0  2  0  0  0  0  0  0  0  0  0
   26.9349  -20.0718   -8.5071 C   0  0  0  0  0  0  0  0  0  0  0  0
   26.2093  -20.5571  -10.7579 C   0  0  0  0  0  0  0  0  0  0  0  0
   25.3996  -21.0838  -11.8638 C   0  0  2  0  0  0  0  0  0  0  0  0
   26.0989  -20.7387  -13.1203 N   0  0  0  0  0  0  0  0  0  0  0  0
   24.0264  -20.6030  -12.0317 C   0  0  0  0  0  0  0  0  0  0  0  0
   22.8875  -21.1612  -11.4474 O   0  0  0  0  0  0  0  0  0  0  0  0
   23.7772  -19.5978  -12.7637 O   0  0  0  0  0  0  0  0  0  0  0  0
  2  1  1  0
  3  5  1  0
  3  2  1  0
  3  4  1  1
  5  6  1  6
  7  5  1  0
  7  8  2  0
 10  9  1  1
 11 10  1  0
 12 10  1  0
 13 12  1  1
 13 14  1  0
 14  7  1  0
 15 13  1  0
 16 15  2  0
 18 17  1  6
 18 20  1  0
 19 18  1  0
 21 20  1  1
 21 22  1  0
 21 23  1  0
 22 15  1  0
 23 24  1  0
 25 23  2  0
M  END
$$$$
