ILL.pdb
     RDKit          3D

 25 24  0  0  1  0  0  0  0  0999 V2000
   20.9036  -18.0693  -17.8848 C   0  0  0  0  0  0  0  0  0  0  0  0
   21.2895  -18.4918  -16.4997 C   0  0  0  0  0  0  0  0  0  0  0  0
   22.6776  -19.1133  -16.4470 C   0  0  2  0  0  0  0  0  0  0  0  0
   22.7388  -20.1940  -17.4748 C   0  0  0  0  0  0  0  0  0  0  0  0
   22.9227  -19.5594  -15.0474 C   0  0  2  0  0  0  0  0  0  0  0  0
   22.8211  -18.4017  -14.1793 N   0  0  0  0  0  0  0  0  0  0  0  0
   24.1928  -20.2606  -14.8344 C   0  0  0  0  0  0  0  0  0  0  0  0
   24.4679  -21.3944  -15.2911 O   0  0  0  0  0  0  0  0  0  0  0  0
   27.6087  -20.0366  -16.5704 C   0  0  0  0  0  0  0  0  0  0  0  0
   27.4707  -18.8070  -15.6641 C   0  0  2  0  0  0  0  0  0  0  0  0
   28.4967  -17.7808  -16.0033 C   0  0  0  0  0  0  0  0  0  0  0  0
   27.5379  -19.3062  -14.2670 C   0  0  0  0  0  0  0  0  0  0  0  0
   26.5017  -20.2934  -13.8750 C   0  0  2  0  0  0  0  0  0  0  0  0
   25.1995  -19.6307  -14.0584 N   0  0  0  0  0  0  0  0  0  0  0  0
   26.6728  -20.6838  -12.4479 C   0  0  0  0  0  0  0  0  0  0  0  0
   27.5932  -21.4916  -12.1915 O   0  0  0  0  0  0  0  0  0  0  0  0
   27.2767  -18.9501   -6.9006 C   0  0  0  0  0  0  0  0  0  0  0  0
   26.8381  -20.0505   -7.7818 C   0  0  2  0  0  0  0  0  0  0  0  0
   27.9084  -21.1657   -7.7052 C   0  0  0  0  0  0  0  0  0  0  0  0
   26.6056  -19.7990   -9.2096 C   0  0  0  0  0  0  0  0  0  0  0  0
   25.8701  -20.7439  -10.0594 C   0  0  2  0  0  0  0  0  0  0  0  0
   25.8442  -20.1751  -11.4243 N   0  0  0  0  0  0  0  0  0  0  0  0
   24.4762  -21.0556   -9.7354 C   0  0  0  0  0  0  0  0  0  0  0  0
   23.3800  -20.8746  -10.5814 O   0  0  0  0  0  0  0  0  0  0  0  0
   24.1656  -21.5301   -8.6011 O   0  0  0  0  0  0  0  0  0  0  0  0
  2  1  1  0
  3  5  1  0
  3  2  1  0
  3  4  1  6
  5  6  1  1
  7  5  1  0
  7  8  2  0
 10  9  1  6
 11 10  1  0
 12 10  1  0
 13 12  1  1
 13 14  1  0
 14  7  1  0
 15 13  1  0
 16 15  2  0
 18 17  1  1
 18 20  1  0
 19 18  1  0
 21 20  1  1
 21 22  1  0
 21 23  1  0
 22 15  1  0
 23 24  1  0
 25 23  2  0
M  END
$$$$
