ILL.pdb
     RDKit          3D

 25 24  0  0  1  0  0  0  0  0999 V2000
   20.5517  -17.9728  -16.4497 C   0  0  0  0  0  0  0  0  0  0  0  0
   21.3626  -18.0877  -15.1947 C   0  0  0  0  0  0  0  0  0  0  0  0
   22.5205  -19.0647  -15.3381 C   0  0  2  0  0  0  0  0  0  0  0  0
   21.9774  -20.3495  -15.8692 C   0  0  0  0  0  0  0  0  0  0  0  0
   23.1968  -19.1649  -14.0150 C   0  0  2  0  0  0  0  0  0  0  0  0
   23.6800  -17.8459  -13.6529 N   0  0  0  0  0  0  0  0  0  0  0  0
   24.2779  -20.1531  -13.9453 C   0  0  0  0  0  0  0  0  0  0  0  0
   24.1246  -21.3896  -14.0773 O   0  0  0  0  0  0  0  0  0  0  0  0
   27.4815  -20.4201  -16.3749 C   0  0  0  0  0  0  0  0  0  0  0  0
   27.8361  -19.3383  -15.3472 C   0  0  2  0  0  0  0  0  0  0  0  0
   29.0704  -18.6076  -15.7514 C   0  0  0  0  0  0  0  0  0  0  0  0
   27.9286  -20.0230  -14.0327 C   0  0  0  0  0  0  0  0  0  0  0  0
   26.6897  -20.6817  -13.5499 C   0  0  2  0  0  0  0  0  0  0  0  0
   25.6025  -19.7018  -13.7126 N   0  0  0  0  0  0  0  0  0  0  0  0
   26.8260  -21.0505  -12.1134 C   0  0  0  0  0  0  0  0  0  0  0  0
   27.6203  -21.9786  -11.8432 O   0  0  0  0  0  0  0  0  0  0  0  0
   26.1558  -20.1933   -6.5556 C   0  0  0  0  0  0  0  0  0  0  0  0
   27.2762  -20.1329   -7.5153 C   0  0  2  0  0  0  0  0  0  0  0  0
   28.1878  -18.9547   -7.0961 C   0  0  0  0  0  0  0  0  0  0  0  0
   27.0067  -19.9569   -8.9478 C   0  0  0  0  0  0  0  0  0  0  0  0
   26.1343  -20.8704   -9.6964 C   0  0  2  0  0  0  0  0  0  0  0  0
   26.1005  -20.3936  -11.0959 N   0  0  0  0  0  0  0  0  0  0  0  0
   24.7332  -21.0069   -9.2923 C   0  0  0  0  0  0  0  0  0  0  0  0
   24.2439  -21.8838   -8.3219 O   0  0  0  0  0  0  0  0  0  0  0  0
   23.8309  -20.3001   -9.8350 O   0  0  0  0  0  0  0  0  0  0  0  0
  2  1  1  0
  3  5  1  0
  3  2  1  0
  3  4  1  1
  5  6  1  6
  7  5  1  0
  7  8  2  0
 10  9  1  6
 11 10  1  0
 12 10  1  0
 13 12  1  1
 13 14  1  0
 14  7  1  0
 15 13  1  0
 16 15  2  0
 18 17  1  1
 18 20  1  0
 19 18  1  0
 21 20  1  1
 21 22  1  0
 21 23  1  0
 22 15  1  0
 23 24  1  0
 25 23  2  0
M  END
$$$$
