ILL.pdb
     RDKit          3D

 25 24  0  0  1  0  0  0  0  0999 V2000
   24.4913  -16.2481  -19.5034 C   0  0  0  0  0  0  0  0  0  0  0  0
   25.4426  -16.7987  -18.4848 C   0  0  0  0  0  0  0  0  0  0  0  0
   24.8501  -17.9639  -17.7057 C   0  0  2  0  0  0  0  0  0  0  0  0
   23.5351  -17.5272  -17.1509 C   0  0  0  0  0  0  0  0  0  0  0  0
   25.8533  -18.3885  -16.6903 C   0  0  2  0  0  0  0  0  0  0  0  0
   27.0752  -18.7483  -17.3845 N   0  0  0  0  0  0  0  0  0  0  0  0
   25.4179  -19.4739  -15.8056 C   0  0  0  0  0  0  0  0  0  0  0  0
   25.3024  -20.6729  -16.1500 O   0  0  0  0  0  0  0  0  0  0  0  0
   25.4428  -20.3485   -9.8519 C   0  0  0  0  0  0  0  0  0  0  0  0
   24.9319  -20.9579  -11.1634 C   0  0  2  0  0  0  0  0  0  0  0  0
   25.5259  -22.3061  -11.3880 C   0  0  0  0  0  0  0  0  0  0  0  0
   25.2302  -19.9683  -12.2297 C   0  0  0  0  0  0  0  0  0  0  0  0
   24.6296  -20.2389  -13.5593 C   0  0  2  0  0  0  0  0  0  0  0  0
   25.0984  -19.1701  -14.4573 N   0  0  0  0  0  0  0  0  0  0  0  0
   23.1432  -20.2085  -13.4714 C   0  0  0  0  0  0  0  0  0  0  0  0
   22.6269  -19.1604  -13.0238 O   0  0  0  0  0  0  0  0  0  0  0  0
   19.6792  -20.2747  -16.5838 C   0  0  0  0  0  0  0  0  0  0  0  0
   20.3516  -21.5421  -16.2351 C   0  0  2  0  0  0  0  0  0  0  0  0
   19.7330  -22.6563  -17.1130 C   0  0  0  0  0  0  0  0  0  0  0  0
   20.3139  -22.0367  -14.8532 C   0  0  0  0  0  0  0  0  0  0  0  0
   20.8713  -21.2682  -13.7331 C   0  0  2  0  0  0  0  0  0  0  0  0
   22.3434  -21.3016  -13.8700 N   0  0  0  0  0  0  0  0  0  0  0  0
   20.5926  -21.7040  -12.3629 C   0  0  0  0  0  0  0  0  0  0  0  0
   19.5142  -21.2919  -11.5773 O   0  0  0  0  0  0  0  0  0  0  0  0
   21.3614  -22.5237  -11.7750 O   0  0  0  0  0  0  0  0  0  0  0  0
  2  1  1  0
  3  5  1  0
  3  2  1  0
  3  4  1  1
  5  6  1  6
  7  5  1  0
  7  8  2  0
 10  9  1  1
 11 10  1  0
 12 10  1  0
 13 12  1  1
 13 14  1  0
 14  7  1  0
 15 13  1  0
 16 15  2  0
 18 17  1  1
 18 20  1  0
 19 18  1  0
 21 20  1  6
 21 22  1  0
 21 23  1  0
 22 15  1  0
 23 24  1  0
 25 23  2  0
M  END
$$$$
