ILL.pdb
     RDKit          3D

 25 24  0  0  1  0  0  0  0  0999 V2000
   20.9738  -18.7200  -16.7849 C   0  0  0  0  0  0  0  0  0  0  0  0
   21.3638  -18.9534  -15.3569 C   0  0  0  0  0  0  0  0  0  0  0  0
   22.6244  -19.7961  -15.2287 C   0  0  2  0  0  0  0  0  0  0  0  0
   22.4008  -21.0760  -15.9635 C   0  0  0  0  0  0  0  0  0  0  0  0
   22.9251  -19.9461  -13.7778 C   0  0  2  0  0  0  0  0  0  0  0  0
   23.0961  -18.6214  -13.2120 N   0  0  0  0  0  0  0  0  0  0  0  0
   24.0785  -20.7973  -13.4691 C   0  0  0  0  0  0  0  0  0  0  0  0
   24.0982  -22.0442  -13.5897 O   0  0  0  0  0  0  0  0  0  0  0  0
   27.6676  -21.3041  -15.2760 C   0  0  0  0  0  0  0  0  0  0  0  0
   27.7364  -19.9592  -14.5420 C   0  0  2  0  0  0  0  0  0  0  0  0
   28.9617  -19.2053  -14.9308 C   0  0  0  0  0  0  0  0  0  0  0  0
   27.6371  -20.2671  -13.0926 C   0  0  0  0  0  0  0  0  0  0  0  0
   26.4354  -21.0262  -12.6663 C   0  0  2  0  0  0  0  0  0  0  0  0
   25.2703  -20.1891  -12.9981 N   0  0  0  0  0  0  0  0  0  0  0  0
   26.4754  -21.2766  -11.1987 C   0  0  0  0  0  0  0  0  0  0  0  0
   27.2467  -22.1784  -10.8021 O   0  0  0  0  0  0  0  0  0  0  0  0
   28.3114  -20.9503   -7.1805 C   0  0  0  0  0  0  0  0  0  0  0  0
   27.6153  -19.8134   -7.8152 C   0  0  2  0  0  0  0  0  0  0  0  0
   27.8464  -18.5683   -6.9258 C   0  0  0  0  0  0  0  0  0  0  0  0
   26.1694  -19.8827   -8.0607 C   0  0  0  0  0  0  0  0  0  0  0  0
   25.5650  -20.9472   -8.8716 C   0  0  2  0  0  0  0  0  0  0  0  0
   25.6870  -20.5401  -10.2881 N   0  0  0  0  0  0  0  0  0  0  0  0
   24.1510  -21.2747   -8.6757 C   0  0  0  0  0  0  0  0  0  0  0  0
   23.6001  -21.8735   -7.5408 O   0  0  0  0  0  0  0  0  0  0  0  0
   23.2970  -21.0240   -9.5792 O   0  0  0  0  0  0  0  0  0  0  0  0
  2  1  1  0
  3  5  1  0
  3  2  1  0
  3  4  1  1
  5  6  1  6
  7  5  1  0
  7  8  2  0
 10  9  1  6
 11 10  1  0
 12 10  1  0
 13 12  1  1
 13 14  1  0
 14  7  1  0
 15 13  1  0
 16 15  2  0
 18 17  1  1
 18 20  1  0
 19 18  1  0
 21 20  1  1
 21 22  1  0
 21 23  1  0
 22 15  1  0
 23 24  1  0
 25 23  2  0
M  END
$$$$
