ILL.pdb
     RDKit          3D

 25 24  0  0  1  0  0  0  0  0999 V2000
   20.5255  -21.4923  -14.7606 C   0  0  0  0  0  0  0  0  0  0  0  0
   21.1492  -20.6009  -13.7299 C   0  0  0  0  0  0  0  0  0  0  0  0
   22.3246  -21.2615  -13.0245 C   0  0  2  0  0  0  0  0  0  0  0  0
   21.8543  -22.5620  -12.4628 C   0  0  0  0  0  0  0  0  0  0  0  0
   22.8537  -20.2959  -12.0217 C   0  0  2  0  0  0  0  0  0  0  0  0
   23.1260  -19.0430  -12.7001 N   0  0  0  0  0  0  0  0  0  0  0  0
   24.0337  -20.7552  -11.2821 C   0  0  0  0  0  0  0  0  0  0  0  0
   24.0775  -21.7922  -10.5804 O   0  0  0  0  0  0  0  0  0  0  0  0
   27.7700  -22.1966  -12.4485 C   0  0  0  0  0  0  0  0  0  0  0  0
   27.7123  -20.6873  -12.7147 C   0  0  2  0  0  0  0  0  0  0  0  0
   28.8867  -20.2457  -13.5190 C   0  0  0  0  0  0  0  0  0  0  0  0
   27.5937  -20.0317  -11.3874 C   0  0  0  0  0  0  0  0  0  0  0  0
   26.4071  -20.4042  -10.5780 C   0  0  2  0  0  0  0  0  0  0  0  0
   25.2244  -19.9872  -11.3499 N   0  0  0  0  0  0  0  0  0  0  0  0
   26.4309  -19.6951   -9.2685 C   0  0  0  0  0  0  0  0  0  0  0  0
   25.7294  -18.6634   -9.1740 O   0  0  0  0  0  0  0  0  0  0  0  0
   27.0829  -22.5484   -4.5672 C   0  0  0  0  0  0  0  0  0  0  0  0
   27.6565  -21.4461   -5.3646 C   0  0  2  0  0  0  0  0  0  0  0  0
   28.7537  -20.7708   -4.5073 C   0  0  0  0  0  0  0  0  0  0  0  0
   26.7905  -20.3655   -5.8524 C   0  0  0  0  0  0  0  0  0  0  0  0
   27.2261  -19.4245   -6.8921 C   0  0  2  0  0  0  0  0  0  0  0  0
   27.2026  -20.1534   -8.1787 N   0  0  0  0  0  0  0  0  0  0  0  0
   28.5616  -18.8305   -6.7995 C   0  0  0  0  0  0  0  0  0  0  0  0
   28.9502  -17.8271   -5.9095 O   0  0  0  0  0  0  0  0  0  0  0  0
   29.4944  -19.2110   -7.5699 O   0  0  0  0  0  0  0  0  0  0  0  0
  2  1  1  0
  3  5  1  0
  3  2  1  0
  3  4  1  1
  5  6  1  6
  7  5  1  0
  7  8  2  0
 10  9  1  1
 11 10  1  0
 12 10  1  0
 13 12  1  6
 13 14  1  0
 14  7  1  0
 15 13  1  0
 16 15  2  0
 18 17  1  1
 18 20  1  0
 19 18  1  0
 21 20  1  1
 21 22  1  0
 21 23  1  0
 22 15  1  0
 23 24  1  0
 25 23  2  0
M  END
$$$$
