ILL.pdb
     RDKit          3D

 25 24  0  0  1  0  0  0  0  0999 V2000
   20.6007  -17.4770  -19.0423 C   0  0  0  0  0  0  0  0  0  0  0  0
   20.8837  -17.9690  -17.6554 C   0  0  0  0  0  0  0  0  0  0  0  0
   22.2961  -18.5167  -17.5098 C   0  0  2  0  0  0  0  0  0  0  0  0
   22.4868  -19.5812  -18.5386 C   0  0  0  0  0  0  0  0  0  0  0  0
   22.4664  -18.9647  -16.0997 C   0  0  2  0  0  0  0  0  0  0  0  0
   22.3033  -17.8109  -15.2357 N   0  0  0  0  0  0  0  0  0  0  0  0
   23.7300  -19.6529  -15.8169 C   0  0  0  0  0  0  0  0  0  0  0  0
   24.1069  -20.7107  -16.3727 O   0  0  0  0  0  0  0  0  0  0  0  0
   27.5376  -18.9497  -16.9050 C   0  0  0  0  0  0  0  0  0  0  0  0
   27.0863  -17.9231  -15.8587 C   0  0  2  0  0  0  0  0  0  0  0  0
   28.0427  -16.7824  -15.7887 C   0  0  0  0  0  0  0  0  0  0  0  0
   26.9218  -18.6677  -14.5844 C   0  0  0  0  0  0  0  0  0  0  0  0
   25.9037  -19.7472  -14.5847 C   0  0  2  0  0  0  0  0  0  0  0  0
   24.6068  -19.1012  -14.8478 N   0  0  0  0  0  0  0  0  0  0  0  0
   25.8696  -20.4264  -13.2596 C   0  0  0  0  0  0  0  0  0  0  0  0
   26.7371  -21.3043  -13.0544 O   0  0  0  0  0  0  0  0  0  0  0  0
   27.1367  -21.4527   -9.0589 C   0  0  0  0  0  0  0  0  0  0  0  0
   26.4490  -20.1981   -9.4237 C   0  0  2  0  0  0  0  0  0  0  0  0
   26.4462  -19.2861   -8.1734 C   0  0  0  0  0  0  0  0  0  0  0  0
   25.0644  -20.2351   -9.9107 C   0  0  0  0  0  0  0  0  0  0  0  0
   24.6784  -20.9881  -11.1107 C   0  0  2  0  0  0  0  0  0  0  0  0
   24.9110  -20.1054  -12.2741 N   0  0  0  0  0  0  0  0  0  0  0  0
   23.2974  -21.4580  -11.2419 C   0  0  0  0  0  0  0  0  0  0  0  0
   22.4337  -21.1721  -12.3013 O   0  0  0  0  0  0  0  0  0  0  0  0
   22.7744  -22.1892  -10.3474 O   0  0  0  0  0  0  0  0  0  0  0  0
  2  1  1  0
  3  5  1  0
  3  2  1  0
  3  4  1  6
  5  6  1  1
  7  5  1  0
  7  8  2  0
 10  9  1  6
 11 10  1  0
 12 10  1  0
 13 12  1  1
 13 14  1  0
 14  7  1  0
 15 13  1  0
 16 15  2  0
 18 17  1  1
 18 20  1  0
 19 18  1  0
 21 20  1  1
 21 22  1  0
 21 23  1  0
 22 15  1  0
 23 24  1  0
 25 23  2  0
M  END
$$$$
