ILL.pdb
     RDKit          3D

 25 24  0  0  1  0  0  0  0  0999 V2000
   19.4060  -29.3165   -8.4953 C   0  0  0  0  0  0  0  0  0  0  0  0
   20.1887  -30.2475   -9.3708 C   0  0  0  0  0  0  0  0  0  0  0  0
   21.4511  -29.6022   -9.9237 C   0  0  2  0  0  0  0  0  0  0  0  0
   21.0450  -28.4287  -10.7518 C   0  0  0  0  0  0  0  0  0  0  0  0
   22.2170  -30.6523  -10.6507 C   0  0  2  0  0  0  0  0  0  0  0  0
   21.4093  -31.1120  -11.7645 N   0  0  0  0  0  0  0  0  0  0  0  0
   22.6567  -31.7816   -9.8250 C   0  0  0  0  0  0  0  0  0  0  0  0
   22.1664  -32.9336   -9.8714 O   0  0  0  0  0  0  0  0  0  0  0  0
   26.2257  -34.4541   -9.2554 C   0  0  0  0  0  0  0  0  0  0  0  0
   26.5270  -32.9633   -9.0581 C   0  0  2  0  0  0  0  0  0  0  0  0
   27.9859  -32.7404   -8.8512 C   0  0  0  0  0  0  0  0  0  0  0  0
   25.6692  -32.5073   -7.9350 C   0  0  0  0  0  0  0  0  0  0  0  0
   24.2093  -32.7147   -8.1013 C   0  0  2  0  0  0  0  0  0  0  0  0
   23.7123  -31.5809   -8.8988 N   0  0  0  0  0  0  0  0  0  0  0  0
   23.5347  -32.7321   -6.7736 C   0  0  0  0  0  0  0  0  0  0  0  0
   23.4444  -31.6380   -6.1734 O   0  0  0  0  0  0  0  0  0  0  0  0
   18.5242  -33.2248   -4.4205 C   0  0  0  0  0  0  0  0  0  0  0  0
   19.9603  -33.2817   -4.0829 C   0  0  2  0  0  0  0  0  0  0  0  0
   20.3047  -31.9996   -3.2874 C   0  0  0  0  0  0  0  0  0  0  0  0
   20.9617  -33.3857   -5.1516 C   0  0  0  0  0  0  0  0  0  0  0  0
   22.3129  -33.9064   -4.9079 C   0  0  2  0  0  0  0  0  0  0  0  0
   23.0178  -33.9178   -6.2079 N   0  0  0  0  0  0  0  0  0  0  0  0
   22.4672  -35.2573   -4.3636 C   0  0  0  0  0  0  0  0  0  0  0  0
   22.9882  -36.3589   -5.0455 O   0  0  0  0  0  0  0  0  0  0  0  0
   22.1112  -35.5213   -3.1753 O   0  0  0  0  0  0  0  0  0  0  0  0
  2  1  1  0
  3  5  1  0
  3  2  1  0
  3  4  1  6
  5  6  1  6
  7  5  1  0
  7  8  2  0
 10  9  1  1
 11 10  1  0
 12 10  1  0
 13 12  1  1
 13 14  1  0
 14  7  1  0
 15 13  1  0
 16 15  2  0
 18 17  1  6
 18 20  1  0
 19 18  1  0
 21 20  1  6
 21 22  1  0
 21 23  1  0
 22 15  1  0
 23 24  1  0
 25 23  2  0
M  END
$$$$
