ILL.pdb
     RDKit          3D

 25 24  0  0  1  0  0  0  0  0999 V2000
   20.0560  -18.7669  -17.2041 C   0  0  0  0  0  0  0  0  0  0  0  0
   20.6675  -19.0526  -15.8660 C   0  0  0  0  0  0  0  0  0  0  0  0
   22.1551  -19.3593  -15.9601 C   0  0  2  0  0  0  0  0  0  0  0  0
   22.3405  -20.4402  -16.9726 C   0  0  0  0  0  0  0  0  0  0  0  0
   22.6386  -19.6883  -14.5905 C   0  0  2  0  0  0  0  0  0  0  0  0
   22.3687  -18.5519  -13.7304 N   0  0  0  0  0  0  0  0  0  0  0  0
   24.0494  -20.0798  -14.5092 C   0  0  0  0  0  0  0  0  0  0  0  0
   24.5532  -21.0618  -15.1021 O   0  0  0  0  0  0  0  0  0  0  0  0
   27.4032  -18.8076  -16.1474 C   0  0  0  0  0  0  0  0  0  0  0  0
   26.9885  -17.8013  -15.0668 C   0  0  2  0  0  0  0  0  0  0  0  0
   27.7639  -16.5352  -15.1963 C   0  0  0  0  0  0  0  0  0  0  0  0
   27.1536  -18.4937  -13.7635 C   0  0  0  0  0  0  0  0  0  0  0  0
   26.3356  -19.7155  -13.5641 C   0  0  2  0  0  0  0  0  0  0  0  0
   24.9282  -19.3067  -13.7077 N   0  0  0  0  0  0  0  0  0  0  0  0
   26.5626  -20.2735  -12.2019 C   0  0  0  0  0  0  0  0  0  0  0  0
   27.5969  -20.9584  -12.0391 O   0  0  0  0  0  0  0  0  0  0  0  0
   28.5048  -20.8541   -8.2994 C   0  0  0  0  0  0  0  0  0  0  0  0
   27.5591  -19.7596   -8.5956 C   0  0  2  0  0  0  0  0  0  0  0  0
   27.6187  -18.7585   -7.4170 C   0  0  0  0  0  0  0  0  0  0  0  0
   26.1379  -20.0567   -8.8133 C   0  0  0  0  0  0  0  0  0  0  0  0
   25.6770  -20.8968   -9.9260 C   0  0  2  0  0  0  0  0  0  0  0  0
   25.6631  -20.0485  -11.1373 N   0  0  0  0  0  0  0  0  0  0  0  0
   24.3464  -21.5046   -9.8547 C   0  0  0  0  0  0  0  0  0  0  0  0
   23.3144  -21.3238  -10.7779 O   0  0  0  0  0  0  0  0  0  0  0  0
   24.0347  -22.2697   -8.8925 O   0  0  0  0  0  0  0  0  0  0  0  0
  2  1  1  0
  3  5  1  0
  3  2  1  0
  3  4  1  6
  5  6  1  1
  7  5  1  0
  7  8  2  0
 10  9  1  6
 11 10  1  0
 12 10  1  0
 13 12  1  1
 13 14  1  0
 14  7  1  0
 15 13  1  0
 16 15  2  0
 18 17  1  1
 18 20  1  0
 19 18  1  0
 21 20  1  1
 21 22  1  0
 21 23  1  0
 22 15  1  0
 23 24  1  0
 25 23  2  0
M  END
$$$$
