FHK.pdb
     RDKit          3D

 31 32  0  0  1  0  0  0  0  0999 V2000
    5.5711  -17.5223   24.5008 N   0  0  0  0  0  0  0  0  0  0  0  0
    6.1498  -16.1916   24.5441 C   0  0  1  0  0  0  0  0  0  0  0  0
    6.4266  -15.9236   26.0302 C   0  0  0  0  0  0  0  0  0  0  0  0
    6.7059  -14.4902   26.2612 C   0  0  0  0  0  0  0  0  0  0  0  0
    7.9743  -14.0680   26.6160 C   0  0  0  0  0  0  0  0  0  0  0  0
    8.2396  -12.7318   26.8304 C   0  0  0  0  0  0  0  0  0  0  0  0
    7.2547  -11.7749   26.6991 C   0  0  0  0  0  0  0  0  0  0  0  0
    5.9892  -12.2010   26.3447 C   0  0  0  0  0  0  0  0  0  0  0  0
    5.7053  -13.5533   26.1240 C   0  0  0  0  0  0  0  0  0  0  0  0
    7.4893  -16.2721   23.8951 C   0  0  0  0  0  0  0  0  0  0  0  0
    8.1898  -17.3133   23.9182 O   0  0  0  0  0  0  0  0  0  0  0  0
    8.0574  -15.1443   23.1978 N   0  0  0  0  0  0  0  0  0  0  0  0
    9.2435  -15.2908   22.4291 C   0  0  1  0  0  0  0  0  0  0  0  0
    9.5104  -14.2641   21.3961 C   0  0  0  0  0  0  0  0  0  0  0  0
    8.5388  -14.1175   20.3195 C   0  0  0  0  0  0  0  0  0  0  0  0
    7.4696  -14.8376   19.8979 C   0  0  0  0  0  0  0  0  0  0  0  0
    6.9079  -14.2036   18.8353 N   0  0  0  0  0  0  0  0  0  0  0  0
    7.6186  -13.1084   18.6039 C   0  0  0  0  0  0  0  0  0  0  0  0
    8.6020  -13.0343   19.4807 N   0  0  0  0  0  0  0  0  0  0  0  0
   10.4320  -15.4921   23.3353 C   0  0  0  0  0  0  0  0  0  0  0  0
   10.4930  -14.7787   24.3605 O   0  0  0  0  0  0  0  0  0  0  0  0
   11.4336  -16.4228   23.0682 N   0  0  0  0  0  0  0  0  0  0  0  0
   12.5130  -16.7446   24.1093 C   0  0  1  0  0  0  0  0  0  0  0  0
   12.1688  -18.0446   24.6488 C   0  0  0  0  0  0  0  0  0  0  0  0
   12.3043  -18.6009   25.9736 C   0  0  0  0  0  0  0  0  0  0  0  0
   13.0699  -19.7670   26.3762 C   0  0  0  0  0  0  0  0  0  0  0  0
   13.1573  -20.2737   27.7536 C   0  0  0  0  0  0  0  0  0  0  0  0
   11.9294  -20.8650   28.2470 N   0  0  0  0  0  0  0  0  0  0  0  0
   13.7792  -16.3893   23.5187 C   0  0  0  0  0  0  0  0  0  0  0  0
   14.8615  -16.1875   24.0893 O   0  0  0  0  0  0  0  0  0  0  0  0
   13.8345  -16.2430   22.1085 O   0  0  0  0  0  0  0  0  0  0  0  0
  2  1  1  1
  2  3  1  0
  3  4  1  0
  4  9  1  0
  4  5  2  0
  5  6  1  0
  6  7  2  0
  8  7  1  0
  9  8  2  0
 10  2  1  0
 10 12  1  0
 11 10  2  0
 13 12  1  0
 13 14  1  1
 15 14  1  0
 15 16  2  0
 17 16  1  0
 18 17  1  0
 19 18  2  0
 19 15  1  0
 20 13  1  0
 21 20  2  0
 22 20  1  0
 23 24  1  6
 23 22  1  0
 25 24  1  0
 26 25  1  0
 26 27  1  0
 27 28  1  0
 29 23  1  0
 30 29  2  0
 31 29  1  0
M  END
$$$$
