FHK.pdb
     RDKit          3D

 31 32  0  0  1  0  0  0  0  0999 V2000
    7.1148  -17.0630   26.1131 N   0  0  0  0  0  0  0  0  0  0  0  0
    6.1772  -16.8249   25.0307 C   0  0  1  0  0  0  0  0  0  0  0  0
    5.5759  -15.4420   25.3186 C   0  0  0  0  0  0  0  0  0  0  0  0
    6.6150  -14.5097   25.8056 C   0  0  0  0  0  0  0  0  0  0  0  0
    7.1568  -14.6567   27.0696 C   0  0  0  0  0  0  0  0  0  0  0  0
    8.1276  -13.7906   27.5270 C   0  0  0  0  0  0  0  0  0  0  0  0
    8.5897  -12.7530   26.7441 C   0  0  0  0  0  0  0  0  0  0  0  0
    8.0457  -12.6098   25.4823 C   0  0  0  0  0  0  0  0  0  0  0  0
    7.0601  -13.4809   25.0049 C   0  0  0  0  0  0  0  0  0  0  0  0
    6.9765  -16.6624   23.7829 C   0  0  0  0  0  0  0  0  0  0  0  0
    7.7270  -17.5651   23.3389 O   0  0  0  0  0  0  0  0  0  0  0  0
    6.9284  -15.4448   23.0109 N   0  0  0  0  0  0  0  0  0  0  0  0
    7.6143  -15.3465   21.7703 C   0  0  1  0  0  0  0  0  0  0  0  0
    7.2679  -14.2032   20.8954 C   0  0  0  0  0  0  0  0  0  0  0  0
    7.8810  -14.1509   19.5741 C   0  0  0  0  0  0  0  0  0  0  0  0
    8.7266  -14.9566   18.8848 C   0  0  0  0  0  0  0  0  0  0  0  0
    8.9516  -14.4088   17.6617 N   0  0  0  0  0  0  0  0  0  0  0  0
    8.2555  -13.2823   17.5959 C   0  0  0  0  0  0  0  0  0  0  0  0
    7.6050  -13.1056   18.7303 N   0  0  0  0  0  0  0  0  0  0  0  0
    9.1031  -15.4520   21.9865 C   0  0  0  0  0  0  0  0  0  0  0  0
    9.8240  -15.5013   20.9660 O   0  0  0  0  0  0  0  0  0  0  0  0
    9.6787  -15.4956   23.2543 N   0  0  0  0  0  0  0  0  0  0  0  0
   11.1608  -15.8442   23.4390 C   0  0  1  0  0  0  0  0  0  0  0  0
   11.2341  -16.6364   24.6500 C   0  0  0  0  0  0  0  0  0  0  0  0
   11.2316  -18.0636   24.8654 C   0  0  0  0  0  0  0  0  0  0  0  0
   11.2131  -18.7734   26.1318 C   0  0  0  0  0  0  0  0  0  0  0  0
   11.1017  -20.2330   26.2693 C   0  0  0  0  0  0  0  0  0  0  0  0
   11.0369  -20.6961   27.6412 N   0  0  0  0  0  0  0  0  0  0  0  0
   11.6591  -16.2402   22.1455 C   0  0  0  0  0  0  0  0  0  0  0  0
   11.0480  -16.8131   21.2311 O   0  0  0  0  0  0  0  0  0  0  0  0
   13.0156  -15.9552   21.8426 O   0  0  0  0  0  0  0  0  0  0  0  0
  2  1  1  1
  2  3  1  0
  3  4  1  0
  4  9  1  0
  4  5  2  0
  5  6  1  0
  6  7  2  0
  8  7  1  0
  9  8  2  0
 10  2  1  0
 10 12  1  0
 11 10  2  0
 13 12  1  0
 13 14  1  1
 15 14  1  0
 15 16  2  0
 17 16  1  0
 18 17  1  0
 19 18  2  0
 19 15  1  0
 20 13  1  0
 21 20  2  0
 22 20  1  0
 23 24  1  1
 23 22  1  0
 25 24  1  0
 26 25  1  0
 26 27  1  0
 27 28  1  0
 29 23  1  0
 30 29  2  0
 31 29  1  0
M  END
$$$$
