FHK.pdb
     RDKit          3D

 31 32  0  0  1  0  0  0  0  0999 V2000
    7.3908  -15.1587   16.6203 N   0  0  0  0  0  0  0  0  0  0  0  0
    8.7650  -15.1120   17.0860 C   0  0  1  0  0  0  0  0  0  0  0  0
    8.9654  -13.6790   17.5991 C   0  0  0  0  0  0  0  0  0  0  0  0
    8.3351  -13.5040   18.9251 C   0  0  0  0  0  0  0  0  0  0  0  0
    7.6502  -14.5465   19.5225 C   0  0  0  0  0  0  0  0  0  0  0  0
    7.0626  -14.3882   20.7600 C   0  0  0  0  0  0  0  0  0  0  0  0
    7.1371  -13.1911   21.4415 C   0  0  0  0  0  0  0  0  0  0  0  0
    7.8221  -12.1525   20.8411 C   0  0  0  0  0  0  0  0  0  0  0  0
    8.4232  -12.2985   19.5860 C   0  0  0  0  0  0  0  0  0  0  0  0
    8.8518  -15.9850   18.2912 C   0  0  0  0  0  0  0  0  0  0  0  0
    7.9866  -16.8534   18.5602 O   0  0  0  0  0  0  0  0  0  0  0  0
    9.9482  -15.8764   19.2224 N   0  0  0  0  0  0  0  0  0  0  0  0
   10.7974  -16.9877   19.4738 C   0  0  1  0  0  0  0  0  0  0  0  0
   11.4496  -17.6182   18.3035 C   0  0  0  0  0  0  0  0  0  0  0  0
   12.2159  -18.8372   18.5300 C   0  0  0  0  0  0  0  0  0  0  0  0
   12.3923  -19.6677   19.5875 C   0  0  0  0  0  0  0  0  0  0  0  0
   13.2170  -20.6811   19.2139 N   0  0  0  0  0  0  0  0  0  0  0  0
   13.5449  -20.4803   17.9450 C   0  0  0  0  0  0  0  0  0  0  0  0
   12.9570  -19.3810   17.5122 N   0  0  0  0  0  0  0  0  0  0  0  0
   11.7951  -16.6493   20.5529 C   0  0  0  0  0  0  0  0  0  0  0  0
   12.7031  -15.8426   20.2555 O   0  0  0  0  0  0  0  0  0  0  0  0
   11.7342  -17.1955   21.8329 N   0  0  0  0  0  0  0  0  0  0  0  0
   12.6986  -16.7393   22.9348 C   0  0  1  0  0  0  0  0  0  0  0  0
   12.0629  -17.0901   24.1888 C   0  0  0  0  0  0  0  0  0  0  0  0
   11.6409  -18.3602   24.7290 C   0  0  0  0  0  0  0  0  0  0  0  0
   10.7688  -18.5996   25.8649 C   0  0  0  0  0  0  0  0  0  0  0  0
   10.3164  -19.9276   26.3048 C   0  0  0  0  0  0  0  0  0  0  0  0
   11.1511  -20.5306   27.3248 N   0  0  0  0  0  0  0  0  0  0  0  0
   14.0205  -17.1408   22.5227 C   0  0  0  0  0  0  0  0  0  0  0  0
   14.3371  -18.0569   21.7492 O   0  0  0  0  0  0  0  0  0  0  0  0
   15.1250  -16.4206   23.0466 O   0  0  0  0  0  0  0  0  0  0  0  0
  2  1  1  1
  2  3  1  0
  3  4  1  0
  4  9  1  0
  4  5  2  0
  5  6  1  0
  6  7  2  0
  8  7  1  0
  9  8  2  0
 10  2  1  0
 10 12  1  0
 11 10  2  0
 13 12  1  0
 13 14  1  6
 15 14  1  0
 15 16  2  0
 17 16  1  0
 18 17  1  0
 19 18  2  0
 19 15  1  0
 20 13  1  0
 21 20  2  0
 22 20  1  0
 23 24  1  1
 23 22  1  0
 25 24  1  0
 26 25  1  0
 26 27  1  0
 27 28  1  0
 29 23  1  0
 30 29  2  0
 31 29  1  0
M  END
$$$$
