FHK.pdb
     RDKit          3D

 31 32  0  0  1  0  0  0  0  0999 V2000
    5.7342  -17.2801   24.3106 N   0  0  0  0  0  0  0  0  0  0  0  0
    6.4252  -16.0050   24.3755 C   0  0  1  0  0  0  0  0  0  0  0  0
    6.7397  -15.7953   25.8635 C   0  0  0  0  0  0  0  0  0  0  0  0
    6.7452  -14.3557   26.2004 C   0  0  0  0  0  0  0  0  0  0  0  0
    7.9313  -13.6454   26.2374 C   0  0  0  0  0  0  0  0  0  0  0  0
    7.9407  -12.3021   26.5491 C   0  0  0  0  0  0  0  0  0  0  0  0
    6.7737  -11.6236   26.8334 C   0  0  0  0  0  0  0  0  0  0  0  0
    5.5912  -12.3369   26.7954 C   0  0  0  0  0  0  0  0  0  0  0  0
    5.5664  -13.7001   26.4807 C   0  0  0  0  0  0  0  0  0  0  0  0
    7.7460  -16.1849   23.7083 C   0  0  0  0  0  0  0  0  0  0  0  0
    8.3647  -17.2768   23.7179 O   0  0  0  0  0  0  0  0  0  0  0  0
    8.3898  -15.1006   23.0078 N   0  0  0  0  0  0  0  0  0  0  0  0
    9.5665  -15.3290   22.2446 C   0  0  1  0  0  0  0  0  0  0  0  0
    9.8125  -14.4274   21.0960 C   0  0  0  0  0  0  0  0  0  0  0  0
    8.7470  -14.2762   20.1130 C   0  0  0  0  0  0  0  0  0  0  0  0
    7.5258  -14.8399   19.9388 C   0  0  0  0  0  0  0  0  0  0  0  0
    6.9449  -14.2918   18.8394 N   0  0  0  0  0  0  0  0  0  0  0  0
    7.7936  -13.4029   18.3419 C   0  0  0  0  0  0  0  0  0  0  0  0
    8.8817  -13.3749   19.0880 N   0  0  0  0  0  0  0  0  0  0  0  0
   10.7684  -15.4177   23.1512 C   0  0  0  0  0  0  0  0  0  0  0  0
   10.7834  -14.6666   24.1509 O   0  0  0  0  0  0  0  0  0  0  0  0
   11.8300  -16.2871   22.9114 N   0  0  0  0  0  0  0  0  0  0  0  0
   12.5089  -17.0431   24.0604 C   0  0  1  0  0  0  0  0  0  0  0  0
   11.4353  -17.6088   24.8521 C   0  0  0  0  0  0  0  0  0  0  0  0
   10.9324  -18.9570   24.9640 C   0  0  0  0  0  0  0  0  0  0  0  0
   11.1976  -19.9224   26.0156 C   0  0  0  0  0  0  0  0  0  0  0  0
   10.6891  -21.3019   26.0303 C   0  0  0  0  0  0  0  0  0  0  0  0
   11.0107  -22.0396   27.2357 N   0  0  0  0  0  0  0  0  0  0  0  0
   13.6044  -17.7809   23.4825 C   0  0  0  0  0  0  0  0  0  0  0  0
   13.5651  -18.8610   22.8745 O   0  0  0  0  0  0  0  0  0  0  0  0
   14.9081  -17.2343   23.6035 O   0  0  0  0  0  0  0  0  0  0  0  0
  2  1  1  1
  2  3  1  0
  3  4  1  0
  4  9  1  0
  4  5  2  0
  5  6  1  0
  6  7  2  0
  8  7  1  0
  9  8  2  0
 10  2  1  0
 10 12  1  0
 11 10  2  0
 13 12  1  0
 13 14  1  6
 15 14  1  0
 15 16  2  0
 17 16  1  0
 18 17  1  0
 19 18  2  0
 19 15  1  0
 20 13  1  0
 21 20  2  0
 22 20  1  0
 23 24  1  6
 23 22  1  0
 25 24  1  0
 26 25  1  0
 26 27  1  0
 27 28  1  0
 29 23  1  0
 30 29  2  0
 31 29  1  0
M  END
$$$$
