FHK.pdb
     RDKit          3D

 31 32  0  0  1  0  0  0  0  0999 V2000
    5.9616  -17.8324   25.8542 N   0  0  0  0  0  0  0  0  0  0  0  0
    6.0742  -16.4231   25.5245 C   0  0  1  0  0  0  0  0  0  0  0  0
    6.8937  -15.8087   26.6682 C   0  0  0  0  0  0  0  0  0  0  0  0
    6.7983  -14.3334   26.6476 C   0  0  0  0  0  0  0  0  0  0  0  0
    7.9372  -13.5553   26.5453 C   0  0  0  0  0  0  0  0  0  0  0  0
    7.8526  -12.1790   26.5237 C   0  0  0  0  0  0  0  0  0  0  0  0
    6.6359  -11.5338   26.6029 C   0  0  0  0  0  0  0  0  0  0  0  0
    5.5009  -12.3148   26.7049 C   0  0  0  0  0  0  0  0  0  0  0  0
    5.5714  -13.7122   26.7281 C   0  0  0  0  0  0  0  0  0  0  0  0
    6.9374  -16.3213   24.3135 C   0  0  0  0  0  0  0  0  0  0  0  0
    7.8769  -17.1213   24.0842 O   0  0  0  0  0  0  0  0  0  0  0  0
    6.7355  -15.2858   23.3296 N   0  0  0  0  0  0  0  0  0  0  0  0
    7.5579  -15.2158   22.1729 C   0  0  1  0  0  0  0  0  0  0  0  0
    7.2177  -14.1875   21.1632 C   0  0  0  0  0  0  0  0  0  0  0  0
    7.9600  -14.1979   19.9088 C   0  0  0  0  0  0  0  0  0  0  0  0
    9.0133  -14.9068   19.4322 C   0  0  0  0  0  0  0  0  0  0  0  0
    9.2743  -14.5002   18.1620 N   0  0  0  0  0  0  0  0  0  0  0  0
    8.3956  -13.5549   17.8582 C   0  0  0  0  0  0  0  0  0  0  0  0
    7.5965  -13.3557   18.8893 N   0  0  0  0  0  0  0  0  0  0  0  0
    9.0116  -15.1494   22.5685 C   0  0  0  0  0  0  0  0  0  0  0  0
    9.3480  -14.2301   23.3466 O   0  0  0  0  0  0  0  0  0  0  0  0
    9.9608  -16.0569   22.1037 N   0  0  0  0  0  0  0  0  0  0  0  0
   11.4170  -15.9933   22.5812 C   0  0  1  0  0  0  0  0  0  0  0  0
   11.4774  -16.8058   23.7794 C   0  0  0  0  0  0  0  0  0  0  0  0
   11.4780  -18.2364   23.9705 C   0  0  0  0  0  0  0  0  0  0  0  0
   11.6294  -18.9688   25.2149 C   0  0  0  0  0  0  0  0  0  0  0  0
   11.6922  -20.4341   25.3189 C   0  0  0  0  0  0  0  0  0  0  0  0
   12.9597  -20.9401   25.8070 N   0  0  0  0  0  0  0  0  0  0  0  0
   12.2451  -16.1581   21.4127 C   0  0  0  0  0  0  0  0  0  0  0  0
   11.9121  -16.5586   20.2873 O   0  0  0  0  0  0  0  0  0  0  0  0
   13.6211  -15.8304   21.5245 O   0  0  0  0  0  0  0  0  0  0  0  0
  2  1  1  1
  2  3  1  0
  3  4  1  0
  4  9  1  0
  4  5  2  0
  5  6  1  0
  6  7  2  0
  8  7  1  0
  9  8  2  0
 10  2  1  0
 10 12  1  0
 11 10  2  0
 13 12  1  0
 13 14  1  1
 15 14  1  0
 15 16  2  0
 17 16  1  0
 18 17  1  0
 19 18  2  0
 19 15  1  0
 20 13  1  0
 21 20  2  0
 22 20  1  0
 23 24  1  1
 23 22  1  0
 25 24  1  0
 26 25  1  0
 26 27  1  0
 27 28  1  0
 29 23  1  0
 30 29  2  0
 31 29  1  0
M  END
$$$$
