FHK.pdb
     RDKit          3D

 31 32  0  0  1  0  0  0  0  0999 V2000
    8.0882  -17.2002   19.5998 N   0  0  0  0  0  0  0  0  0  0  0  0
    9.0793  -16.4594   20.3591 C   0  0  1  0  0  0  0  0  0  0  0  0
    8.2726  -15.6302   21.3684 C   0  0  0  0  0  0  0  0  0  0  0  0
    8.0214  -14.2696   20.8472 C   0  0  0  0  0  0  0  0  0  0  0  0
    8.2943  -13.9594   19.5274 C   0  0  0  0  0  0  0  0  0  0  0  0
    8.0597  -12.6922   19.0366 C   0  0  0  0  0  0  0  0  0  0  0  0
    7.5472  -11.6952   19.8406 C   0  0  0  0  0  0  0  0  0  0  0  0
    7.2760  -12.0093   21.1583 C   0  0  0  0  0  0  0  0  0  0  0  0
    7.5091  -13.2907   21.6700 C   0  0  0  0  0  0  0  0  0  0  0  0
    9.8419  -17.4490   21.1722 C   0  0  0  0  0  0  0  0  0  0  0  0
    9.3763  -17.9681   22.2158 O   0  0  0  0  0  0  0  0  0  0  0  0
   11.1705  -17.8674   20.7975 N   0  0  0  0  0  0  0  0  0  0  0  0
   11.9070  -18.7620   21.6201 C   0  0  1  0  0  0  0  0  0  0  0  0
   13.2218  -19.2180   21.1144 C   0  0  0  0  0  0  0  0  0  0  0  0
   13.2570  -19.8732   19.8128 C   0  0  0  0  0  0  0  0  0  0  0  0
   12.5568  -20.8810   19.2354 C   0  0  0  0  0  0  0  0  0  0  0  0
   13.0151  -21.0612   17.9689 N   0  0  0  0  0  0  0  0  0  0  0  0
   13.9832  -20.1782   17.7664 C   0  0  0  0  0  0  0  0  0  0  0  0
   14.1470  -19.4540   18.8573 N   0  0  0  0  0  0  0  0  0  0  0  0
   12.0072  -18.2191   23.0235 C   0  0  0  0  0  0  0  0  0  0  0  0
   12.6497  -17.1575   23.1782 O   0  0  0  0  0  0  0  0  0  0  0  0
   11.4215  -18.8500   24.1187 N   0  0  0  0  0  0  0  0  0  0  0  0
   11.4552  -18.2100   25.5121 C   0  0  1  0  0  0  0  0  0  0  0  0
   10.0905  -17.8189   25.8023 C   0  0  0  0  0  0  0  0  0  0  0  0
    9.2587  -16.7676   25.2678 C   0  0  0  0  0  0  0  0  0  0  0  0
    7.8712  -16.4811   25.5850 C   0  0  0  0  0  0  0  0  0  0  0  0
    7.0606  -15.4459   24.9268 C   0  0  0  0  0  0  0  0  0  0  0  0
    5.7315  -15.2905   25.4834 N   0  0  0  0  0  0  0  0  0  0  0  0
   12.2797  -19.0562   26.3383 C   0  0  0  0  0  0  0  0  0  0  0  0
   12.7081  -18.8302   27.4799 O   0  0  0  0  0  0  0  0  0  0  0  0
   12.6708  -20.3154   25.8142 O   0  0  0  0  0  0  0  0  0  0  0  0
  2  1  1  6
  2  3  1  0
  3  4  1  0
  4  9  1  0
  4  5  2  0
  5  6  1  0
  6  7  2  0
  8  7  1  0
  9  8  2  0
 10  2  1  0
 10 12  1  0
 11 10  2  0
 13 12  1  0
 13 14  1  6
 15 14  1  0
 15 16  2  0
 17 16  1  0
 18 17  1  0
 19 18  2  0
 19 15  1  0
 20 13  1  0
 21 20  2  0
 22 20  1  0
 23 24  1  1
 23 22  1  0
 25 24  1  0
 26 25  1  0
 26 27  1  0
 27 28  1  0
 29 23  1  0
 30 29  2  0
 31 29  1  0
M  END
$$$$
