FHK.pdb
     RDKit          3D

 31 32  0  0  1  0  0  0  0  0999 V2000
    6.2094  -16.6121   25.4166 N   0  0  0  0  0  0  0  0  0  0  0  0
    6.1591  -16.0953   24.0609 C   0  0  1  0  0  0  0  0  0  0  0  0
    5.7877  -14.6132   24.2109 C   0  0  0  0  0  0  0  0  0  0  0  0
    6.5666  -13.9852   25.2994 C   0  0  0  0  0  0  0  0  0  0  0  0
    6.2443  -14.2219   26.6234 C   0  0  0  0  0  0  0  0  0  0  0  0
    6.9694  -13.6398   27.6418 C   0  0  0  0  0  0  0  0  0  0  0  0
    8.0357  -12.8056   27.3770 C   0  0  0  0  0  0  0  0  0  0  0  0
    8.3541  -12.5718   26.0532 C   0  0  0  0  0  0  0  0  0  0  0  0
    7.6274  -13.1555   25.0095 C   0  0  0  0  0  0  0  0  0  0  0  0
    7.5529  -16.1076   23.5325 C   0  0  0  0  0  0  0  0  0  0  0  0
    8.4047  -16.9559   23.8931 O   0  0  0  0  0  0  0  0  0  0  0  0
    8.0010  -15.1338   22.5672 N   0  0  0  0  0  0  0  0  0  0  0  0
    9.2574  -15.2812   21.9197 C   0  0  1  0  0  0  0  0  0  0  0  0
    9.6045  -14.2824   20.8832 C   0  0  0  0  0  0  0  0  0  0  0  0
    8.6857  -14.1207   19.7633 C   0  0  0  0  0  0  0  0  0  0  0  0
    7.9765  -13.0817   19.2565 C   0  0  0  0  0  0  0  0  0  0  0  0
    7.2889  -13.5129   18.1666 N   0  0  0  0  0  0  0  0  0  0  0  0
    7.5690  -14.7984   18.0020 C   0  0  0  0  0  0  0  0  0  0  0  0
    8.4046  -15.1863   18.9468 N   0  0  0  0  0  0  0  0  0  0  0  0
   10.3571  -15.4305   22.9408 C   0  0  0  0  0  0  0  0  0  0  0  0
   10.3983  -14.5841   23.8604 O   0  0  0  0  0  0  0  0  0  0  0  0
   11.3000  -16.4545   22.8877 N   0  0  0  0  0  0  0  0  0  0  0  0
   12.2670  -16.7011   24.0524 C   0  0  1  0  0  0  0  0  0  0  0  0
   11.7095  -17.8076   24.8036 C   0  0  0  0  0  0  0  0  0  0  0  0
   12.1511  -18.4704   26.0073 C   0  0  0  0  0  0  0  0  0  0  0  0
   12.2167  -19.8976   26.2656 C   0  0  0  0  0  0  0  0  0  0  0  0
   12.6000  -20.4964   27.5525 C   0  0  0  0  0  0  0  0  0  0  0  0
   11.4810  -20.7979   28.4229 N   0  0  0  0  0  0  0  0  0  0  0  0
   13.5996  -16.6449   23.5053 C   0  0  0  0  0  0  0  0  0  0  0  0
   14.6720  -16.5041   24.1118 O   0  0  0  0  0  0  0  0  0  0  0  0
   13.7436  -16.7623   22.0986 O   0  0  0  0  0  0  0  0  0  0  0  0
  2  1  1  1
  2  3  1  0
  3  4  1  0
  4  9  1  0
  4  5  2  0
  5  6  1  0
  6  7  2  0
  8  7  1  0
  9  8  2  0
 10  2  1  0
 10 12  1  0
 11 10  2  0
 13 12  1  0
 13 14  1  1
 15 14  1  0
 15 16  2  0
 17 16  1  0
 18 17  1  0
 19 18  2  0
 19 15  1  0
 20 13  1  0
 21 20  2  0
 22 20  1  0
 23 24  1  6
 23 22  1  0
 25 24  1  0
 26 25  1  0
 26 27  1  0
 27 28  1  0
 29 23  1  0
 30 29  2  0
 31 29  1  0
M  END
$$$$
