FHK.pdb
     RDKit          3D

 31 32  0  0  1  0  0  0  0  0999 V2000
    5.4747  -17.4326   24.3885 N   0  0  0  0  0  0  0  0  0  0  0  0
    6.0475  -16.1025   24.4900 C   0  0  1  0  0  0  0  0  0  0  0  0
    6.3485  -15.9091   25.9830 C   0  0  0  0  0  0  0  0  0  0  0  0
    6.7493  -14.5132   26.2603 C   0  0  0  0  0  0  0  0  0  0  0  0
    5.8045  -13.5041   26.3020 C   0  0  0  0  0  0  0  0  0  0  0  0
    6.1738  -12.2012   26.5624 C   0  0  0  0  0  0  0  0  0  0  0  0
    7.4912  -11.8607   26.7892 C   0  0  0  0  0  0  0  0  0  0  0  0
    8.4317  -12.8718   26.7466 C   0  0  0  0  0  0  0  0  0  0  0  0
    8.0717  -14.1982   26.4835 C   0  0  0  0  0  0  0  0  0  0  0  0
    7.3762  -16.1422   23.8153 C   0  0  0  0  0  0  0  0  0  0  0  0
    8.0810  -17.1798   23.7714 O   0  0  0  0  0  0  0  0  0  0  0  0
    7.9279  -14.9764   23.1692 N   0  0  0  0  0  0  0  0  0  0  0  0
    9.1152  -15.0718   22.3942 C   0  0  1  0  0  0  0  0  0  0  0  0
    9.4006  -13.9623   21.4561 C   0  0  0  0  0  0  0  0  0  0  0  0
    8.5052  -13.7889   20.3192 C   0  0  0  0  0  0  0  0  0  0  0  0
    7.6273  -12.8284   19.9369 C   0  0  0  0  0  0  0  0  0  0  0  0
    7.0712  -13.1921   18.7516 N   0  0  0  0  0  0  0  0  0  0  0  0
    7.5973  -14.3590   18.4063 C   0  0  0  0  0  0  0  0  0  0  0  0
    8.4602  -14.7379   19.3300 N   0  0  0  0  0  0  0  0  0  0  0  0
   10.2969  -15.3686   23.2829 C   0  0  0  0  0  0  0  0  0  0  0  0
   10.5886  -14.5124   24.1463 O   0  0  0  0  0  0  0  0  0  0  0  0
   11.0495  -16.5354   23.1703 N   0  0  0  0  0  0  0  0  0  0  0  0
   12.2697  -16.7798   24.0668 C   0  0  1  0  0  0  0  0  0  0  0  0
   12.1232  -18.1279   24.5774 C   0  0  0  0  0  0  0  0  0  0  0  0
   11.0830  -18.7502   25.3609 C   0  0  0  0  0  0  0  0  0  0  0  0
   10.4507  -20.0383   25.1395 C   0  0  0  0  0  0  0  0  0  0  0  0
    9.4070  -20.6150   25.9997 C   0  0  0  0  0  0  0  0  0  0  0  0
    9.3806  -22.0641   26.0096 N   0  0  0  0  0  0  0  0  0  0  0  0
   13.4163  -16.2714   23.3561 C   0  0  0  0  0  0  0  0  0  0  0  0
   14.5000  -15.8895   23.8225 O   0  0  0  0  0  0  0  0  0  0  0  0
   13.3331  -16.1818   21.9425 O   0  0  0  0  0  0  0  0  0  0  0  0
  2  1  1  1
  2  3  1  0
  3  4  1  0
  4  9  1  0
  4  5  2  0
  5  6  1  0
  6  7  2  0
  8  7  1  0
  9  8  2  0
 10  2  1  0
 10 12  1  0
 11 10  2  0
 13 12  1  0
 13 14  1  1
 15 14  1  0
 15 16  2  0
 17 16  1  0
 18 17  1  0
 19 18  2  0
 19 15  1  0
 20 13  1  0
 21 20  2  0
 22 20  1  0
 23 24  1  6
 23 22  1  0
 25 24  1  0
 26 25  1  0
 26 27  1  0
 27 28  1  0
 29 23  1  0
 30 29  2  0
 31 29  1  0
M  END
$$$$
