FHK.pdb
     RDKit          3D

 31 32  0  0  1  0  0  0  0  0999 V2000
    6.3467  -16.1004   25.7362 N   0  0  0  0  0  0  0  0  0  0  0  0
    6.2513  -16.0156   24.2901 C   0  0  1  0  0  0  0  0  0  0  0  0
    6.1399  -14.5154   23.9835 C   0  0  0  0  0  0  0  0  0  0  0  0
    6.4460  -13.7106   25.1855 C   0  0  0  0  0  0  0  0  0  0  0  0
    7.7526  -13.3849   25.5011 C   0  0  0  0  0  0  0  0  0  0  0  0
    8.0424  -12.6328   26.6200 C   0  0  0  0  0  0  0  0  0  0  0  0
    7.0447  -12.1814   27.4590 C   0  0  0  0  0  0  0  0  0  0  0  0
    5.7411  -12.5091   27.1401 C   0  0  0  0  0  0  0  0  0  0  0  0
    5.4320  -13.2715   26.0081 C   0  0  0  0  0  0  0  0  0  0  0  0
    7.5679  -16.4412   23.7357 C   0  0  0  0  0  0  0  0  0  0  0  0
    8.3747  -17.1533   24.3817 O   0  0  0  0  0  0  0  0  0  0  0  0
    7.9886  -16.0528   22.4117 N   0  0  0  0  0  0  0  0  0  0  0  0
    9.1481  -16.6260   21.8231 C   0  0  1  0  0  0  0  0  0  0  0  0
    9.4695  -16.2248   20.4345 C   0  0  0  0  0  0  0  0  0  0  0  0
   10.5485  -16.9330   19.7571 C   0  0  0  0  0  0  0  0  0  0  0  0
   11.4439  -17.8819   20.1276 C   0  0  0  0  0  0  0  0  0  0  0  0
   12.2186  -18.1934   19.0554 N   0  0  0  0  0  0  0  0  0  0  0  0
   11.8081  -17.4490   18.0380 C   0  0  0  0  0  0  0  0  0  0  0  0
   10.8075  -16.6849   18.4333 N   0  0  0  0  0  0  0  0  0  0  0  0
   10.3346  -16.4627   22.7395 C   0  0  0  0  0  0  0  0  0  0  0  0
   10.6710  -15.2944   23.0318 O   0  0  0  0  0  0  0  0  0  0  0  0
   11.0444  -17.5459   23.2527 N   0  0  0  0  0  0  0  0  0  0  0  0
   12.2369  -17.3362   24.1942 C   0  0  1  0  0  0  0  0  0  0  0  0
   11.7773  -17.7308   25.5105 C   0  0  0  0  0  0  0  0  0  0  0  0
   12.3231  -18.6465   26.4835 C   0  0  0  0  0  0  0  0  0  0  0  0
   11.7062  -19.1123   27.7125 C   0  0  0  0  0  0  0  0  0  0  0  0
   12.3852  -19.9268   28.7310 C   0  0  0  0  0  0  0  0  0  0  0  0
   11.5848  -20.1897   29.9104 N   0  0  0  0  0  0  0  0  0  0  0  0
   13.3974  -17.8604   23.5182 C   0  0  0  0  0  0  0  0  0  0  0  0
   14.5916  -17.7081   23.8155 O   0  0  0  0  0  0  0  0  0  0  0  0
   13.1876  -18.6565   22.3627 O   0  0  0  0  0  0  0  0  0  0  0  0
  2  1  1  1
  2  3  1  0
  3  4  1  0
  4  9  1  0
  4  5  2  0
  5  6  1  0
  6  7  2  0
  8  7  1  0
  9  8  2  0
 10  2  1  0
 10 12  1  0
 11 10  2  0
 13 12  1  0
 13 14  1  6
 15 14  1  0
 15 16  2  0
 17 16  1  0
 18 17  1  0
 19 18  2  0
 19 15  1  0
 20 13  1  0
 21 20  2  0
 22 20  1  0
 23 24  1  1
 23 22  1  0
 25 24  1  0
 26 25  1  0
 26 27  1  0
 27 28  1  0
 29 23  1  0
 30 29  2  0
 31 29  1  0
M  END
$$$$
