SPW.pdb
     RDKit          3D

 28 30  0  0  1  0  0  0  0  0999 V2000
   14.5681   -5.5850  -19.4476 O   0  0  0  0  0  0  0  0  0  0  0  0
   15.8934   -5.7001  -19.0393 C   0  0  0  0  0  0  0  0  0  0  0  0
   16.6992   -6.4742  -20.0940 C   0  0  2  0  0  0  0  0  0  0  0  0
   15.9233   -7.6752  -20.3337 N   0  0  0  0  0  0  0  0  0  0  0  0
   17.9889   -6.8362  -19.4554 C   0  0  0  0  0  0  0  0  0  0  0  0
   18.1604   -8.0885  -19.2318 O   0  0  0  0  0  0  0  0  0  0  0  0
   18.9769   -5.8953  -19.1075 N   0  0  0  0  0  0  0  0  0  0  0  0
   18.9313   -4.4800  -19.2996 C   0  0  0  0  0  0  0  0  0  0  0  0
   20.3923   -4.1023  -19.5334 C   0  0  0  0  0  0  0  0  0  0  0  0
   21.1927   -5.3813  -19.3645 C   0  0  0  0  0  0  0  0  0  0  0  0
   20.2340   -6.2039  -18.4893 C   0  0  1  0  0  0  0  0  0  0  0  0
   20.3667   -5.6873  -17.1219 C   0  0  0  0  0  0  0  0  0  0  0  0
   19.8404   -4.6036  -16.7699 O   0  0  0  0  0  0  0  0  0  0  0  0
   21.1149   -6.4474  -16.1845 N   0  0  0  0  0  0  0  0  0  0  0  0
   21.0867   -6.2227  -14.7478 C   0  0  1  0  0  0  0  0  0  0  0  0
   20.9382   -7.5695  -14.1531 C   0  0  0  0  0  0  0  0  0  0  0  0
   21.8399   -8.6147  -14.5101 C   0  0  0  0  0  0  0  0  0  0  0  0
   23.0564   -8.8506  -13.9013 C   0  0  0  0  0  0  0  0  0  0  0  0
   23.6322   -9.9101  -14.4876 N   0  0  0  0  0  0  0  0  0  0  0  0
   22.8542  -10.4057  -15.4736 C   0  0  0  0  0  0  0  0  0  0  0  0
   22.9641  -11.4515  -16.3645 C   0  0  0  0  0  0  0  0  0  0  0  0
   21.9401  -11.6696  -17.2618 C   0  0  0  0  0  0  0  0  0  0  0  0
   20.8267  -10.8558  -17.2674 C   0  0  0  0  0  0  0  0  0  0  0  0
   20.7131   -9.8140  -16.3827 C   0  0  0  0  0  0  0  0  0  0  0  0
   21.7276   -9.5873  -15.4837 C   0  0  0  0  0  0  0  0  0  0  0  0
   22.3688   -5.6097  -14.3844 C   0  0  0  0  0  0  0  0  0  0  0  0
   22.5593   -5.1287  -13.1015 O   0  0  0  0  0  0  0  0  0  0  0  0
   23.3398   -5.4851  -15.1805 O   0  0  0  0  0  0  0  0  0  0  0  0
  2  1  1  0
  3  4  1  1
  3  2  1  0
  5  3  1  0
  5  6  2  0
  7  5  1  0
  8  7  1  0
  9  8  1  0
 10  9  1  0
 10 11  1  0
 11  7  1  0
 11 12  1  1
 12 14  1  0
 13 12  2  0
 15 16  1  1
 15 26  1  0
 15 14  1  0
 17 18  2  0
 17 16  1  0
 19 18  1  0
 20 25  2  0
 20 19  1  0
 21 20  1  0
 22 23  1  0
 22 21  2  0
 23 24  2  0
 24 25  1  0
 25 17  1  0
 26 27  1  0
 28 26  2  0
M  END
$$$$
