SPW.pdb
     RDKit          3D

 28 30  0  0  1  0  0  0  0  0999 V2000
   24.3156  -17.5466  -14.1079 O   0  0  0  0  0  0  0  0  0  0  0  0
   24.2097  -17.1989  -15.4512 C   0  0  0  0  0  0  0  0  0  0  0  0
   25.5898  -17.2796  -16.1217 C   0  0  2  0  0  0  0  0  0  0  0  0
   25.3356  -16.9656  -17.5140 N   0  0  0  0  0  0  0  0  0  0  0  0
   26.0322  -18.6913  -16.0044 C   0  0  0  0  0  0  0  0  0  0  0  0
   25.5544  -19.4931  -16.8857 O   0  0  0  0  0  0  0  0  0  0  0  0
   26.9144  -19.1509  -15.0080 N   0  0  0  0  0  0  0  0  0  0  0  0
   27.3539  -18.4435  -13.8467 C   0  0  0  0  0  0  0  0  0  0  0  0
   28.7687  -18.9712  -13.6191 C   0  0  0  0  0  0  0  0  0  0  0  0
   28.9946  -20.0442  -14.6691 C   0  0  0  0  0  0  0  0  0  0  0  0
   27.5444  -20.4395  -14.9891 C   0  0  1  0  0  0  0  0  0  0  0  0
   27.0940  -21.3054  -13.8930 C   0  0  0  0  0  0  0  0  0  0  0  0
   27.6835  -22.3770  -13.6113 O   0  0  0  0  0  0  0  0  0  0  0  0
   25.9582  -20.9043  -13.1410 N   0  0  0  0  0  0  0  0  0  0  0  0
   25.1480  -21.8123  -12.3446 C   0  0  1  0  0  0  0  0  0  0  0  0
   25.9685  -22.1083  -11.1492 C   0  0  0  0  0  0  0  0  0  0  0  0
   26.0665  -21.1559  -10.0927 C   0  0  0  0  0  0  0  0  0  0  0  0
   25.0206  -20.3869   -9.6230 C   0  0  0  0  0  0  0  0  0  0  0  0
   25.4717  -19.6091   -8.6282 N   0  0  0  0  0  0  0  0  0  0  0  0
   26.7862  -19.8187   -8.4019 C   0  0  0  0  0  0  0  0  0  0  0  0
   27.7151  -19.3017   -7.5247 C   0  0  0  0  0  0  0  0  0  0  0  0
   29.0119  -19.7670   -7.5806 C   0  0  0  0  0  0  0  0  0  0  0  0
   29.3723  -20.7319   -8.4978 C   0  0  0  0  0  0  0  0  0  0  0  0
   28.4514  -21.2491   -9.3725 C   0  0  0  0  0  0  0  0  0  0  0  0
   27.1558  -20.7929   -9.3258 C   0  0  0  0  0  0  0  0  0  0  0  0
   23.9190  -21.0934  -11.9921 C   0  0  0  0  0  0  0  0  0  0  0  0
   22.8257  -21.7962  -11.5185 O   0  0  0  0  0  0  0  0  0  0  0  0
   23.7819  -19.8431  -12.0926 O   0  0  0  0  0  0  0  0  0  0  0  0
  2  1  1  0
  3  4  1  6
  3  2  1  0
  5  3  1  0
  5  6  2  0
  7  5  1  0
  8  7  1  0
  9  8  1  0
 10  9  1  0
 10 11  1  0
 11  7  1  0
 11 12  1  1
 12 14  1  0
 13 12  2  0
 15 16  1  1
 15 26  1  0
 15 14  1  0
 17 18  2  0
 17 16  1  0
 19 18  1  0
 20 25  2  0
 20 19  1  0
 21 20  1  0
 22 23  1  0
 22 21  2  0
 23 24  2  0
 24 25  1  0
 25 17  1  0
 26 27  1  0
 28 26  2  0
M  END
$$$$
