SPW.pdb
     RDKit          3D

 28 30  0  0  1  0  0  0  0  0999 V2000
   23.5689  -18.4609  -15.0569 O   0  0  0  0  0  0  0  0  0  0  0  0
   23.4745  -18.3013  -16.4361 C   0  0  0  0  0  0  0  0  0  0  0  0
   24.8765  -18.1179  -17.0375 C   0  0  2  0  0  0  0  0  0  0  0  0
   24.6536  -18.0702  -18.4693 N   0  0  0  0  0  0  0  0  0  0  0  0
   25.6439  -19.3412  -16.6955 C   0  0  0  0  0  0  0  0  0  0  0  0
   25.4041  -20.3653  -17.4313 O   0  0  0  0  0  0  0  0  0  0  0  0
   26.5781  -19.4061  -15.6441 N   0  0  0  0  0  0  0  0  0  0  0  0
   26.8023  -18.4319  -14.6230 C   0  0  0  0  0  0  0  0  0  0  0  0
   28.2936  -18.5632  -14.3227 C   0  0  0  0  0  0  0  0  0  0  0  0
   28.7985  -19.7111  -15.1787 C   0  0  0  0  0  0  0  0  0  0  0  0
   27.4929  -20.4867  -15.4140 C   0  0  1  0  0  0  0  0  0  0  0  0
   27.2253  -21.2404  -14.1833 C   0  0  0  0  0  0  0  0  0  0  0  0
   27.9506  -22.1995  -13.8237 O   0  0  0  0  0  0  0  0  0  0  0  0
   26.1107  -20.8604  -13.3898 N   0  0  0  0  0  0  0  0  0  0  0  0
   25.6653  -21.5877  -12.2117 C   0  0  1  0  0  0  0  0  0  0  0  0
   26.7516  -21.4144  -11.2220 C   0  0  0  0  0  0  0  0  0  0  0  0
   26.4872  -20.7873   -9.9691 C   0  0  0  0  0  0  0  0  0  0  0  0
   25.2459  -20.3520   -9.5501 C   0  0  0  0  0  0  0  0  0  0  0  0
   25.3681  -19.8180   -8.3262 N   0  0  0  0  0  0  0  0  0  0  0  0
   26.6463  -19.8727   -7.8947 C   0  0  0  0  0  0  0  0  0  0  0  0
   27.3019  -19.4787   -6.7481 C   0  0  0  0  0  0  0  0  0  0  0  0
   28.6592  -19.7008   -6.6500 C   0  0  0  0  0  0  0  0  0  0  0  0
   29.3477  -20.3061   -7.6803 C   0  0  0  0  0  0  0  0  0  0  0  0
   28.6994  -20.6999   -8.8229 C   0  0  0  0  0  0  0  0  0  0  0  0
   27.3466  -20.4836   -8.9318 C   0  0  0  0  0  0  0  0  0  0  0  0
   24.4197  -20.9559  -11.7632 C   0  0  0  0  0  0  0  0  0  0  0  0
   23.4867  -21.7005  -11.0642 O   0  0  0  0  0  0  0  0  0  0  0  0
   24.1282  -19.7467  -11.9751 O   0  0  0  0  0  0  0  0  0  0  0  0
  2  1  1  0
  3  4  1  6
  3  2  1  0
  5  3  1  0
  5  6  2  0
  7  5  1  0
  8  7  1  0
  9  8  1  0
 10  9  1  0
 10 11  1  0
 11  7  1  0
 11 12  1  1
 12 14  1  0
 13 12  2  0
 15 16  1  1
 15 26  1  0
 15 14  1  0
 17 18  2  0
 17 16  1  0
 19 18  1  0
 20 25  2  0
 20 19  1  0
 21 20  1  0
 22 23  1  0
 22 21  2  0
 23 24  2  0
 24 25  1  0
 25 17  1  0
 26 27  1  0
 28 26  2  0
M  END
$$$$
