SPW.pdb
     RDKit          3D

 28 30  0  0  1  0  0  0  0  0999 V2000
   23.7680  -17.7949  -16.4026 O   0  0  0  0  0  0  0  0  0  0  0  0
   24.8822  -17.6881  -17.2294 C   0  0  0  0  0  0  0  0  0  0  0  0
   25.3644  -19.0883  -17.6390 C   0  0  2  0  0  0  0  0  0  0  0  0
   24.2723  -19.6337  -18.4212 N   0  0  0  0  0  0  0  0  0  0  0  0
   25.5120  -19.8659  -16.3837 C   0  0  0  0  0  0  0  0  0  0  0  0
   24.5159  -20.6168  -16.0808 O   0  0  0  0  0  0  0  0  0  0  0  0
   26.6528  -19.8071  -15.5605 N   0  0  0  0  0  0  0  0  0  0  0  0
   27.7384  -18.8821  -15.6494 C   0  0  0  0  0  0  0  0  0  0  0  0
   28.9408  -19.6930  -15.1714 C   0  0  0  0  0  0  0  0  0  0  0  0
   28.3986  -21.0480  -14.7529 C   0  0  0  0  0  0  0  0  0  0  0  0
   26.9315  -20.6915  -14.4662 C   0  0  1  0  0  0  0  0  0  0  0  0
   26.9078  -20.0376  -13.1524 C   0  0  0  0  0  0  0  0  0  0  0  0
   27.3141  -18.8610  -12.9914 O   0  0  0  0  0  0  0  0  0  0  0  0
   26.4084  -20.7711  -12.0439 N   0  0  0  0  0  0  0  0  0  0  0  0
   26.1644  -20.1952  -10.7309 C   0  0  1  0  0  0  0  0  0  0  0  0
   24.9839  -19.3212  -10.9100 C   0  0  0  0  0  0  0  0  0  0  0  0
   23.7178  -19.8854  -11.2441 C   0  0  0  0  0  0  0  0  0  0  0  0
   22.9487  -20.6574  -10.3964 C   0  0  0  0  0  0  0  0  0  0  0  0
   21.8260  -21.0122  -11.0379 N   0  0  0  0  0  0  0  0  0  0  0  0
   21.8004  -20.5112  -12.2915 C   0  0  0  0  0  0  0  0  0  0  0  0
   20.9109  -20.5695  -13.3427 C   0  0  0  0  0  0  0  0  0  0  0  0
   21.2248  -19.9150  -14.5150 C   0  0  0  0  0  0  0  0  0  0  0  0
   22.4073  -19.2151  -14.6331 C   0  0  0  0  0  0  0  0  0  0  0  0
   23.2953  -19.1544  -13.5897 C   0  0  0  0  0  0  0  0  0  0  0  0
   22.9928  -19.8029  -12.4164 C   0  0  0  0  0  0  0  0  0  0  0  0
   25.8790  -21.3092   -9.8203 C   0  0  0  0  0  0  0  0  0  0  0  0
   25.7793  -22.5950  -10.3206 O   0  0  0  0  0  0  0  0  0  0  0  0
   25.7124  -21.1764   -8.5767 O   0  0  0  0  0  0  0  0  0  0  0  0
  2  1  1  0
  3  4  1  6
  3  2  1  0
  5  3  1  0
  5  6  2  0
  7  5  1  0
  8  7  1  0
  9  8  1  0
 10  9  1  0
 10 11  1  0
 11  7  1  0
 11 12  1  1
 12 14  1  0
 13 12  2  0
 15 16  1  6
 15 26  1  0
 15 14  1  0
 17 18  2  0
 17 16  1  0
 19 18  1  0
 20 25  2  0
 20 19  1  0
 21 20  1  0
 22 23  1  0
 22 21  2  0
 23 24  2  0
 24 25  1  0
 25 17  1  0
 26 27  1  0
 28 26  2  0
M  END
$$$$
