SPW.pdb
     RDKit          3D

 28 30  0  0  1  0  0  0  0  0999 V2000
   25.9664  -22.6043  -15.8120 O   0  0  0  0  0  0  0  0  0  0  0  0
   26.3872  -21.8743  -16.9196 C   0  0  0  0  0  0  0  0  0  0  0  0
   27.8035  -21.3297  -16.6785 C   0  0  2  0  0  0  0  0  0  0  0  0
   28.6817  -22.4039  -17.0989 N   0  0  0  0  0  0  0  0  0  0  0  0
   27.9326  -21.1281  -15.2139 C   0  0  0  0  0  0  0  0  0  0  0  0
   28.7022  -21.9588  -14.6094 O   0  0  0  0  0  0  0  0  0  0  0  0
   27.2712  -20.1057  -14.5071 N   0  0  0  0  0  0  0  0  0  0  0  0
   26.2310  -19.2525  -14.9890 C   0  0  0  0  0  0  0  0  0  0  0  0
   26.4615  -17.9446  -14.2353 C   0  0  0  0  0  0  0  0  0  0  0  0
   27.6157  -18.2022  -13.2831 C   0  0  0  0  0  0  0  0  0  0  0  0
   27.5380  -19.7311  -13.1484 C   0  0  1  0  0  0  0  0  0  0  0  0
   26.4328  -20.0152  -12.2254 C   0  0  0  0  0  0  0  0  0  0  0  0
   25.2328  -19.8929  -12.5723 O   0  0  0  0  0  0  0  0  0  0  0  0
   26.7482  -20.4390  -10.9073 N   0  0  0  0  0  0  0  0  0  0  0  0
   25.8505  -21.2142  -10.0656 C   0  0  1  0  0  0  0  0  0  0  0  0
   26.6030  -21.4417   -8.8120 C   0  0  0  0  0  0  0  0  0  0  0  0
   26.9722  -20.3391   -7.9868 C   0  0  0  0  0  0  0  0  0  0  0  0
   26.5623  -19.0351   -8.1810 C   0  0  0  0  0  0  0  0  0  0  0  0
   27.0956  -18.2689   -7.2186 N   0  0  0  0  0  0  0  0  0  0  0  0
   27.8542  -19.0013   -6.3752 C   0  0  0  0  0  0  0  0  0  0  0  0
   28.6041  -18.7226   -5.2529 C   0  0  0  0  0  0  0  0  0  0  0  0
   29.2694  -19.7548   -4.6258 C   0  0  0  0  0  0  0  0  0  0  0  0
   29.1858  -21.0422   -5.1131 C   0  0  0  0  0  0  0  0  0  0  0  0
   28.4407  -21.3241   -6.2295 C   0  0  0  0  0  0  0  0  0  0  0  0
   27.7733  -20.3032   -6.8627 C   0  0  0  0  0  0  0  0  0  0  0  0
   24.6579  -20.3909   -9.8383 C   0  0  0  0  0  0  0  0  0  0  0  0
   23.5191  -20.9669   -9.3046 O   0  0  0  0  0  0  0  0  0  0  0  0
   24.5928  -19.1588  -10.1023 O   0  0  0  0  0  0  0  0  0  0  0  0
  2  1  1  0
  3  4  1  1
  3  2  1  0
  5  3  1  0
  5  6  2  0
  7  5  1  0
  8  7  1  0
  9  8  1  0
 10  9  1  0
 10 11  1  0
 11  7  1  0
 11 12  1  1
 12 14  1  0
 13 12  2  0
 15 16  1  1
 15 26  1  0
 15 14  1  0
 17 18  2  0
 17 16  1  0
 19 18  1  0
 20 25  2  0
 20 19  1  0
 21 20  1  0
 22 23  1  0
 22 21  2  0
 23 24  2  0
 24 25  1  0
 25 17  1  0
 26 27  1  0
 28 26  2  0
M  END
$$$$
