SPW.pdb
     RDKit          3D

 28 30  0  0  1  0  0  0  0  0999 V2000
   25.4918  -18.0456  -13.8943 O   0  0  0  0  0  0  0  0  0  0  0  0
   26.6494  -17.4883  -14.4291 C   0  0  0  0  0  0  0  0  0  0  0  0
   27.3996  -18.5407  -15.2601 C   0  0  2  0  0  0  0  0  0  0  0  0
   26.7037  -18.5625  -16.5317 N   0  0  0  0  0  0  0  0  0  0  0  0
   27.2071  -19.8388  -14.5671 C   0  0  0  0  0  0  0  0  0  0  0  0
   26.3609  -20.6345  -15.1134 O   0  0  0  0  0  0  0  0  0  0  0  0
   27.8905  -20.2028  -13.3911 N   0  0  0  0  0  0  0  0  0  0  0  0
   28.5887  -19.3388  -12.4922 C   0  0  0  0  0  0  0  0  0  0  0  0
   29.7220  -20.2136  -11.9611 C   0  0  0  0  0  0  0  0  0  0  0  0
   29.5144  -21.5900  -12.5674 C   0  0  0  0  0  0  0  0  0  0  0  0
   28.0112  -21.5387  -12.8826 C   0  0  1  0  0  0  0  0  0  0  0  0
   27.3087  -21.7571  -11.6126 C   0  0  0  0  0  0  0  0  0  0  0  0
   27.3801  -22.8480  -10.9960 O   0  0  0  0  0  0  0  0  0  0  0  0
   26.5312  -20.6942  -11.0815 N   0  0  0  0  0  0  0  0  0  0  0  0
   25.7061  -20.8069   -9.8892 C   0  0  1  0  0  0  0  0  0  0  0  0
   26.2901  -19.8456   -8.9278 C   0  0  0  0  0  0  0  0  0  0  0  0
   26.3618  -20.1714   -7.5416 C   0  0  0  0  0  0  0  0  0  0  0  0
   25.4430  -20.9479   -6.8641 C   0  0  0  0  0  0  0  0  0  0  0  0
   25.8263  -21.0484   -5.5832 N   0  0  0  0  0  0  0  0  0  0  0  0
   26.9721  -20.3693   -5.3613 C   0  0  0  0  0  0  0  0  0  0  0  0
   27.7738  -20.1502   -4.2618 C   0  0  0  0  0  0  0  0  0  0  0  0
   28.9070  -19.3787   -4.4097 C   0  0  0  0  0  0  0  0  0  0  0  0
   29.2318  -18.8365   -5.6355 C   0  0  0  0  0  0  0  0  0  0  0  0
   28.4371  -19.0519   -6.7322 C   0  0  0  0  0  0  0  0  0  0  0  0
   27.3051  -19.8194   -6.5966 C   0  0  0  0  0  0  0  0  0  0  0  0
   24.3427  -20.4261  -10.2737 C   0  0  0  0  0  0  0  0  0  0  0  0
   24.1200  -19.8175  -11.4958 O   0  0  0  0  0  0  0  0  0  0  0  0
   23.3277  -20.6187   -9.5493 O   0  0  0  0  0  0  0  0  0  0  0  0
  2  1  1  0
  3  4  1  6
  3  2  1  0
  5  3  1  0
  5  6  2  0
  7  5  1  0
  8  7  1  0
  9  8  1  0
 10  9  1  0
 10 11  1  0
 11  7  1  0
 11 12  1  1
 12 14  1  0
 13 12  2  0
 15 16  1  1
 15 26  1  0
 15 14  1  0
 17 18  2  0
 17 16  1  0
 19 18  1  0
 20 25  2  0
 20 19  1  0
 21 20  1  0
 22 23  1  0
 22 21  2  0
 23 24  2  0
 24 25  1  0
 25 17  1  0
 26 27  1  0
 28 26  2  0
M  END
$$$$
