GKF.pdb
     RDKit          3D

 25 25  0  0  1  0  0  0  0  0999 V2000
    4.6640  -19.2072   21.4564 N   0  0  0  0  0  0  0  0  0  0  0  0
    4.5641  -17.8425   21.9676 C   0  0  0  0  0  0  0  0  0  0  0  0
    5.8982  -17.2340   21.9025 C   0  0  0  0  0  0  0  0  0  0  0  0
    6.9075  -17.9780   22.0145 O   0  0  0  0  0  0  0  0  0  0  0  0
    6.0901  -15.8367   21.7177 N   0  0  0  0  0  0  0  0  0  0  0  0
    7.4102  -15.3027   21.7864 C   0  0  1  0  0  0  0  0  0  0  0  0
    7.5195  -14.0903   20.8975 C   0  0  0  0  0  0  0  0  0  0  0  0
    7.8391  -14.4815   19.4615 C   0  0  0  0  0  0  0  0  0  0  0  0
    7.9679  -13.2412   18.6049 C   0  0  0  0  0  0  0  0  0  0  0  0
    8.3459  -13.6383   17.2018 C   0  0  0  0  0  0  0  0  0  0  0  0
    8.3514  -12.4614   16.3486 N   0  0  0  0  0  0  0  0  0  0  0  0
    7.7795  -15.0185   23.1847 C   0  0  0  0  0  0  0  0  0  0  0  0
    7.1961  -14.0978   23.7935 O   0  0  0  0  0  0  0  0  0  0  0  0
    8.7687  -15.7629   23.8328 N   0  0  0  0  0  0  0  0  0  0  0  0
    9.1977  -15.5349   25.2073 C   0  0  1  0  0  0  0  0  0  0  0  0
    8.0475  -15.5105   26.1504 C   0  0  0  0  0  0  0  0  0  0  0  0
    7.6085  -14.1214   26.3867 C   0  0  0  0  0  0  0  0  0  0  0  0
    6.2256  -13.9202   26.4682 C   0  0  0  0  0  0  0  0  0  0  0  0
    5.7046  -12.6726   26.7095 C   0  0  0  0  0  0  0  0  0  0  0  0
    6.5564  -11.5989   26.8744 C   0  0  0  0  0  0  0  0  0  0  0  0
    7.9176  -11.7993   26.7939 C   0  0  0  0  0  0  0  0  0  0  0  0
    8.4496  -13.0471   26.5524 C   0  0  0  0  0  0  0  0  0  0  0  0
   10.1608  -16.5802   25.5584 C   0  0  0  0  0  0  0  0  0  0  0  0
   10.7382  -16.5428   26.6704 O   0  0  0  0  0  0  0  0  0  0  0  0
   10.4796  -17.6318   24.7234 O   0  0  0  0  0  0  0  0  0  0  0  0
  1  2  1  0
  2  3  1  0
  3  4  2  0
  5  6  1  0
  5  3  1  0
  6 12  1  0
  6  7  1  6
  8  7  1  0
  8  9  1  0
 10  9  1  0
 11 10  1  0
 12 14  1  0
 12 13  2  0
 14 15  1  0
 15 23  1  0
 15 16  1  1
 17 16  1  0
 17 18  2  0
 19 18  1  0
 20 19  2  0
 21 22  2  0
 21 20  1  0
 22 17  1  0
 23 24  2  0
 23 25  1  0
M  END
$$$$
