GKF.pdb
     RDKit          3D

 25 25  0  0  1  0  0  0  0  0999 V2000
    4.9874  -18.0147   23.3784 N   0  0  0  0  0  0  0  0  0  0  0  0
    5.9786  -18.9475   22.8485 C   0  0  0  0  0  0  0  0  0  0  0  0
    7.1871  -18.1847   22.5136 C   0  0  0  0  0  0  0  0  0  0  0  0
    8.2783  -18.8018   22.3981 O   0  0  0  0  0  0  0  0  0  0  0  0
    7.1684  -16.7761   22.3155 N   0  0  0  0  0  0  0  0  0  0  0  0
    8.3441  -16.1274   21.8365 C   0  0  1  0  0  0  0  0  0  0  0  0
    7.9648  -14.9395   20.9895 C   0  0  0  0  0  0  0  0  0  0  0  0
    8.4421  -15.1063   19.5537 C   0  0  0  0  0  0  0  0  0  0  0  0
    8.0693  -13.8861   18.7406 C   0  0  0  0  0  0  0  0  0  0  0  0
    8.5399  -14.0669   17.3212 C   0  0  0  0  0  0  0  0  0  0  0  0
    8.1274  -12.9240   16.5232 N   0  0  0  0  0  0  0  0  0  0  0  0
    9.2282  -15.7669   22.9593 C   0  0  0  0  0  0  0  0  0  0  0  0
   10.3443  -15.2622   22.7178 O   0  0  0  0  0  0  0  0  0  0  0  0
    8.8342  -15.9819   24.2826 N   0  0  0  0  0  0  0  0  0  0  0  0
    9.6518  -15.6558   25.4447 C   0  0  1  0  0  0  0  0  0  0  0  0
    9.7210  -14.1886   25.6800 C   0  0  0  0  0  0  0  0  0  0  0  0
    8.3819  -13.6578   26.0013 C   0  0  0  0  0  0  0  0  0  0  0  0
    8.3097  -12.8033   27.1077 C   0  0  0  0  0  0  0  0  0  0  0  0
    7.1190  -12.2316   27.4843 C   0  0  0  0  0  0  0  0  0  0  0  0
    5.9745  -12.5028   26.7617 C   0  0  0  0  0  0  0  0  0  0  0  0
    6.0479  -13.3444   25.6727 C   0  0  0  0  0  0  0  0  0  0  0  0
    7.2377  -13.9223   25.2872 C   0  0  0  0  0  0  0  0  0  0  0  0
    9.0950  -16.3616   26.6002 C   0  0  0  0  0  0  0  0  0  0  0  0
    9.5978  -16.1860   27.7350 O   0  0  0  0  0  0  0  0  0  0  0  0
    8.0235  -17.2274   26.5184 O   0  0  0  0  0  0  0  0  0  0  0  0
  1  2  1  0
  2  3  1  0
  3  4  2  0
  5  6  1  0
  5  3  1  0
  6 12  1  0
  6  7  1  1
  8  7  1  0
  8  9  1  0
 10  9  1  0
 11 10  1  0
 12 14  1  0
 12 13  2  0
 14 15  1  0
 15 23  1  0
 15 16  1  1
 17 16  1  0
 17 18  2  0
 19 18  1  0
 20 19  2  0
 21 22  2  0
 21 20  1  0
 22 17  1  0
 23 24  2  0
 23 25  1  0
M  END
$$$$
