GKF.pdb
     RDKit          3D

 25 25  0  0  1  0  0  0  0  0999 V2000
    7.8237  -12.5861   18.8739 N   0  0  0  0  0  0  0  0  0  0  0  0
    8.0332  -14.0258   19.0047 C   0  0  0  0  0  0  0  0  0  0  0  0
    7.4593  -14.4539   20.2860 C   0  0  0  0  0  0  0  0  0  0  0  0
    7.2782  -13.5914   21.1850 O   0  0  0  0  0  0  0  0  0  0  0  0
    7.1016  -15.8058   20.5468 N   0  0  0  0  0  0  0  0  0  0  0  0
    6.6797  -16.1708   21.8588 C   0  0  1  0  0  0  0  0  0  0  0  0
    5.9263  -17.4756   21.8103 C   0  0  0  0  0  0  0  0  0  0  0  0
    4.6574  -17.3534   20.9783 C   0  0  0  0  0  0  0  0  0  0  0  0
    3.9120  -18.6699   20.9771 C   0  0  0  0  0  0  0  0  0  0  0  0
    2.5861  -18.4944   20.2841 C   0  0  0  0  0  0  0  0  0  0  0  0
    1.9337  -19.7863   20.1491 N   0  0  0  0  0  0  0  0  0  0  0  0
    7.8311  -16.2123   22.7781 C   0  0  0  0  0  0  0  0  0  0  0  0
    8.9454  -16.5692   22.3426 O   0  0  0  0  0  0  0  0  0  0  0  0
    7.6908  -15.8590   24.1227 N   0  0  0  0  0  0  0  0  0  0  0  0
    8.7826  -15.8603   25.0888 C   0  0  1  0  0  0  0  0  0  0  0  0
    9.3094  -14.4906   25.3323 C   0  0  0  0  0  0  0  0  0  0  0  0
    8.2360  -13.6108   25.8344 C   0  0  0  0  0  0  0  0  0  0  0  0
    7.4959  -12.9290   24.8614 C   0  0  0  0  0  0  0  0  0  0  0  0
    6.4572  -12.1018   25.2126 C   0  0  0  0  0  0  0  0  0  0  0  0
    6.1368  -11.9390   26.5454 C   0  0  0  0  0  0  0  0  0  0  0  0
    6.8668  -12.6114   27.5016 C   0  0  0  0  0  0  0  0  0  0  0  0
    7.9102  -13.4434   27.1591 C   0  0  0  0  0  0  0  0  0  0  0  0
    8.2920  -16.4766   26.3229 C   0  0  0  0  0  0  0  0  0  0  0  0
    7.0886  -16.8167   26.4099 O   0  0  0  0  0  0  0  0  0  0  0  0
    9.0904  -16.7156   27.4229 O   0  0  0  0  0  0  0  0  0  0  0  0
  1  2  1  0
  2  3  1  0
  3  4  2  0
  5  6  1  0
  5  3  1  0
  6 12  1  0
  6  7  1  6
  8  7  1  0
  8  9  1  0
 10  9  1  0
 11 10  1  0
 12 14  1  0
 12 13  2  0
 14 15  1  0
 15 23  1  0
 15 16  1  1
 17 16  1  0
 17 18  2  0
 19 18  1  0
 20 19  2  0
 21 22  2  0
 21 20  1  0
 22 17  1  0
 23 24  2  0
 23 25  1  0
M  END
$$$$
