GKF.pdb
     RDKit          3D

 25 25  0  0  1  0  0  0  0  0999 V2000
    7.4746  -12.5171   18.6622 N   0  0  0  0  0  0  0  0  0  0  0  0
    8.4657  -12.6663   19.7247 C   0  0  0  0  0  0  0  0  0  0  0  0
    8.1539  -13.8931   20.4679 C   0  0  0  0  0  0  0  0  0  0  0  0
    6.9470  -14.1767   20.6864 O   0  0  0  0  0  0  0  0  0  0  0  0
    9.1652  -14.7705   20.9485 N   0  0  0  0  0  0  0  0  0  0  0  0
    8.7897  -15.8914   21.7454 C   0  0  1  0  0  0  0  0  0  0  0  0
    9.3313  -17.1587   21.1347 C   0  0  0  0  0  0  0  0  0  0  0  0
    9.0397  -17.2245   19.6421 C   0  0  0  0  0  0  0  0  0  0  0  0
    7.9351  -18.2232   19.3753 C   0  0  0  0  0  0  0  0  0  0  0  0
    8.2916  -19.0548   18.1709 C   0  0  0  0  0  0  0  0  0  0  0  0
    7.1932  -19.9544   17.8593 N   0  0  0  0  0  0  0  0  0  0  0  0
    9.2243  -15.7011   23.1409 C   0  0  0  0  0  0  0  0  0  0  0  0
   10.3778  -15.2804   23.3674 O   0  0  0  0  0  0  0  0  0  0  0  0
    8.3658  -15.9841   24.2064 N   0  0  0  0  0  0  0  0  0  0  0  0
    8.7325  -15.8539   25.6114 C   0  0  1  0  0  0  0  0  0  0  0  0
    7.5773  -15.4345   26.4495 C   0  0  0  0  0  0  0  0  0  0  0  0
    7.4393  -13.9651   26.4328 C   0  0  0  0  0  0  0  0  0  0  0  0
    6.1319  -13.4706   26.5066 C   0  0  0  0  0  0  0  0  0  0  0  0
    5.8859  -12.1195   26.5230 C   0  0  0  0  0  0  0  0  0  0  0  0
    6.9432  -11.2338   26.4659 C   0  0  0  0  0  0  0  0  0  0  0  0
    8.2296  -11.7230   26.3935 C   0  0  0  0  0  0  0  0  0  0  0  0
    8.4863  -13.0765   26.3766 C   0  0  0  0  0  0  0  0  0  0  0  0
    9.2828  -17.1362   26.0545 C   0  0  0  0  0  0  0  0  0  0  0  0
    8.9785  -18.1863   25.4413 O   0  0  0  0  0  0  0  0  0  0  0  0
   10.1388  -17.2655   27.1293 O   0  0  0  0  0  0  0  0  0  0  0  0
  1  2  1  0
  2  3  1  0
  3  4  2  0
  5  6  1  0
  5  3  1  0
  6 12  1  0
  6  7  1  6
  8  7  1  0
  8  9  1  0
 10  9  1  0
 11 10  1  0
 12 14  1  0
 12 13  2  0
 14 15  1  0
 15 23  1  0
 15 16  1  1
 17 16  1  0
 17 18  2  0
 19 18  1  0
 20 19  2  0
 21 22  2  0
 21 20  1  0
 22 17  1  0
 23 24  2  0
 23 25  1  0
M  END
$$$$
