GKF.pdb
     RDKit          3D

 25 25  0  0  1  0  0  0  0  0999 V2000
    5.0135  -20.0103   21.6101 N   0  0  0  0  0  0  0  0  0  0  0  0
    4.7926  -18.7471   22.3094 C   0  0  0  0  0  0  0  0  0  0  0  0
    6.0701  -18.0259   22.3593 C   0  0  0  0  0  0  0  0  0  0  0  0
    7.1062  -18.6553   22.6986 O   0  0  0  0  0  0  0  0  0  0  0  0
    6.1780  -16.6443   22.0385 N   0  0  0  0  0  0  0  0  0  0  0  0
    7.3942  -15.9583   22.3263 C   0  0  1  0  0  0  0  0  0  0  0  0
    7.4354  -14.6515   21.5760 C   0  0  0  0  0  0  0  0  0  0  0  0
    8.0530  -14.8232   20.1953 C   0  0  0  0  0  0  0  0  0  0  0  0
    7.9980  -13.5143   19.4387 C   0  0  0  0  0  0  0  0  0  0  0  0
    8.6054  -13.6993   18.0727 C   0  0  0  0  0  0  0  0  0  0  0  0
    8.5333  -12.4486   17.3355 N   0  0  0  0  0  0  0  0  0  0  0  0
    7.5568  -15.7848   23.7809 C   0  0  0  0  0  0  0  0  0  0  0  0
    6.5408  -15.7151   24.5032 O   0  0  0  0  0  0  0  0  0  0  0  0
    8.8268  -15.6980   24.3572 N   0  0  0  0  0  0  0  0  0  0  0  0
    9.0737  -15.6475   25.7932 C   0  0  1  0  0  0  0  0  0  0  0  0
    7.8141  -15.4813   26.5669 C   0  0  0  0  0  0  0  0  0  0  0  0
    7.4321  -14.0568   26.6234 C   0  0  0  0  0  0  0  0  0  0  0  0
    6.0594  -13.7871   26.5738 C   0  0  0  0  0  0  0  0  0  0  0  0
    5.5879  -12.4990   26.6433 C   0  0  0  0  0  0  0  0  0  0  0  0
    6.4802  -11.4526   26.7640 C   0  0  0  0  0  0  0  0  0  0  0  0
    7.8313  -11.7205   26.8129 C   0  0  0  0  0  0  0  0  0  0  0  0
    8.3136  -13.0092   26.7440 C   0  0  0  0  0  0  0  0  0  0  0  0
    9.7820  -16.8714   26.1723 C   0  0  0  0  0  0  0  0  0  0  0  0
   10.0385  -17.7345   25.3001 O   0  0  0  0  0  0  0  0  0  0  0  0
   10.1981  -17.1411   27.4602 O   0  0  0  0  0  0  0  0  0  0  0  0
  1  2  1  0
  2  3  1  0
  3  4  2  0
  5  6  1  0
  5  3  1  0
  6 12  1  0
  6  7  1  6
  8  7  1  0
  8  9  1  0
 10  9  1  0
 11 10  1  0
 12 14  1  0
 12 13  2  0
 14 15  1  0
 15 23  1  0
 15 16  1  1
 17 16  1  0
 17 18  2  0
 19 18  1  0
 20 19  2  0
 21 22  2  0
 21 20  1  0
 22 17  1  0
 23 24  2  0
 23 25  1  0
M  END
$$$$
