GKF.pdb
     RDKit          3D

 25 25  0  0  1  0  0  0  0  0999 V2000
    7.7769  -11.8375   19.6614 N   0  0  0  0  0  0  0  0  0  0  0  0
    8.5838  -13.0531   19.5925 C   0  0  0  0  0  0  0  0  0  0  0  0
    8.1509  -13.9477   20.6728 C   0  0  0  0  0  0  0  0  0  0  0  0
    7.3871  -13.4928   21.5641 O   0  0  0  0  0  0  0  0  0  0  0  0
    8.5632  -15.3070   20.7475 N   0  0  0  0  0  0  0  0  0  0  0  0
    8.0160  -16.1429   21.7646 C   0  0  1  0  0  0  0  0  0  0  0  0
    8.0622  -17.5837   21.3236 C   0  0  0  0  0  0  0  0  0  0  0  0
    7.1880  -17.8181   20.0997 C   0  0  0  0  0  0  0  0  0  0  0  0
    7.2288  -19.2788   19.7082 C   0  0  0  0  0  0  0  0  0  0  0  0
    6.4547  -19.4772   18.4313 C   0  0  0  0  0  0  0  0  0  0  0  0
    6.4591  -20.8863   18.0743 N   0  0  0  0  0  0  0  0  0  0  0  0
    8.7088  -15.9173   23.0458 C   0  0  0  0  0  0  0  0  0  0  0  0
    9.9271  -15.6444   23.0394 O   0  0  0  0  0  0  0  0  0  0  0  0
    8.0223  -16.0046   24.2597 N   0  0  0  0  0  0  0  0  0  0  0  0
    8.6433  -15.8299   25.5671 C   0  0  1  0  0  0  0  0  0  0  0  0
    7.6611  -15.3870   26.5928 C   0  0  0  0  0  0  0  0  0  0  0  0
    7.3094  -13.9686   26.3861 C   0  0  0  0  0  0  0  0  0  0  0  0
    5.9416  -13.6711   26.3729 C   0  0  0  0  0  0  0  0  0  0  0  0
    5.4992  -12.3808   26.2122 C   0  0  0  0  0  0  0  0  0  0  0  0
    6.4162  -11.3601   26.0613 C   0  0  0  0  0  0  0  0  0  0  0  0
    7.7624  -11.6553   26.0748 C   0  0  0  0  0  0  0  0  0  0  0  0
    8.2157  -12.9464   26.2355 C   0  0  0  0  0  0  0  0  0  0  0  0
    9.2767  -17.0965   25.9384 C   0  0  0  0  0  0  0  0  0  0  0  0
    9.9882  -17.1550   26.9688 O   0  0  0  0  0  0  0  0  0  0  0  0
    9.1348  -18.2599   25.2098 O   0  0  0  0  0  0  0  0  0  0  0  0
  1  2  1  0
  2  3  1  0
  3  4  2  0
  5  6  1  0
  5  3  1  0
  6 12  1  0
  6  7  1  6
  8  7  1  0
  8  9  1  0
 10  9  1  0
 11 10  1  0
 12 14  1  0
 12 13  2  0
 14 15  1  0
 15 23  1  0
 15 16  1  1
 17 16  1  0
 17 18  2  0
 19 18  1  0
 20 19  2  0
 21 22  2  0
 21 20  1  0
 22 17  1  0
 23 24  2  0
 23 25  1  0
M  END
$$$$
