TES.pdb
     RDKit          3D

 23 22  0  0  1  0  0  0  0  0999 V2000
   16.2111  -26.8452   -8.1530 C   0  0  0  0  0  0  0  0  0  0  0  0
   17.5467  -26.2386   -8.4839 C   0  0  1  0  0  0  0  0  0  0  0  0
   17.7404  -26.2257   -9.8568 O   0  0  0  0  0  0  0  0  0  0  0  0
   17.6694  -24.8512   -7.8857 C   0  0  2  0  0  0  0  0  0  0  0  0
   18.9557  -24.3176   -8.2968 N   0  0  0  0  0  0  0  0  0  0  0  0
   17.5207  -24.8813   -6.4124 C   0  0  0  0  0  0  0  0  0  0  0  0
   18.5470  -25.0536   -5.7284 O   0  0  0  0  0  0  0  0  0  0  0  0
   16.2980  -24.7276   -5.7532 N   0  0  0  0  0  0  0  0  0  0  0  0
   16.0554  -24.7875   -4.3525 C   0  0  1  0  0  0  0  0  0  0  0  0
   14.8664  -24.0747   -3.8509 C   0  0  0  0  0  0  0  0  0  0  0  0
   15.0577  -22.6113   -3.6027 C   0  0  0  0  0  0  0  0  0  0  0  0
   13.8138  -21.9392   -3.1463 C   0  0  0  0  0  0  0  0  0  0  0  0
   13.5432  -21.6742   -1.9665 O   0  0  0  0  0  0  0  0  0  0  0  0
   15.9743  -26.2340   -3.9170 C   0  0  0  0  0  0  0  0  0  0  0  0
   15.9687  -27.0860   -4.8148 O   0  0  0  0  0  0  0  0  0  0  0  0
   12.8519  -21.5635   -4.1007 O   0  0  0  0  0  0  0  0  0  0  0  0
   19.1958  -27.9357   -1.5893 O   0  0  0  0  0  0  0  0  0  0  0  0
   18.2783  -27.0605   -2.1244 C   0  0  0  0  0  0  0  0  0  0  0  0
   16.8428  -27.5090   -1.9390 C   0  0  2  0  0  0  0  0  0  0  0  0
   15.9083  -26.5935   -2.5426 N   0  0  0  0  0  0  0  0  0  0  0  0
   16.5356  -27.8289   -0.5366 C   0  0  0  0  0  0  0  0  0  0  0  0
   16.2509  -26.8193    0.3506 O   0  0  0  0  0  0  0  0  0  0  0  0
   16.5326  -29.0110   -0.1517 O   0  0  0  0  0  0  0  0  0  0  0  0
  2  1  1  6
  2  4  1  0
  3  2  1  0
  4  6  1  0
  4  5  1  1
  6  7  2  0
  8  6  1  0
  8  9  1  0
  9 14  1  0
  9 10  1  6
 11 12  1  0
 11 10  1  0
 12 13  2  0
 12 16  1  0
 14 20  1  0
 14 15  2  0
 18 17  1  0
 19 18  1  1
 20 19  1  0
 21 19  1  0
 21 22  1  0
 23 21  2  0
M  END
$$$$
