TES.pdb
     RDKit          3D

 23 22  0  0  1  0  0  0  0  0999 V2000
   15.9761   -5.5616   -8.9621 C   0  0  0  0  0  0  0  0  0  0  0  0
   15.2087   -6.6485   -8.2613 C   0  0  1  0  0  0  0  0  0  0  0  0
   14.1437   -6.1064   -7.5582 O   0  0  0  0  0  0  0  0  0  0  0  0
   14.7518   -7.7049   -9.2477 C   0  0  2  0  0  0  0  0  0  0  0  0
   14.1309   -8.7700   -8.4807 N   0  0  0  0  0  0  0  0  0  0  0  0
   15.8770   -8.1947  -10.0771 C   0  0  0  0  0  0  0  0  0  0  0  0
   16.7151   -8.9407   -9.5369 O   0  0  0  0  0  0  0  0  0  0  0  0
   16.0472   -7.8662  -11.4248 N   0  0  0  0  0  0  0  0  0  0  0  0
   17.1451   -8.2003  -12.2659 C   0  0  1  0  0  0  0  0  0  0  0  0
   16.8239   -8.6734  -13.6247 C   0  0  0  0  0  0  0  0  0  0  0  0
   18.0042   -8.9039  -14.5155 C   0  0  0  0  0  0  0  0  0  0  0  0
   17.6276   -9.4930  -15.8263 C   0  0  0  0  0  0  0  0  0  0  0  0
   18.4289   -9.8187  -16.7136 O   0  0  0  0  0  0  0  0  0  0  0  0
   18.0770   -7.0134  -12.3724 C   0  0  0  0  0  0  0  0  0  0  0  0
   17.5490   -5.8972  -12.4571 O   0  0  0  0  0  0  0  0  0  0  0  0
   16.2678   -9.7095  -16.1114 O   0  0  0  0  0  0  0  0  0  0  0  0
   22.6770   -5.3526  -12.2244 O   0  0  0  0  0  0  0  0  0  0  0  0
   21.8134   -6.4225  -12.1660 C   0  0  0  0  0  0  0  0  0  0  0  0
   20.3934   -6.0692  -12.5596 C   0  0  2  0  0  0  0  0  0  0  0  0
   19.4898   -7.1760  -12.3743 N   0  0  0  0  0  0  0  0  0  0  0  0
   20.3204   -5.4636  -13.8981 C   0  0  0  0  0  0  0  0  0  0  0  0
   20.2814   -4.0968  -14.0312 O   0  0  0  0  0  0  0  0  0  0  0  0
   20.2941   -6.1856  -14.9098 O   0  0  0  0  0  0  0  0  0  0  0  0
  2  1  1  6
  2  4  1  0
  3  2  1  0
  4  6  1  0
  4  5  1  1
  6  7  2  0
  8  6  1  0
  8  9  1  0
  9 14  1  0
  9 10  1  6
 11 12  1  0
 11 10  1  0
 12 13  2  0
 12 16  1  0
 14 20  1  0
 14 15  2  0
 18 17  1  0
 19 18  1  6
 20 19  1  0
 21 19  1  0
 21 22  1  0
 23 21  2  0
M  END
$$$$
