TES.pdb
     RDKit          3D

 23 22  0  0  1  0  0  0  0  0999 V2000
   16.0186   -4.9935   -9.2248 C   0  0  0  0  0  0  0  0  0  0  0  0
   15.3296   -5.9880   -8.3317 C   0  0  1  0  0  0  0  0  0  0  0  0
   14.2271   -5.4050   -7.7259 O   0  0  0  0  0  0  0  0  0  0  0  0
   14.9515   -7.2344   -9.1071 C   0  0  2  0  0  0  0  0  0  0  0  0
   14.3596   -8.1654   -8.1631 N   0  0  0  0  0  0  0  0  0  0  0  0
   16.1219   -7.8137   -9.8059 C   0  0  0  0  0  0  0  0  0  0  0  0
   16.9144   -8.5037   -9.1376 O   0  0  0  0  0  0  0  0  0  0  0  0
   16.3825   -7.6285  -11.1664 N   0  0  0  0  0  0  0  0  0  0  0  0
   17.4407   -8.1948  -11.9307 C   0  0  1  0  0  0  0  0  0  0  0  0
   17.0722   -9.2271  -12.9165 C   0  0  0  0  0  0  0  0  0  0  0  0
   18.2197   -9.8451  -13.6521 C   0  0  0  0  0  0  0  0  0  0  0  0
   17.7975  -10.9520  -14.5485 C   0  0  0  0  0  0  0  0  0  0  0  0
   17.3798  -12.0541  -14.1658 O   0  0  0  0  0  0  0  0  0  0  0  0
   18.1949   -7.0923  -12.6406 C   0  0  0  0  0  0  0  0  0  0  0  0
   17.5180   -6.2798  -13.2837 O   0  0  0  0  0  0  0  0  0  0  0  0
   17.8654  -10.7660  -15.9406 O   0  0  0  0  0  0  0  0  0  0  0  0
   22.1777   -4.4216  -13.1212 O   0  0  0  0  0  0  0  0  0  0  0  0
   21.4341   -5.3615  -12.4447 C   0  0  0  0  0  0  0  0  0  0  0  0
   20.3553   -5.9992  -13.2966 C   0  0  2  0  0  0  0  0  0  0  0  0
   19.6121   -6.9970  -12.5699 N   0  0  0  0  0  0  0  0  0  0  0  0
   20.8731   -6.4722  -14.5895 C   0  0  0  0  0  0  0  0  0  0  0  0
   21.0027   -5.5949  -15.6387 O   0  0  0  0  0  0  0  0  0  0  0  0
   21.1941   -7.6643  -14.7354 O   0  0  0  0  0  0  0  0  0  0  0  0
  2  1  1  6
  2  4  1  0
  3  2  1  0
  4  6  1  0
  4  5  1  1
  6  7  2  0
  8  6  1  0
  8  9  1  0
  9 14  1  0
  9 10  1  6
 11 12  1  0
 11 10  1  0
 12 13  2  0
 12 16  1  0
 14 20  1  0
 14 15  2  0
 18 17  1  0
 19 18  1  1
 20 19  1  0
 21 19  1  0
 21 22  1  0
 23 21  2  0
M  END
$$$$
