VGI.pdb
     RDKit          3D

 20 19  0  0  1  0  0  0  0  0999 V2000
    7.9802  -22.0734   24.3496 C   0  0  0  0  0  0  0  0  0  0  0  0
    8.7769  -22.2987   23.0657 C   0  0  1  0  0  0  0  0  0  0  0  0
    8.1312  -23.4006   22.2643 C   0  0  0  0  0  0  0  0  0  0  0  0
    8.7065  -21.0114   22.2751 C   0  0  2  0  0  0  0  0  0  0  0  0
    9.1505  -21.1637   20.9254 N   0  0  0  0  0  0  0  0  0  0  0  0
    9.4171  -19.9004   22.9316 C   0  0  0  0  0  0  0  0  0  0  0  0
   10.6551  -19.7062   22.8259 O   0  0  0  0  0  0  0  0  0  0  0  0
    8.6793  -18.9890   23.7316 N   0  0  0  0  0  0  0  0  0  0  0  0
    9.2938  -17.9148   24.4510 C   0  0  0  0  0  0  0  0  0  0  0  0
    8.2692  -17.0666   25.1579 C   0  0  0  0  0  0  0  0  0  0  0  0
    7.1977  -17.6211   25.4884 O   0  0  0  0  0  0  0  0  0  0  0  0
    9.8291  -12.4171   28.2038 C   0  0  0  0  0  0  0  0  0  0  0  0
    9.1476  -13.1341   27.0855 C   0  0  0  0  0  0  0  0  0  0  0  0
    8.3019  -14.3016   27.4348 C   0  0  2  0  0  0  0  0  0  0  0  0
    9.0668  -15.2900   28.3034 C   0  0  0  0  0  0  0  0  0  0  0  0
    7.6047  -14.9616   26.3042 C   0  0  2  0  0  0  0  0  0  0  0  0
    8.4895  -15.7083   25.4427 N   0  0  0  0  0  0  0  0  0  0  0  0
    6.7283  -14.0104   25.5959 C   0  0  0  0  0  0  0  0  0  0  0  0
    5.5685  -13.4965   26.1237 O   0  0  0  0  0  0  0  0  0  0  0  0
    7.0503  -13.6424   24.4385 O   0  0  0  0  0  0  0  0  0  0  0  0
  2  1  1  1
  2  3  1  0
  4  2  1  0
  4  5  1  6
  6  4  1  0
  6  8  1  0
  7  6  2  0
  9  8  1  0
  9 10  1  0
 10 17  1  0
 11 10  2  0
 12 13  1  0
 14 13  1  0
 14 15  1  6
 16 14  1  0
 16 17  1  6
 18 19  1  0
 18 16  1  0
 20 18  2  0
M  END
$$$$
