VGI.pdb
     RDKit          3D

 20 19  0  0  1  0  0  0  0  0999 V2000
    8.5356  -12.9444   17.3791 C   0  0  0  0  0  0  0  0  0  0  0  0
    7.7065  -13.3265   18.6041 C   0  0  1  0  0  0  0  0  0  0  0  0
    6.5157  -14.1413   18.1667 C   0  0  0  0  0  0  0  0  0  0  0  0
    8.5914  -14.1833   19.4817 C   0  0  2  0  0  0  0  0  0  0  0  0
    8.9486  -15.4233   18.8678 N   0  0  0  0  0  0  0  0  0  0  0  0
    8.0159  -14.4140   20.8181 C   0  0  0  0  0  0  0  0  0  0  0  0
    7.7944  -13.4965   21.6490 O   0  0  0  0  0  0  0  0  0  0  0  0
    7.6870  -15.7394   21.2059 N   0  0  0  0  0  0  0  0  0  0  0  0
    7.0517  -16.0483   22.4509 C   0  0  0  0  0  0  0  0  0  0  0  0
    7.8845  -15.5975   23.6223 C   0  0  0  0  0  0  0  0  0  0  0  0
    9.1277  -15.6516   23.4944 O   0  0  0  0  0  0  0  0  0  0  0  0
    5.7689  -11.7785   26.8790 C   0  0  0  0  0  0  0  0  0  0  0  0
    6.6716  -12.6459   26.0655 C   0  0  0  0  0  0  0  0  0  0  0  0
    7.4523  -13.6841   26.7818 C   0  0  2  0  0  0  0  0  0  0  0  0
    8.4059  -13.0541   27.7871 C   0  0  0  0  0  0  0  0  0  0  0  0
    8.1164  -14.7015   25.9310 C   0  0  2  0  0  0  0  0  0  0  0  0
    7.3076  -15.1328   24.8164 N   0  0  0  0  0  0  0  0  0  0  0  0
    8.6587  -15.8022   26.7489 C   0  0  0  0  0  0  0  0  0  0  0  0
    9.8715  -15.7541   27.3928 O   0  0  0  0  0  0  0  0  0  0  0  0
    7.9806  -16.8530   26.8695 O   0  0  0  0  0  0  0  0  0  0  0  0
  2  1  1  6
  2  3  1  0
  4  2  1  0
  4  5  1  6
  6  4  1  0
  6  8  1  0
  7  6  2  0
  9  8  1  0
  9 10  1  0
 10 17  1  0
 11 10  2  0
 12 13  1  0
 14 13  1  0
 14 15  1  6
 16 14  1  0
 16 17  1  6
 18 19  1  0
 18 16  1  0
 20 18  2  0
M  END
$$$$
