VGI.pdb
     RDKit          3D

 20 19  0  0  1  0  0  0  0  0999 V2000
    7.6578  -12.7292   20.8622 C   0  0  0  0  0  0  0  0  0  0  0  0
    7.6424  -13.5347   19.5641 C   0  0  1  0  0  0  0  0  0  0  0  0
    8.1625  -12.6772   18.4383 C   0  0  0  0  0  0  0  0  0  0  0  0
    8.5803  -14.7042   19.7635 C   0  0  2  0  0  0  0  0  0  0  0  0
    8.7133  -15.5148   18.5942 N   0  0  0  0  0  0  0  0  0  0  0  0
    8.2200  -15.5309   20.9284 C   0  0  0  0  0  0  0  0  0  0  0  0
    7.9216  -16.7502   20.8516 O   0  0  0  0  0  0  0  0  0  0  0  0
    8.2036  -14.9346   22.2165 N   0  0  0  0  0  0  0  0  0  0  0  0
    7.8840  -15.6650   23.4054 C   0  0  0  0  0  0  0  0  0  0  0  0
    9.0143  -15.6225   24.4000 C   0  0  0  0  0  0  0  0  0  0  0  0
   10.1586  -15.3826   23.9551 O   0  0  0  0  0  0  0  0  0  0  0  0
    8.3573  -12.1848   27.9865 C   0  0  0  0  0  0  0  0  0  0  0  0
    8.7881  -13.2828   27.0712 C   0  0  0  0  0  0  0  0  0  0  0  0
    9.4679  -14.4533   27.6780 C   0  0  2  0  0  0  0  0  0  0  0  0
   10.6348  -14.0151   28.5515 C   0  0  0  0  0  0  0  0  0  0  0  0
    9.8364  -15.5469   26.7463 C   0  0  2  0  0  0  0  0  0  0  0  0
    8.8118  -15.8405   25.7733 N   0  0  0  0  0  0  0  0  0  0  0  0
   10.3289  -16.7256   27.4831 C   0  0  0  0  0  0  0  0  0  0  0  0
   11.6136  -16.8551   27.9528 O   0  0  0  0  0  0  0  0  0  0  0  0
    9.5354  -17.6757   27.6982 O   0  0  0  0  0  0  0  0  0  0  0  0
  2  1  1  1
  2  3  1  0
  4  2  1  0
  4  5  1  6
  6  4  1  0
  6  8  1  0
  7  6  2  0
  9  8  1  0
  9 10  1  0
 10 17  1  0
 11 10  2  0
 12 13  1  0
 14 13  1  0
 14 15  1  6
 16 14  1  0
 16 17  1  1
 18 19  1  0
 18 16  1  0
 20 18  2  0
M  END
$$$$
