VGI.pdb
     RDKit          3D

 20 19  0  0  1  0  0  0  0  0999 V2000
    9.1673  -20.0456   19.8295 C   0  0  0  0  0  0  0  0  0  0  0  0
    8.8138  -18.9448   20.8283 C   0  0  1  0  0  0  0  0  0  0  0  0
   10.0232  -18.0751   21.0614 C   0  0  0  0  0  0  0  0  0  0  0  0
    7.7246  -18.1101   20.1925 C   0  0  2  0  0  0  0  0  0  0  0  0
    8.1229  -17.5327   18.9475 N   0  0  0  0  0  0  0  0  0  0  0  0
    7.1986  -17.0746   21.0987 C   0  0  0  0  0  0  0  0  0  0  0  0
    6.5875  -17.3296   22.1678 O   0  0  0  0  0  0  0  0  0  0  0  0
    7.3827  -15.7078   20.7621 N   0  0  0  0  0  0  0  0  0  0  0  0
    6.9212  -14.6359   21.5908 C   0  0  0  0  0  0  0  0  0  0  0  0
    7.7106  -14.5484   22.8706 C   0  0  0  0  0  0  0  0  0  0  0  0
    8.9568  -14.6072   22.7788 O   0  0  0  0  0  0  0  0  0  0  0  0
    5.8196  -11.0107   26.3832 C   0  0  0  0  0  0  0  0  0  0  0  0
    6.6667  -11.9216   25.5576 C   0  0  0  0  0  0  0  0  0  0  0  0
    7.2035  -13.1393   26.2131 C   0  0  2  0  0  0  0  0  0  0  0  0
    8.0731  -12.7778   27.4088 C   0  0  0  0  0  0  0  0  0  0  0  0
    7.8527  -14.1277   25.3180 C   0  0  2  0  0  0  0  0  0  0  0  0
    7.0915  -14.4064   24.1241 N   0  0  0  0  0  0  0  0  0  0  0  0
    8.2663  -15.3283   26.0678 C   0  0  0  0  0  0  0  0  0  0  0  0
    9.4959  -15.4753   26.6630 O   0  0  0  0  0  0  0  0  0  0  0  0
    7.4545  -16.2814   26.1733 O   0  0  0  0  0  0  0  0  0  0  0  0
  2  1  1  6
  2  3  1  0
  4  2  1  0
  4  5  1  6
  6  4  1  0
  6  8  1  0
  7  6  2  0
  9  8  1  0
  9 10  1  0
 10 17  1  0
 11 10  2  0
 12 13  1  0
 14 13  1  0
 14 15  1  1
 16 14  1  0
 16 17  1  6
 18 19  1  0
 18 16  1  0
 20 18  2  0
M  END
$$$$
