VGI.pdb
     RDKit          3D

 20 19  0  0  1  0  0  0  0  0999 V2000
    7.8115  -12.7394   20.3080 C   0  0  0  0  0  0  0  0  0  0  0  0
    7.4508  -14.0193   19.5559 C   0  0  1  0  0  0  0  0  0  0  0  0
    7.9895  -13.9409   18.1500 C   0  0  0  0  0  0  0  0  0  0  0  0
    8.1323  -15.1592   20.2795 C   0  0  2  0  0  0  0  0  0  0  0  0
    7.9180  -16.4238   19.6495 N   0  0  0  0  0  0  0  0  0  0  0  0
    7.7724  -15.2241   21.7065 C   0  0  0  0  0  0  0  0  0  0  0  0
    7.9458  -14.2744   22.5125 O   0  0  0  0  0  0  0  0  0  0  0  0
    7.1968  -16.4170   22.2173 N   0  0  0  0  0  0  0  0  0  0  0  0
    6.7496  -16.5446   23.5711 C   0  0  0  0  0  0  0  0  0  0  0  0
    7.8420  -16.1978   24.5483 C   0  0  0  0  0  0  0  0  0  0  0  0
    9.0210  -16.4047   24.1850 O   0  0  0  0  0  0  0  0  0  0  0  0
    6.2622  -12.0566   27.4007 C   0  0  0  0  0  0  0  0  0  0  0  0
    7.1908  -12.9132   26.6051 C   0  0  0  0  0  0  0  0  0  0  0  0
    8.0866  -13.8297   27.3520 C   0  0  2  0  0  0  0  0  0  0  0  0
    9.2046  -13.0600   28.0408 C   0  0  0  0  0  0  0  0  0  0  0  0
    8.5878  -15.0059   26.6001 C   0  0  2  0  0  0  0  0  0  0  0  0
    7.5681  -15.6635   25.8188 N   0  0  0  0  0  0  0  0  0  0  0  0
    9.3545  -15.9079   27.4795 C   0  0  0  0  0  0  0  0  0  0  0  0
   10.6474  -15.6725   27.8803 O   0  0  0  0  0  0  0  0  0  0  0  0
    8.8031  -16.9591   27.8911 O   0  0  0  0  0  0  0  0  0  0  0  0
  2  1  1  1
  2  3  1  0
  4  2  1  0
  4  5  1  6
  6  4  1  0
  6  8  1  0
  7  6  2  0
  9  8  1  0
  9 10  1  0
 10 17  1  0
 11 10  2  0
 12 13  1  0
 14 13  1  0
 14 15  1  6
 16 14  1  0
 16 17  1  1
 18 19  1  0
 18 16  1  0
 20 18  2  0
M  END
$$$$
