VGI.pdb
     RDKit          3D

 20 19  0  0  1  0  0  0  0  0999 V2000
    7.7806  -12.4901   19.1952 C   0  0  0  0  0  0  0  0  0  0  0  0
    7.8684  -13.8223   18.4526 C   0  0  1  0  0  0  0  0  0  0  0  0
    8.7258  -13.6535   17.2240 C   0  0  0  0  0  0  0  0  0  0  0  0
    8.5404  -14.8019   19.3887 C   0  0  2  0  0  0  0  0  0  0  0  0
    8.6067  -16.1252   18.8534 N   0  0  0  0  0  0  0  0  0  0  0  0
    7.9322  -14.8160   20.7304 C   0  0  0  0  0  0  0  0  0  0  0  0
    7.8747  -13.8078   21.4798 O   0  0  0  0  0  0  0  0  0  0  0  0
    7.3754  -16.0263   21.2206 N   0  0  0  0  0  0  0  0  0  0  0  0
    6.7228  -16.1214   22.4910 C   0  0  0  0  0  0  0  0  0  0  0  0
    7.6313  -15.6893   23.6120 C   0  0  0  0  0  0  0  0  0  0  0  0
    8.8520  -15.9313   23.4842 O   0  0  0  0  0  0  0  0  0  0  0  0
    5.6353  -11.7394   26.9470 C   0  0  0  0  0  0  0  0  0  0  0  0
    6.4605  -12.5992   26.0476 C   0  0  0  0  0  0  0  0  0  0  0  0
    7.4013  -13.5526   26.6850 C   0  0  2  0  0  0  0  0  0  0  0  0
    8.4156  -12.8214   27.5530 C   0  0  0  0  0  0  0  0  0  0  0  0
    8.0370  -14.5420   25.7813 C   0  0  2  0  0  0  0  0  0  0  0  0
    7.1470  -15.0406   24.7606 N   0  0  0  0  0  0  0  0  0  0  0  0
    8.7273  -15.5937   26.5508 C   0  0  0  0  0  0  0  0  0  0  0  0
   10.0273  -15.4985   26.9852 O   0  0  0  0  0  0  0  0  0  0  0  0
    8.0994  -16.6456   26.8298 O   0  0  0  0  0  0  0  0  0  0  0  0
  2  1  1  1
  2  3  1  0
  4  2  1  0
  4  5  1  6
  6  4  1  0
  6  8  1  0
  7  6  2  0
  9  8  1  0
  9 10  1  0
 10 17  1  0
 11 10  2  0
 12 13  1  0
 14 13  1  0
 14 15  1  6
 16 14  1  0
 16 17  1  1
 18 19  1  0
 18 16  1  0
 20 18  2  0
M  END
$$$$
