VGI.pdb
     RDKit          3D

 20 19  0  0  1  0  0  0  0  0999 V2000
    8.9217  -19.0198   19.0112 C   0  0  0  0  0  0  0  0  0  0  0  0
    7.5648  -19.1781   19.6950 C   0  0  1  0  0  0  0  0  0  0  0  0
    7.2047  -20.6409   19.7571 C   0  0  0  0  0  0  0  0  0  0  0  0
    7.7204  -18.6511   21.1040 C   0  0  2  0  0  0  0  0  0  0  0  0
    6.5650  -18.8797   21.9131 N   0  0  0  0  0  0  0  0  0  0  0  0
    8.1052  -17.2295   21.1409 C   0  0  0  0  0  0  0  0  0  0  0  0
    9.2203  -16.7993   20.7498 O   0  0  0  0  0  0  0  0  0  0  0  0
    7.1782  -16.2787   21.6427 N   0  0  0  0  0  0  0  0  0  0  0  0
    7.4516  -14.8742   21.6810 C   0  0  0  0  0  0  0  0  0  0  0  0
    8.1912  -14.4898   22.9356 C   0  0  0  0  0  0  0  0  0  0  0  0
    9.3426  -14.0200   22.7994 O   0  0  0  0  0  0  0  0  0  0  0  0
    5.6308  -11.6110   26.3913 C   0  0  0  0  0  0  0  0  0  0  0  0
    6.7078  -12.2831   25.6057 C   0  0  0  0  0  0  0  0  0  0  0  0
    7.4866  -13.3485   26.2830 C   0  0  2  0  0  0  0  0  0  0  0  0
    8.2727  -12.7868   27.4591 C   0  0  0  0  0  0  0  0  0  0  0  0
    8.3174  -14.2063   25.4035 C   0  0  2  0  0  0  0  0  0  0  0  0
    7.6283  -14.6449   24.2138 N   0  0  0  0  0  0  0  0  0  0  0  0
    8.9527  -15.2929   26.1720 C   0  0  0  0  0  0  0  0  0  0  0  0
   10.1709  -15.1797   26.7972 O   0  0  0  0  0  0  0  0  0  0  0  0
    8.3542  -16.3936   26.2654 O   0  0  0  0  0  0  0  0  0  0  0  0
  2  1  1  6
  2  3  1  0
  4  2  1  0
  4  5  1  1
  6  4  1  0
  6  8  1  0
  7  6  2  0
  9  8  1  0
  9 10  1  0
 10 17  1  0
 11 10  2  0
 12 13  1  0
 14 13  1  0
 14 15  1  1
 16 14  1  0
 16 17  1  6
 18 19  1  0
 18 16  1  0
 20 18  2  0
M  END
$$$$
