VGI.pdb
     RDKit          3D

 20 19  0  0  1  0  0  0  0  0999 V2000
    8.6989  -12.8597   20.1758 C   0  0  0  0  0  0  0  0  0  0  0  0
    7.8669  -13.5231   19.0795 C   0  0  1  0  0  0  0  0  0  0  0  0
    8.4148  -13.1311   17.7307 C   0  0  0  0  0  0  0  0  0  0  0  0
    8.0214  -15.0172   19.2564 C   0  0  2  0  0  0  0  0  0  0  0  0
    7.5248  -15.7623   18.1427 N   0  0  0  0  0  0  0  0  0  0  0  0
    7.4277  -15.5063   20.5127 C   0  0  0  0  0  0  0  0  0  0  0  0
    6.1892  -15.5516   20.7266 O   0  0  0  0  0  0  0  0  0  0  0  0
    8.2862  -15.9553   21.5503 N   0  0  0  0  0  0  0  0  0  0  0  0
    7.8061  -16.3370   22.8436 C   0  0  0  0  0  0  0  0  0  0  0  0
    8.4237  -15.4980   23.9315 C   0  0  0  0  0  0  0  0  0  0  0  0
    9.5707  -15.0447   23.7222 O   0  0  0  0  0  0  0  0  0  0  0  0
    5.5343  -11.9237   26.7261 C   0  0  0  0  0  0  0  0  0  0  0  0
    6.5901  -12.7367   26.0528 C   0  0  0  0  0  0  0  0  0  0  0  0
    7.4672  -13.5680   26.9129 C   0  0  2  0  0  0  0  0  0  0  0  0
    8.1816  -12.7147   27.9513 C   0  0  0  0  0  0  0  0  0  0  0  0
    8.3889  -14.4894   26.2048 C   0  0  2  0  0  0  0  0  0  0  0  0
    7.7553  -15.2250   25.1370 N   0  0  0  0  0  0  0  0  0  0  0  0
    9.1346  -15.3290   27.1607 C   0  0  0  0  0  0  0  0  0  0  0  0
    8.9483  -16.6831   27.3003 O   0  0  0  0  0  0  0  0  0  0  0  0
    9.9928  -14.7836   27.8986 O   0  0  0  0  0  0  0  0  0  0  0  0
  2  1  1  1
  2  3  1  0
  4  2  1  0
  4  5  1  6
  6  4  1  0
  6  8  1  0
  7  6  2  0
  9  8  1  0
  9 10  1  0
 10 17  1  0
 11 10  2  0
 12 13  1  0
 14 13  1  0
 14 15  1  6
 16 14  1  0
 16 17  1  6
 18 19  1  0
 18 16  1  0
 20 18  2  0
M  END
$$$$
