VGI.pdb
     RDKit          3D

 20 19  0  0  1  0  0  0  0  0999 V2000
    7.4310  -12.7026   19.6736 C   0  0  0  0  0  0  0  0  0  0  0  0
    7.6157  -13.6412   18.4824 C   0  0  1  0  0  0  0  0  0  0  0  0
    8.3537  -12.9165   17.3854 C   0  0  0  0  0  0  0  0  0  0  0  0
    8.4638  -14.7973   18.9634 C   0  0  2  0  0  0  0  0  0  0  0  0
    8.8472  -15.6813   17.9081 N   0  0  0  0  0  0  0  0  0  0  0  0
    7.8331  -15.5472   20.0635 C   0  0  0  0  0  0  0  0  0  0  0  0
    7.5348  -16.7669   19.9938 O   0  0  0  0  0  0  0  0  0  0  0  0
    7.5388  -14.8714   21.2767 N   0  0  0  0  0  0  0  0  0  0  0  0
    6.9084  -15.5142   22.3895 C   0  0  0  0  0  0  0  0  0  0  0  0
    7.7426  -15.3995   23.6384 C   0  0  0  0  0  0  0  0  0  0  0  0
    8.9838  -15.3415   23.4935 O   0  0  0  0  0  0  0  0  0  0  0  0
    5.8996  -11.6333   26.6096 C   0  0  0  0  0  0  0  0  0  0  0  0
    6.6256  -12.7444   25.9260 C   0  0  0  0  0  0  0  0  0  0  0  0
    7.2642  -13.7740   26.7818 C   0  0  2  0  0  0  0  0  0  0  0  0
    8.1800  -13.1340   27.8155 C   0  0  0  0  0  0  0  0  0  0  0  0
    7.9138  -14.9009   26.0691 C   0  0  2  0  0  0  0  0  0  0  0  0
    7.1692  -15.3581   24.9206 N   0  0  0  0  0  0  0  0  0  0  0  0
    8.2963  -15.9707   27.0093 C   0  0  0  0  0  0  0  0  0  0  0  0
    9.4961  -16.0123   27.6774 O   0  0  0  0  0  0  0  0  0  0  0  0
    7.4849  -16.9070   27.2179 O   0  0  0  0  0  0  0  0  0  0  0  0
  2  1  1  1
  2  3  1  0
  4  2  1  0
  4  5  1  6
  6  4  1  0
  6  8  1  0
  7  6  2  0
  9  8  1  0
  9 10  1  0
 10 17  1  0
 11 10  2  0
 12 13  1  0
 14 13  1  0
 14 15  1  6
 16 14  1  0
 16 17  1  6
 18 19  1  0
 18 16  1  0
 20 18  2  0
M  END
$$$$
