VGI.pdb
     RDKit          3D

 20 19  0  0  1  0  0  0  0  0999 V2000
    7.7035  -12.5778   19.4826 C   0  0  0  0  0  0  0  0  0  0  0  0
    7.6487  -13.9034   18.7251 C   0  0  1  0  0  0  0  0  0  0  0  0
    8.3477  -13.7493   17.3981 C   0  0  0  0  0  0  0  0  0  0  0  0
    8.3994  -14.9163   19.5603 C   0  0  2  0  0  0  0  0  0  0  0  0
    8.4103  -16.2199   18.9748 N   0  0  0  0  0  0  0  0  0  0  0  0
    7.9170  -14.9774   20.9509 C   0  0  0  0  0  0  0  0  0  0  0  0
    7.9914  -14.0149   21.7568 O   0  0  0  0  0  0  0  0  0  0  0  0
    7.3332  -16.1816   21.4243 N   0  0  0  0  0  0  0  0  0  0  0  0
    6.7721  -16.3088   22.7350 C   0  0  0  0  0  0  0  0  0  0  0  0
    7.7346  -15.8414   23.7951 C   0  0  0  0  0  0  0  0  0  0  0  0
    8.9557  -15.9377   23.5412 O   0  0  0  0  0  0  0  0  0  0  0  0
    6.0224  -11.9056   27.6780 C   0  0  0  0  0  0  0  0  0  0  0  0
    6.4375  -13.2134   27.0893 C   0  0  0  0  0  0  0  0  0  0  0  0
    7.6574  -13.2284   26.2455 C   0  0  2  0  0  0  0  0  0  0  0  0
    7.4952  -12.3209   25.0344 C   0  0  0  0  0  0  0  0  0  0  0  0
    8.1823  -14.5677   25.8842 C   0  0  2  0  0  0  0  0  0  0  0  0
    7.2984  -15.3165   25.0235 N   0  0  0  0  0  0  0  0  0  0  0  0
    8.6275  -15.3020   27.0830 C   0  0  0  0  0  0  0  0  0  0  0  0
    9.6433  -14.8814   27.9071 O   0  0  0  0  0  0  0  0  0  0  0  0
    8.0523  -16.3796   27.3770 O   0  0  0  0  0  0  0  0  0  0  0  0
  2  1  1  1
  2  3  1  0
  4  2  1  0
  4  5  1  6
  6  4  1  0
  6  8  1  0
  7  6  2  0
  9  8  1  0
  9 10  1  0
 10 17  1  0
 11 10  2  0
 12 13  1  0
 14 13  1  0
 14 15  1  6
 16 14  1  0
 16 17  1  1
 18 19  1  0
 18 16  1  0
 20 18  2  0
M  END
$$$$
