VMT.pdb
     RDKit          3D

 23 22  0  0  1  0  0  0  0  0999 V2000
   20.1365  -19.5305  -18.3612 C   0  0  0  0  0  0  0  0  0  0  0  0
   19.5408  -19.4786  -16.9773 C   0  0  2  0  0  0  0  0  0  0  0  0
   18.4895  -20.5765  -16.8976 C   0  0  0  0  0  0  0  0  0  0  0  0
   18.8392  -18.1796  -16.7052 C   0  0  2  0  0  0  0  0  0  0  0  0
   17.6934  -18.0972  -17.5790 N   0  0  0  0  0  0  0  0  0  0  0  0
   19.7162  -16.9950  -16.8945 C   0  0  0  0  0  0  0  0  0  0  0  0
   20.7217  -16.7783  -16.1508 O   0  0  0  0  0  0  0  0  0  0  0  0
   21.3531  -13.9208  -22.5857 C   0  0  0  0  0  0  0  0  0  0  0  0
   22.6824  -13.8924  -21.3487 S   0  0  0  0  0  0  0  0  0  0  0  0
   21.9065  -13.8365  -19.7186 C   0  0  0  0  0  0  0  0  0  0  0  0
   20.8835  -14.9508  -19.6200 C   0  0  0  0  0  0  0  0  0  0  0  0
   20.3115  -14.9179  -18.2147 C   0  0  2  0  0  0  0  0  0  0  0  0
   19.4776  -16.0393  -17.9187 N   0  0  0  0  0  0  0  0  0  0  0  0
   19.6258  -13.6104  -18.0607 C   0  0  0  0  0  0  0  0  0  0  0  0
   18.5025  -13.4980  -18.6264 O   0  0  0  0  0  0  0  0  0  0  0  0
   20.1488  -11.0996  -14.8490 C   0  0  0  0  0  0  0  0  0  0  0  0
   18.9352  -11.0935  -15.7512 C   0  0  1  0  0  0  0  0  0  0  0  0
   18.1974   -9.9545  -15.5424 O   0  0  0  0  0  0  0  0  0  0  0  0
   19.3033  -11.3242  -17.1991 C   0  0  2  0  0  0  0  0  0  0  0  0
   20.1344  -12.5196  -17.3444 N   0  0  0  0  0  0  0  0  0  0  0  0
   19.9963  -10.1392  -17.7343 C   0  0  0  0  0  0  0  0  0  0  0  0
   19.3204   -8.9514  -17.8869 O   0  0  0  0  0  0  0  0  0  0  0  0
   21.1980  -10.2117  -18.0499 O   0  0  0  0  0  0  0  0  0  0  0  0
  2  1  1  6
  2  4  1  0
  2  3  1  0
  4  6  1  0
  4  5  1  6
  6 13  1  0
  6  7  2  0
  8  9  1  0
 10  9  1  0
 11 10  1  0
 12 14  1  0
 12 11  1  6
 13 12  1  0
 14 15  2  0
 17 16  1  1
 17 18  1  0
 17 19  1  0
 19 20  1  1
 20 14  1  0
 21 19  1  0
 22 21  1  0
 23 21  2  0
M  END
$$$$
