VMT.pdb
     RDKit          3D

 23 22  0  0  1  0  0  0  0  0999 V2000
   21.2564   -8.6719  -21.8172 C   0  0  0  0  0  0  0  0  0  0  0  0
   22.6743   -8.7681  -21.3144 C   0  0  2  0  0  0  0  0  0  0  0  0
   23.5621   -9.0455  -22.5194 C   0  0  0  0  0  0  0  0  0  0  0  0
   22.8654   -9.9090  -20.3576 C   0  0  2  0  0  0  0  0  0  0  0  0
   22.5768  -11.1364  -21.0599 N   0  0  0  0  0  0  0  0  0  0  0  0
   22.0141   -9.7986  -19.1446 C   0  0  0  0  0  0  0  0  0  0  0  0
   20.9541  -10.4824  -19.0037 O   0  0  0  0  0  0  0  0  0  0  0  0
   23.2988  -10.6808  -13.0757 C   0  0  0  0  0  0  0  0  0  0  0  0
   22.3865   -9.1183  -12.9211 S   0  0  0  0  0  0  0  0  0  0  0  0
   21.4450   -8.8857  -14.4449 C   0  0  0  0  0  0  0  0  0  0  0  0
   22.4057   -8.8386  -15.6166 C   0  0  0  0  0  0  0  0  0  0  0  0
   21.5728   -8.7504  -16.8822 C   0  0  2  0  0  0  0  0  0  0  0  0
   22.3397   -8.9213  -18.0752 N   0  0  0  0  0  0  0  0  0  0  0  0
   20.8413   -7.4600  -16.8258 C   0  0  0  0  0  0  0  0  0  0  0  0
   21.5113   -6.4249  -17.0985 O   0  0  0  0  0  0  0  0  0  0  0  0
   16.7089   -4.7460  -16.7637 C   0  0  0  0  0  0  0  0  0  0  0  0
   17.3838   -6.0989  -16.7992 C   0  0  1  0  0  0  0  0  0  0  0  0
   17.0403   -6.7678  -17.9480 O   0  0  0  0  0  0  0  0  0  0  0  0
   18.8755   -5.9949  -16.5774 C   0  0  2  0  0  0  0  0  0  0  0  0
   19.4870   -7.3216  -16.4968 N   0  0  0  0  0  0  0  0  0  0  0  0
   19.1467   -5.2206  -15.3535 C   0  0  0  0  0  0  0  0  0  0  0  0
   19.4224   -3.8757  -15.4312 O   0  0  0  0  0  0  0  0  0  0  0  0
   19.1266   -5.7844  -14.2441 O   0  0  0  0  0  0  0  0  0  0  0  0
  2  1  1  6
  2  4  1  0
  2  3  1  0
  4  6  1  0
  4  5  1  6
  6 13  1  0
  6  7  2  0
  8  9  1  0
 10  9  1  0
 11 10  1  0
 12 14  1  0
 12 11  1  1
 13 12  1  0
 14 15  2  0
 17 16  1  6
 17 18  1  0
 17 19  1  0
 19 20  1  1
 20 14  1  0
 21 19  1  0
 22 21  1  0
 23 21  2  0
M  END
$$$$
