VMT.pdb
     RDKit          3D

 23 22  0  0  1  0  0  0  0  0999 V2000
   26.2966  -20.4131   -8.4173 C   0  0  0  0  0  0  0  0  0  0  0  0
   25.6001  -20.1746   -9.7328 C   0  0  2  0  0  0  0  0  0  0  0  0
   24.1523  -20.6127   -9.5623 C   0  0  0  0  0  0  0  0  0  0  0  0
   26.1796  -21.0003  -10.8445 C   0  0  2  0  0  0  0  0  0  0  0  0
   27.6085  -20.7973  -10.8561 N   0  0  0  0  0  0  0  0  0  0  0  0
   25.6030  -20.6710  -12.1739 C   0  0  0  0  0  0  0  0  0  0  0  0
   25.8753  -19.5861  -12.7739 O   0  0  0  0  0  0  0  0  0  0  0  0
   25.4939  -25.4480  -15.7482 C   0  0  0  0  0  0  0  0  0  0  0  0
   26.3207  -23.9806  -16.4269 S   0  0  0  0  0  0  0  0  0  0  0  0
   25.9565  -22.5944  -15.3276 C   0  0  0  0  0  0  0  0  0  0  0  0
   24.4606  -22.5322  -15.0902 C   0  0  0  0  0  0  0  0  0  0  0  0
   24.1971  -21.3591  -14.1643 C   0  0  2  0  0  0  0  0  0  0  0  0
   24.7148  -21.5526  -12.8471 N   0  0  0  0  0  0  0  0  0  0  0  0
   22.7346  -21.1065  -14.1968 C   0  0  0  0  0  0  0  0  0  0  0  0
   22.0266  -21.8210  -13.4333 O   0  0  0  0  0  0  0  0  0  0  0  0
   21.0113  -17.6587  -15.9090 C   0  0  0  0  0  0  0  0  0  0  0  0
   20.4139  -18.3951  -14.7310 C   0  0  1  0  0  0  0  0  0  0  0  0
   19.0844  -18.0776  -14.6008 O   0  0  0  0  0  0  0  0  0  0  0  0
   20.6820  -19.8814  -14.7957 C   0  0  2  0  0  0  0  0  0  0  0  0
   22.1057  -20.1485  -15.0019 N   0  0  0  0  0  0  0  0  0  0  0  0
   19.8767  -20.4889  -15.8697 C   0  0  0  0  0  0  0  0  0  0  0  0
   18.5089  -20.5661  -15.7510 O   0  0  0  0  0  0  0  0  0  0  0  0
   20.4349  -20.9345  -16.8889 O   0  0  0  0  0  0  0  0  0  0  0  0
  2  1  1  1
  2  4  1  0
  2  3  1  0
  4  6  1  0
  4  5  1  6
  6 13  1  0
  6  7  2  0
  8  9  1  0
 10  9  1  0
 11 10  1  0
 12 14  1  0
 12 11  1  6
 13 12  1  0
 14 15  2  0
 17 16  1  6
 17 18  1  0
 17 19  1  0
 19 20  1  6
 20 14  1  0
 21 19  1  0
 22 21  1  0
 23 21  2  0
M  END
$$$$
