VMT.pdb
     RDKit          3D

 23 22  0  0  1  0  0  0  0  0999 V2000
   31.2229  -20.6035  -13.2223 C   0  0  0  0  0  0  0  0  0  0  0  0
   29.8956  -20.8387  -12.5473 C   0  0  2  0  0  0  0  0  0  0  0  0
   29.0652  -19.5765  -12.7334 C   0  0  0  0  0  0  0  0  0  0  0  0
   30.0367  -21.0562  -11.0687 C   0  0  2  0  0  0  0  0  0  0  0  0
   30.9431  -22.1602  -10.8622 N   0  0  0  0  0  0  0  0  0  0  0  0
   28.7396  -21.3232  -10.3945 C   0  0  0  0  0  0  0  0  0  0  0  0
   28.1091  -22.4125  -10.5591 O   0  0  0  0  0  0  0  0  0  0  0  0
   28.5072  -19.9025   -3.8912 C   0  0  0  0  0  0  0  0  0  0  0  0
   27.3962  -19.1993   -5.1438 S   0  0  0  0  0  0  0  0  0  0  0  0
   27.5431  -20.2136   -6.6312 C   0  0  0  0  0  0  0  0  0  0  0  0
   26.6457  -19.6406   -7.7102 C   0  0  0  0  0  0  0  0  0  0  0  0
   26.8311  -20.4916   -8.9531 C   0  0  2  0  0  0  0  0  0  0  0  0
   28.1333  -20.3738   -9.5283 N   0  0  0  0  0  0  0  0  0  0  0  0
   25.7344  -20.1326   -9.8868 C   0  0  0  0  0  0  0  0  0  0  0  0
   25.7942  -18.9821  -10.4038 O   0  0  0  0  0  0  0  0  0  0  0  0
   23.0782  -21.2435  -13.6631 C   0  0  0  0  0  0  0  0  0  0  0  0
   24.0280  -21.5325  -12.5223 C   0  0  1  0  0  0  0  0  0  0  0  0
   25.3225  -21.5523  -12.9794 O   0  0  0  0  0  0  0  0  0  0  0  0
   23.8091  -20.6013  -11.3519 C   0  0  2  0  0  0  0  0  0  0  0  0
   24.6629  -20.9698  -10.2223 N   0  0  0  0  0  0  0  0  0  0  0  0
   22.3891  -20.6166  -10.9589 C   0  0  0  0  0  0  0  0  0  0  0  0
   21.4218  -20.1935  -11.8398 O   0  0  0  0  0  0  0  0  0  0  0  0
   22.0621  -21.0137   -9.8255 O   0  0  0  0  0  0  0  0  0  0  0  0
  2  1  1  1
  2  4  1  0
  2  3  1  0
  4  6  1  0
  4  5  1  6
  6 13  1  0
  6  7  2  0
  8  9  1  0
 10  9  1  0
 11 10  1  0
 12 14  1  0
 12 11  1  1
 13 12  1  0
 14 15  2  0
 17 16  1  6
 17 18  1  0
 17 19  1  0
 19 20  1  1
 20 14  1  0
 21 19  1  0
 22 21  1  0
 23 21  2  0
M  END
$$$$
