VMT.pdb
     RDKit          3D

 23 22  0  0  1  0  0  0  0  0999 V2000
   19.9794  -16.0479  -16.8773 C   0  0  0  0  0  0  0  0  0  0  0  0
   18.6060  -15.4438  -17.0241 C   0  0  2  0  0  0  0  0  0  0  0  0
   17.8584  -16.2705  -18.0608 C   0  0  0  0  0  0  0  0  0  0  0  0
   18.6533  -14.0344  -17.5389 C   0  0  2  0  0  0  0  0  0  0  0  0
   19.1555  -14.0677  -18.8916 N   0  0  0  0  0  0  0  0  0  0  0  0
   19.4919  -13.1380  -16.7013 C   0  0  0  0  0  0  0  0  0  0  0  0
   19.2210  -12.9106  -15.4823 O   0  0  0  0  0  0  0  0  0  0  0  0
   26.5886  -10.7210  -14.8746 C   0  0  0  0  0  0  0  0  0  0  0  0
   25.6067  -11.5612  -16.1504 S   0  0  0  0  0  0  0  0  0  0  0  0
   23.8677  -11.1962  -15.8258 C   0  0  0  0  0  0  0  0  0  0  0  0
   23.0112  -11.9366  -16.8338 C   0  0  0  0  0  0  0  0  0  0  0  0
   21.5604  -11.6979  -16.4579 C   0  0  2  0  0  0  0  0  0  0  0  0
   20.6435  -12.4859  -17.2188 N   0  0  0  0  0  0  0  0  0  0  0  0
   21.3228  -10.2369  -16.5691 C   0  0  0  0  0  0  0  0  0  0  0  0
   21.4785   -9.7306  -17.7154 O   0  0  0  0  0  0  0  0  0  0  0  0
   18.3793   -8.1395  -16.6125 C   0  0  0  0  0  0  0  0  0  0  0  0
   19.2933   -7.5939  -15.5384 C   0  0  1  0  0  0  0  0  0  0  0  0
   18.8208   -7.9392  -14.2963 O   0  0  0  0  0  0  0  0  0  0  0  0
   20.7361   -7.9805  -15.7708 C   0  0  2  0  0  0  0  0  0  0  0  0
   20.9458   -9.4044  -15.5077 N   0  0  0  0  0  0  0  0  0  0  0  0
   21.6172   -7.1584  -14.9231 C   0  0  0  0  0  0  0  0  0  0  0  0
   21.7063   -5.8014  -15.1274 O   0  0  0  0  0  0  0  0  0  0  0  0
   22.2843   -7.6924  -14.0182 O   0  0  0  0  0  0  0  0  0  0  0  0
  2  1  1  6
  2  4  1  0
  2  3  1  0
  4  6  1  0
  4  5  1  6
  6 13  1  0
  6  7  2  0
  8  9  1  0
 10  9  1  0
 11 10  1  0
 12 14  1  0
 12 11  1  6
 13 12  1  0
 14 15  2  0
 17 16  1  6
 17 18  1  0
 17 19  1  0
 19 20  1  1
 20 14  1  0
 21 19  1  0
 22 21  1  0
 23 21  2  0
M  END
$$$$
