VMT.pdb
     RDKit          3D

 23 22  0  0  1  0  0  0  0  0999 V2000
   19.5754  -21.9298  -14.2939 C   0  0  0  0  0  0  0  0  0  0  0  0
   20.9725  -21.4018  -14.0890 C   0  0  2  0  0  0  0  0  0  0  0  0
   21.9316  -22.5591  -14.3302 C   0  0  0  0  0  0  0  0  0  0  0  0
   21.2038  -20.9268  -12.6839 C   0  0  2  0  0  0  0  0  0  0  0  0
   20.2354  -19.8968  -12.3935 N   0  0  0  0  0  0  0  0  0  0  0  0
   22.5811  -20.4142  -12.4634 C   0  0  0  0  0  0  0  0  0  0  0  0
   23.0108  -19.3716  -13.0461 O   0  0  0  0  0  0  0  0  0  0  0  0
   26.5841  -19.2375   -7.3186 C   0  0  0  0  0  0  0  0  0  0  0  0
   27.3638  -20.6011   -8.2298 S   0  0  0  0  0  0  0  0  0  0  0  0
   26.8079  -20.4964   -9.9452 C   0  0  0  0  0  0  0  0  0  0  0  0
   25.4135  -21.0818  -10.0491 C   0  0  0  0  0  0  0  0  0  0  0  0
   24.8670  -20.7111  -11.4155 C   0  0  2  0  0  0  0  0  0  0  0  0
   23.4933  -21.0629  -11.5880 N   0  0  0  0  0  0  0  0  0  0  0  0
   25.7690  -21.3275  -12.4205 C   0  0  0  0  0  0  0  0  0  0  0  0
   26.1163  -22.5218  -12.2023 O   0  0  0  0  0  0  0  0  0  0  0  0
   25.2881  -23.0156  -15.3411 C   0  0  0  0  0  0  0  0  0  0  0  0
   26.2349  -21.8924  -15.7004 C   0  0  1  0  0  0  0  0  0  0  0  0
   25.5476  -20.8732  -16.3120 O   0  0  0  0  0  0  0  0  0  0  0  0
   27.0608  -21.4456  -14.5158 C   0  0  2  0  0  0  0  0  0  0  0  0
   26.2479  -20.6830  -13.5680 N   0  0  0  0  0  0  0  0  0  0  0  0
   28.2088  -20.6466  -14.9789 C   0  0  0  0  0  0  0  0  0  0  0  0
   29.2151  -21.2367  -15.7069 O   0  0  0  0  0  0  0  0  0  0  0  0
   28.2698  -19.4327  -14.7109 O   0  0  0  0  0  0  0  0  0  0  0  0
  2  1  1  1
  2  4  1  0
  2  3  1  0
  4  6  1  0
  4  5  1  6
  6 13  1  0
  6  7  2  0
  8  9  1  0
 10  9  1  0
 11 10  1  0
 12 14  1  0
 12 11  1  1
 13 12  1  0
 14 15  2  0
 17 16  1  1
 17 18  1  0
 17 19  1  0
 19 20  1  1
 20 14  1  0
 21 19  1  0
 22 21  1  0
 23 21  2  0
M  END
$$$$
