VMT.pdb
     RDKit          3D

 23 22  0  0  1  0  0  0  0  0999 V2000
   18.8832  -12.2854  -18.8200 C   0  0  0  0  0  0  0  0  0  0  0  0
   18.1257  -11.1638  -19.4840 C   0  0  2  0  0  0  0  0  0  0  0  0
   17.9590  -11.5382  -20.9500 C   0  0  0  0  0  0  0  0  0  0  0  0
   18.8777   -9.8651  -19.4463 C   0  0  2  0  0  0  0  0  0  0  0  0
   20.0348   -9.9919  -20.2995 N   0  0  0  0  0  0  0  0  0  0  0  0
   19.2916   -9.4733  -18.0738 C   0  0  0  0  0  0  0  0  0  0  0  0
   18.4468   -9.1382  -17.1877 O   0  0  0  0  0  0  0  0  0  0  0  0
   23.9400  -11.4807  -13.4544 C   0  0  0  0  0  0  0  0  0  0  0  0
   23.4114  -12.2225  -15.0254 S   0  0  0  0  0  0  0  0  0  0  0  0
   21.9633  -11.3074  -15.5983 C   0  0  0  0  0  0  0  0  0  0  0  0
   22.3877   -9.9056  -15.9890 C   0  0  0  0  0  0  0  0  0  0  0  0
   21.1325   -9.1410  -16.3674 C   0  0  2  0  0  0  0  0  0  0  0  0
   20.6560   -9.4520  -17.6776 N   0  0  0  0  0  0  0  0  0  0  0  0
   21.4315   -7.7004  -16.1702 C   0  0  0  0  0  0  0  0  0  0  0  0
   22.1456   -7.1512  -17.0551 O   0  0  0  0  0  0  0  0  0  0  0  0
   20.4623   -3.1960  -14.6786 C   0  0  0  0  0  0  0  0  0  0  0  0
   20.1172   -4.6397  -14.9675 C   0  0  1  0  0  0  0  0  0  0  0  0
   19.3191   -4.7204  -16.0818 O   0  0  0  0  0  0  0  0  0  0  0  0
   21.3480   -5.5149  -15.0347 C   0  0  2  0  0  0  0  0  0  0  0  0
   20.9820   -6.9304  -15.0901 N   0  0  0  0  0  0  0  0  0  0  0  0
   22.2171   -5.2461  -13.8757 C   0  0  0  0  0  0  0  0  0  0  0  0
   22.1351   -6.0329  -12.7509 O   0  0  0  0  0  0  0  0  0  0  0  0
   23.0292   -4.3037  -13.9131 O   0  0  0  0  0  0  0  0  0  0  0  0
  2  1  1  1
  2  4  1  0
  2  3  1  0
  4  6  1  0
  4  5  1  6
  6 13  1  0
  6  7  2  0
  8  9  1  0
 10  9  1  0
 11 10  1  0
 12 14  1  0
 12 11  1  6
 13 12  1  0
 14 15  2  0
 17 16  1  6
 17 18  1  0
 17 19  1  0
 19 20  1  1
 20 14  1  0
 21 19  1  0
 22 21  1  0
 23 21  2  0
M  END
$$$$
