YTS.pdb
     RDKit          3D

 26 26  0  0  1  0  0  0  0  0999 V2000
    5.3086  -10.6011   28.4486 O   0  0  0  0  0  0  0  0  0  0  0  0
    5.9974  -11.5075   27.6636 C   0  0  0  0  0  0  0  0  0  0  0  0
    7.1993  -12.0796   28.0501 C   0  0  0  0  0  0  0  0  0  0  0  0
    7.8690  -12.9803   27.2532 C   0  0  0  0  0  0  0  0  0  0  0  0
    7.3671  -13.3557   26.0234 C   0  0  0  0  0  0  0  0  0  0  0  0
    8.0593  -14.3146   25.1352 C   0  0  0  0  0  0  0  0  0  0  0  0
    7.1709  -15.4446   24.6744 C   0  0  2  0  0  0  0  0  0  0  0  0
    6.7899  -16.2918   25.7924 N   0  0  0  0  0  0  0  0  0  0  0  0
    7.7625  -16.2911   23.6315 C   0  0  0  0  0  0  0  0  0  0  0  0
    8.0757  -17.5128   23.8319 O   0  0  0  0  0  0  0  0  0  0  0  0
    6.1742  -12.7907   25.6346 C   0  0  0  0  0  0  0  0  0  0  0  0
    5.4921  -11.8757   26.4424 C   0  0  0  0  0  0  0  0  0  0  0  0
    6.6792  -15.5852   19.9679 C   0  0  0  0  0  0  0  0  0  0  0  0
    8.1026  -16.0992   19.9337 C   0  0  1  0  0  0  0  0  0  0  0  0
    8.8786  -14.9352   19.6897 O   0  0  0  0  0  0  0  0  0  0  0  0
    8.4500  -16.6747   21.2724 C   0  0  2  0  0  0  0  0  0  0  0  0
    8.0149  -15.7918   22.3495 N   0  0  0  0  0  0  0  0  0  0  0  0
    9.8884  -16.8717   21.4260 C   0  0  0  0  0  0  0  0  0  0  0  0
   10.5237  -16.0780   22.2220 O   0  0  0  0  0  0  0  0  0  0  0  0
   11.7298  -19.7963   22.3846 O   0  0  0  0  0  0  0  0  0  0  0  0
   12.4194  -18.5768   22.4065 C   0  0  0  0  0  0  0  0  0  0  0  0
   12.1321  -17.8945   21.0862 C   0  0  2  0  0  0  0  0  0  0  0  0
   10.7065  -17.8367   20.8119 N   0  0  0  0  0  0  0  0  0  0  0  0
   12.7696  -18.7027   20.0257 C   0  0  0  0  0  0  0  0  0  0  0  0
   12.0046  -19.2042   18.9906 O   0  0  0  0  0  0  0  0  0  0  0  0
   13.9976  -18.9614   20.0189 O   0  0  0  0  0  0  0  0  0  0  0  0
  2  1  1  0
  2  3  2  0
  4  3  1  0
  5  4  2  0
  6  5  1  0
  7  6  1  0
  7  9  1  0
  7  8  1  1
  9 10  2  0
  9 17  1  0
 11 12  2  0
 11  5  1  0
 12  2  1  0
 14 13  1  1
 14 15  1  0
 16 14  1  0
 16 17  1  1
 18 16  1  0
 18 19  2  0
 20 21  1  0
 22 21  1  1
 22 23  1  0
 23 18  1  0
 24 22  1  0
 25 24  1  0
 26 24  2  0
M  END
$$$$
