YTS.pdb
     RDKit          3D

 26 26  0  0  1  0  0  0  0  0999 V2000
    8.1970  -11.3499   18.2728 O   0  0  0  0  0  0  0  0  0  0  0  0
    8.3252  -12.4221   19.1367 C   0  0  0  0  0  0  0  0  0  0  0  0
    7.2383  -13.1212   19.6378 C   0  0  0  0  0  0  0  0  0  0  0  0
    7.3881  -14.1862   20.4969 C   0  0  0  0  0  0  0  0  0  0  0  0
    8.6393  -14.6073   20.8998 C   0  0  0  0  0  0  0  0  0  0  0  0
    8.8421  -15.7420   21.8265 C   0  0  0  0  0  0  0  0  0  0  0  0
    9.4963  -16.9340   21.1711 C   0  0  2  0  0  0  0  0  0  0  0  0
    8.7243  -17.3817   20.0236 N   0  0  0  0  0  0  0  0  0  0  0  0
    9.7020  -18.0783   22.0667 C   0  0  0  0  0  0  0  0  0  0  0  0
    8.8231  -18.9900   22.2320 O   0  0  0  0  0  0  0  0  0  0  0  0
    9.7220  -13.9167   20.4056 C   0  0  0  0  0  0  0  0  0  0  0  0
    9.5723  -12.8347   19.5327 C   0  0  0  0  0  0  0  0  0  0  0  0
   11.2357  -20.8782   21.5880 C   0  0  0  0  0  0  0  0  0  0  0  0
   12.0006  -20.3948   22.8015 C   0  0  1  0  0  0  0  0  0  0  0  0
   13.1195  -19.7161   22.2500 O   0  0  0  0  0  0  0  0  0  0  0  0
   11.1468  -19.4337   23.5704 C   0  0  2  0  0  0  0  0  0  0  0  0
   10.8885  -18.2265   22.7925 N   0  0  0  0  0  0  0  0  0  0  0  0
   11.7791  -19.0190   24.8192 C   0  0  0  0  0  0  0  0  0  0  0  0
   12.6465  -18.0641   24.7673 O   0  0  0  0  0  0  0  0  0  0  0  0
   10.9653  -20.6029   28.3082 O   0  0  0  0  0  0  0  0  0  0  0  0
   11.7356  -19.4603   28.5614 C   0  0  0  0  0  0  0  0  0  0  0  0
   12.3547  -19.0554   27.2407 C   0  0  2  0  0  0  0  0  0  0  0  0
   11.5686  -19.5272   26.1135 N   0  0  0  0  0  0  0  0  0  0  0  0
   13.6873  -19.6902   27.1667 C   0  0  0  0  0  0  0  0  0  0  0  0
   13.9819  -20.5501   26.1265 O   0  0  0  0  0  0  0  0  0  0  0  0
   14.5834  -19.4823   28.0203 O   0  0  0  0  0  0  0  0  0  0  0  0
  2  1  1  0
  2  3  2  0
  4  3  1  0
  5  4  2  0
  6  5  1  0
  7  6  1  0
  7  9  1  0
  7  8  1  6
  9 10  2  0
  9 17  1  0
 11 12  2  0
 11  5  1  0
 12  2  1  0
 14 13  1  6
 14 15  1  0
 16 14  1  0
 16 17  1  6
 18 16  1  0
 18 19  2  0
 20 21  1  0
 22 21  1  1
 22 23  1  0
 23 18  1  0
 24 22  1  0
 25 24  1  0
 26 24  2  0
M  END
$$$$
