YTS.pdb
     RDKit          3D

 26 26  0  0  1  0  0  0  0  0999 V2000
    5.7812  -10.5985   28.6926 O   0  0  0  0  0  0  0  0  0  0  0  0
    6.3687  -11.5252   27.8510 C   0  0  0  0  0  0  0  0  0  0  0  0
    7.5473  -12.1853   28.1613 C   0  0  0  0  0  0  0  0  0  0  0  0
    8.1157  -13.1048   27.3090 C   0  0  0  0  0  0  0  0  0  0  0  0
    7.5301  -13.4114   26.0972 C   0  0  0  0  0  0  0  0  0  0  0  0
    8.1125  -14.3876   25.1510 C   0  0  0  0  0  0  0  0  0  0  0  0
    7.1101  -15.3985   24.6492 C   0  0  2  0  0  0  0  0  0  0  0  0
    6.5718  -16.1827   25.7485 N   0  0  0  0  0  0  0  0  0  0  0  0
    7.6375  -16.3205   23.6365 C   0  0  0  0  0  0  0  0  0  0  0  0
    7.6165  -17.5890   23.7825 O   0  0  0  0  0  0  0  0  0  0  0  0
    6.3599  -12.7588   25.7839 C   0  0  0  0  0  0  0  0  0  0  0  0
    5.7807  -11.8246   26.6481 C   0  0  0  0  0  0  0  0  0  0  0  0
    6.8262  -15.6240   20.0707 C   0  0  0  0  0  0  0  0  0  0  0  0
    8.2320  -16.1842   20.0323 C   0  0  1  0  0  0  0  0  0  0  0  0
    9.0441  -15.0475   19.7773 O   0  0  0  0  0  0  0  0  0  0  0  0
    8.5676  -16.7629   21.3726 C   0  0  2  0  0  0  0  0  0  0  0  0
    8.1966  -15.8459   22.4454 N   0  0  0  0  0  0  0  0  0  0  0  0
    9.9954  -17.0356   21.5083 C   0  0  0  0  0  0  0  0  0  0  0  0
   10.6974  -16.2271   22.2297 O   0  0  0  0  0  0  0  0  0  0  0  0
   13.7901  -19.7393   22.0530 O   0  0  0  0  0  0  0  0  0  0  0  0
   12.4168  -19.6749   21.7823 C   0  0  0  0  0  0  0  0  0  0  0  0
   12.1416  -18.2750   21.2766 C   0  0  2  0  0  0  0  0  0  0  0  0
   10.7383  -18.0901   20.9483 N   0  0  0  0  0  0  0  0  0  0  0  0
   12.9288  -18.0916   20.0393 C   0  0  0  0  0  0  0  0  0  0  0  0
   14.3080  -18.1532   20.0871 O   0  0  0  0  0  0  0  0  0  0  0  0
   12.3950  -17.8780   18.9238 O   0  0  0  0  0  0  0  0  0  0  0  0
  2  1  1  0
  2  3  2  0
  4  3  1  0
  5  4  2  0
  6  5  1  0
  7  6  1  0
  7  9  1  0
  7  8  1  1
  9 10  2  0
  9 17  1  0
 11 12  2  0
 11  5  1  0
 12  2  1  0
 14 13  1  1
 14 15  1  0
 16 14  1  0
 16 17  1  1
 18 16  1  0
 18 19  2  0
 20 21  1  0
 22 21  1  6
 22 23  1  0
 23 18  1  0
 24 22  1  0
 25 24  1  0
 26 24  2  0
M  END
$$$$
