YTS.pdb
     RDKit          3D

 26 26  0  0  1  0  0  0  0  0999 V2000
    5.3808  -10.4606   28.1458 O   0  0  0  0  0  0  0  0  0  0  0  0
    6.0708  -11.3861   27.3845 C   0  0  0  0  0  0  0  0  0  0  0  0
    5.7711  -11.6437   26.0560 C   0  0  0  0  0  0  0  0  0  0  0  0
    6.4709  -12.5696   25.3157 C   0  0  0  0  0  0  0  0  0  0  0  0
    7.5110  -13.2877   25.8705 C   0  0  0  0  0  0  0  0  0  0  0  0
    8.2824  -14.2956   25.1112 C   0  0  0  0  0  0  0  0  0  0  0  0
    7.4210  -15.3957   24.5401 C   0  0  2  0  0  0  0  0  0  0  0  0
    6.7812  -16.1553   25.6015 N   0  0  0  0  0  0  0  0  0  0  0  0
    8.1379  -16.3323   23.6668 C   0  0  0  0  0  0  0  0  0  0  0  0
    8.4299  -17.5226   24.0260 O   0  0  0  0  0  0  0  0  0  0  0  0
    7.8128  -13.0361   27.1892 C   0  0  0  0  0  0  0  0  0  0  0  0
    7.1034  -12.0961   27.9431 C   0  0  0  0  0  0  0  0  0  0  0  0
    7.4452  -16.5463   19.9063 C   0  0  0  0  0  0  0  0  0  0  0  0
    8.9461  -16.6443   20.0769 C   0  0  1  0  0  0  0  0  0  0  0  0
    9.4167  -15.3614   19.6905 O   0  0  0  0  0  0  0  0  0  0  0  0
    9.2619  -16.8923   21.5201 C   0  0  2  0  0  0  0  0  0  0  0  0
    8.5412  -15.9598   22.3803 N   0  0  0  0  0  0  0  0  0  0  0  0
   10.6853  -16.7335   21.8032 C   0  0  0  0  0  0  0  0  0  0  0  0
   11.0189  -16.1146   22.8861 O   0  0  0  0  0  0  0  0  0  0  0  0
   12.9561  -18.6918   23.8098 O   0  0  0  0  0  0  0  0  0  0  0  0
   12.6272  -18.9759   22.4777 C   0  0  0  0  0  0  0  0  0  0  0  0
   12.9604  -17.7354   21.6767 C   0  0  2  0  0  0  0  0  0  0  0  0
   11.7804  -17.1759   21.0398 N   0  0  0  0  0  0  0  0  0  0  0  0
   13.9058  -18.1384   20.6146 C   0  0  0  0  0  0  0  0  0  0  0  0
   15.2136  -17.6955   20.6546 O   0  0  0  0  0  0  0  0  0  0  0  0
   13.5721  -18.8789   19.6579 O   0  0  0  0  0  0  0  0  0  0  0  0
  2  1  1  0
  2  3  2  0
  4  3  1  0
  5  4  2  0
  6  5  1  0
  7  6  1  0
  7  9  1  0
  7  8  1  1
  9 10  2  0
  9 17  1  0
 11 12  2  0
 11  5  1  0
 12  2  1  0
 14 13  1  1
 14 15  1  0
 16 14  1  0
 16 17  1  1
 18 16  1  0
 18 19  2  0
 20 21  1  0
 22 21  1  6
 22 23  1  0
 23 18  1  0
 24 22  1  0
 25 24  1  0
 26 24  2  0
M  END
$$$$
