YTS.pdb
     RDKit          3D

 26 26  0  0  1  0  0  0  0  0999 V2000
    5.4040  -10.5619   28.4755 O   0  0  0  0  0  0  0  0  0  0  0  0
    6.0740  -11.4827   27.6910 C   0  0  0  0  0  0  0  0  0  0  0  0
    7.0505  -12.3303   28.1903 C   0  0  0  0  0  0  0  0  0  0  0  0
    7.7056  -13.2403   27.3919 C   0  0  0  0  0  0  0  0  0  0  0  0
    7.4150  -13.3484   26.0468 C   0  0  0  0  0  0  0  0  0  0  0  0
    8.1008  -14.3079   25.1543 C   0  0  0  0  0  0  0  0  0  0  0  0
    7.1742  -15.3530   24.5821 C   0  0  2  0  0  0  0  0  0  0  0  0
    6.5925  -16.1631   25.6396 N   0  0  0  0  0  0  0  0  0  0  0  0
    7.8041  -16.2487   23.6049 C   0  0  0  0  0  0  0  0  0  0  0  0
    7.7317  -17.5208   23.6902 O   0  0  0  0  0  0  0  0  0  0  0  0
    6.4464  -12.5093   25.5457 C   0  0  0  0  0  0  0  0  0  0  0  0
    5.7796  -11.5842   26.3548 C   0  0  0  0  0  0  0  0  0  0  0  0
    6.6827  -16.2355   20.5139 C   0  0  0  0  0  0  0  0  0  0  0  0
    8.1564  -16.3056   20.1751 C   0  0  1  0  0  0  0  0  0  0  0  0
    8.4638  -14.9955   19.7216 O   0  0  0  0  0  0  0  0  0  0  0  0
    8.9330  -16.6122   21.4189 C   0  0  2  0  0  0  0  0  0  0  0  0
    8.5243  -15.7433   22.5175 N   0  0  0  0  0  0  0  0  0  0  0  0
   10.3681  -16.4249   21.2273 C   0  0  0  0  0  0  0  0  0  0  0  0
   10.9808  -15.6111   22.0207 O   0  0  0  0  0  0  0  0  0  0  0  0
   12.7823  -18.2549   22.8719 O   0  0  0  0  0  0  0  0  0  0  0  0
   12.3323  -18.7302   21.6330 C   0  0  0  0  0  0  0  0  0  0  0  0
   12.4905  -17.5902   20.6498 C   0  0  2  0  0  0  0  0  0  0  0  0
   11.2057  -17.0268   20.2714 N   0  0  0  0  0  0  0  0  0  0  0  0
   13.1236  -18.1427   19.4340 C   0  0  0  0  0  0  0  0  0  0  0  0
   14.3882  -17.7248   19.0674 O   0  0  0  0  0  0  0  0  0  0  0  0
   12.5571  -18.9906   18.7026 O   0  0  0  0  0  0  0  0  0  0  0  0
  2  1  1  0
  2  3  2  0
  4  3  1  0
  5  4  2  0
  6  5  1  0
  7  6  1  0
  7  9  1  0
  7  8  1  1
  9 10  2  0
  9 17  1  0
 11 12  2  0
 11  5  1  0
 12  2  1  0
 14 13  1  1
 14 15  1  0
 16 14  1  0
 16 17  1  1
 18 16  1  0
 18 19  2  0
 20 21  1  0
 22 21  1  1
 22 23  1  0
 23 18  1  0
 24 22  1  0
 25 24  1  0
 26 24  2  0
M  END
$$$$
