YTS.pdb
     RDKit          3D

 26 26  0  0  1  0  0  0  0  0999 V2000
    5.7021  -10.6381   28.5525 O   0  0  0  0  0  0  0  0  0  0  0  0
    6.2245  -11.5931   27.6996 C   0  0  0  0  0  0  0  0  0  0  0  0
    5.6776  -11.8752   26.4577 C   0  0  0  0  0  0  0  0  0  0  0  0
    6.2134  -12.8302   25.6235 C   0  0  0  0  0  0  0  0  0  0  0  0
    7.3291  -13.5544   25.9923 C   0  0  0  0  0  0  0  0  0  0  0  0
    7.9307  -14.5932   25.1282 C   0  0  0  0  0  0  0  0  0  0  0  0
    6.9123  -15.5409   24.5425 C   0  0  2  0  0  0  0  0  0  0  0  0
    6.3904  -16.4347   25.5631 N   0  0  0  0  0  0  0  0  0  0  0  0
    7.4140  -16.3528   23.4275 C   0  0  0  0  0  0  0  0  0  0  0  0
    7.3904  -17.6296   23.4403 O   0  0  0  0  0  0  0  0  0  0  0  0
    7.8762  -13.2786   27.2244 C   0  0  0  0  0  0  0  0  0  0  0  0
    7.3336  -12.3090   28.0732 C   0  0  0  0  0  0  0  0  0  0  0  0
    6.7720  -15.0009   19.9122 C   0  0  0  0  0  0  0  0  0  0  0  0
    8.0898  -15.7430   19.8481 C   0  0  1  0  0  0  0  0  0  0  0  0
    9.0611  -14.7079   19.8042 O   0  0  0  0  0  0  0  0  0  0  0  0
    8.2600  -16.5521   21.0973 C   0  0  2  0  0  0  0  0  0  0  0  0
    7.9498  -15.7572   22.2809 N   0  0  0  0  0  0  0  0  0  0  0  0
    9.6267  -17.0424   21.2489 C   0  0  0  0  0  0  0  0  0  0  0  0
   10.3960  -16.4328   22.0877 O   0  0  0  0  0  0  0  0  0  0  0  0
   10.9689  -20.4916   19.8307 O   0  0  0  0  0  0  0  0  0  0  0  0
   11.7629  -20.0264   20.8873 C   0  0  0  0  0  0  0  0  0  0  0  0
   11.6013  -18.5216   20.9190 C   0  0  2  0  0  0  0  0  0  0  0  0
   10.2435  -18.1216   20.5912 N   0  0  0  0  0  0  0  0  0  0  0  0
   12.5040  -17.9607   19.8920 C   0  0  0  0  0  0  0  0  0  0  0  0
   13.8617  -18.2049   19.9634 O   0  0  0  0  0  0  0  0  0  0  0  0
   12.0892  -17.2586   18.9381 O   0  0  0  0  0  0  0  0  0  0  0  0
  2  1  1  0
  2  3  2  0
  4  3  1  0
  5  4  2  0
  6  5  1  0
  7  6  1  0
  7  9  1  0
  7  8  1  1
  9 10  2  0
  9 17  1  0
 11 12  2  0
 11  5  1  0
 12  2  1  0
 14 13  1  1
 14 15  1  0
 16 14  1  0
 16 17  1  1
 18 16  1  0
 18 19  2  0
 20 21  1  0
 22 21  1  6
 22 23  1  0
 23 18  1  0
 24 22  1  0
 25 24  1  0
 26 24  2  0
M  END
$$$$
