YTS.pdb
     RDKit          3D

 26 26  0  0  1  0  0  0  0  0999 V2000
    7.4841  -25.3687   36.6136 O   0  0  0  0  0  0  0  0  0  0  0  0
    8.0970  -25.1196   35.3992 C   0  0  0  0  0  0  0  0  0  0  0  0
    7.5353  -24.3124   34.4225 C   0  0  0  0  0  0  0  0  0  0  0  0
    8.1624  -24.0772   33.2198 C   0  0  0  0  0  0  0  0  0  0  0  0
    9.3892  -24.6408   32.9329 C   0  0  0  0  0  0  0  0  0  0  0  0
   10.0920  -24.4185   31.6506 C   0  0  0  0  0  0  0  0  0  0  0  0
    9.3785  -25.0292   30.4690 C   0  0  2  0  0  0  0  0  0  0  0  0
    9.1744  -26.4546   30.6683 N   0  0  0  0  0  0  0  0  0  0  0  0
   10.0608  -24.8336   29.1844 C   0  0  0  0  0  0  0  0  0  0  0  0
   10.7802  -25.7387   28.6420 O   0  0  0  0  0  0  0  0  0  0  0  0
    9.9515  -25.4433   33.8990 C   0  0  0  0  0  0  0  0  0  0  0  0
    9.3164  -25.6835   35.1213 C   0  0  0  0  0  0  0  0  0  0  0  0
    8.6921  -24.7626   26.1125 C   0  0  0  0  0  0  0  0  0  0  0  0
    9.4351  -23.4437   26.1090 C   0  0  1  0  0  0  0  0  0  0  0  0
    8.4455  -22.4949   26.4793 O   0  0  0  0  0  0  0  0  0  0  0  0
   10.5168  -23.4859   27.1445 C   0  0  2  0  0  0  0  0  0  0  0  0
    9.9535  -23.6282   28.4830 N   0  0  0  0  0  0  0  0  0  0  0  0
   11.3253  -22.2702   27.1402 C   0  0  0  0  0  0  0  0  0  0  0  0
   11.1176  -21.4051   28.0758 O   0  0  0  0  0  0  0  0  0  0  0  0
   14.7411  -21.7152   27.5154 O   0  0  0  0  0  0  0  0  0  0  0  0
   13.9065  -20.5923   27.5920 C   0  0  0  0  0  0  0  0  0  0  0  0
   13.0241  -20.6255   26.3625 C   0  0  2  0  0  0  0  0  0  0  0  0
   12.3330  -21.8970   26.2331 N   0  0  0  0  0  0  0  0  0  0  0  0
   13.9030  -20.4606   25.1858 C   0  0  0  0  0  0  0  0  0  0  0  0
   14.6552  -19.3105   25.0459 O   0  0  0  0  0  0  0  0  0  0  0  0
   14.0018  -21.3324   24.2885 O   0  0  0  0  0  0  0  0  0  0  0  0
  2  1  1  0
  2  3  2  0
  4  3  1  0
  5  4  2  0
  6  5  1  0
  7  6  1  0
  7  9  1  0
  7  8  1  1
  9 10  2  0
  9 17  1  0
 11 12  2  0
 11  5  1  0
 12  2  1  0
 14 13  1  1
 14 15  1  0
 16 14  1  0
 16 17  1  1
 18 16  1  0
 18 19  2  0
 20 21  1  0
 22 21  1  1
 22 23  1  0
 23 18  1  0
 24 22  1  0
 25 24  1  0
 26 24  2  0
M  END
$$$$
