YTS.pdb
     RDKit          3D

 26 26  0  0  1  0  0  0  0  0999 V2000
    4.8574  -10.4078   28.1937 O   0  0  0  0  0  0  0  0  0  0  0  0
    5.6087  -11.2929   27.4423 C   0  0  0  0  0  0  0  0  0  0  0  0
    5.2657  -11.6679   26.1528 C   0  0  0  0  0  0  0  0  0  0  0  0
    6.0279  -12.5508   25.4218 C   0  0  0  0  0  0  0  0  0  0  0  0
    7.1774  -13.1057   25.9472 C   0  0  0  0  0  0  0  0  0  0  0  0
    8.0194  -14.0628   25.1971 C   0  0  0  0  0  0  0  0  0  0  0  0
    7.2383  -15.2240   24.6316 C   0  0  2  0  0  0  0  0  0  0  0  0
    6.6909  -16.0471   25.6973 N   0  0  0  0  0  0  0  0  0  0  0  0
    8.0083  -16.0869   23.7281 C   0  0  0  0  0  0  0  0  0  0  0  0
    8.3630  -17.2724   24.0441 O   0  0  0  0  0  0  0  0  0  0  0  0
    7.5226  -12.7371   27.2272 C   0  0  0  0  0  0  0  0  0  0  0  0
    6.7500  -11.8404   27.9715 C   0  0  0  0  0  0  0  0  0  0  0  0
    7.2133  -16.2919   20.0894 C   0  0  0  0  0  0  0  0  0  0  0  0
    8.7256  -16.3296   20.1436 C   0  0  1  0  0  0  0  0  0  0  0  0
    9.1148  -15.0478   19.6724 O   0  0  0  0  0  0  0  0  0  0  0  0
    9.1625  -16.5069   21.5654 C   0  0  2  0  0  0  0  0  0  0  0  0
    8.3959  -15.6448   22.4589 N   0  0  0  0  0  0  0  0  0  0  0  0
   10.5731  -16.1781   21.7488 C   0  0  0  0  0  0  0  0  0  0  0  0
   10.8611  -15.0599   22.3263 O   0  0  0  0  0  0  0  0  0  0  0  0
   13.7040  -17.9309   24.2413 O   0  0  0  0  0  0  0  0  0  0  0  0
   12.4994  -17.7362   23.5525 C   0  0  0  0  0  0  0  0  0  0  0  0
   12.8518  -17.0432   22.2537 C   0  0  2  0  0  0  0  0  0  0  0  0
   11.6995  -16.9328   21.3755 N   0  0  0  0  0  0  0  0  0  0  0  0
   13.8674  -17.8740   21.5735 C   0  0  0  0  0  0  0  0  0  0  0  0
   13.4954  -19.0639   20.9786 O   0  0  0  0  0  0  0  0  0  0  0  0
   15.0766  -17.5448   21.5082 O   0  0  0  0  0  0  0  0  0  0  0  0
  2  1  1  0
  2  3  2  0
  4  3  1  0
  5  4  2  0
  6  5  1  0
  7  6  1  0
  7  9  1  0
  7  8  1  1
  9 10  2  0
  9 17  1  0
 11 12  2  0
 11  5  1  0
 12  2  1  0
 14 13  1  1
 14 15  1  0
 16 14  1  0
 16 17  1  1
 18 16  1  0
 18 19  2  0
 20 21  1  0
 22 21  1  1
 22 23  1  0
 23 18  1  0
 24 22  1  0
 25 24  1  0
 26 24  2  0
M  END
$$$$
