AGE.pdb
     RDKit          3D

 19 18  0  0  1  0  0  0  0  0999 V2000
    6.7074  -14.2657   20.3627 C   0  0  0  0  0  0  0  0  0  0  0  0
    7.0675  -15.5550   21.0593 C   0  0  2  0  0  0  0  0  0  0  0  0
    6.1138  -15.9506   22.0521 N   0  0  0  0  0  0  0  0  0  0  0  0
    8.3973  -15.3481   21.7243 C   0  0  0  0  0  0  0  0  0  0  0  0
    9.4486  -15.2120   21.0288 O   0  0  0  0  0  0  0  0  0  0  0  0
    8.5358  -15.2968   23.1253 N   0  0  0  0  0  0  0  0  0  0  0  0
    9.7542  -14.8361   23.7215 C   0  0  0  0  0  0  0  0  0  0  0  0
   10.7449  -15.9631   23.8447 C   0  0  0  0  0  0  0  0  0  0  0  0
   10.3734  -17.1733   23.8180 O   0  0  0  0  0  0  0  0  0  0  0  0
   12.1291  -15.7215   23.9960 N   0  0  0  0  0  0  0  0  0  0  0  0
   13.1311  -16.7855   24.0528 C   0  0  1  0  0  0  0  0  0  0  0  0
   14.4118  -16.1851   23.5783 C   0  0  0  0  0  0  0  0  0  0  0  0
   15.6147  -17.0745   23.6873 C   0  0  0  0  0  0  0  0  0  0  0  0
   16.7822  -16.3300   23.1656 C   0  0  0  0  0  0  0  0  0  0  0  0
   17.9496  -16.6872   23.4419 O   0  0  0  0  0  0  0  0  0  0  0  0
   13.1840  -17.3073   25.4242 C   0  0  0  0  0  0  0  0  0  0  0  0
   12.8537  -16.5798   26.3832 O   0  0  0  0  0  0  0  0  0  0  0  0
   16.6108  -15.2215   22.3598 O   0  0  0  0  0  0  0  0  0  0  0  0
   13.5912  -18.5946   25.7091 O   0  0  0  0  0  0  0  0  0  0  0  0
  2  3  1  0
  2  1  1  1
  4  2  1  0
  5  4  2  0
  6  4  1  0
  7  6  1  0
  8 10  1  0
  8  7  1  0
  9  8  2  0
 11 16  1  0
 11 10  1  0
 11 12  1  1
 12 13  1  0
 13 14  1  0
 14 15  2  0
 14 18  1  0
 16 19  1  0
 17 16  2  0
M  END
$$$$
