AGE.pdb
     RDKit          3D

 19 18  0  0  1  0  0  0  0  0999 V2000
    5.9544  -14.2077   20.2714 C   0  0  0  0  0  0  0  0  0  0  0  0
    7.2012  -15.0574   20.3013 C   0  0  2  0  0  0  0  0  0  0  0  0
    7.3183  -15.8541   21.4859 N   0  0  0  0  0  0  0  0  0  0  0  0
    8.3779  -14.1283   20.2275 C   0  0  0  0  0  0  0  0  0  0  0  0
    8.8004  -13.5433   21.2700 O   0  0  0  0  0  0  0  0  0  0  0  0
    9.0542  -13.8685   19.0193 N   0  0  0  0  0  0  0  0  0  0  0  0
   10.1497  -12.9462   18.9802 C   0  0  0  0  0  0  0  0  0  0  0  0
   11.4316  -13.6266   19.3811 C   0  0  0  0  0  0  0  0  0  0  0  0
   12.5581  -13.0902   19.1656 O   0  0  0  0  0  0  0  0  0  0  0  0
   11.4349  -14.8906   20.0133 N   0  0  0  0  0  0  0  0  0  0  0  0
   12.6521  -15.5572   20.4750 C   0  0  1  0  0  0  0  0  0  0  0  0
   12.2399  -16.4708   21.5802 C   0  0  0  0  0  0  0  0  0  0  0  0
   11.9123  -15.7965   22.8794 C   0  0  0  0  0  0  0  0  0  0  0  0
   11.5476  -16.8441   23.8587 C   0  0  0  0  0  0  0  0  0  0  0  0
   11.1113  -17.9549   23.4810 O   0  0  0  0  0  0  0  0  0  0  0  0
   13.2757  -16.2385   19.3336 C   0  0  0  0  0  0  0  0  0  0  0  0
   12.5886  -16.5472   18.3382 O   0  0  0  0  0  0  0  0  0  0  0  0
   11.6804  -16.6205   25.2151 O   0  0  0  0  0  0  0  0  0  0  0  0
   14.6172  -16.5610   19.3091 O   0  0  0  0  0  0  0  0  0  0  0  0
  2  3  1  0
  2  1  1  1
  4  2  1  0
  5  4  2  0
  6  4  1  0
  7  6  1  0
  8 10  1  0
  8  7  1  0
  9  8  2  0
 11 16  1  0
 11 10  1  0
 11 12  1  1
 12 13  1  0
 13 14  1  0
 14 15  2  0
 14 18  1  0
 16 19  1  0
 17 16  2  0
M  END
$$$$
