AGE.pdb
     RDKit          3D

 19 18  0  0  1  0  0  0  0  0999 V2000
    7.5624  -12.2922   19.1832 C   0  0  0  0  0  0  0  0  0  0  0  0
    8.2796  -13.5843   19.4884 C   0  0  2  0  0  0  0  0  0  0  0  0
    7.7049  -14.7220   18.8350 N   0  0  0  0  0  0  0  0  0  0  0  0
    8.2095  -13.7952   20.9731 C   0  0  0  0  0  0  0  0  0  0  0  0
    8.8501  -13.0355   21.7604 O   0  0  0  0  0  0  0  0  0  0  0  0
    7.4431  -14.8275   21.5490 N   0  0  0  0  0  0  0  0  0  0  0  0
    7.3572  -14.9652   22.9723 C   0  0  0  0  0  0  0  0  0  0  0  0
    8.3222  -16.0110   23.4641 C   0  0  0  0  0  0  0  0  0  0  0  0
    7.9160  -17.1152   23.9319 O   0  0  0  0  0  0  0  0  0  0  0  0
    9.7202  -15.8073   23.4263 N   0  0  0  0  0  0  0  0  0  0  0  0
   10.6948  -16.8430   23.7681 C   0  0  1  0  0  0  0  0  0  0  0  0
   12.0262  -16.3306   23.3315 C   0  0  0  0  0  0  0  0  0  0  0  0
   13.1994  -17.1765   23.7290 C   0  0  0  0  0  0  0  0  0  0  0  0
   14.3934  -16.6631   23.0217 C   0  0  0  0  0  0  0  0  0  0  0  0
   14.8382  -15.5170   23.2571 O   0  0  0  0  0  0  0  0  0  0  0  0
   10.6000  -17.1199   25.2069 C   0  0  0  0  0  0  0  0  0  0  0  0
   10.7329  -18.2871   25.6290 O   0  0  0  0  0  0  0  0  0  0  0  0
   15.0464  -17.4380   22.0833 O   0  0  0  0  0  0  0  0  0  0  0  0
   10.3655  -16.1270   26.1360 O   0  0  0  0  0  0  0  0  0  0  0  0
  2  3  1  0
  2  1  1  1
  4  2  1  0
  5  4  2  0
  6  4  1  0
  7  6  1  0
  8 10  1  0
  8  7  1  0
  9  8  2  0
 11 16  1  0
 11 10  1  0
 11 12  1  1
 12 13  1  0
 13 14  1  0
 14 15  2  0
 14 18  1  0
 16 19  1  0
 17 16  2  0
M  END
$$$$
