AGE.pdb
     RDKit          3D

 19 18  0  0  1  0  0  0  0  0999 V2000
    0.9222  -19.5820   21.0411 C   0  0  0  0  0  0  0  0  0  0  0  0
    2.3394  -19.8779   20.6153 C   0  0  2  0  0  0  0  0  0  0  0  0
    2.9236  -20.9843   21.3127 N   0  0  0  0  0  0  0  0  0  0  0  0
    3.1558  -18.6489   20.8920 C   0  0  0  0  0  0  0  0  0  0  0  0
    2.8819  -17.5532   20.3159 O   0  0  0  0  0  0  0  0  0  0  0  0
    4.2432  -18.6563   21.7876 N   0  0  0  0  0  0  0  0  0  0  0  0
    4.9861  -17.4583   22.0429 C   0  0  0  0  0  0  0  0  0  0  0  0
    6.0059  -17.6864   23.1268 C   0  0  0  0  0  0  0  0  0  0  0  0
    5.7249  -18.3508   24.1674 O   0  0  0  0  0  0  0  0  0  0  0  0
    7.3181  -17.1703   23.0317 N   0  0  0  0  0  0  0  0  0  0  0  0
    8.3848  -17.5026   23.9756 C   0  0  1  0  0  0  0  0  0  0  0  0
    9.6302  -16.8776   23.4426 C   0  0  0  0  0  0  0  0  0  0  0  0
   10.8400  -17.0126   24.3191 C   0  0  0  0  0  0  0  0  0  0  0  0
   11.9964  -16.4432   23.5927 C   0  0  0  0  0  0  0  0  0  0  0  0
   11.9021  -15.3525   22.9858 O   0  0  0  0  0  0  0  0  0  0  0  0
    7.9967  -17.0258   25.3090 C   0  0  0  0  0  0  0  0  0  0  0  0
    7.2787  -16.0114   25.4258 O   0  0  0  0  0  0  0  0  0  0  0  0
   13.2095  -17.1030   23.5672 O   0  0  0  0  0  0  0  0  0  0  0  0
    8.3978  -17.6616   26.4662 O   0  0  0  0  0  0  0  0  0  0  0  0
  2  3  1  0
  2  1  1  1
  4  2  1  0
  5  4  2  0
  6  4  1  0
  7  6  1  0
  8 10  1  0
  8  7  1  0
  9  8  2  0
 11 16  1  0
 11 10  1  0
 11 12  1  6
 12 13  1  0
 13 14  1  0
 14 15  2  0
 14 18  1  0
 16 19  1  0
 17 16  2  0
M  END
$$$$
