AGE.pdb
     RDKit          3D

 19 18  0  0  1  0  0  0  0  0999 V2000
    7.0756  -17.9836   19.5515 C   0  0  0  0  0  0  0  0  0  0  0  0
    7.5873  -16.6530   19.0564 C   0  0  2  0  0  0  0  0  0  0  0  0
    8.1687  -16.7179   17.7490 N   0  0  0  0  0  0  0  0  0  0  0  0
    8.6340  -16.1870   20.0264 C   0  0  0  0  0  0  0  0  0  0  0  0
    9.8645  -16.3609   19.7755 O   0  0  0  0  0  0  0  0  0  0  0  0
    8.3034  -15.5472   21.2371 N   0  0  0  0  0  0  0  0  0  0  0  0
    9.3255  -14.9811   22.0659 C   0  0  0  0  0  0  0  0  0  0  0  0
   10.0409  -16.0579   22.8376 C   0  0  0  0  0  0  0  0  0  0  0  0
    9.5971  -17.2430   22.8818 O   0  0  0  0  0  0  0  0  0  0  0  0
   11.2355  -15.7949   23.5454 N   0  0  0  0  0  0  0  0  0  0  0  0
   11.9567  -16.8093   24.3136 C   0  0  1  0  0  0  0  0  0  0  0  0
   13.3911  -16.3990   24.3127 C   0  0  0  0  0  0  0  0  0  0  0  0
   14.1321  -16.6646   23.0359 C   0  0  0  0  0  0  0  0  0  0  0  0
   15.4688  -16.0395   23.1448 C   0  0  0  0  0  0  0  0  0  0  0  0
   16.0054  -15.4904   22.1562 O   0  0  0  0  0  0  0  0  0  0  0  0
   11.3582  -16.8982   25.6514 C   0  0  0  0  0  0  0  0  0  0  0  0
   10.6350  -15.9733   26.0755 O   0  0  0  0  0  0  0  0  0  0  0  0
   16.1571  -16.0472   24.3421 O   0  0  0  0  0  0  0  0  0  0  0  0
   11.5625  -17.9816   26.4813 O   0  0  0  0  0  0  0  0  0  0  0  0
  2  3  1  0
  2  1  1  1
  4  2  1  0
  5  4  2  0
  6  4  1  0
  7  6  1  0
  8 10  1  0
  8  7  1  0
  9  8  2  0
 11 16  1  0
 11 10  1  0
 11 12  1  1
 12 13  1  0
 13 14  1  0
 14 15  2  0
 14 18  1  0
 16 19  1  0
 17 16  2  0
M  END
$$$$
