AGE.pdb
     RDKit          3D

 19 18  0  0  1  0  0  0  0  0999 V2000
    8.1591  -12.1850   19.9449 C   0  0  0  0  0  0  0  0  0  0  0  0
    8.2195  -13.4528   19.1287 C   0  0  2  0  0  0  0  0  0  0  0  0
    7.0768  -13.6418   18.2860 N   0  0  0  0  0  0  0  0  0  0  0  0
    8.3031  -14.6015   20.0916 C   0  0  0  0  0  0  0  0  0  0  0  0
    7.2945  -15.3416   20.2971 O   0  0  0  0  0  0  0  0  0  0  0  0
    9.4838  -14.9041   20.7979 N   0  0  0  0  0  0  0  0  0  0  0  0
    9.6022  -16.1299   21.5298 C   0  0  0  0  0  0  0  0  0  0  0  0
   10.9450  -16.2180   22.2051 C   0  0  0  0  0  0  0  0  0  0  0  0
   11.8508  -15.3608   21.9859 O   0  0  0  0  0  0  0  0  0  0  0  0
   11.2537  -17.2583   23.1104 N   0  0  0  0  0  0  0  0  0  0  0  0
   12.5333  -17.3633   23.8110 C   0  0  1  0  0  0  0  0  0  0  0  0
   12.3340  -18.3544   24.9082 C   0  0  0  0  0  0  0  0  0  0  0  0
   11.2437  -18.0200   25.8825 C   0  0  0  0  0  0  0  0  0  0  0  0
   11.2415  -19.0558   26.9391 C   0  0  0  0  0  0  0  0  0  0  0  0
   11.8824  -18.8930   28.0020 O   0  0  0  0  0  0  0  0  0  0  0  0
   13.5693  -17.7409   22.8414 C   0  0  0  0  0  0  0  0  0  0  0  0
   13.2686  -18.4180   21.8368 O   0  0  0  0  0  0  0  0  0  0  0  0
   10.5309  -20.2289   26.7772 O   0  0  0  0  0  0  0  0  0  0  0  0
   14.8909  -17.3736   22.9924 O   0  0  0  0  0  0  0  0  0  0  0  0
  2  3  1  0
  2  1  1  1
  4  2  1  0
  5  4  2  0
  6  4  1  0
  7  6  1  0
  8 10  1  0
  8  7  1  0
  9  8  2  0
 11 16  1  0
 11 10  1  0
 11 12  1  1
 12 13  1  0
 13 14  1  0
 14 15  2  0
 14 18  1  0
 16 19  1  0
 17 16  2  0
M  END
$$$$
