AGE.pdb
     RDKit          3D

 19 18  0  0  1  0  0  0  0  0999 V2000
    7.2122  -12.5513   19.5901 C   0  0  0  0  0  0  0  0  0  0  0  0
    8.2625  -13.6255   19.7327 C   0  0  2  0  0  0  0  0  0  0  0  0
    8.0152  -14.7751   18.9149 N   0  0  0  0  0  0  0  0  0  0  0  0
    8.2741  -14.0517   21.1721 C   0  0  0  0  0  0  0  0  0  0  0  0
    8.5195  -13.2109   22.0887 O   0  0  0  0  0  0  0  0  0  0  0  0
    8.0177  -15.3806   21.5632 N   0  0  0  0  0  0  0  0  0  0  0  0
    7.9507  -15.7329   22.9501 C   0  0  0  0  0  0  0  0  0  0  0  0
    9.3302  -15.9663   23.5063 C   0  0  0  0  0  0  0  0  0  0  0  0
   10.3409  -16.0519   22.7484 O   0  0  0  0  0  0  0  0  0  0  0  0
    9.5579  -16.1006   24.8946 N   0  0  0  0  0  0  0  0  0  0  0  0
   10.8768  -16.3542   25.4738 C   0  0  1  0  0  0  0  0  0  0  0  0
   10.7452  -16.1215   26.9416 C   0  0  0  0  0  0  0  0  0  0  0  0
   10.2773  -14.7512   27.3331 C   0  0  0  0  0  0  0  0  0  0  0  0
   10.1955  -14.7007   28.8096 C   0  0  0  0  0  0  0  0  0  0  0  0
   10.4722  -15.7043   29.5046 O   0  0  0  0  0  0  0  0  0  0  0  0
   11.2921  -17.7164   25.1164 C   0  0  0  0  0  0  0  0  0  0  0  0
   10.4335  -18.5802   24.8428 O   0  0  0  0  0  0  0  0  0  0  0  0
    9.8113  -13.5427   29.4569 O   0  0  0  0  0  0  0  0  0  0  0  0
   12.6181  -18.0953   25.0679 O   0  0  0  0  0  0  0  0  0  0  0  0
  2  3  1  0
  2  1  1  1
  4  2  1  0
  5  4  2  0
  6  4  1  0
  7  6  1  0
  8 10  1  0
  8  7  1  0
  9  8  2  0
 11 16  1  0
 11 10  1  0
 11 12  1  1
 12 13  1  0
 13 14  1  0
 14 15  2  0
 14 18  1  0
 16 19  1  0
 17 16  2  0
M  END
$$$$
