AGE.pdb
     RDKit          3D

 19 18  0  0  1  0  0  0  0  0999 V2000
    7.2279  -12.4616   18.9935 C   0  0  0  0  0  0  0  0  0  0  0  0
    8.5725  -13.1278   19.1527 C   0  0  2  0  0  0  0  0  0  0  0  0
    8.9305  -13.9592   18.0427 N   0  0  0  0  0  0  0  0  0  0  0  0
    8.5077  -13.9767   20.3891 C   0  0  0  0  0  0  0  0  0  0  0  0
    8.1708  -13.4678   21.5004 O   0  0  0  0  0  0  0  0  0  0  0  0
    8.8126  -15.3520   20.3719 N   0  0  0  0  0  0  0  0  0  0  0  0
    8.7386  -16.1307   21.5720 C   0  0  0  0  0  0  0  0  0  0  0  0
    9.9888  -15.9610   22.3935 C   0  0  0  0  0  0  0  0  0  0  0  0
   10.9972  -15.3440   21.9399 O   0  0  0  0  0  0  0  0  0  0  0  0
   10.0928  -16.4816   23.7033 N   0  0  0  0  0  0  0  0  0  0  0  0
   11.3147  -16.4101   24.5040 C   0  0  1  0  0  0  0  0  0  0  0  0
   10.9798  -16.9884   25.8379 C   0  0  0  0  0  0  0  0  0  0  0  0
   12.1309  -17.1038   26.7927 C   0  0  0  0  0  0  0  0  0  0  0  0
   11.6335  -17.7383   28.0334 C   0  0  0  0  0  0  0  0  0  0  0  0
   11.8904  -18.9358   28.2921 O   0  0  0  0  0  0  0  0  0  0  0  0
   12.3842  -17.1210   23.7923 C   0  0  0  0  0  0  0  0  0  0  0  0
   12.1038  -18.0596   23.0186 O   0  0  0  0  0  0  0  0  0  0  0  0
   10.8726  -17.0228   28.9371 O   0  0  0  0  0  0  0  0  0  0  0  0
   13.7161  -16.7926   23.9424 O   0  0  0  0  0  0  0  0  0  0  0  0
  2  3  1  0
  2  1  1  6
  4  2  1  0
  5  4  2  0
  6  4  1  0
  7  6  1  0
  8 10  1  0
  8  7  1  0
  9  8  2  0
 11 16  1  0
 11 10  1  0
 11 12  1  1
 12 13  1  0
 13 14  1  0
 14 15  2  0
 14 18  1  0
 16 19  1  0
 17 16  2  0
M  END
$$$$
