AGE.pdb
     RDKit          3D

 19 18  0  0  1  0  0  0  0  0999 V2000
    7.6364  -12.5821   19.3970 C   0  0  0  0  0  0  0  0  0  0  0  0
    7.9956  -14.0386   19.5606 C   0  0  2  0  0  0  0  0  0  0  0  0
    6.8581  -14.9091   19.5561 N   0  0  0  0  0  0  0  0  0  0  0  0
    8.7049  -14.1797   20.8761 C   0  0  0  0  0  0  0  0  0  0  0  0
    9.8933  -13.7599   21.0129 O   0  0  0  0  0  0  0  0  0  0  0  0
    8.0941  -14.7738   21.9980 N   0  0  0  0  0  0  0  0  0  0  0  0
    8.7450  -14.7630   23.2741 C   0  0  0  0  0  0  0  0  0  0  0  0
    9.6443  -15.9614   23.4220 C   0  0  0  0  0  0  0  0  0  0  0  0
    9.4506  -17.0179   22.7516 O   0  0  0  0  0  0  0  0  0  0  0  0
   10.7410  -15.9609   24.3133 N   0  0  0  0  0  0  0  0  0  0  0  0
   11.5956  -17.1261   24.5398 C   0  0  1  0  0  0  0  0  0  0  0  0
   12.9992  -16.6686   24.3242 C   0  0  0  0  0  0  0  0  0  0  0  0
   13.3239  -16.2368   22.9249 C   0  0  0  0  0  0  0  0  0  0  0  0
   14.7502  -15.8450   22.8870 C   0  0  0  0  0  0  0  0  0  0  0  0
   15.4411  -15.8267   23.9306 O   0  0  0  0  0  0  0  0  0  0  0  0
   11.3334  -17.6452   25.8880 C   0  0  0  0  0  0  0  0  0  0  0  0
   11.8167  -18.7406   26.2411 O   0  0  0  0  0  0  0  0  0  0  0  0
   15.3540  -15.4895   21.6968 O   0  0  0  0  0  0  0  0  0  0  0  0
   10.5595  -16.9629   26.8044 O   0  0  0  0  0  0  0  0  0  0  0  0
  2  3  1  0
  2  1  1  1
  4  2  1  0
  5  4  2  0
  6  4  1  0
  7  6  1  0
  8 10  1  0
  8  7  1  0
  9  8  2  0
 11 16  1  0
 11 10  1  0
 11 12  1  1
 12 13  1  0
 13 14  1  0
 14 15  2  0
 14 18  1  0
 16 19  1  0
 17 16  2  0
M  END
$$$$
