AGE.pdb
     RDKit          3D

 19 18  0  0  1  0  0  0  0  0999 V2000
    7.8678  -13.3721   19.2856 C   0  0  0  0  0  0  0  0  0  0  0  0
    7.5914  -14.4536   20.3010 C   0  0  2  0  0  0  0  0  0  0  0  0
    6.3453  -14.2849   20.9869 N   0  0  0  0  0  0  0  0  0  0  0  0
    8.7042  -14.4171   21.3079 C   0  0  0  0  0  0  0  0  0  0  0  0
    8.7604  -13.4884   22.1692 O   0  0  0  0  0  0  0  0  0  0  0  0
    9.7181  -15.3946   21.3416 N   0  0  0  0  0  0  0  0  0  0  0  0
   10.7247  -15.3668   22.3605 C   0  0  0  0  0  0  0  0  0  0  0  0
   10.3193  -16.2221   23.5314 C   0  0  0  0  0  0  0  0  0  0  0  0
    9.1571  -16.1510   24.0288 O   0  0  0  0  0  0  0  0  0  0  0  0
   11.2152  -17.1392   24.1260 N   0  0  0  0  0  0  0  0  0  0  0  0
   10.8677  -17.9754   25.2746 C   0  0  1  0  0  0  0  0  0  0  0  0
   11.3941  -19.3396   24.9785 C   0  0  0  0  0  0  0  0  0  0  0  0
   11.1623  -20.3620   26.0512 C   0  0  0  0  0  0  0  0  0  0  0  0
   11.7296  -21.6475   25.5876 C   0  0  0  0  0  0  0  0  0  0  0  0
   12.9673  -21.8085   25.4934 O   0  0  0  0  0  0  0  0  0  0  0  0
   11.4290  -17.3649   26.4863 C   0  0  0  0  0  0  0  0  0  0  0  0
   10.9650  -17.6591   27.6071 O   0  0  0  0  0  0  0  0  0  0  0  0
   10.9051  -22.7020   25.2474 O   0  0  0  0  0  0  0  0  0  0  0  0
   12.4698  -16.4599   26.4429 O   0  0  0  0  0  0  0  0  0  0  0  0
  2  3  1  0
  2  1  1  6
  4  2  1  0
  5  4  2  0
  6  4  1  0
  7  6  1  0
  8 10  1  0
  8  7  1  0
  9  8  2  0
 11 16  1  0
 11 10  1  0
 11 12  1  6
 12 13  1  0
 13 14  1  0
 14 15  2  0
 14 18  1  0
 16 19  1  0
 17 16  2  0
M  END
$$$$
