AGE.pdb
     RDKit          3D

 19 18  0  0  1  0  0  0  0  0999 V2000
    7.4579  -12.7713   19.1718 C   0  0  0  0  0  0  0  0  0  0  0  0
    8.0462  -14.1372   19.4275 C   0  0  2  0  0  0  0  0  0  0  0  0
    7.0610  -15.1732   19.5169 N   0  0  0  0  0  0  0  0  0  0  0  0
    8.7910  -14.0673   20.7289 C   0  0  0  0  0  0  0  0  0  0  0  0
    9.8666  -13.4020   20.8181 O   0  0  0  0  0  0  0  0  0  0  0  0
    8.3379  -14.7253   21.8892 N   0  0  0  0  0  0  0  0  0  0  0  0
    9.0349  -14.5761   23.1318 C   0  0  0  0  0  0  0  0  0  0  0  0
    9.7078  -15.8653   23.5217 C   0  0  0  0  0  0  0  0  0  0  0  0
    9.0539  -16.9443   23.6286 O   0  0  0  0  0  0  0  0  0  0  0  0
   11.0948  -15.9285   23.7855 N   0  0  0  0  0  0  0  0  0  0  0  0
   11.7767  -17.1455   24.2248 C   0  0  1  0  0  0  0  0  0  0  0  0
   13.2349  -16.8306   24.2397 C   0  0  0  0  0  0  0  0  0  0  0  0
   13.8789  -16.7159   22.8899 C   0  0  0  0  0  0  0  0  0  0  0  0
   15.1425  -15.9627   23.0489 C   0  0  0  0  0  0  0  0  0  0  0  0
   16.0116  -16.3294   23.8717 O   0  0  0  0  0  0  0  0  0  0  0  0
   11.2344  -17.5419   25.5304 C   0  0  0  0  0  0  0  0  0  0  0  0
   10.7490  -16.6813   26.2932 O   0  0  0  0  0  0  0  0  0  0  0  0
   15.3932  -14.8352   22.2916 O   0  0  0  0  0  0  0  0  0  0  0  0
   11.2362  -18.8520   25.9637 O   0  0  0  0  0  0  0  0  0  0  0  0
  2  3  1  0
  2  1  1  1
  4  2  1  0
  5  4  2  0
  6  4  1  0
  7  6  1  0
  8 10  1  0
  8  7  1  0
  9  8  2  0
 11 16  1  0
 11 10  1  0
 11 12  1  1
 12 13  1  0
 13 14  1  0
 14 15  2  0
 14 18  1  0
 16 19  1  0
 17 16  2  0
M  END
$$$$
