VGL.pdb
     RDKit          3D

 20 19  0  0  1  0  0  0  0  0999 V2000
   16.4723  -15.1655  -19.4461 C   0  0  0  0  0  0  0  0  0  0  0  0
   17.2415  -13.8701  -19.5230 C   0  0  1  0  0  0  0  0  0  0  0  0
   16.2329  -12.7575  -19.7488 C   0  0  0  0  0  0  0  0  0  0  0  0
   17.9151  -13.6262  -18.1991 C   0  0  2  0  0  0  0  0  0  0  0  0
   17.0131  -13.5914  -17.0928 N   0  0  0  0  0  0  0  0  0  0  0  0
   18.6311  -12.3054  -18.3142 C   0  0  0  0  0  0  0  0  0  0  0  0
   19.6622  -12.1879  -19.0256 O   0  0  0  0  0  0  0  0  0  0  0  0
   18.1749  -11.1499  -17.6304 N   0  0  0  0  0  0  0  0  0  0  0  0
   18.8141   -9.8958  -17.8347 C   0  0  0  0  0  0  0  0  0  0  0  0
   19.3123   -9.2649  -16.6014 C   0  0  0  0  0  0  0  0  0  0  0  0
   18.5801   -9.2769  -15.5815 O   0  0  0  0  0  0  0  0  0  0  0  0
   23.9934  -10.7123  -14.9147 C   0  0  0  0  0  0  0  0  0  0  0  0
   22.5652  -10.2289  -14.9108 C   0  0  1  0  0  0  0  0  0  0  0  0
   21.9222  -10.5940  -13.5714 C   0  0  0  0  0  0  0  0  0  0  0  0
   22.5367   -8.7660  -15.1532 C   0  0  0  0  0  0  0  0  0  0  0  0
   21.1595   -8.2173  -15.2204 C   0  0  2  0  0  0  0  0  0  0  0  0
   20.5798   -8.6428  -16.5063 N   0  0  0  0  0  0  0  0  0  0  0  0
   21.1529   -6.7533  -15.1652 C   0  0  0  0  0  0  0  0  0  0  0  0
   21.0753   -6.1019  -16.2356 O   0  0  0  0  0  0  0  0  0  0  0  0
   21.2249   -6.0268  -13.9994 O   0  0  0  0  0  0  0  0  0  0  0  0
  2  1  1  1
  3  2  1  0
  4  5  1  1
  4  2  1  0
  6  4  1  0
  6  7  2  0
  8  6  1  0
  9  8  1  0
  9 10  1  0
 10 17  1  0
 10 11  2  0
 13 15  1  0
 13 12  1  1
 14 13  1  0
 16 15  1  6
 16 18  1  0
 17 16  1  0
 18 20  1  0
 19 18  2  0
M  END
$$$$
