VGL.pdb
     RDKit          3D

 20 19  0  0  1  0  0  0  0  0999 V2000
   25.2098  -22.9640  -13.1405 C   0  0  0  0  0  0  0  0  0  0  0  0
   25.0198  -21.9057  -14.1987 C   0  0  1  0  0  0  0  0  0  0  0  0
   24.2017  -22.5263  -15.3176 C   0  0  0  0  0  0  0  0  0  0  0  0
   24.2223  -20.7713  -13.6130 C   0  0  2  0  0  0  0  0  0  0  0  0
   23.8161  -19.7973  -14.5749 N   0  0  0  0  0  0  0  0  0  0  0  0
   25.0938  -20.1231  -12.5687 C   0  0  0  0  0  0  0  0  0  0  0  0
   26.1322  -19.4910  -12.8936 O   0  0  0  0  0  0  0  0  0  0  0  0
   24.7812  -20.1986  -11.1876 N   0  0  0  0  0  0  0  0  0  0  0  0
   25.6651  -19.6455  -10.2203 C   0  0  0  0  0  0  0  0  0  0  0  0
   25.9064  -20.5148   -9.0570 C   0  0  0  0  0  0  0  0  0  0  0  0
   25.7540  -21.7540   -9.1902 O   0  0  0  0  0  0  0  0  0  0  0  0
   28.6965  -18.4402   -4.7155 C   0  0  0  0  0  0  0  0  0  0  0  0
   28.3125  -19.3398   -5.8631 C   0  0  1  0  0  0  0  0  0  0  0  0
   29.4638  -20.3089   -6.1396 C   0  0  0  0  0  0  0  0  0  0  0  0
   27.0578  -20.0577   -5.5314 C   0  0  0  0  0  0  0  0  0  0  0  0
   26.5669  -20.9090   -6.6434 C   0  0  2  0  0  0  0  0  0  0  0  0
   26.3030  -20.0231   -7.7907 N   0  0  0  0  0  0  0  0  0  0  0  0
   25.3252  -21.6023   -6.2916 C   0  0  0  0  0  0  0  0  0  0  0  0
   24.2267  -21.0991   -6.6326 O   0  0  0  0  0  0  0  0  0  0  0  0
   25.2766  -22.7914   -5.6019 O   0  0  0  0  0  0  0  0  0  0  0  0
  2  1  1  1
  3  2  1  0
  4  5  1  6
  4  2  1  0
  6  4  1  0
  6  7  2  0
  8  6  1  0
  9  8  1  0
  9 10  1  0
 10 17  1  0
 10 11  2  0
 13 15  1  0
 13 12  1  1
 14 13  1  0
 16 15  1  1
 16 18  1  0
 17 16  1  0
 18 20  1  0
 19 18  2  0
M  END
$$$$
