VGL.pdb
     RDKit          3D

 20 19  0  0  1  0  0  0  0  0999 V2000
   22.5033  -20.7457  -15.4139 C   0  0  0  0  0  0  0  0  0  0  0  0
   23.8524  -20.8435  -14.7458 C   0  0  1  0  0  0  0  0  0  0  0  0
   24.8566  -21.2478  -15.8109 C   0  0  0  0  0  0  0  0  0  0  0  0
   24.2401  -19.4823  -14.2332 C   0  0  2  0  0  0  0  0  0  0  0  0
   24.3829  -18.5005  -15.2601 N   0  0  0  0  0  0  0  0  0  0  0  0
   25.5478  -19.6504  -13.5039 C   0  0  0  0  0  0  0  0  0  0  0  0
   26.3286  -18.6771  -13.3422 O   0  0  0  0  0  0  0  0  0  0  0  0
   25.9484  -20.9033  -12.9741 N   0  0  0  0  0  0  0  0  0  0  0  0
   27.1070  -20.9987  -12.1546 C   0  0  0  0  0  0  0  0  0  0  0  0
   26.8264  -21.3451  -10.7516 C   0  0  0  0  0  0  0  0  0  0  0  0
   26.9227  -22.5460  -10.3977 O   0  0  0  0  0  0  0  0  0  0  0  0
   28.4037  -18.4245   -6.5160 C   0  0  0  0  0  0  0  0  0  0  0  0
   28.0263  -19.5772   -7.4117 C   0  0  1  0  0  0  0  0  0  0  0  0
   28.6348  -20.8627   -6.8477 C   0  0  0  0  0  0  0  0  0  0  0  0
   26.5491  -19.6656   -7.5095 C   0  0  0  0  0  0  0  0  0  0  0  0
   26.0926  -20.7631   -8.3979 C   0  0  2  0  0  0  0  0  0  0  0  0
   26.4522  -20.3897   -9.7771 N   0  0  0  0  0  0  0  0  0  0  0  0
   24.6417  -20.9535   -8.3274 C   0  0  0  0  0  0  0  0  0  0  0  0
   23.9212  -20.5075   -9.2538 O   0  0  0  0  0  0  0  0  0  0  0  0
   23.9997  -21.6016   -7.2979 O   0  0  0  0  0  0  0  0  0  0  0  0
  2  1  1  6
  3  2  1  0
  4  5  1  6
  4  2  1  0
  6  4  1  0
  6  7  2  0
  8  6  1  0
  9  8  1  0
  9 10  1  0
 10 17  1  0
 10 11  2  0
 13 15  1  0
 13 12  1  1
 14 13  1  0
 16 15  1  1
 16 18  1  0
 17 16  1  0
 18 20  1  0
 19 18  2  0
M  END
$$$$
