VGL.pdb
     RDKit          3D

 20 19  0  0  1  0  0  0  0  0999 V2000
   20.9560  -20.5774  -15.0532 C   0  0  0  0  0  0  0  0  0  0  0  0
   22.3334  -21.0118  -14.6175 C   0  0  1  0  0  0  0  0  0  0  0  0
   23.3372  -20.1570  -15.3712 C   0  0  0  0  0  0  0  0  0  0  0  0
   22.4900  -20.7266  -13.1477 C   0  0  2  0  0  0  0  0  0  0  0  0
   22.2927  -19.3549  -12.8040 N   0  0  0  0  0  0  0  0  0  0  0  0
   23.8858  -21.1505  -12.7706 C   0  0  0  0  0  0  0  0  0  0  0  0
   24.2445  -22.3529  -12.8633 O   0  0  0  0  0  0  0  0  0  0  0  0
   24.8446  -20.2180  -12.2993 N   0  0  0  0  0  0  0  0  0  0  0  0
   26.1426  -20.6550  -11.9156 C   0  0  0  0  0  0  0  0  0  0  0  0
   26.2475  -21.0697  -10.5070 C   0  0  0  0  0  0  0  0  0  0  0  0
   25.8606  -22.2211  -10.1886 O   0  0  0  0  0  0  0  0  0  0  0  0
   28.7201  -20.9914   -5.6528 C   0  0  0  0  0  0  0  0  0  0  0  0
   27.7068  -19.9006   -5.8917 C   0  0  1  0  0  0  0  0  0  0  0  0
   28.1245  -18.6557   -5.1066 C   0  0  0  0  0  0  0  0  0  0  0  0
   27.6085  -19.6257   -7.3458 C   0  0  0  0  0  0  0  0  0  0  0  0
   26.8096  -20.6422   -8.0742 C   0  0  2  0  0  0  0  0  0  0  0  0
   26.7641  -20.2335   -9.4890 N   0  0  0  0  0  0  0  0  0  0  0  0
   25.4380  -20.7239   -7.5660 C   0  0  0  0  0  0  0  0  0  0  0  0
   24.5544  -19.9890   -8.0713 O   0  0  0  0  0  0  0  0  0  0  0  0
   25.0409  -21.5679   -6.5550 O   0  0  0  0  0  0  0  0  0  0  0  0
  2  1  1  6
  3  2  1  0
  4  5  1  6
  4  2  1  0
  6  4  1  0
  6  7  2  0
  8  6  1  0
  9  8  1  0
  9 10  1  0
 10 17  1  0
 10 11  2  0
 13 15  1  0
 13 12  1  6
 14 13  1  0
 16 15  1  1
 16 18  1  0
 17 16  1  0
 18 20  1  0
 19 18  2  0
M  END
$$$$
