VGL.pdb
     RDKit          3D

 20 19  0  0  1  0  0  0  0  0999 V2000
   24.8535  -24.2084  -19.7087 C   0  0  0  0  0  0  0  0  0  0  0  0
   25.5475  -24.0907  -18.3745 C   0  0  1  0  0  0  0  0  0  0  0  0
   26.9372  -23.5361  -18.6345 C   0  0  0  0  0  0  0  0  0  0  0  0
   24.8012  -23.0970  -17.5250 C   0  0  2  0  0  0  0  0  0  0  0  0
   24.6622  -21.8120  -18.1316 N   0  0  0  0  0  0  0  0  0  0  0  0
   25.5664  -22.9704  -16.2333 C   0  0  0  0  0  0  0  0  0  0  0  0
   25.7833  -23.9755  -15.5081 O   0  0  0  0  0  0  0  0  0  0  0  0
   26.0694  -21.7223  -15.7859 N   0  0  0  0  0  0  0  0  0  0  0  0
   26.8102  -21.6394  -14.5746 C   0  0  0  0  0  0  0  0  0  0  0  0
   25.9781  -21.5789  -13.3617 C   0  0  0  0  0  0  0  0  0  0  0  0
   24.7471  -21.8042  -13.4650 O   0  0  0  0  0  0  0  0  0  0  0  0
   25.3936  -21.7744   -7.9405 C   0  0  0  0  0  0  0  0  0  0  0  0
   25.7557  -20.4303   -8.5201 C   0  0  1  0  0  0  0  0  0  0  0  0
   26.5815  -19.6538   -7.4925 C   0  0  0  0  0  0  0  0  0  0  0  0
   26.4980  -20.6221   -9.7897 C   0  0  0  0  0  0  0  0  0  0  0  0
   25.6355  -21.1032  -10.8973 C   0  0  2  0  0  0  0  0  0  0  0  0
   26.4967  -21.2784  -12.0798 N   0  0  0  0  0  0  0  0  0  0  0  0
   24.5809  -20.1404  -11.2244 C   0  0  0  0  0  0  0  0  0  0  0  0
   24.8691  -19.1270  -11.9071 O   0  0  0  0  0  0  0  0  0  0  0  0
   23.2696  -20.2720  -10.8303 O   0  0  0  0  0  0  0  0  0  0  0  0
  2  1  1  6
  3  2  1  0
  4  5  1  6
  4  2  1  0
  6  4  1  0
  6  7  2  0
  8  6  1  0
  9  8  1  0
  9 10  1  0
 10 17  1  0
 10 11  2  0
 13 15  1  0
 13 12  1  1
 14 13  1  0
 16 15  1  1
 16 18  1  0
 17 16  1  0
 18 20  1  0
 19 18  2  0
M  END
$$$$
