VGL.pdb
     RDKit          3D

 20 19  0  0  1  0  0  0  0  0999 V2000
   20.8689  -24.6765  -18.9333 C   0  0  0  0  0  0  0  0  0  0  0  0
   22.0545  -24.1801  -18.1436 C   0  0  1  0  0  0  0  0  0  0  0  0
   21.5774  -23.0136  -17.2962 C   0  0  0  0  0  0  0  0  0  0  0  0
   22.5117  -25.2734  -17.2154 C   0  0  2  0  0  0  0  0  0  0  0  0
   21.4823  -25.7676  -16.3581 N   0  0  0  0  0  0  0  0  0  0  0  0
   23.6317  -24.6986  -16.3875 C   0  0  0  0  0  0  0  0  0  0  0  0
   24.6337  -24.1682  -16.9332 O   0  0  0  0  0  0  0  0  0  0  0  0
   23.6019  -24.7319  -14.9701 N   0  0  0  0  0  0  0  0  0  0  0  0
   24.7122  -24.2589  -14.2175 C   0  0  0  0  0  0  0  0  0  0  0  0
   24.6490  -22.8263  -13.8849 C   0  0  0  0  0  0  0  0  0  0  0  0
   23.7054  -22.1416  -14.3512 O   0  0  0  0  0  0  0  0  0  0  0  0
   26.5476  -20.9513   -9.1208 C   0  0  0  0  0  0  0  0  0  0  0  0
   25.6502  -21.1106  -10.3221 C   0  0  1  0  0  0  0  0  0  0  0  0
   24.3022  -20.4508  -10.0244 C   0  0  0  0  0  0  0  0  0  0  0  0
   26.3038  -20.5125  -11.5115 C   0  0  0  0  0  0  0  0  0  0  0  0
   25.5415  -20.7368  -12.7647 C   0  0  2  0  0  0  0  0  0  0  0  0
   25.6014  -22.1784  -13.0628 N   0  0  0  0  0  0  0  0  0  0  0  0
   26.1183  -20.0010  -13.8926 C   0  0  0  0  0  0  0  0  0  0  0  0
   25.9449  -18.7596  -13.9650 O   0  0  0  0  0  0  0  0  0  0  0  0
   26.8536  -20.5855  -14.8975 O   0  0  0  0  0  0  0  0  0  0  0  0
  2  1  1  1
  3  2  1  0
  4  5  1  1
  4  2  1  0
  6  4  1  0
  6  7  2  0
  8  6  1  0
  9  8  1  0
  9 10  1  0
 10 17  1  0
 10 11  2  0
 13 15  1  0
 13 12  1  1
 14 13  1  0
 16 15  1  1
 16 18  1  0
 17 16  1  0
 18 20  1  0
 19 18  2  0
M  END
$$$$
