VGL.pdb
     RDKit          3D

 20 19  0  0  1  0  0  0  0  0999 V2000
   27.3372  -21.5076  -14.3720 C   0  0  0  0  0  0  0  0  0  0  0  0
   26.2011  -20.7970  -15.0649 C   0  0  1  0  0  0  0  0  0  0  0  0
   25.9355  -21.5309  -16.3677 C   0  0  0  0  0  0  0  0  0  0  0  0
   24.9671  -20.9054  -14.2096 C   0  0  2  0  0  0  0  0  0  0  0  0
   23.7787  -20.4457  -14.8540 N   0  0  0  0  0  0  0  0  0  0  0  0
   25.2247  -20.0859  -12.9717 C   0  0  0  0  0  0  0  0  0  0  0  0
   25.1540  -18.8300  -13.0005 O   0  0  0  0  0  0  0  0  0  0  0  0
   25.5548  -20.6927  -11.7333 N   0  0  0  0  0  0  0  0  0  0  0  0
   25.8251  -19.8905  -10.5904 C   0  0  0  0  0  0  0  0  0  0  0  0
   26.0204  -20.6565   -9.3484 C   0  0  0  0  0  0  0  0  0  0  0  0
   25.8821  -21.9040   -9.3832 O   0  0  0  0  0  0  0  0  0  0  0  0
   28.7004  -18.3695   -5.1317 C   0  0  0  0  0  0  0  0  0  0  0  0
   28.2641  -19.3795   -6.1628 C   0  0  1  0  0  0  0  0  0  0  0  0
   29.3110  -20.4926   -6.2399 C   0  0  0  0  0  0  0  0  0  0  0  0
   26.9258  -19.9080   -5.8033 C   0  0  0  0  0  0  0  0  0  0  0  0
   26.3590  -20.8033   -6.8423 C   0  0  2  0  0  0  0  0  0  0  0  0
   26.3573  -20.0561   -8.1121 N   0  0  0  0  0  0  0  0  0  0  0  0
   24.9835  -21.1985   -6.5296 C   0  0  0  0  0  0  0  0  0  0  0  0
   24.7822  -22.0516   -5.6307 O   0  0  0  0  0  0  0  0  0  0  0  0
   23.8736  -20.6890   -7.1626 O   0  0  0  0  0  0  0  0  0  0  0  0
  2  1  1  1
  3  2  1  0
  4  5  1  6
  4  2  1  0
  6  4  1  0
  6  7  2  0
  8  6  1  0
  9  8  1  0
  9 10  1  0
 10 17  1  0
 10 11  2  0
 13 15  1  0
 13 12  1  1
 14 13  1  0
 16 15  1  1
 16 18  1  0
 17 16  1  0
 18 20  1  0
 19 18  2  0
M  END
$$$$
