VGL.pdb
     RDKit          3D

 20 19  0  0  1  0  0  0  0  0999 V2000
   26.6889  -21.0337  -18.0864 C   0  0  0  0  0  0  0  0  0  0  0  0
   26.7028  -20.3336  -16.7502 C   0  0  1  0  0  0  0  0  0  0  0  0
   25.3131  -19.7651  -16.5225 C   0  0  0  0  0  0  0  0  0  0  0  0
   26.9725  -21.3495  -15.6727 C   0  0  2  0  0  0  0  0  0  0  0  0
   25.9398  -22.3254  -15.5312 N   0  0  0  0  0  0  0  0  0  0  0  0
   27.1293  -20.5836  -14.3847 C   0  0  0  0  0  0  0  0  0  0  0  0
   28.1612  -19.8997  -14.1598 O   0  0  0  0  0  0  0  0  0  0  0  0
   26.1275  -20.6025  -13.3812 N   0  0  0  0  0  0  0  0  0  0  0  0
   26.2893  -19.8408  -12.1910 C   0  0  0  0  0  0  0  0  0  0  0  0
   26.0491  -20.5993  -10.9523 C   0  0  0  0  0  0  0  0  0  0  0  0
   25.7248  -21.8090  -11.0411 O   0  0  0  0  0  0  0  0  0  0  0  0
   28.0491  -18.5342   -6.3097 C   0  0  0  0  0  0  0  0  0  0  0  0
   27.7468  -19.5558   -7.3768 C   0  0  1  0  0  0  0  0  0  0  0  0
   28.6887  -20.7487   -7.2016 C   0  0  0  0  0  0  0  0  0  0  0  0
   26.3233  -19.9617   -7.2850 C   0  0  0  0  0  0  0  0  0  0  0  0
   25.8839  -20.7944   -8.4320 C   0  0  2  0  0  0  0  0  0  0  0  0
   26.1655  -20.0321   -9.6610 N   0  0  0  0  0  0  0  0  0  0  0  0
   24.4485  -21.0824   -8.3781 C   0  0  0  0  0  0  0  0  0  0  0  0
   23.6642  -20.4158   -9.0968 O   0  0  0  0  0  0  0  0  0  0  0  0
   23.8879  -22.0532   -7.5810 O   0  0  0  0  0  0  0  0  0  0  0  0
  2  1  1  6
  3  2  1  0
  4  5  1  1
  4  2  1  0
  6  4  1  0
  6  7  2  0
  8  6  1  0
  9  8  1  0
  9 10  1  0
 10 17  1  0
 10 11  2  0
 13 15  1  0
 13 12  1  1
 14 13  1  0
 16 15  1  1
 16 18  1  0
 17 16  1  0
 18 20  1  0
 19 18  2  0
M  END
$$$$
