VGL.pdb
     RDKit          3D

 20 19  0  0  1  0  0  0  0  0999 V2000
   27.5786  -23.9847  -18.4415 C   0  0  0  0  0  0  0  0  0  0  0  0
   26.9955  -24.5818  -17.1848 C   0  0  1  0  0  0  0  0  0  0  0  0
   27.8620  -24.1272  -16.0234 C   0  0  0  0  0  0  0  0  0  0  0  0
   25.6121  -24.0249  -16.9794 C   0  0  2  0  0  0  0  0  0  0  0  0
   25.5752  -22.6015  -16.8731 N   0  0  0  0  0  0  0  0  0  0  0  0
   25.0795  -24.6441  -15.7132 C   0  0  0  0  0  0  0  0  0  0  0  0
   24.9878  -25.8932  -15.5924 O   0  0  0  0  0  0  0  0  0  0  0  0
   24.6632  -23.8499  -14.6147 N   0  0  0  0  0  0  0  0  0  0  0  0
   24.1927  -24.4651  -13.4217 C   0  0  0  0  0  0  0  0  0  0  0  0
   22.7664  -24.8284  -13.4526 C   0  0  0  0  0  0  0  0  0  0  0  0
   22.0331  -24.3120  -14.3313 O   0  0  0  0  0  0  0  0  0  0  0  0
   18.6220  -28.2941  -12.4147 C   0  0  0  0  0  0  0  0  0  0  0  0
   19.0545  -27.3678  -11.3064 C   0  0  1  0  0  0  0  0  0  0  0  0
   18.7806  -28.0430   -9.9611 C   0  0  0  0  0  0  0  0  0  0  0  0
   20.4903  -27.0344  -11.4715 C   0  0  0  0  0  0  0  0  0  0  0  0
   20.7294  -26.0068  -12.5150 C   0  0  2  0  0  0  0  0  0  0  0  0
   22.1770  -25.7338  -12.5385 N   0  0  0  0  0  0  0  0  0  0  0  0
   20.0219  -24.7579  -12.2223 C   0  0  0  0  0  0  0  0  0  0  0  0
   18.8651  -24.5891  -12.6802 O   0  0  0  0  0  0  0  0  0  0  0  0
   20.5451  -23.7367  -11.4636 O   0  0  0  0  0  0  0  0  0  0  0  0
  2  1  1  6
  3  2  1  0
  4  5  1  1
  4  2  1  0
  6  4  1  0
  6  7  2  0
  8  6  1  0
  9  8  1  0
  9 10  1  0
 10 17  1  0
 10 11  2  0
 13 15  1  0
 13 12  1  6
 14 13  1  0
 16 15  1  1
 16 18  1  0
 17 16  1  0
 18 20  1  0
 19 18  2  0
M  END
$$$$
