VGL.pdb
     RDKit          3D

 20 19  0  0  1  0  0  0  0  0999 V2000
   23.7861  -20.9345  -22.3244 C   0  0  0  0  0  0  0  0  0  0  0  0
   22.6021  -21.2987  -21.4635 C   0  0  1  0  0  0  0  0  0  0  0  0
   21.9397  -22.5110  -22.0944 C   0  0  0  0  0  0  0  0  0  0  0  0
   23.0980  -21.6966  -20.0991 C   0  0  2  0  0  0  0  0  0  0  0  0
   24.0445  -22.7654  -20.1205 N   0  0  0  0  0  0  0  0  0  0  0  0
   21.8874  -22.1043  -19.3001 C   0  0  0  0  0  0  0  0  0  0  0  0
   21.7790  -23.2697  -18.8384 O   0  0  0  0  0  0  0  0  0  0  0  0
   20.8291  -21.1975  -19.0381 N   0  0  0  0  0  0  0  0  0  0  0  0
   19.7996  -21.5421  -18.1192 C   0  0  0  0  0  0  0  0  0  0  0  0
   18.8449  -20.4548  -17.8477 C   0  0  0  0  0  0  0  0  0  0  0  0
   19.1069  -19.3036  -18.2752 O   0  0  0  0  0  0  0  0  0  0  0  0
   13.5755  -21.5092  -18.1460 C   0  0  0  0  0  0  0  0  0  0  0  0
   14.7140  -21.1335  -17.2315 C   0  0  1  0  0  0  0  0  0  0  0  0
   15.6176  -22.3530  -17.0387 C   0  0  0  0  0  0  0  0  0  0  0  0
   15.4554  -19.9862  -17.8091 C   0  0  0  0  0  0  0  0  0  0  0  0
   16.6260  -19.5829  -16.9912 C   0  0  2  0  0  0  0  0  0  0  0  0
   17.6417  -20.6416  -17.1265 N   0  0  0  0  0  0  0  0  0  0  0  0
   16.2794  -19.4448  -15.5745 C   0  0  0  0  0  0  0  0  0  0  0  0
   15.5652  -18.4782  -15.2116 O   0  0  0  0  0  0  0  0  0  0  0  0
   16.6875  -20.3186  -14.5937 O   0  0  0  0  0  0  0  0  0  0  0  0
  2  1  1  6
  3  2  1  0
  4  5  1  6
  4  2  1  0
  6  4  1  0
  6  7  2  0
  8  6  1  0
  9  8  1  0
  9 10  1  0
 10 17  1  0
 10 11  2  0
 13 15  1  0
 13 12  1  6
 14 13  1  0
 16 15  1  6
 16 18  1  0
 17 16  1  0
 18 20  1  0
 19 18  2  0
M  END
$$$$
