WAF.pdb
     RDKit          3D

 31 33  0  0  1  0  0  0  0  0999 V2000
   25.7888  -22.1195  -14.8145 N   0  0  0  0  0  0  0  0  0  0  0  0
   24.8630  -22.3856  -13.7735 C   0  0  1  0  0  0  0  0  0  0  0  0
   24.8111  -23.8255  -13.3670 C   0  0  0  0  0  0  0  0  0  0  0  0
   24.1719  -24.6123  -14.4461 C   0  0  0  0  0  0  0  0  0  0  0  0
   24.7744  -25.6457  -15.1743 C   0  0  0  0  0  0  0  0  0  0  0  0
   23.8975  -26.1573  -16.0454 N   0  0  0  0  0  0  0  0  0  0  0  0
   22.7215  -25.4990  -15.9266 C   0  0  0  0  0  0  0  0  0  0  0  0
   21.5172  -25.6301  -16.5855 C   0  0  0  0  0  0  0  0  0  0  0  0
   20.4745  -24.7903  -16.2464 C   0  0  0  0  0  0  0  0  0  0  0  0
   20.6162  -23.8333  -15.2709 C   0  0  0  0  0  0  0  0  0  0  0  0
   21.8288  -23.7160  -14.6211 C   0  0  0  0  0  0  0  0  0  0  0  0
   22.8842  -24.5384  -14.9364 C   0  0  0  0  0  0  0  0  0  0  0  0
   25.2514  -21.5573  -12.5803 C   0  0  0  0  0  0  0  0  0  0  0  0
   26.4402  -21.4181  -12.2485 O   0  0  0  0  0  0  0  0  0  0  0  0
   23.2491  -19.5836   -9.9903 C   0  0  0  0  0  0  0  0  0  0  0  0
   24.4610  -20.1742  -10.6300 C   0  0  2  0  0  0  0  0  0  0  0  0
   24.2294  -20.9237  -11.8219 N   0  0  0  0  0  0  0  0  0  0  0  0
   25.3208  -20.9237   -9.6521 C   0  0  0  0  0  0  0  0  0  0  0  0
   25.1920  -22.1797   -9.4793 O   0  0  0  0  0  0  0  0  0  0  0  0
   26.3014  -20.2251   -8.8994 N   0  0  0  0  0  0  0  0  0  0  0  0
   27.0784  -20.8887   -7.8865 C   0  0  1  0  0  0  0  0  0  0  0  0
   28.4239  -20.2522   -7.6748 C   0  0  0  0  0  0  0  0  0  0  0  0
   28.7322  -19.8170   -6.3279 C   0  0  0  0  0  0  0  0  0  0  0  0
   28.1083  -18.7476   -5.7516 C   0  0  0  0  0  0  0  0  0  0  0  0
   28.4095  -18.3287   -4.4524 C   0  0  0  0  0  0  0  0  0  0  0  0
   29.3519  -18.9917   -3.7167 C   0  0  0  0  0  0  0  0  0  0  0  0
   30.0003  -20.0856   -4.2859 C   0  0  0  0  0  0  0  0  0  0  0  0
   29.6815  -20.4846   -5.5857 C   0  0  0  0  0  0  0  0  0  0  0  0
   26.3986  -20.8531   -6.5596 C   0  0  0  0  0  0  0  0  0  0  0  0
   26.8733  -21.5830   -5.6563 O   0  0  0  0  0  0  0  0  0  0  0  0
   25.2934  -20.0764   -6.2678 O   0  0  0  0  0  0  0  0  0  0  0  0
  2  1  1  6
  2 13  1  0
  2  3  1  0
  3  4  1  0
  4 12  1  0
  4  5  2  0
  5  6  1  0
  7  6  1  0
  7  8  2  0
  9  8  1  0
 10  9  2  0
 11 12  2  0
 11 10  1  0
 12  7  1  0
 13 14  2  0
 16 15  1  1
 16 18  1  0
 17 13  1  0
 17 16  1  0
 18 20  1  0
 18 19  2  0
 20 21  1  0
 21 29  1  0
 21 22  1  1
 23 24  2  0
 23 22  1  0
 25 24  1  0
 26 25  2  0
 27 28  2  0
 27 26  1  0
 28 23  1  0
 29 30  2  0
 29 31  1  0
M  END
$$$$
