WAF.pdb
     RDKit          3D

 31 33  0  0  1  0  0  0  0  0999 V2000
   14.0131  -25.4679    1.9644 N   0  0  0  0  0  0  0  0  0  0  0  0
   15.3251  -26.0060    1.9389 C   0  0  1  0  0  0  0  0  0  0  0  0
   16.3754  -25.0140    1.5463 C   0  0  0  0  0  0  0  0  0  0  0  0
   16.8340  -25.3110    0.1703 C   0  0  0  0  0  0  0  0  0  0  0  0
   16.1091  -25.0748   -1.0045 C   0  0  0  0  0  0  0  0  0  0  0  0
   16.8392  -25.4313   -2.0671 N   0  0  0  0  0  0  0  0  0  0  0  0
   18.0351  -25.9016   -1.6437 C   0  0  0  0  0  0  0  0  0  0  0  0
   19.1286  -26.3950   -2.3239 C   0  0  0  0  0  0  0  0  0  0  0  0
   20.2285  -26.8186   -1.6040 C   0  0  0  0  0  0  0  0  0  0  0  0
   20.2511  -26.7574   -0.2317 C   0  0  0  0  0  0  0  0  0  0  0  0
   19.1477  -26.2605    0.4332 C   0  0  0  0  0  0  0  0  0  0  0  0
   18.0391  -25.8305   -0.2563 C   0  0  0  0  0  0  0  0  0  0  0  0
   15.6412  -26.5308    3.3120 C   0  0  0  0  0  0  0  0  0  0  0  0
   15.6114  -25.7919    4.3099 O   0  0  0  0  0  0  0  0  0  0  0  0
   16.2000  -29.9592    4.8168 C   0  0  0  0  0  0  0  0  0  0  0  0
   16.4314  -28.4913    4.6807 C   0  0  2  0  0  0  0  0  0  0  0  0
   15.9801  -27.9034    3.4614 N   0  0  0  0  0  0  0  0  0  0  0  0
   17.8449  -28.0988    5.0053 C   0  0  0  0  0  0  0  0  0  0  0  0
   18.7971  -28.3010    4.1828 O   0  0  0  0  0  0  0  0  0  0  0  0
   18.1356  -27.4884    6.2539 N   0  0  0  0  0  0  0  0  0  0  0  0
   19.4726  -27.0788    6.5920 C   0  0  1  0  0  0  0  0  0  0  0  0
   19.7629  -25.6570    6.1984 C   0  0  0  0  0  0  0  0  0  0  0  0
   18.7895  -24.6609    6.5966 C   0  0  0  0  0  0  0  0  0  0  0  0
   17.9209  -24.0998    5.7046 C   0  0  0  0  0  0  0  0  0  0  0  0
   16.9841  -23.1370    6.0914 C   0  0  0  0  0  0  0  0  0  0  0  0
   16.9151  -22.7285    7.3942 C   0  0  0  0  0  0  0  0  0  0  0  0
   17.7923  -23.2884    8.3205 C   0  0  0  0  0  0  0  0  0  0  0  0
   18.7191  -24.2486    7.9092 C   0  0  0  0  0  0  0  0  0  0  0  0
   19.7159  -27.1514    8.0615 C   0  0  0  0  0  0  0  0  0  0  0  0
   20.8771  -26.8934    8.4604 O   0  0  0  0  0  0  0  0  0  0  0  0
   18.7544  -27.4809    8.9979 O   0  0  0  0  0  0  0  0  0  0  0  0
  2  1  1  1
  2 13  1  0
  2  3  1  0
  3  4  1  0
  4 12  1  0
  4  5  2  0
  5  6  1  0
  7  6  1  0
  7  8  2  0
  9  8  1  0
 10  9  2  0
 11 12  2  0
 11 10  1  0
 12  7  1  0
 13 14  2  0
 16 15  1  6
 16 18  1  0
 17 13  1  0
 17 16  1  0
 18 20  1  0
 18 19  2  0
 20 21  1  0
 21 29  1  0
 21 22  1  1
 23 24  2  0
 23 22  1  0
 25 24  1  0
 26 25  2  0
 27 28  2  0
 27 26  1  0
 28 23  1  0
 29 30  2  0
 29 31  1  0
M  END
$$$$
