WAF.pdb
     RDKit          3D

 31 33  0  0  1  0  0  0  0  0999 V2000
   22.2192  -18.6145  -14.1801 N   0  0  0  0  0  0  0  0  0  0  0  0
   23.5897  -18.9100  -13.9660 C   0  0  1  0  0  0  0  0  0  0  0  0
   24.4606  -17.6958  -13.8754 C   0  0  0  0  0  0  0  0  0  0  0  0
   25.2720  -17.5866  -15.1090 C   0  0  0  0  0  0  0  0  0  0  0  0
   24.8208  -17.1143  -16.3479 C   0  0  0  0  0  0  0  0  0  0  0  0
   25.8269  -17.1214  -17.2293 N   0  0  0  0  0  0  0  0  0  0  0  0
   26.9433  -17.5849  -16.6217 C   0  0  0  0  0  0  0  0  0  0  0  0
   28.2274  -17.7928  -17.0796 C   0  0  0  0  0  0  0  0  0  0  0  0
   29.1744  -18.2964  -16.2094 C   0  0  0  0  0  0  0  0  0  0  0  0
   28.8606  -18.5918  -14.9049 C   0  0  0  0  0  0  0  0  0  0  0  0
   27.5701  -18.3773  -14.4631 C   0  0  0  0  0  0  0  0  0  0  0  0
   26.6067  -17.8762  -15.3058 C   0  0  0  0  0  0  0  0  0  0  0  0
   23.7049  -19.6877  -12.6844 C   0  0  0  0  0  0  0  0  0  0  0  0
   23.0821  -19.3500  -11.6643 O   0  0  0  0  0  0  0  0  0  0  0  0
   25.5890  -22.7994  -11.5729 C   0  0  0  0  0  0  0  0  0  0  0  0
   25.0792  -21.4020  -11.4538 C   0  0  2  0  0  0  0  0  0  0  0  0
   24.5471  -20.8326  -12.6491 N   0  0  0  0  0  0  0  0  0  0  0  0
   26.0630  -20.4854  -10.7835 C   0  0  0  0  0  0  0  0  0  0  0  0
   26.7475  -19.6421  -11.4500 O   0  0  0  0  0  0  0  0  0  0  0  0
   26.2405  -20.5532   -9.3763 N   0  0  0  0  0  0  0  0  0  0  0  0
   27.3875  -19.9635   -8.7387 C   0  0  1  0  0  0  0  0  0  0  0  0
   27.0184  -19.0736   -7.5845 C   0  0  0  0  0  0  0  0  0  0  0  0
   27.4415  -19.5070   -6.2686 C   0  0  0  0  0  0  0  0  0  0  0  0
   28.5061  -18.9413   -5.6271 C   0  0  0  0  0  0  0  0  0  0  0  0
   28.9134  -19.3633   -4.3582 C   0  0  0  0  0  0  0  0  0  0  0  0
   28.2432  -20.3694   -3.7197 C   0  0  0  0  0  0  0  0  0  0  0  0
   27.1541  -20.9601   -4.3566 C   0  0  0  0  0  0  0  0  0  0  0  0
   26.7668  -20.5206   -5.6243 C   0  0  0  0  0  0  0  0  0  0  0  0
   28.2992  -21.0012   -8.1765 C   0  0  0  0  0  0  0  0  0  0  0  0
   27.8279  -22.1545   -8.0291 O   0  0  0  0  0  0  0  0  0  0  0  0
   29.6130  -20.7737   -7.8131 O   0  0  0  0  0  0  0  0  0  0  0  0
  2  1  1  1
  2 13  1  0
  2  3  1  0
  3  4  1  0
  4 12  1  0
  4  5  2  0
  5  6  1  0
  7  6  1  0
  7  8  2  0
  9  8  1  0
 10  9  2  0
 11 12  2  0
 11 10  1  0
 12  7  1  0
 13 14  2  0
 16 15  1  6
 16 18  1  0
 17 13  1  0
 17 16  1  0
 18 20  1  0
 18 19  2  0
 20 21  1  0
 21 29  1  0
 21 22  1  1
 23 24  2  0
 23 22  1  0
 25 24  1  0
 26 25  2  0
 27 28  2  0
 27 26  1  0
 28 23  1  0
 29 30  2  0
 29 31  1  0
M  END
$$$$
