WAF.pdb
     RDKit          3D

 31 33  0  0  1  0  0  0  0  0999 V2000
   22.7867  -35.4333   -9.3186 N   0  0  0  0  0  0  0  0  0  0  0  0
   22.4625  -35.2773   -7.9467 C   0  0  1  0  0  0  0  0  0  0  0  0
   21.2411  -36.0341   -7.5266 C   0  0  0  0  0  0  0  0  0  0  0  0
   20.0454  -35.3970   -8.1236 C   0  0  0  0  0  0  0  0  0  0  0  0
   19.7312  -35.3597   -9.4879 C   0  0  0  0  0  0  0  0  0  0  0  0
   18.5627  -34.7336   -9.6670 N   0  0  0  0  0  0  0  0  0  0  0  0
   18.0798  -34.3469   -8.4638 C   0  0  0  0  0  0  0  0  0  0  0  0
   16.9339  -33.6711   -8.1006 C   0  0  0  0  0  0  0  0  0  0  0  0
   16.7098  -33.4048   -6.7640 C   0  0  0  0  0  0  0  0  0  0  0  0
   17.6031  -33.7987   -5.7975 C   0  0  0  0  0  0  0  0  0  0  0  0
   18.7452  -34.4744   -6.1788 C   0  0  0  0  0  0  0  0  0  0  0  0
   18.9947  -34.7546   -7.5012 C   0  0  0  0  0  0  0  0  0  0  0  0
   23.6335  -35.7539   -7.1331 C   0  0  0  0  0  0  0  0  0  0  0  0
   23.5714  -35.8348   -5.8952 O   0  0  0  0  0  0  0  0  0  0  0  0
   26.7739  -37.6394   -7.9773 C   0  0  0  0  0  0  0  0  0  0  0  0
   25.9747  -36.6811   -7.1589 C   0  0  2  0  0  0  0  0  0  0  0  0
   24.8332  -36.1178   -7.8035 N   0  0  0  0  0  0  0  0  0  0  0  0
   26.8279  -35.6306   -6.5062 C   0  0  0  0  0  0  0  0  0  0  0  0
   27.5295  -34.8205   -7.1956 O   0  0  0  0  0  0  0  0  0  0  0  0
   26.8591  -35.5309   -5.0901 N   0  0  0  0  0  0  0  0  0  0  0  0
   27.5841  -34.4773   -4.4312 C   0  0  1  0  0  0  0  0  0  0  0  0
   26.9665  -33.1234   -4.6457 C   0  0  0  0  0  0  0  0  0  0  0  0
   25.5579  -32.9948   -4.3330 C   0  0  0  0  0  0  0  0  0  0  0  0
   24.6165  -32.7933   -5.3015 C   0  0  0  0  0  0  0  0  0  0  0  0
   23.2581  -32.6673   -4.9966 C   0  0  0  0  0  0  0  0  0  0  0  0
   22.8341  -32.7444   -3.6992 C   0  0  0  0  0  0  0  0  0  0  0  0
   23.7784  -32.9497   -2.6956 C   0  0  0  0  0  0  0  0  0  0  0  0
   25.1297  -33.0725   -3.0260 C   0  0  0  0  0  0  0  0  0  0  0  0
   27.6237  -34.6766   -2.9538 C   0  0  0  0  0  0  0  0  0  0  0  0
   28.2670  -33.8345   -2.2822 O   0  0  0  0  0  0  0  0  0  0  0  0
   27.0040  -35.7172   -2.2882 O   0  0  0  0  0  0  0  0  0  0  0  0
  2  1  1  6
  2 13  1  0
  2  3  1  0
  3  4  1  0
  4 12  1  0
  4  5  2  0
  5  6  1  0
  7  6  1  0
  7  8  2  0
  9  8  1  0
 10  9  2  0
 11 12  2  0
 11 10  1  0
 12  7  1  0
 13 14  2  0
 16 15  1  6
 16 18  1  0
 17 13  1  0
 17 16  1  0
 18 20  1  0
 18 19  2  0
 20 21  1  0
 21 29  1  0
 21 22  1  1
 23 24  2  0
 23 22  1  0
 25 24  1  0
 26 25  2  0
 27 28  2  0
 27 26  1  0
 28 23  1  0
 29 30  2  0
 29 31  1  0
M  END
$$$$
