WAF.pdb
     RDKit          3D

 31 33  0  0  1  0  0  0  0  0999 V2000
   24.8005  -19.6810  -10.2596 N   0  0  0  0  0  0  0  0  0  0  0  0
   26.1852  -19.8613  -10.5081 C   0  0  1  0  0  0  0  0  0  0  0  0
   26.8038  -20.9605   -9.7018 C   0  0  0  0  0  0  0  0  0  0  0  0
   26.9279  -20.5197   -8.2938 C   0  0  0  0  0  0  0  0  0  0  0  0
   25.9183  -19.9204   -7.5303 C   0  0  0  0  0  0  0  0  0  0  0  0
   26.3661  -19.6842   -6.2922 N   0  0  0  0  0  0  0  0  0  0  0  0
   27.6482  -20.1059   -6.1982 C   0  0  0  0  0  0  0  0  0  0  0  0
   28.5545  -20.0870   -5.1589 C   0  0  0  0  0  0  0  0  0  0  0  0
   29.8229  -20.5919   -5.3685 C   0  0  0  0  0  0  0  0  0  0  0  0
   30.1940  -21.1085   -6.5863 C   0  0  0  0  0  0  0  0  0  0  0  0
   29.2739  -21.1197   -7.6157 C   0  0  0  0  0  0  0  0  0  0  0  0
   28.0040  -20.6252   -7.4366 C   0  0  0  0  0  0  0  0  0  0  0  0
   26.3608  -20.1717  -11.9687 C   0  0  0  0  0  0  0  0  0  0  0  0
   25.3837  -20.3480  -12.7149 O   0  0  0  0  0  0  0  0  0  0  0  0
   29.4248  -20.1734  -14.2442 C   0  0  0  0  0  0  0  0  0  0  0  0
   27.9814  -20.3099  -13.8913 C   0  0  2  0  0  0  0  0  0  0  0  0
   27.6771  -20.2634  -12.4980 N   0  0  0  0  0  0  0  0  0  0  0  0
   27.3310  -21.4817  -14.5704 C   0  0  0  0  0  0  0  0  0  0  0  0
   27.7913  -22.6634  -14.4443 O   0  0  0  0  0  0  0  0  0  0  0  0
   26.1773  -21.2775  -15.3726 N   0  0  0  0  0  0  0  0  0  0  0  0
   25.0245  -22.1299  -15.2541 C   0  0  1  0  0  0  0  0  0  0  0  0
   24.5246  -22.2398  -13.8404 C   0  0  0  0  0  0  0  0  0  0  0  0
   23.3666  -23.0829  -13.6243 C   0  0  0  0  0  0  0  0  0  0  0  0
   23.4211  -24.4396  -13.7707 C   0  0  0  0  0  0  0  0  0  0  0  0
   22.3014  -25.2505  -13.5636 C   0  0  0  0  0  0  0  0  0  0  0  0
   21.1058  -24.6938  -13.2036 C   0  0  0  0  0  0  0  0  0  0  0  0
   21.0286  -23.3114  -13.0488 C   0  0  0  0  0  0  0  0  0  0  0  0
   22.1615  -22.5230  -13.2613 C   0  0  0  0  0  0  0  0  0  0  0  0
   23.8749  -21.6158  -16.0529 C   0  0  0  0  0  0  0  0  0  0  0  0
   23.1609  -22.4662  -16.6368 O   0  0  0  0  0  0  0  0  0  0  0  0
   23.5521  -20.2787  -16.1875 O   0  0  0  0  0  0  0  0  0  0  0  0
  2  1  1  6
  2 13  1  0
  2  3  1  0
  3  4  1  0
  4 12  1  0
  4  5  2  0
  5  6  1  0
  7  6  1  0
  7  8  2  0
  9  8  1  0
 10  9  2  0
 11 12  2  0
 11 10  1  0
 12  7  1  0
 13 14  2  0
 16 15  1  1
 16 18  1  0
 17 13  1  0
 17 16  1  0
 18 20  1  0
 18 19  2  0
 20 21  1  0
 21 29  1  0
 21 22  1  1
 23 24  2  0
 23 22  1  0
 25 24  1  0
 26 25  2  0
 27 28  2  0
 27 26  1  0
 28 23  1  0
 29 30  2  0
 29 31  1  0
M  END
$$$$
