WAF.pdb
     RDKit          3D

 31 33  0  0  1  0  0  0  0  0999 V2000
   28.5675  -20.7792   -9.3147 N   0  0  0  0  0  0  0  0  0  0  0  0
   27.1540  -20.8948   -9.3117 C   0  0  1  0  0  0  0  0  0  0  0  0
   26.4609  -19.7912   -8.5748 C   0  0  0  0  0  0  0  0  0  0  0  0
   27.2308  -19.4644   -7.3531 C   0  0  0  0  0  0  0  0  0  0  0  0
   27.9782  -18.2989   -7.1424 C   0  0  0  0  0  0  0  0  0  0  0  0
   28.5144  -18.3197   -5.9171 N   0  0  0  0  0  0  0  0  0  0  0  0
   28.1513  -19.4652   -5.2953 C   0  0  0  0  0  0  0  0  0  0  0  0
   28.4370  -19.9692   -4.0439 C   0  0  0  0  0  0  0  0  0  0  0  0
   27.9196  -21.1982   -3.6840 C   0  0  0  0  0  0  0  0  0  0  0  0
   27.1312  -21.9216   -4.5456 C   0  0  0  0  0  0  0  0  0  0  0  0
   26.8551  -21.4018   -5.7946 C   0  0  0  0  0  0  0  0  0  0  0  0
   27.3550  -20.1809   -6.1804 C   0  0  0  0  0  0  0  0  0  0  0  0
   26.6826  -20.8969  -10.7394 C   0  0  0  0  0  0  0  0  0  0  0  0
   27.0759  -20.0438  -11.5520 O   0  0  0  0  0  0  0  0  0  0  0  0
   24.4640  -23.2030  -12.8074 C   0  0  0  0  0  0  0  0  0  0  0  0
   25.1206  -21.9170  -12.4309 C   0  0  2  0  0  0  0  0  0  0  0  0
   25.7675  -21.9006  -11.1592 N   0  0  0  0  0  0  0  0  0  0  0  0
   24.2154  -20.7323  -12.6170 C   0  0  0  0  0  0  0  0  0  0  0  0
   23.9994  -19.9050  -11.6720 O   0  0  0  0  0  0  0  0  0  0  0  0
   23.5822  -20.5218  -13.8704 N   0  0  0  0  0  0  0  0  0  0  0  0
   22.6788  -19.4211  -14.0754 C   0  0  1  0  0  0  0  0  0  0  0  0
   23.3657  -18.0851  -14.0147 C   0  0  0  0  0  0  0  0  0  0  0  0
   24.6730  -17.9979  -14.6327 C   0  0  0  0  0  0  0  0  0  0  0  0
   24.8672  -18.2664  -15.9575 C   0  0  0  0  0  0  0  0  0  0  0  0
   26.1303  -18.1836  -16.5507 C   0  0  0  0  0  0  0  0  0  0  0  0
   27.2186  -17.8257  -15.8047 C   0  0  0  0  0  0  0  0  0  0  0  0
   27.0424  -17.5475  -14.4510 C   0  0  0  0  0  0  0  0  0  0  0  0
   25.7702  -17.6372  -13.8819 C   0  0  0  0  0  0  0  0  0  0  0  0
   22.0299  -19.4839  -15.4167 C   0  0  0  0  0  0  0  0  0  0  0  0
   21.7396  -18.3914  -15.9611 O   0  0  0  0  0  0  0  0  0  0  0  0
   21.7329  -20.6550  -16.0876 O   0  0  0  0  0  0  0  0  0  0  0  0
  2  1  1  6
  2 13  1  0
  2  3  1  0
  3  4  1  0
  4 12  1  0
  4  5  2  0
  5  6  1  0
  7  6  1  0
  7  8  2  0
  9  8  1  0
 10  9  2  0
 11 12  2  0
 11 10  1  0
 12  7  1  0
 13 14  2  0
 16 15  1  1
 16 18  1  0
 17 13  1  0
 17 16  1  0
 18 20  1  0
 18 19  2  0
 20 21  1  0
 21 29  1  0
 21 22  1  6
 23 24  2  0
 23 22  1  0
 25 24  1  0
 26 25  2  0
 27 28  2  0
 27 26  1  0
 28 23  1  0
 29 30  2  0
 29 31  1  0
M  END
$$$$
