WAF.pdb
     RDKit          3D

 31 33  0  0  1  0  0  0  0  0999 V2000
   21.5891  -10.1884  -17.1585 N   0  0  0  0  0  0  0  0  0  0  0  0
   22.7691   -9.4418  -17.4071 C   0  0  1  0  0  0  0  0  0  0  0  0
   23.6161   -9.2313  -16.1908 C   0  0  0  0  0  0  0  0  0  0  0  0
   23.1098   -8.0578  -15.4433 C   0  0  0  0  0  0  0  0  0  0  0  0
   22.0985   -8.0768  -14.4747 C   0  0  0  0  0  0  0  0  0  0  0  0
   21.9201   -6.8461  -13.9816 N   0  0  0  0  0  0  0  0  0  0  0  0
   22.7809   -5.9976  -14.5895 C   0  0  0  0  0  0  0  0  0  0  0  0
   22.9958   -4.6423  -14.4524 C   0  0  0  0  0  0  0  0  0  0  0  0
   23.9597   -4.0357  -15.2338 C   0  0  0  0  0  0  0  0  0  0  0  0
   24.7021   -4.7547  -16.1390 C   0  0  0  0  0  0  0  0  0  0  0  0
   24.4739   -6.1107  -16.2631 C   0  0  0  0  0  0  0  0  0  0  0  0
   23.5222   -6.7421  -15.4983 C   0  0  0  0  0  0  0  0  0  0  0  0
   23.5770  -10.1761  -18.4409 C   0  0  0  0  0  0  0  0  0  0  0  0
   23.7967  -11.3948  -18.3448 O   0  0  0  0  0  0  0  0  0  0  0  0
   24.9171   -9.3253  -21.8771 C   0  0  0  0  0  0  0  0  0  0  0  0
   24.9370  -10.0154  -20.5542 C   0  0  2  0  0  0  0  0  0  0  0  0
   24.0961   -9.4518  -19.5486 N   0  0  0  0  0  0  0  0  0  0  0  0
   26.3323  -10.2557  -20.0512 C   0  0  0  0  0  0  0  0  0  0  0  0
   27.0003   -9.3349  -19.4768 O   0  0  0  0  0  0  0  0  0  0  0  0
   26.9278  -11.5343  -20.2150 N   0  0  0  0  0  0  0  0  0  0  0  0
   28.3171  -11.7554  -19.9140 C   0  0  1  0  0  0  0  0  0  0  0  0
   28.5198  -12.5811  -18.6741 C   0  0  0  0  0  0  0  0  0  0  0  0
   27.8553  -12.1217  -17.4716 C   0  0  0  0  0  0  0  0  0  0  0  0
   28.4113  -11.1829  -16.6504 C   0  0  0  0  0  0  0  0  0  0  0  0
   27.7687  -10.7431  -15.4895 C   0  0  0  0  0  0  0  0  0  0  0  0
   26.5478  -11.2520  -15.1441 C   0  0  0  0  0  0  0  0  0  0  0  0
   25.9628  -12.2109  -15.9682 C   0  0  0  0  0  0  0  0  0  0  0  0
   26.6249  -12.6337  -17.1228 C   0  0  0  0  0  0  0  0  0  0  0  0
   29.0077  -12.4930  -21.0109 C   0  0  0  0  0  0  0  0  0  0  0  0
   28.2980  -12.8873  -21.9673 O   0  0  0  0  0  0  0  0  0  0  0  0
   30.3624  -12.7649  -21.0383 O   0  0  0  0  0  0  0  0  0  0  0  0
  2  1  1  1
  2 13  1  0
  2  3  1  0
  3  4  1  0
  4 12  1  0
  4  5  2  0
  5  6  1  0
  7  6  1  0
  7  8  2  0
  9  8  1  0
 10  9  2  0
 11 12  2  0
 11 10  1  0
 12  7  1  0
 13 14  2  0
 16 15  1  6
 16 18  1  0
 17 13  1  0
 17 16  1  0
 18 20  1  0
 18 19  2  0
 20 21  1  0
 21 29  1  0
 21 22  1  1
 23 24  2  0
 23 22  1  0
 25 24  1  0
 26 25  2  0
 27 28  2  0
 27 26  1  0
 28 23  1  0
 29 30  2  0
 29 31  1  0
M  END
$$$$
