WAF.pdb
     RDKit          3D

 31 33  0  0  1  0  0  0  0  0999 V2000
   32.0153  -26.7765    1.9468 N   0  0  0  0  0  0  0  0  0  0  0  0
   32.8992  -25.7938    2.4612 C   0  0  1  0  0  0  0  0  0  0  0  0
   32.2356  -24.4869    2.7657 C   0  0  0  0  0  0  0  0  0  0  0  0
   31.6410  -23.9428    1.5237 C   0  0  0  0  0  0  0  0  0  0  0  0
   30.8064  -24.6395    0.6407 C   0  0  0  0  0  0  0  0  0  0  0  0
   30.4269  -23.8324   -0.3562 N   0  0  0  0  0  0  0  0  0  0  0  0
   30.9814  -22.6121   -0.1721 C   0  0  0  0  0  0  0  0  0  0  0  0
   30.9143  -21.4454   -0.9043 C   0  0  0  0  0  0  0  0  0  0  0  0
   31.6107  -20.3375   -0.4624 C   0  0  0  0  0  0  0  0  0  0  0  0
   32.3640  -20.3784    0.6858 C   0  0  0  0  0  0  0  0  0  0  0  0
   32.4199  -21.5546    1.4067 C   0  0  0  0  0  0  0  0  0  0  0  0
   31.7366  -22.6730    0.9922 C   0  0  0  0  0  0  0  0  0  0  0  0
   33.5132  -26.3329    3.7233 C   0  0  0  0  0  0  0  0  0  0  0  0
   32.8138  -26.8242    4.6246 O   0  0  0  0  0  0  0  0  0  0  0  0
   36.4444  -28.0141    4.7620 C   0  0  0  0  0  0  0  0  0  0  0  0
   35.6302  -26.7882    5.0089 C   0  0  2  0  0  0  0  0  0  0  0  0
   34.9250  -26.2749    3.8796 N   0  0  0  0  0  0  0  0  0  0  0  0
   36.4046  -25.7170    5.7232 C   0  0  0  0  0  0  0  0  0  0  0  0
   37.6786  -25.7245    5.7528 O   0  0  0  0  0  0  0  0  0  0  0  0
   35.7097  -24.6689    6.3827 N   0  0  0  0  0  0  0  0  0  0  0  0
   36.4161  -23.5927    7.0250 C   0  0  1  0  0  0  0  0  0  0  0  0
   36.0324  -22.2420    6.4875 C   0  0  0  0  0  0  0  0  0  0  0  0
   34.6183  -22.0002    6.2870 C   0  0  0  0  0  0  0  0  0  0  0  0
   33.8148  -21.5307    7.2864 C   0  0  0  0  0  0  0  0  0  0  0  0
   32.4500  -21.3004    7.0906 C   0  0  0  0  0  0  0  0  0  0  0  0
   31.8790  -21.5443    5.8726 C   0  0  0  0  0  0  0  0  0  0  0  0
   32.6810  -22.0236    4.8392 C   0  0  0  0  0  0  0  0  0  0  0  0
   34.0419  -22.2455    5.0600 C   0  0  0  0  0  0  0  0  0  0  0  0
   36.1322  -23.5435    8.4882 C   0  0  0  0  0  0  0  0  0  0  0  0
   36.7234  -22.6596    9.1541 O   0  0  0  0  0  0  0  0  0  0  0  0
   35.2700  -24.3995    9.1467 O   0  0  0  0  0  0  0  0  0  0  0  0
  2  1  1  1
  2 13  1  0
  2  3  1  0
  3  4  1  0
  4 12  1  0
  4  5  2  0
  5  6  1  0
  7  6  1  0
  7  8  2  0
  9  8  1  0
 10  9  2  0
 11 12  2  0
 11 10  1  0
 12  7  1  0
 13 14  2  0
 16 15  1  6
 16 18  1  0
 17 13  1  0
 17 16  1  0
 18 20  1  0
 18 19  2  0
 20 21  1  0
 21 29  1  0
 21 22  1  6
 23 24  2  0
 23 22  1  0
 25 24  1  0
 26 25  2  0
 27 28  2  0
 27 26  1  0
 28 23  1  0
 29 30  2  0
 29 31  1  0
M  END
$$$$
