WAF.pdb
     RDKit          3D

 31 33  0  0  1  0  0  0  0  0999 V2000
   24.5202  -21.5861  -14.2861 N   0  0  0  0  0  0  0  0  0  0  0  0
   24.3976  -21.2954  -12.9034 C   0  0  1  0  0  0  0  0  0  0  0  0
   23.2092  -21.9359  -12.2563 C   0  0  0  0  0  0  0  0  0  0  0  0
   21.9730  -21.3563  -12.8288 C   0  0  0  0  0  0  0  0  0  0  0  0
   21.3868  -21.7170  -14.0486 C   0  0  0  0  0  0  0  0  0  0  0  0
   20.2629  -21.0163  -14.2361 N   0  0  0  0  0  0  0  0  0  0  0  0
   20.0740  -20.1931  -13.1791 C   0  0  0  0  0  0  0  0  0  0  0  0
   19.0886  -19.2736  -12.8871 C   0  0  0  0  0  0  0  0  0  0  0  0
   19.1696  -18.5581  -11.7085 C   0  0  0  0  0  0  0  0  0  0  0  0
   20.2080  -18.7457  -10.8288 C   0  0  0  0  0  0  0  0  0  0  0  0
   21.1859  -19.6705  -11.1369 C   0  0  0  0  0  0  0  0  0  0  0  0
   21.1314  -20.3981  -12.3018 C   0  0  0  0  0  0  0  0  0  0  0  0
   25.6443  -21.7748  -12.2131 C   0  0  0  0  0  0  0  0  0  0  0  0
   25.7372  -22.9339  -11.7765 O   0  0  0  0  0  0  0  0  0  0  0  0
   28.8148  -19.9920  -11.0591 C   0  0  0  0  0  0  0  0  0  0  0  0
   27.5929  -20.8376  -10.9223 C   0  0  2  0  0  0  0  0  0  0  0  0
   26.7347  -20.8753  -12.0617 N   0  0  0  0  0  0  0  0  0  0  0  0
   26.8351  -20.5538   -9.6564 C   0  0  0  0  0  0  0  0  0  0  0  0
   25.5762  -20.7362   -9.5793 O   0  0  0  0  0  0  0  0  0  0  0  0
   27.5289  -20.0713   -8.5153 N   0  0  0  0  0  0  0  0  0  0  0  0
   26.9532  -20.1564   -7.1996 C   0  0  1  0  0  0  0  0  0  0  0  0
   27.4955  -21.3085   -6.4003 C   0  0  0  0  0  0  0  0  0  0  0  0
   28.8795  -21.2152   -5.9826 C   0  0  0  0  0  0  0  0  0  0  0  0
   29.8892  -21.8106   -6.6832 C   0  0  0  0  0  0  0  0  0  0  0  0
   31.2236  -21.7208   -6.2764 C   0  0  0  0  0  0  0  0  0  0  0  0
   31.5535  -21.0225   -5.1483 C   0  0  0  0  0  0  0  0  0  0  0  0
   30.5384  -20.4074   -4.4188 C   0  0  0  0  0  0  0  0  0  0  0  0
   29.2130  -20.5117   -4.8461 C   0  0  0  0  0  0  0  0  0  0  0  0
   27.2369  -18.9337   -6.3942 C   0  0  0  0  0  0  0  0  0  0  0  0
   26.6245  -18.8134   -5.3059 O   0  0  0  0  0  0  0  0  0  0  0  0
   28.1205  -17.9390   -6.7678 O   0  0  0  0  0  0  0  0  0  0  0  0
  2  1  1  6
  2 13  1  0
  2  3  1  0
  3  4  1  0
  4 12  1  0
  4  5  2  0
  5  6  1  0
  7  6  1  0
  7  8  2  0
  9  8  1  0
 10  9  2  0
 11 12  2  0
 11 10  1  0
 12  7  1  0
 13 14  2  0
 16 15  1  6
 16 18  1  0
 17 13  1  0
 17 16  1  0
 18 20  1  0
 18 19  2  0
 20 21  1  0
 21 29  1  0
 21 22  1  1
 23 24  2  0
 23 22  1  0
 25 24  1  0
 26 25  2  0
 27 28  2  0
 27 26  1  0
 28 23  1  0
 29 30  2  0
 29 31  1  0
M  END
$$$$
