IYL.pdb
     RDKit          3D

 29 29  0  0  1  0  0  0  0  0999 V2000
   27.5631  -21.9776  -20.4764 C   0  0  0  0  0  0  0  0  0  0  0  0
   28.1287  -22.3054  -19.1178 C   0  0  0  0  0  0  0  0  0  0  0  0
   27.0405  -22.3481  -18.0420 C   0  0  2  0  0  0  0  0  0  0  0  0
   26.2911  -21.0361  -17.9878 C   0  0  0  0  0  0  0  0  0  0  0  0
   27.7235  -22.6793  -16.7410 C   0  0  2  0  0  0  0  0  0  0  0  0
   28.3833  -23.9620  -16.8853 N   0  0  0  0  0  0  0  0  0  0  0  0
   26.8127  -22.6402  -15.5898 C   0  0  0  0  0  0  0  0  0  0  0  0
   25.9177  -23.5016  -15.4199 O   0  0  0  0  0  0  0  0  0  0  0  0
   23.5499  -20.2032   -7.7348 O   0  0  0  0  0  0  0  0  0  0  0  0
   24.3475  -20.3079   -8.8896 C   0  0  0  0  0  0  0  0  0  0  0  0
   24.0382  -19.5549  -10.0049 C   0  0  0  0  0  0  0  0  0  0  0  0
   24.8060  -19.6444  -11.1372 C   0  0  0  0  0  0  0  0  0  0  0  0
   25.9041  -20.4758  -11.2181 C   0  0  0  0  0  0  0  0  0  0  0  0
   26.6873  -20.6157  -12.4393 C   0  0  0  0  0  0  0  0  0  0  0  0
   26.0638  -21.5157  -13.4386 C   0  0  2  0  0  0  0  0  0  0  0  0
   26.9403  -21.6024  -14.6352 N   0  0  0  0  0  0  0  0  0  0  0  0
   24.7676  -21.1009  -13.9319 C   0  0  0  0  0  0  0  0  0  0  0  0
   24.7183  -20.0875  -14.7236 O   0  0  0  0  0  0  0  0  0  0  0  0
   26.1971  -21.2176  -10.1039 C   0  0  0  0  0  0  0  0  0  0  0  0
   25.4336  -21.1424   -8.9442 C   0  0  0  0  0  0  0  0  0  0  0  0
   20.8370  -19.8285  -16.5750 C   0  0  0  0  0  0  0  0  0  0  0  0
   20.5508  -21.1968  -15.9774 C   0  0  1  0  0  0  0  0  0  0  0  0
   20.0240  -22.0514  -17.1339 C   0  0  0  0  0  0  0  0  0  0  0  0
   21.7867  -21.8084  -15.3860 C   0  0  0  0  0  0  0  0  0  0  0  0
   22.2554  -21.0889  -14.1564 C   0  0  2  0  0  0  0  0  0  0  0  0
   23.5048  -21.6734  -13.6677 N   0  0  0  0  0  0  0  0  0  0  0  0
   21.2140  -20.9400  -13.1460 C   0  0  0  0  0  0  0  0  0  0  0  0
   21.3797  -21.4440  -11.8572 O   0  0  0  0  0  0  0  0  0  0  0  0
   20.1092  -20.3623  -13.3471 O   0  0  0  0  0  0  0  0  0  0  0  0
  2  1  1  0
  3  4  1  1
  3  2  1  0
  5  6  1  6
  5  3  1  0
  7  8  2  0
  7  5  1  0
  9 10  1  0
 10 20  2  0
 10 11  1  0
 11 12  2  0
 12 13  1  0
 13 14  1  0
 15 14  1  1
 15 16  1  0
 15 17  1  0
 16  7  1  0
 17 18  2  0
 19 13  2  0
 20 19  1  0
 22 21  1  6
 22 24  1  0
 23 22  1  0
 25 24  1  6
 25 27  1  0
 26 17  1  0
 26 25  1  0
 27 29  2  0
 27 28  1  0
M  END
$$$$
