IYL.pdb
     RDKit          3D

 29 29  0  0  1  0  0  0  0  0999 V2000
   25.4324  -21.2737  -18.9510 C   0  0  0  0  0  0  0  0  0  0  0  0
   26.4556  -21.7996  -17.9765 C   0  0  0  0  0  0  0  0  0  0  0  0
   25.9277  -21.7993  -16.5395 C   0  0  2  0  0  0  0  0  0  0  0  0
   25.4756  -20.4140  -16.1367 C   0  0  0  0  0  0  0  0  0  0  0  0
   27.0367  -22.3238  -15.6655 C   0  0  2  0  0  0  0  0  0  0  0  0
   27.3890  -23.6533  -16.1237 N   0  0  0  0  0  0  0  0  0  0  0  0
   26.7037  -22.2900  -14.2358 C   0  0  0  0  0  0  0  0  0  0  0  0
   25.8219  -23.0310  -13.7402 O   0  0  0  0  0  0  0  0  0  0  0  0
   27.2708  -19.5070   -5.7519 O   0  0  0  0  0  0  0  0  0  0  0  0
   27.4781  -19.7813   -7.1166 C   0  0  0  0  0  0  0  0  0  0  0  0
   28.4521  -20.6852   -7.4922 C   0  0  0  0  0  0  0  0  0  0  0  0
   28.6656  -20.9643   -8.8174 C   0  0  0  0  0  0  0  0  0  0  0  0
   27.9332  -20.3672   -9.8227 C   0  0  0  0  0  0  0  0  0  0  0  0
   28.1971  -20.6188  -11.2338 C   0  0  0  0  0  0  0  0  0  0  0  0
   27.0683  -21.2748  -11.9359 C   0  0  2  0  0  0  0  0  0  0  0  0
   27.3938  -21.3975  -13.3804 N   0  0  0  0  0  0  0  0  0  0  0  0
   25.8030  -20.5741  -11.8777 C   0  0  0  0  0  0  0  0  0  0  0  0
   25.6680  -19.5103  -12.5893 O   0  0  0  0  0  0  0  0  0  0  0  0
   26.9718  -19.4716   -9.4340 C   0  0  0  0  0  0  0  0  0  0  0  0
   26.7366  -19.1737   -8.0963 C   0  0  0  0  0  0  0  0  0  0  0  0
   21.5615  -18.8355  -13.8033 C   0  0  0  0  0  0  0  0  0  0  0  0
   21.5429  -20.2185  -13.1721 C   0  0  1  0  0  0  0  0  0  0  0  0
   20.8935  -21.1384  -14.2102 C   0  0  0  0  0  0  0  0  0  0  0  0
   22.9278  -20.6896  -12.8385 C   0  0  0  0  0  0  0  0  0  0  0  0
   23.3301  -20.3514  -11.4338 C   0  0  2  0  0  0  0  0  0  0  0  0
   24.6506  -20.9057  -11.1331 N   0  0  0  0  0  0  0  0  0  0  0  0
   22.2986  -20.6620  -10.4504 C   0  0  0  0  0  0  0  0  0  0  0  0
   22.5973  -21.3726   -9.2892 O   0  0  0  0  0  0  0  0  0  0  0  0
   21.0867  -20.3260  -10.5646 O   0  0  0  0  0  0  0  0  0  0  0  0
  2  1  1  0
  3  4  1  1
  3  2  1  0
  5  6  1  6
  5  3  1  0
  7  8  2  0
  7  5  1  0
  9 10  1  0
 10 20  2  0
 10 11  1  0
 11 12  2  0
 12 13  1  0
 13 14  1  0
 15 14  1  1
 15 16  1  0
 15 17  1  0
 16  7  1  0
 17 18  2  0
 19 13  2  0
 20 19  1  0
 22 21  1  6
 22 24  1  0
 23 22  1  0
 25 24  1  6
 25 27  1  0
 26 17  1  0
 26 25  1  0
 27 29  2  0
 27 28  1  0
M  END
$$$$
