IYL.pdb
     RDKit          3D

 29 29  0  0  1  0  0  0  0  0999 V2000
   25.7267  -21.5677  -20.0212 C   0  0  0  0  0  0  0  0  0  0  0  0
   26.0507  -21.2844  -18.5762 C   0  0  0  0  0  0  0  0  0  0  0  0
   24.8618  -21.5767  -17.6571 C   0  0  2  0  0  0  0  0  0  0  0  0
   23.6366  -20.8153  -18.1100 C   0  0  0  0  0  0  0  0  0  0  0  0
   25.2881  -21.2101  -16.2598 C   0  0  2  0  0  0  0  0  0  0  0  0
   26.5123  -21.9237  -15.9539 N   0  0  0  0  0  0  0  0  0  0  0  0
   24.2365  -21.4409  -15.2611 C   0  0  0  0  0  0  0  0  0  0  0  0
   24.0371  -22.5699  -14.7537 O   0  0  0  0  0  0  0  0  0  0  0  0
   26.5109  -21.4575   -8.9555 O   0  0  0  0  0  0  0  0  0  0  0  0
   25.5444  -21.0117   -9.8763 C   0  0  0  0  0  0  0  0  0  0  0  0
   25.9451  -20.3692  -11.0310 C   0  0  0  0  0  0  0  0  0  0  0  0
   25.0161  -19.9301  -11.9387 C   0  0  0  0  0  0  0  0  0  0  0  0
   23.6608  -20.1037  -11.7474 C   0  0  0  0  0  0  0  0  0  0  0  0
   22.6694  -19.5870  -12.6824 C   0  0  0  0  0  0  0  0  0  0  0  0
   22.3758  -20.5141  -13.8011 C   0  0  2  0  0  0  0  0  0  0  0  0
   23.4167  -20.3622  -14.8504 N   0  0  0  0  0  0  0  0  0  0  0  0
   21.1101  -20.3047  -14.4718 C   0  0  0  0  0  0  0  0  0  0  0  0
   20.8697  -19.1376  -14.9581 O   0  0  0  0  0  0  0  0  0  0  0  0
   23.2791  -20.7414  -10.5962 C   0  0  0  0  0  0  0  0  0  0  0  0
   24.2031  -21.1964   -9.6621 C   0  0  0  0  0  0  0  0  0  0  0  0
   19.0546  -23.2094  -18.2849 C   0  0  0  0  0  0  0  0  0  0  0  0
   19.3882  -22.0285  -17.3874 C   0  0  1  0  0  0  0  0  0  0  0  0
   19.4218  -20.8053  -18.3084 C   0  0  0  0  0  0  0  0  0  0  0  0
   18.3620  -21.8512  -16.3073 C   0  0  0  0  0  0  0  0  0  0  0  0
   18.7811  -20.8513  -15.2710 C   0  0  2  0  0  0  0  0  0  0  0  0
   20.0671  -21.2314  -14.6852 N   0  0  0  0  0  0  0  0  0  0  0  0
   17.7321  -20.5543  -14.3021 C   0  0  0  0  0  0  0  0  0  0  0  0
   17.9478  -20.7063  -12.9336 O   0  0  0  0  0  0  0  0  0  0  0  0
   16.5766  -20.1490  -14.6108 O   0  0  0  0  0  0  0  0  0  0  0  0
  2  1  1  0
  3  4  1  6
  3  2  1  0
  5  6  1  1
  5  3  1  0
  7  8  2  0
  7  5  1  0
  9 10  1  0
 10 20  2  0
 10 11  1  0
 11 12  2  0
 12 13  1  0
 13 14  1  0
 15 14  1  1
 15 16  1  0
 15 17  1  0
 16  7  1  0
 17 18  2  0
 19 13  2  0
 20 19  1  0
 22 21  1  6
 22 24  1  0
 23 22  1  0
 25 24  1  6
 25 27  1  0
 26 17  1  0
 26 25  1  0
 27 29  2  0
 27 28  1  0
M  END
$$$$
