IYL.pdb
     RDKit          3D

 29 29  0  0  1  0  0  0  0  0999 V2000
   29.2642  -18.4639  -16.6461 C   0  0  0  0  0  0  0  0  0  0  0  0
   28.0984  -19.3418  -16.2675 C   0  0  0  0  0  0  0  0  0  0  0  0
   27.5415  -18.9863  -14.8865 C   0  0  2  0  0  0  0  0  0  0  0  0
   28.6358  -19.0218  -13.8439 C   0  0  0  0  0  0  0  0  0  0  0  0
   26.4330  -19.9640  -14.5964 C   0  0  2  0  0  0  0  0  0  0  0  0
   25.4995  -19.9378  -15.7052 N   0  0  0  0  0  0  0  0  0  0  0  0
   25.7798  -19.7221  -13.3037 C   0  0  0  0  0  0  0  0  0  0  0  0
   25.1659  -18.6570  -13.0574 O   0  0  0  0  0  0  0  0  0  0  0  0
   19.5103  -19.5295  -13.8668 O   0  0  0  0  0  0  0  0  0  0  0  0
   20.6203  -19.9759  -13.1257 C   0  0  0  0  0  0  0  0  0  0  0  0
   21.5042  -20.8733  -13.6915 C   0  0  0  0  0  0  0  0  0  0  0  0
   22.5911  -21.3168  -12.9833 C   0  0  0  0  0  0  0  0  0  0  0  0
   22.8508  -20.8979  -11.6947 C   0  0  0  0  0  0  0  0  0  0  0  0
   23.9730  -21.4118  -10.9195 C   0  0  0  0  0  0  0  0  0  0  0  0
   25.1747  -20.5459  -10.9782 C   0  0  2  0  0  0  0  0  0  0  0  0
   25.8380  -20.7157  -12.2968 N   0  0  0  0  0  0  0  0  0  0  0  0
   26.1942  -20.8224   -9.9884 C   0  0  0  0  0  0  0  0  0  0  0  0
   26.6842  -22.0115   -9.9414 O   0  0  0  0  0  0  0  0  0  0  0  0
   21.9638  -20.0088  -11.1467 C   0  0  0  0  0  0  0  0  0  0  0  0
   20.8555  -19.5443  -11.8461 C   0  0  0  0  0  0  0  0  0  0  0  0
   29.0121  -20.5634   -5.3369 C   0  0  0  0  0  0  0  0  0  0  0  0
   27.8907  -19.5437   -5.4543 C   0  0  1  0  0  0  0  0  0  0  0  0
   28.3688  -18.3118   -4.6800 C   0  0  0  0  0  0  0  0  0  0  0  0
   27.6121  -19.1946   -6.8867 C   0  0  0  0  0  0  0  0  0  0  0  0
   26.9839  -20.3259   -7.6450 C   0  0  2  0  0  0  0  0  0  0  0  0
   26.7557  -19.9421   -9.0386 N   0  0  0  0  0  0  0  0  0  0  0  0
   25.8229  -20.8951   -6.9700 C   0  0  0  0  0  0  0  0  0  0  0  0
   25.8749  -22.1585   -6.3837 O   0  0  0  0  0  0  0  0  0  0  0  0
   24.7081  -20.3114   -6.8643 O   0  0  0  0  0  0  0  0  0  0  0  0
  2  1  1  0
  3  4  1  1
  3  2  1  0
  5  6  1  6
  5  3  1  0
  7  8  2  0
  7  5  1  0
  9 10  1  0
 10 20  2  0
 10 11  1  0
 11 12  2  0
 12 13  1  0
 13 14  1  0
 15 14  1  6
 15 16  1  0
 15 17  1  0
 16  7  1  0
 17 18  2  0
 19 13  2  0
 20 19  1  0
 22 21  1  6
 22 24  1  0
 23 22  1  0
 25 24  1  1
 25 27  1  0
 26 17  1  0
 26 25  1  0
 27 29  2  0
 27 28  1  0
M  END
$$$$
