IYL.pdb
     RDKit          3D

 29 29  0  0  1  0  0  0  0  0999 V2000
   21.0554  -20.6459  -15.8372 C   0  0  0  0  0  0  0  0  0  0  0  0
   21.4099  -20.4240  -14.3887 C   0  0  0  0  0  0  0  0  0  0  0  0
   21.5629  -21.7449  -13.6301 C   0  0  2  0  0  0  0  0  0  0  0  0
   20.2561  -22.5051  -13.6122 C   0  0  0  0  0  0  0  0  0  0  0  0
   22.0525  -21.4018  -12.2476 C   0  0  2  0  0  0  0  0  0  0  0  0
   21.0662  -20.5502  -11.6123 N   0  0  0  0  0  0  0  0  0  0  0  0
   23.3952  -20.8071  -12.2468 C   0  0  0  0  0  0  0  0  0  0  0  0
   23.5753  -19.5708  -12.1410 O   0  0  0  0  0  0  0  0  0  0  0  0
   26.8012  -19.7162   -6.1798 O   0  0  0  0  0  0  0  0  0  0  0  0
   26.8086  -20.2369   -7.4873 C   0  0  0  0  0  0  0  0  0  0  0  0
   25.6206  -20.3640   -8.1795 C   0  0  0  0  0  0  0  0  0  0  0  0
   25.6109  -20.8682   -9.4544 C   0  0  0  0  0  0  0  0  0  0  0  0
   26.7648  -21.2671  -10.0969 C   0  0  0  0  0  0  0  0  0  0  0  0
   26.7505  -21.8567  -11.4297 C   0  0  0  0  0  0  0  0  0  0  0  0
   25.9132  -21.1070  -12.3962 C   0  0  2  0  0  0  0  0  0  0  0  0
   24.5290  -21.6462  -12.3679 N   0  0  0  0  0  0  0  0  0  0  0  0
   26.3345  -21.1818  -13.7791 C   0  0  0  0  0  0  0  0  0  0  0  0
   25.9675  -22.2050  -14.4681 O   0  0  0  0  0  0  0  0  0  0  0  0
   27.9352  -21.1362   -9.3964 C   0  0  0  0  0  0  0  0  0  0  0  0
   27.9695  -20.6266   -8.1032 C   0  0  0  0  0  0  0  0  0  0  0  0
   25.4520  -17.6668  -17.6397 C   0  0  0  0  0  0  0  0  0  0  0  0
   24.7553  -18.9258  -17.1490 C   0  0  1  0  0  0  0  0  0  0  0  0
   25.0593  -20.0017  -18.1957 C   0  0  0  0  0  0  0  0  0  0  0  0
   25.2590  -19.3424  -15.7984 C   0  0  0  0  0  0  0  0  0  0  0  0
   26.7031  -19.7464  -15.8201 C   0  0  2  0  0  0  0  0  0  0  0  0
   27.1104  -20.2570  -14.5105 N   0  0  0  0  0  0  0  0  0  0  0  0
   27.5784  -18.7199  -16.3749 C   0  0  0  0  0  0  0  0  0  0  0  0
   28.1716  -18.8748  -17.6265 O   0  0  0  0  0  0  0  0  0  0  0  0
   27.8650  -17.6398  -15.7868 O   0  0  0  0  0  0  0  0  0  0  0  0
  2  1  1  0
  3  4  1  1
  3  2  1  0
  5  6  1  6
  5  3  1  0
  7  8  2  0
  7  5  1  0
  9 10  1  0
 10 20  2  0
 10 11  1  0
 11 12  2  0
 12 13  1  0
 13 14  1  0
 15 14  1  1
 15 16  1  0
 15 17  1  0
 16  7  1  0
 17 18  2  0
 19 13  2  0
 20 19  1  0
 22 21  1  6
 22 24  1  0
 23 22  1  0
 25 24  1  1
 25 27  1  0
 26 17  1  0
 26 25  1  0
 27 29  2  0
 27 28  1  0
M  END
$$$$
