IYL.pdb
     RDKit          3D

 29 29  0  0  1  0  0  0  0  0999 V2000
   28.1357  -17.5376  -16.6789 C   0  0  0  0  0  0  0  0  0  0  0  0
   28.5216  -18.2927  -15.4323 C   0  0  0  0  0  0  0  0  0  0  0  0
   27.3494  -19.0998  -14.8684 C   0  0  2  0  0  0  0  0  0  0  0  0
   26.1615  -18.2028  -14.6035 C   0  0  0  0  0  0  0  0  0  0  0  0
   27.8479  -19.7840  -13.6225 C   0  0  2  0  0  0  0  0  0  0  0  0
   28.9981  -20.5929  -13.9751 N   0  0  0  0  0  0  0  0  0  0  0  0
   26.8043  -20.5565  -12.9367 C   0  0  0  0  0  0  0  0  0  0  0  0
   26.5188  -21.7311  -13.2696 O   0  0  0  0  0  0  0  0  0  0  0  0
   29.6030  -20.9346   -6.6134 O   0  0  0  0  0  0  0  0  0  0  0  0
   28.4346  -20.7294   -7.3706 C   0  0  0  0  0  0  0  0  0  0  0  0
   28.1619  -21.5538   -8.4443 C   0  0  0  0  0  0  0  0  0  0  0  0
   27.0273  -21.3679   -9.1911 C   0  0  0  0  0  0  0  0  0  0  0  0
   26.1192  -20.3670   -8.9136 C   0  0  0  0  0  0  0  0  0  0  0  0
   24.9424  -20.1313   -9.7405 C   0  0  0  0  0  0  0  0  0  0  0  0
   25.0543  -20.7077  -11.1017 C   0  0  2  0  0  0  0  0  0  0  0  0
   26.0921  -19.9670  -11.8645 N   0  0  0  0  0  0  0  0  0  0  0  0
   23.8544  -20.6436  -11.9090 C   0  0  0  0  0  0  0  0  0  0  0  0
   23.6099  -19.5503  -12.5424 O   0  0  0  0  0  0  0  0  0  0  0  0
   26.4046  -19.5564   -7.8463 C   0  0  0  0  0  0  0  0  0  0  0  0
   27.5483  -19.7267   -7.0740 C   0  0  0  0  0  0  0  0  0  0  0  0
   20.7384  -21.5433  -15.9894 C   0  0  0  0  0  0  0  0  0  0  0  0
   20.3738  -22.4529  -14.8270 C   0  0  1  0  0  0  0  0  0  0  0  0
   19.9814  -23.7925  -15.4571 C   0  0  0  0  0  0  0  0  0  0  0  0
   21.5267  -22.6282  -13.8830 C   0  0  0  0  0  0  0  0  0  0  0  0
   21.7157  -21.4481  -12.9769 C   0  0  2  0  0  0  0  0  0  0  0  0
   22.8830  -21.6463  -12.1168 N   0  0  0  0  0  0  0  0  0  0  0  0
   20.4971  -21.0628  -12.2739 C   0  0  0  0  0  0  0  0  0  0  0  0
   19.5257  -20.2753  -12.8894 O   0  0  0  0  0  0  0  0  0  0  0  0
   20.2284  -21.3975  -11.0863 O   0  0  0  0  0  0  0  0  0  0  0  0
  2  1  1  0
  3  4  1  1
  3  2  1  0
  5  6  1  6
  5  3  1  0
  7  8  2  0
  7  5  1  0
  9 10  1  0
 10 20  2  0
 10 11  1  0
 11 12  2  0
 12 13  1  0
 13 14  1  0
 15 14  1  1
 15 16  1  0
 15 17  1  0
 16  7  1  0
 17 18  2  0
 19 13  2  0
 20 19  1  0
 22 21  1  6
 22 24  1  0
 23 22  1  0
 25 24  1  1
 25 27  1  0
 26 17  1  0
 26 25  1  0
 27 29  2  0
 27 28  1  0
M  END
$$$$
