IYL.pdb
     RDKit          3D

 29 29  0  0  1  0  0  0  0  0999 V2000
   21.9680  -15.4343  -17.6168 C   0  0  0  0  0  0  0  0  0  0  0  0
   20.5801  -14.9276  -17.3164 C   0  0  0  0  0  0  0  0  0  0  0  0
   20.4723  -13.4125  -17.5069 C   0  0  2  0  0  0  0  0  0  0  0  0
   21.5179  -12.6949  -16.6837 C   0  0  0  0  0  0  0  0  0  0  0  0
   19.0679  -13.0222  -17.1273 C   0  0  2  0  0  0  0  0  0  0  0  0
   18.1465  -13.8962  -17.8265 N   0  0  0  0  0  0  0  0  0  0  0  0
   18.7851  -11.6006  -17.3627 C   0  0  0  0  0  0  0  0  0  0  0  0
   18.9842  -11.0579  -18.4753 O   0  0  0  0  0  0  0  0  0  0  0  0
   12.7395  -11.8898  -13.8708 O   0  0  0  0  0  0  0  0  0  0  0  0
   13.6849  -11.2055  -14.6573 C   0  0  0  0  0  0  0  0  0  0  0  0
   14.5253  -11.9174  -15.4902 C   0  0  0  0  0  0  0  0  0  0  0  0
   15.4507  -11.2656  -16.2637 C   0  0  0  0  0  0  0  0  0  0  0  0
   15.5870   -9.8927  -16.2485 C   0  0  0  0  0  0  0  0  0  0  0  0
   16.6082   -9.2024  -17.0261 C   0  0  0  0  0  0  0  0  0  0  0  0
   17.9753   -9.3621  -16.4760 C   0  0  2  0  0  0  0  0  0  0  0  0
   18.2707  -10.8085  -16.3079 N   0  0  0  0  0  0  0  0  0  0  0  0
   18.2016   -8.7628  -15.1778 C   0  0  0  0  0  0  0  0  0  0  0  0
   18.4573   -9.5442  -14.1877 O   0  0  0  0  0  0  0  0  0  0  0  0
   14.7470   -9.2007  -15.4159 C   0  0  0  0  0  0  0  0  0  0  0  0
   13.8002   -9.8400  -14.6233 C   0  0  0  0  0  0  0  0  0  0  0  0
   22.2616   -5.4611  -15.1906 C   0  0  0  0  0  0  0  0  0  0  0  0
   21.8841   -6.7120  -14.4133 C   0  0  1  0  0  0  0  0  0  0  0  0
   21.7010   -6.2579  -12.9621 C   0  0  0  0  0  0  0  0  0  0  0  0
   20.6210   -7.3268  -14.9401 C   0  0  0  0  0  0  0  0  0  0  0  0
   19.3879   -6.6867  -14.3753 C   0  0  2  0  0  0  0  0  0  0  0  0
   18.1907   -7.3949  -14.8298 N   0  0  0  0  0  0  0  0  0  0  0  0
   19.3523   -5.2411  -14.5665 C   0  0  0  0  0  0  0  0  0  0  0  0
   19.6474   -4.3661  -13.5225 O   0  0  0  0  0  0  0  0  0  0  0  0
   19.0589   -4.6779  -15.6581 O   0  0  0  0  0  0  0  0  0  0  0  0
  2  1  1  0
  3  4  1  1
  3  2  1  0
  5  6  1  6
  5  3  1  0
  7  8  2  0
  7  5  1  0
  9 10  1  0
 10 20  2  0
 10 11  1  0
 11 12  2  0
 12 13  1  0
 13 14  1  0
 15 14  1  1
 15 16  1  0
 15 17  1  0
 16  7  1  0
 17 18  2  0
 19 13  2  0
 20 19  1  0
 22 21  1  6
 22 24  1  0
 23 22  1  0
 25 24  1  6
 25 27  1  0
 26 17  1  0
 26 25  1  0
 27 29  2  0
 27 28  1  0
M  END
$$$$
