IYL.pdb
     RDKit          3D

 29 29  0  0  1  0  0  0  0  0999 V2000
   29.1273  -17.2460  -16.6448 C   0  0  0  0  0  0  0  0  0  0  0  0
   28.0130  -18.2570  -16.5492 C   0  0  0  0  0  0  0  0  0  0  0  0
   27.2934  -18.1870  -15.1998 C   0  0  2  0  0  0  0  0  0  0  0  0
   28.2743  -18.3567  -14.0619 C   0  0  0  0  0  0  0  0  0  0  0  0
   26.2317  -19.2554  -15.2137 C   0  0  2  0  0  0  0  0  0  0  0  0
   25.3882  -19.0457  -16.3739 N   0  0  0  0  0  0  0  0  0  0  0  0
   25.4649  -19.3171  -13.9629 C   0  0  0  0  0  0  0  0  0  0  0  0
   24.6523  -18.4201  -13.6357 O   0  0  0  0  0  0  0  0  0  0  0  0
   19.0370  -20.0600  -14.3258 O   0  0  0  0  0  0  0  0  0  0  0  0
   20.2512  -20.4807  -13.7518 C   0  0  0  0  0  0  0  0  0  0  0  0
   20.4207  -20.4117  -12.3832 C   0  0  0  0  0  0  0  0  0  0  0  0
   21.5969  -20.8188  -11.8083 C   0  0  0  0  0  0  0  0  0  0  0  0
   22.6500  -21.3074  -12.5538 C   0  0  0  0  0  0  0  0  0  0  0  0
   23.9216  -21.6865  -11.9510 C   0  0  0  0  0  0  0  0  0  0  0  0
   24.8739  -20.5574  -11.8262 C   0  0  2  0  0  0  0  0  0  0  0  0
   25.6399  -20.4194  -13.0919 N   0  0  0  0  0  0  0  0  0  0  0  0
   25.8661  -20.6880  -10.7802 C   0  0  0  0  0  0  0  0  0  0  0  0
   26.7679  -21.5966  -10.9127 O   0  0  0  0  0  0  0  0  0  0  0  0
   22.4670  -21.3682  -13.9104 C   0  0  0  0  0  0  0  0  0  0  0  0
   21.2828  -20.9621  -14.5154 C   0  0  0  0  0  0  0  0  0  0  0  0
   29.2743  -20.6016   -6.5658 C   0  0  0  0  0  0  0  0  0  0  0  0
   27.9766  -19.8318   -6.3796 C   0  0  1  0  0  0  0  0  0  0  0  0
   28.3315  -18.6289   -5.5006 C   0  0  0  0  0  0  0  0  0  0  0  0
   27.4115  -19.3799   -7.6940 C   0  0  0  0  0  0  0  0  0  0  0  0
   26.6319  -20.4568   -8.3882 C   0  0  2  0  0  0  0  0  0  0  0  0
   25.9977  -19.9296   -9.5971 N   0  0  0  0  0  0  0  0  0  0  0  0
   25.7362  -21.1837   -7.4955 C   0  0  0  0  0  0  0  0  0  0  0  0
   26.2265  -22.1084   -6.5751 O   0  0  0  0  0  0  0  0  0  0  0  0
   24.4813  -21.0429   -7.4824 O   0  0  0  0  0  0  0  0  0  0  0  0
  2  1  1  0
  3  4  1  1
  3  2  1  0
  5  6  1  6
  5  3  1  0
  7  8  2  0
  7  5  1  0
  9 10  1  0
 10 20  2  0
 10 11  1  0
 11 12  2  0
 12 13  1  0
 13 14  1  0
 15 14  1  6
 15 16  1  0
 15 17  1  0
 16  7  1  0
 17 18  2  0
 19 13  2  0
 20 19  1  0
 22 21  1  6
 22 24  1  0
 23 22  1  0
 25 24  1  1
 25 27  1  0
 26 17  1  0
 26 25  1  0
 27 29  2  0
 27 28  1  0
M  END
$$$$
