IYL.pdb
     RDKit          3D

 29 29  0  0  1  0  0  0  0  0999 V2000
   27.0416  -19.7157  -17.7195 C   0  0  0  0  0  0  0  0  0  0  0  0
   27.3265  -20.4984  -16.4627 C   0  0  0  0  0  0  0  0  0  0  0  0
   26.8282  -19.7701  -15.2118 C   0  0  2  0  0  0  0  0  0  0  0  0
   27.3745  -18.3613  -15.1607 C   0  0  0  0  0  0  0  0  0  0  0  0
   27.2491  -20.5982  -14.0261 C   0  0  2  0  0  0  0  0  0  0  0  0
   26.8806  -21.9773  -14.2786 N   0  0  0  0  0  0  0  0  0  0  0  0
   26.7114  -20.0945  -12.7559 C   0  0  0  0  0  0  0  0  0  0  0  0
   26.7164  -18.8740  -12.4686 O   0  0  0  0  0  0  0  0  0  0  0  0
   20.2544  -19.1315  -14.0086 O   0  0  0  0  0  0  0  0  0  0  0  0
   21.2323  -19.6203  -13.1224 C   0  0  0  0  0  0  0  0  0  0  0  0
   21.9543  -20.7492  -13.4559 C   0  0  0  0  0  0  0  0  0  0  0  0
   22.9114  -21.2373  -12.6042 C   0  0  0  0  0  0  0  0  0  0  0  0
   23.1950  -20.6377  -11.3944 C   0  0  0  0  0  0  0  0  0  0  0  0
   24.1710  -21.1875  -10.4621 C   0  0  0  0  0  0  0  0  0  0  0  0
   25.5072  -20.5543  -10.5670 C   0  0  2  0  0  0  0  0  0  0  0  0
   26.1673  -21.0060  -11.8192 N   0  0  0  0  0  0  0  0  0  0  0  0
   26.4341  -20.8684   -9.5004 C   0  0  0  0  0  0  0  0  0  0  0  0
   26.7490  -22.1028   -9.3172 O   0  0  0  0  0  0  0  0  0  0  0  0
   22.4692  -19.5196  -11.0772 C   0  0  0  0  0  0  0  0  0  0  0  0
   21.4946  -19.0058  -11.9256 C   0  0  0  0  0  0  0  0  0  0  0  0
   29.5220  -20.5117   -4.8907 C   0  0  0  0  0  0  0  0  0  0  0  0
   28.3863  -19.5211   -5.0910 C   0  0  1  0  0  0  0  0  0  0  0  0
   28.8194  -18.2430   -4.3667 C   0  0  0  0  0  0  0  0  0  0  0  0
   28.1433  -19.2495   -6.5464 C   0  0  0  0  0  0  0  0  0  0  0  0
   27.3495  -20.3344   -7.2116 C   0  0  2  0  0  0  0  0  0  0  0  0
   27.0729  -19.9837   -8.6051 N   0  0  0  0  0  0  0  0  0  0  0  0
   26.1811  -20.7457   -6.4414 C   0  0  0  0  0  0  0  0  0  0  0  0
   26.2401  -21.8214   -5.5571 O   0  0  0  0  0  0  0  0  0  0  0  0
   25.0533  -20.1817   -6.5095 O   0  0  0  0  0  0  0  0  0  0  0  0
  2  1  1  0
  3  4  1  1
  3  2  1  0
  5  6  1  6
  5  3  1  0
  7  8  2  0
  7  5  1  0
  9 10  1  0
 10 20  2  0
 10 11  1  0
 11 12  2  0
 12 13  1  0
 13 14  1  0
 15 14  1  1
 15 16  1  0
 15 17  1  0
 16  7  1  0
 17 18  2  0
 19 13  2  0
 20 19  1  0
 22 21  1  6
 22 24  1  0
 23 22  1  0
 25 24  1  1
 25 27  1  0
 26 17  1  0
 26 25  1  0
 27 29  2  0
 27 28  1  0
M  END
$$$$
