IYL.pdb
     RDKit          3D

 29 29  0  0  1  0  0  0  0  0999 V2000
   20.4869  -18.5651  -17.3126 C   0  0  0  0  0  0  0  0  0  0  0  0
   21.9297  -18.8295  -17.6612 C   0  0  0  0  0  0  0  0  0  0  0  0
   22.6409  -19.6367  -16.5721 C   0  0  2  0  0  0  0  0  0  0  0  0
   22.4941  -18.9634  -15.2264 C   0  0  0  0  0  0  0  0  0  0  0  0
   24.0794  -19.7737  -16.9975 C   0  0  2  0  0  0  0  0  0  0  0  0
   24.1118  -20.4130  -18.2982 N   0  0  0  0  0  0  0  0  0  0  0  0
   24.9060  -20.4724  -16.0051 C   0  0  0  0  0  0  0  0  0  0  0  0
   24.8337  -21.7123  -15.8333 O   0  0  0  0  0  0  0  0  0  0  0  0
   31.9812  -21.9551  -10.8602 O   0  0  0  0  0  0  0  0  0  0  0  0
   30.9944  -21.3925  -11.6909 C   0  0  0  0  0  0  0  0  0  0  0  0
   30.6165  -22.0492  -12.8454 C   0  0  0  0  0  0  0  0  0  0  0  0
   29.6557  -21.5150  -13.6646 C   0  0  0  0  0  0  0  0  0  0  0  0
   29.0310  -20.3176  -13.3830 C   0  0  0  0  0  0  0  0  0  0  0  0
   28.0514  -19.7196  -14.2813 C   0  0  0  0  0  0  0  0  0  0  0  0
   26.7281  -20.3863  -14.2373 C   0  0  2  0  0  0  0  0  0  0  0  0
   25.8170  -19.7333  -15.2125 N   0  0  0  0  0  0  0  0  0  0  0  0
   26.0422  -20.3324  -12.9636 C   0  0  0  0  0  0  0  0  0  0  0  0
   25.4937  -19.2204  -12.6192 O   0  0  0  0  0  0  0  0  0  0  0  0
   29.4179  -19.6774  -12.2349 C   0  0  0  0  0  0  0  0  0  0  0  0
   30.3890  -20.2005  -11.3884 C   0  0  0  0  0  0  0  0  0  0  0  0
   25.2844  -21.0201   -7.6301 C   0  0  0  0  0  0  0  0  0  0  0  0
   25.2788  -19.8513   -8.6024 C   0  0  1  0  0  0  0  0  0  0  0  0
   25.9974  -18.7083   -7.8795 C   0  0  0  0  0  0  0  0  0  0  0  0
   25.9835  -20.1963   -9.8813 C   0  0  0  0  0  0  0  0  0  0  0  0
   25.2016  -21.1529  -10.7316 C   0  0  2  0  0  0  0  0  0  0  0  0
   25.8741  -21.3632  -12.0142 N   0  0  0  0  0  0  0  0  0  0  0  0
   23.7878  -20.8084  -10.8321 C   0  0  0  0  0  0  0  0  0  0  0  0
   22.8272  -21.4661  -10.0658 O   0  0  0  0  0  0  0  0  0  0  0  0
   23.3289  -19.9155  -11.5981 O   0  0  0  0  0  0  0  0  0  0  0  0
  2  1  1  0
  3  4  1  1
  3  2  1  0
  5  6  1  6
  5  3  1  0
  7  8  2  0
  7  5  1  0
  9 10  1  0
 10 20  2  0
 10 11  1  0
 11 12  2  0
 12 13  1  0
 13 14  1  0
 15 14  1  1
 15 16  1  0
 15 17  1  0
 16  7  1  0
 17 18  2  0
 19 13  2  0
 20 19  1  0
 22 21  1  1
 22 24  1  0
 23 22  1  0
 25 24  1  6
 25 27  1  0
 26 17  1  0
 26 25  1  0
 27 29  2  0
 27 28  1  0
M  END
$$$$
