IYL.pdb
     RDKit          3D

 29 29  0  0  1  0  0  0  0  0999 V2000
   11.1756  -14.2562  -10.7958 C   0  0  0  0  0  0  0  0  0  0  0  0
   11.2222  -15.4410   -9.8645 C   0  0  0  0  0  0  0  0  0  0  0  0
    9.8833  -15.6630   -9.1564 C   0  0  2  0  0  0  0  0  0  0  0  0
    9.5017  -14.4477   -8.3421 C   0  0  0  0  0  0  0  0  0  0  0  0
   10.0341  -16.9017   -8.3128 C   0  0  2  0  0  0  0  0  0  0  0  0
   10.3311  -18.0176   -9.1893 N   0  0  0  0  0  0  0  0  0  0  0  0
    8.8708  -17.1542   -7.4530 C   0  0  0  0  0  0  0  0  0  0  0  0
    7.6959  -17.0768   -7.8836 O   0  0  0  0  0  0  0  0  0  0  0  0
    9.9806  -23.8405   -5.7822 O   0  0  0  0  0  0  0  0  0  0  0  0
    9.2653  -22.6285   -5.7890 C   0  0  0  0  0  0  0  0  0  0  0  0
    9.9203  -21.4463   -5.5059 C   0  0  0  0  0  0  0  0  0  0  0  0
    9.2382  -20.2570   -5.5097 C   0  0  0  0  0  0  0  0  0  0  0  0
    7.8893  -20.1831   -5.7899 C   0  0  0  0  0  0  0  0  0  0  0  0
    7.1503  -18.9280   -5.7380 C   0  0  0  0  0  0  0  0  0  0  0  0
    7.9387  -17.8032   -5.1808 C   0  0  2  0  0  0  0  0  0  0  0  0
    9.0702  -17.4972   -6.0939 N   0  0  0  0  0  0  0  0  0  0  0  0
    8.5355  -18.0395   -3.8833 C   0  0  0  0  0  0  0  0  0  0  0  0
    9.8185  -18.1108   -3.8121 O   0  0  0  0  0  0  0  0  0  0  0  0
    7.2533  -21.3647   -6.0672 C   0  0  0  0  0  0  0  0  0  0  0  0
    7.9246  -22.5824   -6.0704 C   0  0  0  0  0  0  0  0  0  0  0  0
   11.8219  -19.7816   -0.4659 C   0  0  0  0  0  0  0  0  0  0  0  0
   10.6515  -19.7855   -1.4363 C   0  0  1  0  0  0  0  0  0  0  0  0
    9.5968  -20.7017   -0.8088 C   0  0  0  0  0  0  0  0  0  0  0  0
   10.1011  -18.4047   -1.6399 C   0  0  0  0  0  0  0  0  0  0  0  0
    8.6262  -18.3266   -1.3790 C   0  0  2  0  0  0  0  0  0  0  0  0
    7.8908  -18.2000   -2.6379 N   0  0  0  0  0  0  0  0  0  0  0  0
    8.2739  -17.3405   -0.3637 C   0  0  0  0  0  0  0  0  0  0  0  0
    8.5170  -17.5763    0.9883 O   0  0  0  0  0  0  0  0  0  0  0  0
    7.7347  -16.2266   -0.6150 O   0  0  0  0  0  0  0  0  0  0  0  0
  2  1  1  0
  3  4  1  1
  3  2  1  0
  5  6  1  6
  5  3  1  0
  7  8  2  0
  7  5  1  0
  9 10  1  0
 10 20  2  0
 10 11  1  0
 11 12  2  0
 12 13  1  0
 13 14  1  0
 15 14  1  6
 15 16  1  0
 15 17  1  0
 16  7  1  0
 17 18  2  0
 19 13  2  0
 20 19  1  0
 22 21  1  1
 22 24  1  0
 23 22  1  0
 25 24  1  6
 25 27  1  0
 26 17  1  0
 26 25  1  0
 27 29  2  0
 27 28  1  0
M  END
$$$$
