GQK.pdb
     RDKit          3D

 23 22  0  0  1  0  0  0  0  0999 V2000
    8.3170  -12.8969   18.5726 N   0  0  0  0  0  0  0  0  0  0  0  0
    7.6057  -13.7825   19.4384 C   0  0  0  0  0  0  0  0  0  0  0  0
    8.1519  -13.8397   20.8118 C   0  0  0  0  0  0  0  0  0  0  0  0
    9.2916  -13.3281   20.9927 O   0  0  0  0  0  0  0  0  0  0  0  0
    7.5124  -13.6466   26.7603 N   0  0  0  0  0  0  0  0  0  0  0  0
    6.6654  -12.8823   25.9397 C   0  0  0  0  0  0  0  0  0  0  0  0
    6.1556  -11.8160   26.3491 O   0  0  0  0  0  0  0  0  0  0  0  0
    6.3622  -13.3382   24.5588 C   0  0  0  0  0  0  0  0  0  0  0  0
    7.0826  -14.6267   24.2392 C   0  0  0  0  0  0  0  0  0  0  0  0
    8.1627  -14.4545   23.2051 C   0  0  2  0  0  0  0  0  0  0  0  0
    7.5120  -14.4120   21.9233 N   0  0  0  0  0  0  0  0  0  0  0  0
    9.1247  -15.5705   23.3448 C   0  0  0  0  0  0  0  0  0  0  0  0
    8.5834  -16.7060   23.2060 O   0  0  0  0  0  0  0  0  0  0  0  0
   10.4770  -15.4518   23.6013 N   0  0  0  0  0  0  0  0  0  0  0  0
   11.1440  -16.0854   24.7175 C   0  0  1  0  0  0  0  0  0  0  0  0
   10.6431  -15.3839   25.9513 C   0  0  0  0  0  0  0  0  0  0  0  0
   11.0516  -15.9957   27.2542 C   0  0  0  0  0  0  0  0  0  0  0  0
   10.3912  -15.1472   28.3381 C   0  0  0  0  0  0  0  0  0  0  0  0
   10.6704  -15.7012   29.7109 C   0  0  0  0  0  0  0  0  0  0  0  0
    9.9204  -14.9484   30.7001 N   0  0  0  0  0  0  0  0  0  0  0  0
   10.9151  -17.5474   24.7657 C   0  0  0  0  0  0  0  0  0  0  0  0
    9.8006  -18.1061   24.7686 O   0  0  0  0  0  0  0  0  0  0  0  0
   12.0100  -18.4346   24.8108 O   0  0  0  0  0  0  0  0  0  0  0  0
  2  1  1  0
  3 11  1  0
  3  2  1  0
  4  3  2  0
  6  5  1  0
  7  6  2  0
  8  6  1  0
 10  9  1  1
  9  8  1  0
 10 12  1  0
 10 11  1  0
 12 14  1  0
 13 12  2  0
 14 15  1  0
 15 21  1  0
 15 16  1  1
 16 17  1  0
 18 19  1  0
 18 17  1  0
 19 20  1  0
 21 23  1  0
 22 21  2  0
M  END
$$$$
