GQK.pdb
     RDKit          3D

 23 22  0  0  1  0  0  0  0  0999 V2000
   14.0889  -21.7169   32.0108 N   0  0  0  0  0  0  0  0  0  0  0  0
   14.9921  -22.7552   32.3932 C   0  0  0  0  0  0  0  0  0  0  0  0
   14.4577  -23.6550   33.4384 C   0  0  0  0  0  0  0  0  0  0  0  0
   13.3590  -23.3258   33.9653 O   0  0  0  0  0  0  0  0  0  0  0  0
   14.9916  -29.7241   33.8183 N   0  0  0  0  0  0  0  0  0  0  0  0
   14.1560  -29.4685   34.9189 C   0  0  0  0  0  0  0  0  0  0  0  0
   13.6247  -30.4020   35.5599 O   0  0  0  0  0  0  0  0  0  0  0  0
   13.8909  -28.0685   35.3387 C   0  0  0  0  0  0  0  0  0  0  0  0
   14.6727  -27.0889   34.4960 C   0  0  0  0  0  0  0  0  0  0  0  0
   14.4344  -25.6556   34.8887 C   0  0  2  0  0  0  0  0  0  0  0  0
   15.0672  -24.8370   33.8899 N   0  0  0  0  0  0  0  0  0  0  0  0
   14.9725  -25.4496   36.2519 C   0  0  0  0  0  0  0  0  0  0  0  0
   16.1128  -24.9006   36.2522 O   0  0  0  0  0  0  0  0  0  0  0  0
   14.3489  -25.7986   37.4343 N   0  0  0  0  0  0  0  0  0  0  0  0
   14.8603  -25.4623   38.7448 C   0  0  1  0  0  0  0  0  0  0  0  0
   13.9459  -26.1369   39.7316 C   0  0  0  0  0  0  0  0  0  0  0  0
   14.2374  -25.8656   41.1739 C   0  0  0  0  0  0  0  0  0  0  0  0
   13.1736  -26.6242   41.9637 C   0  0  0  0  0  0  0  0  0  0  0  0
   13.4135  -26.5153   43.4469 C   0  0  0  0  0  0  0  0  0  0  0  0
   12.3920  -27.2606   44.1601 N   0  0  0  0  0  0  0  0  0  0  0  0
   16.2762  -25.8562   38.9247 C   0  0  0  0  0  0  0  0  0  0  0  0
   16.7514  -26.9821   38.6783 O   0  0  0  0  0  0  0  0  0  0  0  0
   17.2149  -24.9228   39.4099 O   0  0  0  0  0  0  0  0  0  0  0  0
  2  1  1  0
  3 11  1  0
  3  2  1  0
  4  3  2  0
  6  5  1  0
  7  6  2  0
  8  6  1  0
 10  9  1  6
  9  8  1  0
 10 12  1  0
 10 11  1  0
 12 14  1  0
 13 12  2  0
 14 15  1  0
 15 21  1  0
 15 16  1  1
 16 17  1  0
 18 19  1  0
 18 17  1  0
 19 20  1  0
 21 23  1  0
 22 21  2  0
M  END
$$$$
