GQK.pdb
     RDKit          3D

 23 22  0  0  1  0  0  0  0  0999 V2000
    6.1766  -22.1336   17.1242 N   0  0  0  0  0  0  0  0  0  0  0  0
    7.4485  -21.4873   17.0572 C   0  0  0  0  0  0  0  0  0  0  0  0
    8.5650  -22.3152   17.5630 C   0  0  0  0  0  0  0  0  0  0  0  0
    8.3125  -23.0773   18.5370 O   0  0  0  0  0  0  0  0  0  0  0  0
   14.1350  -23.5860   15.0145 N   0  0  0  0  0  0  0  0  0  0  0  0
   14.2664  -24.1843   16.2793 C   0  0  0  0  0  0  0  0  0  0  0  0
   15.2964  -24.8220   16.5907 O   0  0  0  0  0  0  0  0  0  0  0  0
   13.1693  -24.0644   17.2735 C   0  0  0  0  0  0  0  0  0  0  0  0
   12.0526  -23.1919   16.7510 C   0  0  0  0  0  0  0  0  0  0  0  0
   10.9237  -23.0320   17.7335 C   0  0  2  0  0  0  0  0  0  0  0  0
    9.8735  -22.3233   17.0529 N   0  0  0  0  0  0  0  0  0  0  0  0
   11.4398  -22.3244   18.9265 C   0  0  0  0  0  0  0  0  0  0  0  0
   11.4366  -21.0661   18.7909 O   0  0  0  0  0  0  0  0  0  0  0  0
   11.8930  -22.9150   20.0902 N   0  0  0  0  0  0  0  0  0  0  0  0
   12.2811  -22.1753   21.2711 C   0  0  1  0  0  0  0  0  0  0  0  0
   11.8517  -23.0141   22.4447 C   0  0  0  0  0  0  0  0  0  0  0  0
   10.4158  -22.8818   22.8435 C   0  0  0  0  0  0  0  0  0  0  0  0
   10.1911  -23.9189   23.9412 C   0  0  0  0  0  0  0  0  0  0  0  0
    8.7600  -23.9149   24.4115 C   0  0  0  0  0  0  0  0  0  0  0  0
    8.5831  -24.9269   25.4373 N   0  0  0  0  0  0  0  0  0  0  0  0
   13.7276  -21.8609   21.2995 C   0  0  0  0  0  0  0  0  0  0  0  0
   14.2725  -21.0251   22.0470 O   0  0  0  0  0  0  0  0  0  0  0  0
   14.6154  -22.5319   20.4336 O   0  0  0  0  0  0  0  0  0  0  0  0
  2  1  1  0
  3 11  1  0
  3  2  1  0
  4  3  2  0
  6  5  1  0
  7  6  2  0
  8  6  1  0
 10  9  1  6
  9  8  1  0
 10 12  1  0
 10 11  1  0
 12 14  1  0
 13 12  2  0
 14 15  1  0
 15 21  1  0
 15 16  1  1
 16 17  1  0
 18 19  1  0
 18 17  1  0
 19 20  1  0
 21 23  1  0
 22 21  2  0
M  END
$$$$
