GQK.pdb
     RDKit          3D

 23 22  0  0  1  0  0  0  0  0999 V2000
   15.1166  -18.9381   20.3040 N   0  0  0  0  0  0  0  0  0  0  0  0
   16.1185  -18.9073   21.3215 C   0  0  0  0  0  0  0  0  0  0  0  0
   15.9064  -19.9004   22.3970 C   0  0  0  0  0  0  0  0  0  0  0  0
   14.7105  -20.1431   22.7196 O   0  0  0  0  0  0  0  0  0  0  0  0
   19.3028  -24.7412   23.6024 N   0  0  0  0  0  0  0  0  0  0  0  0
   18.1818  -24.7133   22.7554 C   0  0  0  0  0  0  0  0  0  0  0  0
   18.0056  -25.5936   21.8843 O   0  0  0  0  0  0  0  0  0  0  0  0
   17.1805  -23.6240   22.8867 C   0  0  0  0  0  0  0  0  0  0  0  0
   17.5486  -22.6765   24.0038 C   0  0  0  0  0  0  0  0  0  0  0  0
   16.5933  -21.5204   24.1318 C   0  0  2  0  0  0  0  0  0  0  0  0
   16.9184  -20.5906   23.0839 N   0  0  0  0  0  0  0  0  0  0  0  0
   16.7283  -20.9519   25.4916 C   0  0  0  0  0  0  0  0  0  0  0  0
   17.4464  -19.9102   25.5195 O   0  0  0  0  0  0  0  0  0  0  0  0
   16.1600  -21.4573   26.6449 N   0  0  0  0  0  0  0  0  0  0  0  0
   16.2970  -20.8425   27.9470 C   0  0  1  0  0  0  0  0  0  0  0  0
   15.0276  -21.1604   28.6905 C   0  0  0  0  0  0  0  0  0  0  0  0
   14.9623  -20.6644   30.1006 C   0  0  0  0  0  0  0  0  0  0  0  0
   13.6146  -21.1320   30.6446 C   0  0  0  0  0  0  0  0  0  0  0  0
   13.4468  -20.7480   32.0916 C   0  0  0  0  0  0  0  0  0  0  0  0
   12.1335  -21.1591   32.5541 N   0  0  0  0  0  0  0  0  0  0  0  0
   17.5057  -21.2984   28.6705 C   0  0  0  0  0  0  0  0  0  0  0  0
   18.0772  -22.3942   28.5069 O   0  0  0  0  0  0  0  0  0  0  0  0
   18.1090  -20.4668   29.6361 O   0  0  0  0  0  0  0  0  0  0  0  0
  2  1  1  0
  3 11  1  0
  3  2  1  0
  4  3  2  0
  6  5  1  0
  7  6  2  0
  8  6  1  0
 10  9  1  1
  9  8  1  0
 10 12  1  0
 10 11  1  0
 12 14  1  0
 13 12  2  0
 14 15  1  0
 15 21  1  0
 15 16  1  1
 16 17  1  0
 18 19  1  0
 18 17  1  0
 19 20  1  0
 21 23  1  0
 22 21  2  0
M  END
$$$$
