GQK.pdb
     RDKit          3D

 23 22  0  0  1  0  0  0  0  0999 V2000
    9.0121  -16.4381   19.3609 N   0  0  0  0  0  0  0  0  0  0  0  0
    7.9880  -16.2149   20.3312 C   0  0  0  0  0  0  0  0  0  0  0  0
    8.4814  -15.6204   21.5926 C   0  0  0  0  0  0  0  0  0  0  0  0
    9.7333  -15.5436   21.7339 O   0  0  0  0  0  0  0  0  0  0  0  0
    7.0622  -11.3439   27.2324 N   0  0  0  0  0  0  0  0  0  0  0  0
    6.6697  -12.5253   26.5805 C   0  0  0  0  0  0  0  0  0  0  0  0
    5.4671  -12.8647   26.5225 O   0  0  0  0  0  0  0  0  0  0  0  0
    7.6917  -13.3957   25.9447 C   0  0  0  0  0  0  0  0  0  0  0  0
    7.2310  -13.8778   24.5895 C   0  0  0  0  0  0  0  0  0  0  0  0
    8.2652  -14.7094   23.8794 C   0  0  2  0  0  0  0  0  0  0  0  0
    7.6779  -15.1378   22.6384 N   0  0  0  0  0  0  0  0  0  0  0  0
    8.6555  -15.8271   24.7674 C   0  0  0  0  0  0  0  0  0  0  0  0
    7.7133  -16.6479   24.9672 O   0  0  0  0  0  0  0  0  0  0  0  0
    9.8954  -16.0096   25.3487 N   0  0  0  0  0  0  0  0  0  0  0  0
   10.2320  -17.1353   26.1924 C   0  0  1  0  0  0  0  0  0  0  0  0
   11.7018  -17.3836   25.9845 C   0  0  0  0  0  0  0  0  0  0  0  0
   12.2975  -18.4754   26.8162 C   0  0  0  0  0  0  0  0  0  0  0  0
   13.7858  -18.4930   26.4764 C   0  0  0  0  0  0  0  0  0  0  0  0
   14.5060  -19.5778   27.2340 C   0  0  0  0  0  0  0  0  0  0  0  0
   15.8949  -19.6235   26.8139 N   0  0  0  0  0  0  0  0  0  0  0  0
    9.8928  -16.9053   27.6152 C   0  0  0  0  0  0  0  0  0  0  0  0
    9.8277  -15.7924   28.1733 O   0  0  0  0  0  0  0  0  0  0  0  0
    9.6069  -17.9969   28.4606 O   0  0  0  0  0  0  0  0  0  0  0  0
  2  1  1  0
  3 11  1  0
  3  2  1  0
  4  3  2  0
  6  5  1  0
  7  6  2  0
  8  6  1  0
 10  9  1  1
  9  8  1  0
 10 12  1  0
 10 11  1  0
 12 14  1  0
 13 12  2  0
 14 15  1  0
 15 21  1  0
 15 16  1  1
 16 17  1  0
 18 19  1  0
 18 17  1  0
 19 20  1  0
 21 23  1  0
 22 21  2  0
M  END
$$$$
