GQK.pdb
     RDKit          3D

 23 22  0  0  1  0  0  0  0  0999 V2000
    3.4599  -19.5757   21.9340 N   0  0  0  0  0  0  0  0  0  0  0  0
    3.6741  -18.2044   22.2710 C   0  0  0  0  0  0  0  0  0  0  0  0
    5.0673  -17.7511   22.0671 C   0  0  0  0  0  0  0  0  0  0  0  0
    5.9730  -18.6210   22.1940 O   0  0  0  0  0  0  0  0  0  0  0  0
    7.1325  -12.7017   19.0995 N   0  0  0  0  0  0  0  0  0  0  0  0
    8.3352  -13.3566   19.4148 C   0  0  0  0  0  0  0  0  0  0  0  0
    9.4209  -12.9974   18.9079 O   0  0  0  0  0  0  0  0  0  0  0  0
    8.3307  -14.4975   20.3659 C   0  0  0  0  0  0  0  0  0  0  0  0
    6.9245  -14.8454   20.7937 C   0  0  0  0  0  0  0  0  0  0  0  0
    6.8548  -16.1069   21.6117 C   0  0  2  0  0  0  0  0  0  0  0  0
    5.4628  -16.4423   21.7462 N   0  0  0  0  0  0  0  0  0  0  0  0
    7.5335  -15.8633   22.9041 C   0  0  0  0  0  0  0  0  0  0  0  0
    6.7435  -15.4543   23.8043 O   0  0  0  0  0  0  0  0  0  0  0  0
    8.8788  -16.0409   23.1630 N   0  0  0  0  0  0  0  0  0  0  0  0
    9.4429  -16.0963   24.4938 C   0  0  1  0  0  0  0  0  0  0  0  0
    8.8655  -17.3283   25.1371 C   0  0  0  0  0  0  0  0  0  0  0  0
    9.2913  -17.5808   26.5491 C   0  0  0  0  0  0  0  0  0  0  0  0
    8.5416  -18.8348   26.9922 C   0  0  0  0  0  0  0  0  0  0  0  0
    8.8705  -19.1923   28.4182 C   0  0  0  0  0  0  0  0  0  0  0  0
    8.0361  -20.3006   28.8459 N   0  0  0  0  0  0  0  0  0  0  0  0
   10.9234  -16.1022   24.4877 C   0  0  0  0  0  0  0  0  0  0  0  0
   11.6519  -16.0214   25.4962 O   0  0  0  0  0  0  0  0  0  0  0  0
   11.6263  -16.2083   23.2701 O   0  0  0  0  0  0  0  0  0  0  0  0
  2  1  1  0
  3 11  1  0
  3  2  1  0
  4  3  2  0
  6  5  1  0
  7  6  2  0
  8  6  1  0
 10  9  1  6
  9  8  1  0
 10 12  1  0
 10 11  1  0
 12 14  1  0
 13 12  2  0
 14 15  1  0
 15 21  1  0
 15 16  1  6
 16 17  1  0
 18 19  1  0
 18 17  1  0
 19 20  1  0
 21 23  1  0
 22 21  2  0
M  END
$$$$
