CSF.pdb
     RDKit          3D

 24 24  0  0  1  0  0  0  0  0999 V2000
   18.1998  -11.7358    7.1659 N   0  0  0  0  0  0  0  0  0  0  0  0
   17.8208  -12.4842    5.9550 C   0  0  1  0  0  0  0  0  0  0  0  0
   19.1456  -12.8734    5.2832 C   0  0  0  0  0  0  0  0  0  0  0  0
   18.8727  -13.9014    3.8448 S   0  0  0  0  0  0  0  0  0  0  0  0
   17.0494  -13.6564    6.4143 C   0  0  0  0  0  0  0  0  0  0  0  0
   17.2448  -14.2358    7.5128 O   0  0  0  0  0  0  0  0  0  0  0  0
   14.4499  -15.8346    3.8125 O   0  0  0  0  0  0  0  0  0  0  0  0
   14.0678  -15.6094    5.1355 C   0  0  0  0  0  0  0  0  0  0  0  0
   15.3304  -15.4399    5.9774 C   0  0  2  0  0  0  0  0  0  0  0  0
   15.9975  -14.2037    5.5825 N   0  0  0  0  0  0  0  0  0  0  0  0
   16.2130  -16.5897    5.7880 C   0  0  0  0  0  0  0  0  0  0  0  0
   17.1955  -16.5604    4.9858 O   0  0  0  0  0  0  0  0  0  0  0  0
   16.0249  -17.7995    6.4898 N   0  0  0  0  0  0  0  0  0  0  0  0
   16.9341  -18.9357    6.3178 C   0  0  1  0  0  0  0  0  0  0  0  0
   17.8365  -18.9900    7.5330 C   0  0  0  0  0  0  0  0  0  0  0  0
   19.2098  -19.3955    7.1898 C   0  0  0  0  0  0  0  0  0  0  0  0
   19.6513  -20.7081    7.4046 C   0  0  0  0  0  0  0  0  0  0  0  0
   20.9197  -21.1231    7.0813 C   0  0  0  0  0  0  0  0  0  0  0  0
   21.8251  -20.2588    6.5258 C   0  0  0  0  0  0  0  0  0  0  0  0
   21.4104  -18.9621    6.3063 C   0  0  0  0  0  0  0  0  0  0  0  0
   20.1377  -18.5427    6.6295 C   0  0  0  0  0  0  0  0  0  0  0  0
   16.2006  -20.1874    6.0840 C   0  0  0  0  0  0  0  0  0  0  0  0
   16.8640  -21.2779    5.5571 O   0  0  0  0  0  0  0  0  0  0  0  0
   14.9791  -20.3080    6.3444 O   0  0  0  0  0  0  0  0  0  0  0  0
  2  5  1  0
  2  3  1  0
  2  1  1  1
  4  3  1  0
  5  6  2  0
  7  8  1  0
  9  8  1  6
  9 11  1  0
 10  9  1  0
 10  5  1  0
 11 12  2  0
 11 13  1  0
 13 14  1  0
 14 22  1  0
 14 15  1  1
 16 15  1  0
 16 17  2  0
 18 17  1  0
 19 18  2  0
 20 21  2  0
 20 19  1  0
 21 16  1  0
 22 24  2  0
 22 23  1  0
M  END
$$$$
