CSF.pdb
     RDKit          3D

 24 24  0  0  1  0  0  0  0  0999 V2000
   23.0499  -12.3953  -17.9805 N   0  0  0  0  0  0  0  0  0  0  0  0
   23.1149  -11.9704  -16.5715 C   0  0  1  0  0  0  0  0  0  0  0  0
   24.6116  -11.8806  -16.2399 C   0  0  0  0  0  0  0  0  0  0  0  0
   25.2677  -13.4686  -15.7416 S   0  0  0  0  0  0  0  0  0  0  0  0
   22.4364  -10.6609  -16.4997 C   0  0  0  0  0  0  0  0  0  0  0  0
   22.7131   -9.6877  -17.2459 O   0  0  0  0  0  0  0  0  0  0  0  0
   18.7328   -8.0815  -14.7186 O   0  0  0  0  0  0  0  0  0  0  0  0
   19.3725   -9.3210  -14.7570 C   0  0  0  0  0  0  0  0  0  0  0  0
   20.7133   -9.1473  -15.4671 C   0  0  2  0  0  0  0  0  0  0  0  0
   21.3853  -10.4410  -15.5277 N   0  0  0  0  0  0  0  0  0  0  0  0
   21.5320   -8.1697  -14.7524 C   0  0  0  0  0  0  0  0  0  0  0  0
   22.2182   -8.4824  -13.7320 O   0  0  0  0  0  0  0  0  0  0  0  0
   21.6092   -6.8204  -15.1585 N   0  0  0  0  0  0  0  0  0  0  0  0
   22.5069   -5.8700  -14.4965 C   0  0  1  0  0  0  0  0  0  0  0  0
   23.5858   -5.4895  -15.4891 C   0  0  0  0  0  0  0  0  0  0  0  0
   23.0518   -4.7191  -16.6247 C   0  0  0  0  0  0  0  0  0  0  0  0
   22.5942   -5.3616  -17.7830 C   0  0  0  0  0  0  0  0  0  0  0  0
   22.0759   -4.6746  -18.8531 C   0  0  0  0  0  0  0  0  0  0  0  0
   21.9818   -3.3086  -18.8364 C   0  0  0  0  0  0  0  0  0  0  0  0
   22.4269   -2.6570  -17.7055 C   0  0  0  0  0  0  0  0  0  0  0  0
   22.9474   -3.3439  -16.6296 C   0  0  0  0  0  0  0  0  0  0  0  0
   21.7749   -4.7126  -13.9639 C   0  0  0  0  0  0  0  0  0  0  0  0
   20.4193   -4.5959  -14.1998 O   0  0  0  0  0  0  0  0  0  0  0  0
   22.3381   -3.8117  -13.2963 O   0  0  0  0  0  0  0  0  0  0  0  0
  2  5  1  0
  2  3  1  0
  2  1  1  6
  4  3  1  0
  5  6  2  0
  7  8  1  0
  9  8  1  1
  9 11  1  0
 10  9  1  0
 10  5  1  0
 11 12  2  0
 11 13  1  0
 13 14  1  0
 14 22  1  0
 14 15  1  6
 16 15  1  0
 16 17  2  0
 18 17  1  0
 19 18  2  0
 20 21  2  0
 20 19  1  0
 21 16  1  0
 22 24  2  0
 22 23  1  0
M  END
$$$$
