CSF.pdb
     RDKit          3D

 24 24  0  0  1  0  0  0  0  0999 V2000
   15.7041  -11.6667  -16.6873 N   0  0  0  0  0  0  0  0  0  0  0  0
   16.8565  -12.4998  -16.3023 C   0  0  1  0  0  0  0  0  0  0  0  0
   17.0740  -13.4649  -17.4768 C   0  0  0  0  0  0  0  0  0  0  0  0
   17.5169  -12.5873  -18.9714 S   0  0  0  0  0  0  0  0  0  0  0  0
   17.9915  -11.5760  -16.1069 C   0  0  0  0  0  0  0  0  0  0  0  0
   19.0829  -11.9101  -15.5799 O   0  0  0  0  0  0  0  0  0  0  0  0
   17.5544   -7.5081  -16.8856 O   0  0  0  0  0  0  0  0  0  0  0  0
   18.7946   -8.0519  -17.2223 C   0  0  0  0  0  0  0  0  0  0  0  0
   19.0214   -9.2959  -16.3662 C   0  0  2  0  0  0  0  0  0  0  0  0
   17.8846  -10.1955  -16.5320 N   0  0  0  0  0  0  0  0  0  0  0  0
   19.1806   -8.9132  -14.9644 C   0  0  0  0  0  0  0  0  0  0  0  0
   18.2380   -9.0282  -14.1230 O   0  0  0  0  0  0  0  0  0  0  0  0
   20.3947   -8.3959  -14.4645 N   0  0  0  0  0  0  0  0  0  0  0  0
   20.5526   -8.0375  -13.0525 C   0  0  1  0  0  0  0  0  0  0  0  0
   21.9140   -8.5266  -12.6039 C   0  0  0  0  0  0  0  0  0  0  0  0
   22.1980   -8.1763  -11.2021 C   0  0  0  0  0  0  0  0  0  0  0  0
   22.0440   -9.1183  -10.1760 C   0  0  0  0  0  0  0  0  0  0  0  0
   22.3153   -8.8295   -8.8612 C   0  0  0  0  0  0  0  0  0  0  0  0
   22.7553   -7.5877   -8.4876 C   0  0  0  0  0  0  0  0  0  0  0  0
   22.9132   -6.6460   -9.4824 C   0  0  0  0  0  0  0  0  0  0  0  0
   22.6420   -6.9331  -10.8031 C   0  0  0  0  0  0  0  0  0  0  0  0
   20.3517   -6.5987  -12.8317 C   0  0  0  0  0  0  0  0  0  0  0  0
   19.7018   -6.1682  -11.6918 O   0  0  0  0  0  0  0  0  0  0  0  0
   20.7494   -5.7327  -13.6480 O   0  0  0  0  0  0  0  0  0  0  0  0
  2  5  1  0
  2  3  1  0
  2  1  1  6
  4  3  1  0
  5  6  2  0
  7  8  1  0
  9  8  1  6
  9 11  1  0
 10  9  1  0
 10  5  1  0
 11 12  2  0
 11 13  1  0
 13 14  1  0
 14 22  1  0
 14 15  1  6
 16 15  1  0
 16 17  2  0
 18 17  1  0
 19 18  2  0
 20 21  2  0
 20 19  1  0
 21 16  1  0
 22 24  2  0
 22 23  1  0
M  END
$$$$
