CSF.pdb
     RDKit          3D

 24 24  0  0  1  0  0  0  0  0999 V2000
   15.3794   -9.4860  -10.4691 N   0  0  0  0  0  0  0  0  0  0  0  0
   15.4960   -8.0177  -10.4952 C   0  0  1  0  0  0  0  0  0  0  0  0
   16.1577   -7.6362   -9.1631 C   0  0  0  0  0  0  0  0  0  0  0  0
   16.3918   -5.8675   -9.0316 S   0  0  0  0  0  0  0  0  0  0  0  0
   16.3363   -7.6873  -11.6635 C   0  0  0  0  0  0  0  0  0  0  0  0
   17.3883   -8.3056  -11.9659 O   0  0  0  0  0  0  0  0  0  0  0  0
   15.4364   -4.3527  -13.9827 O   0  0  0  0  0  0  0  0  0  0  0  0
   15.9951   -5.4307  -14.6703 C   0  0  0  0  0  0  0  0  0  0  0  0
   16.8094   -6.2610  -13.6806 C   0  0  2  0  0  0  0  0  0  0  0  0
   15.9645   -6.5947  -12.5386 N   0  0  0  0  0  0  0  0  0  0  0  0
   17.9882   -5.5101  -13.2525 C   0  0  0  0  0  0  0  0  0  0  0  0
   18.0495   -4.9390  -12.1212 O   0  0  0  0  0  0  0  0  0  0  0  0
   19.1291   -5.3793  -14.0727 N   0  0  0  0  0  0  0  0  0  0  0  0
   20.2807   -4.5716  -13.6623 C   0  0  1  0  0  0  0  0  0  0  0  0
   21.0109   -5.3318  -12.5747 C   0  0  0  0  0  0  0  0  0  0  0  0
   21.5272   -6.6263  -13.0501 C   0  0  0  0  0  0  0  0  0  0  0  0
   21.0916   -7.8311  -12.4822 C   0  0  0  0  0  0  0  0  0  0  0  0
   21.5406   -9.0555  -12.9123 C   0  0  0  0  0  0  0  0  0  0  0  0
   22.4494   -9.1558  -13.9317 C   0  0  0  0  0  0  0  0  0  0  0  0
   22.8910   -7.9816  -14.5041 C   0  0  0  0  0  0  0  0  0  0  0  0
   22.4419   -6.7510  -14.0747 C   0  0  0  0  0  0  0  0  0  0  0  0
   21.1381   -4.2283  -14.8053 C   0  0  0  0  0  0  0  0  0  0  0  0
   22.1824   -3.3416  -14.6319 O   0  0  0  0  0  0  0  0  0  0  0  0
   20.9572   -4.7120  -15.9489 O   0  0  0  0  0  0  0  0  0  0  0  0
  2  5  1  0
  2  3  1  0
  2  1  1  1
  4  3  1  0
  5  6  2  0
  7  8  1  0
  9  8  1  6
  9 11  1  0
 10  9  1  0
 10  5  1  0
 11 12  2  0
 11 13  1  0
 13 14  1  0
 14 22  1  0
 14 15  1  1
 16 15  1  0
 16 17  2  0
 18 17  1  0
 19 18  2  0
 20 21  2  0
 20 19  1  0
 21 16  1  0
 22 24  2  0
 22 23  1  0
M  END
$$$$
