CSF.pdb
     RDKit          3D

 24 24  0  0  1  0  0  0  0  0999 V2000
   18.9915  -21.5769  -12.1820 N   0  0  0  0  0  0  0  0  0  0  0  0
   19.8293  -20.8910  -13.1810 C   0  0  1  0  0  0  0  0  0  0  0  0
   19.4759  -19.4017  -13.0580 C   0  0  0  0  0  0  0  0  0  0  0  0
   19.8178  -18.7816  -11.4152 S   0  0  0  0  0  0  0  0  0  0  0  0
   21.2311  -21.1757  -12.8150 C   0  0  0  0  0  0  0  0  0  0  0  0
   21.6423  -21.2558  -11.6297 O   0  0  0  0  0  0  0  0  0  0  0  0
   23.7133  -23.1233  -15.4016 O   0  0  0  0  0  0  0  0  0  0  0  0
   23.8961  -23.1341  -14.0183 C   0  0  0  0  0  0  0  0  0  0  0  0
   23.5902  -21.7371  -13.4830 C   0  0  2  0  0  0  0  0  0  0  0  0
   22.2235  -21.3809  -13.8498 N   0  0  0  0  0  0  0  0  0  0  0  0
   24.5430  -20.7740  -14.0320 C   0  0  0  0  0  0  0  0  0  0  0  0
   24.1842  -19.8419  -14.8144 O   0  0  0  0  0  0  0  0  0  0  0  0
   25.9185  -20.8234  -13.7206 N   0  0  0  0  0  0  0  0  0  0  0  0
   26.8760  -19.8934  -14.3251 C   0  0  1  0  0  0  0  0  0  0  0  0
   27.5211  -19.1053  -13.2041 C   0  0  0  0  0  0  0  0  0  0  0  0
   28.1099  -19.9790  -12.1755 C   0  0  0  0  0  0  0  0  0  0  0  0
   27.4051  -20.2962  -11.0064 C   0  0  0  0  0  0  0  0  0  0  0  0
   27.9182  -21.1202  -10.0351 C   0  0  0  0  0  0  0  0  0  0  0  0
   29.1619  -21.6778  -10.1671 C   0  0  0  0  0  0  0  0  0  0  0  0
   29.8722  -21.3780  -11.3105 C   0  0  0  0  0  0  0  0  0  0  0  0
   29.3596  -20.5514  -12.2874 C   0  0  0  0  0  0  0  0  0  0  0  0
   27.8485  -20.5926  -15.1763 C   0  0  0  0  0  0  0  0  0  0  0  0
   28.6330  -19.8680  -16.0519 O   0  0  0  0  0  0  0  0  0  0  0  0
   27.9967  -21.8381  -15.1424 O   0  0  0  0  0  0  0  0  0  0  0  0
  2  5  1  0
  2  3  1  0
  2  1  1  1
  4  3  1  0
  5  6  2  0
  7  8  1  0
  9  8  1  6
  9 11  1  0
 10  9  1  0
 10  5  1  0
 11 12  2  0
 11 13  1  0
 13 14  1  0
 14 22  1  0
 14 15  1  1
 16 15  1  0
 16 17  2  0
 18 17  1  0
 19 18  2  0
 20 21  2  0
 20 19  1  0
 21 16  1  0
 22 24  2  0
 22 23  1  0
M  END
$$$$
