CSF.pdb
     RDKit          3D

 24 24  0  0  1  0  0  0  0  0999 V2000
   15.2485  -14.4576  -16.5154 N   0  0  0  0  0  0  0  0  0  0  0  0
   14.7045  -13.1503  -16.1092 C   0  0  1  0  0  0  0  0  0  0  0  0
   14.5807  -13.2161  -14.5800 C   0  0  0  0  0  0  0  0  0  0  0  0
   13.3242  -14.3849  -14.0749 S   0  0  0  0  0  0  0  0  0  0  0  0
   15.6789  -12.1360  -16.5584 C   0  0  0  0  0  0  0  0  0  0  0  0
   16.9252  -12.2771  -16.4734 O   0  0  0  0  0  0  0  0  0  0  0  0
   14.3339   -8.4206  -17.6679 O   0  0  0  0  0  0  0  0  0  0  0  0
   15.4498   -8.8296  -18.3990 C   0  0  0  0  0  0  0  0  0  0  0  0
   16.1838   -9.9007  -17.5954 C   0  0  2  0  0  0  0  0  0  0  0  0
   15.2157  -10.8912  -17.1363 N   0  0  0  0  0  0  0  0  0  0  0  0
   16.8755   -9.2869  -16.4632 C   0  0  0  0  0  0  0  0  0  0  0  0
   16.3896   -9.2959  -15.2912 O   0  0  0  0  0  0  0  0  0  0  0  0
   18.1268   -8.6508  -16.6080 N   0  0  0  0  0  0  0  0  0  0  0  0
   18.7954   -8.0059  -15.4747 C   0  0  1  0  0  0  0  0  0  0  0  0
   20.2860   -8.2175  -15.6397 C   0  0  0  0  0  0  0  0  0  0  0  0
   21.0658   -7.5231  -14.6016 C   0  0  0  0  0  0  0  0  0  0  0  0
   21.4094   -8.1656  -13.4044 C   0  0  0  0  0  0  0  0  0  0  0  0
   22.1489   -7.5527  -12.4229 C   0  0  0  0  0  0  0  0  0  0  0  0
   22.5905   -6.2651  -12.5721 C   0  0  0  0  0  0  0  0  0  0  0  0
   22.2629   -5.6149  -13.7432 C   0  0  0  0  0  0  0  0  0  0  0  0
   21.5210   -6.2277  -14.7304 C   0  0  0  0  0  0  0  0  0  0  0  0
   18.4204   -6.5899  -15.3573 C   0  0  0  0  0  0  0  0  0  0  0  0
   18.2863   -6.0219  -14.1058 O   0  0  0  0  0  0  0  0  0  0  0  0
   18.2117   -5.8656  -16.3604 O   0  0  0  0  0  0  0  0  0  0  0  0
  2  5  1  0
  2  3  1  0
  2  1  1  1
  4  3  1  0
  5  6  2  0
  7  8  1  0
  9  8  1  1
  9 11  1  0
 10  9  1  0
 10  5  1  0
 11 12  2  0
 11 13  1  0
 13 14  1  0
 14 22  1  0
 14 15  1  6
 16 15  1  0
 16 17  2  0
 18 17  1  0
 19 18  2  0
 20 21  2  0
 20 19  1  0
 21 16  1  0
 22 24  2  0
 22 23  1  0
M  END
$$$$
