RQD.pdb
     RDKit          3D

 29 28  0  0  1  0  0  0  0  0999 V2000
    8.6316  -13.9258   16.4144 N   0  0  0  0  0  0  0  0  0  0  0  0
    8.0820  -13.2755   17.5592 C   0  0  0  0  0  0  0  0  0  0  0  0
    8.7699  -12.3837   18.1699 N   0  0  0  0  0  0  0  0  0  0  0  0
    6.7934  -13.5736   18.0578 N   0  0  0  0  0  0  0  0  0  0  0  0
    6.5674  -14.4019   19.2182 C   0  0  0  0  0  0  0  0  0  0  0  0
    7.3714  -13.8159   20.3662 C   0  0  0  0  0  0  0  0  0  0  0  0
    7.2749  -14.6243   21.6083 C   0  0  0  0  0  0  0  0  0  0  0  0
    8.4893  -15.4778   21.8288 C   0  0  2  0  0  0  0  0  0  0  0  0
    8.0128  -16.8705   21.9944 N   0  0  0  0  0  0  0  0  0  0  0  0
    9.0967  -15.1294   23.1330 C   0  0  0  0  0  0  0  0  0  0  0  0
    9.1698  -13.9289   23.4917 O   0  0  0  0  0  0  0  0  0  0  0  0
    8.4598  -11.8523   19.0068 N   0  0  0  0  0  0  0  0  0  0  0  0
    6.4089  -13.6681   25.0380 C   0  0  0  0  0  0  0  0  0  0  0  0
    7.1052  -13.3511   26.2249 O   0  0  0  0  0  0  0  0  0  0  0  0
    6.9091  -12.2810   26.8340 C   0  0  0  0  0  0  0  0  0  0  0  0
    8.0955  -14.3669   26.7195 C   0  0  0  0  0  0  0  0  0  0  0  0
    8.0737  -15.5183   25.7587 C   0  0  2  0  0  0  0  0  0  0  0  0
    9.4827  -15.9390   25.4523 N   0  0  0  0  0  0  0  0  0  0  0  0
    9.6160  -16.1180   24.0236 C   0  0  0  0  0  0  0  0  0  0  0  0
    9.8525  -17.2321   26.0842 O   0  0  0  0  0  0  0  0  0  0  0  0
    9.3075  -18.3200   25.7687 N   0  0  0  0  0  0  0  0  0  0  0  0
   10.8634  -17.2420   27.0866 C   0  0  1  0  0  0  0  0  0  0  0  0
   11.2883  -18.4808   27.6883 C   0  0  0  0  0  0  0  0  0  0  0  0
   12.7461  -18.7413   27.4261 C   0  0  0  0  0  0  0  0  0  0  0  0
   12.9393  -19.3731   26.1090 O   0  0  0  0  0  0  0  0  0  0  0  0
   11.9796  -19.6015   25.3443 C   0  0  0  0  0  0  0  0  0  0  0  0
   11.0045  -18.4301   29.1528 O   0  0  0  0  0  0  0  0  0  0  0  0
   11.1598  -19.5513   29.9651 O   0  0  0  0  0  0  0  0  0  0  0  0
   14.2035  -19.7416   25.6630 O   0  0  0  0  0  0  0  0  0  0  0  0
  1  2  1  0
  2  3  2  0
  4  5  1  0
  4  2  1  0
  6  5  1  0
  7  6  1  0
  8  7  1  0
  8  9  1  1
 10  8  1  0
 10 11  2  0
 12 13  1  0
 13 14  2  0
 15 16  1  0
 15 13  1  0
 17 16  1  6
 17 18  1  0
 18 10  1  0
 19 17  1  0
 20 19  2  0
 21 19  1  0
 22 21  1  0
 22 26  1  0
 22 23  1  1
 24 23  1  0
 24 25  2  0
 26 27  1  0
 28 24  1  0
 29 26  2  0
M  END
$$$$
