RQD.pdb
     RDKit          3D

 29 28  0  0  1  0  0  0  0  0999 V2000
    6.5010  -18.0990   16.9287 N   0  0  0  0  0  0  0  0  0  0  0  0
    6.9522  -17.5640   15.6853 C   0  0  0  0  0  0  0  0  0  0  0  0
    6.3078  -17.8329   14.6112 N   0  0  0  0  0  0  0  0  0  0  0  0
    8.0942  -16.7376   15.5826 N   0  0  0  0  0  0  0  0  0  0  0  0
    8.8038  -16.2244   16.7302 C   0  0  0  0  0  0  0  0  0  0  0  0
    7.8971  -15.2206   17.4215 C   0  0  0  0  0  0  0  0  0  0  0  0
    8.4999  -14.6544   18.6551 C   0  0  0  0  0  0  0  0  0  0  0  0
    7.5226  -13.8305   19.4410 C   0  0  2  0  0  0  0  0  0  0  0  0
    7.5313  -12.4721   18.8504 N   0  0  0  0  0  0  0  0  0  0  0  0
    8.0384  -13.6471   20.8164 C   0  0  0  0  0  0  0  0  0  0  0  0
    8.9183  -12.7826   21.0476 O   0  0  0  0  0  0  0  0  0  0  0  0
    6.5081  -17.4347   13.6729 N   0  0  0  0  0  0  0  0  0  0  0  0
    5.1676  -13.1680   25.8609 C   0  0  0  0  0  0  0  0  0  0  0  0
    6.4339  -13.3204   26.4667 O   0  0  0  0  0  0  0  0  0  0  0  0
    6.6092  -13.1054   27.6823 C   0  0  0  0  0  0  0  0  0  0  0  0
    7.5621  -13.7548   25.5747 C   0  0  0  0  0  0  0  0  0  0  0  0
    7.0172  -13.8574   24.1812 C   0  0  1  0  0  0  0  0  0  0  0  0
    8.1289  -14.2135   23.2359 N   0  0  0  0  0  0  0  0  0  0  0  0
    7.5713  -14.4260   21.9187 C   0  0  0  0  0  0  0  0  0  0  0  0
    8.8317  -15.4674   23.6129 O   0  0  0  0  0  0  0  0  0  0  0  0
    8.3106  -16.6030   23.4753 N   0  0  0  0  0  0  0  0  0  0  0  0
   10.1468  -15.3819   24.1513 C   0  0  2  0  0  0  0  0  0  0  0  0
   10.8816  -16.5755   24.4868 C   0  0  0  0  0  0  0  0  0  0  0  0
   12.3614  -16.3102   24.5275 C   0  0  0  0  0  0  0  0  0  0  0  0
   13.1020  -17.5193   24.9283 O   0  0  0  0  0  0  0  0  0  0  0  0
   13.6386  -17.6175   26.0510 C   0  0  0  0  0  0  0  0  0  0  0  0
   10.3905  -17.0941   25.7974 O   0  0  0  0  0  0  0  0  0  0  0  0
   10.5468  -18.4308   26.1577 O   0  0  0  0  0  0  0  0  0  0  0  0
   13.2334  -18.6042   24.0687 O   0  0  0  0  0  0  0  0  0  0  0  0
  1  2  1  0
  2  3  2  0
  4  5  1  0
  4  2  1  0
  6  5  1  0
  7  6  1  0
  8  7  1  0
  8  9  1  6
 10  8  1  0
 10 11  2  0
 12 13  1  0
 13 14  2  0
 15 16  1  0
 15 13  1  0
 17 16  1  6
 17 18  1  0
 18 10  1  0
 19 17  1  0
 20 19  2  0
 21 19  1  0
 22 21  1  0
 22 26  1  0
 22 23  1  1
 24 23  1  0
 24 25  2  0
 26 27  1  0
 28 24  1  0
 29 26  2  0
M  END
$$$$
