RQD.pdb
     RDKit          3D

 29 28  0  0  1  0  0  0  0  0999 V2000
   15.4192  -22.8466   11.3848 N   0  0  0  0  0  0  0  0  0  0  0  0
   16.2683  -21.7090   11.2410 C   0  0  0  0  0  0  0  0  0  0  0  0
   16.5391  -21.2671   10.0694 N   0  0  0  0  0  0  0  0  0  0  0  0
   16.8323  -21.0361   12.3486 N   0  0  0  0  0  0  0  0  0  0  0  0
   16.5515  -21.3958   13.7182 C   0  0  0  0  0  0  0  0  0  0  0  0
   15.5314  -20.4062   14.2546 C   0  0  0  0  0  0  0  0  0  0  0  0
   15.1904  -20.6465   15.6800 C   0  0  0  0  0  0  0  0  0  0  0  0
   13.7329  -20.4280   15.9621 C   0  0  2  0  0  0  0  0  0  0  0  0
   13.2354  -19.4732   14.9449 N   0  0  0  0  0  0  0  0  0  0  0  0
   13.5901  -19.7142   17.2511 C   0  0  0  0  0  0  0  0  0  0  0  0
   13.6798  -18.4630   17.2900 O   0  0  0  0  0  0  0  0  0  0  0  0
   17.1440  -20.4493    9.8589 N   0  0  0  0  0  0  0  0  0  0  0  0
    9.5684  -19.0573   21.1115 C   0  0  0  0  0  0  0  0  0  0  0  0
    9.5488  -19.6183   19.8159 O   0  0  0  0  0  0  0  0  0  0  0  0
    8.4850  -19.7718   19.1839 C   0  0  0  0  0  0  0  0  0  0  0  0
   10.8737  -20.0223   19.2341 C   0  0  0  0  0  0  0  0  0  0  0  0
   11.8975  -19.8984   20.3231 C   0  0  2  0  0  0  0  0  0  0  0  0
   13.2468  -19.6468   19.7130 N   0  0  0  0  0  0  0  0  0  0  0  0
   13.3497  -20.3981   18.4818 C   0  0  0  0  0  0  0  0  0  0  0  0
   14.3681  -20.0894   20.5820 O   0  0  0  0  0  0  0  0  0  0  0  0
   15.5738  -19.9128   20.2737 N   0  0  0  0  0  0  0  0  0  0  0  0
   14.0676  -20.7391   21.8126 C   0  0  2  0  0  0  0  0  0  0  0  0
   15.0985  -20.9650   22.7941 C   0  0  0  0  0  0  0  0  0  0  0  0
   16.3460  -20.1941   22.4606 C   0  0  0  0  0  0  0  0  0  0  0  0
   17.4618  -20.5943   23.3357 O   0  0  0  0  0  0  0  0  0  0  0  0
   17.6644  -21.7890   23.6350 C   0  0  0  0  0  0  0  0  0  0  0  0
   14.5759  -20.5887   24.1407 O   0  0  0  0  0  0  0  0  0  0  0  0
   14.9580  -21.2772   25.2899 O   0  0  0  0  0  0  0  0  0  0  0  0
   18.3378  -19.6535   23.8654 O   0  0  0  0  0  0  0  0  0  0  0  0
  1  2  1  0
  2  3  2  0
  4  5  1  0
  4  2  1  0
  6  5  1  0
  7  6  1  0
  8  7  1  0
  8  9  1  6
 10  8  1  0
 10 11  2  0
 12 13  1  0
 13 14  2  0
 15 16  1  0
 15 13  1  0
 17 16  1  6
 17 18  1  0
 18 10  1  0
 19 17  1  0
 20 19  2  0
 21 19  1  0
 22 21  1  0
 22 26  1  0
 22 23  1  6
 24 23  1  0
 24 25  2  0
 26 27  1  0
 28 24  1  0
 29 26  2  0
M  END
$$$$
