RQD.pdb
     RDKit          3D

 29 28  0  0  1  0  0  0  0  0999 V2000
    8.9510  -13.0481   15.0528 N   0  0  0  0  0  0  0  0  0  0  0  0
    8.3260  -14.3257   14.9395 C   0  0  0  0  0  0  0  0  0  0  0  0
    7.0908  -14.4546   15.2539 N   0  0  0  0  0  0  0  0  0  0  0  0
    9.0172  -15.4731   14.4885 N   0  0  0  0  0  0  0  0  0  0  0  0
    9.9284  -16.2239   15.3191 C   0  0  0  0  0  0  0  0  0  0  0  0
   10.6675  -15.2343   16.2035 C   0  0  0  0  0  0  0  0  0  0  0  0
   11.9229  -15.7923   16.7676 C   0  0  0  0  0  0  0  0  0  0  0  0
   11.6643  -16.7791   17.8681 C   0  0  2  0  0  0  0  0  0  0  0  0
   10.3452  -17.3945   17.5939 N   0  0  0  0  0  0  0  0  0  0  0  0
   11.4817  -16.0478   19.1422 C   0  0  0  0  0  0  0  0  0  0  0  0
   12.3484  -15.2242   19.5241 O   0  0  0  0  0  0  0  0  0  0  0  0
    6.5393  -15.3320   15.1822 N   0  0  0  0  0  0  0  0  0  0  0  0
    6.1120  -14.5475   21.5590 C   0  0  0  0  0  0  0  0  0  0  0  0
    6.9673  -13.7414   22.3416 O   0  0  0  0  0  0  0  0  0  0  0  0
    6.5369  -12.7706   22.9950 C   0  0  0  0  0  0  0  0  0  0  0  0
    8.4238  -14.1101   22.3494 C   0  0  0  0  0  0  0  0  0  0  0  0
    8.6728  -14.9763   21.1505 C   0  0  1  0  0  0  0  0  0  0  0  0
   10.1225  -15.3673   21.1102 N   0  0  0  0  0  0  0  0  0  0  0  0
   10.3391  -16.2398   19.9775 C   0  0  0  0  0  0  0  0  0  0  0  0
   10.5553  -16.1158   22.3188 O   0  0  0  0  0  0  0  0  0  0  0  0
   10.4090  -15.6646   23.4828 N   0  0  0  0  0  0  0  0  0  0  0  0
   11.1595  -17.3944   22.1545 C   0  0  1  0  0  0  0  0  0  0  0  0
   11.6341  -18.1341   23.2968 C   0  0  0  0  0  0  0  0  0  0  0  0
   11.7205  -19.6049   22.9951 C   0  0  0  0  0  0  0  0  0  0  0  0
   10.3824  -20.2217   22.9950 O   0  0  0  0  0  0  0  0  0  0  0  0
    9.3585  -19.5668   23.2792 C   0  0  0  0  0  0  0  0  0  0  0  0
   12.9612  -17.5893   23.7090 O   0  0  0  0  0  0  0  0  0  0  0  0
   13.6213  -18.0572   24.8432 O   0  0  0  0  0  0  0  0  0  0  0  0
   10.2054  -21.5635   22.6766 O   0  0  0  0  0  0  0  0  0  0  0  0
  1  2  1  0
  2  3  2  0
  4  5  1  0
  4  2  1  0
  6  5  1  0
  7  6  1  0
  8  7  1  0
  8  9  1  6
 10  8  1  0
 10 11  2  0
 12 13  1  0
 13 14  2  0
 15 16  1  0
 15 13  1  0
 17 16  1  6
 17 18  1  0
 18 10  1  0
 19 17  1  0
 20 19  2  0
 21 19  1  0
 22 21  1  0
 22 26  1  0
 22 23  1  1
 24 23  1  0
 24 25  2  0
 26 27  1  0
 28 24  1  0
 29 26  2  0
M  END
$$$$
