VCF.pdb
     RDKit          3D

 25 25  0  0  1  0  0  0  0  0999 V2000
   29.3350  -23.3931  -17.1838 C   0  0  0  0  0  0  0  0  0  0  0  0
   28.5594  -22.5410  -16.2481 C   0  0  1  0  0  0  0  0  0  0  0  0
   29.4305  -21.5458  -15.5175 C   0  0  0  0  0  0  0  0  0  0  0  0
   27.5118  -21.7326  -17.0114 C   0  0  2  0  0  0  0  0  0  0  0  0
   28.1970  -20.8963  -18.0045 N   0  0  0  0  0  0  0  0  0  0  0  0
   26.8806  -20.8024  -16.0491 C   0  0  0  0  0  0  0  0  0  0  0  0
   27.1055  -19.5636  -16.1747 O   0  0  0  0  0  0  0  0  0  0  0  0
   26.0291  -21.1802  -14.9808 N   0  0  0  0  0  0  0  0  0  0  0  0
   25.4217  -20.1693  -14.1531 C   0  0  1  0  0  0  0  0  0  0  0  0
   24.4281  -19.3785  -15.0151 C   0  0  0  0  0  0  0  0  0  0  0  0
   23.2873  -20.5660  -15.7501 S   0  0  0  0  0  0  0  0  0  0  0  0
   24.6359  -20.7838  -13.0556 C   0  0  0  0  0  0  0  0  0  0  0  0
   23.9773  -21.8586  -13.1953 O   0  0  0  0  0  0  0  0  0  0  0  0
   24.5840  -20.1844  -11.7712 N   0  0  0  0  0  0  0  0  0  0  0  0
   23.8263  -20.7522  -10.6629 C   0  0  1  0  0  0  0  0  0  0  0  0
   24.3540  -20.0759   -9.4197 C   0  0  0  0  0  0  0  0  0  0  0  0
   25.7886  -20.2949   -9.1993 C   0  0  0  0  0  0  0  0  0  0  0  0
   26.4537  -19.5025   -8.2927 C   0  0  0  0  0  0  0  0  0  0  0  0
   27.8166  -19.7113   -8.0760 C   0  0  0  0  0  0  0  0  0  0  0  0
   28.4425  -20.7053   -8.7811 C   0  0  0  0  0  0  0  0  0  0  0  0
   27.7874  -21.5115   -9.6974 C   0  0  0  0  0  0  0  0  0  0  0  0
   26.4542  -21.2832   -9.8877 C   0  0  0  0  0  0  0  0  0  0  0  0
   22.3862  -20.4829  -10.7851 C   0  0  0  0  0  0  0  0  0  0  0  0
   21.4252  -21.2284  -10.0687 O   0  0  0  0  0  0  0  0  0  0  0  0
   21.8943  -19.5902  -11.5174 O   0  0  0  0  0  0  0  0  0  0  0  0
  2  4  1  0
  2  1  1  6
  3  2  1  0
  4  5  1  6
  4  6  1  0
  6  7  2  0
  8  6  1  0
  8  9  1  0
  9 12  1  0
  9 10  1  6
 11 10  1  0
 12 14  1  0
 13 12  2  0
 14 15  1  0
 15 16  1  1
 16 17  1  0
 17 18  2  0
 18 19  1  0
 20 19  2  0
 21 20  1  0
 22 21  2  0
 22 17  1  0
 23 15  1  0
 24 23  1  0
 25 23  2  0
M  END
$$$$
