VCF.pdb
     RDKit          3D

 25 25  0  0  1  0  0  0  0  0999 V2000
   29.0108  -21.9409  -16.7501 C   0  0  0  0  0  0  0  0  0  0  0  0
   27.7605  -21.3559  -16.2047 C   0  0  1  0  0  0  0  0  0  0  0  0
   27.9724  -20.6871  -14.8664 C   0  0  0  0  0  0  0  0  0  0  0  0
   27.2187  -20.2860  -17.1510 C   0  0  2  0  0  0  0  0  0  0  0  0
   28.2339  -19.2364  -17.3023 N   0  0  0  0  0  0  0  0  0  0  0  0
   26.0595  -19.6504  -16.4860 C   0  0  0  0  0  0  0  0  0  0  0  0
   26.0130  -18.3870  -16.4370 O   0  0  0  0  0  0  0  0  0  0  0  0
   24.9751  -20.3417  -15.8901 N   0  0  0  0  0  0  0  0  0  0  0  0
   23.8023  -19.6164  -15.4724 C   0  0  1  0  0  0  0  0  0  0  0  0
   23.1034  -19.0737  -16.7264 C   0  0  0  0  0  0  0  0  0  0  0  0
   21.6121  -18.2167  -16.1847 S   0  0  0  0  0  0  0  0  0  0  0  0
   22.8326  -20.5165  -14.8022 C   0  0  0  0  0  0  0  0  0  0  0  0
   22.3545  -21.5524  -15.3561 O   0  0  0  0  0  0  0  0  0  0  0  0
   22.3856  -20.2542  -13.4820 N   0  0  0  0  0  0  0  0  0  0  0  0
   21.7041  -21.2503  -12.6645 C   0  0  1  0  0  0  0  0  0  0  0  0
   22.1202  -20.9633  -11.2411 C   0  0  0  0  0  0  0  0  0  0  0  0
   23.5711  -21.0362  -11.0303 C   0  0  0  0  0  0  0  0  0  0  0  0
   24.1578  -20.1847  -10.1232 C   0  0  0  0  0  0  0  0  0  0  0  0
   25.5362  -20.2548   -9.9155 C   0  0  0  0  0  0  0  0  0  0  0  0
   26.2555  -21.1765  -10.6297 C   0  0  0  0  0  0  0  0  0  0  0  0
   25.6801  -22.0406  -11.5466 C   0  0  0  0  0  0  0  0  0  0  0  0
   24.3294  -21.9482  -11.7279 C   0  0  0  0  0  0  0  0  0  0  0  0
   20.2418  -21.1433  -12.7712 C   0  0  0  0  0  0  0  0  0  0  0  0
   19.3870  -22.1970  -12.3816 O   0  0  0  0  0  0  0  0  0  0  0  0
   19.6374  -20.1331  -13.2064 O   0  0  0  0  0  0  0  0  0  0  0  0
  2  4  1  0
  2  1  1  6
  3  2  1  0
  4  5  1  1
  4  6  1  0
  6  7  2  0
  8  6  1  0
  8  9  1  0
  9 12  1  0
  9 10  1  6
 11 10  1  0
 12 14  1  0
 13 12  2  0
 14 15  1  0
 15 16  1  1
 16 17  1  0
 17 18  2  0
 18 19  1  0
 20 19  2  0
 21 20  1  0
 22 21  2  0
 22 17  1  0
 23 15  1  0
 24 23  1  0
 25 23  2  0
M  END
$$$$
