VCF.pdb
     RDKit          3D

 25 25  0  0  1  0  0  0  0  0999 V2000
   32.1869  -35.0128  -21.5546 C   0  0  0  0  0  0  0  0  0  0  0  0
   31.3145  -33.8515  -21.2491 C   0  0  1  0  0  0  0  0  0  0  0  0
   32.0749  -32.7097  -20.6156 C   0  0  0  0  0  0  0  0  0  0  0  0
   30.6889  -33.3063  -22.5317 C   0  0  2  0  0  0  0  0  0  0  0  0
   31.7599  -32.7915  -23.3937 N   0  0  0  0  0  0  0  0  0  0  0  0
   29.8579  -32.1397  -22.1597 C   0  0  0  0  0  0  0  0  0  0  0  0
   29.8572  -31.1332  -22.9264 O   0  0  0  0  0  0  0  0  0  0  0  0
   29.0456  -32.0468  -21.0019 N   0  0  0  0  0  0  0  0  0  0  0  0
   28.0640  -30.9977  -20.8942 C   0  0  1  0  0  0  0  0  0  0  0  0
   26.9835  -31.2425  -21.9565 C   0  0  0  0  0  0  0  0  0  0  0  0
   25.7402  -29.9499  -21.7694 S   0  0  0  0  0  0  0  0  0  0  0  0
   27.3824  -31.0420  -19.5778 C   0  0  0  0  0  0  0  0  0  0  0  0
   26.8571  -32.0959  -19.1067 O   0  0  0  0  0  0  0  0  0  0  0  0
   27.2846  -29.8820  -18.7674 N   0  0  0  0  0  0  0  0  0  0  0  0
   26.6964  -29.8956  -17.4337 C   0  0  1  0  0  0  0  0  0  0  0  0
   27.7888  -29.4269  -16.5018 C   0  0  0  0  0  0  0  0  0  0  0  0
   28.9369  -30.3395  -16.4411 C   0  0  0  0  0  0  0  0  0  0  0  0
   28.8469  -31.4759  -15.6714 C   0  0  0  0  0  0  0  0  0  0  0  0
   29.9342  -32.3492  -15.6156 C   0  0  0  0  0  0  0  0  0  0  0  0
   31.0570  -32.0367  -16.3358 C   0  0  0  0  0  0  0  0  0  0  0  0
   31.1637  -30.8967  -17.1153 C   0  0  0  0  0  0  0  0  0  0  0  0
   30.0833  -30.0617  -17.1499 C   0  0  0  0  0  0  0  0  0  0  0  0
   25.5480  -28.9838  -17.3290 C   0  0  0  0  0  0  0  0  0  0  0  0
   24.7353  -28.9382  -16.1757 O   0  0  0  0  0  0  0  0  0  0  0  0
   25.1956  -28.1853  -18.2309 O   0  0  0  0  0  0  0  0  0  0  0  0
  2  4  1  0
  2  1  1  6
  3  2  1  0
  4  5  1  6
  4  6  1  0
  6  7  2  0
  8  6  1  0
  8  9  1  0
  9 12  1  0
  9 10  1  6
 11 10  1  0
 12 14  1  0
 13 12  2  0
 14 15  1  0
 15 16  1  1
 16 17  1  0
 17 18  2  0
 18 19  1  0
 20 19  2  0
 21 20  1  0
 22 21  2  0
 22 17  1  0
 23 15  1  0
 24 23  1  0
 25 23  2  0
M  END
$$$$
