VCF.pdb
     RDKit          3D

 25 25  0  0  1  0  0  0  0  0999 V2000
   28.5597  -21.8763  -14.8526 C   0  0  0  0  0  0  0  0  0  0  0  0
   27.8475  -21.4340  -16.0775 C   0  0  1  0  0  0  0  0  0  0  0  0
   28.1911  -22.2798  -17.2815 C   0  0  0  0  0  0  0  0  0  0  0  0
   26.3365  -21.5415  -15.8804 C   0  0  2  0  0  0  0  0  0  0  0  0
   25.6685  -20.9594  -17.0509 N   0  0  0  0  0  0  0  0  0  0  0  0
   25.9767  -20.6855  -14.7281 C   0  0  0  0  0  0  0  0  0  0  0  0
   25.5594  -19.5132  -14.9572 O   0  0  0  0  0  0  0  0  0  0  0  0
   26.0565  -21.0679  -13.3656 N   0  0  0  0  0  0  0  0  0  0  0  0
   25.7006  -20.1284  -12.3329 C   0  0  1  0  0  0  0  0  0  0  0  0
   24.1827  -19.9083  -12.3886 C   0  0  0  0  0  0  0  0  0  0  0  0
   23.3972  -21.5248  -12.2419 S   0  0  0  0  0  0  0  0  0  0  0  0
   26.0004  -20.6787  -10.9887 C   0  0  0  0  0  0  0  0  0  0  0  0
   25.7717  -21.8846  -10.6690 O   0  0  0  0  0  0  0  0  0  0  0  0
   26.5691  -19.8637   -9.9768 N   0  0  0  0  0  0  0  0  0  0  0  0
   26.8259  -20.3441   -8.6248 C   0  0  1  0  0  0  0  0  0  0  0  0
   27.5745  -19.2303   -7.9317 C   0  0  0  0  0  0  0  0  0  0  0  0
   27.9968  -19.5702   -6.5675 C   0  0  0  0  0  0  0  0  0  0  0  0
   27.3209  -19.0212   -5.5027 C   0  0  0  0  0  0  0  0  0  0  0  0
   27.7156  -19.3464   -4.2041 C   0  0  0  0  0  0  0  0  0  0  0  0
   28.7694  -20.2066   -4.0408 C   0  0  0  0  0  0  0  0  0  0  0  0
   29.4603  -20.7677   -5.1021 C   0  0  0  0  0  0  0  0  0  0  0  0
   29.0507  -20.4306   -6.3608 C   0  0  0  0  0  0  0  0  0  0  0  0
   25.5812  -20.6185   -7.8921 C   0  0  0  0  0  0  0  0  0  0  0  0
   24.3874  -19.9149   -8.1613 O   0  0  0  0  0  0  0  0  0  0  0  0
   25.4702  -21.4795   -6.9858 O   0  0  0  0  0  0  0  0  0  0  0  0
  2  4  1  0
  2  1  1  1
  3  2  1  0
  4  5  1  6
  4  6  1  0
  6  7  2  0
  8  6  1  0
  8  9  1  0
  9 12  1  0
  9 10  1  1
 11 10  1  0
 12 14  1  0
 13 12  2  0
 14 15  1  0
 15 16  1  1
 16 17  1  0
 17 18  2  0
 18 19  1  0
 20 19  2  0
 21 20  1  0
 22 21  2  0
 22 17  1  0
 23 15  1  0
 24 23  1  0
 25 23  2  0
M  END
$$$$
