VCF.pdb
     RDKit          3D

 25 25  0  0  1  0  0  0  0  0999 V2000
   28.3435  -21.8456  -14.6690 C   0  0  0  0  0  0  0  0  0  0  0  0
   27.5331  -21.3914  -15.8266 C   0  0  1  0  0  0  0  0  0  0  0  0
   27.7992  -22.2051  -17.0717 C   0  0  0  0  0  0  0  0  0  0  0  0
   26.0434  -21.5316  -15.5187 C   0  0  2  0  0  0  0  0  0  0  0  0
   25.2782  -20.9780  -16.6427 N   0  0  0  0  0  0  0  0  0  0  0  0
   25.7481  -20.6717  -14.3512 C   0  0  0  0  0  0  0  0  0  0  0  0
   25.8404  -19.4174  -14.4898 O   0  0  0  0  0  0  0  0  0  0  0  0
   25.3616  -21.1343  -13.0684 N   0  0  0  0  0  0  0  0  0  0  0  0
   25.1919  -20.1975  -11.9870 C   0  0  1  0  0  0  0  0  0  0  0  0
   23.6887  -19.9523  -11.7977 C   0  0  0  0  0  0  0  0  0  0  0  0
   22.9049  -21.5596  -11.5652 S   0  0  0  0  0  0  0  0  0  0  0  0
   25.6934  -20.7635  -10.7111 C   0  0  0  0  0  0  0  0  0  0  0  0
   25.5314  -21.9778  -10.3829 O   0  0  0  0  0  0  0  0  0  0  0  0
   26.3927  -19.9549   -9.7791 N   0  0  0  0  0  0  0  0  0  0  0  0
   26.7744  -20.4250   -8.4532 C   0  0  1  0  0  0  0  0  0  0  0  0
   27.6315  -19.3300   -7.8635 C   0  0  0  0  0  0  0  0  0  0  0  0
   28.0628  -19.6024   -6.4871 C   0  0  0  0  0  0  0  0  0  0  0  0
   27.4954  -18.8903   -5.4561 C   0  0  0  0  0  0  0  0  0  0  0  0
   27.8985  -19.1503   -4.1454 C   0  0  0  0  0  0  0  0  0  0  0  0
   28.8513  -20.1124   -3.9367 C   0  0  0  0  0  0  0  0  0  0  0  0
   29.4323  -20.8380   -4.9636 C   0  0  0  0  0  0  0  0  0  0  0  0
   29.0173  -20.5610   -6.2351 C   0  0  0  0  0  0  0  0  0  0  0  0
   25.6057  -20.6423   -7.5883 C   0  0  0  0  0  0  0  0  0  0  0  0
   25.5767  -21.6671   -6.6179 O   0  0  0  0  0  0  0  0  0  0  0  0
   24.5564  -19.9551   -7.6330 O   0  0  0  0  0  0  0  0  0  0  0  0
  2  4  1  0
  2  1  1  1
  3  2  1  0
  4  5  1  6
  4  6  1  0
  6  7  2  0
  8  6  1  0
  8  9  1  0
  9 12  1  0
  9 10  1  1
 11 10  1  0
 12 14  1  0
 13 12  2  0
 14 15  1  0
 15 16  1  1
 16 17  1  0
 17 18  2  0
 18 19  1  0
 20 19  2  0
 21 20  1  0
 22 21  2  0
 22 17  1  0
 23 15  1  0
 24 23  1  0
 25 23  2  0
M  END
$$$$
