VCF.pdb
     RDKit          3D

 25 25  0  0  1  0  0  0  0  0999 V2000
   28.6167  -17.7159  -16.2067 C   0  0  0  0  0  0  0  0  0  0  0  0
   27.8547  -17.9711  -14.9588 C   0  0  1  0  0  0  0  0  0  0  0  0
   27.2152  -16.7182  -14.4070 C   0  0  0  0  0  0  0  0  0  0  0  0
   26.7238  -18.9639  -15.2216 C   0  0  2  0  0  0  0  0  0  0  0  0
   25.7872  -18.3647  -16.1802 N   0  0  0  0  0  0  0  0  0  0  0  0
   25.9746  -19.1291  -13.9562 C   0  0  0  0  0  0  0  0  0  0  0  0
   24.7831  -18.7065  -13.9035 O   0  0  0  0  0  0  0  0  0  0  0  0
   26.4793  -19.7315  -12.7766 N   0  0  0  0  0  0  0  0  0  0  0  0
   25.6046  -19.9598  -11.6547 C   0  0  1  0  0  0  0  0  0  0  0  0
   24.6574  -21.1130  -12.0134 C   0  0  0  0  0  0  0  0  0  0  0  0
   25.6720  -22.4782  -12.6123 S   0  0  0  0  0  0  0  0  0  0  0  0
   26.3726  -20.3965  -10.4635 C   0  0  0  0  0  0  0  0  0  0  0  0
   27.2824  -21.2787  -10.5131 O   0  0  0  0  0  0  0  0  0  0  0  0
   26.1191  -19.8351   -9.1859 N   0  0  0  0  0  0  0  0  0  0  0  0
   26.8086  -20.2723   -7.9783 C   0  0  1  0  0  0  0  0  0  0  0  0
   27.0363  -19.0211   -7.1634 C   0  0  0  0  0  0  0  0  0  0  0  0
   27.7535  -19.2649   -5.9060 C   0  0  0  0  0  0  0  0  0  0  0  0
   27.1126  -19.9362   -4.8908 C   0  0  0  0  0  0  0  0  0  0  0  0
   27.7930  -20.1751   -3.6959 C   0  0  0  0  0  0  0  0  0  0  0  0
   29.0827  -19.7275   -3.5811 C   0  0  0  0  0  0  0  0  0  0  0  0
   29.7421  -19.0501   -4.5934 C   0  0  0  0  0  0  0  0  0  0  0  0
   29.0503  -18.8314   -5.7507 C   0  0  0  0  0  0  0  0  0  0  0  0
   26.0011  -21.2187   -7.1951 C   0  0  0  0  0  0  0  0  0  0  0  0
   26.5926  -22.1723   -6.3387 O   0  0  0  0  0  0  0  0  0  0  0  0
   24.7471  -21.2633   -7.2162 O   0  0  0  0  0  0  0  0  0  0  0  0
  2  4  1  0
  2  1  1  6
  3  2  1  0
  4  5  1  6
  4  6  1  0
  6  7  2  0
  8  6  1  0
  8  9  1  0
  9 12  1  0
  9 10  1  6
 11 10  1  0
 12 14  1  0
 13 12  2  0
 14 15  1  0
 15 16  1  1
 16 17  1  0
 17 18  2  0
 18 19  1  0
 20 19  2  0
 21 20  1  0
 22 21  2  0
 22 17  1  0
 23 15  1  0
 24 23  1  0
 25 23  2  0
M  END
$$$$
