VCF.pdb
     RDKit          3D

 25 25  0  0  1  0  0  0  0  0999 V2000
   27.4798  -10.8959  -15.7878 C   0  0  0  0  0  0  0  0  0  0  0  0
   26.1968  -10.1526  -15.8554 C   0  0  1  0  0  0  0  0  0  0  0  0
   25.8279   -9.7661  -17.2687 C   0  0  0  0  0  0  0  0  0  0  0  0
   25.0550  -11.0162  -15.3225 C   0  0  2  0  0  0  0  0  0  0  0  0
   24.9642  -12.2311  -16.1416 N   0  0  0  0  0  0  0  0  0  0  0  0
   23.7950  -10.2718  -15.5421 C   0  0  0  0  0  0  0  0  0  0  0  0
   23.1294  -10.5127  -16.5908 O   0  0  0  0  0  0  0  0  0  0  0  0
   23.2549   -9.2968  -14.6664 N   0  0  0  0  0  0  0  0  0  0  0  0
   22.0285   -8.6228  -15.0091 C   0  0  1  0  0  0  0  0  0  0  0  0
   20.9258   -9.1283  -14.0688 C   0  0  0  0  0  0  0  0  0  0  0  0
   21.5932   -9.1066  -12.3937 S   0  0  0  0  0  0  0  0  0  0  0  0
   22.1442   -7.1619  -14.7806 C   0  0  0  0  0  0  0  0  0  0  0  0
   22.9549   -6.6549  -13.9474 O   0  0  0  0  0  0  0  0  0  0  0  0
   21.3355   -6.2448  -15.4992 N   0  0  0  0  0  0  0  0  0  0  0  0
   21.3851   -4.8046  -15.2791 C   0  0  1  0  0  0  0  0  0  0  0  0
   21.9833   -4.2205  -16.5370 C   0  0  0  0  0  0  0  0  0  0  0  0
   21.7185   -2.7857  -16.6985 C   0  0  0  0  0  0  0  0  0  0  0  0
   20.9097   -2.3677  -17.7296 C   0  0  0  0  0  0  0  0  0  0  0  0
   20.6507   -1.0049  -17.8831 C   0  0  0  0  0  0  0  0  0  0  0  0
   21.2176   -0.1308  -16.9933 C   0  0  0  0  0  0  0  0  0  0  0  0
   22.0342   -0.5354  -15.9503 C   0  0  0  0  0  0  0  0  0  0  0  0
   22.2690   -1.8753  -15.8258 C   0  0  0  0  0  0  0  0  0  0  0  0
   20.0469   -4.2330  -15.0700 C   0  0  0  0  0  0  0  0  0  0  0  0
   18.8981   -4.7830  -15.6786 O   0  0  0  0  0  0  0  0  0  0  0  0
   19.8111   -3.2316  -14.3511 O   0  0  0  0  0  0  0  0  0  0  0  0
  2  4  1  0
  2  1  1  6
  3  2  1  0
  4  5  1  6
  4  6  1  0
  6  7  2  0
  8  6  1  0
  8  9  1  0
  9 12  1  0
  9 10  1  1
 11 10  1  0
 12 14  1  0
 13 12  2  0
 14 15  1  0
 15 16  1  6
 16 17  1  0
 17 18  2  0
 18 19  1  0
 20 19  2  0
 21 20  1  0
 22 21  2  0
 22 17  1  0
 23 15  1  0
 24 23  1  0
 25 23  2  0
M  END
$$$$
