VCF.pdb
     RDKit          3D

 25 25  0  0  1  0  0  0  0  0999 V2000
   21.4334  -16.4197  -16.7315 C   0  0  0  0  0  0  0  0  0  0  0  0
   22.3928  -17.3818  -16.1340 C   0  0  1  0  0  0  0  0  0  0  0  0
   21.7017  -18.4802  -15.3601 C   0  0  0  0  0  0  0  0  0  0  0  0
   23.2122  -18.0627  -17.2288 C   0  0  2  0  0  0  0  0  0  0  0  0
   22.3153  -18.9027  -18.0319 N   0  0  0  0  0  0  0  0  0  0  0  0
   24.1614  -18.9840  -16.5653 C   0  0  0  0  0  0  0  0  0  0  0  0
   23.7592  -20.1443  -16.2605 O   0  0  0  0  0  0  0  0  0  0  0  0
   25.5061  -18.6796  -16.2365 N   0  0  0  0  0  0  0  0  0  0  0  0
   26.3284  -19.6670  -15.5847 C   0  0  1  0  0  0  0  0  0  0  0  0
   27.7297  -19.6097  -16.2082 C   0  0  0  0  0  0  0  0  0  0  0  0
   28.3094  -17.9072  -16.0773 S   0  0  0  0  0  0  0  0  0  0  0  0
   26.4918  -19.3542  -14.1442 C   0  0  0  0  0  0  0  0  0  0  0  0
   26.5755  -18.1694  -13.6995 O   0  0  0  0  0  0  0  0  0  0  0  0
   26.5635  -20.3887  -13.1766 N   0  0  0  0  0  0  0  0  0  0  0  0
   26.8745  -20.1406  -11.7743 C   0  0  1  0  0  0  0  0  0  0  0  0
   25.7508  -19.2754  -11.2544 C   0  0  0  0  0  0  0  0  0  0  0  0
   24.4594  -19.9703  -11.1912 C   0  0  0  0  0  0  0  0  0  0  0  0
   23.7386  -20.1471  -12.3493 C   0  0  0  0  0  0  0  0  0  0  0  0
   22.5129  -20.8125  -12.2943 C   0  0  0  0  0  0  0  0  0  0  0  0
   22.0732  -21.2664  -11.0787 C   0  0  0  0  0  0  0  0  0  0  0  0
   22.7866  -21.0963   -9.9037 C   0  0  0  0  0  0  0  0  0  0  0  0
   23.9823  -20.4416   -9.9895 C   0  0  0  0  0  0  0  0  0  0  0  0
   26.9270  -21.3850  -10.9932 C   0  0  0  0  0  0  0  0  0  0  0  0
   27.2575  -21.3902   -9.6209 O   0  0  0  0  0  0  0  0  0  0  0  0
   26.6893  -22.5242  -11.4630 O   0  0  0  0  0  0  0  0  0  0  0  0
  2  4  1  0
  2  1  1  6
  3  2  1  0
  4  5  1  6
  4  6  1  0
  6  7  2  0
  8  6  1  0
  8  9  1  0
  9 12  1  0
  9 10  1  6
 11 10  1  0
 12 14  1  0
 13 12  2  0
 14 15  1  0
 15 16  1  1
 16 17  1  0
 17 18  2  0
 18 19  1  0
 20 19  2  0
 21 20  1  0
 22 21  2  0
 22 17  1  0
 23 15  1  0
 24 23  1  0
 25 23  2  0
M  END
$$$$
