IAW.pdb
     RDKit          3D

 28 29  0  0  1  0  0  0  0  0999 V2000
   29.7101  -21.6799  -20.3237 C   0  0  0  0  0  0  0  0  0  0  0  0
   29.2039  -20.3702  -19.8553 C   0  0  0  0  0  0  0  0  0  0  0  0
   28.8815  -20.2048  -18.4231 C   0  0  2  0  0  0  0  0  0  0  0  0
   28.1055  -21.4159  -17.8990 C   0  0  0  0  0  0  0  0  0  0  0  0
   28.3168  -18.9268  -17.9716 C   0  0  2  0  0  0  0  0  0  0  0  0
   29.2834  -17.8438  -18.3793 N   0  0  0  0  0  0  0  0  0  0  0  0
   27.9271  -18.7284  -16.5905 C   0  0  0  0  0  0  0  0  0  0  0  0
   28.7059  -18.8602  -15.5963 O   0  0  0  0  0  0  0  0  0  0  0  0
   24.8409  -17.4296  -14.8728 C   0  0  0  0  0  0  0  0  0  0  0  0
   26.1352  -18.2199  -14.8535 C   0  0  2  0  0  0  0  0  0  0  0  0
   26.5910  -18.3541  -16.1959 N   0  0  0  0  0  0  0  0  0  0  0  0
   25.8590  -19.5100  -14.1849 C   0  0  0  0  0  0  0  0  0  0  0  0
   25.4733  -20.4984  -14.8747 O   0  0  0  0  0  0  0  0  0  0  0  0
   25.9946  -19.7336  -12.8018 N   0  0  0  0  0  0  0  0  0  0  0  0
   25.6594  -20.9971  -12.1310 C   0  0  1  0  0  0  0  0  0  0  0  0
   26.7603  -21.1972  -11.1278 C   0  0  0  0  0  0  0  0  0  0  0  0
   26.4303  -20.9716   -9.7245 C   0  0  0  0  0  0  0  0  0  0  0  0
   25.4032  -21.6302   -9.0742 C   0  0  0  0  0  0  0  0  0  0  0  0
   25.3556  -21.1692   -7.8179 N   0  0  0  0  0  0  0  0  0  0  0  0
   26.3009  -20.2492   -7.6308 C   0  0  0  0  0  0  0  0  0  0  0  0
   26.6213  -19.5307   -6.5043 C   0  0  0  0  0  0  0  0  0  0  0  0
   27.6604  -18.6427   -6.5530 C   0  0  0  0  0  0  0  0  0  0  0  0
   28.3571  -18.4925   -7.7284 C   0  0  0  0  0  0  0  0  0  0  0  0
   28.0336  -19.2098   -8.8468 C   0  0  0  0  0  0  0  0  0  0  0  0
   26.9872  -20.1091   -8.8128 C   0  0  0  0  0  0  0  0  0  0  0  0
   24.3373  -20.9993  -11.5528 C   0  0  0  0  0  0  0  0  0  0  0  0
   23.6342  -22.1821  -11.3938 O   0  0  0  0  0  0  0  0  0  0  0  0
   23.7895  -19.9394  -11.1800 O   0  0  0  0  0  0  0  0  0  0  0  0
  2  1  1  0
  2  3  1  0
  3  5  1  0
  3  4  1  6
  5  6  1  1
  5  7  1  0
  7  8  2  0
 10  9  1  6
 11  7  1  0
 11 10  1  0
 12 13  2  0
 12 10  1  0
 14 12  1  0
 15 14  1  0
 15 16  1  1
 17 25  1  0
 17 16  1  0
 18 17  2  0
 19 18  1  0
 19 20  1  0
 20 21  1  0
 20 25  2  0
 21 22  2  0
 22 23  1  0
 24 23  2  0
 25 24  1  0
 26 15  1  0
 27 26  1  0
 28 26  2  0
M  END
$$$$
