IAW.pdb
     RDKit          3D

 28 29  0  0  1  0  0  0  0  0999 V2000
   24.6060  -19.1110  -18.6610 C   0  0  0  0  0  0  0  0  0  0  0  0
   23.4759  -19.2176  -17.7112 C   0  0  0  0  0  0  0  0  0  0  0  0
   23.7329  -18.9919  -16.2739 C   0  0  2  0  0  0  0  0  0  0  0  0
   24.9444  -19.8026  -15.8063 C   0  0  0  0  0  0  0  0  0  0  0  0
   22.6042  -19.0615  -15.3374 C   0  0  2  0  0  0  0  0  0  0  0  0
   21.5580  -18.0927  -15.8277 N   0  0  0  0  0  0  0  0  0  0  0  0
   22.8015  -18.8765  -13.9142 C   0  0  0  0  0  0  0  0  0  0  0  0
   23.3359  -17.8516  -13.3884 O   0  0  0  0  0  0  0  0  0  0  0  0
   21.5971  -20.5446  -10.8001 C   0  0  0  0  0  0  0  0  0  0  0  0
   22.6806  -19.7800  -11.5361 C   0  0  2  0  0  0  0  0  0  0  0  0
   22.4041  -19.8544  -12.9310 N   0  0  0  0  0  0  0  0  0  0  0  0
   23.9811  -20.3711  -11.1528 C   0  0  0  0  0  0  0  0  0  0  0  0
   24.3480  -21.4621  -11.6787 O   0  0  0  0  0  0  0  0  0  0  0  0
   24.8702  -19.8009  -10.2222 N   0  0  0  0  0  0  0  0  0  0  0  0
   26.1129  -20.4387   -9.7670 C   0  0  1  0  0  0  0  0  0  0  0  0
   26.7279  -19.4416   -8.8257 C   0  0  0  0  0  0  0  0  0  0  0  0
   27.9461  -19.8456   -8.1318 C   0  0  0  0  0  0  0  0  0  0  0  0
   28.9345  -20.6104   -8.7229 C   0  0  0  0  0  0  0  0  0  0  0  0
   29.8876  -20.8223   -7.8065 N   0  0  0  0  0  0  0  0  0  0  0  0
   29.5596  -20.2311   -6.6585 C   0  0  0  0  0  0  0  0  0  0  0  0
   30.2429  -20.1773   -5.4677 C   0  0  0  0  0  0  0  0  0  0  0  0
   29.7028  -19.4838   -4.4198 C   0  0  0  0  0  0  0  0  0  0  0  0
   28.4900  -18.8586   -4.5859 C   0  0  0  0  0  0  0  0  0  0  0  0
   27.8139  -18.9158   -5.7731 C   0  0  0  0  0  0  0  0  0  0  0  0
   28.3461  -19.6123   -6.8392 C   0  0  0  0  0  0  0  0  0  0  0  0
   25.9010  -21.7397   -9.1798 C   0  0  0  0  0  0  0  0  0  0  0  0
   26.7166  -22.8093   -9.5110 O   0  0  0  0  0  0  0  0  0  0  0  0
   24.9798  -21.9399   -8.3590 O   0  0  0  0  0  0  0  0  0  0  0  0
  2  1  1  0
  2  3  1  0
  3  5  1  0
  3  4  1  1
  5  6  1  6
  5  7  1  0
  7  8  2  0
 10  9  1  1
 11  7  1  0
 11 10  1  0
 12 13  2  0
 12 10  1  0
 14 12  1  0
 15 14  1  0
 15 16  1  1
 17 25  1  0
 17 16  1  0
 18 17  2  0
 19 18  1  0
 19 20  1  0
 20 21  1  0
 20 25  2  0
 21 22  2  0
 22 23  1  0
 24 23  2  0
 25 24  1  0
 26 15  1  0
 27 26  1  0
 28 26  2  0
M  END
$$$$
