IAW.pdb
     RDKit          3D

 28 29  0  0  1  0  0  0  0  0999 V2000
   22.5830  -16.4372  -14.8010 C   0  0  0  0  0  0  0  0  0  0  0  0
   23.6483  -17.1454  -15.5457 C   0  0  0  0  0  0  0  0  0  0  0  0
   24.5405  -18.0631  -14.8077 C   0  0  2  0  0  0  0  0  0  0  0  0
   25.1293  -17.3717  -13.5753 C   0  0  0  0  0  0  0  0  0  0  0  0
   25.5385  -18.8323  -15.5615 C   0  0  2  0  0  0  0  0  0  0  0  0
   24.8388  -19.4114  -16.7650 N   0  0  0  0  0  0  0  0  0  0  0  0
   26.3261  -19.8652  -14.9201 C   0  0  0  0  0  0  0  0  0  0  0  0
   25.9515  -21.0695  -14.7727 O   0  0  0  0  0  0  0  0  0  0  0  0
   29.8246  -19.9937  -13.5010 C   0  0  0  0  0  0  0  0  0  0  0  0
   28.4570  -20.6053  -13.7377 C   0  0  2  0  0  0  0  0  0  0  0  0
   27.6399  -19.6277  -14.3737 N   0  0  0  0  0  0  0  0  0  0  0  0
   27.9385  -21.0564  -12.4280 C   0  0  0  0  0  0  0  0  0  0  0  0
   28.5726  -21.9376  -11.7777 O   0  0  0  0  0  0  0  0  0  0  0  0
   26.7613  -20.5701  -11.8288 N   0  0  0  0  0  0  0  0  0  0  0  0
   26.2927  -20.9574  -10.4912 C   0  0  1  0  0  0  0  0  0  0  0  0
   27.1733  -20.1913   -9.5446 C   0  0  0  0  0  0  0  0  0  0  0  0
   26.8497  -20.2701   -8.1241 C   0  0  0  0  0  0  0  0  0  0  0  0
   25.6125  -20.6667   -7.6515 C   0  0  0  0  0  0  0  0  0  0  0  0
   25.6463  -20.5972   -6.3146 N   0  0  0  0  0  0  0  0  0  0  0  0
   26.8432  -20.1767   -5.9074 C   0  0  0  0  0  0  0  0  0  0  0  0
   27.3210  -19.9753   -4.6351 C   0  0  0  0  0  0  0  0  0  0  0  0
   28.6100  -19.5502   -4.4664 C   0  0  0  0  0  0  0  0  0  0  0  0
   29.3938  -19.3358   -5.5750 C   0  0  0  0  0  0  0  0  0  0  0  0
   28.9130  -19.5374   -6.8392 C   0  0  0  0  0  0  0  0  0  0  0  0
   27.6142  -19.9656   -7.0249 C   0  0  0  0  0  0  0  0  0  0  0  0
   24.8826  -20.7225  -10.2938 C   0  0  0  0  0  0  0  0  0  0  0  0
   24.1710  -19.9075  -11.1589 O   0  0  0  0  0  0  0  0  0  0  0  0
   24.2641  -21.2444   -9.3413 O   0  0  0  0  0  0  0  0  0  0  0  0
  2  1  1  0
  2  3  1  0
  3  5  1  0
  3  4  1  1
  5  6  1  6
  5  7  1  0
  7  8  2  0
 10  9  1  1
 11  7  1  0
 11 10  1  0
 12 13  2  0
 12 10  1  0
 14 12  1  0
 15 14  1  0
 15 16  1  1
 17 25  1  0
 17 16  1  0
 18 17  2  0
 19 18  1  0
 19 20  1  0
 20 21  1  0
 20 25  2  0
 21 22  2  0
 22 23  1  0
 24 23  2  0
 25 24  1  0
 26 15  1  0
 27 26  1  0
 28 26  2  0
M  END
$$$$
