IAW.pdb
     RDKit          3D

 28 29  0  0  1  0  0  0  0  0999 V2000
   24.0570  -17.4184  -15.1998 C   0  0  0  0  0  0  0  0  0  0  0  0
   25.4341  -17.9610  -15.2013 C   0  0  0  0  0  0  0  0  0  0  0  0
   25.7954  -18.9833  -14.1978 C   0  0  2  0  0  0  0  0  0  0  0  0
   25.4295  -18.5117  -12.7881 C   0  0  0  0  0  0  0  0  0  0  0  0
   27.1276  -19.5970  -14.2661 C   0  0  2  0  0  0  0  0  0  0  0  0
   27.3322  -20.0608  -15.6862 N   0  0  0  0  0  0  0  0  0  0  0  0
   27.5101  -20.6559  -13.3546 C   0  0  0  0  0  0  0  0  0  0  0  0
   27.0519  -21.8395  -13.3927 O   0  0  0  0  0  0  0  0  0  0  0  0
   30.1912  -21.0732  -10.7632 C   0  0  0  0  0  0  0  0  0  0  0  0
   28.8430  -21.4616  -11.3395 C   0  0  2  0  0  0  0  0  0  0  0  0
   28.4677  -20.4714  -12.2916 N   0  0  0  0  0  0  0  0  0  0  0  0
   27.8972  -21.5927  -10.2099 C   0  0  0  0  0  0  0  0  0  0  0  0
   28.1282  -22.4415   -9.3002 O   0  0  0  0  0  0  0  0  0  0  0  0
   26.7257  -20.8266  -10.0611 N   0  0  0  0  0  0  0  0  0  0  0  0
   25.7212  -21.0463   -9.0116 C   0  0  1  0  0  0  0  0  0  0  0  0
   25.6727  -19.7482   -8.2559 C   0  0  0  0  0  0  0  0  0  0  0  0
   26.8924  -19.3305   -7.5726 C   0  0  0  0  0  0  0  0  0  0  0  0
   27.7088  -18.3156   -8.0360 C   0  0  0  0  0  0  0  0  0  0  0  0
   28.7467  -18.2130   -7.1962 N   0  0  0  0  0  0  0  0  0  0  0  0
   28.6358  -19.1107   -6.2181 C   0  0  0  0  0  0  0  0  0  0  0  0
   29.4573  -19.3493   -5.1430 C   0  0  0  0  0  0  0  0  0  0  0  0
   29.1193  -20.3284   -4.2498 C   0  0  0  0  0  0  0  0  0  0  0  0
   27.9657  -21.0481   -4.4515 C   0  0  0  0  0  0  0  0  0  0  0  0
   27.1518  -20.8068   -5.5235 C   0  0  0  0  0  0  0  0  0  0  0  0
   27.4804  -19.8225   -6.4335 C   0  0  0  0  0  0  0  0  0  0  0  0
   24.4416  -21.4664   -9.5298 C   0  0  0  0  0  0  0  0  0  0  0  0
   23.4002  -21.7871   -8.6745 O   0  0  0  0  0  0  0  0  0  0  0  0
   24.2354  -21.5533  -10.7595 O   0  0  0  0  0  0  0  0  0  0  0  0
  2  1  1  0
  2  3  1  0
  3  5  1  0
  3  4  1  1
  5  6  1  6
  5  7  1  0
  7  8  2  0
 10  9  1  1
 11  7  1  0
 11 10  1  0
 12 13  2  0
 12 10  1  0
 14 12  1  0
 15 14  1  0
 15 16  1  6
 17 25  1  0
 17 16  1  0
 18 17  2  0
 19 18  1  0
 19 20  1  0
 20 21  1  0
 20 25  2  0
 21 22  2  0
 22 23  1  0
 24 23  2  0
 25 24  1  0
 26 15  1  0
 27 26  1  0
 28 26  2  0
M  END
$$$$
