IAW.pdb
     RDKit          3D

 28 29  0  0  1  0  0  0  0  0999 V2000
   28.8627  -18.8773  -17.2707 C   0  0  0  0  0  0  0  0  0  0  0  0
   28.4683  -19.9119  -16.2884 C   0  0  0  0  0  0  0  0  0  0  0  0
   27.7475  -19.4942  -15.0683 C   0  0  2  0  0  0  0  0  0  0  0  0
   28.3863  -18.2412  -14.4638 C   0  0  0  0  0  0  0  0  0  0  0  0
   27.4215  -20.5110  -14.0603 C   0  0  2  0  0  0  0  0  0  0  0  0
   26.7326  -21.6444  -14.7774 N   0  0  0  0  0  0  0  0  0  0  0  0
   26.6712  -20.1688  -12.8693 C   0  0  0  0  0  0  0  0  0  0  0  0
   27.1399  -19.5179  -11.8850 O   0  0  0  0  0  0  0  0  0  0  0  0
   23.0264  -20.3958  -11.9528 C   0  0  0  0  0  0  0  0  0  0  0  0
   24.4733  -20.1312  -11.5830 C   0  0  2  0  0  0  0  0  0  0  0  0
   25.2903  -20.5385  -12.6759 N   0  0  0  0  0  0  0  0  0  0  0  0
   24.7517  -20.8588  -10.3257 C   0  0  0  0  0  0  0  0  0  0  0  0
   25.1530  -22.0578  -10.3764 O   0  0  0  0  0  0  0  0  0  0  0  0
   24.6014  -20.3085   -9.0388 N   0  0  0  0  0  0  0  0  0  0  0  0
   24.8075  -21.0551   -7.7904 C   0  0  1  0  0  0  0  0  0  0  0  0
   25.2059  -20.0109   -6.7857 C   0  0  0  0  0  0  0  0  0  0  0  0
   26.6143  -19.6320   -6.7433 C   0  0  0  0  0  0  0  0  0  0  0  0
   27.2591  -19.0007   -7.7906 C   0  0  0  0  0  0  0  0  0  0  0  0
   28.5385  -18.8273   -7.4353 N   0  0  0  0  0  0  0  0  0  0  0  0
   28.7452  -19.3151   -6.2129 C   0  0  0  0  0  0  0  0  0  0  0  0
   29.8910  -19.3389   -5.4552 C   0  0  0  0  0  0  0  0  0  0  0  0
   29.8509  -19.8867   -4.2026 C   0  0  0  0  0  0  0  0  0  0  0  0
   28.6644  -20.3994   -3.7348 C   0  0  0  0  0  0  0  0  0  0  0  0
   27.5269  -20.3737   -4.4934 C   0  0  0  0  0  0  0  0  0  0  0  0
   27.5524  -19.8246   -5.7594 C   0  0  0  0  0  0  0  0  0  0  0  0
   23.6568  -21.8321   -7.3973 C   0  0  0  0  0  0  0  0  0  0  0  0
   23.7784  -22.8706   -6.4887 O   0  0  0  0  0  0  0  0  0  0  0  0
   22.5215  -21.5929   -7.8625 O   0  0  0  0  0  0  0  0  0  0  0  0
  2  1  1  0
  2  3  1  0
  3  5  1  0
  3  4  1  1
  5  6  1  6
  5  7  1  0
  7  8  2  0
 10  9  1  6
 11  7  1  0
 11 10  1  0
 12 13  2  0
 12 10  1  0
 14 12  1  0
 15 14  1  0
 15 16  1  1
 17 25  1  0
 17 16  1  0
 18 17  2  0
 19 18  1  0
 19 20  1  0
 20 21  1  0
 20 25  2  0
 21 22  2  0
 22 23  1  0
 24 23  2  0
 25 24  1  0
 26 15  1  0
 27 26  1  0
 28 26  2  0
M  END
$$$$
