IAW.pdb
     RDKit          3D

 28 29  0  0  1  0  0  0  0  0999 V2000
   17.5848  -17.4568  -15.1791 C   0  0  0  0  0  0  0  0  0  0  0  0
   16.9391  -16.6133  -16.2097 C   0  0  0  0  0  0  0  0  0  0  0  0
   17.5128  -15.2831  -16.4999 C   0  0  2  0  0  0  0  0  0  0  0  0
   17.6585  -14.4639  -15.2149 C   0  0  0  0  0  0  0  0  0  0  0  0
   16.9562  -14.5039  -17.6130 C   0  0  2  0  0  0  0  0  0  0  0  0
   16.9769  -15.3909  -18.8321 N   0  0  0  0  0  0  0  0  0  0  0  0
   17.4926  -13.2026  -17.9560 C   0  0  0  0  0  0  0  0  0  0  0  0
   18.6945  -12.9882  -18.3048 O   0  0  0  0  0  0  0  0  0  0  0  0
   16.0887   -9.8366  -18.7299 C   0  0  0  0  0  0  0  0  0  0  0  0
   17.2043  -10.6789  -18.1415 C   0  0  2  0  0  0  0  0  0  0  0  0
   16.7026  -11.9958  -17.9365 N   0  0  0  0  0  0  0  0  0  0  0  0
   17.6580  -10.0130  -16.9012 C   0  0  0  0  0  0  0  0  0  0  0  0
   17.0009  -10.1746  -15.8319 O   0  0  0  0  0  0  0  0  0  0  0  0
   18.7959   -9.1891  -16.8119 N   0  0  0  0  0  0  0  0  0  0  0  0
   19.1936   -8.4558  -15.6025 C   0  0  1  0  0  0  0  0  0  0  0  0
   20.6478   -8.1398  -15.8120 C   0  0  0  0  0  0  0  0  0  0  0  0
   21.2754   -7.2323  -14.8573 C   0  0  0  0  0  0  0  0  0  0  0  0
   21.7944   -7.6502  -13.6460 C   0  0  0  0  0  0  0  0  0  0  0  0
   22.2622   -6.5691  -13.0091 N   0  0  0  0  0  0  0  0  0  0  0  0
   22.0695   -5.4801  -13.7520 C   0  0  0  0  0  0  0  0  0  0  0  0
   22.4022   -4.1710  -13.5005 C   0  0  0  0  0  0  0  0  0  0  0  0
   22.1131   -3.2176  -14.4376 C   0  0  0  0  0  0  0  0  0  0  0  0
   21.4969   -3.5948  -15.6070 C   0  0  0  0  0  0  0  0  0  0  0  0
   21.1674   -4.8991  -15.8520 C   0  0  0  0  0  0  0  0  0  0  0  0
   21.4524   -5.8719  -14.9155 C   0  0  0  0  0  0  0  0  0  0  0  0
   18.3761   -7.2941  -15.3486 C   0  0  0  0  0  0  0  0  0  0  0  0
   18.1005   -6.8897  -14.0527 O   0  0  0  0  0  0  0  0  0  0  0  0
   17.8943   -6.6213  -16.2854 O   0  0  0  0  0  0  0  0  0  0  0  0
  2  1  1  0
  2  3  1  0
  3  5  1  0
  3  4  1  1
  5  6  1  6
  5  7  1  0
  7  8  2  0
 10  9  1  1
 11  7  1  0
 11 10  1  0
 12 13  2  0
 12 10  1  0
 14 12  1  0
 15 14  1  0
 15 16  1  6
 17 25  1  0
 17 16  1  0
 18 17  2  0
 19 18  1  0
 19 20  1  0
 20 21  1  0
 20 25  2  0
 21 22  2  0
 22 23  1  0
 24 23  2  0
 25 24  1  0
 26 15  1  0
 27 26  1  0
 28 26  2  0
M  END
$$$$
