IAW.pdb
     RDKit          3D

 28 29  0  0  1  0  0  0  0  0999 V2000
   27.0738  -15.7378  -15.5066 C   0  0  0  0  0  0  0  0  0  0  0  0
   25.5999  -15.8697  -15.5371 C   0  0  0  0  0  0  0  0  0  0  0  0
   24.7887  -14.6882  -15.8960 C   0  0  2  0  0  0  0  0  0  0  0  0
   25.1748  -13.4837  -15.0336 C   0  0  0  0  0  0  0  0  0  0  0  0
   23.3358  -14.8476  -16.0353 C   0  0  2  0  0  0  0  0  0  0  0  0
   23.1013  -16.0631  -16.8961 N   0  0  0  0  0  0  0  0  0  0  0  0
   22.5062  -13.7574  -16.5064 C   0  0  0  0  0  0  0  0  0  0  0  0
   22.6321  -13.1931  -17.6369 O   0  0  0  0  0  0  0  0  0  0  0  0
   19.2233  -12.3050  -15.7029 C   0  0  0  0  0  0  0  0  0  0  0  0
   20.6677  -12.0457  -16.0864 C   0  0  2  0  0  0  0  0  0  0  0  0
   21.4329  -13.1913  -15.7262 N   0  0  0  0  0  0  0  0  0  0  0  0
   21.0934  -10.8045  -15.4040 C   0  0  0  0  0  0  0  0  0  0  0  0
   21.5135  -10.8625  -14.2117 O   0  0  0  0  0  0  0  0  0  0  0  0
   21.0680   -9.5255  -15.9915 N   0  0  0  0  0  0  0  0  0  0  0  0
   21.4665   -8.2905  -15.3027 C   0  0  1  0  0  0  0  0  0  0  0  0
   21.4791   -7.2429  -16.3801 C   0  0  0  0  0  0  0  0  0  0  0  0
   21.7705   -5.8727  -15.9720 C   0  0  0  0  0  0  0  0  0  0  0  0
   22.7249   -5.5530  -15.0242 C   0  0  0  0  0  0  0  0  0  0  0  0
   22.7135   -4.2231  -14.8680 N   0  0  0  0  0  0  0  0  0  0  0  0
   21.8004   -3.6751  -15.6686 C   0  0  0  0  0  0  0  0  0  0  0  0
   21.4609   -2.3556  -15.8454 C   0  0  0  0  0  0  0  0  0  0  0  0
   20.4887   -2.0328  -16.7516 C   0  0  0  0  0  0  0  0  0  0  0  0
   19.8767   -3.0379  -17.4621 C   0  0  0  0  0  0  0  0  0  0  0  0
   20.2181   -4.3497  -17.2818 C   0  0  0  0  0  0  0  0  0  0  0  0
   21.1969   -4.6905  -16.3704 C   0  0  0  0  0  0  0  0  0  0  0  0
   20.6154   -7.9648  -14.1838 C   0  0  0  0  0  0  0  0  0  0  0  0
   21.1487   -7.4561  -13.0109 O   0  0  0  0  0  0  0  0  0  0  0  0
   19.3778   -8.1310  -14.2388 O   0  0  0  0  0  0  0  0  0  0  0  0
  2  1  1  0
  2  3  1  0
  3  5  1  0
  3  4  1  1
  5  6  1  6
  5  7  1  0
  7  8  2  0
 10  9  1  1
 11  7  1  0
 11 10  1  0
 12 13  2  0
 12 10  1  0
 14 12  1  0
 15 14  1  0
 15 16  1  6
 17 25  1  0
 17 16  1  0
 18 17  2  0
 19 18  1  0
 19 20  1  0
 20 21  1  0
 20 25  2  0
 21 22  2  0
 22 23  1  0
 24 23  2  0
 25 24  1  0
 26 15  1  0
 27 26  1  0
 28 26  2  0
M  END
$$$$
