IAW.pdb
     RDKit          3D

 28 29  0  0  1  0  0  0  0  0999 V2000
   29.1174  -17.3591  -17.1251 C   0  0  0  0  0  0  0  0  0  0  0  0
   28.0176  -17.9222  -16.3102 C   0  0  0  0  0  0  0  0  0  0  0  0
   27.0540  -18.8384  -16.9543 C   0  0  2  0  0  0  0  0  0  0  0  0
   26.4255  -18.1841  -18.1873 C   0  0  0  0  0  0  0  0  0  0  0  0
   26.0705  -19.5311  -16.1124 C   0  0  2  0  0  0  0  0  0  0  0  0
   26.8224  -20.1338  -14.9528 N   0  0  0  0  0  0  0  0  0  0  0  0
   25.1744  -20.5225  -16.6718 C   0  0  0  0  0  0  0  0  0  0  0  0
   24.1807  -20.2566  -17.4164 O   0  0  0  0  0  0  0  0  0  0  0  0
   25.0448  -24.2962  -16.6122 C   0  0  0  0  0  0  0  0  0  0  0  0
   24.4053  -22.9432  -16.8586 C   0  0  2  0  0  0  0  0  0  0  0  0
   25.3216  -21.9381  -16.4367 N   0  0  0  0  0  0  0  0  0  0  0  0
   23.1175  -22.9205  -16.1315 C   0  0  0  0  0  0  0  0  0  0  0  0
   22.1950  -23.7158  -16.4748 O   0  0  0  0  0  0  0  0  0  0  0  0
   22.8267  -22.0596  -15.0565 N   0  0  0  0  0  0  0  0  0  0  0  0
   21.5313  -22.0075  -14.3652 C   0  0  1  0  0  0  0  0  0  0  0  0
   21.8068  -22.5745  -13.0010 C   0  0  0  0  0  0  0  0  0  0  0  0
   22.5629  -21.7392  -12.0739 C   0  0  0  0  0  0  0  0  0  0  0  0
   21.9771  -20.7738  -11.2763 C   0  0  0  0  0  0  0  0  0  0  0  0
   22.9512  -20.1782  -10.5767 N   0  0  0  0  0  0  0  0  0  0  0  0
   24.1312  -20.7142  -10.8855 C   0  0  0  0  0  0  0  0  0  0  0  0
   25.3847  -20.4238  -10.4039 C   0  0  0  0  0  0  0  0  0  0  0  0
   26.4582  -21.1330  -10.8679 C   0  0  0  0  0  0  0  0  0  0  0  0
   26.2543  -22.1184  -11.8044 C   0  0  0  0  0  0  0  0  0  0  0  0
   25.0046  -22.4030  -12.2808 C   0  0  0  0  0  0  0  0  0  0  0  0
   23.9120  -21.6952  -11.8223 C   0  0  0  0  0  0  0  0  0  0  0  0
   20.9540  -20.6852  -14.3403 C   0  0  0  0  0  0  0  0  0  0  0  0
   19.6098  -20.5028  -14.0600 O   0  0  0  0  0  0  0  0  0  0  0  0
   21.6458  -19.6698  -14.5700 O   0  0  0  0  0  0  0  0  0  0  0  0
  2  1  1  0
  2  3  1  0
  3  5  1  0
  3  4  1  6
  5  6  1  1
  5  7  1  0
  7  8  2  0
 10  9  1  1
 11  7  1  0
 11 10  1  0
 12 13  2  0
 12 10  1  0
 14 12  1  0
 15 14  1  0
 15 16  1  1
 17 25  1  0
 17 16  1  0
 18 17  2  0
 19 18  1  0
 19 20  1  0
 20 21  1  0
 20 25  2  0
 21 22  2  0
 22 23  1  0
 24 23  2  0
 25 24  1  0
 26 15  1  0
 27 26  1  0
 28 26  2  0
M  END
$$$$
