IAW.pdb
     RDKit          3D

 28 29  0  0  1  0  0  0  0  0999 V2000
   23.6889  -14.3995  -17.6294 C   0  0  0  0  0  0  0  0  0  0  0  0
   23.7201  -15.4422  -16.5794 C   0  0  0  0  0  0  0  0  0  0  0  0
   24.8758  -16.3609  -16.5253 C   0  0  2  0  0  0  0  0  0  0  0  0
   25.1565  -16.9602  -17.9057 C   0  0  0  0  0  0  0  0  0  0  0  0
   24.9332  -17.3575  -15.4485 C   0  0  2  0  0  0  0  0  0  0  0  0
   24.7224  -16.6223  -14.1491 N   0  0  0  0  0  0  0  0  0  0  0  0
   26.0657  -18.2512  -15.3171 C   0  0  0  0  0  0  0  0  0  0  0  0
   26.4668  -19.0439  -16.2243 O   0  0  0  0  0  0  0  0  0  0  0  0
   28.9630  -18.5018  -13.0019 C   0  0  0  0  0  0  0  0  0  0  0  0
   27.9904  -19.1914  -13.9393 C   0  0  2  0  0  0  0  0  0  0  0  0
   26.8685  -18.3336  -14.1213 N   0  0  0  0  0  0  0  0  0  0  0  0
   27.6500  -20.5013  -13.3427 C   0  0  0  0  0  0  0  0  0  0  0  0
   28.5455  -21.3894  -13.2387 O   0  0  0  0  0  0  0  0  0  0  0  0
   26.3718  -20.8501  -12.8672 N   0  0  0  0  0  0  0  0  0  0  0  0
   25.9679  -22.2156  -12.5050 C   0  0  1  0  0  0  0  0  0  0  0  0
   25.3912  -22.0862  -11.1233 C   0  0  0  0  0  0  0  0  0  0  0  0
   25.9119  -21.0129  -10.2832 C   0  0  0  0  0  0  0  0  0  0  0  0
   25.1883  -19.8761   -9.9741 C   0  0  0  0  0  0  0  0  0  0  0  0
   25.9664  -19.0919   -9.2174 N   0  0  0  0  0  0  0  0  0  0  0  0
   27.1515  -19.6696   -9.0256 C   0  0  0  0  0  0  0  0  0  0  0  0
   28.2394  -19.2334   -8.3087 C   0  0  0  0  0  0  0  0  0  0  0  0
   29.3545  -20.0225   -8.2428 C   0  0  0  0  0  0  0  0  0  0  0  0
   29.3573  -21.2320   -8.8961 C   0  0  0  0  0  0  0  0  0  0  0  0
   28.2720  -21.6611   -9.6087 C   0  0  0  0  0  0  0  0  0  0  0  0
   27.1399  -20.8753   -9.6846 C   0  0  0  0  0  0  0  0  0  0  0  0
   25.0648  -22.8121  -13.4593 C   0  0  0  0  0  0  0  0  0  0  0  0
   24.7495  -24.1593  -13.3919 O   0  0  0  0  0  0  0  0  0  0  0  0
   24.5425  -22.1349  -14.3709 O   0  0  0  0  0  0  0  0  0  0  0  0
  2  1  1  0
  2  3  1  0
  3  5  1  0
  3  4  1  6
  5  6  1  1
  5  7  1  0
  7  8  2  0
 10  9  1  1
 11  7  1  0
 11 10  1  0
 12 13  2  0
 12 10  1  0
 14 12  1  0
 15 14  1  0
 15 16  1  1
 17 25  1  0
 17 16  1  0
 18 17  2  0
 19 18  1  0
 19 20  1  0
 20 21  1  0
 20 25  2  0
 21 22  2  0
 22 23  1  0
 24 23  2  0
 25 24  1  0
 26 15  1  0
 27 26  1  0
 28 26  2  0
M  END
$$$$
