IAW.pdb
     RDKit          3D

 28 29  0  0  1  0  0  0  0  0999 V2000
   28.3923  -18.0591  -17.9350 C   0  0  0  0  0  0  0  0  0  0  0  0
   28.6592  -18.9794  -16.8069 C   0  0  0  0  0  0  0  0  0  0  0  0
   27.5237  -19.4356  -15.9790 C   0  0  2  0  0  0  0  0  0  0  0  0
   26.6797  -18.2459  -15.5144 C   0  0  0  0  0  0  0  0  0  0  0  0
   27.7789  -20.4068  -14.9078 C   0  0  2  0  0  0  0  0  0  0  0  0
   28.5806  -21.5333  -15.5094 N   0  0  0  0  0  0  0  0  0  0  0  0
   26.6923  -20.9559  -14.1226 C   0  0  0  0  0  0  0  0  0  0  0  0
   25.8457  -21.7979  -14.5542 O   0  0  0  0  0  0  0  0  0  0  0  0
   25.5148  -20.4701  -10.5626 C   0  0  0  0  0  0  0  0  0  0  0  0
   25.3104  -20.9603  -11.9833 C   0  0  2  0  0  0  0  0  0  0  0  0
   26.4567  -20.5963  -12.7455 N   0  0  0  0  0  0  0  0  0  0  0  0
   24.0496  -20.3686  -12.4812 C   0  0  0  0  0  0  0  0  0  0  0  0
   23.9479  -19.1110  -12.5779 O   0  0  0  0  0  0  0  0  0  0  0  0
   22.9198  -21.1141  -12.8676 N   0  0  0  0  0  0  0  0  0  0  0  0
   21.6228  -20.5246  -13.2270 C   0  0  1  0  0  0  0  0  0  0  0  0
   21.5231  -20.7071  -14.7154 C   0  0  0  0  0  0  0  0  0  0  0  0
   22.2619  -19.7670  -15.5516 C   0  0  0  0  0  0  0  0  0  0  0  0
   23.5899  -19.9418  -15.8939 C   0  0  0  0  0  0  0  0  0  0  0  0
   23.9605  -18.8906  -16.6361 N   0  0  0  0  0  0  0  0  0  0  0  0
   22.9364  -18.0518  -16.7870 C   0  0  0  0  0  0  0  0  0  0  0  0
   22.8622  -16.8658  -17.4766 C   0  0  0  0  0  0  0  0  0  0  0  0
   21.6781  -16.1818  -17.5013 C   0  0  0  0  0  0  0  0  0  0  0  0
   20.5929  -16.6994  -16.8352 C   0  0  0  0  0  0  0  0  0  0  0  0
   20.6723  -17.8801  -16.1499 C   0  0  0  0  0  0  0  0  0  0  0  0
   21.8607  -18.5811  -16.1156 C   0  0  0  0  0  0  0  0  0  0  0  0
   20.5178  -21.0953  -12.4953 C   0  0  0  0  0  0  0  0  0  0  0  0
   20.6961  -22.2155  -11.7001 O   0  0  0  0  0  0  0  0  0  0  0  0
   19.3723  -20.5989  -12.5567 O   0  0  0  0  0  0  0  0  0  0  0  0
  2  1  1  0
  2  3  1  0
  3  5  1  0
  3  4  1  1
  5  6  1  6
  5  7  1  0
  7  8  2  0
 10  9  1  1
 11  7  1  0
 11 10  1  0
 12 13  2  0
 12 10  1  0
 14 12  1  0
 15 14  1  0
 15 16  1  6
 17 25  1  0
 17 16  1  0
 18 17  2  0
 19 18  1  0
 19 20  1  0
 20 21  1  0
 20 25  2  0
 21 22  2  0
 22 23  1  0
 24 23  2  0
 25 24  1  0
 26 15  1  0
 27 26  1  0
 28 26  2  0
M  END
$$$$
