FWT.pdb
     RDKit          3D

 33 35  0  0  1  0  0  0  0  0999 V2000
    8.5017  -16.4159   21.6265 N   0  0  0  0  0  0  0  0  0  0  0  0
    9.4450  -15.4398   22.1000 C   0  0  1  0  0  0  0  0  0  0  0  0
    8.7597  -14.0995   22.1055 C   0  0  0  0  0  0  0  0  0  0  0  0
    8.2241  -13.7080   20.7998 C   0  0  0  0  0  0  0  0  0  0  0  0
    6.8931  -13.9315   20.5182 C   0  0  0  0  0  0  0  0  0  0  0  0
    6.3337  -13.5794   19.2938 C   0  0  0  0  0  0  0  0  0  0  0  0
    7.1078  -12.9862   18.3087 C   0  0  0  0  0  0  0  0  0  0  0  0
    8.4330  -12.7618   18.5840 C   0  0  0  0  0  0  0  0  0  0  0  0
    8.9779  -13.1182   19.8099 C   0  0  0  0  0  0  0  0  0  0  0  0
    9.8325  -15.7309   23.5278 C   0  0  0  0  0  0  0  0  0  0  0  0
   10.7966  -15.0718   24.0457 O   0  0  0  0  0  0  0  0  0  0  0  0
    9.1098  -16.7189   24.2221 N   0  0  0  0  0  0  0  0  0  0  0  0
    9.3987  -17.2029   25.5229 C   0  0  1  0  0  0  0  0  0  0  0  0
    8.2712  -17.1686   26.5016 C   0  0  0  0  0  0  0  0  0  0  0  0
    7.4608  -15.9427   26.2781 C   0  0  0  0  0  0  0  0  0  0  0  0
    6.2122  -15.8874   25.6583 C   0  0  0  0  0  0  0  0  0  0  0  0
    5.7695  -14.6209   25.6594 N   0  0  0  0  0  0  0  0  0  0  0  0
    6.7006  -13.8609   26.2630 C   0  0  0  0  0  0  0  0  0  0  0  0
    6.7236  -12.4912   26.5092 C   0  0  0  0  0  0  0  0  0  0  0  0
    7.8267  -11.9764   27.1471 C   0  0  0  0  0  0  0  0  0  0  0  0
    8.8931  -12.7455   27.5467 C   0  0  0  0  0  0  0  0  0  0  0  0
    8.8644  -14.1009   27.3004 C   0  0  0  0  0  0  0  0  0  0  0  0
    7.7779  -14.6609   26.6641 C   0  0  0  0  0  0  0  0  0  0  0  0
   10.1926  -18.4758   25.5622 C   0  0  0  0  0  0  0  0  0  0  0  0
    9.6900  -19.6182   25.6967 O   0  0  0  0  0  0  0  0  0  0  0  0
   14.7148  -20.5110   24.9923 C   0  0  0  0  0  0  0  0  0  0  0  0
   13.7853  -19.3242   24.9871 C   0  0  1  0  0  0  0  0  0  0  0  0
   13.7865  -18.6938   23.7545 O   0  0  0  0  0  0  0  0  0  0  0  0
   12.3993  -19.6801   25.4575 C   0  0  2  0  0  0  0  0  0  0  0  0
   11.6059  -18.4466   25.4427 N   0  0  0  0  0  0  0  0  0  0  0  0
   12.4977  -20.2040   26.8368 C   0  0  0  0  0  0  0  0  0  0  0  0
   12.0872  -19.5356   27.8136 O   0  0  0  0  0  0  0  0  0  0  0  0
   13.0563  -21.4572   27.0333 O   0  0  0  0  0  0  0  0  0  0  0  0
  2  1  1  1
  2  3  1  0
  3  4  1  0
  4  5  2  0
  5  6  1  0
  7  6  2  0
  8  7  1  0
  9  4  1  0
  9  8  2  0
 10 12  1  0
 10  2  1  0
 11 10  2  0
 13 12  1  0
 13 14  1  6
 15 23  1  0
 15 14  1  0
 16 15  2  0
 17 16  1  0
 17 18  1  0
 18 19  1  0
 18 23  2  0
 19 20  2  0
 20 21  1  0
 22 21  2  0
 23 22  1  0
 24 13  1  0
 25 24  2  0
 27 26  1  6
 27 28  1  0
 29 27  1  0
 29 30  1  1
 30 24  1  0
 31 33  1  0
 31 29  1  0
 32 31  2  0
M  END
$$$$
