FWT.pdb
     RDKit          3D

 33 35  0  0  1  0  0  0  0  0999 V2000
    9.0719  -17.6928   20.2648 N   0  0  0  0  0  0  0  0  0  0  0  0
    9.1721  -16.5680   21.1544 C   0  0  1  0  0  0  0  0  0  0  0  0
    7.7899  -16.0019   21.3413 C   0  0  0  0  0  0  0  0  0  0  0  0
    7.6156  -14.6714   20.7546 C   0  0  0  0  0  0  0  0  0  0  0  0
    8.0935  -13.5663   21.4263 C   0  0  0  0  0  0  0  0  0  0  0  0
    7.9540  -12.2801   20.9141 C   0  0  0  0  0  0  0  0  0  0  0  0
    7.3223  -12.0692   19.6983 C   0  0  0  0  0  0  0  0  0  0  0  0
    6.8448  -13.1658   19.0261 C   0  0  0  0  0  0  0  0  0  0  0  0
    6.9910  -14.4433   19.5488 C   0  0  0  0  0  0  0  0  0  0  0  0
    9.6426  -17.0135   22.5159 C   0  0  0  0  0  0  0  0  0  0  0  0
   10.2885  -18.1118   22.6100 O   0  0  0  0  0  0  0  0  0  0  0  0
    9.3452  -16.1938   23.6205 N   0  0  0  0  0  0  0  0  0  0  0  0
   10.0197  -16.1989   24.8674 C   0  0  1  0  0  0  0  0  0  0  0  0
    9.8399  -14.9834   25.7162 C   0  0  0  0  0  0  0  0  0  0  0  0
    8.4079  -14.5844   25.7097 C   0  0  0  0  0  0  0  0  0  0  0  0
    7.3202  -15.4382   25.5258 C   0  0  0  0  0  0  0  0  0  0  0  0
    6.1813  -14.7342   25.6105 N   0  0  0  0  0  0  0  0  0  0  0  0
    6.5083  -13.4505   25.8434 C   0  0  0  0  0  0  0  0  0  0  0  0
    5.6986  -12.3299   26.0040 C   0  0  0  0  0  0  0  0  0  0  0  0
    6.3171  -11.1227   26.2252 C   0  0  0  0  0  0  0  0  0  0  0  0
    7.6818  -10.9768   26.2936 C   0  0  0  0  0  0  0  0  0  0  0  0
    8.4782  -12.0900   26.1341 C   0  0  0  0  0  0  0  0  0  0  0  0
    7.9013  -13.3214   25.9112 C   0  0  0  0  0  0  0  0  0  0  0  0
    9.9264  -17.4871   25.6317 C   0  0  0  0  0  0  0  0  0  0  0  0
    8.8473  -18.0549   25.9303 O   0  0  0  0  0  0  0  0  0  0  0  0
   12.2024  -21.6196   27.0120 C   0  0  0  0  0  0  0  0  0  0  0  0
   12.1743  -20.2741   26.3326 C   0  0  1  0  0  0  0  0  0  0  0  0
   12.2025  -20.4091   24.9551 O   0  0  0  0  0  0  0  0  0  0  0  0
   11.0328  -19.4152   26.8101 C   0  0  2  0  0  0  0  0  0  0  0  0
   11.1010  -18.1514   26.0689 N   0  0  0  0  0  0  0  0  0  0  0  0
   11.2132  -19.1658   28.2566 C   0  0  0  0  0  0  0  0  0  0  0  0
   11.7815  -18.1281   28.6682 O   0  0  0  0  0  0  0  0  0  0  0  0
   10.7394  -20.1069   29.1572 O   0  0  0  0  0  0  0  0  0  0  0  0
  2  1  1  6
  2  3  1  0
  3  4  1  0
  4  5  2  0
  5  6  1  0
  7  6  2  0
  8  7  1  0
  9  4  1  0
  9  8  2  0
 10 12  1  0
 10  2  1  0
 11 10  2  0
 13 12  1  0
 13 14  1  1
 15 23  1  0
 15 14  1  0
 16 15  2  0
 17 16  1  0
 17 18  1  0
 18 19  1  0
 18 23  2  0
 19 20  2  0
 20 21  1  0
 22 21  2  0
 23 22  1  0
 24 13  1  0
 25 24  2  0
 27 26  1  1
 27 28  1  0
 29 27  1  0
 29 30  1  6
 30 24  1  0
 31 33  1  0
 31 29  1  0
 32 31  2  0
M  END
$$$$
