FWT.pdb
     RDKit          3D

 33 35  0  0  1  0  0  0  0  0999 V2000
    7.1275  -17.8268   21.8293 N   0  0  0  0  0  0  0  0  0  0  0  0
    7.7376  -16.6055   21.3791 C   0  0  1  0  0  0  0  0  0  0  0  0
    6.6554  -15.5667   21.2546 C   0  0  0  0  0  0  0  0  0  0  0  0
    7.1162  -14.3051   20.6706 C   0  0  0  0  0  0  0  0  0  0  0  0
    8.4537  -14.1416   20.3790 C   0  0  0  0  0  0  0  0  0  0  0  0
    8.9443  -12.9637   19.8240 C   0  0  0  0  0  0  0  0  0  0  0  0
    8.0921  -11.9066   19.5446 C   0  0  0  0  0  0  0  0  0  0  0  0
    6.7601  -12.0644   19.8332 C   0  0  0  0  0  0  0  0  0  0  0  0
    6.2844  -13.2451   20.3867 C   0  0  0  0  0  0  0  0  0  0  0  0
    8.7109  -16.0917   22.4098 C   0  0  0  0  0  0  0  0  0  0  0  0
    9.5230  -15.1643   22.0744 O   0  0  0  0  0  0  0  0  0  0  0  0
    8.6762  -16.6619   23.6960 N   0  0  0  0  0  0  0  0  0  0  0  0
    9.6718  -16.5238   24.6958 C   0  0  1  0  0  0  0  0  0  0  0  0
    9.1780  -16.3219   26.0906 C   0  0  0  0  0  0  0  0  0  0  0  0
    8.0023  -15.4125   26.0711 C   0  0  0  0  0  0  0  0  0  0  0  0
    6.6808  -15.7867   25.8265 C   0  0  0  0  0  0  0  0  0  0  0  0
    5.8878  -14.7084   25.9178 N   0  0  0  0  0  0  0  0  0  0  0  0
    6.6647  -13.6511   26.2142 C   0  0  0  0  0  0  0  0  0  0  0  0
    6.3303  -12.3139   26.4068 C   0  0  0  0  0  0  0  0  0  0  0  0
    7.3486  -11.4370   26.6943 C   0  0  0  0  0  0  0  0  0  0  0  0
    8.6646  -11.8187   26.7982 C   0  0  0  0  0  0  0  0  0  0  0  0
    8.9895  -13.1441   26.6067 C   0  0  0  0  0  0  0  0  0  0  0  0
    8.0005  -14.0591   26.3173 C   0  0  0  0  0  0  0  0  0  0  0  0
   10.8096  -17.4970   24.5939 C   0  0  0  0  0  0  0  0  0  0  0  0
   10.9329  -18.5178   25.3142 O   0  0  0  0  0  0  0  0  0  0  0  0
   12.1036  -19.0660   21.2634 C   0  0  0  0  0  0  0  0  0  0  0  0
   13.2213  -18.3868   22.0130 C   0  0  1  0  0  0  0  0  0  0  0  0
   13.5474  -17.1732   21.4322 O   0  0  0  0  0  0  0  0  0  0  0  0
   12.9332  -18.2682   23.4867 C   0  0  2  0  0  0  0  0  0  0  0  0
   11.8403  -17.3020   23.6389 N   0  0  0  0  0  0  0  0  0  0  0  0
   14.1514  -17.7668   24.1587 C   0  0  0  0  0  0  0  0  0  0  0  0
   14.2430  -16.5725   24.5253 O   0  0  0  0  0  0  0  0  0  0  0  0
   15.1993  -18.6472   24.3782 O   0  0  0  0  0  0  0  0  0  0  0  0
  2  1  1  1
  2  3  1  0
  3  4  1  0
  4  5  2  0
  5  6  1  0
  7  6  2  0
  8  7  1  0
  9  4  1  0
  9  8  2  0
 10 12  1  0
 10  2  1  0
 11 10  2  0
 13 12  1  0
 13 14  1  1
 15 23  1  0
 15 14  1  0
 16 15  2  0
 17 16  1  0
 17 18  1  0
 18 19  1  0
 18 23  2  0
 19 20  2  0
 20 21  1  0
 22 21  2  0
 23 22  1  0
 24 13  1  0
 25 24  2  0
 27 26  1  6
 27 28  1  0
 29 27  1  0
 29 30  1  6
 30 24  1  0
 31 33  1  0
 31 29  1  0
 32 31  2  0
M  END
$$$$
