FWT.pdb
     RDKit          3D

 33 35  0  0  1  0  0  0  0  0999 V2000
    9.0971  -19.7601   27.3489 N   0  0  0  0  0  0  0  0  0  0  0  0
    9.1304  -18.3512   27.0651 C   0  0  1  0  0  0  0  0  0  0  0  0
   10.3220  -17.7650   27.7738 C   0  0  0  0  0  0  0  0  0  0  0  0
   10.1317  -16.3741   28.1911 C   0  0  0  0  0  0  0  0  0  0  0  0
   10.3928  -15.3566   27.2982 C   0  0  0  0  0  0  0  0  0  0  0  0
   10.2292  -14.0186   27.6432 C   0  0  0  0  0  0  0  0  0  0  0  0
    9.7935  -13.6647   28.9107 C   0  0  0  0  0  0  0  0  0  0  0  0
    9.5324  -14.6736   29.8030 C   0  0  0  0  0  0  0  0  0  0  0  0
    9.7000  -16.0043   29.4453 C   0  0  0  0  0  0  0  0  0  0  0  0
    9.3472  -18.1156   25.5916 C   0  0  0  0  0  0  0  0  0  0  0  0
    9.7198  -19.0976   24.8642 O   0  0  0  0  0  0  0  0  0  0  0  0
    9.1274  -16.8198   25.0885 N   0  0  0  0  0  0  0  0  0  0  0  0
    9.1343  -16.4445   23.7215 C   0  0  1  0  0  0  0  0  0  0  0  0
    8.6048  -15.0829   23.4117 C   0  0  0  0  0  0  0  0  0  0  0  0
    7.6214  -14.6870   24.4538 C   0  0  0  0  0  0  0  0  0  0  0  0
    6.7086  -15.5338   25.0830 C   0  0  0  0  0  0  0  0  0  0  0  0
    6.0036  -14.8368   25.9869 N   0  0  0  0  0  0  0  0  0  0  0  0
    6.4389  -13.5646   25.9550 C   0  0  0  0  0  0  0  0  0  0  0  0
    6.0298  -12.4543   26.6878 C   0  0  0  0  0  0  0  0  0  0  0  0
    6.6559  -11.2573   26.4350 C   0  0  0  0  0  0  0  0  0  0  0  0
    7.6547  -11.1118   25.5024 C   0  0  0  0  0  0  0  0  0  0  0  0
    8.0556  -12.2148   24.7802 C   0  0  0  0  0  0  0  0  0  0  0  0
    7.4562  -13.4358   25.0010 C   0  0  0  0  0  0  0  0  0  0  0  0
   10.3929  -16.7853   22.9785 C   0  0  0  0  0  0  0  0  0  0  0  0
   11.5448  -16.4509   23.3490 O   0  0  0  0  0  0  0  0  0  0  0  0
   12.3156  -19.3731   19.1601 C   0  0  0  0  0  0  0  0  0  0  0  0
   11.1385  -18.8495   19.9430 C   0  0  1  0  0  0  0  0  0  0  0  0
   10.3071  -19.8808   20.3451 O   0  0  0  0  0  0  0  0  0  0  0  0
   11.5594  -17.9622   21.0851 C   0  0  2  0  0  0  0  0  0  0  0  0
   10.3379  -17.5334   21.7744 N   0  0  0  0  0  0  0  0  0  0  0  0
   12.2651  -16.7892   20.5256 C   0  0  0  0  0  0  0  0  0  0  0  0
   11.6313  -15.8068   20.0758 O   0  0  0  0  0  0  0  0  0  0  0  0
   13.6510  -16.7944   20.5068 O   0  0  0  0  0  0  0  0  0  0  0  0
  2  1  1  6
  2  3  1  0
  3  4  1  0
  4  5  2  0
  5  6  1  0
  7  6  2  0
  8  7  1  0
  9  4  1  0
  9  8  2  0
 10 12  1  0
 10  2  1  0
 11 10  2  0
 13 12  1  0
 13 14  1  1
 15 23  1  0
 15 14  1  0
 16 15  2  0
 17 16  1  0
 17 18  1  0
 18 19  1  0
 18 23  2  0
 19 20  2  0
 20 21  1  0
 22 21  2  0
 23 22  1  0
 24 13  1  0
 25 24  2  0
 27 26  1  1
 27 28  1  0
 29 27  1  0
 29 30  1  6
 30 24  1  0
 31 33  1  0
 31 29  1  0
 32 31  2  0
M  END
$$$$
