FWT.pdb
     RDKit          3D

 33 35  0  0  1  0  0  0  0  0999 V2000
    6.9221  -15.0531   21.5535 N   0  0  0  0  0  0  0  0  0  0  0  0
    8.3132  -15.4046   21.4647 C   0  0  1  0  0  0  0  0  0  0  0  0
    9.0020  -14.3581   20.6301 C   0  0  0  0  0  0  0  0  0  0  0  0
    8.2924  -14.0345   19.3905 C   0  0  0  0  0  0  0  0  0  0  0  0
    7.8762  -12.7395   19.1659 C   0  0  0  0  0  0  0  0  0  0  0  0
    7.1980  -12.3782   18.0058 C   0  0  0  0  0  0  0  0  0  0  0  0
    6.9173  -13.3215   17.0296 C   0  0  0  0  0  0  0  0  0  0  0  0
    7.3294  -14.6118   17.2485 C   0  0  0  0  0  0  0  0  0  0  0  0
    8.0051  -14.9580   18.4105 C   0  0  0  0  0  0  0  0  0  0  0  0
    8.9560  -15.3596   22.8279 C   0  0  0  0  0  0  0  0  0  0  0  0
    9.6372  -14.3274   23.1485 O   0  0  0  0  0  0  0  0  0  0  0  0
    8.7730  -16.4620   23.6834 N   0  0  0  0  0  0  0  0  0  0  0  0
    9.4333  -16.6762   24.9194 C   0  0  1  0  0  0  0  0  0  0  0  0
    8.5720  -16.6397   26.1389 C   0  0  0  0  0  0  0  0  0  0  0  0
    7.5654  -15.5548   25.9999 C   0  0  0  0  0  0  0  0  0  0  0  0
    6.2614  -15.7026   25.5266 C   0  0  0  0  0  0  0  0  0  0  0  0
    5.6348  -14.5170   25.5683 N   0  0  0  0  0  0  0  0  0  0  0  0
    6.5017  -13.6113   26.0554 C   0  0  0  0  0  0  0  0  0  0  0  0
    6.3443  -12.2478   26.2864 C   0  0  0  0  0  0  0  0  0  0  0  0
    7.4210  -11.5579   26.7898 C   0  0  0  0  0  0  0  0  0  0  0  0
    8.6296  -12.1485   27.0708 C   0  0  0  0  0  0  0  0  0  0  0  0
    8.7793  -13.4987   26.8401 C   0  0  0  0  0  0  0  0  0  0  0  0
    7.7259  -14.2308   26.3368 C   0  0  0  0  0  0  0  0  0  0  0  0
   10.4293  -17.7987   24.9181 C   0  0  0  0  0  0  0  0  0  0  0  0
   10.1223  -19.0159   24.9314 O   0  0  0  0  0  0  0  0  0  0  0  0
   12.9243  -18.5735   22.3879 C   0  0  0  0  0  0  0  0  0  0  0  0
   13.6842  -18.4014   23.6784 C   0  0  1  0  0  0  0  0  0  0  0  0
   14.3578  -17.1922   23.7044 O   0  0  0  0  0  0  0  0  0  0  0  0
   12.8116  -18.6077   24.8888 C   0  0  2  0  0  0  0  0  0  0  0  0
   11.8213  -17.5259   24.8993 N   0  0  0  0  0  0  0  0  0  0  0  0
   13.6641  -18.5275   26.0945 C   0  0  0  0  0  0  0  0  0  0  0  0
   13.5862  -17.5535   26.8783 O   0  0  0  0  0  0  0  0  0  0  0  0
   14.5585  -19.5562   26.3454 O   0  0  0  0  0  0  0  0  0  0  0  0
  2  1  1  1
  2  3  1  0
  3  4  1  0
  4  5  2  0
  5  6  1  0
  7  6  2  0
  8  7  1  0
  9  4  1  0
  9  8  2  0
 10 12  1  0
 10  2  1  0
 11 10  2  0
 13 12  1  0
 13 14  1  1
 15 23  1  0
 15 14  1  0
 16 15  2  0
 17 16  1  0
 17 18  1  0
 18 19  1  0
 18 23  2  0
 19 20  2  0
 20 21  1  0
 22 21  2  0
 23 22  1  0
 24 13  1  0
 25 24  2  0
 27 26  1  6
 27 28  1  0
 29 27  1  0
 29 30  1  1
 30 24  1  0
 31 33  1  0
 31 29  1  0
 32 31  2  0
M  END
$$$$
