FWT.pdb
     RDKit          3D

 33 35  0  0  1  0  0  0  0  0999 V2000
    9.2545  -17.9635   19.1130 N   0  0  0  0  0  0  0  0  0  0  0  0
    8.3468  -18.1389   20.2139 C   0  0  1  0  0  0  0  0  0  0  0  0
    8.2439  -19.6136   20.4975 C   0  0  0  0  0  0  0  0  0  0  0  0
    7.3941  -19.9330   21.6468 C   0  0  0  0  0  0  0  0  0  0  0  0
    7.9760  -20.3476   22.8259 C   0  0  0  0  0  0  0  0  0  0  0  0
    7.2154  -20.6638   23.9473 C   0  0  0  0  0  0  0  0  0  0  0  0
    5.8328  -20.5703   23.9116 C   0  0  0  0  0  0  0  0  0  0  0  0
    5.2488  -20.1582   22.7404 C   0  0  0  0  0  0  0  0  0  0  0  0
    6.0200  -19.8459   21.6294 C   0  0  0  0  0  0  0  0  0  0  0  0
    8.9014  -17.4984   21.4612 C   0  0  0  0  0  0  0  0  0  0  0  0
   10.1235  -17.7124   21.7663 O   0  0  0  0  0  0  0  0  0  0  0  0
    8.0415  -16.6930   22.2308 N   0  0  0  0  0  0  0  0  0  0  0  0
    8.3942  -15.9843   23.4069 C   0  0  1  0  0  0  0  0  0  0  0  0
    7.5992  -14.7533   23.6950 C   0  0  0  0  0  0  0  0  0  0  0  0
    8.0423  -14.1715   24.9892 C   0  0  0  0  0  0  0  0  0  0  0  0
    9.1971  -14.5182   25.6910 C   0  0  0  0  0  0  0  0  0  0  0  0
    9.2873  -13.7680   26.7996 N   0  0  0  0  0  0  0  0  0  0  0  0
    8.2209  -12.9489   26.8291 C   0  0  0  0  0  0  0  0  0  0  0  0
    7.8482  -11.9894   27.7659 C   0  0  0  0  0  0  0  0  0  0  0  0
    6.6831  -11.2963   27.5400 C   0  0  0  0  0  0  0  0  0  0  0  0
    5.8816  -11.5073   26.4439 C   0  0  0  0  0  0  0  0  0  0  0  0
    6.2559  -12.4584   25.5198 C   0  0  0  0  0  0  0  0  0  0  0  0
    7.4171  -13.1770   25.7051 C   0  0  0  0  0  0  0  0  0  0  0  0
    8.6352  -16.8426   24.6141 C   0  0  0  0  0  0  0  0  0  0  0  0
    7.7250  -17.3673   25.3012 O   0  0  0  0  0  0  0  0  0  0  0  0
   11.9370  -20.0537   26.2990 C   0  0  0  0  0  0  0  0  0  0  0  0
   11.4670  -18.9371   25.4019 C   0  0  1  0  0  0  0  0  0  0  0  0
   11.2921  -19.3802   24.1021 O   0  0  0  0  0  0  0  0  0  0  0  0
   10.2494  -18.2381   25.9474 C   0  0  2  0  0  0  0  0  0  0  0  0
    9.9569  -17.1137   25.0523 N   0  0  0  0  0  0  0  0  0  0  0  0
   10.5690  -17.7388   27.3022 C   0  0  0  0  0  0  0  0  0  0  0  0
   10.7253  -18.5281   28.2623 O   0  0  0  0  0  0  0  0  0  0  0  0
   10.6937  -16.3718   27.4942 O   0  0  0  0  0  0  0  0  0  0  0  0
  2  1  1  6
  2  3  1  0
  3  4  1  0
  4  5  2  0
  5  6  1  0
  7  6  2  0
  8  7  1  0
  9  4  1  0
  9  8  2  0
 10 12  1  0
 10  2  1  0
 11 10  2  0
 13 12  1  0
 13 14  1  1
 15 23  1  0
 15 14  1  0
 16 15  2  0
 17 16  1  0
 17 18  1  0
 18 19  1  0
 18 23  2  0
 19 20  2  0
 20 21  1  0
 22 21  2  0
 23 22  1  0
 24 13  1  0
 25 24  2  0
 27 26  1  1
 27 28  1  0
 29 27  1  0
 29 30  1  6
 30 24  1  0
 31 33  1  0
 31 29  1  0
 32 31  2  0
M  END
$$$$
