FWT.pdb
     RDKit          3D

 33 35  0  0  1  0  0  0  0  0999 V2000
    7.3541  -15.4468   21.6204 N   0  0  0  0  0  0  0  0  0  0  0  0
    8.7767  -15.2738   21.7332 C   0  0  1  0  0  0  0  0  0  0  0  0
    9.1343  -13.9581   21.0954 C   0  0  0  0  0  0  0  0  0  0  0  0
    8.3524  -13.6555   19.8945 C   0  0  0  0  0  0  0  0  0  0  0  0
    8.3776  -14.5318   18.8305 C   0  0  0  0  0  0  0  0  0  0  0  0
    7.6540  -14.2923   17.6663 C   0  0  0  0  0  0  0  0  0  0  0  0
    6.8769  -13.1513   17.5404 C   0  0  0  0  0  0  0  0  0  0  0  0
    6.8486  -12.2760   18.5966 C   0  0  0  0  0  0  0  0  0  0  0  0
    7.5755  -12.5276   19.7521 C   0  0  0  0  0  0  0  0  0  0  0  0
    9.1820  -15.1739   23.1821 C   0  0  0  0  0  0  0  0  0  0  0  0
    9.7349  -14.0964   23.5891 O   0  0  0  0  0  0  0  0  0  0  0  0
    8.9303  -16.2777   24.0181 N   0  0  0  0  0  0  0  0  0  0  0  0
    9.6067  -16.5788   25.2271 C   0  0  1  0  0  0  0  0  0  0  0  0
    8.7906  -16.4936   26.4748 C   0  0  0  0  0  0  0  0  0  0  0  0
    7.6911  -15.5124   26.2793 C   0  0  0  0  0  0  0  0  0  0  0  0
    6.3953  -15.8075   25.8549 C   0  0  0  0  0  0  0  0  0  0  0  0
    5.6694  -14.6797   25.8213 N   0  0  0  0  0  0  0  0  0  0  0  0
    6.4645  -13.6678   26.2123 C   0  0  0  0  0  0  0  0  0  0  0  0
    6.1944  -12.3085   26.3406 C   0  0  0  0  0  0  0  0  0  0  0  0
    7.2174  -11.4918   26.7590 C   0  0  0  0  0  0  0  0  0  0  0  0
    8.4782  -11.9534   27.0519 C   0  0  0  0  0  0  0  0  0  0  0  0
    8.7394  -13.3003   26.9232 C   0  0  0  0  0  0  0  0  0  0  0  0
    7.7432  -14.1569   26.5075 C   0  0  0  0  0  0  0  0  0  0  0  0
   10.4968  -17.7857   25.1701 C   0  0  0  0  0  0  0  0  0  0  0  0
   10.1986  -18.9069   25.6496 O   0  0  0  0  0  0  0  0  0  0  0  0
   12.9830  -18.5413   22.0555 C   0  0  0  0  0  0  0  0  0  0  0  0
   13.6562  -18.6377   23.4008 C   0  0  1  0  0  0  0  0  0  0  0  0
   14.4782  -17.5471   23.6276 O   0  0  0  0  0  0  0  0  0  0  0  0
   12.6728  -18.8678   24.5183 C   0  0  2  0  0  0  0  0  0  0  0  0
   11.7681  -17.7137   24.5447 N   0  0  0  0  0  0  0  0  0  0  0  0
   13.4253  -18.9523   25.7885 C   0  0  0  0  0  0  0  0  0  0  0  0
   13.2551  -18.1085   26.6986 O   0  0  0  0  0  0  0  0  0  0  0  0
   14.3296  -19.9890   25.9573 O   0  0  0  0  0  0  0  0  0  0  0  0
  2  1  1  1
  2  3  1  0
  3  4  1  0
  4  5  2  0
  5  6  1  0
  7  6  2  0
  8  7  1  0
  9  4  1  0
  9  8  2  0
 10 12  1  0
 10  2  1  0
 11 10  2  0
 13 12  1  0
 13 14  1  1
 15 23  1  0
 15 14  1  0
 16 15  2  0
 17 16  1  0
 17 18  1  0
 18 19  1  0
 18 23  2  0
 19 20  2  0
 20 21  1  0
 22 21  2  0
 23 22  1  0
 24 13  1  0
 25 24  2  0
 27 26  1  6
 27 28  1  0
 29 27  1  0
 29 30  1  1
 30 24  1  0
 31 33  1  0
 31 29  1  0
 32 31  2  0
M  END
$$$$
