CNC.pdb
     RDKit          3D

 21 20  0  0  1  0  0  0  0  0999 V2000
   29.1863  -21.8254  -18.0538 N   0  0  0  0  0  0  0  0  0  0  0  0
   28.0469  -22.4219  -17.4303 C   0  0  1  0  0  0  0  0  0  0  0  0
   28.5267  -23.6007  -16.5942 C   0  0  0  0  0  0  0  0  0  0  0  0
   28.7802  -25.0263  -17.6819 S   0  0  0  0  0  0  0  0  0  0  0  0
   27.3652  -21.4948  -16.4908 C   0  0  0  0  0  0  0  0  0  0  0  0
   27.8893  -20.3389  -16.3727 O   0  0  0  0  0  0  0  0  0  0  0  0
   22.2160  -19.2275  -14.7283 N   0  0  0  0  0  0  0  0  0  0  0  0
   23.6163  -19.2683  -14.8786 C   0  0  0  0  0  0  0  0  0  0  0  0
   24.3188  -18.3966  -14.3211 O   0  0  0  0  0  0  0  0  0  0  0  0
   24.2839  -20.3149  -15.6788 C   0  0  0  0  0  0  0  0  0  0  0  0
   25.5374  -20.8271  -14.9989 C   0  0  2  0  0  0  0  0  0  0  0  0
   26.2008  -21.8412  -15.7539 N   0  0  0  0  0  0  0  0  0  0  0  0
   25.1165  -21.3938  -13.7019 C   0  0  0  0  0  0  0  0  0  0  0  0
   24.3917  -22.3939  -13.6471 O   0  0  0  0  0  0  0  0  0  0  0  0
   25.5556  -20.7763  -12.5114 N   0  0  0  0  0  0  0  0  0  0  0  0
   25.1294  -21.1531  -11.1990 C   0  0  1  0  0  0  0  0  0  0  0  0
   25.9968  -20.3783  -10.2145 C   0  0  0  0  0  0  0  0  0  0  0  0
   25.5721  -20.7611   -8.5125 S   0  0  0  0  0  0  0  0  0  0  0  0
   23.7462  -20.6791  -10.9833 C   0  0  0  0  0  0  0  0  0  0  0  0
   23.0889  -19.8354  -11.8700 O   0  0  0  0  0  0  0  0  0  0  0  0
   23.1147  -21.0404   -9.9615 O   0  0  0  0  0  0  0  0  0  0  0  0
  2  1  1  1
  3  2  1  0
  4  3  1  0
  5 12  1  0
  5  2  1  0
  6  5  2  0
  7  8  1  0
  8  9  2  0
  8 10  1  0
 11 10  1  6
 11 13  1  0
 11 12  1  0
 13 15  1  0
 14 13  2  0
 15 16  1  0
 16 19  1  0
 16 17  1  1
 18 17  1  0
 19 20  1  0
 21 19  2  0
M  END
$$$$
