CNC.pdb
     RDKit          3D

 21 20  0  0  1  0  0  0  0  0999 V2000
   16.1458  -12.6838  -14.1138 N   0  0  0  0  0  0  0  0  0  0  0  0
   16.1310  -11.6756  -15.1269 C   0  0  1  0  0  0  0  0  0  0  0  0
   14.7080  -11.1475  -15.2495 C   0  0  0  0  0  0  0  0  0  0  0  0
   13.7372  -12.3050  -16.2482 S   0  0  0  0  0  0  0  0  0  0  0  0
   16.9800  -10.5080  -14.7765 C   0  0  0  0  0  0  0  0  0  0  0  0
   16.7101   -9.9374  -13.6691 O   0  0  0  0  0  0  0  0  0  0  0  0
   20.2957   -6.6391  -14.4919 N   0  0  0  0  0  0  0  0  0  0  0  0
   20.9013   -7.6345  -15.2842 C   0  0  0  0  0  0  0  0  0  0  0  0
   22.1173   -7.5423  -15.5613 O   0  0  0  0  0  0  0  0  0  0  0  0
   20.1398   -8.7899  -15.8003 C   0  0  0  0  0  0  0  0  0  0  0  0
   18.7556   -8.8681  -15.1890 C   0  0  2  0  0  0  0  0  0  0  0  0
   18.0346  -10.0299  -15.5998 N   0  0  0  0  0  0  0  0  0  0  0  0
   18.0238   -7.6667  -15.6379 C   0  0  0  0  0  0  0  0  0  0  0  0
   17.4342   -7.6471  -16.7244 O   0  0  0  0  0  0  0  0  0  0  0  0
   18.0027   -6.5280  -14.8046 N   0  0  0  0  0  0  0  0  0  0  0  0
   17.3991   -5.2794  -15.1548 C   0  0  1  0  0  0  0  0  0  0  0  0
   16.0148   -5.2650  -14.5184 C   0  0  0  0  0  0  0  0  0  0  0  0
   15.2480   -3.6457  -14.6350 S   0  0  0  0  0  0  0  0  0  0  0  0
   18.1525   -4.1802  -14.5156 C   0  0  0  0  0  0  0  0  0  0  0  0
   18.2475   -2.9082  -15.0660 O   0  0  0  0  0  0  0  0  0  0  0  0
   18.7417   -4.3784  -13.4260 O   0  0  0  0  0  0  0  0  0  0  0  0
  2  1  1  1
  3  2  1  0
  4  3  1  0
  5 12  1  0
  5  2  1  0
  6  5  2  0
  7  8  1  0
  8  9  2  0
  8 10  1  0
 11 10  1  6
 11 13  1  0
 11 12  1  0
 13 15  1  0
 14 13  2  0
 15 16  1  0
 16 19  1  0
 16 17  1  1
 18 17  1  0
 19 20  1  0
 21 19  2  0
M  END
$$$$
