CNC.pdb
     RDKit          3D

 21 20  0  0  1  0  0  0  0  0999 V2000
   25.8570  -16.8523  -17.2772 N   0  0  0  0  0  0  0  0  0  0  0  0
   25.2460  -16.6941  -15.9948 C   0  0  1  0  0  0  0  0  0  0  0  0
   25.5321  -15.2812  -15.5042 C   0  0  0  0  0  0  0  0  0  0  0  0
   27.3058  -15.1230  -15.1745 S   0  0  0  0  0  0  0  0  0  0  0  0
   23.7672  -16.8237  -16.0521 C   0  0  0  0  0  0  0  0  0  0  0  0
   23.2098  -16.3664  -17.1032 O   0  0  0  0  0  0  0  0  0  0  0  0
   20.5927  -20.7894  -15.3633 N   0  0  0  0  0  0  0  0  0  0  0  0
   21.3868  -19.9160  -14.5940 C   0  0  0  0  0  0  0  0  0  0  0  0
   22.4958  -20.3085  -14.1696 O   0  0  0  0  0  0  0  0  0  0  0  0
   20.9473  -18.5433  -14.2717 C   0  0  0  0  0  0  0  0  0  0  0  0
   21.5782  -17.5207  -15.1947 C   0  0  2  0  0  0  0  0  0  0  0  0
   22.9911  -17.4145  -15.0190 N   0  0  0  0  0  0  0  0  0  0  0  0
   20.9569  -16.2196  -14.8764 C   0  0  0  0  0  0  0  0  0  0  0  0
   21.4720  -15.4491  -14.0582 O   0  0  0  0  0  0  0  0  0  0  0  0
   19.7557  -15.8591  -15.5235 N   0  0  0  0  0  0  0  0  0  0  0  0
   19.1055  -14.5935  -15.3775 C   0  0  1  0  0  0  0  0  0  0  0  0
   19.9726  -13.5670  -16.0958 C   0  0  0  0  0  0  0  0  0  0  0  0
   19.2016  -11.9455  -16.1164 S   0  0  0  0  0  0  0  0  0  0  0  0
   17.8199  -14.6216  -16.1061 C   0  0  0  0  0  0  0  0  0  0  0  0
   16.6702  -13.9996  -15.6357 O   0  0  0  0  0  0  0  0  0  0  0  0
   17.7362  -15.2274  -17.2013 O   0  0  0  0  0  0  0  0  0  0  0  0
  2  1  1  6
  3  2  1  0
  4  3  1  0
  5 12  1  0
  5  2  1  0
  6  5  2  0
  7  8  1  0
  8  9  2  0
  8 10  1  0
 11 10  1  1
 11 13  1  0
 11 12  1  0
 13 15  1  0
 14 13  2  0
 15 16  1  0
 16 19  1  0
 16 17  1  6
 18 17  1  0
 19 20  1  0
 21 19  2  0
M  END
$$$$
