CNC.pdb
     RDKit          3D

 21 20  0  0  1  0  0  0  0  0999 V2000
   20.1636  -13.7372  -16.5892 N   0  0  0  0  0  0  0  0  0  0  0  0
   20.3892  -12.5110  -17.2882 C   0  0  1  0  0  0  0  0  0  0  0  0
   19.0595  -11.7773  -17.3999 C   0  0  0  0  0  0  0  0  0  0  0  0
   17.9363  -12.7531  -18.4323 S   0  0  0  0  0  0  0  0  0  0  0  0
   21.3066  -11.6014  -16.5549 C   0  0  0  0  0  0  0  0  0  0  0  0
   21.1524  -11.5583  -15.2903 O   0  0  0  0  0  0  0  0  0  0  0  0
   26.2650   -9.8523  -14.8376 N   0  0  0  0  0  0  0  0  0  0  0  0
   25.4901   -9.3237  -15.8890 C   0  0  0  0  0  0  0  0  0  0  0  0
   25.5307   -8.0960  -16.1237 O   0  0  0  0  0  0  0  0  0  0  0  0
   24.6265  -10.1798  -16.7271 C   0  0  0  0  0  0  0  0  0  0  0  0
   23.1611  -10.0065  -16.3832 C   0  0  2  0  0  0  0  0  0  0  0  0
   22.3044  -10.8146  -17.1904 N   0  0  0  0  0  0  0  0  0  0  0  0
   22.8352   -8.5848  -16.6135 C   0  0  0  0  0  0  0  0  0  0  0  0
   22.7113   -8.1356  -17.7587 O   0  0  0  0  0  0  0  0  0  0  0  0
   22.6636   -7.7339  -15.5010 N   0  0  0  0  0  0  0  0  0  0  0  0
   22.2271   -6.3741  -15.5812 C   0  0  1  0  0  0  0  0  0  0  0  0
   20.7088   -6.4051  -15.7059 C   0  0  0  0  0  0  0  0  0  0  0  0
   19.9989   -4.7611  -15.5754 S   0  0  0  0  0  0  0  0  0  0  0  0
   22.5166   -5.6953  -14.3007 C   0  0  0  0  0  0  0  0  0  0  0  0
   22.7450   -4.3284  -14.2039 O   0  0  0  0  0  0  0  0  0  0  0  0
   22.5638   -6.3605  -13.2382 O   0  0  0  0  0  0  0  0  0  0  0  0
  2  1  1  1
  3  2  1  0
  4  3  1  0
  5 12  1  0
  5  2  1  0
  6  5  2  0
  7  8  1  0
  8  9  2  0
  8 10  1  0
 11 10  1  6
 11 13  1  0
 11 12  1  0
 13 15  1  0
 14 13  2  0
 15 16  1  0
 16 19  1  0
 16 17  1  1
 18 17  1  0
 19 20  1  0
 21 19  2  0
M  END
$$$$
