CNC.pdb
     RDKit          3D

 21 20  0  0  1  0  0  0  0  0999 V2000
   20.1938  -16.9500  -17.3393 N   0  0  0  0  0  0  0  0  0  0  0  0
   20.7422  -18.1929  -17.7836 C   0  0  1  0  0  0  0  0  0  0  0  0
   21.1356  -18.0415  -19.2469 C   0  0  0  0  0  0  0  0  0  0  0  0
   19.6389  -18.0968  -20.2651 S   0  0  0  0  0  0  0  0  0  0  0  0
   21.9839  -18.5572  -17.0540 C   0  0  0  0  0  0  0  0  0  0  0  0
   22.8640  -17.6397  -16.9627 O   0  0  0  0  0  0  0  0  0  0  0  0
   21.1944  -21.4467  -13.3436 N   0  0  0  0  0  0  0  0  0  0  0  0
   22.4158  -20.7928  -13.6003 C   0  0  0  0  0  0  0  0  0  0  0  0
   22.7808  -19.8594  -12.8524 O   0  0  0  0  0  0  0  0  0  0  0  0
   23.2832  -21.1782  -14.7319 C   0  0  0  0  0  0  0  0  0  0  0  0
   23.4133  -20.0597  -15.7456 C   0  0  2  0  0  0  0  0  0  0  0  0
   22.2100  -19.8377  -16.4814 N   0  0  0  0  0  0  0  0  0  0  0  0
   24.4817  -20.4579  -16.6838 C   0  0  0  0  0  0  0  0  0  0  0  0
   24.2221  -21.0785  -17.7211 O   0  0  0  0  0  0  0  0  0  0  0  0
   25.8178  -20.1185  -16.3821 N   0  0  0  0  0  0  0  0  0  0  0  0
   26.9228  -20.3123  -17.2695 C   0  0  1  0  0  0  0  0  0  0  0  0
   27.8305  -19.0983  -17.1149 C   0  0  0  0  0  0  0  0  0  0  0  0
   29.3238  -19.2571  -18.0991 S   0  0  0  0  0  0  0  0  0  0  0  0
   27.7145  -21.4734  -16.8120 C   0  0  0  0  0  0  0  0  0  0  0  0
   28.5510  -22.1970  -17.6527 O   0  0  0  0  0  0  0  0  0  0  0  0
   27.6465  -21.8428  -15.6152 O   0  0  0  0  0  0  0  0  0  0  0  0
  2  1  1  1
  3  2  1  0
  4  3  1  0
  5 12  1  0
  5  2  1  0
  6  5  2  0
  7  8  1  0
  8  9  2  0
  8 10  1  0
 11 10  1  1
 11 13  1  0
 11 12  1  0
 13 15  1  0
 14 13  2  0
 15 16  1  0
 16 19  1  0
 16 17  1  1
 18 17  1  0
 19 20  1  0
 21 19  2  0
M  END
$$$$
