CNC.pdb
     RDKit          3D

 21 20  0  0  1  0  0  0  0  0999 V2000
   19.0775  -11.6234  -18.0578 N   0  0  0  0  0  0  0  0  0  0  0  0
   19.1214  -11.2763  -16.6719 C   0  0  1  0  0  0  0  0  0  0  0  0
   20.4047  -11.8448  -16.0812 C   0  0  0  0  0  0  0  0  0  0  0  0
   20.1293  -13.5798  -15.6412 S   0  0  0  0  0  0  0  0  0  0  0  0
   19.1791   -9.8075  -16.4574 C   0  0  0  0  0  0  0  0  0  0  0  0
   19.9877   -9.1679  -17.2069 O   0  0  0  0  0  0  0  0  0  0  0  0
   16.2263   -4.8380  -14.2473 N   0  0  0  0  0  0  0  0  0  0  0  0
   17.2132   -5.6209  -14.8784 C   0  0  0  0  0  0  0  0  0  0  0  0
   18.1223   -5.0568  -15.5260 O   0  0  0  0  0  0  0  0  0  0  0  0
   17.2071   -7.0956  -14.7982 C   0  0  0  0  0  0  0  0  0  0  0  0
   18.4329   -7.6984  -15.4536 C   0  0  2  0  0  0  0  0  0  0  0  0
   18.3966   -9.1253  -15.4873 N   0  0  0  0  0  0  0  0  0  0  0  0
   19.5977   -7.2677  -14.6548 C   0  0  0  0  0  0  0  0  0  0  0  0
   19.8740   -7.8161  -13.5817 O   0  0  0  0  0  0  0  0  0  0  0  0
   20.4027   -6.2124  -15.1340 N   0  0  0  0  0  0  0  0  0  0  0  0
   21.5904   -5.7429  -14.4898 C   0  0  1  0  0  0  0  0  0  0  0  0
   22.7298   -5.9144  -15.4867 C   0  0  0  0  0  0  0  0  0  0  0  0
   24.2446   -5.1489  -14.9007 S   0  0  0  0  0  0  0  0  0  0  0  0
   21.4717   -4.2888  -14.2534 C   0  0  0  0  0  0  0  0  0  0  0  0
   22.0900   -3.6424  -13.1904 O   0  0  0  0  0  0  0  0  0  0  0  0
   20.7878   -3.5834  -15.0333 O   0  0  0  0  0  0  0  0  0  0  0  0
  2  1  1  6
  3  2  1  0
  4  3  1  0
  5 12  1  0
  5  2  1  0
  6  5  2  0
  7  8  1  0
  8  9  2  0
  8 10  1  0
 11 10  1  1
 11 13  1  0
 11 12  1  0
 13 15  1  0
 14 13  2  0
 15 16  1  0
 16 19  1  0
 16 17  1  6
 18 17  1  0
 19 20  1  0
 21 19  2  0
M  END
$$$$
