CNC.pdb
     RDKit          3D

 21 20  0  0  1  0  0  0  0  0999 V2000
   19.0924  -15.3561  -16.5287 N   0  0  0  0  0  0  0  0  0  0  0  0
   18.8132  -14.1947  -17.3137 C   0  0  1  0  0  0  0  0  0  0  0  0
   17.3884  -13.7498  -17.0121 C   0  0  0  0  0  0  0  0  0  0  0  0
   16.2385  -14.9998  -17.6405 S   0  0  0  0  0  0  0  0  0  0  0  0
   19.6907  -13.0488  -16.9619 C   0  0  0  0  0  0  0  0  0  0  0  0
   20.0225  -12.9596  -15.7344 O   0  0  0  0  0  0  0  0  0  0  0  0
   24.1277   -9.7819  -17.6339 N   0  0  0  0  0  0  0  0  0  0  0  0
   22.8395   -9.4885  -18.1236 C   0  0  0  0  0  0  0  0  0  0  0  0
   22.4544   -8.2993  -18.1629 O   0  0  0  0  0  0  0  0  0  0  0  0
   21.9250  -10.5481  -18.5947 C   0  0  0  0  0  0  0  0  0  0  0  0
   21.0509  -11.0740  -17.4744 C   0  0  2  0  0  0  0  0  0  0  0  0
   20.1502  -12.0935  -17.9079 N   0  0  0  0  0  0  0  0  0  0  0  0
   20.2693   -9.9271  -16.9704 C   0  0  0  0  0  0  0  0  0  0  0  0
   19.2422   -9.5515  -17.5471 O   0  0  0  0  0  0  0  0  0  0  0  0
   20.7104   -9.2564  -15.8097 N   0  0  0  0  0  0  0  0  0  0  0  0
   20.0657   -8.1134  -15.2406 C   0  0  1  0  0  0  0  0  0  0  0  0
   19.9168   -8.3883  -13.7493 C   0  0  0  0  0  0  0  0  0  0  0  0
   18.4353   -9.3388  -13.3948 S   0  0  0  0  0  0  0  0  0  0  0  0
   20.9636   -6.9448  -15.3514 C   0  0  0  0  0  0  0  0  0  0  0  0
   20.6183   -5.6794  -14.8934 O   0  0  0  0  0  0  0  0  0  0  0  0
   22.0945   -7.0742  -15.8786 O   0  0  0  0  0  0  0  0  0  0  0  0
  2  1  1  1
  3  2  1  0
  4  3  1  0
  5 12  1  0
  5  2  1  0
  6  5  2  0
  7  8  1  0
  8  9  2  0
  8 10  1  0
 11 10  1  6
 11 13  1  0
 11 12  1  0
 13 15  1  0
 14 13  2  0
 15 16  1  0
 16 19  1  0
 16 17  1  1
 18 17  1  0
 19 20  1  0
 21 19  2  0
M  END
$$$$
