CNC.pdb
     RDKit          3D

 21 20  0  0  1  0  0  0  0  0999 V2000
   25.8670  -23.1127  -15.1866 N   0  0  0  0  0  0  0  0  0  0  0  0
   25.2998  -21.8673  -14.7740 C   0  0  1  0  0  0  0  0  0  0  0  0
   25.3354  -20.9137  -15.9607 C   0  0  0  0  0  0  0  0  0  0  0  0
   27.0591  -20.4924  -16.3227 S   0  0  0  0  0  0  0  0  0  0  0  0
   23.8716  -21.9963  -14.3859 C   0  0  0  0  0  0  0  0  0  0  0  0
   23.2667  -23.0274  -14.8282 O   0  0  0  0  0  0  0  0  0  0  0  0
   19.2962  -21.9339  -12.2471 N   0  0  0  0  0  0  0  0  0  0  0  0
   20.0616  -21.0021  -11.5182 C   0  0  0  0  0  0  0  0  0  0  0  0
   19.5972  -20.5194  -10.4621 O   0  0  0  0  0  0  0  0  0  0  0  0
   21.4030  -20.5758  -11.9654 C   0  0  0  0  0  0  0  0  0  0  0  0
   21.8260  -21.2914  -13.2321 C   0  0  2  0  0  0  0  0  0  0  0  0
   23.1908  -21.0494  -13.5745 N   0  0  0  0  0  0  0  0  0  0  0  0
   20.9628  -20.7828  -14.3167 C   0  0  0  0  0  0  0  0  0  0  0  0
   21.2550  -19.7533  -14.9358 O   0  0  0  0  0  0  0  0  0  0  0  0
   19.7876  -21.4919  -14.6446 N   0  0  0  0  0  0  0  0  0  0  0  0
   18.9429  -21.1887  -15.7584 C   0  0  1  0  0  0  0  0  0  0  0  0
   18.4357  -22.5188  -16.3019 C   0  0  0  0  0  0  0  0  0  0  0  0
   19.7095  -23.3890  -17.2206 S   0  0  0  0  0  0  0  0  0  0  0  0
   17.7483  -20.4631  -15.2780 C   0  0  0  0  0  0  0  0  0  0  0  0
   16.8168  -19.8892  -16.1341 O   0  0  0  0  0  0  0  0  0  0  0  0
   17.5425  -20.3461  -14.0461 O   0  0  0  0  0  0  0  0  0  0  0  0
  2  1  1  6
  3  2  1  0
  4  3  1  0
  5 12  1  0
  5  2  1  0
  6  5  2  0
  7  8  1  0
  8  9  2  0
  8 10  1  0
 11 10  1  1
 11 13  1  0
 11 12  1  0
 13 15  1  0
 14 13  2  0
 15 16  1  0
 16 19  1  0
 16 17  1  1
 18 17  1  0
 19 20  1  0
 21 19  2  0
M  END
$$$$
