ILV.pdb
     RDKit          3D

 24 23  0  0  1  0  0  0  0  0999 V2000
   16.8779  -25.4437   -9.3028 C   0  0  0  0  0  0  0  0  0  0  0  0
   17.9569  -25.0367   -8.3457 C   0  0  0  0  0  0  0  0  0  0  0  0
   18.5934  -23.7191   -8.7348 C   0  0  2  0  0  0  0  0  0  0  0  0
   19.1436  -23.9156  -10.1343 C   0  0  0  0  0  0  0  0  0  0  0  0
   19.7136  -23.3973   -7.7795 C   0  0  2  0  0  0  0  0  0  0  0  0
   19.3167  -23.2687   -6.4300 N   0  0  0  0  0  0  0  0  0  0  0  0
   20.4844  -22.2109   -8.1840 C   0  0  0  0  0  0  0  0  0  0  0  0
   19.9579  -21.0893   -8.1601 O   0  0  0  0  0  0  0  0  0  0  0  0
   24.8786  -19.7530  -10.5268 C   0  0  0  0  0  0  0  0  0  0  0  0
   24.7744  -20.0058   -9.0191 C   0  0  2  0  0  0  0  0  0  0  0  0
   26.1520  -20.0173   -8.4117 C   0  0  0  0  0  0  0  0  0  0  0  0
   24.0791  -21.3260   -8.8540 C   0  0  0  0  0  0  0  0  0  0  0  0
   22.6416  -21.3434   -9.1981 C   0  0  2  0  0  0  0  0  0  0  0  0
   21.8303  -22.3519   -8.6012 N   0  0  0  0  0  0  0  0  0  0  0  0
   22.4633  -21.3593  -10.7075 C   0  0  0  0  0  0  0  0  0  0  0  0
   22.6472  -22.3818  -11.3877 O   0  0  0  0  0  0  0  0  0  0  0  0
   19.3580  -20.2169  -12.4619 C   0  0  0  0  0  0  0  0  0  0  0  0
   20.5193  -19.4910  -13.1374 C   0  0  2  0  0  0  0  0  0  0  0  0
   20.3382  -19.5087  -14.6391 C   0  0  0  0  0  0  0  0  0  0  0  0
   21.7789  -20.2349  -12.8076 C   0  0  2  0  0  0  0  0  0  0  0  0
   22.0723  -20.1692  -11.3782 N   0  0  0  0  0  0  0  0  0  0  0  0
   22.8964  -19.6238  -13.5910 C   0  0  0  0  0  0  0  0  0  0  0  0
   23.1661  -20.0764  -14.8595 O   0  0  0  0  0  0  0  0  0  0  0  0
   23.6029  -18.7050  -13.1276 O   0  0  0  0  0  0  0  0  0  0  0  0
  1  2  1  0
  3  5  1  0
  3  2  1  0
  3  4  1  6
  5  6  1  1
  7  5  1  0
  7  8  2  0
 10  9  1  6
 11 10  1  0
 13 12  1  6
 12 10  1  0
 13 14  1  0
 14  7  1  0
 15 13  1  0
 16 15  2  0
 18 17  1  1
 18 20  1  0
 19 18  1  0
 20 22  1  0
 20 21  1  1
 21 15  1  0
 22 23  1  0
 24 22  2  0
M  END
$$$$
