ILV.pdb
     RDKit          3D

 24 23  0  0  1  0  0  0  0  0999 V2000
   21.5340  -20.8731  -14.7401 C   0  0  0  0  0  0  0  0  0  0  0  0
   21.7879  -20.3999  -13.3411 C   0  0  0  0  0  0  0  0  0  0  0  0
   22.9249  -21.1540  -12.6843 C   0  0  2  0  0  0  0  0  0  0  0  0
   22.4818  -22.6026  -12.6124 C   0  0  0  0  0  0  0  0  0  0  0  0
   23.1543  -20.6141  -11.2962 C   0  0  2  0  0  0  0  0  0  0  0  0
   23.0612  -19.2087  -11.1891 N   0  0  0  0  0  0  0  0  0  0  0  0
   24.4234  -21.0722  -10.7091 C   0  0  0  0  0  0  0  0  0  0  0  0
   24.6135  -22.2794  -10.5032 O   0  0  0  0  0  0  0  0  0  0  0  0
   28.2984  -22.1856  -11.5718 C   0  0  0  0  0  0  0  0  0  0  0  0
   28.1186  -20.6987  -11.8953 C   0  0  2  0  0  0  0  0  0  0  0  0
   29.3402  -20.1852  -12.6099 C   0  0  0  0  0  0  0  0  0  0  0  0
   27.9016  -19.9993  -10.5848 C   0  0  0  0  0  0  0  0  0  0  0  0
   26.7083  -20.4203   -9.8208 C   0  0  2  0  0  0  0  0  0  0  0  0
   25.4291  -20.1314  -10.3791 N   0  0  0  0  0  0  0  0  0  0  0  0
   26.7843  -19.8947   -8.3967 C   0  0  0  0  0  0  0  0  0  0  0  0
   26.3215  -18.7894   -8.0707 O   0  0  0  0  0  0  0  0  0  0  0  0
   27.7949  -20.6682   -3.6611 C   0  0  0  0  0  0  0  0  0  0  0  0
   28.0240  -21.1804   -5.0814 C   0  0  2  0  0  0  0  0  0  0  0  0
   29.5060  -21.3281   -5.3461 C   0  0  0  0  0  0  0  0  0  0  0  0
   27.4771  -20.1572   -6.0315 C   0  0  2  0  0  0  0  0  0  0  0  0
   27.4037  -20.6852   -7.3914 N   0  0  0  0  0  0  0  0  0  0  0  0
   28.3742  -18.9616   -5.9913 C   0  0  0  0  0  0  0  0  0  0  0  0
   28.3503  -18.1285   -4.8994 O   0  0  0  0  0  0  0  0  0  0  0  0
   29.1542  -18.6890   -6.9269 O   0  0  0  0  0  0  0  0  0  0  0  0
  1  2  1  0
  3  5  1  0
  3  2  1  0
  3  4  1  1
  5  6  1  6
  7  5  1  0
  7  8  2  0
 10  9  1  1
 11 10  1  0
 13 12  1  6
 12 10  1  0
 13 14  1  0
 14  7  1  0
 15 13  1  0
 16 15  2  0
 18 17  1  1
 18 20  1  0
 19 18  1  0
 20 22  1  0
 20 21  1  6
 21 15  1  0
 22 23  1  0
 24 22  2  0
M  END
$$$$
