ILV.pdb
     RDKit          3D

 24 23  0  0  1  0  0  0  0  0999 V2000
   22.9205  -24.8341  -18.3913 C   0  0  0  0  0  0  0  0  0  0  0  0
   24.3880  -24.5787  -18.5558 C   0  0  0  0  0  0  0  0  0  0  0  0
   25.1824  -25.8651  -18.6369 C   0  0  2  0  0  0  0  0  0  0  0  0
   25.0394  -26.5331  -17.2829 C   0  0  0  0  0  0  0  0  0  0  0  0
   26.6309  -25.5484  -18.9066 C   0  0  2  0  0  0  0  0  0  0  0  0
   26.8628  -24.8254  -20.0977 N   0  0  0  0  0  0  0  0  0  0  0  0
   27.4903  -26.7426  -18.8772 C   0  0  0  0  0  0  0  0  0  0  0  0
   27.3250  -27.6484  -19.7066 O   0  0  0  0  0  0  0  0  0  0  0  0
   31.6491  -28.1246  -19.7287 C   0  0  0  0  0  0  0  0  0  0  0  0
   31.5834  -27.0373  -18.6510 C   0  0  2  0  0  0  0  0  0  0  0  0
   32.9784  -26.6232  -18.2646 C   0  0  0  0  0  0  0  0  0  0  0  0
   30.8342  -27.6286  -17.4923 C   0  0  0  0  0  0  0  0  0  0  0  0
   29.4121  -27.9466  -17.7407 C   0  0  2  0  0  0  0  0  0  0  0  0
   28.5080  -26.8561  -17.8990 N   0  0  0  0  0  0  0  0  0  0  0  0
   28.8939  -28.9008  -16.6771 C   0  0  0  0  0  0  0  0  0  0  0  0
   28.7403  -28.5569  -15.4937 O   0  0  0  0  0  0  0  0  0  0  0  0
   25.7321  -30.4310  -16.5243 C   0  0  0  0  0  0  0  0  0  0  0  0
   26.6665  -31.6327  -16.4032 C   0  0  2  0  0  0  0  0  0  0  0  0
   26.1768  -32.5623  -15.3150 C   0  0  0  0  0  0  0  0  0  0  0  0
   28.0209  -31.1226  -16.0105 C   0  0  2  0  0  0  0  0  0  0  0  0
   28.5692  -30.2371  -17.0346 N   0  0  0  0  0  0  0  0  0  0  0  0
   28.9204  -32.3007  -15.8134 C   0  0  0  0  0  0  0  0  0  0  0  0
   28.8606  -33.0149  -14.6416 O   0  0  0  0  0  0  0  0  0  0  0  0
   29.7350  -32.6634  -16.6868 O   0  0  0  0  0  0  0  0  0  0  0  0
  1  2  1  0
  3  5  1  0
  3  2  1  0
  3  4  1  1
  5  6  1  6
  7  5  1  0
  7  8  2  0
 10  9  1  6
 11 10  1  0
 13 12  1  1
 12 10  1  0
 13 14  1  0
 14  7  1  0
 15 13  1  0
 16 15  2  0
 18 17  1  1
 18 20  1  0
 19 18  1  0
 20 22  1  0
 20 21  1  6
 21 15  1  0
 22 23  1  0
 24 22  2  0
M  END
$$$$
