ILV.pdb
     RDKit          3D

 24 23  0  0  1  0  0  0  0  0999 V2000
   15.9731  -11.0568  -19.9161 C   0  0  0  0  0  0  0  0  0  0  0  0
   17.2345  -11.1635  -19.1140 C   0  0  0  0  0  0  0  0  0  0  0  0
   17.2382  -10.2157  -17.9332 C   0  0  2  0  0  0  0  0  0  0  0  0
   17.3190   -8.8182  -18.5167 C   0  0  0  0  0  0  0  0  0  0  0  0
   18.4445  -10.4866  -17.0714 C   0  0  2  0  0  0  0  0  0  0  0  0
   18.5827  -11.8305  -16.6592 N   0  0  0  0  0  0  0  0  0  0  0  0
   18.5186   -9.5993  -15.8999 C   0  0  0  0  0  0  0  0  0  0  0  0
   18.0542   -9.9666  -14.8112 O   0  0  0  0  0  0  0  0  0  0  0  0
   22.0222   -5.6485  -13.4943 C   0  0  0  0  0  0  0  0  0  0  0  0
   20.7410   -6.4063  -13.1305 C   0  0  2  0  0  0  0  0  0  0  0  0
   20.8784   -7.0005  -11.7540 C   0  0  0  0  0  0  0  0  0  0  0  0
   20.5569   -7.4633  -14.1804 C   0  0  0  0  0  0  0  0  0  0  0  0
   19.3098   -7.3761  -14.9693 C   0  0  2  0  0  0  0  0  0  0  0  0
   19.1220   -8.3236  -16.0174 N   0  0  0  0  0  0  0  0  0  0  0  0
   19.1248   -5.9657  -15.5047 C   0  0  0  0  0  0  0  0  0  0  0  0
   19.8132   -5.5117  -16.4333 O   0  0  0  0  0  0  0  0  0  0  0  0
   16.2142   -2.3412  -16.5789 C   0  0  0  0  0  0  0  0  0  0  0  0
   16.4445   -3.7526  -16.0435 C   0  0  2  0  0  0  0  0  0  0  0  0
   15.5278   -4.0176  -14.8698 C   0  0  0  0  0  0  0  0  0  0  0  0
   17.8617   -3.8339  -15.5600 C   0  0  2  0  0  0  0  0  0  0  0  0
   18.1325   -5.1248  -14.9325 N   0  0  0  0  0  0  0  0  0  0  0  0
   18.0800   -2.7281  -14.5775 C   0  0  0  0  0  0  0  0  0  0  0  0
   18.4578   -1.4851  -15.0236 O   0  0  0  0  0  0  0  0  0  0  0  0
   17.9298   -2.8959  -13.3497 O   0  0  0  0  0  0  0  0  0  0  0  0
  1  2  1  0
  3  5  1  0
  3  2  1  0
  3  4  1  6
  5  6  1  1
  7  5  1  0
  7  8  2  0
 10  9  1  6
 11 10  1  0
 13 12  1  6
 12 10  1  0
 13 14  1  0
 14  7  1  0
 15 13  1  0
 16 15  2  0
 18 17  1  1
 18 20  1  0
 19 18  1  0
 20 22  1  0
 20 21  1  1
 21 15  1  0
 22 23  1  0
 24 22  2  0
M  END
$$$$
