ILV.pdb
     RDKit          3D

 24 23  0  0  1  0  0  0  0  0999 V2000
   28.1356  -19.3192  -17.2053 C   0  0  0  0  0  0  0  0  0  0  0  0
   28.6176  -19.1739  -15.7938 C   0  0  0  0  0  0  0  0  0  0  0  0
   27.6053  -19.6890  -14.7925 C   0  0  2  0  0  0  0  0  0  0  0  0
   27.1748  -18.4868  -13.9743 C   0  0  0  0  0  0  0  0  0  0  0  0
   28.2541  -20.7159  -13.9005 C   0  0  2  0  0  0  0  0  0  0  0  0
   28.7402  -21.8577  -14.5752 N   0  0  0  0  0  0  0  0  0  0  0  0
   27.3880  -21.1310  -12.7856 C   0  0  0  0  0  0  0  0  0  0  0  0
   26.5231  -22.0011  -12.9606 O   0  0  0  0  0  0  0  0  0  0  0  0
   26.7331  -19.4433   -6.7996 C   0  0  0  0  0  0  0  0  0  0  0  0
   26.1301  -20.2250   -7.9715 C   0  0  2  0  0  0  0  0  0  0  0  0
   25.8608  -21.6443   -7.5476 C   0  0  0  0  0  0  0  0  0  0  0  0
   27.1283  -20.1552   -9.0906 C   0  0  0  0  0  0  0  0  0  0  0  0
   26.6738  -20.6885  -10.3922 C   0  0  2  0  0  0  0  0  0  0  0  0
   27.5437  -20.5346  -11.5107 N   0  0  0  0  0  0  0  0  0  0  0  0
   25.2942  -20.1465  -10.7287 C   0  0  0  0  0  0  0  0  0  0  0  0
   25.0349  -18.9322  -10.7117 O   0  0  0  0  0  0  0  0  0  0  0  0
   21.8346  -20.3756  -13.8782 C   0  0  0  0  0  0  0  0  0  0  0  0
   23.0759  -20.9692  -13.2156 C   0  0  2  0  0  0  0  0  0  0  0  0
   23.0088  -22.4800  -13.2493 C   0  0  0  0  0  0  0  0  0  0  0  0
   23.0836  -20.5315  -11.7813 C   0  0  2  0  0  0  0  0  0  0  0  0
   24.2539  -21.0494  -11.0773 N   0  0  0  0  0  0  0  0  0  0  0  0
   21.8312  -21.0337  -11.1371 C   0  0  0  0  0  0  0  0  0  0  0  0
   20.6152  -20.5245  -11.5228 O   0  0  0  0  0  0  0  0  0  0  0  0
   21.8509  -21.9106  -10.2490 O   0  0  0  0  0  0  0  0  0  0  0  0
  1  2  1  0
  3  5  1  0
  3  2  1  0
  3  4  1  1
  5  6  1  6
  7  5  1  0
  7  8  2  0
 10  9  1  1
 11 10  1  0
 13 12  1  1
 12 10  1  0
 13 14  1  0
 14  7  1  0
 15 13  1  0
 16 15  2  0
 18 17  1  6
 18 20  1  0
 19 18  1  0
 20 22  1  0
 20 21  1  1
 21 15  1  0
 22 23  1  0
 24 22  2  0
M  END
$$$$
