ILV.pdb
     RDKit          3D

 24 23  0  0  1  0  0  0  0  0999 V2000
   28.7338  -17.1837  -17.3972 C   0  0  0  0  0  0  0  0  0  0  0  0
   27.6906  -16.9690  -16.3428 C   0  0  0  0  0  0  0  0  0  0  0  0
   27.7600  -18.0186  -15.2537 C   0  0  2  0  0  0  0  0  0  0  0  0
   27.4971  -19.3481  -15.9342 C   0  0  0  0  0  0  0  0  0  0  0  0
   26.6961  -17.7469  -14.2214 C   0  0  2  0  0  0  0  0  0  0  0  0
   26.7705  -16.4699  -13.6224 N   0  0  0  0  0  0  0  0  0  0  0  0
   26.6387  -18.7813  -13.1764 C   0  0  0  0  0  0  0  0  0  0  0  0
   26.4980  -19.9726  -13.4876 O   0  0  0  0  0  0  0  0  0  0  0  0
   27.3487  -18.9561   -7.0151 C   0  0  0  0  0  0  0  0  0  0  0  0
   27.1314  -19.8063   -8.2712 C   0  0  2  0  0  0  0  0  0  0  0  0
   28.1085  -20.9517   -8.2819 C   0  0  0  0  0  0  0  0  0  0  0  0
   27.3282  -18.8921   -9.4456 C   0  0  0  0  0  0  0  0  0  0  0  0
   26.6352  -19.2858  -10.6905 C   0  0  2  0  0  0  0  0  0  0  0  0
   26.7446  -18.4141  -11.8129 N   0  0  0  0  0  0  0  0  0  0  0  0
   25.1725  -19.5843  -10.4052 C   0  0  0  0  0  0  0  0  0  0  0  0
   24.3675  -18.7011  -10.0673 O   0  0  0  0  0  0  0  0  0  0  0  0
   22.8630  -21.0816  -12.7116 C   0  0  0  0  0  0  0  0  0  0  0  0
   22.6712  -21.9244  -11.4526 C   0  0  2  0  0  0  0  0  0  0  0  0
   21.1962  -22.1125  -11.1748 C   0  0  0  0  0  0  0  0  0  0  0  0
   23.2737  -21.1740  -10.3025 C   0  0  2  0  0  0  0  0  0  0  0  0
   24.6941  -20.9169  -10.5256 N   0  0  0  0  0  0  0  0  0  0  0  0
   23.0869  -21.9938   -9.0660 C   0  0  0  0  0  0  0  0  0  0  0  0
   21.9437  -21.8485   -8.3186 O   0  0  0  0  0  0  0  0  0  0  0  0
   23.9442  -22.8161   -8.6827 O   0  0  0  0  0  0  0  0  0  0  0  0
  1  2  1  0
  3  5  1  0
  3  2  1  0
  3  4  1  6
  5  6  1  1
  7  5  1  0
  7  8  2  0
 10  9  1  1
 11 10  1  0
 13 12  1  1
 12 10  1  0
 13 14  1  0
 14  7  1  0
 15 13  1  0
 16 15  2  0
 18 17  1  6
 18 20  1  0
 19 18  1  0
 20 22  1  0
 20 21  1  6
 21 15  1  0
 22 23  1  0
 24 22  2  0
M  END
$$$$
