ILV.pdb
     RDKit          3D

 24 23  0  0  1  0  0  0  0  0999 V2000
   27.2004  -18.7858  -17.6685 C   0  0  0  0  0  0  0  0  0  0  0  0
   27.6839  -19.4041  -16.3919 C   0  0  0  0  0  0  0  0  0  0  0  0
   26.5421  -19.9292  -15.5474 C   0  0  2  0  0  0  0  0  0  0  0  0
   25.6530  -18.7360  -15.2546 C   0  0  0  0  0  0  0  0  0  0  0  0
   27.0844  -20.4977  -14.2614 C   0  0  2  0  0  0  0  0  0  0  0  0
   28.1230  -21.4406  -14.4272 N   0  0  0  0  0  0  0  0  0  0  0  0
   26.0337  -21.0647  -13.4012 C   0  0  0  0  0  0  0  0  0  0  0  0
   25.5138  -22.1521  -13.6891 O   0  0  0  0  0  0  0  0  0  0  0  0
   26.3439  -21.8159   -9.0714 C   0  0  0  0  0  0  0  0  0  0  0  0
   26.0366  -20.3355   -9.3203 C   0  0  2  0  0  0  0  0  0  0  0  0
   26.0871  -19.5825   -8.0176 C   0  0  0  0  0  0  0  0  0  0  0  0
   24.6729  -20.2812   -9.9455 C   0  0  0  0  0  0  0  0  0  0  0  0
   24.5854  -20.7606  -11.3410 C   0  0  2  0  0  0  0  0  0  0  0  0
   25.6166  -20.3659  -12.2423 N   0  0  0  0  0  0  0  0  0  0  0  0
   23.2248  -20.4224  -11.9280 C   0  0  0  0  0  0  0  0  0  0  0  0
   22.8671  -19.2533  -12.1461 O   0  0  0  0  0  0  0  0  0  0  0  0
   20.9895  -23.4198  -13.8039 C   0  0  0  0  0  0  0  0  0  0  0  0
   20.9132  -21.9429  -14.1849 C   0  0  2  0  0  0  0  0  0  0  0  0
   22.0469  -21.5906  -15.1224 C   0  0  0  0  0  0  0  0  0  0  0  0
   21.0737  -21.1370  -12.9305 C   0  0  2  0  0  0  0  0  0  0  0  0
   22.3191  -21.4706  -12.2441 N   0  0  0  0  0  0  0  0  0  0  0  0
   19.9044  -21.4232  -12.0434 C   0  0  0  0  0  0  0  0  0  0  0  0
   20.0756  -22.1901  -10.9168 O   0  0  0  0  0  0  0  0  0  0  0  0
   18.7627  -20.9848  -12.2932 O   0  0  0  0  0  0  0  0  0  0  0  0
  1  2  1  0
  3  5  1  0
  3  2  1  0
  3  4  1  1
  5  6  1  6
  7  5  1  0
  7  8  2  0
 10  9  1  1
 11 10  1  0
 13 12  1  1
 12 10  1  0
 13 14  1  0
 14  7  1  0
 15 13  1  0
 16 15  2  0
 18 17  1  1
 18 20  1  0
 19 18  1  0
 20 22  1  0
 20 21  1  1
 21 15  1  0
 22 23  1  0
 24 22  2  0
M  END
$$$$
