TVW.pdb
     RDKit          3D

 29 30  0  0  1  0  0  0  0  0999 V2000
   12.9013  -18.5299   20.0130 C   0  0  0  0  0  0  0  0  0  0  0  0
   11.6451  -18.9506   19.3213 C   0  0  1  0  0  0  0  0  0  0  0  0
   10.7769  -19.4410   20.3236 O   0  0  0  0  0  0  0  0  0  0  0  0
   10.9133  -17.7952   18.6738 C   0  0  2  0  0  0  0  0  0  0  0  0
   11.6884  -17.2286   17.6034 N   0  0  0  0  0  0  0  0  0  0  0  0
   10.6335  -16.7901   19.7301 C   0  0  0  0  0  0  0  0  0  0  0  0
   11.5466  -16.0239   20.1189 O   0  0  0  0  0  0  0  0  0  0  0  0
    7.1780  -14.2299   22.1411 C   0  0  0  0  0  0  0  0  0  0  0  0
    7.5396  -15.4011   21.2337 C   0  0  2  0  0  0  0  0  0  0  0  0
    6.7585  -16.6283   21.6457 C   0  0  0  0  0  0  0  0  0  0  0  0
    9.0117  -15.7105   21.3241 C   0  0  2  0  0  0  0  0  0  0  0  0
    9.3302  -16.6910   20.3072 N   0  0  0  0  0  0  0  0  0  0  0  0
    9.3726  -16.2886   22.6606 C   0  0  0  0  0  0  0  0  0  0  0  0
    9.6127  -17.5306   22.7797 O   0  0  0  0  0  0  0  0  0  0  0  0
    9.4609  -15.4959   23.8248 N   0  0  0  0  0  0  0  0  0  0  0  0
    9.7564  -16.1149   25.1110 C   0  0  1  0  0  0  0  0  0  0  0  0
    9.4272  -15.1932   26.2436 C   0  0  0  0  0  0  0  0  0  0  0  0
    8.0820  -14.5996   26.2079 C   0  0  0  0  0  0  0  0  0  0  0  0
    6.8948  -15.3414   26.0294 C   0  0  0  0  0  0  0  0  0  0  0  0
    5.8378  -14.5292   26.0747 N   0  0  0  0  0  0  0  0  0  0  0  0
    6.2579  -13.2546   26.2778 C   0  0  0  0  0  0  0  0  0  0  0  0
    5.5305  -12.0913   26.3853 C   0  0  0  0  0  0  0  0  0  0  0  0
    6.2183  -10.9159   26.5826 C   0  0  0  0  0  0  0  0  0  0  0  0
    7.5976  -10.9439   26.6645 C   0  0  0  0  0  0  0  0  0  0  0  0
    8.3021  -12.1237   26.5538 C   0  0  0  0  0  0  0  0  0  0  0  0
    7.6515  -13.3092   26.3587 C   0  0  0  0  0  0  0  0  0  0  0  0
    9.2205  -17.4697   25.2565 C   0  0  0  0  0  0  0  0  0  0  0  0
    9.8822  -18.3624   26.0866 O   0  0  0  0  0  0  0  0  0  0  0  0
    8.1898  -17.8913   24.6714 O   0  0  0  0  0  0  0  0  0  0  0  0
  2  1  1  1
  2  3  1  0
  2  4  1  0
  4  6  1  0
  4  5  1  6
  6  7  2  0
  9 11  1  0
  9  8  1  1
 10  9  1  0
 11 12  1  6
 12  6  1  0
 13 15  1  0
 13 11  1  0
 14 13  2  0
 16 27  1  0
 16 15  1  0
 16 17  1  1
 18 19  2  0
 18 17  1  0
 20 19  1  0
 21 26  2  0
 21 20  1  0
 22 21  1  0
 23 24  1  0
 23 22  2  0
 24 25  2  0
 25 26  1  0
 26 18  1  0
 27 28  1  0
 29 27  2  0
M  END
$$$$
