TVW.pdb
     RDKit          3D

 29 30  0  0  1  0  0  0  0  0999 V2000
    9.8095  -13.0692   17.9278 C   0  0  0  0  0  0  0  0  0  0  0  0
    9.3858  -13.8232   19.1466 C   0  0  1  0  0  0  0  0  0  0  0  0
    9.6816  -12.9975   20.2554 O   0  0  0  0  0  0  0  0  0  0  0  0
    7.8930  -14.0645   19.2012 C   0  0  2  0  0  0  0  0  0  0  0  0
    7.1698  -12.8219   19.2190 N   0  0  0  0  0  0  0  0  0  0  0  0
    7.6110  -14.8722   20.4146 C   0  0  0  0  0  0  0  0  0  0  0  0
    7.1507  -14.3166   21.4399 O   0  0  0  0  0  0  0  0  0  0  0  0
    6.4503  -18.7837   20.1541 C   0  0  0  0  0  0  0  0  0  0  0  0
    7.5809  -18.5418   21.1487 C   0  0  2  0  0  0  0  0  0  0  0  0
    7.3873  -19.4165   22.3665 C   0  0  0  0  0  0  0  0  0  0  0  0
    7.6061  -17.0999   21.5865 C   0  0  2  0  0  0  0  0  0  0  0  0
    7.8620  -16.2788   20.4217 N   0  0  0  0  0  0  0  0  0  0  0  0
    8.6955  -16.8463   22.5862 C   0  0  0  0  0  0  0  0  0  0  0  0
    9.8893  -16.6478   22.1989 O   0  0  0  0  0  0  0  0  0  0  0  0
    8.4505  -16.8165   23.9757 N   0  0  0  0  0  0  0  0  0  0  0  0
    9.5488  -16.5940   24.9079 C   0  0  1  0  0  0  0  0  0  0  0  0
    9.0599  -15.9851   26.1849 C   0  0  0  0  0  0  0  0  0  0  0  0
    7.8984  -15.0918   26.0578 C   0  0  0  0  0  0  0  0  0  0  0  0
    6.5691  -15.5401   25.9040 C   0  0  0  0  0  0  0  0  0  0  0  0
    5.7392  -14.4974   25.8485 N   0  0  0  0  0  0  0  0  0  0  0  0
    6.4526  -13.3479   25.9584 C   0  0  0  0  0  0  0  0  0  0  0  0
    6.0267  -12.0393   25.9462 C   0  0  0  0  0  0  0  0  0  0  0  0
    6.9759  -11.0505   26.0671 C   0  0  0  0  0  0  0  0  0  0  0  0
    8.3066  -11.4010   26.1945 C   0  0  0  0  0  0  0  0  0  0  0  0
    8.7064  -12.7203   26.2042 C   0  0  0  0  0  0  0  0  0  0  0  0
    7.7908  -13.7277   26.0875 C   0  0  0  0  0  0  0  0  0  0  0  0
   10.4230  -17.7551   25.0856 C   0  0  0  0  0  0  0  0  0  0  0  0
   11.6633  -17.5708   25.6785 O   0  0  0  0  0  0  0  0  0  0  0  0
   10.1286  -18.9254   24.7306 O   0  0  0  0  0  0  0  0  0  0  0  0
  2  1  1  6
  2  3  1  0
  2  4  1  0
  4  6  1  0
  4  5  1  1
  6  7  2  0
  9 11  1  0
  9  8  1  6
 10  9  1  0
 11 12  1  6
 12  6  1  0
 13 15  1  0
 13 11  1  0
 14 13  2  0
 16 27  1  0
 16 15  1  0
 16 17  1  1
 18 19  2  0
 18 17  1  0
 20 19  1  0
 21 26  2  0
 21 20  1  0
 22 21  1  0
 23 24  1  0
 23 22  2  0
 24 25  2  0
 25 26  1  0
 26 18  1  0
 27 28  1  0
 29 27  2  0
M  END
$$$$
