TVW.pdb
     RDKit          3D

 29 30  0  0  1  0  0  0  0  0999 V2000
   13.3750  -17.9912   19.7800 C   0  0  0  0  0  0  0  0  0  0  0  0
   12.1569  -18.5773   19.1428 C   0  0  1  0  0  0  0  0  0  0  0  0
   11.4310  -19.2181   20.1729 O   0  0  0  0  0  0  0  0  0  0  0  0
   11.2255  -17.5282   18.5758 C   0  0  2  0  0  0  0  0  0  0  0  0
   11.8491  -16.8151   17.4941 N   0  0  0  0  0  0  0  0  0  0  0  0
   10.8506  -16.6125   19.6826 C   0  0  0  0  0  0  0  0  0  0  0  0
   11.6806  -15.7732   20.1053 O   0  0  0  0  0  0  0  0  0  0  0  0
    7.3736  -14.7714   19.7964 C   0  0  0  0  0  0  0  0  0  0  0  0
    7.6397  -15.5071   21.1055 C   0  0  2  0  0  0  0  0  0  0  0  0
    7.1339  -14.6831   22.2679 C   0  0  0  0  0  0  0  0  0  0  0  0
    9.1155  -15.7504   21.2897 C   0  0  2  0  0  0  0  0  0  0  0  0
    9.5501  -16.6823   20.2702 N   0  0  0  0  0  0  0  0  0  0  0  0
    9.4118  -16.3530   22.6313 C   0  0  0  0  0  0  0  0  0  0  0  0
    9.7337  -17.5784   22.7282 O   0  0  0  0  0  0  0  0  0  0  0  0
    9.3486  -15.6021   23.8245 N   0  0  0  0  0  0  0  0  0  0  0  0
    9.6509  -16.2333   25.1032 C   0  0  1  0  0  0  0  0  0  0  0  0
    9.4620  -15.2753   26.2377 C   0  0  0  0  0  0  0  0  0  0  0  0
    8.1572  -14.5981   26.2856 C   0  0  0  0  0  0  0  0  0  0  0  0
    6.9166  -15.2652   26.2011 C   0  0  0  0  0  0  0  0  0  0  0  0
    5.9180  -14.3872   26.3064 N   0  0  0  0  0  0  0  0  0  0  0  0
    6.4300  -13.1396   26.4600 C   0  0  0  0  0  0  0  0  0  0  0  0
    5.7859  -11.9314   26.5992 C   0  0  0  0  0  0  0  0  0  0  0  0
    6.5578  -10.7998   26.7302 C   0  0  0  0  0  0  0  0  0  0  0  0
    7.9350  -10.9141   26.7172 C   0  0  0  0  0  0  0  0  0  0  0  0
    8.5550  -12.1374   26.5767 C   0  0  0  0  0  0  0  0  0  0  0  0
    7.8198  -13.2814   26.4455 C   0  0  0  0  0  0  0  0  0  0  0  0
    9.0038  -17.5329   25.2930 C   0  0  0  0  0  0  0  0  0  0  0  0
    9.5876  -18.4483   26.1562 O   0  0  0  0  0  0  0  0  0  0  0  0
    7.9423  -17.8873   24.7184 O   0  0  0  0  0  0  0  0  0  0  0  0
  2  1  1  1
  2  3  1  0
  2  4  1  0
  4  6  1  0
  4  5  1  6
  6  7  2  0
  9 11  1  0
  9  8  1  6
 10  9  1  0
 11 12  1  6
 12  6  1  0
 13 15  1  0
 13 11  1  0
 14 13  2  0
 16 27  1  0
 16 15  1  0
 16 17  1  1
 18 19  2  0
 18 17  1  0
 20 19  1  0
 21 26  2  0
 21 20  1  0
 22 21  1  0
 23 24  1  0
 23 22  2  0
 24 25  2  0
 25 26  1  0
 26 18  1  0
 27 28  1  0
 29 27  2  0
M  END
$$$$
