TVW.pdb
     RDKit          3D

 29 30  0  0  1  0  0  0  0  0999 V2000
    8.9734  -12.7570   20.8625 C   0  0  0  0  0  0  0  0  0  0  0  0
    7.7524  -13.1014   20.0726 C   0  0  1  0  0  0  0  0  0  0  0  0
    7.7184  -12.2128   18.9736 O   0  0  0  0  0  0  0  0  0  0  0  0
    7.8090  -14.4907   19.4756 C   0  0  2  0  0  0  0  0  0  0  0  0
    6.6568  -14.7466   18.6543 N   0  0  0  0  0  0  0  0  0  0  0  0
    7.9005  -15.4598   20.5966 C   0  0  0  0  0  0  0  0  0  0  0  0
    6.8819  -15.7210   21.2793 O   0  0  0  0  0  0  0  0  0  0  0  0
    9.6005  -18.8760   20.1155 C   0  0  0  0  0  0  0  0  0  0  0  0
   10.1855  -18.2028   21.3526 C   0  0  2  0  0  0  0  0  0  0  0  0
   10.4261  -19.2345   22.4314 C   0  0  0  0  0  0  0  0  0  0  0  0
    9.2424  -17.1551   21.8855 C   0  0  2  0  0  0  0  0  0  0  0  0
    9.1426  -16.0960   20.9032 N   0  0  0  0  0  0  0  0  0  0  0  0
    9.7473  -16.5591   23.1664 C   0  0  0  0  0  0  0  0  0  0  0  0
   10.7142  -15.7348   23.1542 O   0  0  0  0  0  0  0  0  0  0  0  0
    9.1831  -16.8792   24.4197 N   0  0  0  0  0  0  0  0  0  0  0  0
    9.8386  -16.4494   25.6487 C   0  0  1  0  0  0  0  0  0  0  0  0
    8.8356  -16.0941   26.7014 C   0  0  0  0  0  0  0  0  0  0  0  0
    7.7495  -15.2022   26.2675 C   0  0  0  0  0  0  0  0  0  0  0  0
    6.5627  -15.6456   25.6460 C   0  0  0  0  0  0  0  0  0  0  0  0
    5.7604  -14.6086   25.4014 N   0  0  0  0  0  0  0  0  0  0  0  0
    6.3553  -13.4676   25.8332 C   0  0  0  0  0  0  0  0  0  0  0  0
    5.9101  -12.1663   25.7847 C   0  0  0  0  0  0  0  0  0  0  0  0
    6.7297  -11.1844   26.2922 C   0  0  0  0  0  0  0  0  0  0  0  0
    7.9555  -11.5343   26.8258 C   0  0  0  0  0  0  0  0  0  0  0  0
    8.3773  -12.8463   26.8624 C   0  0  0  0  0  0  0  0  0  0  0  0
    7.5888  -13.8468   26.3685 C   0  0  0  0  0  0  0  0  0  0  0  0
   10.9010  -17.3490   26.1024 C   0  0  0  0  0  0  0  0  0  0  0  0
   11.8084  -16.8870   27.0442 O   0  0  0  0  0  0  0  0  0  0  0  0
   11.0558  -18.5278   25.6913 O   0  0  0  0  0  0  0  0  0  0  0  0
  2  1  1  1
  2  3  1  0
  2  4  1  0
  4  6  1  0
  4  5  1  1
  6  7  2  0
  9 11  1  0
  9  8  1  6
 10  9  1  0
 11 12  1  6
 12  6  1  0
 13 15  1  0
 13 11  1  0
 14 13  2  0
 16 27  1  0
 16 15  1  0
 16 17  1  1
 18 19  2  0
 18 17  1  0
 20 19  1  0
 21 26  2  0
 21 20  1  0
 22 21  1  0
 23 24  1  0
 23 22  2  0
 24 25  2  0
 25 26  1  0
 26 18  1  0
 27 28  1  0
 29 27  2  0
M  END
$$$$
