TVW.pdb
     RDKit          3D

 29 30  0  0  1  0  0  0  0  0999 V2000
    9.3878  -12.7142   19.9694 C   0  0  0  0  0  0  0  0  0  0  0  0
    8.3830  -13.0834   18.9265 C   0  0  1  0  0  0  0  0  0  0  0  0
    8.6647  -12.2855   17.7939 O   0  0  0  0  0  0  0  0  0  0  0  0
    8.5156  -14.5173   18.4617 C   0  0  2  0  0  0  0  0  0  0  0  0
    7.5716  -14.8105   17.4174 N   0  0  0  0  0  0  0  0  0  0  0  0
    8.3076  -15.3947   19.6412 C   0  0  0  0  0  0  0  0  0  0  0  0
    7.1487  -15.5835   20.0808 O   0  0  0  0  0  0  0  0  0  0  0  0
   11.4100  -18.0139   20.6307 C   0  0  0  0  0  0  0  0  0  0  0  0
    9.9372  -18.2675   20.9348 C   0  0  2  0  0  0  0  0  0  0  0  0
    9.2482  -18.8180   19.7067 C   0  0  0  0  0  0  0  0  0  0  0  0
    9.2500  -16.9904   21.3446 C   0  0  2  0  0  0  0  0  0  0  0  0
    9.4200  -16.0244   20.2794 N   0  0  0  0  0  0  0  0  0  0  0  0
    9.8498  -16.4183   22.5951 C   0  0  0  0  0  0  0  0  0  0  0  0
   10.8326  -15.6158   22.5273 O   0  0  0  0  0  0  0  0  0  0  0  0
    9.3603  -16.7379   23.8795 N   0  0  0  0  0  0  0  0  0  0  0  0
   10.0653  -16.2736   25.0679 C   0  0  1  0  0  0  0  0  0  0  0  0
    9.7329  -14.8461   25.3713 C   0  0  0  0  0  0  0  0  0  0  0  0
    8.3415  -14.5906   25.7740 C   0  0  0  0  0  0  0  0  0  0  0  0
    7.3318  -15.5762   25.7991 C   0  0  0  0  0  0  0  0  0  0  0  0
    6.1884  -15.0474   26.2373 N   0  0  0  0  0  0  0  0  0  0  0  0
    6.3776  -13.7321   26.5138 C   0  0  0  0  0  0  0  0  0  0  0  0
    5.4883  -12.7904   26.9790 C   0  0  0  0  0  0  0  0  0  0  0  0
    5.9468  -11.5066   27.1660 C   0  0  0  0  0  0  0  0  0  0  0  0
    7.2670  -11.2110   26.8836 C   0  0  0  0  0  0  0  0  0  0  0  0
    8.1373  -12.1739   26.4188 C   0  0  0  0  0  0  0  0  0  0  0  0
    7.7164  -13.4588   26.2228 C   0  0  0  0  0  0  0  0  0  0  0  0
    9.9584  -17.1780   26.2144 C   0  0  0  0  0  0  0  0  0  0  0  0
   10.7339  -16.9260   27.3365 O   0  0  0  0  0  0  0  0  0  0  0  0
    9.2058  -18.1852   26.2555 O   0  0  0  0  0  0  0  0  0  0  0  0
  2  1  1  1
  2  3  1  0
  2  4  1  0
  4  6  1  0
  4  5  1  6
  6  7  2  0
  9 11  1  0
  9  8  1  6
 10  9  1  0
 11 12  1  6
 12  6  1  0
 13 15  1  0
 13 11  1  0
 14 13  2  0
 16 27  1  0
 16 15  1  0
 16 17  1  1
 18 19  2  0
 18 17  1  0
 20 19  1  0
 21 26  2  0
 21 20  1  0
 22 21  1  0
 23 24  1  0
 23 22  2  0
 24 25  2  0
 25 26  1  0
 26 18  1  0
 27 28  1  0
 29 27  2  0
M  END
$$$$
