TVW.pdb
     RDKit          3D

 29 30  0  0  1  0  0  0  0  0999 V2000
   10.3871  -13.0130   17.4355 C   0  0  0  0  0  0  0  0  0  0  0  0
    9.8324  -13.7090   18.6360 C   0  0  1  0  0  0  0  0  0  0  0  0
    9.7303  -12.7354   19.6560 O   0  0  0  0  0  0  0  0  0  0  0  0
    8.4269  -14.2266   18.4204 C   0  0  2  0  0  0  0  0  0  0  0  0
    7.5303  -13.1565   18.0756 N   0  0  0  0  0  0  0  0  0  0  0  0
    8.0010  -14.9084   19.6686 C   0  0  0  0  0  0  0  0  0  0  0  0
    7.2991  -14.2937   20.5061 O   0  0  0  0  0  0  0  0  0  0  0  0
    9.3729  -18.8920   20.3679 C   0  0  0  0  0  0  0  0  0  0  0  0
    7.9845  -18.4449   20.8134 C   0  0  2  0  0  0  0  0  0  0  0  0
    6.9801  -18.7270   19.7190 C   0  0  0  0  0  0  0  0  0  0  0  0
    7.9711  -16.9684   21.1148 C   0  0  2  0  0  0  0  0  0  0  0  0
    8.3871  -16.2604   19.9221 N   0  0  0  0  0  0  0  0  0  0  0  0
    8.9244  -16.6227   22.2204 C   0  0  0  0  0  0  0  0  0  0  0  0
   10.0915  -16.1972   21.9529 O   0  0  0  0  0  0  0  0  0  0  0  0
    8.5767  -16.7510   23.5821 N   0  0  0  0  0  0  0  0  0  0  0  0
    9.5546  -16.4456   24.6191 C   0  0  1  0  0  0  0  0  0  0  0  0
    9.4417  -15.0218   25.0670 C   0  0  0  0  0  0  0  0  0  0  0  0
    8.0890  -14.5786   25.4372 C   0  0  0  0  0  0  0  0  0  0  0  0
    6.9493  -15.4102   25.4102 C   0  0  0  0  0  0  0  0  0  0  0  0
    5.8796  -14.7327   25.8294 N   0  0  0  0  0  0  0  0  0  0  0  0
    6.2451  -13.4638   26.1432 C   0  0  0  0  0  0  0  0  0  0  0  0
    5.4847  -12.4144   26.6066 C   0  0  0  0  0  0  0  0  0  0  0  0
    6.1150  -11.2132   26.8376 C   0  0  0  0  0  0  0  0  0  0  0  0
    7.4718  -11.1035   26.5991 C   0  0  0  0  0  0  0  0  0  0  0  0
    8.2105  -12.1710   26.1352 C   0  0  0  0  0  0  0  0  0  0  0  0
    7.6175  -13.3785   25.8961 C   0  0  0  0  0  0  0  0  0  0  0  0
    9.5912  -17.4229   25.7088 C   0  0  0  0  0  0  0  0  0  0  0  0
   10.6516  -17.3855   26.6021 O   0  0  0  0  0  0  0  0  0  0  0  0
    8.7195  -18.3107   25.8948 O   0  0  0  0  0  0  0  0  0  0  0  0
  2  1  1  6
  2  3  1  0
  2  4  1  0
  4  6  1  0
  4  5  1  1
  6  7  2  0
  9 11  1  0
  9  8  1  6
 10  9  1  0
 11 12  1  6
 12  6  1  0
 13 15  1  0
 13 11  1  0
 14 13  2  0
 16 27  1  0
 16 15  1  0
 16 17  1  1
 18 19  2  0
 18 17  1  0
 20 19  1  0
 21 26  2  0
 21 20  1  0
 22 21  1  0
 23 24  1  0
 23 22  2  0
 24 25  2  0
 25 26  1  0
 26 18  1  0
 27 28  1  0
 29 27  2  0
M  END
$$$$
