TVW.pdb
     RDKit          3D

 29 30  0  0  1  0  0  0  0  0999 V2000
    9.3812  -12.7897   20.3806 C   0  0  0  0  0  0  0  0  0  0  0  0
    8.4207  -12.9776   19.2512 C   0  0  1  0  0  0  0  0  0  0  0  0
    8.8650  -12.1430   18.2001 O   0  0  0  0  0  0  0  0  0  0  0  0
    8.4351  -14.3839   18.6928 C   0  0  2  0  0  0  0  0  0  0  0  0
    7.5333  -14.5061   17.5795 N   0  0  0  0  0  0  0  0  0  0  0  0
    8.0652  -15.3097   19.7929 C   0  0  0  0  0  0  0  0  0  0  0  0
    6.9863  -15.9457   19.7359 O   0  0  0  0  0  0  0  0  0  0  0  0
    8.4272  -18.0776   19.7658 C   0  0  0  0  0  0  0  0  0  0  0  0
    9.3421  -17.8369   20.9619 C   0  0  2  0  0  0  0  0  0  0  0  0
    9.3495  -19.0571   21.8546 C   0  0  0  0  0  0  0  0  0  0  0  0
    8.8696  -16.6521   21.7645 C   0  0  2  0  0  0  0  0  0  0  0  0
    8.9306  -15.4796   20.9171 N   0  0  0  0  0  0  0  0  0  0  0  0
    9.7441  -16.4115   22.9596 C   0  0  0  0  0  0  0  0  0  0  0  0
   10.9940  -16.2341   22.8157 O   0  0  0  0  0  0  0  0  0  0  0  0
    9.2298  -16.3715   24.2731 N   0  0  0  0  0  0  0  0  0  0  0  0
   10.1349  -16.2626   25.4105 C   0  0  1  0  0  0  0  0  0  0  0  0
    9.5333  -15.4359   26.5038 C   0  0  0  0  0  0  0  0  0  0  0  0
    8.1693  -14.9468   26.2519 C   0  0  0  0  0  0  0  0  0  0  0  0
    7.0637  -15.7850   25.9940 C   0  0  0  0  0  0  0  0  0  0  0  0
    5.9608  -15.0512   25.8385 N   0  0  0  0  0  0  0  0  0  0  0  0
    6.2707  -13.7374   25.9803 C   0  0  0  0  0  0  0  0  0  0  0  0
    5.4640  -12.6255   25.8964 C   0  0  0  0  0  0  0  0  0  0  0  0
    6.0458  -11.3912   26.0740 C   0  0  0  0  0  0  0  0  0  0  0  0
    7.4022  -11.3118   26.3268 C   0  0  0  0  0  0  0  0  0  0  0  0
    8.1876  -12.4420   26.4061 C   0  0  0  0  0  0  0  0  0  0  0  0
    7.6430  -13.6835   26.2362 C   0  0  0  0  0  0  0  0  0  0  0  0
   10.6901  -17.5429   25.8539 C   0  0  0  0  0  0  0  0  0  0  0  0
   11.8146  -17.5362   26.6658 O   0  0  0  0  0  0  0  0  0  0  0  0
   10.2166  -18.6665   25.5443 O   0  0  0  0  0  0  0  0  0  0  0  0
  2  1  1  1
  2  3  1  0
  2  4  1  0
  4  6  1  0
  4  5  1  6
  6  7  2  0
  9 11  1  0
  9  8  1  6
 10  9  1  0
 11 12  1  6
 12  6  1  0
 13 15  1  0
 13 11  1  0
 14 13  2  0
 16 27  1  0
 16 15  1  0
 16 17  1  1
 18 19  2  0
 18 17  1  0
 20 19  1  0
 21 26  2  0
 21 20  1  0
 22 21  1  0
 23 24  1  0
 23 22  2  0
 24 25  2  0
 25 26  1  0
 26 18  1  0
 27 28  1  0
 29 27  2  0
M  END
$$$$
