TVW.pdb
     RDKit          3D

 29 30  0  0  1  0  0  0  0  0999 V2000
    6.6141  -19.8730   20.1312 C   0  0  0  0  0  0  0  0  0  0  0  0
    7.5131  -18.7474   20.5293 C   0  0  1  0  0  0  0  0  0  0  0  0
    8.7461  -19.3286   20.9042 O   0  0  0  0  0  0  0  0  0  0  0  0
    7.8315  -17.8134   19.3821 C   0  0  2  0  0  0  0  0  0  0  0  0
    8.4035  -18.5316   18.2755 N   0  0  0  0  0  0  0  0  0  0  0  0
    8.7616  -16.7743   19.8916 C   0  0  0  0  0  0  0  0  0  0  0  0
    9.9870  -16.8571   19.6395 O   0  0  0  0  0  0  0  0  0  0  0  0
    7.0770  -13.4282   21.9363 C   0  0  0  0  0  0  0  0  0  0  0  0
    8.2772  -13.3111   21.0028 C   0  0  2  0  0  0  0  0  0  0  0  0
    7.8029  -13.0923   19.5839 C   0  0  0  0  0  0  0  0  0  0  0  0
    9.1113  -14.5655   21.0470 C   0  0  2  0  0  0  0  0  0  0  0  0
    8.2692  -15.6810   20.6686 N   0  0  0  0  0  0  0  0  0  0  0  0
    9.6418  -14.8265   22.4259 C   0  0  0  0  0  0  0  0  0  0  0  0
   10.4449  -14.0065   22.9710 O   0  0  0  0  0  0  0  0  0  0  0  0
    9.2809  -15.9716   23.1673 N   0  0  0  0  0  0  0  0  0  0  0  0
    9.8666  -16.2075   24.4811 C   0  0  1  0  0  0  0  0  0  0  0  0
    8.8100  -16.4993   25.5004 C   0  0  0  0  0  0  0  0  0  0  0  0
    7.7427  -15.4936   25.6134 C   0  0  0  0  0  0  0  0  0  0  0  0
    6.3841  -15.7467   25.3276 C   0  0  0  0  0  0  0  0  0  0  0  0
    5.6580  -14.6511   25.5542 N   0  0  0  0  0  0  0  0  0  0  0  0
    6.4711  -13.6535   25.9856 C   0  0  0  0  0  0  0  0  0  0  0  0
    6.1702  -12.3560   26.3317 C   0  0  0  0  0  0  0  0  0  0  0  0
    7.2025  -11.5387   26.7316 C   0  0  0  0  0  0  0  0  0  0  0  0
    8.4888  -12.0424   26.7709 C   0  0  0  0  0  0  0  0  0  0  0  0
    8.7628  -13.3469   26.4191 C   0  0  0  0  0  0  0  0  0  0  0  0
    7.7621  -14.1864   26.0185 C   0  0  0  0  0  0  0  0  0  0  0  0
   10.9809  -17.1574   24.4740 C   0  0  0  0  0  0  0  0  0  0  0  0
   11.6714  -17.3834   25.6555 O   0  0  0  0  0  0  0  0  0  0  0  0
   11.3665  -17.7906   23.4577 O   0  0  0  0  0  0  0  0  0  0  0  0
  2  1  1  6
  2  3  1  0
  2  4  1  0
  4  6  1  0
  4  5  1  6
  6  7  2  0
  9 11  1  0
  9  8  1  1
 10  9  1  0
 11 12  1  1
 12  6  1  0
 13 15  1  0
 13 11  1  0
 14 13  2  0
 16 27  1  0
 16 15  1  0
 16 17  1  1
 18 19  2  0
 18 17  1  0
 20 19  1  0
 21 26  2  0
 21 20  1  0
 22 21  1  0
 23 24  1  0
 23 22  2  0
 24 25  2  0
 25 26  1  0
 26 18  1  0
 27 28  1  0
 29 27  2  0
M  END
$$$$
