TVW.pdb
     RDKit          3D

 29 30  0  0  1  0  0  0  0  0999 V2000
    8.5490  -19.8594   22.7470 C   0  0  0  0  0  0  0  0  0  0  0  0
    8.4158  -20.1138   21.2803 C   0  0  1  0  0  0  0  0  0  0  0  0
    7.6309  -21.2815   21.1426 O   0  0  0  0  0  0  0  0  0  0  0  0
    7.6567  -19.0214   20.5591 C   0  0  2  0  0  0  0  0  0  0  0  0
    7.4240  -19.3756   19.1851 N   0  0  0  0  0  0  0  0  0  0  0  0
    8.4514  -17.7722   20.6688 C   0  0  0  0  0  0  0  0  0  0  0  0
    9.5880  -17.7084   20.1434 O   0  0  0  0  0  0  0  0  0  0  0  0
    6.6679  -14.2750   22.4410 C   0  0  0  0  0  0  0  0  0  0  0  0
    7.7507  -14.2555   21.3672 C   0  0  2  0  0  0  0  0  0  0  0  0
    7.1152  -14.3380   19.9978 C   0  0  0  0  0  0  0  0  0  0  0  0
    8.6904  -15.4214   21.5366 C   0  0  2  0  0  0  0  0  0  0  0  0
    7.9297  -16.6422   21.3705 N   0  0  0  0  0  0  0  0  0  0  0  0
    9.3083  -15.4375   22.9036 C   0  0  0  0  0  0  0  0  0  0  0  0
   10.0707  -14.4914   23.2751 O   0  0  0  0  0  0  0  0  0  0  0  0
    9.0760  -16.4829   23.8226 N   0  0  0  0  0  0  0  0  0  0  0  0
    9.7356  -16.4746   25.1225 C   0  0  1  0  0  0  0  0  0  0  0  0
    8.7361  -16.4880   26.2367 C   0  0  0  0  0  0  0  0  0  0  0  0
    7.7082  -15.4375   26.1795 C   0  0  0  0  0  0  0  0  0  0  0  0
    6.3598  -15.6685   25.8336 C   0  0  0  0  0  0  0  0  0  0  0  0
    5.6692  -14.5295   25.9022 N   0  0  0  0  0  0  0  0  0  0  0  0
    6.4970  -13.5234   26.2828 C   0  0  0  0  0  0  0  0  0  0  0  0
    6.2319  -12.1871   26.4772 C   0  0  0  0  0  0  0  0  0  0  0  0
    7.2725  -11.3715   26.8587 C   0  0  0  0  0  0  0  0  0  0  0  0
    8.5312  -11.9154   27.0310 C   0  0  0  0  0  0  0  0  0  0  0  0
    8.7695  -13.2583   26.8300 C   0  0  0  0  0  0  0  0  0  0  0  0
    7.7595  -14.0972   26.4520 C   0  0  0  0  0  0  0  0  0  0  0  0
   10.8036  -17.4675   25.2542 C   0  0  0  0  0  0  0  0  0  0  0  0
   11.6193  -17.4240   26.3752 O   0  0  0  0  0  0  0  0  0  0  0  0
   11.0419  -18.3690   24.4098 O   0  0  0  0  0  0  0  0  0  0  0  0
  2  1  1  1
  2  3  1  0
  2  4  1  0
  4  6  1  0
  4  5  1  6
  6  7  2  0
  9 11  1  0
  9  8  1  1
 10  9  1  0
 11 12  1  1
 12  6  1  0
 13 15  1  0
 13 11  1  0
 14 13  2  0
 16 27  1  0
 16 15  1  0
 16 17  1  1
 18 19  2  0
 18 17  1  0
 20 19  1  0
 21 26  2  0
 21 20  1  0
 22 21  1  0
 23 24  1  0
 23 22  2  0
 24 25  2  0
 25 26  1  0
 26 18  1  0
 27 28  1  0
 29 27  2  0
M  END
$$$$
