TVW.pdb
     RDKit          3D

 29 30  0  0  1  0  0  0  0  0999 V2000
    4.6404  -19.2967   20.8747 C   0  0  0  0  0  0  0  0  0  0  0  0
    5.8607  -18.4594   21.0825 C   0  0  1  0  0  0  0  0  0  0  0  0
    6.9014  -19.3451   21.4443 O   0  0  0  0  0  0  0  0  0  0  0  0
    6.3271  -17.7731   19.8171 C   0  0  2  0  0  0  0  0  0  0  0  0
    6.6252  -18.7334   18.7892 N   0  0  0  0  0  0  0  0  0  0  0  0
    7.5204  -16.9588   20.1594 C   0  0  0  0  0  0  0  0  0  0  0  0
    8.6664  -17.4544   20.0460 O   0  0  0  0  0  0  0  0  0  0  0  0
    7.1186  -12.7786   21.4591 C   0  0  0  0  0  0  0  0  0  0  0  0
    8.2124  -13.3737   20.5786 C   0  0  2  0  0  0  0  0  0  0  0  0
    7.7691  -13.3619   19.1332 C   0  0  0  0  0  0  0  0  0  0  0  0
    8.5080  -14.7950   20.9833 C   0  0  2  0  0  0  0  0  0  0  0  0
    7.3710  -15.6140   20.6185 N   0  0  0  0  0  0  0  0  0  0  0  0
    8.7149  -14.9149   22.4644 C   0  0  0  0  0  0  0  0  0  0  0  0
    8.0729  -14.1660   23.2654 O   0  0  0  0  0  0  0  0  0  0  0  0
    9.6138  -15.8464   23.0262 N   0  0  0  0  0  0  0  0  0  0  0  0
   10.0490  -15.7008   24.4097 C   0  0  1  0  0  0  0  0  0  0  0  0
    9.0183  -16.2264   25.3594 C   0  0  0  0  0  0  0  0  0  0  0  0
    7.8326  -15.3758   25.5431 C   0  0  0  0  0  0  0  0  0  0  0  0
    6.5081  -15.8049   25.3128 C   0  0  0  0  0  0  0  0  0  0  0  0
    5.6535  -14.8211   25.5967 N   0  0  0  0  0  0  0  0  0  0  0  0
    6.3452  -13.7303   26.0139 C   0  0  0  0  0  0  0  0  0  0  0  0
    5.8901  -12.4911   26.4027 C   0  0  0  0  0  0  0  0  0  0  0  0
    6.8215  -11.5489   26.7745 C   0  0  0  0  0  0  0  0  0  0  0  0
    8.1640  -11.8752   26.7446 C   0  0  0  0  0  0  0  0  0  0  0  0
    8.5932  -13.1248   26.3511 C   0  0  0  0  0  0  0  0  0  0  0  0
    7.6960  -14.0848   25.9767 C   0  0  0  0  0  0  0  0  0  0  0  0
   11.4077  -16.1858   24.6603 C   0  0  0  0  0  0  0  0  0  0  0  0
   12.1191  -16.7470   23.6103 O   0  0  0  0  0  0  0  0  0  0  0  0
   11.9846  -16.1335   25.7770 O   0  0  0  0  0  0  0  0  0  0  0  0
  2  1  1  6
  2  3  1  0
  2  4  1  0
  4  6  1  0
  4  5  1  6
  6  7  2  0
  9 11  1  0
  9  8  1  1
 10  9  1  0
 11 12  1  1
 12  6  1  0
 13 15  1  0
 13 11  1  0
 14 13  2  0
 16 27  1  0
 16 15  1  0
 16 17  1  1
 18 19  2  0
 18 17  1  0
 20 19  1  0
 21 26  2  0
 21 20  1  0
 22 21  1  0
 23 24  1  0
 23 22  2  0
 24 25  2  0
 25 26  1  0
 26 18  1  0
 27 28  1  0
 29 27  2  0
M  END
$$$$
