TVW.pdb
     RDKit          3D

 29 30  0  0  1  0  0  0  0  0999 V2000
   13.7691  -17.0515   17.7983 C   0  0  0  0  0  0  0  0  0  0  0  0
   12.9573  -16.4449   18.8966 C   0  0  1  0  0  0  0  0  0  0  0  0
   13.8034  -16.3632   20.0263 O   0  0  0  0  0  0  0  0  0  0  0  0
   12.5314  -15.0237   18.5991 C   0  0  2  0  0  0  0  0  0  0  0  0
   13.6740  -14.1725   18.4058 N   0  0  0  0  0  0  0  0  0  0  0  0
   11.6946  -14.5570   19.7331 C   0  0  0  0  0  0  0  0  0  0  0  0
   12.2361  -14.0146   20.7254 O   0  0  0  0  0  0  0  0  0  0  0  0
    7.9044  -13.0861   19.2344 C   0  0  0  0  0  0  0  0  0  0  0  0
    8.0149  -14.1912   20.2795 C   0  0  2  0  0  0  0  0  0  0  0  0
    7.0947  -13.8914   21.4410 C   0  0  0  0  0  0  0  0  0  0  0  0
    9.4271  -14.2979   20.7950 C   0  0  2  0  0  0  0  0  0  0  0  0
   10.2758  -14.7231   19.7016 N   0  0  0  0  0  0  0  0  0  0  0  0
    9.5374  -15.3124   21.8947 C   0  0  0  0  0  0  0  0  0  0  0  0
    9.9072  -16.5006   21.6379 O   0  0  0  0  0  0  0  0  0  0  0  0
    9.2420  -15.0008   23.2390 N   0  0  0  0  0  0  0  0  0  0  0  0
    9.5120  -15.9721   24.2918 C   0  0  1  0  0  0  0  0  0  0  0  0
    9.4037  -15.3457   25.6469 C   0  0  0  0  0  0  0  0  0  0  0  0
    8.0879  -14.7797   25.9808 C   0  0  0  0  0  0  0  0  0  0  0  0
    6.8976  -15.5344   26.0527 C   0  0  0  0  0  0  0  0  0  0  0  0
    5.8798  -14.7490   26.4080 N   0  0  0  0  0  0  0  0  0  0  0  0
    6.3297  -13.4803   26.5822 C   0  0  0  0  0  0  0  0  0  0  0  0
    5.6446  -12.3413   26.9390 C   0  0  0  0  0  0  0  0  0  0  0  0
    6.3531  -11.1656   27.0356 C   0  0  0  0  0  0  0  0  0  0  0  0
    7.7101  -11.1692   26.7741 C   0  0  0  0  0  0  0  0  0  0  0  0
    8.3723  -12.3250   26.4188 C   0  0  0  0  0  0  0  0  0  0  0  0
    7.7005  -13.5101   26.3145 C   0  0  0  0  0  0  0  0  0  0  0  0
    8.7761  -17.2294   24.1445 C   0  0  0  0  0  0  0  0  0  0  0  0
    9.2416  -18.3555   24.8072 O   0  0  0  0  0  0  0  0  0  0  0  0
    7.7385  -17.3662   23.4466 O   0  0  0  0  0  0  0  0  0  0  0  0
  2  1  1  6
  2  3  1  0
  2  4  1  0
  4  6  1  0
  4  5  1  1
  6  7  2  0
  9 11  1  0
  9  8  1  6
 10  9  1  0
 11 12  1  6
 12  6  1  0
 13 15  1  0
 13 11  1  0
 14 13  2  0
 16 27  1  0
 16 15  1  0
 16 17  1  1
 18 19  2  0
 18 17  1  0
 20 19  1  0
 21 26  2  0
 21 20  1  0
 22 21  1  0
 23 24  1  0
 23 22  2  0
 24 25  2  0
 25 26  1  0
 26 18  1  0
 27 28  1  0
 29 27  2  0
M  END
$$$$
