DKS.pdb
     RDKit          3D

 24 23  0  0  1  0  0  0  0  0999 V2000
   14.0200  -14.3484   16.8565 N   0  0  0  0  0  0  0  0  0  0  0  0
   14.3858  -14.9547   18.0969 C   0  0  1  0  0  0  0  0  0  0  0  0
   15.3871  -14.0983   18.8076 C   0  0  0  0  0  0  0  0  0  0  0  0
   16.6545  -14.1016   18.0375 C   0  0  0  0  0  0  0  0  0  0  0  0
   16.8980  -13.2677   17.1245 O   0  0  0  0  0  0  0  0  0  0  0  0
   13.2162  -15.2773   18.9508 C   0  0  0  0  0  0  0  0  0  0  0  0
   12.3924  -14.3691   19.2205 O   0  0  0  0  0  0  0  0  0  0  0  0
   17.6338  -15.0540   18.3130 O   0  0  0  0  0  0  0  0  0  0  0  0
   12.9689  -16.5622   19.4869 N   0  0  0  0  0  0  0  0  0  0  0  0
   11.7874  -16.9192   20.2434 C   0  0  1  0  0  0  0  0  0  0  0  0
   11.3482  -18.3089   19.7932 C   0  0  0  0  0  0  0  0  0  0  0  0
   10.6676  -18.2069   18.4448 C   0  0  0  0  0  0  0  0  0  0  0  0
   10.3874  -19.6314   17.9722 C   0  0  0  0  0  0  0  0  0  0  0  0
    9.8434  -19.6283   16.5559 C   0  0  0  0  0  0  0  0  0  0  0  0
    9.6262  -21.0083   16.1798 N   0  0  0  0  0  0  0  0  0  0  0  0
   12.0962  -16.8967   21.6897 C   0  0  0  0  0  0  0  0  0  0  0  0
   13.2958  -17.0243   22.0447 O   0  0  0  0  0  0  0  0  0  0  0  0
    9.8893  -15.1052   24.6682 O   0  0  0  0  0  0  0  0  0  0  0  0
   10.3414  -16.3666   24.9846 C   0  0  0  0  0  0  0  0  0  0  0  0
   11.5152  -16.7673   24.0763 C   0  0  2  0  0  0  0  0  0  0  0  0
   11.1335  -16.7413   22.6981 N   0  0  0  0  0  0  0  0  0  0  0  0
   11.9279  -18.1113   24.5351 C   0  0  0  0  0  0  0  0  0  0  0  0
   11.8033  -19.0824   23.7617 O   0  0  0  0  0  0  0  0  0  0  0  0
   12.4456  -18.3125   25.7950 O   0  0  0  0  0  0  0  0  0  0  0  0
  2  1  1  6
  2  6  1  0
  2  3  1  0
  3  4  1  0
  4  5  2  0
  4  8  1  0
  6  7  2  0
  9 10  1  0
  9  6  1  0
 10 11  1  6
 11 12  1  0
 12 13  1  0
 13 14  1  0
 15 14  1  0
 16 17  2  0
 16 10  1  0
 18 19  1  0
 20 19  1  1
 20 22  1  0
 20 21  1  0
 21 16  1  0
 22 24  1  0
 23 22  2  0
M  END
$$$$
