DKS.pdb
     RDKit          3D

 24 23  0  0  1  0  0  0  0  0999 V2000
   11.8023  -16.3284   18.0190 N   0  0  0  0  0  0  0  0  0  0  0  0
   12.1760  -16.1132   19.3807 C   0  0  1  0  0  0  0  0  0  0  0  0
   12.9592  -14.8429   19.5001 C   0  0  0  0  0  0  0  0  0  0  0  0
   14.2230  -14.9845   18.7373 C   0  0  0  0  0  0  0  0  0  0  0  0
   14.6734  -16.1021   18.3681 O   0  0  0  0  0  0  0  0  0  0  0  0
   11.0208  -16.1500   20.3109 C   0  0  0  0  0  0  0  0  0  0  0  0
   10.4288  -15.0778   20.5865 O   0  0  0  0  0  0  0  0  0  0  0  0
   14.9635  -13.8528   18.4011 O   0  0  0  0  0  0  0  0  0  0  0  0
   10.5389  -17.3347   20.9141 N   0  0  0  0  0  0  0  0  0  0  0  0
    9.4148  -17.3900   21.8246 C   0  0  1  0  0  0  0  0  0  0  0  0
    9.0660  -18.8585   22.0456 C   0  0  0  0  0  0  0  0  0  0  0  0
    7.8718  -18.9561   22.9708 C   0  0  0  0  0  0  0  0  0  0  0  0
    7.4321  -20.4180   22.9869 C   0  0  0  0  0  0  0  0  0  0  0  0
    6.0961  -20.5676   23.6901 C   0  0  0  0  0  0  0  0  0  0  0  0
    5.7165  -21.9602   23.5924 N   0  0  0  0  0  0  0  0  0  0  0  0
    9.7713  -16.7260   23.0973 C   0  0  0  0  0  0  0  0  0  0  0  0
   10.9151  -16.9330   23.5771 O   0  0  0  0  0  0  0  0  0  0  0  0
    7.0580  -14.5096   25.2485 O   0  0  0  0  0  0  0  0  0  0  0  0
    8.3739  -14.2124   25.5239 C   0  0  0  0  0  0  0  0  0  0  0  0
    9.2940  -15.3649   25.0896 C   0  0  2  0  0  0  0  0  0  0  0  0
    8.9126  -15.8753   23.8091 N   0  0  0  0  0  0  0  0  0  0  0  0
    9.1957  -16.3748   26.1656 C   0  0  0  0  0  0  0  0  0  0  0  0
    8.7378  -17.5044   25.8989 O   0  0  0  0  0  0  0  0  0  0  0  0
    9.5978  -16.0949   27.4523 O   0  0  0  0  0  0  0  0  0  0  0  0
  2  1  1  6
  2  6  1  0
  2  3  1  0
  3  4  1  0
  4  5  2  0
  4  8  1  0
  6  7  2  0
  9 10  1  0
  9  6  1  0
 10 11  1  1
 11 12  1  0
 12 13  1  0
 13 14  1  0
 15 14  1  0
 16 17  2  0
 16 10  1  0
 18 19  1  0
 20 19  1  1
 20 22  1  0
 20 21  1  0
 21 16  1  0
 22 24  1  0
 23 22  2  0
M  END
$$$$
