DKS.pdb
     RDKit          3D

 24 23  0  0  1  0  0  0  0  0999 V2000
    5.1311  -19.1802   18.2488 N   0  0  0  0  0  0  0  0  0  0  0  0
    6.3157  -19.2452   19.0442 C   0  0  1  0  0  0  0  0  0  0  0  0
    7.2894  -18.2003   18.5956 C   0  0  0  0  0  0  0  0  0  0  0  0
    7.6586  -18.4628   17.1835 C   0  0  0  0  0  0  0  0  0  0  0  0
    7.1825  -19.4249   16.5232 O   0  0  0  0  0  0  0  0  0  0  0  0
    6.0403  -19.1679   20.5001 C   0  0  0  0  0  0  0  0  0  0  0  0
    5.4593  -18.1523   20.9550 O   0  0  0  0  0  0  0  0  0  0  0  0
    8.5667  -17.6280   16.5348 O   0  0  0  0  0  0  0  0  0  0  0  0
    6.3970  -20.1816   21.4191 N   0  0  0  0  0  0  0  0  0  0  0  0
    6.0829  -20.1520   22.8320 C   0  0  1  0  0  0  0  0  0  0  0  0
    5.5795  -21.5369   23.2264 C   0  0  0  0  0  0  0  0  0  0  0  0
    4.1095  -21.6519   22.8837 C   0  0  0  0  0  0  0  0  0  0  0  0
    3.6686  -23.0651   23.2574 C   0  0  0  0  0  0  0  0  0  0  0  0
    2.2023  -23.2731   22.9281 C   0  0  0  0  0  0  0  0  0  0  0  0
    1.8897  -24.6535   23.2281 N   0  0  0  0  0  0  0  0  0  0  0  0
    7.2893  -19.7802   23.6028 C   0  0  0  0  0  0  0  0  0  0  0  0
    8.4008  -20.2291   23.2228 O   0  0  0  0  0  0  0  0  0  0  0  0
    7.1860  -16.9833   26.5831 O   0  0  0  0  0  0  0  0  0  0  0  0
    8.4148  -17.1920   25.9983 C   0  0  0  0  0  0  0  0  0  0  0  0
    8.4966  -18.6031   25.3936 C   0  0  2  0  0  0  0  0  0  0  0  0
    7.2756  -18.9547   24.7369 N   0  0  0  0  0  0  0  0  0  0  0  0
    8.8217  -19.4986   26.5248 C   0  0  0  0  0  0  0  0  0  0  0  0
    9.9054  -19.3506   27.1251 O   0  0  0  0  0  0  0  0  0  0  0  0
    7.9553  -20.4898   26.9280 O   0  0  0  0  0  0  0  0  0  0  0  0
  2  1  1  6
  2  6  1  0
  2  3  1  0
  3  4  1  0
  4  5  2  0
  4  8  1  0
  6  7  2  0
  9 10  1  0
  9  6  1  0
 10 11  1  1
 11 12  1  0
 12 13  1  0
 13 14  1  0
 15 14  1  0
 16 17  2  0
 16 10  1  0
 18 19  1  0
 20 19  1  1
 20 22  1  0
 20 21  1  0
 21 16  1  0
 22 24  1  0
 23 22  2  0
M  END
$$$$
