DKS.pdb
     RDKit          3D

 24 23  0  0  1  0  0  0  0  0999 V2000
   13.4884  -15.8348   17.7322 N   0  0  0  0  0  0  0  0  0  0  0  0
   14.2197  -15.4026   18.8805 C   0  0  1  0  0  0  0  0  0  0  0  0
   15.0490  -14.2048   18.5361 C   0  0  0  0  0  0  0  0  0  0  0  0
   16.0041  -14.5743   17.4634 C   0  0  0  0  0  0  0  0  0  0  0  0
   16.4407  -13.7414   16.6245 O   0  0  0  0  0  0  0  0  0  0  0  0
   13.3546  -15.1655   20.0623 C   0  0  0  0  0  0  0  0  0  0  0  0
   13.8800  -14.7589   21.1275 O   0  0  0  0  0  0  0  0  0  0  0  0
   16.4540  -15.8888   17.3547 O   0  0  0  0  0  0  0  0  0  0  0  0
   11.9558  -15.3721   20.0626 N   0  0  0  0  0  0  0  0  0  0  0  0
   11.0982  -15.1617   21.2097 C   0  0  1  0  0  0  0  0  0  0  0  0
    9.6626  -15.0560   20.7050 C   0  0  0  0  0  0  0  0  0  0  0  0
    9.5177  -13.8051   19.8649 C   0  0  0  0  0  0  0  0  0  0  0  0
    8.1156  -13.8273   19.2610 C   0  0  0  0  0  0  0  0  0  0  0  0
    7.9183  -12.6519   18.3222 C   0  0  0  0  0  0  0  0  0  0  0  0
    6.5849  -12.7647   17.7723 N   0  0  0  0  0  0  0  0  0  0  0  0
   11.2516  -16.2853   22.1592 C   0  0  0  0  0  0  0  0  0  0  0  0
   11.5313  -17.4212   21.6977 O   0  0  0  0  0  0  0  0  0  0  0  0
   10.2938  -15.9076   26.1103 O   0  0  0  0  0  0  0  0  0  0  0  0
   11.1841  -16.9310   25.8744 C   0  0  0  0  0  0  0  0  0  0  0  0
   11.1803  -17.3233   24.3880 C   0  0  2  0  0  0  0  0  0  0  0  0
   11.1047  -16.1673   23.5493 N   0  0  0  0  0  0  0  0  0  0  0  0
   10.0251  -18.2320   24.2230 C   0  0  0  0  0  0  0  0  0  0  0  0
    9.1060  -17.9110   23.4427 O   0  0  0  0  0  0  0  0  0  0  0  0
    9.9433  -19.4218   24.9110 O   0  0  0  0  0  0  0  0  0  0  0  0
  2  1  1  6
  2  6  1  0
  2  3  1  0
  3  4  1  0
  4  5  2  0
  4  8  1  0
  6  7  2  0
  9 10  1  0
  9  6  1  0
 10 11  1  6
 11 12  1  0
 12 13  1  0
 13 14  1  0
 15 14  1  0
 16 17  2  0
 16 10  1  0
 18 19  1  0
 20 19  1  1
 20 22  1  0
 20 21  1  0
 21 16  1  0
 22 24  1  0
 23 22  2  0
M  END
$$$$
