DKS.pdb
     RDKit          3D

 24 23  0  0  1  0  0  0  0  0999 V2000
   11.0775  -20.1342   18.5655 N   0  0  0  0  0  0  0  0  0  0  0  0
   10.9667  -18.7172   18.7075 C   0  0  1  0  0  0  0  0  0  0  0  0
   10.3889  -18.1232   17.4607 C   0  0  0  0  0  0  0  0  0  0  0  0
   11.3557  -18.3028   16.3505 C   0  0  0  0  0  0  0  0  0  0  0  0
   12.1492  -19.2801   16.2907 O   0  0  0  0  0  0  0  0  0  0  0  0
   10.2157  -18.3140   19.9217 C   0  0  0  0  0  0  0  0  0  0  0  0
   10.0977  -17.0922   20.1849 O   0  0  0  0  0  0  0  0  0  0  0  0
   11.4111  -17.3686   15.3179 O   0  0  0  0  0  0  0  0  0  0  0  0
    9.6165  -19.2339   20.8130 N   0  0  0  0  0  0  0  0  0  0  0  0
    8.8812  -18.8596   22.0025 C   0  0  1  0  0  0  0  0  0  0  0  0
    8.1228  -20.0908   22.4881 C   0  0  0  0  0  0  0  0  0  0  0  0
    6.8848  -20.2840   21.6385 C   0  0  0  0  0  0  0  0  0  0  0  0
    6.2720  -21.6256   22.0331 C   0  0  0  0  0  0  0  0  0  0  0  0
    5.0453  -21.9222   21.1909 C   0  0  0  0  0  0  0  0  0  0  0  0
    4.5025  -23.1798   21.6567 N   0  0  0  0  0  0  0  0  0  0  0  0
    9.8197  -18.3665   23.0338 C   0  0  0  0  0  0  0  0  0  0  0  0
   10.9673  -18.8778   23.0882 O   0  0  0  0  0  0  0  0  0  0  0  0
    8.9695  -15.2054   25.5824 O   0  0  0  0  0  0  0  0  0  0  0  0
   10.2940  -15.4946   25.3420 C   0  0  0  0  0  0  0  0  0  0  0  0
   10.4663  -16.9723   24.9543 C   0  0  2  0  0  0  0  0  0  0  0  0
    9.5126  -17.3598   23.9613 N   0  0  0  0  0  0  0  0  0  0  0  0
   10.3248  -17.7301   26.2164 C   0  0  0  0  0  0  0  0  0  0  0  0
    9.3654  -18.5168   26.3487 O   0  0  0  0  0  0  0  0  0  0  0  0
   11.2277  -17.5859   27.2458 O   0  0  0  0  0  0  0  0  0  0  0  0
  2  1  1  6
  2  6  1  0
  2  3  1  0
  3  4  1  0
  4  5  2  0
  4  8  1  0
  6  7  2  0
  9 10  1  0
  9  6  1  0
 10 11  1  1
 11 12  1  0
 12 13  1  0
 13 14  1  0
 15 14  1  0
 16 17  2  0
 16 10  1  0
 18 19  1  0
 20 19  1  1
 20 22  1  0
 20 21  1  0
 21 16  1  0
 22 24  1  0
 23 22  2  0
M  END
$$$$
