DKS.pdb
     RDKit          3D

 24 23  0  0  1  0  0  0  0  0999 V2000
    9.2329  -15.4665   19.3098 N   0  0  0  0  0  0  0  0  0  0  0  0
    8.5200  -14.3256   19.7897 C   0  0  1  0  0  0  0  0  0  0  0  0
    7.5740  -13.8356   18.7380 C   0  0  0  0  0  0  0  0  0  0  0  0
    8.2747  -13.8211   17.4311 C   0  0  0  0  0  0  0  0  0  0  0  0
    9.2982  -14.5190   17.2000 O   0  0  0  0  0  0  0  0  0  0  0  0
    7.8408  -14.5705   21.0858 C   0  0  0  0  0  0  0  0  0  0  0  0
    7.1545  -13.6508   21.5950 O   0  0  0  0  0  0  0  0  0  0  0  0
    7.8043  -13.0122   16.3982 O   0  0  0  0  0  0  0  0  0  0  0  0
    7.9199  -15.7928   21.7924 N   0  0  0  0  0  0  0  0  0  0  0  0
    7.3606  -16.0139   23.1093 C   0  0  1  0  0  0  0  0  0  0  0  0
    7.5391  -17.4902   23.4493 C   0  0  0  0  0  0  0  0  0  0  0  0
    7.1030  -17.7312   24.8788 C   0  0  0  0  0  0  0  0  0  0  0  0
    7.2838  -19.2208   25.1604 C   0  0  0  0  0  0  0  0  0  0  0  0
    6.9103  -19.5438   26.5950 C   0  0  0  0  0  0  0  0  0  0  0  0
    7.2156  -20.9414   26.8106 N   0  0  0  0  0  0  0  0  0  0  0  0
    8.0476  -15.1499   24.0938 C   0  0  0  0  0  0  0  0  0  0  0  0
    9.3019  -15.0743   24.0471 O   0  0  0  0  0  0  0  0  0  0  0  0
    6.0303  -12.6022   26.6619 O   0  0  0  0  0  0  0  0  0  0  0  0
    7.3091  -12.2680   26.2764 C   0  0  0  0  0  0  0  0  0  0  0  0
    8.1231  -13.5285   25.9419 C   0  0  2  0  0  0  0  0  0  0  0  0
    7.3883  -14.4044   25.0825 N   0  0  0  0  0  0  0  0  0  0  0  0
    8.4523  -14.1430   27.2463 C   0  0  0  0  0  0  0  0  0  0  0  0
    8.0772  -15.3097   27.4805 O   0  0  0  0  0  0  0  0  0  0  0  0
    9.1624  -13.4558   28.2051 O   0  0  0  0  0  0  0  0  0  0  0  0
  2  1  1  6
  2  6  1  0
  2  3  1  0
  3  4  1  0
  4  5  2  0
  4  8  1  0
  6  7  2  0
  9 10  1  0
  9  6  1  0
 10 11  1  1
 11 12  1  0
 12 13  1  0
 13 14  1  0
 15 14  1  0
 16 17  2  0
 16 10  1  0
 18 19  1  0
 20 19  1  1
 20 22  1  0
 20 21  1  0
 21 16  1  0
 22 24  1  0
 23 22  2  0
M  END
$$$$
