DKS.pdb
     RDKit          3D

 24 23  0  0  1  0  0  0  0  0999 V2000
    6.3126  -15.8889   17.6933 N   0  0  0  0  0  0  0  0  0  0  0  0
    7.3892  -15.7136   18.6155 C   0  0  1  0  0  0  0  0  0  0  0  0
    7.8819  -14.3010   18.5620 C   0  0  0  0  0  0  0  0  0  0  0  0
    8.4746  -14.0495   17.2261 C   0  0  0  0  0  0  0  0  0  0  0  0
    8.6019  -14.9533   16.3570 O   0  0  0  0  0  0  0  0  0  0  0  0
    7.0441  -16.1360   19.9953 C   0  0  0  0  0  0  0  0  0  0  0  0
    6.2684  -15.4189   20.6736 O   0  0  0  0  0  0  0  0  0  0  0  0
    8.9174  -12.7714   16.8905 O   0  0  0  0  0  0  0  0  0  0  0  0
    7.5419  -17.3125   20.6015 N   0  0  0  0  0  0  0  0  0  0  0  0
    7.1419  -17.7919   21.9075 C   0  0  1  0  0  0  0  0  0  0  0  0
    6.9116  -19.2960   21.8013 C   0  0  0  0  0  0  0  0  0  0  0  0
    6.4905  -19.8349   23.1519 C   0  0  0  0  0  0  0  0  0  0  0  0
    6.1299  -21.3058   22.9580 C   0  0  0  0  0  0  0  0  0  0  0  0
    5.5091  -21.8757   24.2197 C   0  0  0  0  0  0  0  0  0  0  0  0
    5.1649  -23.2529   23.9408 N   0  0  0  0  0  0  0  0  0  0  0  0
    8.1956  -17.4791   22.8973 C   0  0  0  0  0  0  0  0  0  0  0  0
    9.3964  -17.6364   22.5586 O   0  0  0  0  0  0  0  0  0  0  0  0
    7.5199  -15.1414   26.1358 O   0  0  0  0  0  0  0  0  0  0  0  0
    8.8165  -15.2892   25.6972 C   0  0  0  0  0  0  0  0  0  0  0  0
    9.0237  -16.6775   25.0702 C   0  0  2  0  0  0  0  0  0  0  0  0
    7.9427  -17.0159   24.1970 N   0  0  0  0  0  0  0  0  0  0  0  0
    9.1570  -17.6094   26.2109 C   0  0  0  0  0  0  0  0  0  0  0  0
    8.3050  -18.5079   26.3644 O   0  0  0  0  0  0  0  0  0  0  0  0
   10.1992  -17.5061   27.1046 O   0  0  0  0  0  0  0  0  0  0  0  0
  2  1  1  6
  2  6  1  0
  2  3  1  0
  3  4  1  0
  4  5  2  0
  4  8  1  0
  6  7  2  0
  9 10  1  0
  9  6  1  0
 10 11  1  6
 11 12  1  0
 12 13  1  0
 13 14  1  0
 15 14  1  0
 16 17  2  0
 16 10  1  0
 18 19  1  0
 20 19  1  1
 20 22  1  0
 20 21  1  0
 21 16  1  0
 22 24  1  0
 23 22  2  0
M  END
$$$$
