DKS.pdb
     RDKit          3D

 24 23  0  0  1  0  0  0  0  0999 V2000
   11.0906  -14.5364   18.3264 N   0  0  0  0  0  0  0  0  0  0  0  0
   11.4200  -15.4582   19.3666 C   0  0  1  0  0  0  0  0  0  0  0  0
   12.7063  -15.0546   20.0175 C   0  0  0  0  0  0  0  0  0  0  0  0
   13.7974  -15.1369   19.0165 C   0  0  0  0  0  0  0  0  0  0  0  0
   14.0958  -16.2071   18.4216 O   0  0  0  0  0  0  0  0  0  0  0  0
   10.3243  -15.6359   20.3510 C   0  0  0  0  0  0  0  0  0  0  0  0
    9.8286  -14.6203   20.8978 O   0  0  0  0  0  0  0  0  0  0  0  0
   14.5397  -14.0004   18.7010 O   0  0  0  0  0  0  0  0  0  0  0  0
    9.7967  -16.8961   20.7161 N   0  0  0  0  0  0  0  0  0  0  0  0
    8.7183  -17.0881   21.6626 C   0  0  1  0  0  0  0  0  0  0  0  0
    8.0939  -18.4523   21.3870 C   0  0  0  0  0  0  0  0  0  0  0  0
    6.9922  -18.7114   22.3924 C   0  0  0  0  0  0  0  0  0  0  0  0
    6.3452  -20.0429   22.0193 C   0  0  0  0  0  0  0  0  0  0  0  0
    5.2462  -20.3985   23.0031 C   0  0  0  0  0  0  0  0  0  0  0  0
    4.6474  -21.6333   22.5452 N   0  0  0  0  0  0  0  0  0  0  0  0
    9.2462  -17.0087   23.0421 C   0  0  0  0  0  0  0  0  0  0  0  0
   10.3233  -17.6031   23.3028 O   0  0  0  0  0  0  0  0  0  0  0  0
    8.1150  -14.1715   25.4830 O   0  0  0  0  0  0  0  0  0  0  0  0
    8.5746  -15.2039   26.2695 C   0  0  0  0  0  0  0  0  0  0  0  0
    9.1781  -16.3209   25.4027 C   0  0  2  0  0  0  0  0  0  0  0  0
    8.6209  -16.3099   24.0854 N   0  0  0  0  0  0  0  0  0  0  0  0
    8.9061  -17.5777   26.1334 C   0  0  0  0  0  0  0  0  0  0  0  0
    8.2663  -18.4852   25.5644 O   0  0  0  0  0  0  0  0  0  0  0  0
    9.3431  -17.7663   27.4253 O   0  0  0  0  0  0  0  0  0  0  0  0
  2  1  1  6
  2  6  1  0
  2  3  1  0
  3  4  1  0
  4  5  2  0
  4  8  1  0
  6  7  2  0
  9 10  1  0
  9  6  1  0
 10 11  1  6
 11 12  1  0
 12 13  1  0
 13 14  1  0
 15 14  1  0
 16 17  2  0
 16 10  1  0
 18 19  1  0
 20 19  1  1
 20 22  1  0
 20 21  1  0
 21 16  1  0
 22 24  1  0
 23 22  2  0
M  END
$$$$
