DKS.pdb
     RDKit          3D

 24 23  0  0  1  0  0  0  0  0999 V2000
   14.0102  -16.5937   18.8614 N   0  0  0  0  0  0  0  0  0  0  0  0
   13.6551  -15.5609   19.7819 C   0  0  1  0  0  0  0  0  0  0  0  0
   13.4778  -14.2659   19.0521 C   0  0  0  0  0  0  0  0  0  0  0  0
   14.7833  -13.8530   18.4826 C   0  0  0  0  0  0  0  0  0  0  0  0
   15.8353  -14.5309   18.6309 O   0  0  0  0  0  0  0  0  0  0  0  0
   12.4733  -15.9050   20.6102 C   0  0  0  0  0  0  0  0  0  0  0  0
   11.6994  -14.9863   20.9751 O   0  0  0  0  0  0  0  0  0  0  0  0
   14.8805  -12.6719   17.7492 O   0  0  0  0  0  0  0  0  0  0  0  0
   12.1608  -17.2219   21.0196 N   0  0  0  0  0  0  0  0  0  0  0  0
   11.0328  -17.5722   21.8565 C   0  0  1  0  0  0  0  0  0  0  0  0
   10.8021  -19.0741   21.7228 C   0  0  0  0  0  0  0  0  0  0  0  0
   10.2539  -19.3759   20.3443 C   0  0  0  0  0  0  0  0  0  0  0  0
   10.1538  -20.8944   20.2214 C   0  0  0  0  0  0  0  0  0  0  0  0
    9.4908  -21.2832   18.9132 C   0  0  0  0  0  0  0  0  0  0  0  0
    9.4033  -22.7271   18.8923 N   0  0  0  0  0  0  0  0  0  0  0  0
   11.3167  -17.1960   23.2585 C   0  0  0  0  0  0  0  0  0  0  0  0
   12.5179  -17.1179   23.6227 O   0  0  0  0  0  0  0  0  0  0  0  0
    9.1117  -14.8883   25.7081 O   0  0  0  0  0  0  0  0  0  0  0  0
    9.5334  -16.0293   26.3532 C   0  0  0  0  0  0  0  0  0  0  0  0
   10.6843  -16.6960   25.5823 C   0  0  2  0  0  0  0  0  0  0  0  0
   10.3288  -16.9187   24.2150 N   0  0  0  0  0  0  0  0  0  0  0  0
   10.9756  -17.9480   26.3137 C   0  0  0  0  0  0  0  0  0  0  0  0
   10.8364  -19.0407   25.7277 O   0  0  0  0  0  0  0  0  0  0  0  0
   11.3963  -17.9327   27.6246 O   0  0  0  0  0  0  0  0  0  0  0  0
  2  1  1  6
  2  6  1  0
  2  3  1  0
  3  4  1  0
  4  5  2  0
  4  8  1  0
  6  7  2  0
  9 10  1  0
  9  6  1  0
 10 11  1  1
 11 12  1  0
 12 13  1  0
 13 14  1  0
 15 14  1  0
 16 17  2  0
 16 10  1  0
 18 19  1  0
 20 19  1  1
 20 22  1  0
 20 21  1  0
 21 16  1  0
 22 24  1  0
 23 22  2  0
M  END
$$$$
