DKS.pdb
     RDKit          3D

 24 23  0  0  1  0  0  0  0  0999 V2000
    8.1963  -16.4140   18.4934 N   0  0  0  0  0  0  0  0  0  0  0  0
    7.8038  -16.9523   19.7569 C   0  0  1  0  0  0  0  0  0  0  0  0
    8.0360  -18.4311   19.7757 C   0  0  0  0  0  0  0  0  0  0  0  0
    7.1932  -19.0629   18.7317 C   0  0  0  0  0  0  0  0  0  0  0  0
    7.6685  -19.5181   17.6569 O   0  0  0  0  0  0  0  0  0  0  0  0
    8.4499  -16.2678   20.9037 C   0  0  0  0  0  0  0  0  0  0  0  0
    9.6945  -16.1037   20.8899 O   0  0  0  0  0  0  0  0  0  0  0  0
    5.8166  -19.1711   18.9198 O   0  0  0  0  0  0  0  0  0  0  0  0
    7.7405  -15.7824   22.0264 N   0  0  0  0  0  0  0  0  0  0  0  0
    8.3405  -15.0389   23.1141 C   0  0  1  0  0  0  0  0  0  0  0  0
    7.2195  -14.3313   23.8688 C   0  0  0  0  0  0  0  0  0  0  0  0
    7.8005  -13.6046   25.0630 C   0  0  0  0  0  0  0  0  0  0  0  0
    6.6468  -12.8866   25.7590 C   0  0  0  0  0  0  0  0  0  0  0  0
    7.1380  -12.1574   26.9955 C   0  0  0  0  0  0  0  0  0  0  0  0
    6.0095  -11.4348   27.5407 N   0  0  0  0  0  0  0  0  0  0  0  0
    9.0830  -15.9626   23.9991 C   0  0  0  0  0  0  0  0  0  0  0  0
    8.4776  -16.9662   24.4550 O   0  0  0  0  0  0  0  0  0  0  0  0
   13.3226  -17.7410   25.4317 O   0  0  0  0  0  0  0  0  0  0  0  0
   12.6532  -16.6892   24.8474 C   0  0  0  0  0  0  0  0  0  0  0  0
   11.1347  -16.8401   25.0336 C   0  0  2  0  0  0  0  0  0  0  0  0
   10.4262  -15.7924   24.3658 N   0  0  0  0  0  0  0  0  0  0  0  0
   10.9153  -16.8436   26.4962 C   0  0  0  0  0  0  0  0  0  0  0  0
   10.3076  -15.8889   27.0218 O   0  0  0  0  0  0  0  0  0  0  0  0
   11.3665  -17.8758   27.2877 O   0  0  0  0  0  0  0  0  0  0  0  0
  2  1  1  6
  2  6  1  0
  2  3  1  0
  3  4  1  0
  4  5  2  0
  4  8  1  0
  6  7  2  0
  9 10  1  0
  9  6  1  0
 10 11  1  1
 11 12  1  0
 12 13  1  0
 13 14  1  0
 15 14  1  0
 16 17  2  0
 16 10  1  0
 18 19  1  0
 20 19  1  1
 20 22  1  0
 20 21  1  0
 21 16  1  0
 22 24  1  0
 23 22  2  0
M  END
$$$$
