DKS.pdb
     RDKit          3D

 24 23  0  0  1  0  0  0  0  0999 V2000
   12.0121  -19.3502   17.4509 N   0  0  0  0  0  0  0  0  0  0  0  0
   12.8623  -18.5346   18.2584 C   0  0  1  0  0  0  0  0  0  0  0  0
   13.4600  -17.4420   17.4277 C   0  0  0  0  0  0  0  0  0  0  0  0
   14.3963  -18.0421   16.4467 C   0  0  0  0  0  0  0  0  0  0  0  0
   14.3005  -19.2370   16.0576 O   0  0  0  0  0  0  0  0  0  0  0  0
   12.1830  -18.0117   19.4693 C   0  0  0  0  0  0  0  0  0  0  0  0
   12.7793  -17.1689   20.1837 O   0  0  0  0  0  0  0  0  0  0  0  0
   15.4337  -17.2772   15.9168 O   0  0  0  0  0  0  0  0  0  0  0  0
   10.8878  -18.4096   19.8738 N   0  0  0  0  0  0  0  0  0  0  0  0
   10.2125  -17.9166   21.0555 C   0  0  1  0  0  0  0  0  0  0  0  0
    8.7724  -18.4176   21.0123 C   0  0  0  0  0  0  0  0  0  0  0  0
    8.1633  -18.0763   19.6691 C   0  0  0  0  0  0  0  0  0  0  0  0
    6.8441  -18.8378   19.5655 C   0  0  0  0  0  0  0  0  0  0  0  0
    6.1199  -18.4820   18.2807 C   0  0  0  0  0  0  0  0  0  0  0  0
    4.9288  -19.3011   18.2219 N   0  0  0  0  0  0  0  0  0  0  0  0
   10.9119  -18.3984   22.2665 C   0  0  0  0  0  0  0  0  0  0  0  0
   11.1077  -19.6345   22.3891 O   0  0  0  0  0  0  0  0  0  0  0  0
   13.5461  -16.2694   24.3592 O   0  0  0  0  0  0  0  0  0  0  0  0
   13.4706  -17.6297   24.5573 C   0  0  0  0  0  0  0  0  0  0  0  0
   12.0163  -18.1156   24.4460 C   0  0  2  0  0  0  0  0  0  0  0  0
   11.3742  -17.5625   23.2939 N   0  0  0  0  0  0  0  0  0  0  0  0
   11.3689  -17.7162   25.7144 C   0  0  0  0  0  0  0  0  0  0  0  0
   10.3871  -16.9470   25.6797 O   0  0  0  0  0  0  0  0  0  0  0  0
   11.8263  -18.1744   26.9295 O   0  0  0  0  0  0  0  0  0  0  0  0
  2  1  1  6
  2  6  1  0
  2  3  1  0
  3  4  1  0
  4  5  2  0
  4  8  1  0
  6  7  2  0
  9 10  1  0
  9  6  1  0
 10 11  1  1
 11 12  1  0
 12 13  1  0
 13 14  1  0
 15 14  1  0
 16 17  2  0
 16 10  1  0
 18 19  1  0
 20 19  1  1
 20 22  1  0
 20 21  1  0
 21 16  1  0
 22 24  1  0
 23 22  2  0
M  END
$$$$
