DKS.pdb
     RDKit          3D

 24 23  0  0  1  0  0  0  0  0999 V2000
    9.6458  -19.5224   19.6256 N   0  0  0  0  0  0  0  0  0  0  0  0
   10.4510  -18.7937   20.5535 C   0  0  1  0  0  0  0  0  0  0  0  0
   10.7702  -17.4403   19.9989 C   0  0  0  0  0  0  0  0  0  0  0  0
   11.7328  -17.5942   18.8813 C   0  0  0  0  0  0  0  0  0  0  0  0
   11.6091  -18.4804   17.9939 O   0  0  0  0  0  0  0  0  0  0  0  0
    9.8491  -18.7180   21.9075 C   0  0  0  0  0  0  0  0  0  0  0  0
   10.2219  -17.8078   22.6875 O   0  0  0  0  0  0  0  0  0  0  0  0
   12.8281  -16.7381   18.7833 O   0  0  0  0  0  0  0  0  0  0  0  0
    8.8681  -19.6203   22.3797 N   0  0  0  0  0  0  0  0  0  0  0  0
    8.1628  -19.4778   23.6358 C   0  0  1  0  0  0  0  0  0  0  0  0
    7.0184  -20.4863   23.6445 C   0  0  0  0  0  0  0  0  0  0  0  0
    5.9984  -20.0958   22.5963 C   0  0  0  0  0  0  0  0  0  0  0  0
    4.8996  -21.1555   22.6194 C   0  0  0  0  0  0  0  0  0  0  0  0
    3.8442  -20.8554   21.5715 C   0  0  0  0  0  0  0  0  0  0  0  0
    2.7975  -21.8421   21.7260 N   0  0  0  0  0  0  0  0  0  0  0  0
    9.0945  -19.7141   24.7600 C   0  0  0  0  0  0  0  0  0  0  0  0
    9.9976  -20.5770   24.6138 O   0  0  0  0  0  0  0  0  0  0  0  0
    9.0967  -17.3307   28.0509 O   0  0  0  0  0  0  0  0  0  0  0  0
   10.2703  -18.0196   27.8420 C   0  0  0  0  0  0  0  0  0  0  0  0
   10.0185  -19.2795   26.9977 C   0  0  2  0  0  0  0  0  0  0  0  0
    9.0372  -19.0351   25.9862 N   0  0  0  0  0  0  0  0  0  0  0  0
    9.6063  -20.3236   27.9607 C   0  0  0  0  0  0  0  0  0  0  0  0
   10.3820  -20.6369   28.8864 O   0  0  0  0  0  0  0  0  0  0  0  0
    8.3875  -20.9555   27.8569 O   0  0  0  0  0  0  0  0  0  0  0  0
  2  1  1  6
  2  6  1  0
  2  3  1  0
  3  4  1  0
  4  5  2  0
  4  8  1  0
  6  7  2  0
  9 10  1  0
  9  6  1  0
 10 11  1  6
 11 12  1  0
 12 13  1  0
 13 14  1  0
 15 14  1  0
 16 17  2  0
 16 10  1  0
 18 19  1  0
 20 19  1  1
 20 22  1  0
 20 21  1  0
 21 16  1  0
 22 24  1  0
 23 22  2  0
M  END
$$$$
