DKS.pdb
     RDKit          3D

 24 23  0  0  1  0  0  0  0  0999 V2000
   11.7276  -16.5787   15.6603 N   0  0  0  0  0  0  0  0  0  0  0  0
   12.4139  -17.3152   16.6735 C   0  0  1  0  0  0  0  0  0  0  0  0
   13.7791  -17.6958   16.1911 C   0  0  0  0  0  0  0  0  0  0  0  0
   13.6429  -18.5227   14.9677 C   0  0  0  0  0  0  0  0  0  0  0  0
   12.5987  -19.1758   14.7006 O   0  0  0  0  0  0  0  0  0  0  0  0
   12.4561  -16.6066   17.9763 C   0  0  0  0  0  0  0  0  0  0  0  0
   13.5641  -16.2179   18.4204 O   0  0  0  0  0  0  0  0  0  0  0  0
   14.6964  -18.5993   14.0586 O   0  0  0  0  0  0  0  0  0  0  0  0
   11.3094  -16.3385   18.7591 N   0  0  0  0  0  0  0  0  0  0  0  0
   11.3271  -15.6230   20.0174 C   0  0  1  0  0  0  0  0  0  0  0  0
    9.9051  -15.1521   20.3056 C   0  0  0  0  0  0  0  0  0  0  0  0
    9.5507  -14.0224   19.3623 C   0  0  0  0  0  0  0  0  0  0  0  0
    8.0695  -13.7129   19.5658 C   0  0  0  0  0  0  0  0  0  0  0  0
    7.6485  -12.5282   18.7166 C   0  0  0  0  0  0  0  0  0  0  0  0
    6.2487  -12.2845   18.9891 N   0  0  0  0  0  0  0  0  0  0  0  0
   11.8252  -16.5123   21.0892 C   0  0  0  0  0  0  0  0  0  0  0  0
   11.4340  -17.7074   21.1014 O   0  0  0  0  0  0  0  0  0  0  0  0
   14.9871  -15.5748   23.5524 O   0  0  0  0  0  0  0  0  0  0  0  0
   14.6407  -16.8966   23.3837 C   0  0  0  0  0  0  0  0  0  0  0  0
   13.1350  -17.0329   23.1050 C   0  0  2  0  0  0  0  0  0  0  0  0
   12.7106  -16.1085   22.0995 N   0  0  0  0  0  0  0  0  0  0  0  0
   12.4712  -16.8125   24.4081 C   0  0  0  0  0  0  0  0  0  0  0  0
   11.6351  -15.8927   24.5164 O   0  0  0  0  0  0  0  0  0  0  0  0
   12.7561  -17.5994   25.5014 O   0  0  0  0  0  0  0  0  0  0  0  0
  2  1  1  6
  2  6  1  0
  2  3  1  0
  3  4  1  0
  4  5  2  0
  4  8  1  0
  6  7  2  0
  9 10  1  0
  9  6  1  0
 10 11  1  1
 11 12  1  0
 12 13  1  0
 13 14  1  0
 15 14  1  0
 16 17  2  0
 16 10  1  0
 18 19  1  0
 20 19  1  1
 20 22  1  0
 20 21  1  0
 21 16  1  0
 22 24  1  0
 23 22  2  0
M  END
$$$$
