LMQ.pdb
     RDKit          3D

 26 25  0  0  1  0  0  0  0  0999 V2000
   15.3989  -13.2101  -18.5096 C   0  0  0  0  0  0  0  0  0  0  0  0
   16.7402  -12.5902  -18.7790 C   0  0  1  0  0  0  0  0  0  0  0  0
   16.7728  -12.0899  -20.1896 C   0  0  0  0  0  0  0  0  0  0  0  0
   16.9755  -11.4462  -17.8161 C   0  0  0  0  0  0  0  0  0  0  0  0
   18.2687  -10.7420  -18.0724 C   0  0  2  0  0  0  0  0  0  0  0  0
   19.3631  -11.6612  -17.9863 N   0  0  0  0  0  0  0  0  0  0  0  0
   18.4016   -9.6598  -17.0483 C   0  0  0  0  0  0  0  0  0  0  0  0
   17.4675   -8.8407  -16.8628 O   0  0  0  0  0  0  0  0  0  0  0  0
   23.1187   -9.9171  -12.6552 C   0  0  0  0  0  0  0  0  0  0  0  0
   21.7173   -9.2025  -11.7654 S   0  0  0  0  0  0  0  0  0  0  0  0
   20.7623   -8.2065  -12.9793 C   0  0  0  0  0  0  0  0  0  0  0  0
   20.5438   -9.0941  -14.1633 C   0  0  0  0  0  0  0  0  0  0  0  0
   19.6513   -8.5401  -15.2159 C   0  0  2  0  0  0  0  0  0  0  0  0
   19.5732   -9.5484  -16.2831 N   0  0  0  0  0  0  0  0  0  0  0  0
   20.1586   -7.3111  -15.8766 C   0  0  0  0  0  0  0  0  0  0  0  0
   20.8104   -7.4829  -16.9347 O   0  0  0  0  0  0  0  0  0  0  0  0
   18.8318   -5.4091  -20.2996 N   0  0  0  0  0  0  0  0  0  0  0  0
   19.3414   -4.1075  -19.9438 C   0  0  0  0  0  0  0  0  0  0  0  0
   19.3050   -3.2417  -20.8161 O   0  0  0  0  0  0  0  0  0  0  0  0
   19.8565   -3.9302  -18.5815 C   0  0  0  0  0  0  0  0  0  0  0  0
   19.7794   -5.0609  -17.6432 C   0  0  0  0  0  0  0  0  0  0  0  0
   20.1909   -4.8483  -16.2284 C   0  0  2  0  0  0  0  0  0  0  0  0
   19.9611   -6.0152  -15.4068 N   0  0  0  0  0  0  0  0  0  0  0  0
   19.8259   -3.5740  -15.6093 C   0  0  0  0  0  0  0  0  0  0  0  0
   18.7967   -3.4940  -14.6605 O   0  0  0  0  0  0  0  0  0  0  0  0
   20.3869   -2.4606  -15.8703 O   0  0  0  0  0  0  0  0  0  0  0  0
  2  3  1  6
  2  1  1  0
  4  5  1  0
  4  2  1  0
  5  7  1  0
  5  6  1  1
  7  8  2  0
  9 10  1  0
 10 11  1  0
 12 11  1  0
 13 12  1  1
 13 14  1  0
 14  7  1  0
 15 13  1  0
 16 15  2  0
 17 18  1  0
 18 20  1  0
 18 19  2  0
 20 21  1  0
 22 21  1  6
 22 23  1  0
 22 24  1  0
 23 15  1  0
 24 25  1  0
 26 24  2  0
M  END
$$$$
