LMQ.pdb
     RDKit          3D

 26 25  0  0  1  0  0  0  0  0999 V2000
   27.9010  -16.7005  -15.1456 C   0  0  0  0  0  0  0  0  0  0  0  0
   27.1474  -17.2750  -16.3109 C   0  0  1  0  0  0  0  0  0  0  0  0
   28.0679  -17.3736  -17.4874 C   0  0  0  0  0  0  0  0  0  0  0  0
   26.6174  -18.6459  -15.9491 C   0  0  0  0  0  0  0  0  0  0  0  0
   27.5981  -19.4444  -15.1526 C   0  0  2  0  0  0  0  0  0  0  0  0
   28.4263  -20.2267  -16.0199 N   0  0  0  0  0  0  0  0  0  0  0  0
   26.8166  -20.3233  -14.2284 C   0  0  0  0  0  0  0  0  0  0  0  0
   26.4193  -21.4528  -14.6080 O   0  0  0  0  0  0  0  0  0  0  0  0
   27.5841  -20.1803   -8.1359 C   0  0  0  0  0  0  0  0  0  0  0  0
   25.7903  -20.3387   -7.9822 S   0  0  0  0  0  0  0  0  0  0  0  0
   25.1680  -20.9743   -9.5905 C   0  0  0  0  0  0  0  0  0  0  0  0
   25.9816  -20.2967  -10.6470 C   0  0  0  0  0  0  0  0  0  0  0  0
   25.7296  -20.7601  -12.0372 C   0  0  2  0  0  0  0  0  0  0  0  0
   26.5185  -19.8940  -12.9255 N   0  0  0  0  0  0  0  0  0  0  0  0
   24.3251  -20.6135  -12.4958 C   0  0  0  0  0  0  0  0  0  0  0  0
   23.9440  -19.4432  -12.7393 O   0  0  0  0  0  0  0  0  0  0  0  0
   18.6220  -23.1117  -16.3829 N   0  0  0  0  0  0  0  0  0  0  0  0
   19.9122  -23.3007  -15.7664 C   0  0  0  0  0  0  0  0  0  0  0  0
   20.5981  -24.2283  -16.1919 O   0  0  0  0  0  0  0  0  0  0  0  0
   20.2920  -22.3770  -14.6917 C   0  0  0  0  0  0  0  0  0  0  0  0
   21.6535  -22.4557  -14.1394 C   0  0  0  0  0  0  0  0  0  0  0  0
   22.0689  -21.4626  -13.1110 C   0  0  2  0  0  0  0  0  0  0  0  0
   23.4294  -21.6658  -12.6672 N   0  0  0  0  0  0  0  0  0  0  0  0
   21.1103  -21.1584  -12.0485 C   0  0  0  0  0  0  0  0  0  0  0  0
   19.9184  -20.4710  -12.3182 O   0  0  0  0  0  0  0  0  0  0  0  0
   21.2683  -21.4750  -10.8249 O   0  0  0  0  0  0  0  0  0  0  0  0
  2  3  1  6
  2  1  1  0
  4  5  1  0
  4  2  1  0
  5  7  1  0
  5  6  1  6
  7  8  2  0
  9 10  1  0
 10 11  1  0
 12 11  1  0
 13 12  1  1
 13 14  1  0
 14  7  1  0
 15 13  1  0
 16 15  2  0
 17 18  1  0
 18 20  1  0
 18 19  2  0
 20 21  1  0
 22 21  1  1
 22 23  1  0
 22 24  1  0
 23 15  1  0
 24 25  1  0
 26 24  2  0
M  END
$$$$
