LMQ.pdb
     RDKit          3D

 26 25  0  0  1  0  0  0  0  0999 V2000
   26.5919  -17.2717  -17.1530 C   0  0  0  0  0  0  0  0  0  0  0  0
   27.4743  -18.2916  -16.4918 C   0  0  1  0  0  0  0  0  0  0  0  0
   28.4483  -17.5891  -15.5981 C   0  0  0  0  0  0  0  0  0  0  0  0
   26.6271  -19.2518  -15.6846 C   0  0  0  0  0  0  0  0  0  0  0  0
   27.4528  -20.2021  -14.8791 C   0  0  2  0  0  0  0  0  0  0  0  0
   28.0018  -21.2227  -15.7198 N   0  0  0  0  0  0  0  0  0  0  0  0
   26.5628  -20.7960  -13.8338 C   0  0  0  0  0  0  0  0  0  0  0  0
   25.8592  -21.8034  -14.0943 O   0  0  0  0  0  0  0  0  0  0  0  0
   27.8010  -20.1582   -7.8205 C   0  0  0  0  0  0  0  0  0  0  0  0
   26.0138  -20.0878   -7.5612 S   0  0  0  0  0  0  0  0  0  0  0  0
   25.2255  -20.7997   -9.0610 C   0  0  0  0  0  0  0  0  0  0  0  0
   26.0213  -20.3000  -10.2247 C   0  0  0  0  0  0  0  0  0  0  0  0
   25.5683  -20.7806  -11.5570 C   0  0  2  0  0  0  0  0  0  0  0  0
   26.5046  -20.2328  -12.5493 N   0  0  0  0  0  0  0  0  0  0  0  0
   24.2295  -20.2907  -11.9716 C   0  0  0  0  0  0  0  0  0  0  0  0
   24.1965  -19.1487  -12.4900 O   0  0  0  0  0  0  0  0  0  0  0  0
   23.1314  -21.4259  -16.3147 N   0  0  0  0  0  0  0  0  0  0  0  0
   22.0621  -21.9812  -15.5219 C   0  0  0  0  0  0  0  0  0  0  0  0
   21.9380  -23.2044  -15.5396 O   0  0  0  0  0  0  0  0  0  0  0  0
   21.2201  -21.0453  -14.7686 C   0  0  0  0  0  0  0  0  0  0  0  0
   21.8560  -20.1584  -13.7817 C   0  0  0  0  0  0  0  0  0  0  0  0
   21.7794  -20.5186  -12.3393 C   0  0  2  0  0  0  0  0  0  0  0  0
   23.0409  -21.0011  -11.8244 N   0  0  0  0  0  0  0  0  0  0  0  0
   20.6034  -21.2688  -11.8981 C   0  0  0  0  0  0  0  0  0  0  0  0
   20.7251  -22.3872  -11.0613 O   0  0  0  0  0  0  0  0  0  0  0  0
   19.4054  -20.9869  -12.2265 O   0  0  0  0  0  0  0  0  0  0  0  0
  2  3  1  1
  2  1  1  0
  4  5  1  0
  4  2  1  0
  5  7  1  0
  5  6  1  6
  7  8  2  0
  9 10  1  0
 10 11  1  0
 12 11  1  0
 13 12  1  1
 13 14  1  0
 14  7  1  0
 15 13  1  0
 16 15  2  0
 17 18  1  0
 18 20  1  0
 18 19  2  0
 20 21  1  0
 22 21  1  6
 22 23  1  0
 22 24  1  0
 23 15  1  0
 24 25  1  0
 26 24  2  0
M  END
$$$$
