LMQ.pdb
     RDKit          3D

 26 25  0  0  1  0  0  0  0  0999 V2000
   27.3331  -17.3010  -17.3546 C   0  0  0  0  0  0  0  0  0  0  0  0
   28.0891  -18.3613  -16.6060 C   0  0  1  0  0  0  0  0  0  0  0  0
   29.0447  -17.7040  -15.6596 C   0  0  0  0  0  0  0  0  0  0  0  0
   27.1184  -19.2353  -15.8411 C   0  0  0  0  0  0  0  0  0  0  0  0
   27.8089  -20.3064  -15.0602 C   0  0  2  0  0  0  0  0  0  0  0  0
   28.3819  -21.2771  -15.9431 N   0  0  0  0  0  0  0  0  0  0  0  0
   26.7901  -20.9376  -14.1652 C   0  0  0  0  0  0  0  0  0  0  0  0
   26.0216  -21.8288  -14.6044 O   0  0  0  0  0  0  0  0  0  0  0  0
   25.7352  -19.1656   -7.7066 C   0  0  0  0  0  0  0  0  0  0  0  0
   25.8656  -20.9585   -7.8928 S   0  0  0  0  0  0  0  0  0  0  0  0
   25.1131  -21.3858   -9.5142 C   0  0  0  0  0  0  0  0  0  0  0  0
   26.0538  -20.8704  -10.5566 C   0  0  0  0  0  0  0  0  0  0  0  0
   25.6614  -21.1550  -11.9624 C   0  0  2  0  0  0  0  0  0  0  0  0
   26.6821  -20.5397  -12.8233 N   0  0  0  0  0  0  0  0  0  0  0  0
   24.3756  -20.5442  -12.3841 C   0  0  0  0  0  0  0  0  0  0  0  0
   24.4601  -19.4729  -13.0315 O   0  0  0  0  0  0  0  0  0  0  0  0
   23.1267  -21.2955  -17.1699 N   0  0  0  0  0  0  0  0  0  0  0  0
   21.7385  -21.0291  -16.8828 C   0  0  0  0  0  0  0  0  0  0  0  0
   20.9816  -20.9384  -17.8475 O   0  0  0  0  0  0  0  0  0  0  0  0
   21.3521  -20.8896  -15.4744 C   0  0  0  0  0  0  0  0  0  0  0  0
   22.3841  -21.0515  -14.4382 C   0  0  0  0  0  0  0  0  0  0  0  0
   21.9945  -20.9054  -13.0088 C   0  0  2  0  0  0  0  0  0  0  0  0
   23.1161  -21.0726  -12.1125 N   0  0  0  0  0  0  0  0  0  0  0  0
   20.7580  -21.5604  -12.5816 C   0  0  0  0  0  0  0  0  0  0  0  0
   19.5464  -21.3354  -13.2504 O   0  0  0  0  0  0  0  0  0  0  0  0
   20.6723  -22.3622  -11.5956 O   0  0  0  0  0  0  0  0  0  0  0  0
  2  3  1  1
  2  1  1  0
  4  5  1  0
  4  2  1  0
  5  7  1  0
  5  6  1  6
  7  8  2  0
  9 10  1  0
 10 11  1  0
 12 11  1  0
 13 12  1  1
 13 14  1  0
 14  7  1  0
 15 13  1  0
 16 15  2  0
 17 18  1  0
 18 20  1  0
 18 19  2  0
 20 21  1  0
 22 21  1  6
 22 23  1  0
 22 24  1  0
 23 15  1  0
 24 25  1  0
 26 24  2  0
M  END
$$$$
