LMQ.pdb
     RDKit          3D

 26 25  0  0  1  0  0  0  0  0999 V2000
   29.5651  -21.7105  -16.7611 C   0  0  0  0  0  0  0  0  0  0  0  0
   28.8627  -20.5754  -16.0724 C   0  0  1  0  0  0  0  0  0  0  0  0
   28.0934  -19.7890  -17.0875 C   0  0  0  0  0  0  0  0  0  0  0  0
   27.9243  -21.1217  -15.0178 C   0  0  0  0  0  0  0  0  0  0  0  0
   27.1183  -20.0483  -14.3605 C   0  0  2  0  0  0  0  0  0  0  0  0
   27.9789  -19.0889  -13.7370 N   0  0  0  0  0  0  0  0  0  0  0  0
   26.2342  -20.7060  -13.3490 C   0  0  0  0  0  0  0  0  0  0  0  0
   25.5382  -21.7030  -13.6641 O   0  0  0  0  0  0  0  0  0  0  0  0
   28.3287  -20.7523   -6.6601 C   0  0  0  0  0  0  0  0  0  0  0  0
   26.9383  -19.9664   -7.5060 S   0  0  0  0  0  0  0  0  0  0  0  0
   26.6471  -20.9136   -9.0538 C   0  0  0  0  0  0  0  0  0  0  0  0
   25.5161  -20.2284   -9.7527 C   0  0  0  0  0  0  0  0  0  0  0  0
   25.1827  -20.7656  -11.0986 C   0  0  2  0  0  0  0  0  0  0  0  0
   26.1731  -20.2150  -12.0353 N   0  0  0  0  0  0  0  0  0  0  0  0
   23.8638  -20.3373  -11.6290 C   0  0  0  0  0  0  0  0  0  0  0  0
   23.7931  -19.1547  -12.0418 O   0  0  0  0  0  0  0  0  0  0  0  0
   20.9650  -21.9399  -16.4018 N   0  0  0  0  0  0  0  0  0  0  0  0
   20.8938  -22.9608  -15.3855 C   0  0  0  0  0  0  0  0  0  0  0  0
   20.7194  -24.1150  -15.7719 O   0  0  0  0  0  0  0  0  0  0  0  0
   21.0338  -22.5371  -13.9879 C   0  0  0  0  0  0  0  0  0  0  0  0
   21.3506  -21.1286  -13.7039 C   0  0  0  0  0  0  0  0  0  0  0  0
   21.4912  -20.6967  -12.2862 C   0  0  2  0  0  0  0  0  0  0  0  0
   22.7314  -21.1451  -11.6943 N   0  0  0  0  0  0  0  0  0  0  0  0
   20.3137  -20.8251  -11.4274 C   0  0  0  0  0  0  0  0  0  0  0  0
   20.3771  -21.5028  -10.2016 O   0  0  0  0  0  0  0  0  0  0  0  0
   19.1641  -20.3537  -11.7076 O   0  0  0  0  0  0  0  0  0  0  0  0
  2  3  1  6
  2  1  1  0
  4  5  1  0
  4  2  1  0
  5  7  1  0
  5  6  1  1
  7  8  2  0
  9 10  1  0
 10 11  1  0
 12 11  1  0
 13 12  1  1
 13 14  1  0
 14  7  1  0
 15 13  1  0
 16 15  2  0
 17 18  1  0
 18 20  1  0
 18 19  2  0
 20 21  1  0
 22 21  1  6
 22 23  1  0
 22 24  1  0
 23 15  1  0
 24 25  1  0
 26 24  2  0
M  END
$$$$
