LMQ.pdb
     RDKit          3D

 26 25  0  0  1  0  0  0  0  0999 V2000
   26.4047  -20.4137  -20.1276 C   0  0  0  0  0  0  0  0  0  0  0  0
   26.0042  -19.5261  -18.9840 C   0  0  1  0  0  0  0  0  0  0  0  0
   24.8848  -18.6355  -19.4255 C   0  0  0  0  0  0  0  0  0  0  0  0
   25.5618  -20.3745  -17.8111 C   0  0  0  0  0  0  0  0  0  0  0  0
   25.0456  -19.5519  -16.6750 C   0  0  2  0  0  0  0  0  0  0  0  0
   26.0791  -18.7037  -16.1628 N   0  0  0  0  0  0  0  0  0  0  0  0
   24.5614  -20.4960  -15.6206 C   0  0  0  0  0  0  0  0  0  0  0  0
   23.9219  -21.5299  -15.9366 O   0  0  0  0  0  0  0  0  0  0  0  0
   25.6774  -19.4335   -9.2054 C   0  0  0  0  0  0  0  0  0  0  0  0
   25.7810  -21.2221   -9.4434 S   0  0  0  0  0  0  0  0  0  0  0  0
   24.6088  -21.6527  -10.7919 C   0  0  0  0  0  0  0  0  0  0  0  0
   25.0769  -20.9082  -12.0017 C   0  0  0  0  0  0  0  0  0  0  0  0
   24.2834  -21.1418  -13.2375 C   0  0  2  0  0  0  0  0  0  0  0  0
   24.8170  -20.2357  -14.2650 N   0  0  0  0  0  0  0  0  0  0  0  0
   22.8432  -20.7992  -13.1248 C   0  0  0  0  0  0  0  0  0  0  0  0
   22.5138  -19.6601  -13.5346 O   0  0  0  0  0  0  0  0  0  0  0  0
   20.9470  -19.8173  -16.7609 N   0  0  0  0  0  0  0  0  0  0  0  0
   19.6544  -19.6115  -16.1549 C   0  0  0  0  0  0  0  0  0  0  0  0
   18.9232  -18.7752  -16.6819 O   0  0  0  0  0  0  0  0  0  0  0  0
   19.3261  -20.4115  -14.9697 C   0  0  0  0  0  0  0  0  0  0  0  0
   20.3163  -21.3801  -14.4734 C   0  0  0  0  0  0  0  0  0  0  0  0
   20.4755  -21.5538  -13.0035 C   0  0  2  0  0  0  0  0  0  0  0  0
   21.8626  -21.6410  -12.6063 N   0  0  0  0  0  0  0  0  0  0  0  0
   19.5813  -22.5033  -12.3408 C   0  0  0  0  0  0  0  0  0  0  0  0
   18.2081  -22.2473  -12.2197 O   0  0  0  0  0  0  0  0  0  0  0  0
   19.9566  -23.6073  -11.8280 O   0  0  0  0  0  0  0  0  0  0  0  0
  2  3  1  6
  2  1  1  0
  4  5  1  0
  4  2  1  0
  5  7  1  0
  5  6  1  1
  7  8  2  0
  9 10  1  0
 10 11  1  0
 12 11  1  0
 13 12  1  1
 13 14  1  0
 14  7  1  0
 15 13  1  0
 16 15  2  0
 17 18  1  0
 18 20  1  0
 18 19  2  0
 20 21  1  0
 22 21  1  6
 22 23  1  0
 22 24  1  0
 23 15  1  0
 24 25  1  0
 26 24  2  0
M  END
$$$$
