LMQ.pdb
     RDKit          3D

 26 25  0  0  1  0  0  0  0  0999 V2000
   18.7724  -12.6391  -20.6389 C   0  0  0  0  0  0  0  0  0  0  0  0
   20.0423  -13.2413  -20.1091 C   0  0  1  0  0  0  0  0  0  0  0  0
   21.1345  -13.0400  -21.1129 C   0  0  0  0  0  0  0  0  0  0  0  0
   20.4120  -12.5798  -18.7988 C   0  0  0  0  0  0  0  0  0  0  0  0
   21.7125  -13.0775  -18.2558 C   0  0  2  0  0  0  0  0  0  0  0  0
   21.5968  -14.4493  -17.8623 N   0  0  0  0  0  0  0  0  0  0  0  0
   22.0694  -12.2170  -17.0854 C   0  0  0  0  0  0  0  0  0  0  0  0
   21.5018  -12.3821  -15.9772 O   0  0  0  0  0  0  0  0  0  0  0  0
   27.6180  -11.6551  -16.9604 C   0  0  0  0  0  0  0  0  0  0  0  0
   27.1385  -11.6663  -15.2179 S   0  0  0  0  0  0  0  0  0  0  0  0
   25.3019  -11.7112  -15.1671 C   0  0  0  0  0  0  0  0  0  0  0  0
   24.8376  -10.4641  -15.8498 C   0  0  0  0  0  0  0  0  0  0  0  0
   23.3688  -10.3643  -16.0595 C   0  0  2  0  0  0  0  0  0  0  0  0
   23.0438  -11.2147  -17.2140 N   0  0  0  0  0  0  0  0  0  0  0  0
   22.8842   -9.0092  -16.4243 C   0  0  0  0  0  0  0  0  0  0  0  0
   22.7915   -8.7688  -17.6521 O   0  0  0  0  0  0  0  0  0  0  0  0
   18.9262   -4.6131  -19.1109 N   0  0  0  0  0  0  0  0  0  0  0  0
   19.5828   -5.8372  -18.7223 C   0  0  0  0  0  0  0  0  0  0  0  0
   19.9081   -6.6022  -19.6283 O   0  0  0  0  0  0  0  0  0  0  0  0
   19.8036   -6.0628  -17.2896 C   0  0  0  0  0  0  0  0  0  0  0  0
   20.7120   -7.1436  -16.8753 C   0  0  0  0  0  0  0  0  0  0  0  0
   21.7898   -6.8384  -15.8948 C   0  0  2  0  0  0  0  0  0  0  0  0
   22.5360   -8.0159  -15.5125 N   0  0  0  0  0  0  0  0  0  0  0  0
   21.4577   -5.9324  -14.7952 C   0  0  0  0  0  0  0  0  0  0  0  0
   21.1487   -4.5851  -15.0301 O   0  0  0  0  0  0  0  0  0  0  0  0
   21.4249   -6.2721  -13.5681 O   0  0  0  0  0  0  0  0  0  0  0  0
  2  3  1  6
  2  1  1  0
  4  5  1  0
  4  2  1  0
  5  7  1  0
  5  6  1  1
  7  8  2  0
  9 10  1  0
 10 11  1  0
 12 11  1  0
 13 12  1  6
 13 14  1  0
 14  7  1  0
 15 13  1  0
 16 15  2  0
 17 18  1  0
 18 20  1  0
 18 19  2  0
 20 21  1  0
 22 21  1  1
 22 23  1  0
 22 24  1  0
 23 15  1  0
 24 25  1  0
 26 24  2  0
M  END
$$$$
