LMQ.pdb
     RDKit          3D

 26 25  0  0  1  0  0  0  0  0999 V2000
   27.0512  -12.5131  -17.8781 C   0  0  0  0  0  0  0  0  0  0  0  0
   28.2932  -12.0402  -18.5782 C   0  0  1  0  0  0  0  0  0  0  0  0
   27.9098  -11.4094  -19.8805 C   0  0  0  0  0  0  0  0  0  0  0  0
   29.0178  -11.0361  -17.7076 C   0  0  0  0  0  0  0  0  0  0  0  0
   30.2541  -10.5048  -18.3581 C   0  0  2  0  0  0  0  0  0  0  0  0
   31.1521  -11.5749  -18.6721 N   0  0  0  0  0  0  0  0  0  0  0  0
   30.8866   -9.5431  -17.4028 C   0  0  0  0  0  0  0  0  0  0  0  0
   30.1878   -8.6879  -16.8042 O   0  0  0  0  0  0  0  0  0  0  0  0
   37.4878   -9.2549  -16.1200 C   0  0  0  0  0  0  0  0  0  0  0  0
   36.5501   -9.2438  -14.5750 S   0  0  0  0  0  0  0  0  0  0  0  0
   34.9914   -8.3259  -14.8999 C   0  0  0  0  0  0  0  0  0  0  0  0
   34.1981   -9.1759  -15.8408 C   0  0  0  0  0  0  0  0  0  0  0  0
   32.8791   -8.6184  -16.2417 C   0  0  2  0  0  0  0  0  0  0  0  0
   32.2694   -9.5864  -17.1651 N   0  0  0  0  0  0  0  0  0  0  0  0
   32.9482   -7.3446  -17.0013 C   0  0  0  0  0  0  0  0  0  0  0  0
   33.0709   -7.4506  -18.2454 O   0  0  0  0  0  0  0  0  0  0  0  0
   29.4315   -5.3485  -20.0628 N   0  0  0  0  0  0  0  0  0  0  0  0
   29.9996   -4.0310  -19.9151 C   0  0  0  0  0  0  0  0  0  0  0  0
   29.5275   -3.1425  -20.6219 O   0  0  0  0  0  0  0  0  0  0  0  0
   31.0847   -3.8658  -18.9416 C   0  0  0  0  0  0  0  0  0  0  0  0
   31.5438   -5.0427  -18.1873 C   0  0  0  0  0  0  0  0  0  0  0  0
   32.6642   -4.8826  -17.2202 C   0  0  2  0  0  0  0  0  0  0  0  0
   32.8872   -6.0746  -16.4336 N   0  0  0  0  0  0  0  0  0  0  0  0
   32.7290   -3.6267  -16.4726 C   0  0  0  0  0  0  0  0  0  0  0  0
   33.1401   -2.4347  -17.0859 O   0  0  0  0  0  0  0  0  0  0  0  0
   32.4328   -3.5075  -15.2395 O   0  0  0  0  0  0  0  0  0  0  0  0
  2  3  1  6
  2  1  1  0
  4  5  1  0
  4  2  1  0
  5  7  1  0
  5  6  1  1
  7  8  2  0
  9 10  1  0
 10 11  1  0
 12 11  1  0
 13 12  1  6
 13 14  1  0
 14  7  1  0
 15 13  1  0
 16 15  2  0
 17 18  1  0
 18 20  1  0
 18 19  2  0
 20 21  1  0
 22 21  1  1
 22 23  1  0
 22 24  1  0
 23 15  1  0
 24 25  1  0
 26 24  2  0
M  END
$$$$
