LMQ.pdb
     RDKit          3D

 26 25  0  0  1  0  0  0  0  0999 V2000
   27.7233  -17.7516  -17.6054 C   0  0  0  0  0  0  0  0  0  0  0  0
   28.1884  -18.7224  -16.5578 C   0  0  1  0  0  0  0  0  0  0  0  0
   28.8161  -17.9622  -15.4314 C   0  0  0  0  0  0  0  0  0  0  0  0
   27.0110  -19.5267  -16.0498 C   0  0  0  0  0  0  0  0  0  0  0  0
   27.4351  -20.7094  -15.2403 C   0  0  2  0  0  0  0  0  0  0  0  0
   27.8451  -21.7801  -16.0979 N   0  0  0  0  0  0  0  0  0  0  0  0
   26.2686  -21.1193  -14.3985 C   0  0  0  0  0  0  0  0  0  0  0  0
   25.6170  -22.1568  -14.6753 O   0  0  0  0  0  0  0  0  0  0  0  0
   26.3289  -19.7026   -8.5663 C   0  0  0  0  0  0  0  0  0  0  0  0
   24.9804  -20.8924   -8.3869 S   0  0  0  0  0  0  0  0  0  0  0  0
   24.1539  -21.0175  -10.0237 C   0  0  0  0  0  0  0  0  0  0  0  0
   25.1999  -20.6926  -11.0423 C   0  0  0  0  0  0  0  0  0  0  0  0
   24.7545  -20.7761  -12.4586 C   0  0  2  0  0  0  0  0  0  0  0  0
   25.8895  -20.3474  -13.2889 N   0  0  0  0  0  0  0  0  0  0  0  0
   23.6422  -19.8596  -12.8149 C   0  0  0  0  0  0  0  0  0  0  0  0
   23.4886  -18.8627  -12.0687 O   0  0  0  0  0  0  0  0  0  0  0  0
   20.4952  -24.4749  -14.7284 N   0  0  0  0  0  0  0  0  0  0  0  0
   19.4305  -23.6878  -14.1564 C   0  0  0  0  0  0  0  0  0  0  0  0
   18.3517  -24.2539  -13.9905 O   0  0  0  0  0  0  0  0  0  0  0  0
   19.7241  -22.2891  -13.8250 C   0  0  0  0  0  0  0  0  0  0  0  0
   21.0988  -21.7944  -13.9988 C   0  0  0  0  0  0  0  0  0  0  0  0
   21.3834  -20.3578  -13.7314 C   0  0  2  0  0  0  0  0  0  0  0  0
   22.7823  -20.0336  -13.8963 N   0  0  0  0  0  0  0  0  0  0  0  0
   20.7420  -19.7545  -12.5630 C   0  0  0  0  0  0  0  0  0  0  0  0
   19.9939  -18.5737  -12.6719 O   0  0  0  0  0  0  0  0  0  0  0  0
   20.8066  -20.2279  -11.3823 O   0  0  0  0  0  0  0  0  0  0  0  0
  2  3  1  1
  2  1  1  0
  4  5  1  0
  4  2  1  0
  5  7  1  0
  5  6  1  6
  7  8  2  0
  9 10  1  0
 10 11  1  0
 12 11  1  0
 13 12  1  1
 13 14  1  0
 14  7  1  0
 15 13  1  0
 16 15  2  0
 17 18  1  0
 18 20  1  0
 18 19  2  0
 20 21  1  0
 22 21  1  1
 22 23  1  0
 22 24  1  0
 23 15  1  0
 24 25  1  0
 26 24  2  0
M  END
$$$$
