VEG.pdb
     RDKit          3D

 21 20  0  0  1  0  0  0  0  0999 V2000
    8.6109  -13.2743   21.8226 C   0  0  0  0  0  0  0  0  0  0  0  0
    8.4814  -13.9875   20.4734 C   0  0  2  0  0  0  0  0  0  0  0  0
    7.4337  -13.3331   19.6183 C   0  0  0  0  0  0  0  0  0  0  0  0
    8.0936  -15.4173   20.7405 C   0  0  2  0  0  0  0  0  0  0  0  0
    6.8010  -15.3989   21.3913 N   0  0  0  0  0  0  0  0  0  0  0  0
    9.1254  -16.0876   21.5627 C   0  0  0  0  0  0  0  0  0  0  0  0
    9.5798  -17.1873   21.1557 O   0  0  0  0  0  0  0  0  0  0  0  0
    9.6355  -15.5786   22.7725 N   0  0  0  0  0  0  0  0  0  0  0  0
   10.7374  -16.2286   23.5157 C   0  0  1  0  0  0  0  0  0  0  0  0
   11.9819  -15.4175   23.4188 C   0  0  0  0  0  0  0  0  0  0  0  0
   13.1725  -15.9872   24.1292 C   0  0  0  0  0  0  0  0  0  0  0  0
   14.1793  -16.5687   23.2323 C   0  0  0  0  0  0  0  0  0  0  0  0
   14.3244  -17.7751   22.9673 O   0  0  0  0  0  0  0  0  0  0  0  0
   10.2402  -16.4605   24.8803 C   0  0  0  0  0  0  0  0  0  0  0  0
    9.6385  -15.5443   25.4849 O   0  0  0  0  0  0  0  0  0  0  0  0
   15.0681  -15.6704   22.6111 O   0  0  0  0  0  0  0  0  0  0  0  0
   10.4364  -17.7050   25.5106 N   0  0  0  0  0  0  0  0  0  0  0  0
    9.9868  -17.8522   26.8650 C   0  0  0  0  0  0  0  0  0  0  0  0
   10.5757  -19.0733   27.4635 C   0  0  0  0  0  0  0  0  0  0  0  0
   10.3688  -19.3593   28.8034 O   0  0  0  0  0  0  0  0  0  0  0  0
   11.2512  -19.8149   26.7217 O   0  0  0  0  0  0  0  0  0  0  0  0
  2  4  1  0
  2  1  1  1
  2  3  1  0
  4  5  1  1
  6  4  1  0
  6  7  2  0
  8  6  1  0
  9  8  1  0
  9 14  1  0
  9 10  1  1
 11 10  1  0
 12 13  2  0
 12 11  1  0
 14 15  2  0
 14 17  1  0
 16 12  1  0
 17 18  1  0
 19 20  1  0
 19 18  1  0
 21 19  2  0
M  END
$$$$
