VEG.pdb
     RDKit          3D

 21 20  0  0  1  0  0  0  0  0999 V2000
    7.2278  -13.9384   22.1377 C   0  0  0  0  0  0  0  0  0  0  0  0
    8.2378  -13.6195   21.0314 C   0  0  2  0  0  0  0  0  0  0  0  0
    7.7091  -12.5557   20.1117 C   0  0  0  0  0  0  0  0  0  0  0  0
    8.4851  -14.8831   20.2516 C   0  0  2  0  0  0  0  0  0  0  0  0
    7.2425  -15.2375   19.5998 N   0  0  0  0  0  0  0  0  0  0  0  0
    8.9742  -15.9554   21.1466 C   0  0  0  0  0  0  0  0  0  0  0  0
    8.1342  -16.7770   21.5946 O   0  0  0  0  0  0  0  0  0  0  0  0
   10.3183  -16.1203   21.5327 N   0  0  0  0  0  0  0  0  0  0  0  0
   10.7569  -17.1610   22.4885 C   0  0  1  0  0  0  0  0  0  0  0  0
   11.9223  -17.9110   21.9449 C   0  0  0  0  0  0  0  0  0  0  0  0
   11.6297  -18.7673   20.7501 C   0  0  0  0  0  0  0  0  0  0  0  0
   12.8077  -19.4567   20.2084 C   0  0  0  0  0  0  0  0  0  0  0  0
   13.3689  -20.4542   20.6950 O   0  0  0  0  0  0  0  0  0  0  0  0
   10.9883  -16.4788   23.7707 C   0  0  0  0  0  0  0  0  0  0  0  0
   11.8041  -15.5311   23.8304 O   0  0  0  0  0  0  0  0  0  0  0  0
   13.3554  -18.9359   19.0204 O   0  0  0  0  0  0  0  0  0  0  0  0
   10.2989  -16.8841   24.9305 N   0  0  0  0  0  0  0  0  0  0  0  0
   10.5513  -18.2022   25.4378 C   0  0  0  0  0  0  0  0  0  0  0  0
   11.6880  -18.1694   26.3879 C   0  0  0  0  0  0  0  0  0  0  0  0
   11.4899  -18.4968   27.7196 O   0  0  0  0  0  0  0  0  0  0  0  0
   12.8064  -17.8406   25.9430 O   0  0  0  0  0  0  0  0  0  0  0  0
  2  4  1  0
  2  1  1  1
  2  3  1  0
  4  5  1  1
  6  4  1  0
  6  7  2  0
  8  6  1  0
  9  8  1  0
  9 14  1  0
  9 10  1  6
 11 10  1  0
 12 13  2  0
 12 11  1  0
 14 15  2  0
 14 17  1  0
 16 12  1  0
 17 18  1  0
 19 20  1  0
 19 18  1  0
 21 19  2  0
M  END
$$$$
