VEG.pdb
     RDKit          3D

 21 20  0  0  1  0  0  0  0  0999 V2000
    7.7828  -13.8999   20.9355 C   0  0  0  0  0  0  0  0  0  0  0  0
    8.2710  -13.0763   19.7400 C   0  0  2  0  0  0  0  0  0  0  0  0
    7.1553  -12.8328   18.7639 C   0  0  0  0  0  0  0  0  0  0  0  0
    9.3726  -13.8485   19.0645 C   0  0  2  0  0  0  0  0  0  0  0  0
    8.8047  -15.0985   18.6068 N   0  0  0  0  0  0  0  0  0  0  0  0
   10.5048  -14.0547   19.9949 C   0  0  0  0  0  0  0  0  0  0  0  0
   10.9901  -13.0443   20.5648 O   0  0  0  0  0  0  0  0  0  0  0  0
   11.0783  -15.3071   20.2875 N   0  0  0  0  0  0  0  0  0  0  0  0
   12.2155  -15.4711   21.2197 C   0  0  1  0  0  0  0  0  0  0  0  0
   12.2927  -16.8758   21.7066 C   0  0  0  0  0  0  0  0  0  0  0  0
   11.2211  -17.2756   22.6754 C   0  0  0  0  0  0  0  0  0  0  0  0
   11.3060  -18.6747   23.1133 C   0  0  0  0  0  0  0  0  0  0  0  0
   12.2975  -19.4195   23.0196 O   0  0  0  0  0  0  0  0  0  0  0  0
   13.4086  -14.9823   20.5121 C   0  0  0  0  0  0  0  0  0  0  0  0
   14.4935  -14.8745   21.1273 O   0  0  0  0  0  0  0  0  0  0  0  0
   10.1497  -19.2266   23.6973 O   0  0  0  0  0  0  0  0  0  0  0  0
   13.3386  -14.6353   19.1485 N   0  0  0  0  0  0  0  0  0  0  0  0
   14.5229  -14.1209   18.5230 C   0  0  0  0  0  0  0  0  0  0  0  0
   15.2307  -15.2090   17.8081 C   0  0  0  0  0  0  0  0  0  0  0  0
   16.1666  -14.9052   16.8326 O   0  0  0  0  0  0  0  0  0  0  0  0
   14.9509  -16.3846   18.1185 O   0  0  0  0  0  0  0  0  0  0  0  0
  2  4  1  0
  2  1  1  1
  2  3  1  0
  4  5  1  1
  6  4  1  0
  6  7  2  0
  8  6  1  0
  9  8  1  0
  9 14  1  0
  9 10  1  6
 11 10  1  0
 12 13  2  0
 12 11  1  0
 14 15  2  0
 14 17  1  0
 16 12  1  0
 17 18  1  0
 19 20  1  0
 19 18  1  0
 21 19  2  0
M  END
$$$$
