VEG.pdb
     RDKit          3D

 21 20  0  0  1  0  0  0  0  0999 V2000
    7.6265  -13.9285   22.1029 C   0  0  0  0  0  0  0  0  0  0  0  0
    8.3298  -13.6530   20.7705 C   0  0  2  0  0  0  0  0  0  0  0  0
    7.5750  -12.6337   19.9654 C   0  0  0  0  0  0  0  0  0  0  0  0
    8.3992  -14.9483   20.0068 C   0  0  2  0  0  0  0  0  0  0  0  0
    7.0401  -15.4027   19.8045 N   0  0  0  0  0  0  0  0  0  0  0  0
    9.2175  -15.9384   20.7417 C   0  0  0  0  0  0  0  0  0  0  0  0
    8.6173  -16.8142   21.4156 O   0  0  0  0  0  0  0  0  0  0  0  0
   10.6253  -15.9684   20.7391 N   0  0  0  0  0  0  0  0  0  0  0  0
   11.4083  -16.9696   21.4965 C   0  0  1  0  0  0  0  0  0  0  0  0
   12.7686  -17.1199   20.9110 C   0  0  0  0  0  0  0  0  0  0  0  0
   13.6552  -18.1117   21.6016 C   0  0  0  0  0  0  0  0  0  0  0  0
   14.9992  -18.2158   21.0194 C   0  0  0  0  0  0  0  0  0  0  0  0
   16.0439  -17.7213   21.4786 O   0  0  0  0  0  0  0  0  0  0  0  0
   11.3709  -16.5492   22.9054 C   0  0  0  0  0  0  0  0  0  0  0  0
   11.4190  -15.3312   23.1905 O   0  0  0  0  0  0  0  0  0  0  0  0
   15.1158  -18.9485   19.8226 O   0  0  0  0  0  0  0  0  0  0  0  0
   11.2814  -17.5068   23.9348 N   0  0  0  0  0  0  0  0  0  0  0  0
   11.2562  -17.0379   25.2905 C   0  0  0  0  0  0  0  0  0  0  0  0
   11.0937  -18.1818   26.2184 C   0  0  0  0  0  0  0  0  0  0  0  0
   11.0976  -17.9712   27.5879 O   0  0  0  0  0  0  0  0  0  0  0  0
   10.9564  -19.3175   25.7204 O   0  0  0  0  0  0  0  0  0  0  0  0
  2  4  1  0
  2  1  1  1
  2  3  1  0
  4  5  1  1
  6  4  1  0
  6  7  2  0
  8  6  1  0
  9  8  1  0
  9 14  1  0
  9 10  1  6
 11 10  1  0
 12 13  2  0
 12 11  1  0
 14 15  2  0
 14 17  1  0
 16 12  1  0
 17 18  1  0
 19 20  1  0
 19 18  1  0
 21 19  2  0
M  END
$$$$
