VEG.pdb
     RDKit          3D

 21 20  0  0  1  0  0  0  0  0999 V2000
    7.0494  -12.7779   19.4935 C   0  0  0  0  0  0  0  0  0  0  0  0
    8.1365  -13.4284   20.3542 C   0  0  2  0  0  0  0  0  0  0  0  0
    9.4582  -13.4293   19.6400 C   0  0  0  0  0  0  0  0  0  0  0  0
    7.7159  -14.8455   20.6386 C   0  0  2  0  0  0  0  0  0  0  0  0
    6.3987  -14.7926   21.2358 N   0  0  0  0  0  0  0  0  0  0  0  0
    8.7033  -15.5111   21.5173 C   0  0  0  0  0  0  0  0  0  0  0  0
    8.7842  -15.1241   22.7111 O   0  0  0  0  0  0  0  0  0  0  0  0
    9.5611  -16.5505   21.1089 N   0  0  0  0  0  0  0  0  0  0  0  0
   10.5085  -17.2177   22.0289 C   0  0  1  0  0  0  0  0  0  0  0  0
   10.4826  -18.6921   21.8255 C   0  0  0  0  0  0  0  0  0  0  0  0
    9.1733  -19.3557   22.1285 C   0  0  0  0  0  0  0  0  0  0  0  0
    9.1892  -20.8134   21.9512 C   0  0  0  0  0  0  0  0  0  0  0  0
    8.2948  -21.5045   21.4325 O   0  0  0  0  0  0  0  0  0  0  0  0
   11.8148  -16.5749   21.8204 C   0  0  0  0  0  0  0  0  0  0  0  0
   12.0551  -15.9962   20.7367 O   0  0  0  0  0  0  0  0  0  0  0  0
   10.3307  -21.4952   22.4148 O   0  0  0  0  0  0  0  0  0  0  0  0
   12.7960  -16.6063   22.8308 N   0  0  0  0  0  0  0  0  0  0  0  0
   14.0256  -15.9047   22.5973 C   0  0  0  0  0  0  0  0  0  0  0  0
   14.8590  -15.9235   23.8225 C   0  0  0  0  0  0  0  0  0  0  0  0
   16.1098  -15.3274   23.8208 O   0  0  0  0  0  0  0  0  0  0  0  0
   14.3926  -16.4882   24.8325 O   0  0  0  0  0  0  0  0  0  0  0  0
  2  4  1  0
  2  1  1  6
  2  3  1  0
  4  5  1  1
  6  4  1  0
  6  7  2  0
  8  6  1  0
  9  8  1  0
  9 14  1  0
  9 10  1  6
 11 10  1  0
 12 13  2  0
 12 11  1  0
 14 15  2  0
 14 17  1  0
 16 12  1  0
 17 18  1  0
 19 20  1  0
 19 18  1  0
 21 19  2  0
M  END
$$$$
