VEG.pdb
     RDKit          3D

 21 20  0  0  1  0  0  0  0  0999 V2000
    5.5435  -22.7706   23.5016 C   0  0  0  0  0  0  0  0  0  0  0  0
    5.7058  -21.3104   23.0689 C   0  0  2  0  0  0  0  0  0  0  0  0
    5.9073  -21.2095   21.5836 C   0  0  0  0  0  0  0  0  0  0  0  0
    6.9069  -20.7471   23.7803 C   0  0  2  0  0  0  0  0  0  0  0  0
    8.0710  -21.4471   23.2810 N   0  0  0  0  0  0  0  0  0  0  0  0
    6.7533  -20.8890   25.2453 C   0  0  0  0  0  0  0  0  0  0  0  0
    5.8535  -20.2168   25.8108 O   0  0  0  0  0  0  0  0  0  0  0  0
    7.5468  -21.7265   26.0527 N   0  0  0  0  0  0  0  0  0  0  0  0
    7.3974  -21.8005   27.5229 C   0  0  1  0  0  0  0  0  0  0  0  0
    7.1326  -23.2016   27.9506 C   0  0  0  0  0  0  0  0  0  0  0  0
    6.9407  -23.3938   29.4247 C   0  0  0  0  0  0  0  0  0  0  0  0
    6.7351  -24.7927   29.8211 C   0  0  0  0  0  0  0  0  0  0  0  0
    7.4840  -25.4737   30.5437 O   0  0  0  0  0  0  0  0  0  0  0  0
    8.6028  -21.1830   28.0962 C   0  0  0  0  0  0  0  0  0  0  0  0
    8.7784  -21.1998   29.3355 O   0  0  0  0  0  0  0  0  0  0  0  0
    5.5748  -25.4247   29.3344 O   0  0  0  0  0  0  0  0  0  0  0  0
    9.5597  -20.5737   27.2609 N   0  0  0  0  0  0  0  0  0  0  0  0
   10.9158  -21.0353   27.3420 C   0  0  0  0  0  0  0  0  0  0  0  0
   11.6410  -20.2912   28.3986 C   0  0  0  0  0  0  0  0  0  0  0  0
   12.9845  -20.5415   28.6268 O   0  0  0  0  0  0  0  0  0  0  0  0
   11.0000  -19.4480   29.0580 O   0  0  0  0  0  0  0  0  0  0  0  0
  2  4  1  0
  2  1  1  6
  2  3  1  0
  4  5  1  6
  6  4  1  0
  6  7  2  0
  8  6  1  0
  9  8  1  0
  9 14  1  0
  9 10  1  1
 11 10  1  0
 12 13  2  0
 12 11  1  0
 14 15  2  0
 14 17  1  0
 16 12  1  0
 17 18  1  0
 19 20  1  0
 19 18  1  0
 21 19  2  0
M  END
$$$$
