PYL.pdb
     RDKit          3D

 28 29  0  0  1  0  0  0  0  0999 V2000
    8.2455  -15.1592   19.4608 N   0  0  0  0  0  0  0  0  0  0  0  0
    8.1836  -14.3454   18.2413 C   0  0  0  0  0  0  0  0  0  0  0  0
    7.0093  -13.4183   18.5889 C   0  0  0  0  0  0  0  0  0  0  0  0
    7.3495  -13.0717   20.0399 C   0  0  0  0  0  0  0  0  0  0  0  0
    8.3012  -14.1480   20.4726 C   0  0  1  0  0  0  0  0  0  0  0  0
    8.0371  -14.6590   21.8379 C   0  0  0  0  0  0  0  0  0  0  0  0
    7.8621  -13.8078   22.7478 O   0  0  0  0  0  0  0  0  0  0  0  0
    2.4768  -18.7244   20.0162 O   0  0  0  0  0  0  0  0  0  0  0  0
    3.5956  -18.5382   20.8330 C   0  0  0  0  0  0  0  0  0  0  0  0
    4.8709  -18.7704   20.3806 C   0  0  0  0  0  0  0  0  0  0  0  0
    5.9711  -18.5859   21.1874 C   0  0  0  0  0  0  0  0  0  0  0  0
    5.8412  -18.1560   22.4972 C   0  0  0  0  0  0  0  0  0  0  0  0
    6.9948  -17.9482   23.3706 C   0  0  0  0  0  0  0  0  0  0  0  0
    7.5463  -16.5631   23.4047 C   0  0  2  0  0  0  0  0  0  0  0  0
    7.9761  -16.0397   22.1495 N   0  0  0  0  0  0  0  0  0  0  0  0
    8.6365  -16.5431   24.4297 C   0  0  0  0  0  0  0  0  0  0  0  0
    9.7842  -16.8741   24.0525 O   0  0  0  0  0  0  0  0  0  0  0  0
    4.5612  -17.9253   22.9439 C   0  0  0  0  0  0  0  0  0  0  0  0
    3.4474  -18.1066   22.1436 C   0  0  0  0  0  0  0  0  0  0  0  0
    9.0124  -12.9991   28.9035 C   0  0  0  0  0  0  0  0  0  0  0  0
    9.4152  -13.8936   27.8026 C   0  0  2  0  0  0  0  0  0  0  0  0
    8.8440  -13.3464   26.4816 C   0  0  0  0  0  0  0  0  0  0  0  0
    9.1975  -15.3453   27.9092 C   0  0  0  0  0  0  0  0  0  0  0  0
    9.5121  -16.2388   26.7918 C   0  0  2  0  0  0  0  0  0  0  0  0
    8.4416  -16.1775   25.7725 N   0  0  0  0  0  0  0  0  0  0  0  0
    9.6826  -17.6524   27.1039 C   0  0  0  0  0  0  0  0  0  0  0  0
    8.8659  -18.5785   26.9059 O   0  0  0  0  0  0  0  0  0  0  0  0
   10.8922  -18.0939   27.7022 O   0  0  0  0  0  0  0  0  0  0  0  0
  1  5  1  0
  2  3  1  0
  2  1  1  0
  3  4  1  0
  4  5  1  0
  5  6  1  1
  6  7  2  0
  9 10  2  0
  9  8  1  0
 11 10  1  0
 12 11  2  0
 13 12  1  0
 14 13  1  6
 14 16  1  0
 15  6  1  0
 15 14  1  0
 16 25  1  0
 16 17  2  0
 18 12  1  0
 18 19  2  0
 19  9  1  0
 21 20  1  1
 21 23  1  0
 22 21  1  0
 24 23  1  1
 24 26  1  0
 25 24  1  0
 26 27  2  0
 26 28  1  0
M  END
$$$$
