PYL.pdb
     RDKit          3D

 28 29  0  0  1  0  0  0  0  0999 V2000
    8.4878  -17.0024   19.4588 N   0  0  0  0  0  0  0  0  0  0  0  0
    8.1783  -16.7894   18.0404 C   0  0  0  0  0  0  0  0  0  0  0  0
    6.6438  -16.7487   18.0971 C   0  0  0  0  0  0  0  0  0  0  0  0
    6.4349  -15.8770   19.3371 C   0  0  0  0  0  0  0  0  0  0  0  0
    7.7408  -15.9466   20.0727 C   0  0  1  0  0  0  0  0  0  0  0  0
    7.5883  -16.1014   21.5381 C   0  0  0  0  0  0  0  0  0  0  0  0
    6.9238  -15.2215   22.1443 O   0  0  0  0  0  0  0  0  0  0  0  0
    7.2911  -19.8812   29.6179 O   0  0  0  0  0  0  0  0  0  0  0  0
    7.5265  -19.6054   28.2680 C   0  0  0  0  0  0  0  0  0  0  0  0
    6.7525  -18.7171   27.5634 C   0  0  0  0  0  0  0  0  0  0  0  0
    6.9868  -18.4473   26.2338 C   0  0  0  0  0  0  0  0  0  0  0  0
    8.0180  -19.0620   25.5438 C   0  0  0  0  0  0  0  0  0  0  0  0
    8.2890  -18.7875   24.1339 C   0  0  0  0  0  0  0  0  0  0  0  0
    7.9090  -17.4296   23.6487 C   0  0  2  0  0  0  0  0  0  0  0  0
    8.1506  -17.1793   22.2655 N   0  0  0  0  0  0  0  0  0  0  0  0
    8.5923  -16.4336   24.5322 C   0  0  0  0  0  0  0  0  0  0  0  0
    9.8227  -16.2682   24.3650 O   0  0  0  0  0  0  0  0  0  0  0  0
    8.7893  -19.9506   26.2556 C   0  0  0  0  0  0  0  0  0  0  0  0
    8.5647  -20.2305   27.5917 C   0  0  0  0  0  0  0  0  0  0  0  0
    7.4048  -12.0535   25.0273 C   0  0  0  0  0  0  0  0  0  0  0  0
    6.7991  -12.9351   26.0423 C   0  0  2  0  0  0  0  0  0  0  0  0
    5.7712  -12.1266   26.8550 C   0  0  0  0  0  0  0  0  0  0  0  0
    7.6533  -13.7424   26.9282 C   0  0  0  0  0  0  0  0  0  0  0  0
    8.6223  -14.6940   26.3792 C   0  0  2  0  0  0  0  0  0  0  0  0
    7.9347  -15.6861   25.5239 N   0  0  0  0  0  0  0  0  0  0  0  0
    9.4031  -15.4682   27.3363 C   0  0  0  0  0  0  0  0  0  0  0  0
    9.1846  -16.6354   27.7281 O   0  0  0  0  0  0  0  0  0  0  0  0
   10.5563  -14.8880   27.9275 O   0  0  0  0  0  0  0  0  0  0  0  0
  1  5  1  0
  2  3  1  0
  2  1  1  0
  3  4  1  0
  4  5  1  0
  5  6  1  1
  6  7  2  0
  9 10  2  0
  9  8  1  0
 11 10  1  0
 12 11  2  0
 13 12  1  0
 14 13  1  1
 14 16  1  0
 15  6  1  0
 15 14  1  0
 16 25  1  0
 16 17  2  0
 18 12  1  0
 18 19  2  0
 19  9  1  0
 21 20  1  1
 21 23  1  0
 22 21  1  0
 24 23  1  1
 24 26  1  0
 25 24  1  0
 26 27  2  0
 26 28  1  0
M  END
$$$$
