PYL.pdb
     RDKit          3D

 28 29  0  0  1  0  0  0  0  0999 V2000
    6.4580  -21.3270   23.9318 N   0  0  0  0  0  0  0  0  0  0  0  0
    5.8819  -22.6685   23.7853 C   0  0  0  0  0  0  0  0  0  0  0  0
    4.4016  -22.3633   24.0596 C   0  0  0  0  0  0  0  0  0  0  0  0
    4.2291  -21.0763   23.2502 C   0  0  0  0  0  0  0  0  0  0  0  0
    5.6254  -20.5642   23.0518 C   0  0  1  0  0  0  0  0  0  0  0  0
    5.7515  -19.0997   23.2360 C   0  0  0  0  0  0  0  0  0  0  0  0
    5.1978  -18.3616   22.3805 O   0  0  0  0  0  0  0  0  0  0  0  0
    7.1900  -11.0736   26.7939 O   0  0  0  0  0  0  0  0  0  0  0  0
    7.1042  -12.4518   26.5772 C   0  0  0  0  0  0  0  0  0  0  0  0
    8.2052  -13.2051   26.2528 C   0  0  0  0  0  0  0  0  0  0  0  0
    8.1176  -14.5625   26.0401 C   0  0  0  0  0  0  0  0  0  0  0  0
    6.9103  -15.2326   26.1439 C   0  0  0  0  0  0  0  0  0  0  0  0
    6.7941  -16.6735   25.9277 C   0  0  0  0  0  0  0  0  0  0  0  0
    6.5999  -17.1079   24.5144 C   0  0  2  0  0  0  0  0  0  0  0  0
    6.4569  -18.5129   24.3155 N   0  0  0  0  0  0  0  0  0  0  0  0
    7.7265  -16.5344   23.7135 C   0  0  0  0  0  0  0  0  0  0  0  0
    8.7563  -17.2365   23.5881 O   0  0  0  0  0  0  0  0  0  0  0  0
    5.8117  -14.4720   26.4690 C   0  0  0  0  0  0  0  0  0  0  0  0
    5.8860  -13.1076   26.6854 C   0  0  0  0  0  0  0  0  0  0  0  0
    8.1658  -11.8105   19.6269 C   0  0  0  0  0  0  0  0  0  0  0  0
    8.2987  -13.2458   19.9377 C   0  0  2  0  0  0  0  0  0  0  0  0
    7.7880  -14.0648   18.7380 C   0  0  0  0  0  0  0  0  0  0  0  0
    7.7730  -13.7823   21.2035 C   0  0  0  0  0  0  0  0  0  0  0  0
    8.3732  -14.9632   21.8288 C   0  0  2  0  0  0  0  0  0  0  0  0
    7.6888  -15.2686   23.1043 N   0  0  0  0  0  0  0  0  0  0  0  0
    9.7938  -14.8921   22.1476 C   0  0  0  0  0  0  0  0  0  0  0  0
   10.3155  -14.4780   23.2060 O   0  0  0  0  0  0  0  0  0  0  0  0
   10.7466  -15.3278   21.1894 O   0  0  0  0  0  0  0  0  0  0  0  0
  1  5  1  0
  2  3  1  0
  2  1  1  0
  3  4  1  0
  4  5  1  0
  5  6  1  1
  6  7  2  0
  9 10  2  0
  9  8  1  0
 11 10  1  0
 12 11  2  0
 13 12  1  0
 14 13  1  1
 14 16  1  0
 15  6  1  0
 15 14  1  0
 16 25  1  0
 16 17  2  0
 18 12  1  0
 18 19  2  0
 19  9  1  0
 21 20  1  6
 21 23  1  0
 22 21  1  0
 24 23  1  1
 24 26  1  0
 25 24  1  0
 26 27  2  0
 26 28  1  0
M  END
$$$$
