PYL.pdb
     RDKit          3D

 28 29  0  0  1  0  0  0  0  0999 V2000
    6.2825  -18.1733   21.1673 N   0  0  0  0  0  0  0  0  0  0  0  0
    5.4908  -19.0540   20.3007 C   0  0  0  0  0  0  0  0  0  0  0  0
    6.1910  -18.8165   18.9543 C   0  0  0  0  0  0  0  0  0  0  0  0
    7.6563  -18.8528   19.3934 C   0  0  0  0  0  0  0  0  0  0  0  0
    7.6138  -18.6103   20.8735 C   0  0  1  0  0  0  0  0  0  0  0  0
    8.6630  -17.6805   21.3523 C   0  0  0  0  0  0  0  0  0  0  0  0
    9.8591  -18.0551   21.2413 O   0  0  0  0  0  0  0  0  0  0  0  0
    7.5317  -13.7515   16.3117 O   0  0  0  0  0  0  0  0  0  0  0  0
    7.9430  -13.8442   17.6443 C   0  0  0  0  0  0  0  0  0  0  0  0
    8.8232  -14.8096   18.0664 C   0  0  0  0  0  0  0  0  0  0  0  0
    9.2267  -14.8984   19.3797 C   0  0  0  0  0  0  0  0  0  0  0  0
    8.7613  -14.0146   20.3387 C   0  0  0  0  0  0  0  0  0  0  0  0
    9.1795  -14.0862   21.7375 C   0  0  0  0  0  0  0  0  0  0  0  0
    9.3646  -15.4573   22.2939 C   0  0  2  0  0  0  0  0  0  0  0  0
    8.3757  -16.4137   21.9180 N   0  0  0  0  0  0  0  0  0  0  0  0
    9.4862  -15.3223   23.7793 C   0  0  0  0  0  0  0  0  0  0  0  0
   10.5479  -14.8294   24.2253 O   0  0  0  0  0  0  0  0  0  0  0  0
    7.8800  -13.0503   19.9091 C   0  0  0  0  0  0  0  0  0  0  0  0
    7.4667  -12.9500   18.5927 C   0  0  0  0  0  0  0  0  0  0  0  0
    8.1176  -12.3588   26.7230 C   0  0  0  0  0  0  0  0  0  0  0  0
    7.1620  -13.4024   26.3083 C   0  0  2  0  0  0  0  0  0  0  0  0
    5.7437  -12.9747   26.7284 C   0  0  0  0  0  0  0  0  0  0  0  0
    7.4095  -14.8125   26.6496 C   0  0  0  0  0  0  0  0  0  0  0  0
    8.5937  -15.5132   26.1470 C   0  0  2  0  0  0  0  0  0  0  0  0
    8.4858  -15.7138   24.6853 N   0  0  0  0  0  0  0  0  0  0  0  0
    8.8710  -16.8293   26.7090 C   0  0  0  0  0  0  0  0  0  0  0  0
    9.1654  -17.1034   27.8931 O   0  0  0  0  0  0  0  0  0  0  0  0
    8.8166  -17.9724   25.8687 O   0  0  0  0  0  0  0  0  0  0  0  0
  1  5  1  0
  2  3  1  0
  2  1  1  0
  3  4  1  0
  4  5  1  0
  5  6  1  6
  6  7  2  0
  9 10  2  0
  9  8  1  0
 11 10  1  0
 12 11  2  0
 13 12  1  0
 14 13  1  6
 14 16  1  0
 15  6  1  0
 15 14  1  0
 16 25  1  0
 16 17  2  0
 18 12  1  0
 18 19  2  0
 19  9  1  0
 21 20  1  1
 21 23  1  0
 22 21  1  0
 24 23  1  1
 24 26  1  0
 25 24  1  0
 26 27  2  0
 26 28  1  0
M  END
$$$$
