HQW.pdb
     RDKit          3D

 34 36  0  0  1  0  0  0  0  0999 V2000
    8.2284  -17.8340   17.9076 N   0  0  0  0  0  0  0  0  0  0  0  0
    8.9435  -16.8097   18.6070 C   0  0  1  0  0  0  0  0  0  0  0  0
    8.1760  -15.5367   18.7809 C   0  0  0  0  0  0  0  0  0  0  0  0
    8.1243  -14.7009   17.5722 C   0  0  0  0  0  0  0  0  0  0  0  0
    8.7124  -14.8531   16.3365 C   0  0  0  0  0  0  0  0  0  0  0  0
    8.3863  -13.8389   15.5318 N   0  0  0  0  0  0  0  0  0  0  0  0
    7.5815  -13.0353   16.2693 C   0  0  0  0  0  0  0  0  0  0  0  0
    7.4265  -13.5535   17.4893 N   0  0  0  0  0  0  0  0  0  0  0  0
    9.2492  -17.3326   19.9820 C   0  0  0  0  0  0  0  0  0  0  0  0
    8.3654  -17.9165   20.6793 O   0  0  0  0  0  0  0  0  0  0  0  0
   13.8343  -20.4862   21.1461 N   0  0  0  0  0  0  0  0  0  0  0  0
   13.4242  -20.4215   22.5088 C   0  0  0  0  0  0  0  0  0  0  0  0
   13.9380  -21.1378   23.3912 O   0  0  0  0  0  0  0  0  0  0  0  0
   12.3307  -19.4474   22.8737 C   0  0  0  0  0  0  0  0  0  0  0  0
   11.9217  -18.7407   21.6241 C   0  0  0  0  0  0  0  0  0  0  0  0
   10.8429  -17.6989   21.8641 C   0  0  2  0  0  0  0  0  0  0  0  0
   10.5427  -17.1756   20.5151 N   0  0  0  0  0  0  0  0  0  0  0  0
   11.2212  -16.6226   22.7653 C   0  0  0  0  0  0  0  0  0  0  0  0
   12.4222  -16.5624   23.1583 O   0  0  0  0  0  0  0  0  0  0  0  0
   10.2990  -15.6666   23.1950 N   0  0  0  0  0  0  0  0  0  0  0  0
    9.5775  -15.6706   24.4455 C   0  0  1  0  0  0  0  0  0  0  0  0
    8.1253  -15.8961   24.1557 C   0  0  0  0  0  0  0  0  0  0  0  0
    7.2361  -15.1869   25.1091 C   0  0  0  0  0  0  0  0  0  0  0  0
    6.1564  -15.6578   25.8206 C   0  0  0  0  0  0  0  0  0  0  0  0
    5.6633  -14.6679   26.5484 N   0  0  0  0  0  0  0  0  0  0  0  0
    6.3463  -13.5434   26.3746 C   0  0  0  0  0  0  0  0  0  0  0  0
    6.2020  -12.2826   26.9121 C   0  0  0  0  0  0  0  0  0  0  0  0
    7.0791  -11.2606   26.5478 C   0  0  0  0  0  0  0  0  0  0  0  0
    8.0692  -11.5587   25.6514 C   0  0  0  0  0  0  0  0  0  0  0  0
    8.1994  -12.8150   25.1268 C   0  0  0  0  0  0  0  0  0  0  0  0
    7.3493  -13.8455   25.4664 C   0  0  0  0  0  0  0  0  0  0  0  0
   10.1319  -16.6399   25.4375 C   0  0  0  0  0  0  0  0  0  0  0  0
   10.6711  -16.2136   26.4693 O   0  0  0  0  0  0  0  0  0  0  0  0
   10.0694  -17.9993   25.2538 O   0  0  0  0  0  0  0  0  0  0  0  0
  2  1  1  6
  3  2  1  0
  4  3  1  0
  5  4  2  0
  6  5  1  0
  7  6  1  0
  7  8  2  0
  8  4  1  0
  9  2  1  0
 10  9  2  0
 12 11  1  0
 12 14  1  0
 13 12  2  0
 15 14  1  0
 16 17  1  0
 16 15  1  6
 17  9  1  0
 18 16  1  0
 19 18  2  0
 20 18  1  0
 21 20  1  0
 22 23  1  0
 21 22  1  6
 23 24  2  0
 24 25  1  0
 26 27  2  0
 26 25  1  0
 28 27  1  0
 29 28  2  0
 30 29  1  0
 30 31  2  0
 31 23  1  0
 31 26  1  0
 32 21  1  0
 32 34  1  0
 33 32  2  0
M  END
$$$$
