HQW.pdb
     RDKit          3D

 34 36  0  0  1  0  0  0  0  0999 V2000
   10.8717  -18.9960   20.0401 N   0  0  0  0  0  0  0  0  0  0  0  0
   10.6704  -17.6065   19.7600 C   0  0  1  0  0  0  0  0  0  0  0  0
   10.1302  -17.3293   18.3922 C   0  0  0  0  0  0  0  0  0  0  0  0
   11.1329  -17.4339   17.3218 C   0  0  0  0  0  0  0  0  0  0  0  0
   12.4740  -17.7439   17.3602 C   0  0  0  0  0  0  0  0  0  0  0  0
   12.9978  -17.7212   16.1324 N   0  0  0  0  0  0  0  0  0  0  0  0
   11.9737  -17.3924   15.3074 C   0  0  0  0  0  0  0  0  0  0  0  0
   10.8595  -17.2213   16.0216 N   0  0  0  0  0  0  0  0  0  0  0  0
    9.6617  -17.0898   20.7465 C   0  0  0  0  0  0  0  0  0  0  0  0
    9.2197  -15.9029   20.6805 O   0  0  0  0  0  0  0  0  0  0  0  0
    6.6832  -21.0686   24.0658 N   0  0  0  0  0  0  0  0  0  0  0  0
    5.9205  -20.5026   23.0041 C   0  0  0  0  0  0  0  0  0  0  0  0
    4.9130  -21.0691   22.5354 O   0  0  0  0  0  0  0  0  0  0  0  0
    6.3645  -19.1736   22.4435 C   0  0  0  0  0  0  0  0  0  0  0  0
    7.5264  -18.7075   23.2565 C   0  0  0  0  0  0  0  0  0  0  0  0
    8.1598  -17.4419   22.7052 C   0  0  2  0  0  0  0  0  0  0  0  0
    9.1914  -17.9353   21.7691 N   0  0  0  0  0  0  0  0  0  0  0  0
    8.7447  -16.5643   23.7058 C   0  0  0  0  0  0  0  0  0  0  0  0
    8.6454  -15.3141   23.5400 O   0  0  0  0  0  0  0  0  0  0  0  0
    9.4002  -17.0678   24.8309 N   0  0  0  0  0  0  0  0  0  0  0  0
   10.0914  -16.2985   25.8382 C   0  0  1  0  0  0  0  0  0  0  0  0
    9.1497  -16.0504   26.9763 C   0  0  0  0  0  0  0  0  0  0  0  0
    7.9498  -15.2791   26.5667 C   0  0  0  0  0  0  0  0  0  0  0  0
    6.7166  -15.7269   26.1513 C   0  0  0  0  0  0  0  0  0  0  0  0
    5.9516  -14.6792   25.8870 N   0  0  0  0  0  0  0  0  0  0  0  0
    6.5933  -13.5370   26.0985 C   0  0  0  0  0  0  0  0  0  0  0  0
    6.2068  -12.2213   25.9610 C   0  0  0  0  0  0  0  0  0  0  0  0
    7.1016  -11.1930   26.2587 C   0  0  0  0  0  0  0  0  0  0  0  0
    8.3546  -11.5409   26.6848 C   0  0  0  0  0  0  0  0  0  0  0  0
    8.7232  -12.8514   26.8163 C   0  0  0  0  0  0  0  0  0  0  0  0
    7.8628  -13.8895   26.5302 C   0  0  0  0  0  0  0  0  0  0  0  0
   11.3777  -16.9226   26.2706 C   0  0  0  0  0  0  0  0  0  0  0  0
   12.0744  -16.3530   27.1233 O   0  0  0  0  0  0  0  0  0  0  0  0
   11.8274  -18.1145   25.7581 O   0  0  0  0  0  0  0  0  0  0  0  0
  2  1  1  6
  3  2  1  0
  4  3  1  0
  5  4  2  0
  6  5  1  0
  7  6  1  0
  7  8  2  0
  8  4  1  0
  9  2  1  0
 10  9  2  0
 12 11  1  0
 12 14  1  0
 13 12  2  0
 15 14  1  0
 16 17  1  0
 16 15  1  1
 17  9  1  0
 18 16  1  0
 19 18  2  0
 20 18  1  0
 21 20  1  0
 22 23  1  0
 21 22  1  1
 23 24  2  0
 24 25  1  0
 26 27  2  0
 26 25  1  0
 28 27  1  0
 29 28  2  0
 30 29  1  0
 30 31  2  0
 31 23  1  0
 31 26  1  0
 32 21  1  0
 32 34  1  0
 33 32  2  0
M  END
$$$$
