HQW.pdb
     RDKit          3D

 34 36  0  0  1  0  0  0  0  0999 V2000
    7.9945  -16.9643   19.6229 N   0  0  0  0  0  0  0  0  0  0  0  0
    8.8980  -16.1785   20.4079 C   0  0  1  0  0  0  0  0  0  0  0  0
    8.3796  -14.8199   20.7616 C   0  0  0  0  0  0  0  0  0  0  0  0
    8.1428  -13.9501   19.6000 C   0  0  0  0  0  0  0  0  0  0  0  0
    7.0122  -13.7294   18.8456 C   0  0  0  0  0  0  0  0  0  0  0  0
    7.2587  -12.8463   17.8752 N   0  0  0  0  0  0  0  0  0  0  0  0
    8.5626  -12.5047   18.0186 C   0  0  0  0  0  0  0  0  0  0  0  0
    9.0888  -13.1664   19.0511 N   0  0  0  0  0  0  0  0  0  0  0  0
    9.1293  -16.9129   21.6981 C   0  0  0  0  0  0  0  0  0  0  0  0
    8.2117  -17.5984   22.2428 O   0  0  0  0  0  0  0  0  0  0  0  0
   12.1148  -20.8658   22.4359 N   0  0  0  0  0  0  0  0  0  0  0  0
   12.4967  -20.6396   23.7896 C   0  0  0  0  0  0  0  0  0  0  0  0
   12.8428  -21.5693   24.5456 O   0  0  0  0  0  0  0  0  0  0  0  0
   12.4743  -19.2211   24.3041 C   0  0  0  0  0  0  0  0  0  0  0  0
   11.9893  -18.3474   23.1951 C   0  0  0  0  0  0  0  0  0  0  0  0
   10.6607  -17.6819   23.5091 C   0  0  2  0  0  0  0  0  0  0  0  0
   10.3893  -16.8444   22.3222 N   0  0  0  0  0  0  0  0  0  0  0  0
   10.6490  -16.8810   24.7224 C   0  0  0  0  0  0  0  0  0  0  0  0
   11.2246  -15.7545   24.7041 O   0  0  0  0  0  0  0  0  0  0  0  0
   10.0204  -17.3231   25.8880 N   0  0  0  0  0  0  0  0  0  0  0  0
   10.0186  -16.6564   27.1685 C   0  0  1  0  0  0  0  0  0  0  0  0
    8.6227  -16.6738   27.7115 C   0  0  0  0  0  0  0  0  0  0  0  0
    7.6688  -15.9226   26.8580 C   0  0  0  0  0  0  0  0  0  0  0  0
    6.6944  -16.3908   26.0066 C   0  0  0  0  0  0  0  0  0  0  0  0
    6.0839  -15.3561   25.4504 N   0  0  0  0  0  0  0  0  0  0  0  0
    6.5868  -14.2035   25.8741 C   0  0  0  0  0  0  0  0  0  0  0  0
    6.2749  -12.8945   25.5764 C   0  0  0  0  0  0  0  0  0  0  0  0
    6.9788  -11.8515   26.1792 C   0  0  0  0  0  0  0  0  0  0  0  0
    7.9725  -12.1785   27.0614 C   0  0  0  0  0  0  0  0  0  0  0  0
    8.2703  -13.4826   27.3465 C   0  0  0  0  0  0  0  0  0  0  0  0
    7.5936  -14.5348   26.7678 C   0  0  0  0  0  0  0  0  0  0  0  0
   11.0224  -17.2178   28.1216 C   0  0  0  0  0  0  0  0  0  0  0  0
   11.6315  -18.2555   27.8229 O   0  0  0  0  0  0  0  0  0  0  0  0
   11.3029  -16.6271   29.3290 O   0  0  0  0  0  0  0  0  0  0  0  0
  2  1  1  6
  3  2  1  0
  4  3  1  0
  5  4  2  0
  6  5  1  0
  7  6  1  0
  7  8  2  0
  8  4  1  0
  9  2  1  0
 10  9  2  0
 12 11  1  0
 12 14  1  0
 13 12  2  0
 15 14  1  0
 16 17  1  0
 16 15  1  6
 17  9  1  0
 18 16  1  0
 19 18  2  0
 20 18  1  0
 21 20  1  0
 22 23  1  0
 21 22  1  1
 23 24  2  0
 24 25  1  0
 26 27  2  0
 26 25  1  0
 28 27  1  0
 29 28  2  0
 30 29  1  0
 30 31  2  0
 31 23  1  0
 31 26  1  0
 32 21  1  0
 32 34  1  0
 33 32  2  0
M  END
$$$$
