HQW.pdb
     RDKit          3D

 34 36  0  0  1  0  0  0  0  0999 V2000
    7.6508  -17.0374   19.5126 N   0  0  0  0  0  0  0  0  0  0  0  0
    8.6353  -16.2889   20.2340 C   0  0  1  0  0  0  0  0  0  0  0  0
    8.2610  -14.8606   20.4785 C   0  0  0  0  0  0  0  0  0  0  0  0
    8.1337  -14.0586   19.2527 C   0  0  0  0  0  0  0  0  0  0  0  0
    7.7765  -12.7427   19.0609 C   0  0  0  0  0  0  0  0  0  0  0  0
    7.7950  -12.4344   17.7620 N   0  0  0  0  0  0  0  0  0  0  0  0
    8.1688  -13.5710   17.1249 C   0  0  0  0  0  0  0  0  0  0  0  0
    8.3708  -14.5407   18.0191 N   0  0  0  0  0  0  0  0  0  0  0  0
    8.7992  -16.9391   21.5786 C   0  0  0  0  0  0  0  0  0  0  0  0
    7.8242  -17.4981   22.1663 O   0  0  0  0  0  0  0  0  0  0  0  0
   12.9745  -20.7807   22.3350 N   0  0  0  0  0  0  0  0  0  0  0  0
   12.9204  -20.4454   23.7185 C   0  0  0  0  0  0  0  0  0  0  0  0
   13.7800  -20.8407   24.5312 O   0  0  0  0  0  0  0  0  0  0  0  0
   11.7768  -19.5830   24.1939 C   0  0  0  0  0  0  0  0  0  0  0  0
   11.4138  -18.6609   23.0775 C   0  0  0  0  0  0  0  0  0  0  0  0
   10.2662  -17.7314   23.4323 C   0  0  2  0  0  0  0  0  0  0  0  0
   10.0591  -16.9325   22.2064 N   0  0  0  0  0  0  0  0  0  0  0  0
   10.5085  -16.8697   24.5779 C   0  0  0  0  0  0  0  0  0  0  0  0
   11.3321  -15.9179   24.4501 O   0  0  0  0  0  0  0  0  0  0  0  0
    9.8562  -17.0673   25.7963 N   0  0  0  0  0  0  0  0  0  0  0  0
   10.0789  -16.3325   27.0189 C   0  0  1  0  0  0  0  0  0  0  0  0
    8.7672  -16.1758   27.7250 C   0  0  0  0  0  0  0  0  0  0  0  0
    7.7764  -15.4126   26.9261 C   0  0  0  0  0  0  0  0  0  0  0  0
    6.6755  -15.8596   26.2318 C   0  0  0  0  0  0  0  0  0  0  0  0
    6.0809  -14.8213   25.6650 N   0  0  0  0  0  0  0  0  0  0  0  0
    6.7143  -13.6864   25.9329 C   0  0  0  0  0  0  0  0  0  0  0  0
    6.4665  -12.3813   25.5659 C   0  0  0  0  0  0  0  0  0  0  0  0
    7.3121  -11.3589   25.9973 C   0  0  0  0  0  0  0  0  0  0  0  0
    8.3772  -11.7017   26.7853 C   0  0  0  0  0  0  0  0  0  0  0  0
    8.6099  -13.0016   27.1412 C   0  0  0  0  0  0  0  0  0  0  0  0
    7.7934  -14.0337   26.7312 C   0  0  0  0  0  0  0  0  0  0  0  0
   11.1370  -16.9389   27.8812 C   0  0  0  0  0  0  0  0  0  0  0  0
   11.5745  -18.0659   27.6064 O   0  0  0  0  0  0  0  0  0  0  0  0
   11.6523  -16.2942   28.9787 O   0  0  0  0  0  0  0  0  0  0  0  0
  2  1  1  6
  3  2  1  0
  4  3  1  0
  5  4  2  0
  6  5  1  0
  7  6  1  0
  7  8  2  0
  8  4  1  0
  9  2  1  0
 10  9  2  0
 12 11  1  0
 12 14  1  0
 13 12  2  0
 15 14  1  0
 16 17  1  0
 16 15  1  6
 17  9  1  0
 18 16  1  0
 19 18  2  0
 20 18  1  0
 21 20  1  0
 22 23  1  0
 21 22  1  1
 23 24  2  0
 24 25  1  0
 26 27  2  0
 26 25  1  0
 28 27  1  0
 29 28  2  0
 30 29  1  0
 30 31  2  0
 31 23  1  0
 31 26  1  0
 32 21  1  0
 32 34  1  0
 33 32  2  0
M  END
$$$$
