HQW.pdb
     RDKit          3D

 34 36  0  0  1  0  0  0  0  0999 V2000
    7.0130  -16.6375   17.9767 N   0  0  0  0  0  0  0  0  0  0  0  0
    8.2968  -16.3640   18.5484 C   0  0  1  0  0  0  0  0  0  0  0  0
    8.6840  -14.9186   18.5213 C   0  0  0  0  0  0  0  0  0  0  0  0
    8.7778  -14.3509   17.1682 C   0  0  0  0  0  0  0  0  0  0  0  0
    8.0333  -13.3799   16.5367 C   0  0  0  0  0  0  0  0  0  0  0  0
    8.4781  -13.1796   15.2939 N   0  0  0  0  0  0  0  0  0  0  0  0
    9.5175  -14.0357   15.1384 C   0  0  0  0  0  0  0  0  0  0  0  0
    9.6945  -14.7349   16.2612 N   0  0  0  0  0  0  0  0  0  0  0  0
    8.2453  -16.7807   19.9910 C   0  0  0  0  0  0  0  0  0  0  0  0
    7.2061  -16.5997   20.6952 O   0  0  0  0  0  0  0  0  0  0  0  0
   10.8540  -21.7205   21.6691 N   0  0  0  0  0  0  0  0  0  0  0  0
   10.4368  -21.3712   22.9857 C   0  0  0  0  0  0  0  0  0  0  0  0
   10.5883  -22.1403   23.9558 O   0  0  0  0  0  0  0  0  0  0  0  0
    9.7929  -20.0216   23.1898 C   0  0  0  0  0  0  0  0  0  0  0  0
    9.7882  -19.3209   21.8717 C   0  0  0  0  0  0  0  0  0  0  0  0
    9.2823  -17.8920   21.9673 C   0  0  2  0  0  0  0  0  0  0  0  0
    9.3705  -17.3865   20.5815 N   0  0  0  0  0  0  0  0  0  0  0  0
   10.0272  -17.0388   22.8788 C   0  0  0  0  0  0  0  0  0  0  0  0
   11.0376  -16.4215   22.4333 O   0  0  0  0  0  0  0  0  0  0  0  0
    9.6516  -16.8872   24.2148 N   0  0  0  0  0  0  0  0  0  0  0  0
   10.4064  -16.2195   25.2487 C   0  0  1  0  0  0  0  0  0  0  0  0
    9.8919  -14.8193   25.3839 C   0  0  0  0  0  0  0  0  0  0  0  0
    8.4779  -14.7715   25.8320 C   0  0  0  0  0  0  0  0  0  0  0  0
    7.5358  -15.7736   25.8773 C   0  0  0  0  0  0  0  0  0  0  0  0
    6.4049  -15.2720   26.3486 N   0  0  0  0  0  0  0  0  0  0  0  0
    6.5201  -13.9800   26.6290 C   0  0  0  0  0  0  0  0  0  0  0  0
    5.6245  -13.0601   27.1299 C   0  0  0  0  0  0  0  0  0  0  0  0
    6.0179  -11.7369   27.3321 C   0  0  0  0  0  0  0  0  0  0  0  0
    7.3062  -11.3990   27.0177 C   0  0  0  0  0  0  0  0  0  0  0  0
    8.1834  -12.3236   26.5214 C   0  0  0  0  0  0  0  0  0  0  0  0
    7.8253  -13.6378   26.3103 C   0  0  0  0  0  0  0  0  0  0  0  0
   10.4133  -16.9661   26.5424 C   0  0  0  0  0  0  0  0  0  0  0  0
   11.0941  -16.5405   27.4872 O   0  0  0  0  0  0  0  0  0  0  0  0
    9.6897  -18.1174   26.7329 O   0  0  0  0  0  0  0  0  0  0  0  0
  2  1  1  1
  3  2  1  0
  4  3  1  0
  5  4  2  0
  6  5  1  0
  7  6  1  0
  7  8  2  0
  8  4  1  0
  9  2  1  0
 10  9  2  0
 12 11  1  0
 12 14  1  0
 13 12  2  0
 15 14  1  0
 16 17  1  0
 16 15  1  6
 17  9  1  0
 18 16  1  0
 19 18  2  0
 20 18  1  0
 21 20  1  0
 22 23  1  0
 21 22  1  1
 23 24  2  0
 24 25  1  0
 26 27  2  0
 26 25  1  0
 28 27  1  0
 29 28  2  0
 30 29  1  0
 30 31  2  0
 31 23  1  0
 31 26  1  0
 32 21  1  0
 32 34  1  0
 33 32  2  0
M  END
$$$$
