HQW.pdb
     RDKit          3D

 34 36  0  0  1  0  0  0  0  0999 V2000
    8.6492  -18.6968   18.0580 N   0  0  0  0  0  0  0  0  0  0  0  0
    9.4110  -18.5431   19.2605 C   0  0  1  0  0  0  0  0  0  0  0  0
   10.7146  -17.8324   19.0730 C   0  0  0  0  0  0  0  0  0  0  0  0
   11.6395  -18.5138   18.1552 C   0  0  0  0  0  0  0  0  0  0  0  0
   11.5157  -19.6878   17.4465 C   0  0  0  0  0  0  0  0  0  0  0  0
   12.6178  -19.9243   16.7310 N   0  0  0  0  0  0  0  0  0  0  0  0
   13.4489  -18.8856   16.9914 C   0  0  0  0  0  0  0  0  0  0  0  0
   12.8610  -18.0435   17.8435 N   0  0  0  0  0  0  0  0  0  0  0  0
    8.5905  -17.7178   20.2109 C   0  0  0  0  0  0  0  0  0  0  0  0
    7.9358  -16.7069   19.8137 O   0  0  0  0  0  0  0  0  0  0  0  0
    6.6193  -20.0414   25.3819 N   0  0  0  0  0  0  0  0  0  0  0  0
    6.5310  -20.5330   24.0477 C   0  0  0  0  0  0  0  0  0  0  0  0
    6.1918  -21.7060   23.7938 O   0  0  0  0  0  0  0  0  0  0  0  0
    6.8634  -19.5859   22.9207 C   0  0  0  0  0  0  0  0  0  0  0  0
    7.2324  -18.2736   23.5292 C   0  0  0  0  0  0  0  0  0  0  0  0
    7.7187  -17.2656   22.5025 C   0  0  2  0  0  0  0  0  0  0  0  0
    8.5417  -18.0678   21.5736 N   0  0  0  0  0  0  0  0  0  0  0  0
    8.4847  -16.1570   23.0485 C   0  0  0  0  0  0  0  0  0  0  0  0
    8.0779  -14.9796   22.8282 O   0  0  0  0  0  0  0  0  0  0  0  0
    9.6407  -16.3647   23.8033 N   0  0  0  0  0  0  0  0  0  0  0  0
    9.8807  -15.9050   25.1507 C   0  0  1  0  0  0  0  0  0  0  0  0
    8.6797  -16.2297   25.9848 C   0  0  0  0  0  0  0  0  0  0  0  0
    7.5694  -15.2651   25.7866 C   0  0  0  0  0  0  0  0  0  0  0  0
    6.3007  -15.4740   25.2960 C   0  0  0  0  0  0  0  0  0  0  0  0
    5.6500  -14.3210   25.2976 N   0  0  0  0  0  0  0  0  0  0  0  0
    6.4035  -13.3327   25.7628 C   0  0  0  0  0  0  0  0  0  0  0  0
    6.1556  -11.9893   25.9452 C   0  0  0  0  0  0  0  0  0  0  0  0
    7.1483  -11.1572   26.4635 C   0  0  0  0  0  0  0  0  0  0  0  0
    8.3549  -11.7219   26.7767 C   0  0  0  0  0  0  0  0  0  0  0  0
    8.5856  -13.0570   26.5900 C   0  0  0  0  0  0  0  0  0  0  0  0
    7.6259  -13.9048   26.0801 C   0  0  0  0  0  0  0  0  0  0  0  0
   11.1530  -16.4309   25.7301 C   0  0  0  0  0  0  0  0  0  0  0  0
   11.6004  -17.5164   25.3318 O   0  0  0  0  0  0  0  0  0  0  0  0
   11.8570  -15.7560   26.6967 O   0  0  0  0  0  0  0  0  0  0  0  0
  2  1  1  6
  3  2  1  0
  4  3  1  0
  5  4  2  0
  6  5  1  0
  7  6  1  0
  7  8  2  0
  8  4  1  0
  9  2  1  0
 10  9  2  0
 12 11  1  0
 12 14  1  0
 13 12  2  0
 15 14  1  0
 16 17  1  0
 16 15  1  1
 17  9  1  0
 18 16  1  0
 19 18  2  0
 20 18  1  0
 21 20  1  0
 22 23  1  0
 21 22  1  1
 23 24  2  0
 24 25  1  0
 26 27  2  0
 26 25  1  0
 28 27  1  0
 29 28  2  0
 30 29  1  0
 30 31  2  0
 31 23  1  0
 31 26  1  0
 32 21  1  0
 32 34  1  0
 33 32  2  0
M  END
$$$$
