HQW.pdb
     RDKit          3D

 34 36  0  0  1  0  0  0  0  0999 V2000
    8.3830  -17.8423   18.9689 N   0  0  0  0  0  0  0  0  0  0  0  0
    8.0678  -16.5674   19.5391 C   0  0  1  0  0  0  0  0  0  0  0  0
    7.1590  -15.7277   18.6972 C   0  0  0  0  0  0  0  0  0  0  0  0
    7.6960  -15.4198   17.3634 C   0  0  0  0  0  0  0  0  0  0  0  0
    8.8374  -15.8471   16.7227 C   0  0  0  0  0  0  0  0  0  0  0  0
    8.9254  -15.3046   15.5060 N   0  0  0  0  0  0  0  0  0  0  0  0
    7.8247  -14.5241   15.3766 C   0  0  0  0  0  0  0  0  0  0  0  0
    7.0912  -14.5951   16.4891 N   0  0  0  0  0  0  0  0  0  0  0  0
    7.3584  -16.8187   20.8396 C   0  0  0  0  0  0  0  0  0  0  0  0
    6.0922  -16.8270   20.9116 O   0  0  0  0  0  0  0  0  0  0  0  0
    6.1849  -21.2367   22.6915 N   0  0  0  0  0  0  0  0  0  0  0  0
    5.6155  -20.6440   23.8551 C   0  0  0  0  0  0  0  0  0  0  0  0
    4.9510  -21.3042   24.6786 O   0  0  0  0  0  0  0  0  0  0  0  0
    5.8361  -19.1678   24.0780 C   0  0  0  0  0  0  0  0  0  0  0  0
    6.6330  -18.6524   22.9258 C   0  0  0  0  0  0  0  0  0  0  0  0
    7.4102  -17.3925   23.2653 C   0  0  2  0  0  0  0  0  0  0  0  0
    8.1081  -17.0515   22.0081 N   0  0  0  0  0  0  0  0  0  0  0  0
    8.3552  -17.5329   24.3612 C   0  0  0  0  0  0  0  0  0  0  0  0
    7.9582  -18.0807   25.4302 O   0  0  0  0  0  0  0  0  0  0  0  0
    9.6733  -17.0852   24.2558 N   0  0  0  0  0  0  0  0  0  0  0  0
   10.2257  -15.8928   24.8537 C   0  0  1  0  0  0  0  0  0  0  0  0
    9.7506  -15.8080   26.2716 C   0  0  0  0  0  0  0  0  0  0  0  0
    8.3722  -15.2687   26.3805 C   0  0  0  0  0  0  0  0  0  0  0  0
    7.1706  -15.9356   26.4530 C   0  0  0  0  0  0  0  0  0  0  0  0
    6.1953  -15.0445   26.5395 N   0  0  0  0  0  0  0  0  0  0  0  0
    6.6628  -13.8025   26.5302 C   0  0  0  0  0  0  0  0  0  0  0  0
    6.0336  -12.5782   26.5985 C   0  0  0  0  0  0  0  0  0  0  0  0
    6.7834  -11.4020   26.5679 C   0  0  0  0  0  0  0  0  0  0  0  0
    8.1436  -11.5148   26.4692 C   0  0  0  0  0  0  0  0  0  0  0  0
    8.7534  -12.7372   26.4023 C   0  0  0  0  0  0  0  0  0  0  0  0
    8.0409  -13.9168   26.4301 C   0  0  0  0  0  0  0  0  0  0  0  0
   11.7121  -15.8115   24.7306 C   0  0  0  0  0  0  0  0  0  0  0  0
   12.3357  -16.7660   24.2436 O   0  0  0  0  0  0  0  0  0  0  0  0
   12.4264  -14.7120   25.1386 O   0  0  0  0  0  0  0  0  0  0  0  0
  2  1  1  6
  3  2  1  0
  4  3  1  0
  5  4  2  0
  6  5  1  0
  7  6  1  0
  7  8  2  0
  8  4  1  0
  9  2  1  0
 10  9  2  0
 12 11  1  0
 12 14  1  0
 13 12  2  0
 15 14  1  0
 16 17  1  0
 16 15  1  6
 17  9  1  0
 18 16  1  0
 19 18  2  0
 20 18  1  0
 21 20  1  0
 22 23  1  0
 21 22  1  1
 23 24  2  0
 24 25  1  0
 26 27  2  0
 26 25  1  0
 28 27  1  0
 29 28  2  0
 30 29  1  0
 30 31  2  0
 31 23  1  0
 31 26  1  0
 32 21  1  0
 32 34  1  0
 33 32  2  0
M  END
$$$$
