LEN.pdb
     RDKit          3D

 26 25  0  0  1  0  0  0  0  0999 V2000
    6.4784  -12.5919   19.8383 C   0  0  0  0  0  0  0  0  0  0  0  0
    7.3714  -13.4062   18.9689 C   0  0  1  0  0  0  0  0  0  0  0  0
    8.0909  -12.4332   18.0267 C   0  0  0  0  0  0  0  0  0  0  0  0
    8.4312  -14.1830   19.6681 C   0  0  0  0  0  0  0  0  0  0  0  0
    9.2980  -15.0206   18.7523 C   0  0  2  0  0  0  0  0  0  0  0  0
    8.4251  -16.0433   18.2026 N   0  0  0  0  0  0  0  0  0  0  0  0
   10.2677  -15.7287   19.6535 C   0  0  0  0  0  0  0  0  0  0  0  0
    9.9799  -16.7839   20.2688 O   0  0  0  0  0  0  0  0  0  0  0  0
   11.5978  -15.2016   19.8448 N   0  0  0  0  0  0  0  0  0  0  0  0
   12.5330  -15.7312   20.7933 C   0  0  1  0  0  0  0  0  0  0  0  0
   13.9452  -15.2458   20.5686 C   0  0  0  0  0  0  0  0  0  0  0  0
   14.5228  -15.6795   19.2546 C   0  0  0  0  0  0  0  0  0  0  0  0
   15.9259  -15.2190   19.1006 C   0  0  0  0  0  0  0  0  0  0  0  0
   16.2877  -14.4679   18.1811 O   0  0  0  0  0  0  0  0  0  0  0  0
   12.0880  -15.5421   22.2006 C   0  0  0  0  0  0  0  0  0  0  0  0
   11.1901  -14.6830   22.4822 O   0  0  0  0  0  0  0  0  0  0  0  0
   16.8522  -15.6584   20.0328 O   0  0  0  0  0  0  0  0  0  0  0  0
    8.0962  -16.3984   24.1440 N   0  0  0  0  0  0  0  0  0  0  0  0
    9.4175  -16.5070   24.5981 C   0  0  0  0  0  0  0  0  0  0  0  0
    9.7678  -15.9049   25.6698 O   0  0  0  0  0  0  0  0  0  0  0  0
   10.4612  -17.2968   23.8965 C   0  0  0  0  0  0  0  0  0  0  0  0
   11.8309  -16.8423   24.3557 C   0  0  2  0  0  0  0  0  0  0  0  0
   12.6095  -16.2762   23.3009 N   0  0  0  0  0  0  0  0  0  0  0  0
   12.5067  -17.9310   25.0905 C   0  0  0  0  0  0  0  0  0  0  0  0
   12.7967  -17.9115   26.4482 O   0  0  0  0  0  0  0  0  0  0  0  0
   12.8616  -18.9759   24.4650 O   0  0  0  0  0  0  0  0  0  0  0  0
  2  1  1  1
  2  3  1  0
  4  5  1  0
  4  2  1  0
  5  6  1  1
  7  5  1  0
  7  8  2  0
  9  7  1  0
 10  9  1  0
 10 11  1  1
 12 11  1  0
 12 13  1  0
 13 14  2  0
 15 10  1  0
 16 15  2  0
 17 13  1  0
 18 19  1  0
 19 21  1  0
 20 19  2  0
 22 21  1  6
 22 24  1  0
 22 23  1  0
 23 15  1  0
 24 25  1  0
 26 24  2  0
M  END
$$$$
