LEN.pdb
     RDKit          3D

 26 25  0  0  1  0  0  0  0  0999 V2000
    7.2591  -12.0652   20.5946 C   0  0  0  0  0  0  0  0  0  0  0  0
    7.6895  -13.4253   20.1690 C   0  0  1  0  0  0  0  0  0  0  0  0
    8.7840  -13.2400   19.1107 C   0  0  0  0  0  0  0  0  0  0  0  0
    8.2695  -14.2888   21.2337 C   0  0  0  0  0  0  0  0  0  0  0  0
    8.6563  -15.6769   20.7698 C   0  0  2  0  0  0  0  0  0  0  0  0
    7.4116  -16.3460   20.4336 N   0  0  0  0  0  0  0  0  0  0  0  0
    9.1972  -16.3710   21.9862 C   0  0  0  0  0  0  0  0  0  0  0  0
    8.4606  -16.8298   22.8927 O   0  0  0  0  0  0  0  0  0  0  0  0
   10.6213  -16.5356   22.1541 N   0  0  0  0  0  0  0  0  0  0  0  0
   11.2172  -17.1987   23.2765 C   0  0  1  0  0  0  0  0  0  0  0  0
   12.5031  -17.9109   22.9310 C   0  0  0  0  0  0  0  0  0  0  0  0
   13.1640  -18.5551   24.1128 C   0  0  0  0  0  0  0  0  0  0  0  0
   14.4238  -19.2381   23.7240 C   0  0  0  0  0  0  0  0  0  0  0  0
   14.6963  -20.3953   24.0803 O   0  0  0  0  0  0  0  0  0  0  0  0
   11.3669  -16.3030   24.4554 C   0  0  0  0  0  0  0  0  0  0  0  0
   11.3893  -15.0381   24.3044 O   0  0  0  0  0  0  0  0  0  0  0  0
   15.3169  -18.5355   22.9310 O   0  0  0  0  0  0  0  0  0  0  0  0
   10.0034  -13.0681   28.1360 N   0  0  0  0  0  0  0  0  0  0  0  0
    9.6648  -14.4253   28.0524 C   0  0  0  0  0  0  0  0  0  0  0  0
    9.1445  -15.0093   29.0634 O   0  0  0  0  0  0  0  0  0  0  0  0
    9.8765  -15.2476   26.8339 C   0  0  0  0  0  0  0  0  0  0  0  0
   11.1778  -16.0117   26.9616 C   0  0  2  0  0  0  0  0  0  0  0  0
   11.4925  -16.7694   25.7927 N   0  0  0  0  0  0  0  0  0  0  0  0
   11.1844  -16.7970   28.2127 C   0  0  0  0  0  0  0  0  0  0  0  0
   10.6614  -18.0758   28.3497 O   0  0  0  0  0  0  0  0  0  0  0  0
   11.6984  -16.2956   29.2583 O   0  0  0  0  0  0  0  0  0  0  0  0
  2  1  1  1
  2  3  1  0
  4  5  1  0
  4  2  1  0
  5  6  1  1
  7  5  1  0
  7  8  2  0
  9  7  1  0
 10  9  1  0
 10 11  1  6
 12 11  1  0
 12 13  1  0
 13 14  2  0
 15 10  1  0
 16 15  2  0
 17 13  1  0
 18 19  1  0
 19 21  1  0
 20 19  2  0
 22 21  1  6
 22 24  1  0
 22 23  1  0
 23 15  1  0
 24 25  1  0
 26 24  2  0
M  END
$$$$
