LEN.pdb
     RDKit          3D

 26 25  0  0  1  0  0  0  0  0999 V2000
    6.9799  -12.3314   21.1787 C   0  0  0  0  0  0  0  0  0  0  0  0
    7.5579  -13.6341   20.7480 C   0  0  1  0  0  0  0  0  0  0  0  0
    8.6034  -13.3272   19.6688 C   0  0  0  0  0  0  0  0  0  0  0  0
    8.2541  -14.4195   21.8035 C   0  0  0  0  0  0  0  0  0  0  0  0
    8.7282  -15.7853   21.3545 C   0  0  2  0  0  0  0  0  0  0  0  0
    7.5264  -16.5582   21.0928 N   0  0  0  0  0  0  0  0  0  0  0  0
    9.3763  -16.4020   22.5601 C   0  0  0  0  0  0  0  0  0  0  0  0
    8.7222  -16.9566   23.4763 O   0  0  0  0  0  0  0  0  0  0  0  0
   10.8121  -16.3744   22.7055 N   0  0  0  0  0  0  0  0  0  0  0  0
   11.5059  -16.9105   23.8395 C   0  0  1  0  0  0  0  0  0  0  0  0
   12.9432  -17.2657   23.5424 C   0  0  0  0  0  0  0  0  0  0  0  0
   13.0896  -18.3519   22.5191 C   0  0  0  0  0  0  0  0  0  0  0  0
   14.3643  -18.2220   21.7689 C   0  0  0  0  0  0  0  0  0  0  0  0
   14.5055  -18.6423   20.6096 O   0  0  0  0  0  0  0  0  0  0  0  0
   11.3746  -16.0516   25.0476 C   0  0  0  0  0  0  0  0  0  0  0  0
   11.3498  -14.7826   24.9360 O   0  0  0  0  0  0  0  0  0  0  0  0
   15.4261  -17.6030   22.4090 O   0  0  0  0  0  0  0  0  0  0  0  0
   10.0313  -13.2464   27.9692 N   0  0  0  0  0  0  0  0  0  0  0  0
    9.0398  -14.0217   27.3532 C   0  0  0  0  0  0  0  0  0  0  0  0
    7.9407  -13.4744   26.9980 O   0  0  0  0  0  0  0  0  0  0  0  0
    9.1893  -15.4737   27.0796 C   0  0  0  0  0  0  0  0  0  0  0  0
   10.5903  -15.9144   27.4492 C   0  0  2  0  0  0  0  0  0  0  0  0
   11.2708  -16.5590   26.3718 N   0  0  0  0  0  0  0  0  0  0  0  0
   10.5622  -16.6962   28.7022 C   0  0  0  0  0  0  0  0  0  0  0  0
   10.4969  -18.0814   28.7721 O   0  0  0  0  0  0  0  0  0  0  0  0
   10.5993  -16.0883   29.8149 O   0  0  0  0  0  0  0  0  0  0  0  0
  2  1  1  1
  2  3  1  0
  4  5  1  0
  4  2  1  0
  5  6  1  1
  7  5  1  0
  7  8  2  0
  9  7  1  0
 10  9  1  0
 10 11  1  6
 12 11  1  0
 12 13  1  0
 13 14  2  0
 15 10  1  0
 16 15  2  0
 17 13  1  0
 18 19  1  0
 19 21  1  0
 20 19  2  0
 22 21  1  6
 22 24  1  0
 22 23  1  0
 23 15  1  0
 24 25  1  0
 26 24  2  0
M  END
$$$$
