LEN.pdb
     RDKit          3D

 26 25  0  0  1  0  0  0  0  0999 V2000
    6.4743  -11.9218   26.7315 C   0  0  0  0  0  0  0  0  0  0  0  0
    6.4240  -12.8564   25.5738 C   0  0  1  0  0  0  0  0  0  0  0  0
    6.8931  -12.0722   24.3421 C   0  0  0  0  0  0  0  0  0  0  0  0
    7.2949  -14.0598   25.6687 C   0  0  0  0  0  0  0  0  0  0  0  0
    7.2284  -14.9749   24.4646 C   0  0  2  0  0  0  0  0  0  0  0  0
    5.8725  -15.4951   24.4337 N   0  0  0  0  0  0  0  0  0  0  0  0
    8.1220  -16.1359   24.7923 C   0  0  0  0  0  0  0  0  0  0  0  0
    7.7410  -17.1169   25.4759 O   0  0  0  0  0  0  0  0  0  0  0  0
    9.4849  -16.1587   24.3176 N   0  0  0  0  0  0  0  0  0  0  0  0
   10.4168  -17.2024   24.6289 C   0  0  1  0  0  0  0  0  0  0  0  0
   11.5572  -17.2932   23.6433 C   0  0  0  0  0  0  0  0  0  0  0  0
   11.1062  -17.3742   22.2155 C   0  0  0  0  0  0  0  0  0  0  0  0
   12.1606  -16.8964   21.2858 C   0  0  0  0  0  0  0  0  0  0  0  0
   11.9045  -16.4326   20.1634 O   0  0  0  0  0  0  0  0  0  0  0  0
   10.8916  -17.1423   26.0380 C   0  0  0  0  0  0  0  0  0  0  0  0
   12.0937  -16.8101   26.2989 O   0  0  0  0  0  0  0  0  0  0  0  0
   13.4772  -16.9815   21.7094 O   0  0  0  0  0  0  0  0  0  0  0  0
    7.4097  -21.1303   28.1056 N   0  0  0  0  0  0  0  0  0  0  0  0
    7.9548  -19.9095   27.6857 C   0  0  0  0  0  0  0  0  0  0  0  0
    7.2579  -18.8421   27.7787 O   0  0  0  0  0  0  0  0  0  0  0  0
    9.3241  -19.7743   27.1269 C   0  0  0  0  0  0  0  0  0  0  0  0
   10.0652  -18.6812   27.8683 C   0  0  2  0  0  0  0  0  0  0  0  0
   10.0734  -17.4401   27.1621 N   0  0  0  0  0  0  0  0  0  0  0  0
   11.4041  -19.1586   28.2700 C   0  0  0  0  0  0  0  0  0  0  0  0
   12.2872  -19.8361   27.4399 O   0  0  0  0  0  0  0  0  0  0  0  0
   11.8085  -18.9506   29.4541 O   0  0  0  0  0  0  0  0  0  0  0  0
  2  1  1  1
  2  3  1  0
  4  5  1  0
  4  2  1  0
  5  6  1  1
  7  5  1  0
  7  8  2  0
  9  7  1  0
 10  9  1  0
 10 11  1  6
 12 11  1  0
 12 13  1  0
 13 14  2  0
 15 10  1  0
 16 15  2  0
 17 13  1  0
 18 19  1  0
 19 21  1  0
 20 19  2  0
 22 21  1  6
 22 24  1  0
 22 23  1  0
 23 15  1  0
 24 25  1  0
 26 24  2  0
M  END
$$$$
