LEN.pdb
     RDKit          3D

 26 25  0  0  1  0  0  0  0  0999 V2000
    7.1215  -11.6819   26.9701 C   0  0  0  0  0  0  0  0  0  0  0  0
    6.5169  -12.7821   26.1699 C   0  0  1  0  0  0  0  0  0  0  0  0
    5.5810  -12.1304   25.1445 C   0  0  0  0  0  0  0  0  0  0  0  0
    7.4692  -13.6275   25.3993 C   0  0  0  0  0  0  0  0  0  0  0  0
    6.8646  -14.8976   24.8399 C   0  0  2  0  0  0  0  0  0  0  0  0
    5.9494  -15.3850   25.8572 N   0  0  0  0  0  0  0  0  0  0  0  0
    7.9933  -15.8853   24.7748 C   0  0  0  0  0  0  0  0  0  0  0  0
    8.3139  -16.6179   25.7420 O   0  0  0  0  0  0  0  0  0  0  0  0
    8.7655  -16.0254   23.5634 N   0  0  0  0  0  0  0  0  0  0  0  0
    9.8626  -16.9372   23.4220 C   0  0  1  0  0  0  0  0  0  0  0  0
   10.3753  -17.0335   22.0050 C   0  0  0  0  0  0  0  0  0  0  0  0
   11.5466  -17.9578   21.8563 C   0  0  0  0  0  0  0  0  0  0  0  0
   12.0294  -17.9999   20.4528 C   0  0  0  0  0  0  0  0  0  0  0  0
   13.2352  -18.0016   20.1587 O   0  0  0  0  0  0  0  0  0  0  0  0
   10.9527  -16.6750   24.4005 C   0  0  0  0  0  0  0  0  0  0  0  0
   11.0853  -15.5204   24.9228 O   0  0  0  0  0  0  0  0  0  0  0  0
   11.0772  -18.0380   19.4468 O   0  0  0  0  0  0  0  0  0  0  0  0
   11.3813  -17.3156   29.5316 N   0  0  0  0  0  0  0  0  0  0  0  0
   11.4625  -18.2357   28.4777 C   0  0  0  0  0  0  0  0  0  0  0  0
   11.9299  -19.4052   28.6957 O   0  0  0  0  0  0  0  0  0  0  0  0
   11.0287  -17.9307   27.0905 C   0  0  0  0  0  0  0  0  0  0  0  0
   12.2310  -17.9542   26.1699 C   0  0  2  0  0  0  0  0  0  0  0  0
   11.8969  -17.6542   24.8143 N   0  0  0  0  0  0  0  0  0  0  0  0
   12.9790  -19.2160   26.3446 C   0  0  0  0  0  0  0  0  0  0  0  0
   12.5103  -20.4726   25.9854 O   0  0  0  0  0  0  0  0  0  0  0  0
   14.1386  -19.1850   26.8576 O   0  0  0  0  0  0  0  0  0  0  0  0
  2  1  1  6
  2  3  1  0
  4  5  1  0
  4  2  1  0
  5  6  1  1
  7  5  1  0
  7  8  2  0
  9  7  1  0
 10  9  1  0
 10 11  1  6
 12 11  1  0
 12 13  1  0
 13 14  2  0
 15 10  1  0
 16 15  2  0
 17 13  1  0
 18 19  1  0
 19 21  1  0
 20 19  2  0
 22 21  1  1
 22 24  1  0
 22 23  1  0
 23 15  1  0
 24 25  1  0
 26 24  2  0
M  END
$$$$
