LEN.pdb
     RDKit          3D

 26 25  0  0  1  0  0  0  0  0999 V2000
    7.5251  -12.2884   21.7835 C   0  0  0  0  0  0  0  0  0  0  0  0
    7.4544  -13.5690   21.0278 C   0  0  1  0  0  0  0  0  0  0  0  0
    7.5370  -13.2169   19.5374 C   0  0  0  0  0  0  0  0  0  0  0  0
    8.5458  -14.5452   21.2951 C   0  0  0  0  0  0  0  0  0  0  0  0
    8.3922  -15.8665   20.5725 C   0  0  2  0  0  0  0  0  0  0  0  0
    7.1980  -16.4848   21.1219 N   0  0  0  0  0  0  0  0  0  0  0  0
    9.5517  -16.7076   21.0219 C   0  0  0  0  0  0  0  0  0  0  0  0
    9.5306  -17.3899   22.0749 O   0  0  0  0  0  0  0  0  0  0  0  0
   10.7600  -16.7575   20.2338 N   0  0  0  0  0  0  0  0  0  0  0  0
   11.8956  -17.5643   20.5716 C   0  0  1  0  0  0  0  0  0  0  0  0
   12.7063  -17.9815   19.3679 C   0  0  0  0  0  0  0  0  0  0  0  0
   11.9435  -18.8399   18.4037 C   0  0  0  0  0  0  0  0  0  0  0  0
   12.7580  -19.1653   17.2057 C   0  0  0  0  0  0  0  0  0  0  0  0
   13.8524  -19.7465   17.2770 O   0  0  0  0  0  0  0  0  0  0  0  0
   12.7372  -16.9496   21.6339 C   0  0  0  0  0  0  0  0  0  0  0  0
   12.9593  -15.6950   21.6340 O   0  0  0  0  0  0  0  0  0  0  0  0
   12.2563  -18.7955   15.9681 O   0  0  0  0  0  0  0  0  0  0  0  0
   14.4622  -16.6252   27.1084 N   0  0  0  0  0  0  0  0  0  0  0  0
   14.9827  -17.3504   26.0282 C   0  0  0  0  0  0  0  0  0  0  0  0
   16.2484  -17.4821   25.9080 O   0  0  0  0  0  0  0  0  0  0  0  0
   14.1364  -17.9918   24.9899 C   0  0  0  0  0  0  0  0  0  0  0  0
   14.1108  -17.1200   23.7517 C   0  0  2  0  0  0  0  0  0  0  0  0
   13.3377  -17.6850   22.6922 N   0  0  0  0  0  0  0  0  0  0  0  0
   15.4869  -16.7470   23.3654 C   0  0  0  0  0  0  0  0  0  0  0  0
   16.1314  -17.1756   22.2128 O   0  0  0  0  0  0  0  0  0  0  0  0
   16.1576  -15.9792   24.1202 O   0  0  0  0  0  0  0  0  0  0  0  0
  2  1  1  1
  2  3  1  0
  4  5  1  0
  4  2  1  0
  5  6  1  1
  7  5  1  0
  7  8  2  0
  9  7  1  0
 10  9  1  0
 10 11  1  6
 12 11  1  0
 12 13  1  0
 13 14  2  0
 15 10  1  0
 16 15  2  0
 17 13  1  0
 18 19  1  0
 19 21  1  0
 20 19  2  0
 22 21  1  1
 22 24  1  0
 22 23  1  0
 23 15  1  0
 24 25  1  0
 26 24  2  0
M  END
$$$$
