LEN.pdb
     RDKit          3D

 26 25  0  0  1  0  0  0  0  0999 V2000
    6.2521  -11.4815   26.3743 C   0  0  0  0  0  0  0  0  0  0  0  0
    6.0048  -12.6869   25.5363 C   0  0  1  0  0  0  0  0  0  0  0  0
    5.9444  -12.2160   24.0779 C   0  0  0  0  0  0  0  0  0  0  0  0
    7.0463  -13.7486   25.5974 C   0  0  0  0  0  0  0  0  0  0  0  0
    6.7421  -14.9704   24.7571 C   0  0  2  0  0  0  0  0  0  0  0  0
    5.6291  -15.6367   25.4107 N   0  0  0  0  0  0  0  0  0  0  0  0
    7.9309  -15.8734   24.9158 C   0  0  0  0  0  0  0  0  0  0  0  0
    8.0954  -16.6137   25.9157 O   0  0  0  0  0  0  0  0  0  0  0  0
    8.9493  -15.9180   23.8939 N   0  0  0  0  0  0  0  0  0  0  0  0
   10.0951  -16.7774   23.9516 C   0  0  1  0  0  0  0  0  0  0  0  0
   10.8937  -16.7887   22.6701 C   0  0  0  0  0  0  0  0  0  0  0  0
   12.1301  -17.6337   22.7455 C   0  0  0  0  0  0  0  0  0  0  0  0
   12.8678  -17.6315   21.4569 C   0  0  0  0  0  0  0  0  0  0  0  0
   13.2400  -18.6742   20.8960 O   0  0  0  0  0  0  0  0  0  0  0  0
   10.9454  -16.5160   25.1447 C   0  0  0  0  0  0  0  0  0  0  0  0
   11.1192  -15.3251   25.5631 O   0  0  0  0  0  0  0  0  0  0  0  0
   13.1411  -16.4038   20.8754 O   0  0  0  0  0  0  0  0  0  0  0  0
   11.4976  -15.9343   30.2643 N   0  0  0  0  0  0  0  0  0  0  0  0
   11.0920  -17.0718   29.5533 C   0  0  0  0  0  0  0  0  0  0  0  0
   11.0322  -18.2006   30.1498 O   0  0  0  0  0  0  0  0  0  0  0  0
   10.7177  -17.0477   28.1164 C   0  0  0  0  0  0  0  0  0  0  0  0
   11.9043  -17.4777   27.2793 C   0  0  2  0  0  0  0  0  0  0  0  0
   11.6065  -17.5349   25.8839 N   0  0  0  0  0  0  0  0  0  0  0  0
   12.4871  -18.7201   27.8259 C   0  0  0  0  0  0  0  0  0  0  0  0
   13.3968  -18.7762   28.8733 O   0  0  0  0  0  0  0  0  0  0  0  0
   12.1529  -19.8362   27.3243 O   0  0  0  0  0  0  0  0  0  0  0  0
  2  1  1  1
  2  3  1  0
  4  5  1  0
  4  2  1  0
  5  6  1  1
  7  5  1  0
  7  8  2  0
  9  7  1  0
 10  9  1  0
 10 11  1  6
 12 11  1  0
 12 13  1  0
 13 14  2  0
 15 10  1  0
 16 15  2  0
 17 13  1  0
 18 19  1  0
 19 21  1  0
 20 19  2  0
 22 21  1  1
 22 24  1  0
 22 23  1  0
 23 15  1  0
 24 25  1  0
 26 24  2  0
M  END
$$$$
