LEN.pdb
     RDKit          3D

 26 25  0  0  1  0  0  0  0  0999 V2000
    6.5846  -11.7754   26.9871 C   0  0  0  0  0  0  0  0  0  0  0  0
    6.3172  -12.7420   25.8868 C   0  0  1  0  0  0  0  0  0  0  0  0
    6.4912  -11.9804   24.5670 C   0  0  0  0  0  0  0  0  0  0  0  0
    7.2232  -13.9211   25.8200 C   0  0  0  0  0  0  0  0  0  0  0  0
    6.9544  -14.8495   24.6549 C   0  0  2  0  0  0  0  0  0  0  0  0
    5.7121  -15.5338   24.9689 N   0  0  0  0  0  0  0  0  0  0  0  0
    8.0374  -15.8877   24.7101 C   0  0  0  0  0  0  0  0  0  0  0  0
    7.9929  -16.8782   25.4793 O   0  0  0  0  0  0  0  0  0  0  0  0
    9.1953  -15.7739   23.8558 N   0  0  0  0  0  0  0  0  0  0  0  0
   10.1999  -16.7899   23.7405 C   0  0  1  0  0  0  0  0  0  0  0  0
   11.1887  -16.5235   22.6308 C   0  0  0  0  0  0  0  0  0  0  0  0
   10.6031  -16.6823   21.2596 C   0  0  0  0  0  0  0  0  0  0  0  0
   11.5828  -17.2798   20.3173 C   0  0  0  0  0  0  0  0  0  0  0  0
   12.7952  -17.0168   20.3551 O   0  0  0  0  0  0  0  0  0  0  0  0
   10.8705  -17.0797   25.0370 C   0  0  0  0  0  0  0  0  0  0  0  0
   11.3369  -16.1301   25.7471 O   0  0  0  0  0  0  0  0  0  0  0  0
   11.1014  -18.1641   19.3653 O   0  0  0  0  0  0  0  0  0  0  0  0
   12.0931  -21.3068   29.1502 N   0  0  0  0  0  0  0  0  0  0  0  0
   11.6217  -20.0162   28.8749 C   0  0  0  0  0  0  0  0  0  0  0  0
   11.8482  -19.0712   29.7052 O   0  0  0  0  0  0  0  0  0  0  0  0
   10.8580  -19.6685   27.6495 C   0  0  0  0  0  0  0  0  0  0  0  0
   11.6649  -18.6992   26.8110 C   0  0  2  0  0  0  0  0  0  0  0  0
   11.0382  -18.3887   25.5659 N   0  0  0  0  0  0  0  0  0  0  0  0
   13.0580  -19.1743   26.6863 C   0  0  0  0  0  0  0  0  0  0  0  0
   14.0509  -18.9802   27.6372 O   0  0  0  0  0  0  0  0  0  0  0  0
   13.4067  -19.8105   25.6458 O   0  0  0  0  0  0  0  0  0  0  0  0
  2  1  1  1
  2  3  1  0
  4  5  1  0
  4  2  1  0
  5  6  1  1
  7  5  1  0
  7  8  2  0
  9  7  1  0
 10  9  1  0
 10 11  1  6
 12 11  1  0
 12 13  1  0
 13 14  2  0
 15 10  1  0
 16 15  2  0
 17 13  1  0
 18 19  1  0
 19 21  1  0
 20 19  2  0
 22 21  1  6
 22 24  1  0
 22 23  1  0
 23 15  1  0
 24 25  1  0
 26 24  2  0
M  END
$$$$
