LEN.pdb
     RDKit          3D

 26 25  0  0  1  0  0  0  0  0999 V2000
    7.1264  -12.4388   27.8115 C   0  0  0  0  0  0  0  0  0  0  0  0
    6.6397  -13.1527   26.5992 C   0  0  1  0  0  0  0  0  0  0  0  0
    6.6307  -12.1354   25.4515 C   0  0  0  0  0  0  0  0  0  0  0  0
    7.4682  -14.3018   26.1423 C   0  0  0  0  0  0  0  0  0  0  0  0
    6.9184  -15.0253   24.9315 C   0  0  2  0  0  0  0  0  0  0  0  0
    5.7066  -15.6890   25.3800 N   0  0  0  0  0  0  0  0  0  0  0  0
    7.9099  -16.1107   24.6274 C   0  0  0  0  0  0  0  0  0  0  0  0
    8.0545  -17.1242   25.3531 O   0  0  0  0  0  0  0  0  0  0  0  0
    8.7507  -16.0180   23.4578 N   0  0  0  0  0  0  0  0  0  0  0  0
    9.7905  -16.9558   23.1508 C   0  0  1  0  0  0  0  0  0  0  0  0
   10.2579  -16.8754   21.7172 C   0  0  0  0  0  0  0  0  0  0  0  0
   11.3610  -17.8385   21.3949 C   0  0  0  0  0  0  0  0  0  0  0  0
   11.7429  -17.7659   19.9619 C   0  0  0  0  0  0  0  0  0  0  0  0
   11.8930  -18.7758   19.2562 O   0  0  0  0  0  0  0  0  0  0  0  0
   10.9200  -16.8927   24.1176 C   0  0  0  0  0  0  0  0  0  0  0  0
   11.6199  -15.8332   24.2219 O   0  0  0  0  0  0  0  0  0  0  0  0
   11.9345  -16.5088   19.4112 O   0  0  0  0  0  0  0  0  0  0  0  0
   10.6688  -20.2151   27.6647 N   0  0  0  0  0  0  0  0  0  0  0  0
   10.9077  -18.8629   27.3849 C   0  0  0  0  0  0  0  0  0  0  0  0
    9.9217  -18.0560   27.2828 O   0  0  0  0  0  0  0  0  0  0  0  0
   12.2666  -18.2944   27.1957 C   0  0  0  0  0  0  0  0  0  0  0  0
   12.5052  -18.0389   25.7221 C   0  0  2  0  0  0  0  0  0  0  0  0
   11.2941  -17.9684   24.9688 N   0  0  0  0  0  0  0  0  0  0  0  0
   13.4923  -19.0023   25.1936 C   0  0  0  0  0  0  0  0  0  0  0  0
   13.2981  -19.8064   24.0785 O   0  0  0  0  0  0  0  0  0  0  0  0
   14.6110  -19.1293   25.7778 O   0  0  0  0  0  0  0  0  0  0  0  0
  2  1  1  1
  2  3  1  0
  4  5  1  0
  4  2  1  0
  5  6  1  1
  7  5  1  0
  7  8  2  0
  9  7  1  0
 10  9  1  0
 10 11  1  6
 12 11  1  0
 12 13  1  0
 13 14  2  0
 15 10  1  0
 16 15  2  0
 17 13  1  0
 18 19  1  0
 19 21  1  0
 20 19  2  0
 22 21  1  1
 22 24  1  0
 22 23  1  0
 23 15  1  0
 24 25  1  0
 26 24  2  0
M  END
$$$$
