LEN.pdb
     RDKit          3D

 26 25  0  0  1  0  0  0  0  0999 V2000
    6.6711  -11.7968   27.4000 C   0  0  0  0  0  0  0  0  0  0  0  0
    6.2977  -12.7077   26.2832 C   0  0  1  0  0  0  0  0  0  0  0  0
    6.6169  -11.9713   24.9763 C   0  0  0  0  0  0  0  0  0  0  0  0
    7.0252  -14.0051   26.2287 C   0  0  0  0  0  0  0  0  0  0  0  0
    6.6143  -14.9035   25.0816 C   0  0  2  0  0  0  0  0  0  0  0  0
    5.4419  -15.6269   25.5422 N   0  0  0  0  0  0  0  0  0  0  0  0
    7.7146  -15.9164   24.9504 C   0  0  0  0  0  0  0  0  0  0  0  0
    7.9216  -16.8119   25.8048 O   0  0  0  0  0  0  0  0  0  0  0  0
    8.5925  -15.8892   23.8049 N   0  0  0  0  0  0  0  0  0  0  0  0
    9.6473  -16.8358   23.5902 C   0  0  1  0  0  0  0  0  0  0  0  0
   10.3220  -16.6783   22.2485 C   0  0  0  0  0  0  0  0  0  0  0  0
   11.4275  -17.6647   22.0176 C   0  0  0  0  0  0  0  0  0  0  0  0
   11.9914  -17.5369   20.6500 C   0  0  0  0  0  0  0  0  0  0  0  0
   12.9072  -16.7460   20.3739 O   0  0  0  0  0  0  0  0  0  0  0  0
   10.6234  -16.8675   24.7130 C   0  0  0  0  0  0  0  0  0  0  0  0
   11.3112  -15.8334   24.9977 O   0  0  0  0  0  0  0  0  0  0  0  0
   11.4580  -18.3434   19.6574 O   0  0  0  0  0  0  0  0  0  0  0  0
    9.6021  -19.8567   26.8397 N   0  0  0  0  0  0  0  0  0  0  0  0
   10.3684  -19.4569   27.9427 C   0  0  0  0  0  0  0  0  0  0  0  0
   10.3081  -20.1275   29.0293 O   0  0  0  0  0  0  0  0  0  0  0  0
   11.2683  -18.2756   27.9285 C   0  0  0  0  0  0  0  0  0  0  0  0
   11.8556  -18.1062   26.5428 C   0  0  2  0  0  0  0  0  0  0  0  0
   10.8576  -18.0102   25.5259 N   0  0  0  0  0  0  0  0  0  0  0  0
   12.8761  -19.1449   26.2941 C   0  0  0  0  0  0  0  0  0  0  0  0
   14.0056  -19.3508   27.0749 O   0  0  0  0  0  0  0  0  0  0  0  0
   12.7412  -19.9236   25.3019 O   0  0  0  0  0  0  0  0  0  0  0  0
  2  1  1  1
  2  3  1  0
  4  5  1  0
  4  2  1  0
  5  6  1  1
  7  5  1  0
  7  8  2  0
  9  7  1  0
 10  9  1  0
 10 11  1  6
 12 11  1  0
 12 13  1  0
 13 14  2  0
 15 10  1  0
 16 15  2  0
 17 13  1  0
 18 19  1  0
 19 21  1  0
 20 19  2  0
 22 21  1  1
 22 24  1  0
 22 23  1  0
 23 15  1  0
 24 25  1  0
 26 24  2  0
M  END
$$$$
