LEN.pdb
     RDKit          3D

 26 25  0  0  1  0  0  0  0  0999 V2000
    6.4434  -11.6422   26.5303 C   0  0  0  0  0  0  0  0  0  0  0  0
    6.3723  -12.7118   25.4972 C   0  0  1  0  0  0  0  0  0  0  0  0
    6.6196  -12.0429   24.1395 C   0  0  0  0  0  0  0  0  0  0  0  0
    7.3742  -13.8057   25.6210 C   0  0  0  0  0  0  0  0  0  0  0  0
    7.1893  -14.9362   24.6313 C   0  0  2  0  0  0  0  0  0  0  0  0
    5.9019  -15.5325   24.9431 N   0  0  0  0  0  0  0  0  0  0  0  0
    8.2292  -15.9581   24.9896 C   0  0  0  0  0  0  0  0  0  0  0  0
    8.0747  -16.7917   25.9149 O   0  0  0  0  0  0  0  0  0  0  0  0
    9.4733  -16.0135   24.2599 N   0  0  0  0  0  0  0  0  0  0  0  0
   10.5180  -16.9536   24.5416 C   0  0  1  0  0  0  0  0  0  0  0  0
   11.5936  -16.9808   23.4821 C   0  0  0  0  0  0  0  0  0  0  0  0
   11.0697  -17.2743   22.1081 C   0  0  0  0  0  0  0  0  0  0  0  0
   12.1523  -17.2258   21.0931 C   0  0  0  0  0  0  0  0  0  0  0  0
   13.3331  -16.9779   21.3840 O   0  0  0  0  0  0  0  0  0  0  0  0
   11.0780  -16.7916   25.9108 C   0  0  0  0  0  0  0  0  0  0  0  0
   12.0792  -16.0294   26.1111 O   0  0  0  0  0  0  0  0  0  0  0  0
   11.8070  -17.4702   19.7736 O   0  0  0  0  0  0  0  0  0  0  0  0
    9.1185  -14.9231   28.4908 N   0  0  0  0  0  0  0  0  0  0  0  0
   10.2516  -15.4376   29.1351 C   0  0  0  0  0  0  0  0  0  0  0  0
   11.1907  -14.6456   29.4883 O   0  0  0  0  0  0  0  0  0  0  0  0
   10.4344  -16.8792   29.4415 C   0  0  0  0  0  0  0  0  0  0  0  0
   11.2186  -17.5362   28.3248 C   0  0  2  0  0  0  0  0  0  0  0  0
   10.5607  -17.4495   27.0603 N   0  0  0  0  0  0  0  0  0  0  0  0
   11.6041  -18.9079   28.7145 C   0  0  0  0  0  0  0  0  0  0  0  0
   11.3605  -20.0460   27.9574 O   0  0  0  0  0  0  0  0  0  0  0  0
   12.2038  -19.0954   29.8163 O   0  0  0  0  0  0  0  0  0  0  0  0
  2  1  1  1
  2  3  1  0
  4  5  1  0
  4  2  1  0
  5  6  1  1
  7  5  1  0
  7  8  2  0
  9  7  1  0
 10  9  1  0
 10 11  1  6
 12 11  1  0
 12 13  1  0
 13 14  2  0
 15 10  1  0
 16 15  2  0
 17 13  1  0
 18 19  1  0
 19 21  1  0
 20 19  2  0
 22 21  1  1
 22 24  1  0
 22 23  1  0
 23 15  1  0
 24 25  1  0
 26 24  2  0
M  END
$$$$
