HKC.pdb
     RDKit          3D

 26 26  0  0  1  0  0  0  0  0999 V2000
   21.0585  -20.8781  -14.8312 N   0  0  0  0  0  0  0  0  0  0  0  0
   21.2375  -19.8804  -15.8672 C   0  0  1  0  0  0  0  0  0  0  0  0
   19.9310  -19.0827  -15.9374 C   0  0  0  0  0  0  0  0  0  0  0  0
   18.8448  -19.9177  -16.5024 C   0  0  0  0  0  0  0  0  0  0  0  0
   17.5850  -20.0967  -15.9828 C   0  0  0  0  0  0  0  0  0  0  0  0
   16.8873  -20.9350  -16.7953 N   0  0  0  0  0  0  0  0  0  0  0  0
   17.7063  -21.2683  -17.8023 C   0  0  0  0  0  0  0  0  0  0  0  0
   18.8974  -20.6438  -17.6159 N   0  0  0  0  0  0  0  0  0  0  0  0
   22.3659  -19.0246  -15.5082 C   0  0  0  0  0  0  0  0  0  0  0  0
   22.4524  -18.5297  -14.3672 O   0  0  0  0  0  0  0  0  0  0  0  0
   23.4324  -18.6959  -16.4139 N   0  0  0  0  0  0  0  0  0  0  0  0
   24.5479  -17.8744  -16.0287 C   0  0  1  0  0  0  0  0  0  0  0  0
   25.7808  -18.4777  -16.7225 C   0  0  0  0  0  0  0  0  0  0  0  0
   25.9521  -19.8769  -16.2011 C   0  0  0  0  0  0  0  0  0  0  0  0
   27.1651  -20.5455  -16.8105 C   0  0  0  0  0  0  0  0  0  0  0  0
   27.2934  -21.9267  -16.2543 C   0  0  0  0  0  0  0  0  0  0  0  0
   28.4398  -22.5616  -16.9019 N   0  0  0  0  0  0  0  0  0  0  0  0
   24.3964  -16.4575  -16.3454 C   0  0  0  0  0  0  0  0  0  0  0  0
   23.8373  -16.0627  -17.4002 O   0  0  0  0  0  0  0  0  0  0  0  0
   24.8838  -15.4643  -15.4573 N   0  0  0  0  0  0  0  0  0  0  0  0
   24.7312  -14.0637  -15.7904 C   0  0  1  0  0  0  0  0  0  0  0  0
   25.1261  -13.2440  -14.6023 C   0  0  0  0  0  0  0  0  0  0  0  0
   24.8528  -11.4808  -14.9445 S   0  0  0  0  0  0  0  0  0  0  0  0
   25.5438  -13.6774  -16.9616 C   0  0  0  0  0  0  0  0  0  0  0  0
   26.6770  -14.1949  -17.0910 O   0  0  0  0  0  0  0  0  0  0  0  0
   25.1015  -12.7779  -17.9043 O   0  0  0  0  0  0  0  0  0  0  0  0
  2  1  1  1
  3  2  1  0
  4  3  1  0
  5  4  2  0
  6  7  1  0
  6  5  1  0
  7  8  2  0
  8  4  1  0
  9  2  1  0
  9 11  1  0
 10  9  2  0
 12 11  1  0
 12 13  1  6
 13 14  1  0
 14 15  1  0
 15 16  1  0
 17 16  1  0
 18 12  1  0
 19 18  2  0
 20 18  1  0
 21 20  1  0
 21 22  1  1
 22 23  1  0
 24 21  1  0
 25 24  2  0
 26 24  1  0
M  END
$$$$
