HKC.pdb
     RDKit          3D

 26 26  0  0  1  0  0  0  0  0999 V2000
   18.6838  -19.9412  -16.4000 N   0  0  0  0  0  0  0  0  0  0  0  0
   19.7563  -19.1722  -15.8005 C   0  0  1  0  0  0  0  0  0  0  0  0
   19.1020  -18.2160  -14.7976 C   0  0  0  0  0  0  0  0  0  0  0  0
   18.4908  -17.0651  -15.5033 C   0  0  0  0  0  0  0  0  0  0  0  0
   17.1943  -16.9625  -15.9481 C   0  0  0  0  0  0  0  0  0  0  0  0
   17.0267  -15.7516  -16.5444 N   0  0  0  0  0  0  0  0  0  0  0  0
   18.2042  -15.1164  -16.4680 C   0  0  0  0  0  0  0  0  0  0  0  0
   19.0909  -15.9242  -15.8319 N   0  0  0  0  0  0  0  0  0  0  0  0
   20.6807  -20.0891  -15.1376 C   0  0  0  0  0  0  0  0  0  0  0  0
   20.3202  -20.7488  -14.1431 O   0  0  0  0  0  0  0  0  0  0  0  0
   22.0369  -20.2965  -15.5663 N   0  0  0  0  0  0  0  0  0  0  0  0
   22.9333  -21.1930  -14.8879 C   0  0  1  0  0  0  0  0  0  0  0  0
   23.5831  -22.0552  -15.9832 C   0  0  0  0  0  0  0  0  0  0  0  0
   24.5077  -23.0260  -15.3038 C   0  0  0  0  0  0  0  0  0  0  0  0
   25.2547  -23.8710  -16.3126 C   0  0  0  0  0  0  0  0  0  0  0  0
   26.1687  -24.8048  -15.5873 C   0  0  0  0  0  0  0  0  0  0  0  0
   26.8883  -25.5893  -16.5891 N   0  0  0  0  0  0  0  0  0  0  0  0
   23.9387  -20.5343  -14.0596 C   0  0  0  0  0  0  0  0  0  0  0  0
   24.5026  -19.4671  -14.4117 O   0  0  0  0  0  0  0  0  0  0  0  0
   24.3176  -21.0876  -12.8093 N   0  0  0  0  0  0  0  0  0  0  0  0
   25.4373  -20.5261  -12.0836 C   0  0  1  0  0  0  0  0  0  0  0  0
   25.5053  -21.1718  -10.7352 C   0  0  0  0  0  0  0  0  0  0  0  0
   26.8260  -20.4104   -9.7469 S   0  0  0  0  0  0  0  0  0  0  0  0
   26.7161  -20.7154  -12.7979 C   0  0  0  0  0  0  0  0  0  0  0  0
   26.9502  -21.8375  -13.3028 O   0  0  0  0  0  0  0  0  0  0  0  0
   27.6478  -19.7110  -12.9252 O   0  0  0  0  0  0  0  0  0  0  0  0
  2  1  1  1
  3  2  1  0
  4  3  1  0
  5  4  2  0
  6  7  1  0
  6  5  1  0
  7  8  2  0
  8  4  1  0
  9  2  1  0
  9 11  1  0
 10  9  2  0
 12 11  1  0
 12 13  1  6
 13 14  1  0
 14 15  1  0
 15 16  1  0
 17 16  1  0
 18 12  1  0
 19 18  2  0
 20 18  1  0
 21 20  1  0
 21 22  1  1
 22 23  1  0
 24 21  1  0
 25 24  2  0
 26 24  1  0
M  END
$$$$
