HKC.pdb
     RDKit          3D

 26 26  0  0  1  0  0  0  0  0999 V2000
   23.4994  -16.0256  -17.4072 N   0  0  0  0  0  0  0  0  0  0  0  0
   22.3005  -15.4273  -16.8548 C   0  0  1  0  0  0  0  0  0  0  0  0
   22.1888  -15.9246  -15.4096 C   0  0  0  0  0  0  0  0  0  0  0  0
   21.7946  -17.3530  -15.3831 C   0  0  0  0  0  0  0  0  0  0  0  0
   22.5279  -18.4210  -15.8423 C   0  0  0  0  0  0  0  0  0  0  0  0
   21.8192  -19.5637  -15.6377 N   0  0  0  0  0  0  0  0  0  0  0  0
   20.6645  -19.2046  -15.0601 C   0  0  0  0  0  0  0  0  0  0  0  0
   20.6578  -17.8554  -14.9086 N   0  0  0  0  0  0  0  0  0  0  0  0
   22.4306  -13.9731  -16.9094 C   0  0  0  0  0  0  0  0  0  0  0  0
   23.4788  -13.4127  -16.5332 O   0  0  0  0  0  0  0  0  0  0  0  0
   21.3926  -13.1007  -17.3863 N   0  0  0  0  0  0  0  0  0  0  0  0
   21.5685  -11.6777  -17.4953 C   0  0  1  0  0  0  0  0  0  0  0  0
   20.6253  -11.2169  -18.6193 C   0  0  0  0  0  0  0  0  0  0  0  0
   20.8797   -9.7537  -18.8501 C   0  0  0  0  0  0  0  0  0  0  0  0
   19.9738   -9.2022  -19.9293 C   0  0  0  0  0  0  0  0  0  0  0  0
   20.2487   -7.7431  -20.1003 C   0  0  0  0  0  0  0  0  0  0  0  0
   19.2532   -7.2093  -21.0279 N   0  0  0  0  0  0  0  0  0  0  0  0
   21.3272  -10.9399  -16.2591 C   0  0  0  0  0  0  0  0  0  0  0  0
   20.3562  -11.1982  -15.5032 O   0  0  0  0  0  0  0  0  0  0  0  0
   22.1961   -9.8899  -15.8651 N   0  0  0  0  0  0  0  0  0  0  0  0
   21.9636   -9.1933  -14.6175 C   0  0  1  0  0  0  0  0  0  0  0  0
   23.2013   -9.2848  -13.7811 C   0  0  0  0  0  0  0  0  0  0  0  0
   23.4853  -11.0070  -13.2770 S   0  0  0  0  0  0  0  0  0  0  0  0
   21.6017   -7.7771  -14.8286 C   0  0  0  0  0  0  0  0  0  0  0  0
   21.6720   -7.3163  -15.9911 O   0  0  0  0  0  0  0  0  0  0  0  0
   21.1946   -6.9569  -13.8015 O   0  0  0  0  0  0  0  0  0  0  0  0
  2  1  1  1
  3  2  1  0
  4  3  1  0
  5  4  2  0
  6  7  1  0
  6  5  1  0
  7  8  2  0
  8  4  1  0
  9  2  1  0
  9 11  1  0
 10  9  2  0
 12 11  1  0
 12 13  1  6
 13 14  1  0
 14 15  1  0
 15 16  1  0
 17 16  1  0
 18 12  1  0
 19 18  2  0
 20 18  1  0
 21 20  1  0
 21 22  1  1
 22 23  1  0
 24 21  1  0
 25 24  2  0
 26 24  1  0
M  END
$$$$
