HKC.pdb
     RDKit          3D

 26 26  0  0  1  0  0  0  0  0999 V2000
   19.1673  -14.3587  -18.0024 N   0  0  0  0  0  0  0  0  0  0  0  0
   18.4080  -13.1245  -18.0372 C   0  0  1  0  0  0  0  0  0  0  0  0
   17.3518  -13.2289  -16.9319 C   0  0  0  0  0  0  0  0  0  0  0  0
   16.2575  -14.1383  -17.3461 C   0  0  0  0  0  0  0  0  0  0  0  0
   16.0171  -14.6191  -18.6111 C   0  0  0  0  0  0  0  0  0  0  0  0
   14.9206  -15.4229  -18.5770 N   0  0  0  0  0  0  0  0  0  0  0  0
   14.4909  -15.4374  -17.3077 C   0  0  0  0  0  0  0  0  0  0  0  0
   15.3115  -14.6517  -16.5642 N   0  0  0  0  0  0  0  0  0  0  0  0
   19.3166  -12.0048  -17.8023 C   0  0  0  0  0  0  0  0  0  0  0  0
   20.2458  -12.1007  -16.9767 O   0  0  0  0  0  0  0  0  0  0  0  0
   19.2142  -10.7432  -18.4834 N   0  0  0  0  0  0  0  0  0  0  0  0
   20.1389   -9.6656  -18.2573 C   0  0  1  0  0  0  0  0  0  0  0  0
   19.9607   -8.6967  -19.4383 C   0  0  0  0  0  0  0  0  0  0  0  0
   20.5327   -9.3626  -20.6583 C   0  0  0  0  0  0  0  0  0  0  0  0
   20.4034   -8.4775  -21.8788 C   0  0  0  0  0  0  0  0  0  0  0  0
   20.9593   -9.1963  -23.0653 C   0  0  0  0  0  0  0  0  0  0  0  0
   20.8312   -8.3107  -24.2212 N   0  0  0  0  0  0  0  0  0  0  0  0
   19.9750   -8.9836  -16.9771 C   0  0  0  0  0  0  0  0  0  0  0  0
   18.8590   -8.5610  -16.5810 O   0  0  0  0  0  0  0  0  0  0  0  0
   21.0895   -8.7727  -16.1249 N   0  0  0  0  0  0  0  0  0  0  0  0
   20.9329   -7.9930  -14.9152 C   0  0  1  0  0  0  0  0  0  0  0  0
   21.5287   -8.7564  -13.7741 C   0  0  0  0  0  0  0  0  0  0  0  0
   21.4422   -7.7680  -12.2521 S   0  0  0  0  0  0  0  0  0  0  0  0
   21.5710   -6.6653  -15.0210 C   0  0  0  0  0  0  0  0  0  0  0  0
   20.9682   -5.6799  -14.5370 O   0  0  0  0  0  0  0  0  0  0  0  0
   22.7921   -6.4779  -15.6270 O   0  0  0  0  0  0  0  0  0  0  0  0
  2  1  1  1
  3  2  1  0
  4  3  1  0
  5  4  2  0
  6  7  1  0
  6  5  1  0
  7  8  2  0
  8  4  1  0
  9  2  1  0
  9 11  1  0
 10  9  2  0
 12 11  1  0
 12 13  1  6
 13 14  1  0
 14 15  1  0
 15 16  1  0
 17 16  1  0
 18 12  1  0
 19 18  2  0
 20 18  1  0
 21 20  1  0
 21 22  1  1
 22 23  1  0
 24 21  1  0
 25 24  2  0
 26 24  1  0
M  END
$$$$
