HKC.pdb
     RDKit          3D

 26 26  0  0  1  0  0  0  0  0999 V2000
   27.4596  -22.0517  -15.3362 N   0  0  0  0  0  0  0  0  0  0  0  0
   26.1364  -22.2446  -15.8953 C   0  0  1  0  0  0  0  0  0  0  0  0
   25.7523  -23.7021  -15.6188 C   0  0  0  0  0  0  0  0  0  0  0  0
   26.6234  -24.6216  -16.3884 C   0  0  0  0  0  0  0  0  0  0  0  0
   27.6438  -24.2731  -17.2407 C   0  0  0  0  0  0  0  0  0  0  0  0
   28.1993  -25.4051  -17.7503 N   0  0  0  0  0  0  0  0  0  0  0  0
   27.5302  -26.4375  -17.2191 C   0  0  0  0  0  0  0  0  0  0  0  0
   26.5713  -25.9509  -16.3901 N   0  0  0  0  0  0  0  0  0  0  0  0
   25.2109  -21.3176  -15.2481 C   0  0  0  0  0  0  0  0  0  0  0  0
   25.1241  -21.2678  -14.0054 O   0  0  0  0  0  0  0  0  0  0  0  0
   24.3541  -20.4178  -15.9705 N   0  0  0  0  0  0  0  0  0  0  0  0
   23.3933  -19.5722  -15.3152 C   0  0  1  0  0  0  0  0  0  0  0  0
   23.0528  -18.4574  -16.3185 C   0  0  0  0  0  0  0  0  0  0  0  0
   24.2134  -17.5027  -16.3430 C   0  0  0  0  0  0  0  0  0  0  0  0
   24.7196  -17.2894  -17.7530 C   0  0  0  0  0  0  0  0  0  0  0  0
   25.8237  -16.2825  -17.7292 C   0  0  0  0  0  0  0  0  0  0  0  0
   26.3683  -16.1885  -19.0825 N   0  0  0  0  0  0  0  0  0  0  0  0
   22.1920  -20.2618  -14.8546 C   0  0  0  0  0  0  0  0  0  0  0  0
   22.0207  -21.4957  -15.0251 O   0  0  0  0  0  0  0  0  0  0  0  0
   21.1622  -19.5487  -14.1884 N   0  0  0  0  0  0  0  0  0  0  0  0
   19.9818  -20.2502  -13.7299 C   0  0  1  0  0  0  0  0  0  0  0  0
   20.3642  -21.1289  -12.5804 C   0  0  0  0  0  0  0  0  0  0  0  0
   18.8852  -21.9226  -11.8853 S   0  0  0  0  0  0  0  0  0  0  0  0
   18.9067  -19.3241  -13.3202 C   0  0  0  0  0  0  0  0  0  0  0  0
   17.7828  -19.8062  -13.0498 O   0  0  0  0  0  0  0  0  0  0  0  0
   19.0975  -17.9646  -13.2270 O   0  0  0  0  0  0  0  0  0  0  0  0
  2  1  1  1
  3  2  1  0
  4  3  1  0
  5  4  2  0
  6  7  1  0
  6  5  1  0
  7  8  2  0
  8  4  1  0
  9  2  1  0
  9 11  1  0
 10  9  2  0
 12 11  1  0
 12 13  1  6
 13 14  1  0
 14 15  1  0
 15 16  1  0
 17 16  1  0
 18 12  1  0
 19 18  2  0
 20 18  1  0
 21 20  1  0
 21 22  1  1
 22 23  1  0
 24 21  1  0
 25 24  2  0
 26 24  1  0
M  END
$$$$
