HKC.pdb
     RDKit          3D

 26 26  0  0  1  0  0  0  0  0999 V2000
   28.2137  -23.3668  -17.5788 N   0  0  0  0  0  0  0  0  0  0  0  0
   26.9745  -23.2506  -16.8360 C   0  0  1  0  0  0  0  0  0  0  0  0
   26.6503  -24.6505  -16.3036 C   0  0  0  0  0  0  0  0  0  0  0  0
   25.9815  -25.4598  -17.3495 C   0  0  0  0  0  0  0  0  0  0  0  0
   26.3561  -26.7044  -17.7966 C   0  0  0  0  0  0  0  0  0  0  0  0
   25.4864  -27.1071  -18.7615 N   0  0  0  0  0  0  0  0  0  0  0  0
   24.5877  -26.1237  -18.9072 C   0  0  0  0  0  0  0  0  0  0  0  0
   24.8970  -25.1235  -18.0427 N   0  0  0  0  0  0  0  0  0  0  0  0
   27.1654  -22.2967  -15.7460 C   0  0  0  0  0  0  0  0  0  0  0  0
   28.2426  -22.2520  -15.1199 O   0  0  0  0  0  0  0  0  0  0  0  0
   26.1577  -21.3635  -15.3224 N   0  0  0  0  0  0  0  0  0  0  0  0
   26.3478  -20.4730  -14.2095 C   0  0  1  0  0  0  0  0  0  0  0  0
   25.7583  -19.1198  -14.6413 C   0  0  0  0  0  0  0  0  0  0  0  0
   26.8464  -18.3575  -15.3441 C   0  0  0  0  0  0  0  0  0  0  0  0
   26.3597  -16.9986  -15.7983 C   0  0  0  0  0  0  0  0  0  0  0  0
   27.4887  -16.2673  -16.4496 C   0  0  0  0  0  0  0  0  0  0  0  0
   26.9755  -14.9790  -16.9118 N   0  0  0  0  0  0  0  0  0  0  0  0
   25.7618  -20.9355  -12.9551 C   0  0  0  0  0  0  0  0  0  0  0  0
   24.6424  -21.5063  -12.9087 O   0  0  0  0  0  0  0  0  0  0  0  0
   26.4491  -20.7521  -11.7276 N   0  0  0  0  0  0  0  0  0  0  0  0
   25.7627  -20.9920  -10.4758 C   0  0  1  0  0  0  0  0  0  0  0  0
   26.5276  -20.3253   -9.3758 C   0  0  0  0  0  0  0  0  0  0  0  0
   25.7435  -20.6722   -7.7740 S   0  0  0  0  0  0  0  0  0  0  0  0
   24.3729  -20.4928  -10.4973 C   0  0  0  0  0  0  0  0  0  0  0  0
   24.1571  -19.3675  -11.0033 O   0  0  0  0  0  0  0  0  0  0  0  0
   23.3196  -21.2153   -9.9855 O   0  0  0  0  0  0  0  0  0  0  0  0
  2  1  1  1
  3  2  1  0
  4  3  1  0
  5  4  2  0
  6  7  1  0
  6  5  1  0
  7  8  2  0
  8  4  1  0
  9  2  1  0
  9 11  1  0
 10  9  2  0
 12 11  1  0
 12 13  1  6
 13 14  1  0
 14 15  1  0
 15 16  1  0
 17 16  1  0
 18 12  1  0
 19 18  2  0
 20 18  1  0
 21 20  1  0
 21 22  1  1
 22 23  1  0
 24 21  1  0
 25 24  2  0
 26 24  1  0
M  END
$$$$
