FIR.pdb
     RDKit          3D

 31 31  0  0  1  0  0  0  0  0999 V2000
    9.7286  -14.9012   21.2281 N   0  0  0  0  0  0  0  0  0  0  0  0
    8.5978  -14.3867   21.9732 C   0  0  1  0  0  0  0  0  0  0  0  0
    7.3459  -14.8321   21.2082 C   0  0  0  0  0  0  0  0  0  0  0  0
    7.2977  -14.1843   19.8673 C   0  0  0  0  0  0  0  0  0  0  0  0
    7.3025  -14.8940   18.6825 C   0  0  0  0  0  0  0  0  0  0  0  0
    7.2596  -14.2212   17.4659 C   0  0  0  0  0  0  0  0  0  0  0  0
    7.2124  -12.8331   17.4881 C   0  0  0  0  0  0  0  0  0  0  0  0
    7.2074  -12.1189   18.6716 C   0  0  0  0  0  0  0  0  0  0  0  0
    7.2504  -12.8033   19.8622 C   0  0  0  0  0  0  0  0  0  0  0  0
    8.5255  -15.0028   23.3305 C   0  0  0  0  0  0  0  0  0  0  0  0
    9.4619  -15.7879   23.6611 O   0  0  0  0  0  0  0  0  0  0  0  0
    5.9926  -11.1802   26.1589 C   0  0  0  0  0  0  0  0  0  0  0  0
    7.0666  -12.1561   25.6610 C   0  0  0  0  0  0  0  0  0  0  0  0
    6.7279  -13.5314   26.1464 C   0  0  2  0  0  0  0  0  0  0  0  0
    6.6186  -13.4533   27.6649 C   0  0  0  0  0  0  0  0  0  0  0  0
    7.6704  -14.6023   25.6840 C   0  0  2  0  0  0  0  0  0  0  0  0
    7.4689  -14.7366   24.2243 N   0  0  0  0  0  0  0  0  0  0  0  0
    7.4605  -15.9330   26.2536 C   0  0  0  0  0  0  0  0  0  0  0  0
    6.3769  -16.5603   25.9532 O   0  0  0  0  0  0  0  0  0  0  0  0
   12.5348  -20.9322   22.8296 N   0  0  0  0  0  0  0  0  0  0  0  0
   11.2979  -21.6647   22.8423 C   0  0  0  0  0  0  0  0  0  0  0  0
   11.2851  -22.9325   22.5915 N   0  0  0  0  0  0  0  0  0  0  0  0
   10.0565  -21.0477   23.1236 N   0  0  0  0  0  0  0  0  0  0  0  0
   10.0293  -19.6698   23.5773 C   0  0  0  0  0  0  0  0  0  0  0  0
    9.5610  -19.5419   24.9849 C   0  0  0  0  0  0  0  0  0  0  0  0
    9.1148  -18.2097   25.4129 C   0  0  0  0  0  0  0  0  0  0  0  0
    8.7203  -17.9884   26.8281 C   0  0  2  0  0  0  0  0  0  0  0  0
    8.3302  -16.6361   27.1162 N   0  0  0  0  0  0  0  0  0  0  0  0
    9.6762  -18.4422   27.8443 C   0  0  0  0  0  0  0  0  0  0  0  0
   10.5842  -17.5677   28.3911 O   0  0  0  0  0  0  0  0  0  0  0  0
    9.6870  -19.6368   28.2382 O   0  0  0  0  0  0  0  0  0  0  0  0
  2  1  1  6
  3  2  1  0
  3  4  1  0
  4  5  2  0
  5  6  1  0
  7  6  2  0
  8  7  1  0
  9  4  1  0
  9  8  2  0
 10  2  1  0
 10 11  2  0
 13 12  1  0
 14 13  1  0
 14 16  1  0
 14 15  1  1
 16 17  1  6
 16 18  1  0
 17 10  1  0
 18 19  2  0
 18 28  1  0
 20 21  1  0
 21 22  2  0
 21 23  1  0
 23 24  1  0
 24 25  1  0
 25 26  1  0
 27 26  1  6
 27 29  1  0
 28 27  1  0
 29 31  2  0
 29 30  1  0
M  END
$$$$
