FIR.pdb
     RDKit          3D

 31 31  0  0  1  0  0  0  0  0999 V2000
    6.2039  -17.2701   25.9129 N   0  0  0  0  0  0  0  0  0  0  0  0
    6.5454  -16.0761   25.1667 C   0  0  1  0  0  0  0  0  0  0  0  0
    7.6183  -15.3528   25.9892 C   0  0  0  0  0  0  0  0  0  0  0  0
    7.0936  -14.0567   26.5037 C   0  0  0  0  0  0  0  0  0  0  0  0
    6.9980  -13.7585   27.8488 C   0  0  0  0  0  0  0  0  0  0  0  0
    6.4939  -12.5281   28.2568 C   0  0  0  0  0  0  0  0  0  0  0  0
    6.0976  -11.6269   27.2768 C   0  0  0  0  0  0  0  0  0  0  0  0
    6.1914  -11.9212   25.9294 C   0  0  0  0  0  0  0  0  0  0  0  0
    6.6923  -13.1426   25.5483 C   0  0  0  0  0  0  0  0  0  0  0  0
    7.1597  -16.4236   23.8519 C   0  0  0  0  0  0  0  0  0  0  0  0
    7.3522  -17.6508   23.6084 O   0  0  0  0  0  0  0  0  0  0  0  0
    8.1336  -12.0737   20.5531 C   0  0  0  0  0  0  0  0  0  0  0  0
    7.4925  -13.3405   21.1344 C   0  0  0  0  0  0  0  0  0  0  0  0
    8.4191  -14.4947   20.9085 C   0  0  2  0  0  0  0  0  0  0  0  0
    8.6257  -14.6117   19.4027 C   0  0  0  0  0  0  0  0  0  0  0  0
    7.9733  -15.7809   21.5376 C   0  0  2  0  0  0  0  0  0  0  0  0
    7.5187  -15.4436   22.9047 N   0  0  0  0  0  0  0  0  0  0  0  0
    8.9989  -16.8130   21.6866 C   0  0  0  0  0  0  0  0  0  0  0  0
    8.7872  -17.9641   21.1499 O   0  0  0  0  0  0  0  0  0  0  0  0
   14.4599  -18.9880   17.9489 N   0  0  0  0  0  0  0  0  0  0  0  0
   13.3732  -19.3122   17.0654 C   0  0  0  0  0  0  0  0  0  0  0  0
   13.4531  -20.3326   16.2762 N   0  0  0  0  0  0  0  0  0  0  0  0
   12.1852  -18.5460   17.0151 N   0  0  0  0  0  0  0  0  0  0  0  0
   12.0209  -17.4213   17.9168 C   0  0  0  0  0  0  0  0  0  0  0  0
   11.8716  -17.8452   19.3363 C   0  0  0  0  0  0  0  0  0  0  0  0
   11.5585  -16.7910   20.3099 C   0  0  0  0  0  0  0  0  0  0  0  0
   11.4556  -17.1324   21.7521 C   0  0  2  0  0  0  0  0  0  0  0  0
   10.2320  -16.6954   22.3651 N   0  0  0  0  0  0  0  0  0  0  0  0
   12.5878  -16.7306   22.5940 C   0  0  0  0  0  0  0  0  0  0  0  0
   13.6130  -17.6081   22.8537 O   0  0  0  0  0  0  0  0  0  0  0  0
   12.6476  -15.5785   23.0955 O   0  0  0  0  0  0  0  0  0  0  0  0
  2  1  1  1
  3  2  1  0
  3  4  1  0
  4  5  2  0
  5  6  1  0
  7  6  2  0
  8  7  1  0
  9  4  1  0
  9  8  2  0
 10  2  1  0
 10 11  2  0
 13 12  1  0
 14 13  1  0
 14 16  1  0
 14 15  1  6
 16 17  1  1
 16 18  1  0
 17 10  1  0
 18 19  2  0
 18 28  1  0
 20 21  1  0
 21 22  2  0
 21 23  1  0
 23 24  1  0
 24 25  1  0
 25 26  1  0
 27 26  1  6
 27 29  1  0
 28 27  1  0
 29 31  2  0
 29 30  1  0
M  END
$$$$
