FIR.pdb
     RDKit          3D

 31 31  0  0  1  0  0  0  0  0999 V2000
    7.7566  -19.2311   27.5273 N   0  0  0  0  0  0  0  0  0  0  0  0
    8.0312  -17.8144   27.6559 C   0  0  1  0  0  0  0  0  0  0  0  0
    9.5513  -17.6880   27.8104 C   0  0  0  0  0  0  0  0  0  0  0  0
    9.9049  -16.3759   28.4215 C   0  0  0  0  0  0  0  0  0  0  0  0
    9.7561  -16.1023   29.7671 C   0  0  0  0  0  0  0  0  0  0  0  0
   10.1037  -14.8521   30.2675 C   0  0  0  0  0  0  0  0  0  0  0  0
   10.5974  -13.9062   29.3779 C   0  0  0  0  0  0  0  0  0  0  0  0
   10.7479  -14.1759   28.0306 C   0  0  0  0  0  0  0  0  0  0  0  0
   10.3984  -15.4175   27.5571 C   0  0  0  0  0  0  0  0  0  0  0  0
    7.6534  -17.0806   26.4127 C   0  0  0  0  0  0  0  0  0  0  0  0
    7.2375  -17.7705   25.4363 O   0  0  0  0  0  0  0  0  0  0  0  0
    6.0989  -11.8715   27.1828 C   0  0  0  0  0  0  0  0  0  0  0  0
    5.9583  -13.2833   26.5991 C   0  0  0  0  0  0  0  0  0  0  0  0
    7.0568  -13.5038   25.6057 C   0  0  2  0  0  0  0  0  0  0  0  0
    6.8150  -12.5367   24.4525 C   0  0  0  0  0  0  0  0  0  0  0  0
    7.2076  -14.9254   25.1528 C   0  0  2  0  0  0  0  0  0  0  0  0
    7.7469  -15.6783   26.3068 N   0  0  0  0  0  0  0  0  0  0  0  0
    8.1336  -15.1517   24.0434 C   0  0  0  0  0  0  0  0  0  0  0  0
    9.1548  -14.3750   23.9343 O   0  0  0  0  0  0  0  0  0  0  0  0
    8.2437  -12.2690   17.3311 N   0  0  0  0  0  0  0  0  0  0  0  0
    8.3504  -13.5772   16.7446 C   0  0  0  0  0  0  0  0  0  0  0  0
    9.0631  -13.7624   15.6825 N   0  0  0  0  0  0  0  0  0  0  0  0
    7.6933  -14.7056   17.2886 N   0  0  0  0  0  0  0  0  0  0  0  0
    7.0581  -14.6053   18.5891 C   0  0  0  0  0  0  0  0  0  0  0  0
    8.0376  -14.3707   19.6858 C   0  0  0  0  0  0  0  0  0  0  0  0
    7.6502  -14.8313   21.0256 C   0  0  0  0  0  0  0  0  0  0  0  0
    8.4513  -15.8864   21.6980 C   0  0  2  0  0  0  0  0  0  0  0  0
    8.0427  -16.1511   23.0496 N   0  0  0  0  0  0  0  0  0  0  0  0
    9.9079  -15.7162   21.6584 C   0  0  0  0  0  0  0  0  0  0  0  0
   10.6640  -16.3729   20.7174 O   0  0  0  0  0  0  0  0  0  0  0  0
   10.4969  -14.9679   22.4804 O   0  0  0  0  0  0  0  0  0  0  0  0
  2  1  1  6
  3  2  1  0
  3  4  1  0
  4  5  2  0
  5  6  1  0
  7  6  2  0
  8  7  1  0
  9  4  1  0
  9  8  2  0
 10  2  1  0
 10 11  2  0
 13 12  1  0
 14 13  1  0
 14 16  1  0
 14 15  1  6
 16 17  1  1
 16 18  1  0
 17 10  1  0
 18 19  2  0
 18 28  1  0
 20 21  1  0
 21 22  2  0
 21 23  1  0
 23 24  1  0
 24 25  1  0
 25 26  1  0
 27 26  1  1
 27 29  1  0
 28 27  1  0
 29 31  2  0
 29 30  1  0
M  END
$$$$
