FIR.pdb
     RDKit          3D

 31 31  0  0  1  0  0  0  0  0999 V2000
    5.5819  -17.3803   25.5938 N   0  0  0  0  0  0  0  0  0  0  0  0
    6.2231  -16.1373   25.2164 C   0  0  1  0  0  0  0  0  0  0  0  0
    6.9119  -15.6125   26.4816 C   0  0  0  0  0  0  0  0  0  0  0  0
    6.8441  -14.1249   26.5321 C   0  0  0  0  0  0  0  0  0  0  0  0
    7.9520  -13.3220   26.7208 C   0  0  0  0  0  0  0  0  0  0  0  0
    7.8126  -11.9388   26.7610 C   0  0  0  0  0  0  0  0  0  0  0  0
    6.5392  -11.4055   26.6067 C   0  0  0  0  0  0  0  0  0  0  0  0
    5.4278  -12.2054   26.4176 C   0  0  0  0  0  0  0  0  0  0  0  0
    5.5879  -13.5695   26.3812 C   0  0  0  0  0  0  0  0  0  0  0  0
    7.2906  -16.3721   24.2003 C   0  0  0  0  0  0  0  0  0  0  0  0
    7.8323  -17.5161   24.1829 O   0  0  0  0  0  0  0  0  0  0  0  0
    7.2639  -13.0370   19.8155 C   0  0  0  0  0  0  0  0  0  0  0  0
    7.2751  -14.3245   20.6497 C   0  0  0  0  0  0  0  0  0  0  0  0
    8.6236  -14.4748   21.2828 C   0  0  2  0  0  0  0  0  0  0  0  0
    9.6394  -14.5678   20.1500 C   0  0  0  0  0  0  0  0  0  0  0  0
    8.7293  -15.6112   22.2556 C   0  0  2  0  0  0  0  0  0  0  0  0
    7.6952  -15.3772   23.2877 N   0  0  0  0  0  0  0  0  0  0  0  0
   10.0018  -15.7325   22.9665 C   0  0  0  0  0  0  0  0  0  0  0  0
   10.4348  -14.7105   23.6190 O   0  0  0  0  0  0  0  0  0  0  0  0
   10.2900  -18.1106   29.3132 N   0  0  0  0  0  0  0  0  0  0  0  0
   11.0003  -16.9404   28.8741 C   0  0  0  0  0  0  0  0  0  0  0  0
   11.4745  -16.1009   29.7348 N   0  0  0  0  0  0  0  0  0  0  0  0
   11.2117  -16.6533   27.5052 N   0  0  0  0  0  0  0  0  0  0  0  0
   11.2348  -17.7383   26.5423 C   0  0  0  0  0  0  0  0  0  0  0  0
   12.5546  -17.8733   25.8664 C   0  0  0  0  0  0  0  0  0  0  0  0
   12.5381  -17.9720   24.4011 C   0  0  0  0  0  0  0  0  0  0  0  0
   12.1559  -16.7868   23.5909 C   0  0  2  0  0  0  0  0  0  0  0  0
   10.8364  -16.8702   23.0289 N   0  0  0  0  0  0  0  0  0  0  0  0
   13.1024  -16.3869   22.5438 C   0  0  0  0  0  0  0  0  0  0  0  0
   12.9314  -16.8092   21.2473 O   0  0  0  0  0  0  0  0  0  0  0  0
   14.0881  -15.6506   22.8061 O   0  0  0  0  0  0  0  0  0  0  0  0
  2  1  1  1
  3  2  1  0
  3  4  1  0
  4  5  2  0
  5  6  1  0
  7  6  2  0
  8  7  1  0
  9  4  1  0
  9  8  2  0
 10  2  1  0
 10 11  2  0
 13 12  1  0
 14 13  1  0
 14 16  1  0
 14 15  1  6
 16 17  1  1
 16 18  1  0
 17 10  1  0
 18 19  2  0
 18 28  1  0
 20 21  1  0
 21 22  2  0
 21 23  1  0
 23 24  1  0
 24 25  1  0
 25 26  1  0
 27 26  1  6
 27 29  1  0
 28 27  1  0
 29 31  2  0
 29 30  1  0
M  END
$$$$
