FIR.pdb
     RDKit          3D

 31 31  0  0  1  0  0  0  0  0999 V2000
    9.3768  -12.9093   20.9394 N   0  0  0  0  0  0  0  0  0  0  0  0
    8.2746  -13.5948   21.5829 C   0  0  1  0  0  0  0  0  0  0  0  0
    8.0680  -14.8967   20.7999 C   0  0  0  0  0  0  0  0  0  0  0  0
    7.5558  -14.6053   19.4315 C   0  0  0  0  0  0  0  0  0  0  0  0
    6.3041  -14.0746   19.1882 C   0  0  0  0  0  0  0  0  0  0  0  0
    5.8908  -13.8319   17.8826 C   0  0  0  0  0  0  0  0  0  0  0  0
    6.7695  -14.1383   16.8513 C   0  0  0  0  0  0  0  0  0  0  0  0
    8.0231  -14.6696   17.0903 C   0  0  0  0  0  0  0  0  0  0  0  0
    8.4114  -14.9015   18.3877 C   0  0  0  0  0  0  0  0  0  0  0  0
    8.6242  -13.9749   22.9829 C   0  0  0  0  0  0  0  0  0  0  0  0
    9.8382  -14.2390   23.2257 O   0  0  0  0  0  0  0  0  0  0  0  0
    5.1821  -11.6271   26.4230 C   0  0  0  0  0  0  0  0  0  0  0  0
    6.5216  -12.0183   25.7857 C   0  0  0  0  0  0  0  0  0  0  0  0
    6.8391  -13.4317   26.1646 C   0  0  2  0  0  0  0  0  0  0  0  0
    6.9961  -13.4616   27.6806 C   0  0  0  0  0  0  0  0  0  0  0  0
    8.0169  -14.0176   25.4447 C   0  0  2  0  0  0  0  0  0  0  0  0
    7.6603  -14.0436   24.0089 N   0  0  0  0  0  0  0  0  0  0  0  0
    8.3739  -15.3892   25.8061 C   0  0  0  0  0  0  0  0  0  0  0  0
    7.4885  -16.3107   25.6483 O   0  0  0  0  0  0  0  0  0  0  0  0
   14.3953  -17.2161   21.0989 N   0  0  0  0  0  0  0  0  0  0  0  0
   14.3673  -16.5917   22.3935 C   0  0  0  0  0  0  0  0  0  0  0  0
   15.2783  -15.7384   22.7287 N   0  0  0  0  0  0  0  0  0  0  0  0
   13.3620  -16.8741   23.3478 N   0  0  0  0  0  0  0  0  0  0  0  0
   12.9954  -18.2524   23.6137 C   0  0  0  0  0  0  0  0  0  0  0  0
   11.8463  -18.3660   24.5538 C   0  0  0  0  0  0  0  0  0  0  0  0
   11.1981  -17.1113   24.9574 C   0  0  0  0  0  0  0  0  0  0  0  0
   10.1202  -17.1390   25.9794 C   0  0  2  0  0  0  0  0  0  0  0  0
    9.6103  -15.8395   26.3191 N   0  0  0  0  0  0  0  0  0  0  0  0
   10.4161  -17.8787   27.2113 C   0  0  0  0  0  0  0  0  0  0  0  0
   10.7666  -19.2066   27.1633 O   0  0  0  0  0  0  0  0  0  0  0  0
   10.3571  -17.3178   28.3357 O   0  0  0  0  0  0  0  0  0  0  0  0
  2  1  1  6
  3  2  1  0
  3  4  1  0
  4  5  2  0
  5  6  1  0
  7  6  2  0
  8  7  1  0
  9  4  1  0
  9  8  2  0
 10  2  1  0
 10 11  2  0
 13 12  1  0
 14 13  1  0
 14 16  1  0
 14 15  1  1
 16 17  1  6
 16 18  1  0
 17 10  1  0
 18 19  2  0
 18 28  1  0
 20 21  1  0
 21 22  2  0
 21 23  1  0
 23 24  1  0
 24 25  1  0
 25 26  1  0
 27 26  1  6
 27 29  1  0
 28 27  1  0
 29 31  2  0
 29 30  1  0
M  END
$$$$
