FIR.pdb
     RDKit          3D

 31 31  0  0  1  0  0  0  0  0999 V2000
    8.3554  -18.6002   27.7867 N   0  0  0  0  0  0  0  0  0  0  0  0
    8.4555  -17.2189   27.3616 C   0  0  1  0  0  0  0  0  0  0  0  0
    9.9543  -16.9068   27.2785 C   0  0  0  0  0  0  0  0  0  0  0  0
   10.3529  -15.9742   28.3700 C   0  0  0  0  0  0  0  0  0  0  0  0
   10.8372  -16.4002   29.5912 C   0  0  0  0  0  0  0  0  0  0  0  0
   11.1863  -15.4714   30.5659 C   0  0  0  0  0  0  0  0  0  0  0  0
   11.0320  -14.1232   30.2689 C   0  0  0  0  0  0  0  0  0  0  0  0
   10.5476  -13.6925   29.0480 C   0  0  0  0  0  0  0  0  0  0  0  0
   10.2086  -14.6268   28.0993 C   0  0  0  0  0  0  0  0  0  0  0  0
    7.8925  -17.0379   25.9915 C   0  0  0  0  0  0  0  0  0  0  0  0
    7.1102  -17.9363   25.5632 O   0  0  0  0  0  0  0  0  0  0  0  0
    6.9401  -11.8958   26.4304 C   0  0  0  0  0  0  0  0  0  0  0  0
    6.6229  -13.3598   26.0995 C   0  0  0  0  0  0  0  0  0  0  0  0
    7.3298  -13.7298   24.8324 C   0  0  2  0  0  0  0  0  0  0  0  0
    6.8493  -12.7633   23.7560 C   0  0  0  0  0  0  0  0  0  0  0  0
    7.1787  -15.1677   24.4346 C   0  0  2  0  0  0  0  0  0  0  0  0
    8.2040  -15.9217   25.1894 N   0  0  0  0  0  0  0  0  0  0  0  0
    7.4014  -15.4704   23.0211 C   0  0  0  0  0  0  0  0  0  0  0  0
    6.4722  -15.1729   22.1807 O   0  0  0  0  0  0  0  0  0  0  0  0
    6.5742  -14.2971   17.1013 N   0  0  0  0  0  0  0  0  0  0  0  0
    7.9310  -14.0319   16.7075 C   0  0  0  0  0  0  0  0  0  0  0  0
    8.3921  -14.4967   15.5931 N   0  0  0  0  0  0  0  0  0  0  0  0
    8.8134  -13.2648   17.5037 N   0  0  0  0  0  0  0  0  0  0  0  0
    8.4007  -12.8492   18.8311 C   0  0  0  0  0  0  0  0  0  0  0  0
    9.3167  -13.3455   19.8949 C   0  0  0  0  0  0  0  0  0  0  0  0
    8.7022  -14.0999   20.9950 C   0  0  0  0  0  0  0  0  0  0  0  0
    9.2151  -15.4528   21.3323 C   0  0  2  0  0  0  0  0  0  0  0  0
    8.5479  -16.0638   22.4484 N   0  0  0  0  0  0  0  0  0  0  0  0
   10.6661  -15.5671   21.5155 C   0  0  0  0  0  0  0  0  0  0  0  0
   11.5080  -15.6033   20.4300 O   0  0  0  0  0  0  0  0  0  0  0  0
   11.1723  -15.6335   22.6652 O   0  0  0  0  0  0  0  0  0  0  0  0
  2  1  1  6
  3  2  1  0
  3  4  1  0
  4  5  2  0
  5  6  1  0
  7  6  2  0
  8  7  1  0
  9  4  1  0
  9  8  2  0
 10  2  1  0
 10 11  2  0
 13 12  1  0
 14 13  1  0
 14 16  1  0
 14 15  1  6
 16 17  1  1
 16 18  1  0
 17 10  1  0
 18 19  2  0
 18 28  1  0
 20 21  1  0
 21 22  2  0
 21 23  1  0
 23 24  1  0
 24 25  1  0
 25 26  1  0
 27 26  1  1
 27 29  1  0
 28 27  1  0
 29 31  2  0
 29 30  1  0
M  END
$$$$
