FIR.pdb
     RDKit          3D

 31 31  0  0  1  0  0  0  0  0999 V2000
    5.3875  -17.7720   24.9673 N   0  0  0  0  0  0  0  0  0  0  0  0
    5.9174  -16.4270   24.8720 C   0  0  1  0  0  0  0  0  0  0  0  0
    6.4459  -16.0781   26.2683 C   0  0  0  0  0  0  0  0  0  0  0  0
    6.8116  -14.6355   26.3408 C   0  0  0  0  0  0  0  0  0  0  0  0
    8.1168  -14.1839   26.3383 C   0  0  0  0  0  0  0  0  0  0  0  0
    8.3837  -12.8209   26.4124 C   0  0  0  0  0  0  0  0  0  0  0  0
    7.3063  -11.9472   26.4875 C   0  0  0  0  0  0  0  0  0  0  0  0
    5.9986  -12.3949   26.4903 C   0  0  0  0  0  0  0  0  0  0  0  0
    5.7573  -13.7456   26.4164 C   0  0  0  0  0  0  0  0  0  0  0  0
    7.0791  -16.3740   23.9367 C   0  0  0  0  0  0  0  0  0  0  0  0
    7.8314  -17.3909   23.8890 O   0  0  0  0  0  0  0  0  0  0  0  0
    6.9085  -12.3900   20.0590 C   0  0  0  0  0  0  0  0  0  0  0  0
    7.0225  -13.8181   20.6080 C   0  0  0  0  0  0  0  0  0  0  0  0
    8.2996  -13.9349   21.3809 C   0  0  2  0  0  0  0  0  0  0  0  0
    9.4390  -13.6938   20.3973 C   0  0  0  0  0  0  0  0  0  0  0  0
    8.4488  -15.2179   22.1428 C   0  0  2  0  0  0  0  0  0  0  0  0
    7.3472  -15.2497   23.1302 N   0  0  0  0  0  0  0  0  0  0  0  0
    9.6887  -15.3737   22.9028 C   0  0  0  0  0  0  0  0  0  0  0  0
    9.9428  -14.5226   23.8351 O   0  0  0  0  0  0  0  0  0  0  0  0
    9.8350  -18.4774   28.1972 N   0  0  0  0  0  0  0  0  0  0  0  0
    9.2521  -19.5857   27.4912 C   0  0  0  0  0  0  0  0  0  0  0  0
    8.2401  -20.2186   27.9870 N   0  0  0  0  0  0  0  0  0  0  0  0
    9.7468  -20.0319   26.2433 N   0  0  0  0  0  0  0  0  0  0  0  0
   10.9918  -19.4896   25.7324 C   0  0  0  0  0  0  0  0  0  0  0  0
   10.7976  -18.2084   24.9989 C   0  0  0  0  0  0  0  0  0  0  0  0
   11.9911  -17.6137   24.3831 C   0  0  0  0  0  0  0  0  0  0  0  0
   11.8537  -16.3928   23.5479 C   0  0  2  0  0  0  0  0  0  0  0  0
   10.6688  -16.3767   22.7356 N   0  0  0  0  0  0  0  0  0  0  0  0
   13.0123  -16.0427   22.7189 C   0  0  0  0  0  0  0  0  0  0  0  0
   12.9113  -16.0204   21.3486 O   0  0  0  0  0  0  0  0  0  0  0  0
   14.1206  -15.7552   23.2399 O   0  0  0  0  0  0  0  0  0  0  0  0
  2  1  1  1
  3  2  1  0
  3  4  1  0
  4  5  2  0
  5  6  1  0
  7  6  2  0
  8  7  1  0
  9  4  1  0
  9  8  2  0
 10  2  1  0
 10 11  2  0
 13 12  1  0
 14 13  1  0
 14 16  1  0
 14 15  1  6
 16 17  1  1
 16 18  1  0
 17 10  1  0
 18 19  2  0
 18 28  1  0
 20 21  1  0
 21 22  2  0
 21 23  1  0
 23 24  1  0
 24 25  1  0
 25 26  1  0
 27 26  1  6
 27 29  1  0
 28 27  1  0
 29 31  2  0
 29 30  1  0
M  END
$$$$
