FIR.pdb
     RDKit          3D

 31 31  0  0  1  0  0  0  0  0999 V2000
    5.3738  -17.7789   24.9708 N   0  0  0  0  0  0  0  0  0  0  0  0
    5.8934  -16.4321   24.8492 C   0  0  1  0  0  0  0  0  0  0  0  0
    6.3471  -16.0225   26.2553 C   0  0  0  0  0  0  0  0  0  0  0  0
    6.5492  -14.5481   26.3280 C   0  0  0  0  0  0  0  0  0  0  0  0
    5.5242  -13.6347   26.1777 C   0  0  0  0  0  0  0  0  0  0  0  0
    5.7879  -12.2712   26.2539 C   0  0  0  0  0  0  0  0  0  0  0  0
    7.0982  -11.8708   26.4829 C   0  0  0  0  0  0  0  0  0  0  0  0
    8.1270  -12.7816   26.6338 C   0  0  0  0  0  0  0  0  0  0  0  0
    7.8446  -14.1239   26.5549 C   0  0  0  0  0  0  0  0  0  0  0  0
    7.1000  -16.4006   23.9716 C   0  0  0  0  0  0  0  0  0  0  0  0
    7.9000  -17.3784   24.0511 O   0  0  0  0  0  0  0  0  0  0  0  0
    6.9953  -12.5704   19.8913 C   0  0  0  0  0  0  0  0  0  0  0  0
    7.0205  -13.9566   20.5481 C   0  0  0  0  0  0  0  0  0  0  0  0
    8.3224  -14.1231   21.2687 C   0  0  2  0  0  0  0  0  0  0  0  0
    9.4281  -13.9797   20.2291 C   0  0  0  0  0  0  0  0  0  0  0  0
    8.4328  -15.3880   22.0666 C   0  0  2  0  0  0  0  0  0  0  0  0
    7.3591  -15.3374   23.0834 N   0  0  0  0  0  0  0  0  0  0  0  0
    9.6849  -15.5795   22.7978 C   0  0  0  0  0  0  0  0  0  0  0  0
   10.0668  -14.6520   23.6052 O   0  0  0  0  0  0  0  0  0  0  0  0
   10.6071  -18.6438   28.9283 N   0  0  0  0  0  0  0  0  0  0  0  0
   10.1028  -19.4864   27.8784 C   0  0  0  0  0  0  0  0  0  0  0  0
    9.8063  -20.7218   28.1158 N   0  0  0  0  0  0  0  0  0  0  0  0
    9.9100  -19.0163   26.5582 N   0  0  0  0  0  0  0  0  0  0  0  0
   10.5837  -17.8068   26.1243 C   0  0  0  0  0  0  0  0  0  0  0  0
   11.9420  -18.0755   25.5768 C   0  0  0  0  0  0  0  0  0  0  0  0
   12.0953  -17.9842   24.1189 C   0  0  0  0  0  0  0  0  0  0  0  0
   11.8026  -16.7008   23.4301 C   0  0  2  0  0  0  0  0  0  0  0  0
   10.5502  -16.6935   22.7263 N   0  0  0  0  0  0  0  0  0  0  0  0
   12.8554  -16.1857   22.5478 C   0  0  0  0  0  0  0  0  0  0  0  0
   14.0951  -15.8684   23.0485 O   0  0  0  0  0  0  0  0  0  0  0  0
   12.6499  -16.0237   21.3174 O   0  0  0  0  0  0  0  0  0  0  0  0
  2  1  1  1
  3  2  1  0
  3  4  1  0
  4  5  2  0
  5  6  1  0
  7  6  2  0
  8  7  1  0
  9  4  1  0
  9  8  2  0
 10  2  1  0
 10 11  2  0
 13 12  1  0
 14 13  1  0
 14 16  1  0
 14 15  1  6
 16 17  1  1
 16 18  1  0
 17 10  1  0
 18 19  2  0
 18 28  1  0
 20 21  1  0
 21 22  2  0
 21 23  1  0
 23 24  1  0
 24 25  1  0
 25 26  1  0
 27 26  1  6
 27 29  1  0
 28 27  1  0
 29 31  2  0
 29 30  1  0
M  END
$$$$
