FIR.pdb
     RDKit          3D

 31 31  0  0  1  0  0  0  0  0999 V2000
    6.4323  -19.5942   19.7309 N   0  0  0  0  0  0  0  0  0  0  0  0
    6.5134  -18.6930   20.8623 C   0  0  1  0  0  0  0  0  0  0  0  0
    6.7272  -19.5776   22.0963 C   0  0  0  0  0  0  0  0  0  0  0  0
    6.8183  -18.7416   23.3262 C   0  0  0  0  0  0  0  0  0  0  0  0
    5.7819  -17.9516   23.7837 C   0  0  0  0  0  0  0  0  0  0  0  0
    5.9398  -17.1935   24.9391 C   0  0  0  0  0  0  0  0  0  0  0  0
    7.1581  -17.2605   25.6032 C   0  0  0  0  0  0  0  0  0  0  0  0
    8.1979  -18.0498   25.1488 C   0  0  0  0  0  0  0  0  0  0  0  0
    8.0207  -18.7907   24.0053 C   0  0  0  0  0  0  0  0  0  0  0  0
    7.7032  -17.7992   20.7511 C   0  0  0  0  0  0  0  0  0  0  0  0
    8.7881  -18.3241   20.3640 O   0  0  0  0  0  0  0  0  0  0  0  0
    6.4610  -12.7048   19.3043 C   0  0  0  0  0  0  0  0  0  0  0  0
    7.2041  -14.0468   19.2781 C   0  0  0  0  0  0  0  0  0  0  0  0
    8.0650  -14.1430   20.4994 C   0  0  2  0  0  0  0  0  0  0  0  0
    9.0654  -12.9948   20.4305 C   0  0  0  0  0  0  0  0  0  0  0  0
    8.7214  -15.4774   20.6924 C   0  0  2  0  0  0  0  0  0  0  0  0
    7.6454  -16.4249   21.0583 N   0  0  0  0  0  0  0  0  0  0  0  0
    9.7194  -15.5546   21.7589 C   0  0  0  0  0  0  0  0  0  0  0  0
   10.8765  -15.0299   21.5494 O   0  0  0  0  0  0  0  0  0  0  0  0
    5.9607  -13.0452   28.2493 N   0  0  0  0  0  0  0  0  0  0  0  0
    6.4052  -12.1881   27.1842 C   0  0  0  0  0  0  0  0  0  0  0  0
    6.0492  -10.9460   27.1515 N   0  0  0  0  0  0  0  0  0  0  0  0
    7.2373  -12.6510   26.1382 N   0  0  0  0  0  0  0  0  0  0  0  0
    8.1628  -13.7398   26.3892 C   0  0  0  0  0  0  0  0  0  0  0  0
    8.8851  -14.1695   25.1601 C   0  0  0  0  0  0  0  0  0  0  0  0
    9.8274  -15.2866   25.3056 C   0  0  0  0  0  0  0  0  0  0  0  0
   10.4774  -15.8592   24.0986 C   0  0  2  0  0  0  0  0  0  0  0  0
    9.5619  -16.1494   23.0301 N   0  0  0  0  0  0  0  0  0  0  0  0
   11.3442  -17.0217   24.3209 C   0  0  0  0  0  0  0  0  0  0  0  0
   10.8673  -18.1370   24.9666 O   0  0  0  0  0  0  0  0  0  0  0  0
   12.5389  -17.0257   23.9271 O   0  0  0  0  0  0  0  0  0  0  0  0
  2  1  1  6
  3  2  1  0
  3  4  1  0
  4  5  2  0
  5  6  1  0
  7  6  2  0
  8  7  1  0
  9  4  1  0
  9  8  2  0
 10  2  1  0
 10 11  2  0
 13 12  1  0
 14 13  1  0
 14 16  1  0
 14 15  1  6
 16 17  1  1
 16 18  1  0
 17 10  1  0
 18 19  2  0
 18 28  1  0
 20 21  1  0
 21 22  2  0
 21 23  1  0
 23 24  1  0
 24 25  1  0
 25 26  1  0
 27 26  1  1
 27 29  1  0
 28 27  1  0
 29 31  2  0
 29 30  1  0
M  END
$$$$
