FIR.pdb
     RDKit          3D

 31 31  0  0  1  0  0  0  0  0999 V2000
    6.2921  -16.9587   25.7932 N   0  0  0  0  0  0  0  0  0  0  0  0
    6.7013  -15.7848   25.0493 C   0  0  1  0  0  0  0  0  0  0  0  0
    7.6808  -15.0279   25.9540 C   0  0  0  0  0  0  0  0  0  0  0  0
    7.0776  -13.7465   26.4167 C   0  0  0  0  0  0  0  0  0  0  0  0
    6.2330  -12.9814   25.6363 C   0  0  0  0  0  0  0  0  0  0  0  0
    5.7096  -11.7925   26.1334 C   0  0  0  0  0  0  0  0  0  0  0  0
    6.0626  -11.4112   27.4217 C   0  0  0  0  0  0  0  0  0  0  0  0
    6.9075  -12.1739   28.2060 C   0  0  0  0  0  0  0  0  0  0  0  0
    7.4135  -13.3449   27.6955 C   0  0  0  0  0  0  0  0  0  0  0  0
    7.4484  -16.1663   23.8151 C   0  0  0  0  0  0  0  0  0  0  0  0
    7.7067  -17.3946   23.6505 O   0  0  0  0  0  0  0  0  0  0  0  0
    8.0542  -12.3889   19.5993 C   0  0  0  0  0  0  0  0  0  0  0  0
    8.4800  -13.2050   20.8266 C   0  0  0  0  0  0  0  0  0  0  0  0
    8.1948  -14.6513   20.5641 C   0  0  2  0  0  0  0  0  0  0  0  0
    6.7050  -14.7635   20.2611 C   0  0  0  0  0  0  0  0  0  0  0  0
    8.6396  -15.5795   21.6547 C   0  0  2  0  0  0  0  0  0  0  0  0
    7.8594  -15.2166   22.8584 N   0  0  0  0  0  0  0  0  0  0  0  0
   10.0492  -15.4949   22.0356 C   0  0  0  0  0  0  0  0  0  0  0  0
   10.3531  -14.8475   23.1063 O   0  0  0  0  0  0  0  0  0  0  0  0
   11.8711  -20.2124   27.2294 N   0  0  0  0  0  0  0  0  0  0  0  0
   12.9559  -20.6552   26.3964 C   0  0  0  0  0  0  0  0  0  0  0  0
   13.4039  -21.8637   26.4923 N   0  0  0  0  0  0  0  0  0  0  0  0
   13.5765  -19.8078   25.4489 N   0  0  0  0  0  0  0  0  0  0  0  0
   12.8293  -18.7009   24.8820 C   0  0  0  0  0  0  0  0  0  0  0  0
   12.4277  -18.9477   23.4696 C   0  0  0  0  0  0  0  0  0  0  0  0
   11.5414  -17.9522   22.8525 C   0  0  0  0  0  0  0  0  0  0  0  0
   12.1266  -16.8462   22.0517 C   0  0  2  0  0  0  0  0  0  0  0  0
   11.1503  -16.0572   21.3528 N   0  0  0  0  0  0  0  0  0  0  0  0
   13.2009  -17.2176   21.1242 C   0  0  0  0  0  0  0  0  0  0  0  0
   14.5187  -17.0564   21.4790 O   0  0  0  0  0  0  0  0  0  0  0  0
   12.9429  -17.6910   19.9876 O   0  0  0  0  0  0  0  0  0  0  0  0
  2  1  1  1
  3  2  1  0
  3  4  1  0
  4  5  2  0
  5  6  1  0
  7  6  2  0
  8  7  1  0
  9  4  1  0
  9  8  2  0
 10  2  1  0
 10 11  2  0
 13 12  1  0
 14 13  1  0
 14 16  1  0
 14 15  1  1
 16 17  1  1
 16 18  1  0
 17 10  1  0
 18 19  2  0
 18 28  1  0
 20 21  1  0
 21 22  2  0
 21 23  1  0
 23 24  1  0
 24 25  1  0
 25 26  1  0
 27 26  1  6
 27 29  1  0
 28 27  1  0
 29 31  2  0
 29 30  1  0
M  END
$$$$
