MDQ.pdb
     RDKit          3D

 26 25  0  0  1  0  0  0  0  0999 V2000
    7.5455  -11.0282   25.9546 C   0  0  0  0  0  0  0  0  0  0  0  0
    6.5708  -12.2043   26.9404 S   0  0  0  0  0  0  0  0  0  0  0  0
    6.0741  -13.6167   25.8952 C   0  0  0  0  0  0  0  0  0  0  0  0
    7.2601  -14.4996   25.5895 C   0  0  0  0  0  0  0  0  0  0  0  0
    6.8836  -15.6179   24.6327 C   0  0  2  0  0  0  0  0  0  0  0  0
    5.8689  -16.4179   25.2908 N   0  0  0  0  0  0  0  0  0  0  0  0
    8.0541  -16.4092   24.2390 C   0  0  0  0  0  0  0  0  0  0  0  0
    8.4416  -17.4493   24.7971 O   0  0  0  0  0  0  0  0  0  0  0  0
    8.8399  -15.9712   23.1173 N   0  0  0  0  0  0  0  0  0  0  0  0
   10.0519  -16.6381   22.7250 C   0  0  1  0  0  0  0  0  0  0  0  0
   10.3903  -16.1594   21.3129 C   0  0  0  0  0  0  0  0  0  0  0  0
   11.5299  -16.9290   20.7492 C   0  0  0  0  0  0  0  0  0  0  0  0
   12.0345  -16.6064   19.6281 O   0  0  0  0  0  0  0  0  0  0  0  0
   11.1661  -16.4151   23.6528 C   0  0  0  0  0  0  0  0  0  0  0  0
   11.7798  -15.3238   23.6192 O   0  0  0  0  0  0  0  0  0  0  0  0
   12.0263  -17.9993   21.4692 O   0  0  0  0  0  0  0  0  0  0  0  0
    9.3811  -14.7150   28.0984 N   0  0  0  0  0  0  0  0  0  0  0  0
   10.6074  -14.9871   28.7575 C   0  0  0  0  0  0  0  0  0  0  0  0
   10.8494  -14.6163   29.9163 O   0  0  0  0  0  0  0  0  0  0  0  0
   11.6303  -15.7621   27.9790 C   0  0  0  0  0  0  0  0  0  0  0  0
   11.1310  -16.1312   26.6278 C   0  0  0  0  0  0  0  0  0  0  0  0
   12.0887  -17.0496   25.9270 C   0  0  2  0  0  0  0  0  0  0  0  0
   11.5757  -17.3904   24.5884 N   0  0  0  0  0  0  0  0  0  0  0  0
   12.3809  -18.2678   26.6874 C   0  0  0  0  0  0  0  0  0  0  0  0
   13.4195  -18.4296   27.5640 O   0  0  0  0  0  0  0  0  0  0  0  0
   11.6211  -19.2857   26.5387 O   0  0  0  0  0  0  0  0  0  0  0  0
  2  1  1  0
  3  2  1  0
  4  5  1  0
  4  3  1  0
  5  6  1  1
  7  5  1  0
  7  8  2  0
  9  7  1  0
 10  9  1  0
 10 11  1  6
 12 11  1  0
 13 12  2  0
 14 10  1  0
 14 23  1  0
 15 14  2  0
 16 12  1  0
 17 18  1  0
 18 19  2  0
 18 20  1  0
 20 21  1  0
 22 21  1  1
 22 23  1  0
 22 24  1  0
 24 26  2  0
 24 25  1  0
M  END
$$$$
