MDQ.pdb
     RDKit          3D

 26 25  0  0  1  0  0  0  0  0999 V2000
    8.4318  -12.8046   22.1080 C   0  0  0  0  0  0  0  0  0  0  0  0
    7.3043  -13.1714   20.7300 S   0  0  0  0  0  0  0  0  0  0  0  0
    8.2027  -14.0850   19.4290 C   0  0  0  0  0  0  0  0  0  0  0  0
    8.7758  -13.1341   18.4058 C   0  0  0  0  0  0  0  0  0  0  0  0
    9.4406  -13.8859   17.2652 C   0  0  2  0  0  0  0  0  0  0  0  0
    8.3811  -14.4607   16.4593 N   0  0  0  0  0  0  0  0  0  0  0  0
   10.3808  -14.8971   17.7600 C   0  0  0  0  0  0  0  0  0  0  0  0
   10.4538  -16.0706   17.3590 O   0  0  0  0  0  0  0  0  0  0  0  0
   11.3087  -14.5311   18.7957 N   0  0  0  0  0  0  0  0  0  0  0  0
   12.5814  -15.1827   18.9481 C   0  0  1  0  0  0  0  0  0  0  0  0
   13.5712  -14.4513   18.0409 C   0  0  0  0  0  0  0  0  0  0  0  0
   14.8456  -15.2072   17.9256 C   0  0  0  0  0  0  0  0  0  0  0  0
   14.9625  -16.3587   18.4511 O   0  0  0  0  0  0  0  0  0  0  0  0
   13.0513  -15.2256   20.3371 C   0  0  0  0  0  0  0  0  0  0  0  0
   13.6023  -14.2131   20.8271 O   0  0  0  0  0  0  0  0  0  0  0  0
   15.8965  -14.6316   17.2366 O   0  0  0  0  0  0  0  0  0  0  0  0
    9.4513  -18.6542   24.4497 N   0  0  0  0  0  0  0  0  0  0  0  0
   10.2735  -18.6919   23.2944 C   0  0  0  0  0  0  0  0  0  0  0  0
   10.4196  -19.7101   22.6010 O   0  0  0  0  0  0  0  0  0  0  0  0
   10.9803  -17.4184   22.9317 C   0  0  0  0  0  0  0  0  0  0  0  0
   12.4275  -17.4759   23.2686 C   0  0  0  0  0  0  0  0  0  0  0  0
   13.1866  -16.3710   22.5945 C   0  0  2  0  0  0  0  0  0  0  0  0
   12.9051  -16.3725   21.1481 N   0  0  0  0  0  0  0  0  0  0  0  0
   14.6310  -16.4339   22.8338 C   0  0  0  0  0  0  0  0  0  0  0  0
   15.2674  -16.0289   23.9758 O   0  0  0  0  0  0  0  0  0  0  0  0
   15.3895  -16.8987   21.9150 O   0  0  0  0  0  0  0  0  0  0  0  0
  2  1  1  0
  3  2  1  0
  4  5  1  0
  4  3  1  0
  5  6  1  1
  7  5  1  0
  7  8  2  0
  9  7  1  0
 10  9  1  0
 10 11  1  6
 12 11  1  0
 13 12  2  0
 14 10  1  0
 14 23  1  0
 15 14  2  0
 16 12  1  0
 17 18  1  0
 18 19  2  0
 18 20  1  0
 20 21  1  0
 22 21  1  1
 22 23  1  0
 22 24  1  0
 24 26  2  0
 24 25  1  0
M  END
$$$$
