MDQ.pdb
     RDKit          3D

 26 25  0  0  1  0  0  0  0  0999 V2000
    6.0881  -12.5479   26.9024 C   0  0  0  0  0  0  0  0  0  0  0  0
    6.4082  -11.5731   25.4017 S   0  0  0  0  0  0  0  0  0  0  0  0
    6.4508  -12.6791   23.9494 C   0  0  0  0  0  0  0  0  0  0  0  0
    7.3557  -13.8608   24.2029 C   0  0  0  0  0  0  0  0  0  0  0  0
    7.4895  -14.7292   22.9635 C   0  0  2  0  0  0  0  0  0  0  0  0
    6.1635  -15.2208   22.6428 N   0  0  0  0  0  0  0  0  0  0  0  0
    8.4563  -15.8136   23.1654 C   0  0  0  0  0  0  0  0  0  0  0  0
    8.2271  -16.8828   23.7550 O   0  0  0  0  0  0  0  0  0  0  0  0
    9.7893  -15.6569   22.6497 N   0  0  0  0  0  0  0  0  0  0  0  0
   10.8866  -16.4662   23.1063 C   0  0  1  0  0  0  0  0  0  0  0  0
   12.1222  -16.0334   22.3166 C   0  0  0  0  0  0  0  0  0  0  0  0
   13.2682  -16.9419   22.5819 C   0  0  0  0  0  0  0  0  0  0  0  0
   13.0681  -18.1478   22.9303 O   0  0  0  0  0  0  0  0  0  0  0  0
   11.1121  -16.3794   24.5532 C   0  0  0  0  0  0  0  0  0  0  0  0
   10.8583  -15.3065   25.1476 O   0  0  0  0  0  0  0  0  0  0  0  0
   14.5511  -16.4471   22.4418 O   0  0  0  0  0  0  0  0  0  0  0  0
    7.0764  -19.2647   26.0222 N   0  0  0  0  0  0  0  0  0  0  0  0
    7.5317  -19.2659   27.3657 C   0  0  0  0  0  0  0  0  0  0  0  0
    6.8268  -19.6321   28.3185 O   0  0  0  0  0  0  0  0  0  0  0  0
    8.9375  -18.7941   27.5984 C   0  0  0  0  0  0  0  0  0  0  0  0
    9.5601  -18.2797   26.3498 C   0  0  0  0  0  0  0  0  0  0  0  0
   10.9966  -17.9074   26.5725 C   0  0  2  0  0  0  0  0  0  0  0  0
   11.6076  -17.4665   25.3063 N   0  0  0  0  0  0  0  0  0  0  0  0
   11.7860  -18.9868   27.1719 C   0  0  0  0  0  0  0  0  0  0  0  0
   12.6575  -19.8025   26.5023 O   0  0  0  0  0  0  0  0  0  0  0  0
   11.6706  -19.2136   28.4252 O   0  0  0  0  0  0  0  0  0  0  0  0
  2  1  1  0
  3  2  1  0
  4  5  1  0
  4  3  1  0
  5  6  1  1
  7  5  1  0
  7  8  2  0
  9  7  1  0
 10  9  1  0
 10 11  1  6
 12 11  1  0
 13 12  2  0
 14 10  1  0
 14 23  1  0
 15 14  2  0
 16 12  1  0
 17 18  1  0
 18 19  2  0
 18 20  1  0
 20 21  1  0
 22 21  1  6
 22 23  1  0
 22 24  1  0
 24 26  2  0
 24 25  1  0
M  END
$$$$
