MDQ.pdb
     RDKit          3D

 26 25  0  0  1  0  0  0  0  0999 V2000
    7.0720  -12.2354   27.8069 C   0  0  0  0  0  0  0  0  0  0  0  0
    6.9405  -12.3726   25.9989 S   0  0  0  0  0  0  0  0  0  0  0  0
    6.9654  -14.1329   25.5140 C   0  0  0  0  0  0  0  0  0  0  0  0
    6.9771  -14.2738   24.0108 C   0  0  0  0  0  0  0  0  0  0  0  0
    6.9658  -15.7345   23.5934 C   0  0  2  0  0  0  0  0  0  0  0  0
    5.9327  -16.3914   24.3704 N   0  0  0  0  0  0  0  0  0  0  0  0
    8.2820  -16.3571   23.7698 C   0  0  0  0  0  0  0  0  0  0  0  0
    8.6153  -17.0796   24.7239 O   0  0  0  0  0  0  0  0  0  0  0  0
    9.2931  -16.1319   22.7725 N   0  0  0  0  0  0  0  0  0  0  0  0
   10.5677  -16.7963   22.8115 C   0  0  1  0  0  0  0  0  0  0  0  0
   11.2616  -16.5139   21.4786 C   0  0  0  0  0  0  0  0  0  0  0  0
   12.4800  -17.3511   21.3254 C   0  0  0  0  0  0  0  0  0  0  0  0
   13.5788  -16.8294   20.9564 O   0  0  0  0  0  0  0  0  0  0  0  0
   11.4002  -16.3934   23.9502 C   0  0  0  0  0  0  0  0  0  0  0  0
   12.1190  -15.3725   23.8504 O   0  0  0  0  0  0  0  0  0  0  0  0
   12.3910  -18.7042   21.5922 O   0  0  0  0  0  0  0  0  0  0  0  0
   10.2994  -13.4864   28.9725 N   0  0  0  0  0  0  0  0  0  0  0  0
   10.1815  -14.8447   28.5810 C   0  0  0  0  0  0  0  0  0  0  0  0
    9.5369  -15.6823   29.2304 O   0  0  0  0  0  0  0  0  0  0  0  0
   10.8855  -15.2422   27.3164 C   0  0  0  0  0  0  0  0  0  0  0  0
   11.6915  -16.4784   27.4995 C   0  0  0  0  0  0  0  0  0  0  0  0
   12.4010  -16.8569   26.2326 C   0  0  2  0  0  0  0  0  0  0  0  0
   11.4222  -17.1175   25.1625 N   0  0  0  0  0  0  0  0  0  0  0  0
   13.2982  -18.0043   26.3946 C   0  0  0  0  0  0  0  0  0  0  0  0
   13.1980  -19.1942   25.7258 O   0  0  0  0  0  0  0  0  0  0  0  0
   14.2653  -17.9192   27.2271 O   0  0  0  0  0  0  0  0  0  0  0  0
  2  1  1  0
  3  2  1  0
  4  5  1  0
  4  3  1  0
  5  6  1  1
  7  5  1  0
  7  8  2  0
  9  7  1  0
 10  9  1  0
 10 11  1  6
 12 11  1  0
 13 12  2  0
 14 10  1  0
 14 23  1  0
 15 14  2  0
 16 12  1  0
 17 18  1  0
 18 19  2  0
 18 20  1  0
 20 21  1  0
 22 21  1  1
 22 23  1  0
 22 24  1  0
 24 26  2  0
 24 25  1  0
M  END
$$$$
