MDQ.pdb
     RDKit          3D

 26 25  0  0  1  0  0  0  0  0999 V2000
    7.1561  -11.6361   19.1671 C   0  0  0  0  0  0  0  0  0  0  0  0
    7.3641  -12.9411   17.9186 S   0  0  0  0  0  0  0  0  0  0  0  0
    8.7535  -14.0270   18.3922 C   0  0  0  0  0  0  0  0  0  0  0  0
    8.7811  -14.2400   19.8866 C   0  0  0  0  0  0  0  0  0  0  0  0
   10.1025  -14.8413   20.3341 C   0  0  2  0  0  0  0  0  0  0  0  0
   10.5599  -15.7077   19.2651 N   0  0  0  0  0  0  0  0  0  0  0  0
    9.9690  -15.5492   21.6118 C   0  0  0  0  0  0  0  0  0  0  0  0
    9.2619  -15.1857   22.5665 O   0  0  0  0  0  0  0  0  0  0  0  0
   10.7049  -16.7689   21.8071 N   0  0  0  0  0  0  0  0  0  0  0  0
   10.6593  -17.5004   23.0442 C   0  0  1  0  0  0  0  0  0  0  0  0
   11.8393  -18.4726   23.0342 C   0  0  0  0  0  0  0  0  0  0  0  0
   11.8637  -19.2923   24.2737 C   0  0  0  0  0  0  0  0  0  0  0  0
   10.7841  -19.7445   24.7693 O   0  0  0  0  0  0  0  0  0  0  0  0
   10.6787  -16.6391   24.2315 C   0  0  0  0  0  0  0  0  0  0  0  0
   11.7240  -16.0084   24.5115 O   0  0  0  0  0  0  0  0  0  0  0  0
   13.0823  -19.5503   24.8726 O   0  0  0  0  0  0  0  0  0  0  0  0
    6.7787  -11.6524   27.6800 N   0  0  0  0  0  0  0  0  0  0  0  0
    6.8266  -12.8850   26.9795 C   0  0  0  0  0  0  0  0  0  0  0  0
    5.8806  -13.3153   26.3022 O   0  0  0  0  0  0  0  0  0  0  0  0
    8.1001  -13.6715   27.0913 C   0  0  0  0  0  0  0  0  0  0  0  0
    8.2463  -14.6451   25.9769 C   0  0  0  0  0  0  0  0  0  0  0  0
    9.4836  -15.4778   26.1418 C   0  0  2  0  0  0  0  0  0  0  0  0
    9.5565  -16.4930   25.0763 N   0  0  0  0  0  0  0  0  0  0  0  0
    9.5806  -16.1123   27.4592 C   0  0  0  0  0  0  0  0  0  0  0  0
    9.9582  -15.4887   28.6176 O   0  0  0  0  0  0  0  0  0  0  0  0
    9.2983  -17.3549   27.5685 O   0  0  0  0  0  0  0  0  0  0  0  0
  2  1  1  0
  3  2  1  0
  4  5  1  0
  4  3  1  0
  5  6  1  6
  7  5  1  0
  7  8  2  0
  9  7  1  0
 10  9  1  0
 10 11  1  1
 12 11  1  0
 13 12  2  0
 14 10  1  0
 14 23  1  0
 15 14  2  0
 16 12  1  0
 17 18  1  0
 18 19  2  0
 18 20  1  0
 20 21  1  0
 22 21  1  1
 22 23  1  0
 22 24  1  0
 24 26  2  0
 24 25  1  0
M  END
$$$$
