MDQ.pdb
     RDKit          3D

 26 25  0  0  1  0  0  0  0  0999 V2000
    7.3476  -10.9158   25.5392 C   0  0  0  0  0  0  0  0  0  0  0  0
    6.5634  -12.2358   26.5126 S   0  0  0  0  0  0  0  0  0  0  0  0
    5.6441  -13.3546   25.4003 C   0  0  0  0  0  0  0  0  0  0  0  0
    6.3868  -14.6563   25.2171 C   0  0  0  0  0  0  0  0  0  0  0  0
    7.7540  -14.4289   24.5948 C   0  0  2  0  0  0  0  0  0  0  0  0
    7.5327  -13.9507   23.2439 N   0  0  0  0  0  0  0  0  0  0  0  0
    8.5739  -15.6445   24.6326 C   0  0  0  0  0  0  0  0  0  0  0  0
    8.7377  -16.3726   25.6257 O   0  0  0  0  0  0  0  0  0  0  0  0
    9.2582  -16.0548   23.4364 N   0  0  0  0  0  0  0  0  0  0  0  0
   10.1639  -17.1714   23.4177 C   0  0  1  0  0  0  0  0  0  0  0  0
   10.6976  -17.2922   21.9900 C   0  0  0  0  0  0  0  0  0  0  0  0
   11.7050  -18.3803   21.8890 C   0  0  0  0  0  0  0  0  0  0  0  0
   11.3637  -19.5930   22.0582 O   0  0  0  0  0  0  0  0  0  0  0  0
   11.2529  -17.0547   24.3937 C   0  0  0  0  0  0  0  0  0  0  0  0
   12.0533  -16.0955   24.3041 O   0  0  0  0  0  0  0  0  0  0  0  0
   13.0159  -18.0445   21.6083 O   0  0  0  0  0  0  0  0  0  0  0  0
   11.3128  -14.1091   28.3777 N   0  0  0  0  0  0  0  0  0  0  0  0
   10.5979  -15.2419   28.8447 C   0  0  0  0  0  0  0  0  0  0  0  0
    9.7671  -15.1856   29.7641 O   0  0  0  0  0  0  0  0  0  0  0  0
   10.8924  -16.5480   28.1662 C   0  0  0  0  0  0  0  0  0  0  0  0
   12.0296  -16.4310   27.2152 C   0  0  0  0  0  0  0  0  0  0  0  0
   12.3403  -17.7520   26.5749 C   0  0  2  0  0  0  0  0  0  0  0  0
   11.4342  -17.9888   25.4373 N   0  0  0  0  0  0  0  0  0  0  0  0
   12.2854  -18.8755   27.5141 C   0  0  0  0  0  0  0  0  0  0  0  0
   13.1504  -19.0877   28.5534 O   0  0  0  0  0  0  0  0  0  0  0  0
   11.3644  -19.7519   27.3754 O   0  0  0  0  0  0  0  0  0  0  0  0
  2  1  1  0
  3  2  1  0
  4  5  1  0
  4  3  1  0
  5  6  1  6
  7  5  1  0
  7  8  2  0
  9  7  1  0
 10  9  1  0
 10 11  1  6
 12 11  1  0
 13 12  2  0
 14 10  1  0
 14 23  1  0
 15 14  2  0
 16 12  1  0
 17 18  1  0
 18 19  2  0
 18 20  1  0
 20 21  1  0
 22 21  1  1
 22 23  1  0
 22 24  1  0
 24 26  2  0
 24 25  1  0
M  END
$$$$
