HQE.pdb
     RDKit          3D

 29 29  0  0  1  0  0  0  0  0999 V2000
   14.7444  -13.3227   15.6324 N   0  0  0  0  0  0  0  0  0  0  0  0
   15.1465  -14.3639   16.5588 C   0  0  1  0  0  0  0  0  0  0  0  0
   16.6516  -14.3238   16.7023 C   0  0  0  0  0  0  0  0  0  0  0  0
   17.2351  -14.8177   15.4259 C   0  0  0  0  0  0  0  0  0  0  0  0
   16.9050  -15.9657   14.7414 C   0  0  0  0  0  0  0  0  0  0  0  0
   17.6729  -16.0441   13.6248 N   0  0  0  0  0  0  0  0  0  0  0  0
   18.4700  -14.9709   13.6034 C   0  0  0  0  0  0  0  0  0  0  0  0
   18.1990  -14.2303   14.7000 N   0  0  0  0  0  0  0  0  0  0  0  0
   14.4395  -14.2318   17.8334 C   0  0  0  0  0  0  0  0  0  0  0  0
   14.3625  -13.0903   18.3832 O   0  0  0  0  0  0  0  0  0  0  0  0
   10.0119  -17.6237   20.2104 N   0  0  0  0  0  0  0  0  0  0  0  0
    9.9897  -16.5353   21.1359 C   0  0  0  0  0  0  0  0  0  0  0  0
    9.2085  -16.6491   22.1128 O   0  0  0  0  0  0  0  0  0  0  0  0
   10.8694  -15.3661   20.8902 C   0  0  0  0  0  0  0  0  0  0  0  0
   11.6810  -15.4642   19.6327 C   0  0  0  0  0  0  0  0  0  0  0  0
   13.1377  -15.1278   19.7911 C   0  0  2  0  0  0  0  0  0  0  0  0
   13.8315  -15.3061   18.4965 N   0  0  0  0  0  0  0  0  0  0  0  0
   13.8409  -15.9744   20.7898 C   0  0  0  0  0  0  0  0  0  0  0  0
   14.7390  -16.7830   20.4459 O   0  0  0  0  0  0  0  0  0  0  0  0
   13.5422  -15.9201   22.1780 N   0  0  0  0  0  0  0  0  0  0  0  0
   14.5202  -16.1403   23.2124 C   0  0  1  0  0  0  0  0  0  0  0  0
   15.8642  -15.6026   22.8745 C   0  0  0  0  0  0  0  0  0  0  0  0
   16.9544  -15.7515   23.8439 C   0  0  0  0  0  0  0  0  0  0  0  0
   18.2772  -15.2502   23.5321 C   0  0  0  0  0  0  0  0  0  0  0  0
   18.6931  -14.7724   22.4557 O   0  0  0  0  0  0  0  0  0  0  0  0
   14.0446  -15.8976   24.5800 C   0  0  0  0  0  0  0  0  0  0  0  0
   14.7020  -16.4672   25.6478 O   0  0  0  0  0  0  0  0  0  0  0  0
   19.2595  -15.2887   24.5553 O   0  0  0  0  0  0  0  0  0  0  0  0
   13.0471  -15.1817   24.7817 O   0  0  0  0  0  0  0  0  0  0  0  0
  2  1  1  6
  3  2  1  0
  3  4  1  0
  4  5  2  0
  4  8  1  0
  5  6  1  0
  6  7  1  0
  8  7  2  0
  9 17  1  0
  9  2  1  0
 10  9  2  0
 12 11  1  0
 13 12  2  0
 14 12  1  0
 16 15  1  6
 15 14  1  0
 16 17  1  0
 18 20  1  0
 18 16  1  0
 19 18  2  0
 21 22  1  6
 21 20  1  0
 23 22  1  0
 24 23  1  0
 24 25  2  0
 26 21  1  0
 27 26  1  0
 28 24  1  0
 29 26  2  0
M  END
$$$$
