HQE.pdb
     RDKit          3D

 29 29  0  0  1  0  0  0  0  0999 V2000
   12.4250  -17.3961   15.7102 N   0  0  0  0  0  0  0  0  0  0  0  0
   11.1577  -17.5587   16.3969 C   0  0  1  0  0  0  0  0  0  0  0  0
   10.8563  -19.0369   16.5050 C   0  0  0  0  0  0  0  0  0  0  0  0
   10.3703  -19.4918   15.1743 C   0  0  0  0  0  0  0  0  0  0  0  0
    9.1137  -19.3231   14.6377 C   0  0  0  0  0  0  0  0  0  0  0  0
    9.0873  -19.8863   13.4029 N   0  0  0  0  0  0  0  0  0  0  0  0
   10.2988  -20.3991   13.1640 C   0  0  0  0  0  0  0  0  0  0  0  0
   11.0730  -20.1561   14.2438 N   0  0  0  0  0  0  0  0  0  0  0  0
   11.1721  -16.8746   17.6906 C   0  0  0  0  0  0  0  0  0  0  0  0
   12.1904  -16.9885   18.4399 O   0  0  0  0  0  0  0  0  0  0  0  0
    6.8789  -12.6877   19.9168 N   0  0  0  0  0  0  0  0  0  0  0  0
    7.8697  -12.6797   20.9463 C   0  0  0  0  0  0  0  0  0  0  0  0
    7.6844  -11.8753   21.8930 O   0  0  0  0  0  0  0  0  0  0  0  0
    9.0284  -13.5997   20.8346 C   0  0  0  0  0  0  0  0  0  0  0  0
    9.0563  -14.3976   19.5650 C   0  0  0  0  0  0  0  0  0  0  0  0
   10.1863  -15.3839   19.4615 C   0  0  2  0  0  0  0  0  0  0  0  0
   10.1128  -16.0876   18.1621 N   0  0  0  0  0  0  0  0  0  0  0  0
   10.1738  -16.4202   20.5267 C   0  0  0  0  0  0  0  0  0  0  0  0
    9.9285  -17.6244   20.2654 O   0  0  0  0  0  0  0  0  0  0  0  0
   10.4358  -16.1135   21.8893 N   0  0  0  0  0  0  0  0  0  0  0  0
   10.4013  -17.0910   22.9467 C   0  0  1  0  0  0  0  0  0  0  0  0
   11.1055  -18.3541   22.6024 C   0  0  0  0  0  0  0  0  0  0  0  0
   12.5625  -18.3342   22.4373 C   0  0  0  0  0  0  0  0  0  0  0  0
   13.2699  -19.5472   22.0816 C   0  0  0  0  0  0  0  0  0  0  0  0
   13.3484  -20.6168   22.7217 O   0  0  0  0  0  0  0  0  0  0  0  0
   10.6369  -16.5584   24.2943 C   0  0  0  0  0  0  0  0  0  0  0  0
   10.8938  -15.2165   24.4680 O   0  0  0  0  0  0  0  0  0  0  0  0
   13.9797  -19.5653   20.8531 O   0  0  0  0  0  0  0  0  0  0  0  0
   10.6095  -17.3132   25.2830 O   0  0  0  0  0  0  0  0  0  0  0  0
  2  1  1  1
  3  2  1  0
  3  4  1  0
  4  5  2  0
  4  8  1  0
  5  6  1  0
  6  7  1  0
  8  7  2  0
  9 17  1  0
  9  2  1  0
 10  9  2  0
 12 11  1  0
 13 12  2  0
 14 12  1  0
 16 15  1  1
 15 14  1  0
 16 17  1  0
 18 20  1  0
 18 16  1  0
 19 18  2  0
 21 22  1  6
 21 20  1  0
 23 22  1  0
 24 23  1  0
 24 25  2  0
 26 21  1  0
 27 26  1  0
 28 24  1  0
 29 26  2  0
M  END
$$$$
