HQE.pdb
     RDKit          3D

 29 29  0  0  1  0  0  0  0  0999 V2000
   10.9605  -16.8967   15.2656 N   0  0  0  0  0  0  0  0  0  0  0  0
   12.2252  -17.0461   15.9600 C   0  0  1  0  0  0  0  0  0  0  0  0
   13.2001  -16.0311   15.4059 C   0  0  0  0  0  0  0  0  0  0  0  0
   13.5623  -16.4652   14.0296 C   0  0  0  0  0  0  0  0  0  0  0  0
   13.5094  -17.7394   13.5108 C   0  0  0  0  0  0  0  0  0  0  0  0
   13.9254  -17.7021   12.2191 N   0  0  0  0  0  0  0  0  0  0  0  0
   14.2342  -16.4343   11.9278 C   0  0  0  0  0  0  0  0  0  0  0  0
   14.0114  -15.6884   13.0317 N   0  0  0  0  0  0  0  0  0  0  0  0
   12.0423  -16.9425   17.4083 C   0  0  0  0  0  0  0  0  0  0  0  0
   11.8242  -15.8036   17.9249 O   0  0  0  0  0  0  0  0  0  0  0  0
    9.2587  -20.8529   21.2184 N   0  0  0  0  0  0  0  0  0  0  0  0
    9.3177  -20.6719   19.8022 C   0  0  0  0  0  0  0  0  0  0  0  0
    8.5580  -21.3981   19.1145 O   0  0  0  0  0  0  0  0  0  0  0  0
   10.2515  -19.6619   19.2461 C   0  0  0  0  0  0  0  0  0  0  0  0
   11.0024  -18.8843   20.2858 C   0  0  0  0  0  0  0  0  0  0  0  0
   11.9804  -17.8802   19.7423 C   0  0  2  0  0  0  0  0  0  0  0  0
   12.0937  -18.0417   18.2759 N   0  0  0  0  0  0  0  0  0  0  0  0
   13.3482  -18.0118   20.3084 C   0  0  0  0  0  0  0  0  0  0  0  0
   14.1756  -18.8314   19.8369 O   0  0  0  0  0  0  0  0  0  0  0  0
   13.7963  -17.2268   21.4049 N   0  0  0  0  0  0  0  0  0  0  0  0
   15.1051  -17.3533   21.9930 C   0  0  1  0  0  0  0  0  0  0  0  0
   16.0504  -16.2922   21.5568 C   0  0  0  0  0  0  0  0  0  0  0  0
   17.4214  -16.3030   22.0770 C   0  0  0  0  0  0  0  0  0  0  0  0
   18.3474  -15.2526   21.7059 C   0  0  0  0  0  0  0  0  0  0  0  0
   19.5502  -15.1308   22.0196 O   0  0  0  0  0  0  0  0  0  0  0  0
   15.1152  -17.6898   23.4220 C   0  0  0  0  0  0  0  0  0  0  0  0
   16.2155  -18.3062   23.9754 O   0  0  0  0  0  0  0  0  0  0  0  0
   17.8658  -14.2053   20.8785 O   0  0  0  0  0  0  0  0  0  0  0  0
   14.1329  -17.4243   24.1379 O   0  0  0  0  0  0  0  0  0  0  0  0
  2  1  1  6
  3  2  1  0
  3  4  1  0
  4  5  2  0
  4  8  1  0
  5  6  1  0
  6  7  1  0
  8  7  2  0
  9 17  1  0
  9  2  1  0
 10  9  2  0
 12 11  1  0
 13 12  2  0
 14 12  1  0
 16 15  1  1
 15 14  1  0
 16 17  1  0
 18 20  1  0
 18 16  1  0
 19 18  2  0
 21 22  1  1
 21 20  1  0
 23 22  1  0
 24 23  1  0
 24 25  2  0
 26 21  1  0
 27 26  1  0
 28 24  1  0
 29 26  2  0
M  END
$$$$
