HQE.pdb
     RDKit          3D

 29 29  0  0  1  0  0  0  0  0999 V2000
    8.0185  -12.6290   18.3946 N   0  0  0  0  0  0  0  0  0  0  0  0
    8.2137  -13.9750   18.8986 C   0  0  1  0  0  0  0  0  0  0  0  0
    9.1682  -14.6996   17.9758 C   0  0  0  0  0  0  0  0  0  0  0  0
    8.4422  -14.9700   16.7055 C   0  0  0  0  0  0  0  0  0  0  0  0
    7.4048  -15.8523   16.5037 C   0  0  0  0  0  0  0  0  0  0  0  0
    7.0293  -15.7936   15.2005 N   0  0  0  0  0  0  0  0  0  0  0  0
    7.8109  -14.8953   14.5923 C   0  0  0  0  0  0  0  0  0  0  0  0
    8.6666  -14.3989   15.5120 N   0  0  0  0  0  0  0  0  0  0  0  0
    8.6605  -13.9524   20.2920 C   0  0  0  0  0  0  0  0  0  0  0  0
    9.8148  -13.5001   20.5648 O   0  0  0  0  0  0  0  0  0  0  0  0
    6.0051  -15.7212   26.5034 N   0  0  0  0  0  0  0  0  0  0  0  0
    6.3917  -14.4145   26.0734 C   0  0  0  0  0  0  0  0  0  0  0  0
    5.7084  -13.4570   26.5137 O   0  0  0  0  0  0  0  0  0  0  0  0
    7.5482  -14.2742   25.1546 C   0  0  0  0  0  0  0  0  0  0  0  0
    7.1960  -14.4051   23.7026 C   0  0  0  0  0  0  0  0  0  0  0  0
    8.3652  -14.3464   22.7594 C   0  0  2  0  0  0  0  0  0  0  0  0
    7.8795  -14.4069   21.3631 N   0  0  0  0  0  0  0  0  0  0  0  0
    9.3339  -15.4591   22.9390 C   0  0  0  0  0  0  0  0  0  0  0  0
    9.1516  -16.5790   22.3994 O   0  0  0  0  0  0  0  0  0  0  0  0
   10.5110  -15.3235   23.7235 N   0  0  0  0  0  0  0  0  0  0  0  0
   11.4627  -16.3864   23.9221 C   0  0  1  0  0  0  0  0  0  0  0  0
   12.8220  -16.0601   23.4167 C   0  0  0  0  0  0  0  0  0  0  0  0
   13.9185  -17.0015   23.6653 C   0  0  0  0  0  0  0  0  0  0  0  0
   15.2555  -16.6997   23.1964 C   0  0  0  0  0  0  0  0  0  0  0  0
   15.6313  -15.7474   22.4811 O   0  0  0  0  0  0  0  0  0  0  0  0
   11.3939  -17.0465   25.2317 C   0  0  0  0  0  0  0  0  0  0  0  0
   10.5881  -16.5285   26.2212 O   0  0  0  0  0  0  0  0  0  0  0  0
   16.3054  -17.5752   23.5767 O   0  0  0  0  0  0  0  0  0  0  0  0
   12.0627  -18.0715   25.4557 O   0  0  0  0  0  0  0  0  0  0  0  0
  2  1  1  6
  3  2  1  0
  3  4  1  0
  4  5  2  0
  4  8  1  0
  5  6  1  0
  6  7  1  0
  8  7  2  0
  9 17  1  0
  9  2  1  0
 10  9  2  0
 12 11  1  0
 13 12  2  0
 14 12  1  0
 16 15  1  1
 15 14  1  0
 16 17  1  0
 18 20  1  0
 18 16  1  0
 19 18  2  0
 21 22  1  1
 21 20  1  0
 23 22  1  0
 24 23  1  0
 24 25  2  0
 26 21  1  0
 27 26  1  0
 28 24  1  0
 29 26  2  0
M  END
$$$$
