ELT.pdb
     RDKit          3D

 25 24  0  0  1  0  0  0  0  0999 V2000
    8.1141  -13.0705   20.0778 N   0  0  0  0  0  0  0  0  0  0  0  0
    7.6005  -14.1849   20.8551 C   0  0  1  0  0  0  0  0  0  0  0  0
    8.1306  -15.4507   20.1646 C   0  0  0  0  0  0  0  0  0  0  0  0
    6.9328  -16.3719   19.9048 C   0  0  0  0  0  0  0  0  0  0  0  0
    7.3768  -17.6709   19.3608 C   0  0  0  0  0  0  0  0  0  0  0  0
    7.5311  -17.8392   18.1324 O   0  0  0  0  0  0  0  0  0  0  0  0
    8.1793  -14.0822   22.2178 C   0  0  0  0  0  0  0  0  0  0  0  0
    9.3990  -13.8404   22.3509 O   0  0  0  0  0  0  0  0  0  0  0  0
    7.6309  -18.7384   20.2128 O   0  0  0  0  0  0  0  0  0  0  0  0
    5.3609  -11.9422   26.4793 C   0  0  0  0  0  0  0  0  0  0  0  0
    6.4543  -12.4151   25.5929 C   0  0  1  0  0  0  0  0  0  0  0  0
    7.7169  -11.5773   25.8411 C   0  0  0  0  0  0  0  0  0  0  0  0
    6.8512  -13.8381   25.7151 C   0  0  0  0  0  0  0  0  0  0  0  0
    7.8117  -14.3289   24.6763 C   0  0  2  0  0  0  0  0  0  0  0  0
    7.3244  -14.2631   23.3395 N   0  0  0  0  0  0  0  0  0  0  0  0
    8.2443  -15.6977   25.0603 C   0  0  0  0  0  0  0  0  0  0  0  0
    7.3737  -16.5589   25.3363 O   0  0  0  0  0  0  0  0  0  0  0  0
   10.5724  -18.1087   23.0993 C   0  0  0  0  0  0  0  0  0  0  0  0
   11.0434  -17.9811   24.5156 C   0  0  1  0  0  0  0  0  0  0  0  0
   12.1819  -17.1869   24.5829 O   0  0  0  0  0  0  0  0  0  0  0  0
   10.0295  -17.4483   25.4713 C   0  0  2  0  0  0  0  0  0  0  0  0
    9.6011  -16.0984   25.1347 N   0  0  0  0  0  0  0  0  0  0  0  0
   10.4496  -17.5386   26.8871 C   0  0  0  0  0  0  0  0  0  0  0  0
   10.6828  -18.7864   27.4371 O   0  0  0  0  0  0  0  0  0  0  0  0
   10.6070  -16.5319   27.6183 O   0  0  0  0  0  0  0  0  0  0  0  0
  2  7  1  0
  2  1  1  6
  3  2  1  0
  4  3  1  0
  5  4  1  0
  6  5  2  0
  7  8  2  0
  9  5  1  0
 11 10  1  1
 11 12  1  0
 13 11  1  0
 14 13  1  1
 15 14  1  0
 15  7  1  0
 16 22  1  0
 16 14  1  0
 17 16  2  0
 19 18  1  6
 20 19  1  0
 21 19  1  0
 21 22  1  6
 23 21  1  0
 23 24  1  0
 25 23  2  0
M  END
$$$$
