ELT.pdb
     RDKit          3D

 25 24  0  0  1  0  0  0  0  0999 V2000
    8.5395  -14.6132   20.3608 N   0  0  0  0  0  0  0  0  0  0  0  0
    7.7024  -15.3141   21.3189 C   0  0  1  0  0  0  0  0  0  0  0  0
    7.7729  -16.7970   20.9235 C   0  0  0  0  0  0  0  0  0  0  0  0
    7.0802  -16.9465   19.5638 C   0  0  0  0  0  0  0  0  0  0  0  0
    7.1042  -18.3525   19.1134 C   0  0  0  0  0  0  0  0  0  0  0  0
    6.1379  -19.1160   19.3239 O   0  0  0  0  0  0  0  0  0  0  0  0
    8.3087  -15.1279   22.6606 C   0  0  0  0  0  0  0  0  0  0  0  0
    9.5537  -15.0916   22.7729 O   0  0  0  0  0  0  0  0  0  0  0  0
    8.2125  -18.8558   18.4436 O   0  0  0  0  0  0  0  0  0  0  0  0
    5.6690  -12.0291   26.4311 C   0  0  0  0  0  0  0  0  0  0  0  0
    6.7148  -12.7332   25.6466 C   0  0  1  0  0  0  0  0  0  0  0  0
    8.0271  -11.9383   25.7082 C   0  0  0  0  0  0  0  0  0  0  0  0
    7.0348  -14.1237   26.0483 C   0  0  0  0  0  0  0  0  0  0  0  0
    7.9410  -14.8691   25.1179 C   0  0  2  0  0  0  0  0  0  0  0  0
    7.4505  -14.9953   23.7866 N   0  0  0  0  0  0  0  0  0  0  0  0
    8.2569  -16.1822   25.7375 C   0  0  0  0  0  0  0  0  0  0  0  0
    7.3156  -16.9431   26.0707 O   0  0  0  0  0  0  0  0  0  0  0  0
    9.8987  -19.1324   24.2613 C   0  0  0  0  0  0  0  0  0  0  0  0
   10.6510  -18.7900   25.5105 C   0  0  1  0  0  0  0  0  0  0  0  0
   11.8420  -18.1434   25.2026 O   0  0  0  0  0  0  0  0  0  0  0  0
    9.8953  -17.9610   26.4939 C   0  0  2  0  0  0  0  0  0  0  0  0
    9.5766  -16.6371   25.9791 N   0  0  0  0  0  0  0  0  0  0  0  0
   10.5487  -17.8765   27.8187 C   0  0  0  0  0  0  0  0  0  0  0  0
   10.6649  -19.0249   28.5814 O   0  0  0  0  0  0  0  0  0  0  0  0
   11.0069  -16.8072   28.2873 O   0  0  0  0  0  0  0  0  0  0  0  0
  2  7  1  0
  2  1  1  6
  3  2  1  0
  4  3  1  0
  5  4  1  0
  6  5  2  0
  7  8  2  0
  9  5  1  0
 11 10  1  1
 11 12  1  0
 13 11  1  0
 14 13  1  1
 15 14  1  0
 15  7  1  0
 16 22  1  0
 16 14  1  0
 17 16  2  0
 19 18  1  6
 20 19  1  0
 21 19  1  0
 21 22  1  6
 23 21  1  0
 23 24  1  0
 25 23  2  0
M  END
$$$$
