ELT.pdb
     RDKit          3D

 25 24  0  0  1  0  0  0  0  0999 V2000
    8.3076  -14.1908   20.1851 N   0  0  0  0  0  0  0  0  0  0  0  0
    7.4999  -14.8780   21.1777 C   0  0  1  0  0  0  0  0  0  0  0  0
    7.4601  -16.3481   20.7335 C   0  0  0  0  0  0  0  0  0  0  0  0
    7.6317  -16.3758   19.2101 C   0  0  0  0  0  0  0  0  0  0  0  0
    7.6360  -17.7639   18.7067 C   0  0  0  0  0  0  0  0  0  0  0  0
    7.0849  -18.0619   17.6257 O   0  0  0  0  0  0  0  0  0  0  0  0
    8.2058  -14.7706   22.4787 C   0  0  0  0  0  0  0  0  0  0  0  0
    9.4560  -14.7472   22.4996 O   0  0  0  0  0  0  0  0  0  0  0  0
    8.2567  -18.7720   19.4338 O   0  0  0  0  0  0  0  0  0  0  0  0
    5.6805  -12.1060   26.6792 C   0  0  0  0  0  0  0  0  0  0  0  0
    6.7143  -12.6631   25.7705 C   0  0  1  0  0  0  0  0  0  0  0  0
    7.9693  -11.7795   25.8153 C   0  0  0  0  0  0  0  0  0  0  0  0
    7.1577  -14.0538   26.0286 C   0  0  0  0  0  0  0  0  0  0  0  0
    8.0236  -14.6597   24.9677 C   0  0  2  0  0  0  0  0  0  0  0  0
    7.4348  -14.6969   23.6712 N   0  0  0  0  0  0  0  0  0  0  0  0
    8.4559  -16.0014   25.4378 C   0  0  0  0  0  0  0  0  0  0  0  0
    7.5850  -16.8647   25.7067 O   0  0  0  0  0  0  0  0  0  0  0  0
   10.8418  -18.2791   23.5350 C   0  0  0  0  0  0  0  0  0  0  0  0
   11.2758  -18.2349   24.9681 C   0  0  1  0  0  0  0  0  0  0  0  0
   12.4303  -17.4736   25.1063 O   0  0  0  0  0  0  0  0  0  0  0  0
   10.2483  -17.7256   25.9222 C   0  0  2  0  0  0  0  0  0  0  0  0
    9.8126  -16.3737   25.6036 N   0  0  0  0  0  0  0  0  0  0  0  0
   10.6550  -17.8361   27.3404 C   0  0  0  0  0  0  0  0  0  0  0  0
   10.9305  -19.0878   27.8615 O   0  0  0  0  0  0  0  0  0  0  0  0
   10.7641  -16.8433   28.0989 O   0  0  0  0  0  0  0  0  0  0  0  0
  2  7  1  0
  2  1  1  6
  3  2  1  0
  4  3  1  0
  5  4  1  0
  6  5  2  0
  7  8  2  0
  9  5  1  0
 11 10  1  1
 11 12  1  0
 13 11  1  0
 14 13  1  1
 15 14  1  0
 15  7  1  0
 16 22  1  0
 16 14  1  0
 17 16  2  0
 19 18  1  6
 20 19  1  0
 21 19  1  0
 21 22  1  6
 23 21  1  0
 23 24  1  0
 25 23  2  0
M  END
$$$$
