ELT.pdb
     RDKit          3D

 25 24  0  0  1  0  0  0  0  0999 V2000
    8.2069  -14.3195   20.2532 N   0  0  0  0  0  0  0  0  0  0  0  0
    7.2030  -14.5683   21.2731 C   0  0  1  0  0  0  0  0  0  0  0  0
    6.5910  -15.9343   20.9274 C   0  0  0  0  0  0  0  0  0  0  0  0
    7.7415  -16.9418   20.8164 C   0  0  0  0  0  0  0  0  0  0  0  0
    7.2390  -18.2719   20.4182 C   0  0  0  0  0  0  0  0  0  0  0  0
    7.9567  -19.2901   20.5146 O   0  0  0  0  0  0  0  0  0  0  0  0
    7.9048  -14.6536   22.5780 C   0  0  0  0  0  0  0  0  0  0  0  0
    9.1309  -14.8984   22.6016 O   0  0  0  0  0  0  0  0  0  0  0  0
    5.9489  -18.4152   19.9232 O   0  0  0  0  0  0  0  0  0  0  0  0
    5.8153  -11.6373   26.7900 C   0  0  0  0  0  0  0  0  0  0  0  0
    6.7423  -12.3431   25.8694 C   0  0  1  0  0  0  0  0  0  0  0  0
    8.1129  -11.6512   25.8889 C   0  0  0  0  0  0  0  0  0  0  0  0
    6.9830  -13.7823   26.1305 C   0  0  0  0  0  0  0  0  0  0  0  0
    7.7460  -14.5096   25.0668 C   0  0  2  0  0  0  0  0  0  0  0  0
    7.1575  -14.4532   23.7710 N   0  0  0  0  0  0  0  0  0  0  0  0
    7.9700  -15.9027   25.5328 C   0  0  0  0  0  0  0  0  0  0  0  0
    7.0082  -16.5466   26.0190 O   0  0  0  0  0  0  0  0  0  0  0  0
    9.6159  -18.9904   23.7474 C   0  0  0  0  0  0  0  0  0  0  0  0
   10.2570  -18.7504   25.0798 C   0  0  1  0  0  0  0  0  0  0  0  0
   11.5244  -18.2027   24.9213 O   0  0  0  0  0  0  0  0  0  0  0  0
    9.4736  -17.8857   26.0094 C   0  0  2  0  0  0  0  0  0  0  0  0
    9.2223  -16.5610   25.4606 N   0  0  0  0  0  0  0  0  0  0  0  0
   10.0563  -17.8004   27.3667 C   0  0  0  0  0  0  0  0  0  0  0  0
   10.1096  -18.9433   28.1445 O   0  0  0  0  0  0  0  0  0  0  0  0
   10.5086  -16.7353   27.8500 O   0  0  0  0  0  0  0  0  0  0  0  0
  2  7  1  0
  2  1  1  6
  3  2  1  0
  4  3  1  0
  5  4  1  0
  6  5  2  0
  7  8  2  0
  9  5  1  0
 11 10  1  1
 11 12  1  0
 13 11  1  0
 14 13  1  1
 15 14  1  0
 15  7  1  0
 16 22  1  0
 16 14  1  0
 17 16  2  0
 19 18  1  6
 20 19  1  0
 21 19  1  0
 21 22  1  6
 23 21  1  0
 23 24  1  0
 25 23  2  0
M  END
$$$$
