ELT.pdb
     RDKit          3D

 25 24  0  0  1  0  0  0  0  0999 V2000
   11.8152  -16.7369   16.1821 N   0  0  0  0  0  0  0  0  0  0  0  0
   10.8277  -17.2411   17.1204 C   0  0  1  0  0  0  0  0  0  0  0  0
   11.2319  -18.6955   17.4054 C   0  0  0  0  0  0  0  0  0  0  0  0
   10.5342  -19.5815   16.3666 C   0  0  0  0  0  0  0  0  0  0  0  0
   10.8277  -21.0080   16.6100 C   0  0  0  0  0  0  0  0  0  0  0  0
   10.1363  -21.6852   17.4002 O   0  0  0  0  0  0  0  0  0  0  0  0
   10.9446  -16.4396   18.3641 C   0  0  0  0  0  0  0  0  0  0  0  0
   12.0763  -16.2162   18.8472 O   0  0  0  0  0  0  0  0  0  0  0  0
   11.8884  -21.6268   15.9604 O   0  0  0  0  0  0  0  0  0  0  0  0
    6.6855  -12.9496   19.4735 C   0  0  0  0  0  0  0  0  0  0  0  0
    8.0292  -13.5633   19.3226 C   0  0  1  0  0  0  0  0  0  0  0  0
    9.0790  -12.4610   19.1211 C   0  0  0  0  0  0  0  0  0  0  0  0
    8.5083  -14.4153   20.4371 C   0  0  0  0  0  0  0  0  0  0  0  0
    9.7723  -15.1725   20.1697 C   0  0  2  0  0  0  0  0  0  0  0  0
    9.7587  -15.9461   18.9739 N   0  0  0  0  0  0  0  0  0  0  0  0
   10.0842  -15.9861   21.3733 C   0  0  0  0  0  0  0  0  0  0  0  0
    9.2063  -16.7553   21.8354 O   0  0  0  0  0  0  0  0  0  0  0  0
   11.5602  -18.9528   21.8681 C   0  0  0  0  0  0  0  0  0  0  0  0
   12.3618  -18.0540   22.7588 C   0  0  1  0  0  0  0  0  0  0  0  0
   13.5699  -17.7209   22.1581 O   0  0  0  0  0  0  0  0  0  0  0  0
   11.6705  -16.7990   23.1742 C   0  0  2  0  0  0  0  0  0  0  0  0
   11.3321  -15.9479   22.0428 N   0  0  0  0  0  0  0  0  0  0  0  0
   12.4003  -16.0408   24.2143 C   0  0  0  0  0  0  0  0  0  0  0  0
   12.5894  -16.6212   25.4559 O   0  0  0  0  0  0  0  0  0  0  0  0
   12.8603  -14.8898   24.0240 O   0  0  0  0  0  0  0  0  0  0  0  0
  2  7  1  0
  2  1  1  6
  3  2  1  0
  4  3  1  0
  5  4  1  0
  6  5  2  0
  7  8  2  0
  9  5  1  0
 11 10  1  1
 11 12  1  0
 13 11  1  0
 14 13  1  1
 15 14  1  0
 15  7  1  0
 16 22  1  0
 16 14  1  0
 17 16  2  0
 19 18  1  6
 20 19  1  0
 21 19  1  0
 21 22  1  6
 23 21  1  0
 23 24  1  0
 25 23  2  0
M  END
$$$$
