ELT.pdb
     RDKit          3D

 25 24  0  0  1  0  0  0  0  0999 V2000
    8.6386  -15.0495   21.1877 N   0  0  0  0  0  0  0  0  0  0  0  0
    9.0692  -16.1729   22.0015 C   0  0  1  0  0  0  0  0  0  0  0  0
   10.3777  -16.6672   21.3662 C   0  0  0  0  0  0  0  0  0  0  0  0
   10.0599  -17.0996   19.9299 C   0  0  0  0  0  0  0  0  0  0  0  0
   11.2357  -17.7315   19.2987 C   0  0  0  0  0  0  0  0  0  0  0  0
   11.2055  -18.1111   18.1088 O   0  0  0  0  0  0  0  0  0  0  0  0
    9.3428  -15.6562   23.3656 C   0  0  0  0  0  0  0  0  0  0  0  0
   10.5256  -15.4680   23.7258 O   0  0  0  0  0  0  0  0  0  0  0  0
   12.4057  -17.9186   20.0243 O   0  0  0  0  0  0  0  0  0  0  0  0
    5.7026  -12.5253   26.2297 C   0  0  0  0  0  0  0  0  0  0  0  0
    6.9561  -13.1700   25.7629 C   0  0  1  0  0  0  0  0  0  0  0  0
    8.1536  -12.2685   26.0960 C   0  0  0  0  0  0  0  0  0  0  0  0
    7.2645  -14.5138   26.3074 C   0  0  0  0  0  0  0  0  0  0  0  0
    8.3924  -15.2356   25.6372 C   0  0  2  0  0  0  0  0  0  0  0  0
    8.2450  -15.3886   24.2288 N   0  0  0  0  0  0  0  0  0  0  0  0
    8.5880  -16.5324   26.3357 C   0  0  0  0  0  0  0  0  0  0  0  0
    7.5914  -17.2621   26.5602 O   0  0  0  0  0  0  0  0  0  0  0  0
   10.1917  -19.5921   25.2388 C   0  0  0  0  0  0  0  0  0  0  0  0
   10.8403  -19.2359   26.5412 C   0  0  1  0  0  0  0  0  0  0  0  0
   12.1024  -18.6947   26.3273 O   0  0  0  0  0  0  0  0  0  0  0  0
   10.0570  -18.3013   27.4004 C   0  0  2  0  0  0  0  0  0  0  0  0
    9.8506  -17.0051   26.7709 N   0  0  0  0  0  0  0  0  0  0  0  0
   10.6101  -18.1512   28.7645 C   0  0  0  0  0  0  0  0  0  0  0  0
   10.6505  -19.2570   29.5951 O   0  0  0  0  0  0  0  0  0  0  0  0
   11.0484  -17.0630   29.2078 O   0  0  0  0  0  0  0  0  0  0  0  0
  2  7  1  0
  2  1  1  6
  3  2  1  0
  4  3  1  0
  5  4  1  0
  6  5  2  0
  7  8  2  0
  9  5  1  0
 11 10  1  1
 11 12  1  0
 13 11  1  0
 14 13  1  1
 15 14  1  0
 15  7  1  0
 16 22  1  0
 16 14  1  0
 17 16  2  0
 19 18  1  6
 20 19  1  0
 21 19  1  0
 21 22  1  6
 23 21  1  0
 23 24  1  0
 25 23  2  0
M  END
$$$$
