ELT.pdb
     RDKit          3D

 25 24  0  0  1  0  0  0  0  0999 V2000
    8.0372  -14.2326   20.1343 N   0  0  0  0  0  0  0  0  0  0  0  0
    7.1771  -14.7279   21.1949 C   0  0  1  0  0  0  0  0  0  0  0  0
    6.7929  -16.1572   20.7830 C   0  0  0  0  0  0  0  0  0  0  0  0
    8.0678  -16.8573   20.2980 C   0  0  0  0  0  0  0  0  0  0  0  0
    7.7704  -18.2256   19.8295 C   0  0  0  0  0  0  0  0  0  0  0  0
    7.5813  -18.4681   18.6185 O   0  0  0  0  0  0  0  0  0  0  0  0
    7.9836  -14.7690   22.4401 C   0  0  0  0  0  0  0  0  0  0  0  0
    9.2182  -14.9542   22.3670 O   0  0  0  0  0  0  0  0  0  0  0  0
    7.6930  -19.2761   20.7354 O   0  0  0  0  0  0  0  0  0  0  0  0
    5.9357  -11.7908   26.6698 C   0  0  0  0  0  0  0  0  0  0  0  0
    6.8676  -12.4402   25.7134 C   0  0  1  0  0  0  0  0  0  0  0  0
    8.1468  -11.5999   25.5900 C   0  0  0  0  0  0  0  0  0  0  0  0
    7.2916  -13.8264   26.0236 C   0  0  0  0  0  0  0  0  0  0  0  0
    8.0247  -14.5349   24.9268 C   0  0  2  0  0  0  0  0  0  0  0  0
    7.3244  -14.5954   23.6880 N   0  0  0  0  0  0  0  0  0  0  0  0
    8.4162  -15.8778   25.4283 C   0  0  0  0  0  0  0  0  0  0  0  0
    7.5194  -16.7027   25.7304 O   0  0  0  0  0  0  0  0  0  0  0  0
   10.5091  -18.5731   23.8010 C   0  0  0  0  0  0  0  0  0  0  0  0
   11.0640  -18.3264   25.1704 C   0  0  1  0  0  0  0  0  0  0  0  0
   12.2666  -17.6343   25.0935 O   0  0  0  0  0  0  0  0  0  0  0  0
   10.1504  -17.5992   26.0988 C   0  0  2  0  0  0  0  0  0  0  0  0
    9.7612  -16.2926   25.5886 N   0  0  0  0  0  0  0  0  0  0  0  0
   10.6708  -17.5005   27.4803 C   0  0  0  0  0  0  0  0  0  0  0  0
   10.9521  -18.6642   28.1736 O   0  0  0  0  0  0  0  0  0  0  0  0
   10.8720  -16.4055   28.0577 O   0  0  0  0  0  0  0  0  0  0  0  0
  2  7  1  0
  2  1  1  6
  3  2  1  0
  4  3  1  0
  5  4  1  0
  6  5  2  0
  7  8  2  0
  9  5  1  0
 11 10  1  1
 11 12  1  0
 13 11  1  0
 14 13  1  1
 15 14  1  0
 15  7  1  0
 16 22  1  0
 16 14  1  0
 17 16  2  0
 19 18  1  6
 20 19  1  0
 21 19  1  0
 21 22  1  6
 23 21  1  0
 23 24  1  0
 25 23  2  0
M  END
$$$$
