ELT.pdb
     RDKit          3D

 25 24  0  0  1  0  0  0  0  0999 V2000
    6.9015  -17.1586   22.8771 N   0  0  0  0  0  0  0  0  0  0  0  0
    8.3443  -17.2603   22.7438 C   0  0  1  0  0  0  0  0  0  0  0  0
    8.6826  -16.6086   21.3943 C   0  0  0  0  0  0  0  0  0  0  0  0
   10.1563  -16.9060   21.0936 C   0  0  0  0  0  0  0  0  0  0  0  0
   10.5703  -16.2795   19.8223 C   0  0  0  0  0  0  0  0  0  0  0  0
   10.0097  -16.5712   18.7445 O   0  0  0  0  0  0  0  0  0  0  0  0
    8.9504  -16.4695   23.8438 C   0  0  0  0  0  0  0  0  0  0  0  0
   10.1941  -16.3542   23.9048 O   0  0  0  0  0  0  0  0  0  0  0  0
   11.6010  -15.3482   19.8020 O   0  0  0  0  0  0  0  0  0  0  0  0
    5.6647  -12.6516   26.0052 C   0  0  0  0  0  0  0  0  0  0  0  0
    6.8552  -13.3862   25.5074 C   0  0  1  0  0  0  0  0  0  0  0  0
    7.8230  -12.4021   24.8345 C   0  0  0  0  0  0  0  0  0  0  0  0
    7.6418  -14.1479   26.5067 C   0  0  0  0  0  0  0  0  0  0  0  0
    8.5856  -15.1644   25.9423 C   0  0  2  0  0  0  0  0  0  0  0  0
    8.0935  -15.8622   24.8023 N   0  0  0  0  0  0  0  0  0  0  0  0
    8.9882  -16.0787   27.0423 C   0  0  0  0  0  0  0  0  0  0  0  0
    9.2847  -15.5943   28.1620 O   0  0  0  0  0  0  0  0  0  0  0  0
    7.0214  -19.3446   28.1797 C   0  0  0  0  0  0  0  0  0  0  0  0
    8.4835  -19.6087   27.9885 C   0  0  1  0  0  0  0  0  0  0  0  0
    8.7048  -20.3007   26.8038 O   0  0  0  0  0  0  0  0  0  0  0  0
    9.3504  -18.3947   28.0041 C   0  0  2  0  0  0  0  0  0  0  0  0
    9.0587  -17.4868   26.9043 N   0  0  0  0  0  0  0  0  0  0  0  0
   10.7957  -18.7036   28.0735 C   0  0  0  0  0  0  0  0  0  0  0  0
   11.2612  -19.4958   29.1079 O   0  0  0  0  0  0  0  0  0  0  0  0
   11.6256  -18.2804   27.2339 O   0  0  0  0  0  0  0  0  0  0  0  0
  2  7  1  0
  2  1  1  1
  3  2  1  0
  4  3  1  0
  5  4  1  0
  6  5  2  0
  7  8  2  0
  9  5  1  0
 11 10  1  1
 11 12  1  0
 13 11  1  0
 14 13  1  1
 15 14  1  0
 15  7  1  0
 16 22  1  0
 16 14  1  0
 17 16  2  0
 19 18  1  6
 20 19  1  0
 21 19  1  0
 21 22  1  6
 23 21  1  0
 23 24  1  0
 25 23  2  0
M  END
$$$$
