ELT.pdb
     RDKit          3D

 25 24  0  0  1  0  0  0  0  0999 V2000
    8.2093  -16.9654   22.3902 N   0  0  0  0  0  0  0  0  0  0  0  0
    9.6194  -16.8792   22.7278 C   0  0  1  0  0  0  0  0  0  0  0  0
   10.2764  -16.1123   21.5701 C   0  0  0  0  0  0  0  0  0  0  0  0
   10.2410  -17.0201   20.3350 C   0  0  0  0  0  0  0  0  0  0  0  0
   10.8638  -16.3530   19.1742 C   0  0  0  0  0  0  0  0  0  0  0  0
   12.0749  -16.0462   19.1772 O   0  0  0  0  0  0  0  0  0  0  0  0
    9.7309  -16.0854   23.9769 C   0  0  0  0  0  0  0  0  0  0  0  0
   10.8618  -15.7547   24.3961 O   0  0  0  0  0  0  0  0  0  0  0  0
   10.1065  -16.0504   18.0494 O   0  0  0  0  0  0  0  0  0  0  0  0
    5.7217  -12.5524   25.2749 C   0  0  0  0  0  0  0  0  0  0  0  0
    7.0424  -13.2247   25.1819 C   0  0  1  0  0  0  0  0  0  0  0  0
    8.1598  -12.1723   25.2233 C   0  0  0  0  0  0  0  0  0  0  0  0
    7.3599  -14.2305   26.2235 C   0  0  0  0  0  0  0  0  0  0  0  0
    8.5518  -15.0925   25.9426 C   0  0  2  0  0  0  0  0  0  0  0  0
    8.5408  -15.7217   24.6648 N   0  0  0  0  0  0  0  0  0  0  0  0
    8.6888  -16.0651   27.0576 C   0  0  0  0  0  0  0  0  0  0  0  0
    8.7329  -15.6396   28.2378 O   0  0  0  0  0  0  0  0  0  0  0  0
    6.5593  -19.4091   27.6538 C   0  0  0  0  0  0  0  0  0  0  0  0
    8.0371  -19.6461   27.7147 C   0  0  1  0  0  0  0  0  0  0  0  0
    8.4824  -20.2606   26.5505 O   0  0  0  0  0  0  0  0  0  0  0  0
    8.8613  -18.4269   27.9590 C   0  0  2  0  0  0  0  0  0  0  0  0
    8.7735  -17.4665   26.8686 N   0  0  0  0  0  0  0  0  0  0  0  0
   10.2706  -18.7261   28.2959 C   0  0  0  0  0  0  0  0  0  0  0  0
   10.5423  -19.4944   29.4139 O   0  0  0  0  0  0  0  0  0  0  0  0
   11.2382  -18.3152   27.6120 O   0  0  0  0  0  0  0  0  0  0  0  0
  2  7  1  0
  2  1  1  6
  3  2  1  0
  4  3  1  0
  5  4  1  0
  6  5  2  0
  7  8  2  0
  9  5  1  0
 11 10  1  1
 11 12  1  0
 13 11  1  0
 14 13  1  1
 15 14  1  0
 15  7  1  0
 16 22  1  0
 16 14  1  0
 17 16  2  0
 19 18  1  6
 20 19  1  0
 21 19  1  0
 21 22  1  6
 23 21  1  0
 23 24  1  0
 25 23  2  0
M  END
$$$$
