ELT.pdb
     RDKit          3D

 25 24  0  0  1  0  0  0  0  0999 V2000
    8.3047  -14.3925   20.2996 N   0  0  0  0  0  0  0  0  0  0  0  0
    7.4671  -14.9859   21.3273 C   0  0  1  0  0  0  0  0  0  0  0  0
    7.3447  -16.4714   20.9552 C   0  0  0  0  0  0  0  0  0  0  0  0
    7.3549  -16.5673   19.4250 C   0  0  0  0  0  0  0  0  0  0  0  0
    7.1240  -17.9574   18.9838 C   0  0  0  0  0  0  0  0  0  0  0  0
    6.9836  -18.8837   19.8104 O   0  0  0  0  0  0  0  0  0  0  0  0
    8.1858  -14.8543   22.6191 C   0  0  0  0  0  0  0  0  0  0  0  0
    9.4361  -14.8749   22.6317 O   0  0  0  0  0  0  0  0  0  0  0  0
    7.0605  -18.2624   17.6299 O   0  0  0  0  0  0  0  0  0  0  0  0
    5.8427  -11.9227   26.7457 C   0  0  0  0  0  0  0  0  0  0  0  0
    6.8448  -12.5637   25.8571 C   0  0  1  0  0  0  0  0  0  0  0  0
    8.1530  -11.7604   25.8929 C   0  0  0  0  0  0  0  0  0  0  0  0
    7.1976  -13.9737   26.1483 C   0  0  0  0  0  0  0  0  0  0  0  0
    8.0246  -14.6582   25.1042 C   0  0  2  0  0  0  0  0  0  0  0  0
    7.4266  -14.7078   23.8124 N   0  0  0  0  0  0  0  0  0  0  0  0
    8.3905  -16.0040   25.6168 C   0  0  0  0  0  0  0  0  0  0  0  0
    7.4810  -16.7805   25.9988 O   0  0  0  0  0  0  0  0  0  0  0  0
   10.1932  -18.8419   23.9303 C   0  0  0  0  0  0  0  0  0  0  0  0
   10.8798  -18.5849   25.2365 C   0  0  1  0  0  0  0  0  0  0  0  0
   12.1030  -17.9579   25.0312 O   0  0  0  0  0  0  0  0  0  0  0  0
   10.0895  -17.7854   26.2172 C   0  0  2  0  0  0  0  0  0  0  0  0
    9.7243  -16.4738   25.7020 N   0  0  0  0  0  0  0  0  0  0  0  0
   10.7334  -17.6780   27.5449 C   0  0  0  0  0  0  0  0  0  0  0  0
   10.8599  -18.8165   28.3208 O   0  0  0  0  0  0  0  0  0  0  0  0
   11.1745  -16.5978   28.0047 O   0  0  0  0  0  0  0  0  0  0  0  0
  2  7  1  0
  2  1  1  6
  3  2  1  0
  4  3  1  0
  5  4  1  0
  6  5  2  0
  7  8  2  0
  9  5  1  0
 11 10  1  1
 11 12  1  0
 13 11  1  0
 14 13  1  1
 15 14  1  0
 15  7  1  0
 16 22  1  0
 16 14  1  0
 17 16  2  0
 19 18  1  6
 20 19  1  0
 21 19  1  0
 21 22  1  6
 23 21  1  0
 23 24  1  0
 25 23  2  0
M  END
$$$$
