ELT.pdb
     RDKit          3D

 25 24  0  0  1  0  0  0  0  0999 V2000
    7.4948  -16.3472   21.5709 N   0  0  0  0  0  0  0  0  0  0  0  0
    8.8393  -16.7408   21.9545 C   0  0  1  0  0  0  0  0  0  0  0  0
    9.7759  -16.0414   20.9577 C   0  0  0  0  0  0  0  0  0  0  0  0
    9.5378  -16.6704   19.5798 C   0  0  0  0  0  0  0  0  0  0  0  0
   10.4643  -16.1072   18.5775 C   0  0  0  0  0  0  0  0  0  0  0  0
   11.4725  -16.7412   18.2000 O   0  0  0  0  0  0  0  0  0  0  0  0
    9.0849  -16.2151   23.3205 C   0  0  0  0  0  0  0  0  0  0  0  0
   10.2514  -16.1957   23.7711 O   0  0  0  0  0  0  0  0  0  0  0  0
   10.2300  -14.8504   18.0336 O   0  0  0  0  0  0  0  0  0  0  0  0
    5.7294  -12.3852   25.5781 C   0  0  0  0  0  0  0  0  0  0  0  0
    6.9182  -13.2241   25.2817 C   0  0  1  0  0  0  0  0  0  0  0  0
    8.1966  -12.4402   25.6122 C   0  0  0  0  0  0  0  0  0  0  0  0
    7.0164  -14.5244   25.9867 C   0  0  0  0  0  0  0  0  0  0  0  0
    8.0708  -15.4557   25.4735 C   0  0  2  0  0  0  0  0  0  0  0  0
    7.9795  -15.7460   24.0820 N   0  0  0  0  0  0  0  0  0  0  0  0
    8.0520  -16.6801   26.3152 C   0  0  0  0  0  0  0  0  0  0  0  0
    6.9527  -17.2309   26.5683 O   0  0  0  0  0  0  0  0  0  0  0  0
    8.5485  -19.9297   25.6300 C   0  0  0  0  0  0  0  0  0  0  0  0
    9.5100  -19.7067   26.7567 C   0  0  1  0  0  0  0  0  0  0  0  0
   10.8098  -19.5987   26.2767 O   0  0  0  0  0  0  0  0  0  0  0  0
    9.2145  -18.5207   27.6119 C   0  0  2  0  0  0  0  0  0  0  0  0
    9.2172  -17.2751   26.8585 N   0  0  0  0  0  0  0  0  0  0  0  0
   10.0819  -18.4248   28.8067 C   0  0  0  0  0  0  0  0  0  0  0  0
   10.0056  -19.4153   29.7696 O   0  0  0  0  0  0  0  0  0  0  0  0
   10.8898  -17.4833   28.9903 O   0  0  0  0  0  0  0  0  0  0  0  0
  2  7  1  0
  2  1  1  6
  3  2  1  0
  4  3  1  0
  5  4  1  0
  6  5  2  0
  7  8  2  0
  9  5  1  0
 11 10  1  1
 11 12  1  0
 13 11  1  0
 14 13  1  1
 15 14  1  0
 15  7  1  0
 16 22  1  0
 16 14  1  0
 17 16  2  0
 19 18  1  6
 20 19  1  0
 21 19  1  0
 21 22  1  6
 23 21  1  0
 23 24  1  0
 25 23  2  0
M  END
$$$$
