LFR.pdb
     RDKit          3D

 31 31  0  0  1  0  0  0  0  0999 V2000
   30.4258  -23.1734  -18.5809 C   0  0  0  0  0  0  0  0  0  0  0  0
   29.5280  -21.9969  -18.1936 C   0  0  1  0  0  0  0  0  0  0  0  0
   28.8212  -21.5323  -19.4324 C   0  0  0  0  0  0  0  0  0  0  0  0
   28.6041  -22.4082  -17.0771 C   0  0  0  0  0  0  0  0  0  0  0  0
   27.7022  -21.2644  -16.6912 C   0  0  2  0  0  0  0  0  0  0  0  0
   28.4308  -20.0136  -16.6417 N   0  0  0  0  0  0  0  0  0  0  0  0
   27.0208  -21.5064  -15.3931 C   0  0  0  0  0  0  0  0  0  0  0  0
   26.2687  -22.5195  -15.2449 O   0  0  0  0  0  0  0  0  0  0  0  0
   27.1607  -20.6512  -14.2746 N   0  0  0  0  0  0  0  0  0  0  0  0
   26.5460  -20.8878  -12.9782 C   0  0  1  0  0  0  0  0  0  0  0  0
   27.1508  -20.1367  -11.8693 C   0  0  0  0  0  0  0  0  0  0  0  0
   26.5461  -20.3065  -10.5350 C   0  0  0  0  0  0  0  0  0  0  0  0
   26.8095  -19.4176   -9.5219 C   0  0  0  0  0  0  0  0  0  0  0  0
   26.2631  -19.5981   -8.2556 C   0  0  0  0  0  0  0  0  0  0  0  0
   25.4413  -20.6646   -7.9602 C   0  0  0  0  0  0  0  0  0  0  0  0
   25.1695  -21.5636   -8.9674 C   0  0  0  0  0  0  0  0  0  0  0  0
   25.7151  -21.3776  -10.2193 C   0  0  0  0  0  0  0  0  0  0  0  0
   25.1055  -20.6432  -13.0979 C   0  0  0  0  0  0  0  0  0  0  0  0
   24.7136  -19.4803  -13.5006 O   0  0  0  0  0  0  0  0  0  0  0  0
   19.3069  -25.2357  -15.0285 N   0  0  0  0  0  0  0  0  0  0  0  0
   18.2937  -24.2491  -15.2414 C   0  0  0  0  0  0  0  0  0  0  0  0
   17.1008  -24.6019  -15.5697 N   0  0  0  0  0  0  0  0  0  0  0  0
   18.6111  -22.8713  -15.0877 N   0  0  0  0  0  0  0  0  0  0  0  0
   19.9494  -22.3723  -15.0086 C   0  0  0  0  0  0  0  0  0  0  0  0
   20.3792  -22.0604  -13.6117 C   0  0  0  0  0  0  0  0  0  0  0  0
   21.8120  -22.4252  -13.3081 C   0  0  0  0  0  0  0  0  0  0  0  0
   22.6589  -21.2054  -13.0100 C   0  0  2  0  0  0  0  0  0  0  0  0
   24.0476  -21.5405  -12.8303 N   0  0  0  0  0  0  0  0  0  0  0  0
   22.0376  -20.3914  -11.9677 C   0  0  0  0  0  0  0  0  0  0  0  0
   21.0659  -19.4704  -12.2363 O   0  0  0  0  0  0  0  0  0  0  0  0
   22.3864  -20.5158  -10.7542 O   0  0  0  0  0  0  0  0  0  0  0  0
  2  1  1  6
  3  2  1  0
  4  2  1  0
  5  4  1  0
  5  6  1  1
  7  8  2  0
  7  5  1  0
  9  7  1  0
 10 18  1  0
 10  9  1  0
 10 11  1  1
 12 13  2  0
 12 11  1  0
 14 13  1  0
 15 14  2  0
 16 15  1  0
 16 17  2  0
 17 12  1  0
 18 28  1  0
 19 18  2  0
 20 21  1  0
 21 22  2  0
 23 21  1  0
 23 24  1  0
 24 25  1  0
 25 26  1  0
 27 26  1  1
 27 29  1  0
 28 27  1  0
 29 31  2  0
 29 30  1  0
M  END
$$$$
