LFR.pdb
     RDKit          3D

 31 31  0  0  1  0  0  0  0  0999 V2000
   26.0568  -20.4964  -18.5045 C   0  0  0  0  0  0  0  0  0  0  0  0
   25.3223  -19.6915  -17.4306 C   0  0  1  0  0  0  0  0  0  0  0  0
   24.1916  -18.9643  -18.0960 C   0  0  0  0  0  0  0  0  0  0  0  0
   24.8916  -20.6070  -16.3146 C   0  0  0  0  0  0  0  0  0  0  0  0
   24.1177  -19.8405  -15.2734 C   0  0  2  0  0  0  0  0  0  0  0  0
   24.4086  -18.4232  -15.3393 N   0  0  0  0  0  0  0  0  0  0  0  0
   24.3768  -20.3485  -13.9013 C   0  0  0  0  0  0  0  0  0  0  0  0
   24.0432  -21.5326  -13.5842 O   0  0  0  0  0  0  0  0  0  0  0  0
   24.9914  -19.5707  -12.8916 N   0  0  0  0  0  0  0  0  0  0  0  0
   25.2072  -20.0207  -11.5258 C   0  0  1  0  0  0  0  0  0  0  0  0
   26.1838  -19.2259  -10.7680 C   0  0  0  0  0  0  0  0  0  0  0  0
   26.4616  -19.6474   -9.3824 C   0  0  0  0  0  0  0  0  0  0  0  0
   25.8360  -20.7421   -8.8383 C   0  0  0  0  0  0  0  0  0  0  0  0
   26.0760  -21.1184   -7.5209 C   0  0  0  0  0  0  0  0  0  0  0  0
   26.9425  -20.4193   -6.7083 C   0  0  0  0  0  0  0  0  0  0  0  0
   27.5762  -19.3191   -7.2417 C   0  0  0  0  0  0  0  0  0  0  0  0
   27.3327  -18.9529   -8.5479 C   0  0  0  0  0  0  0  0  0  0  0  0
   23.9069  -20.0965  -10.8530 C   0  0  0  0  0  0  0  0  0  0  0  0
   22.9001  -19.4991  -11.3983 O   0  0  0  0  0  0  0  0  0  0  0  0
   18.1936  -24.7249  -12.4381 N   0  0  0  0  0  0  0  0  0  0  0  0
   17.5207  -23.8883  -11.4934 C   0  0  0  0  0  0  0  0  0  0  0  0
   16.2869  -23.5691  -11.6699 N   0  0  0  0  0  0  0  0  0  0  0  0
   18.2233  -23.4093  -10.3533 N   0  0  0  0  0  0  0  0  0  0  0  0
   19.6499  -23.4040  -10.2485 C   0  0  0  0  0  0  0  0  0  0  0  0
   20.2642  -22.1018  -10.6488 C   0  0  0  0  0  0  0  0  0  0  0  0
   21.7734  -22.0934  -10.6189 C   0  0  0  0  0  0  0  0  0  0  0  0
   22.3143  -21.3814   -9.3963 C   0  0  2  0  0  0  0  0  0  0  0  0
   23.5903  -20.7642   -9.6489 N   0  0  0  0  0  0  0  0  0  0  0  0
   22.2200  -22.2406   -8.2183 C   0  0  0  0  0  0  0  0  0  0  0  0
   21.1341  -22.2358   -7.3904 O   0  0  0  0  0  0  0  0  0  0  0  0
   23.1620  -23.0363   -7.9194 O   0  0  0  0  0  0  0  0  0  0  0  0
  2  1  1  6
  3  2  1  0
  4  2  1  0
  5  4  1  0
  5  6  1  1
  7  8  2  0
  7  5  1  0
  9  7  1  0
 10 18  1  0
 10  9  1  0
 10 11  1  1
 12 13  2  0
 12 11  1  0
 14 13  1  0
 15 14  2  0
 16 15  1  0
 16 17  2  0
 17 12  1  0
 18 28  1  0
 19 18  2  0
 20 21  1  0
 21 22  2  0
 23 21  1  0
 23 24  1  0
 24 25  1  0
 25 26  1  0
 27 26  1  6
 27 29  1  0
 28 27  1  0
 29 31  2  0
 29 30  1  0
M  END
$$$$
