LFR.pdb
     RDKit          3D

 31 31  0  0  1  0  0  0  0  0999 V2000
   27.9986  -21.7136  -15.5301 C   0  0  0  0  0  0  0  0  0  0  0  0
   26.9239  -20.9624  -14.7420 C   0  0  1  0  0  0  0  0  0  0  0  0
   25.6195  -21.1403  -15.4611 C   0  0  0  0  0  0  0  0  0  0  0  0
   26.9093  -21.4446  -13.3150 C   0  0  0  0  0  0  0  0  0  0  0  0
   25.8642  -20.7057  -12.5198 C   0  0  2  0  0  0  0  0  0  0  0  0
   25.9583  -19.2756  -12.7283 N   0  0  0  0  0  0  0  0  0  0  0  0
   25.9483  -21.0135  -11.0685 C   0  0  0  0  0  0  0  0  0  0  0  0
   25.7659  -22.2009  -10.6550 O   0  0  0  0  0  0  0  0  0  0  0  0
   26.2274  -20.0352  -10.0851 N   0  0  0  0  0  0  0  0  0  0  0  0
   26.3955  -20.3194   -8.6689 C   0  0  1  0  0  0  0  0  0  0  0  0
   27.2401  -19.3562   -7.9488 C   0  0  0  0  0  0  0  0  0  0  0  0
   27.5139  -19.6354   -6.5269 C   0  0  0  0  0  0  0  0  0  0  0  0
   28.1831  -20.7728   -6.1465 C   0  0  0  0  0  0  0  0  0  0  0  0
   28.4119  -21.0492   -4.8027 C   0  0  0  0  0  0  0  0  0  0  0  0
   27.9832  -20.2054   -3.8005 C   0  0  0  0  0  0  0  0  0  0  0  0
   27.3106  -19.0615   -4.1684 C   0  0  0  0  0  0  0  0  0  0  0  0
   27.0878  -18.7951   -5.5022 C   0  0  0  0  0  0  0  0  0  0  0  0
   25.0671  -20.4582   -8.0643 C   0  0  0  0  0  0  0  0  0  0  0  0
   24.1960  -19.5298   -8.2813 O   0  0  0  0  0  0  0  0  0  0  0  0
   17.9095  -24.7410   -5.1774 N   0  0  0  0  0  0  0  0  0  0  0  0
   17.9724  -24.3487   -6.5512 C   0  0  0  0  0  0  0  0  0  0  0  0
   16.8937  -24.2113   -7.2386 N   0  0  0  0  0  0  0  0  0  0  0  0
   19.2370  -24.1095   -7.1565 N   0  0  0  0  0  0  0  0  0  0  0  0
   20.4788  -24.1883   -6.4509 C   0  0  0  0  0  0  0  0  0  0  0  0
   21.1766  -22.8714   -6.3396 C   0  0  0  0  0  0  0  0  0  0  0  0
   22.6140  -22.8909   -6.7997 C   0  0  0  0  0  0  0  0  0  0  0  0
   23.2695  -21.5310   -6.6761 C   0  0  2  0  0  0  0  0  0  0  0  0
   24.5887  -21.5108   -7.2525 N   0  0  0  0  0  0  0  0  0  0  0  0
   23.1383  -21.0198   -5.3136 C   0  0  0  0  0  0  0  0  0  0  0  0
   22.0750  -20.2632   -4.9119 O   0  0  0  0  0  0  0  0  0  0  0  0
   24.0250  -21.2673   -4.4404 O   0  0  0  0  0  0  0  0  0  0  0  0
  2  1  1  6
  3  2  1  0
  4  2  1  0
  5  4  1  0
  5  6  1  1
  7  8  2  0
  7  5  1  0
  9  7  1  0
 10 18  1  0
 10  9  1  0
 10 11  1  1
 12 13  2  0
 12 11  1  0
 14 13  1  0
 15 14  2  0
 16 15  1  0
 16 17  2  0
 17 12  1  0
 18 28  1  0
 19 18  2  0
 20 21  1  0
 21 22  2  0
 23 21  1  0
 23 24  1  0
 24 25  1  0
 25 26  1  0
 27 26  1  1
 27 29  1  0
 28 27  1  0
 29 31  2  0
 29 30  1  0
M  END
$$$$
