LFR.pdb
     RDKit          3D

 31 31  0  0  1  0  0  0  0  0999 V2000
   21.2789  -14.2061  -19.7000 C   0  0  0  0  0  0  0  0  0  0  0  0
   21.9471  -15.5364  -19.3476 C   0  0  1  0  0  0  0  0  0  0  0  0
   23.0493  -15.7722  -20.3374 C   0  0  0  0  0  0  0  0  0  0  0  0
   22.4051  -15.5112  -17.9128 C   0  0  0  0  0  0  0  0  0  0  0  0
   23.1123  -16.7949  -17.5628 C   0  0  2  0  0  0  0  0  0  0  0  0
   22.6189  -17.9008  -18.3574 N   0  0  0  0  0  0  0  0  0  0  0  0
   22.9969  -17.1176  -16.1170 C   0  0  0  0  0  0  0  0  0  0  0  0
   23.3854  -16.2821  -15.2423 O   0  0  0  0  0  0  0  0  0  0  0  0
   22.4645  -18.3375  -15.6367 N   0  0  0  0  0  0  0  0  0  0  0  0
   22.3379  -18.6804  -14.2292 C   0  0  1  0  0  0  0  0  0  0  0  0
   21.0225  -19.2117  -13.8460 C   0  0  0  0  0  0  0  0  0  0  0  0
   20.8559  -19.6463  -12.4466 C   0  0  0  0  0  0  0  0  0  0  0  0
   20.6561  -18.7315  -11.4420 C   0  0  0  0  0  0  0  0  0  0  0  0
   20.5312  -19.1420  -10.1189 C   0  0  0  0  0  0  0  0  0  0  0  0
   20.6011  -20.4702   -9.7569 C   0  0  0  0  0  0  0  0  0  0  0  0
   20.8015  -21.3978  -10.7549 C   0  0  0  0  0  0  0  0  0  0  0  0
   20.9245  -20.9826  -12.0634 C   0  0  0  0  0  0  0  0  0  0  0  0
   23.4320  -19.5894  -13.8745 C   0  0  0  0  0  0  0  0  0  0  0  0
   23.7695  -20.5016  -14.7242 O   0  0  0  0  0  0  0  0  0  0  0  0
   29.6531  -21.2176   -8.4029 N   0  0  0  0  0  0  0  0  0  0  0  0
   28.5826  -20.3545   -8.0100 C   0  0  0  0  0  0  0  0  0  0  0  0
   28.8131  -19.3270   -7.2708 N   0  0  0  0  0  0  0  0  0  0  0  0
   27.2573  -20.6373   -8.4417 N   0  0  0  0  0  0  0  0  0  0  0  0
   26.8932  -21.8255   -9.1502 C   0  0  0  0  0  0  0  0  0  0  0  0
   26.6535  -21.5916  -10.6067 C   0  0  0  0  0  0  0  0  0  0  0  0
   25.5118  -20.6497  -10.9034 C   0  0  0  0  0  0  0  0  0  0  0  0
   25.1597  -20.6286  -12.3764 C   0  0  2  0  0  0  0  0  0  0  0  0
   24.2016  -19.6007  -12.6898 N   0  0  0  0  0  0  0  0  0  0  0  0
   24.8583  -21.9770  -12.8515 C   0  0  0  0  0  0  0  0  0  0  0  0
   25.8041  -22.7874  -13.4111 O   0  0  0  0  0  0  0  0  0  0  0  0
   23.6846  -22.4499  -12.7576 O   0  0  0  0  0  0  0  0  0  0  0  0
  2  1  1  6
  3  2  1  0
  4  2  1  0
  5  4  1  0
  5  6  1  6
  7  8  2  0
  7  5  1  0
  9  7  1  0
 10 18  1  0
 10  9  1  0
 10 11  1  6
 12 13  2  0
 12 11  1  0
 14 13  1  0
 15 14  2  0
 16 15  1  0
 16 17  2  0
 17 12  1  0
 18 28  1  0
 19 18  2  0
 20 21  1  0
 21 22  2  0
 23 21  1  0
 23 24  1  0
 24 25  1  0
 25 26  1  0
 27 26  1  1
 27 29  1  0
 28 27  1  0
 29 31  2  0
 29 30  1  0
M  END
$$$$
