LFR.pdb
     RDKit          3D

 31 31  0  0  1  0  0  0  0  0999 V2000
   18.7500  -18.6923  -13.5040 C   0  0  0  0  0  0  0  0  0  0  0  0
   19.5924  -19.9356  -13.2124 C   0  0  1  0  0  0  0  0  0  0  0  0
   19.2760  -20.9601  -14.2614 C   0  0  0  0  0  0  0  0  0  0  0  0
   21.0489  -19.5581  -13.1421 C   0  0  0  0  0  0  0  0  0  0  0  0
   21.8970  -20.7762  -12.8824 C   0  0  2  0  0  0  0  0  0  0  0  0
   21.2445  -21.6850  -11.9627 N   0  0  0  0  0  0  0  0  0  0  0  0
   23.2449  -20.4170  -12.3703 C   0  0  0  0  0  0  0  0  0  0  0  0
   23.8602  -19.4100  -12.8408 O   0  0  0  0  0  0  0  0  0  0  0  0
   23.9089  -21.1505  -11.3588 N   0  0  0  0  0  0  0  0  0  0  0  0
   25.2539  -20.8644  -10.8858 C   0  0  1  0  0  0  0  0  0  0  0  0
   25.6198  -21.5458   -9.6362 C   0  0  0  0  0  0  0  0  0  0  0  0
   26.7862  -21.0211   -8.9023 C   0  0  0  0  0  0  0  0  0  0  0  0
   28.0393  -21.5476   -9.0983 C   0  0  0  0  0  0  0  0  0  0  0  0
   29.1322  -21.0721   -8.3813 C   0  0  0  0  0  0  0  0  0  0  0  0
   29.0116  -20.0622   -7.4509 C   0  0  0  0  0  0  0  0  0  0  0  0
   27.7602  -19.5258   -7.2445 C   0  0  0  0  0  0  0  0  0  0  0  0
   26.6824  -20.0028   -7.9590 C   0  0  0  0  0  0  0  0  0  0  0  0
   26.1962  -21.1475  -11.9726 C   0  0  0  0  0  0  0  0  0  0  0  0
   26.6744  -22.3431  -12.0719 O   0  0  0  0  0  0  0  0  0  0  0  0
   29.9529  -24.8967  -16.6466 N   0  0  0  0  0  0  0  0  0  0  0  0
   28.6253  -25.3928  -16.4550 C   0  0  0  0  0  0  0  0  0  0  0  0
   28.4237  -26.6443  -16.2354 N   0  0  0  0  0  0  0  0  0  0  0  0
   27.5247  -24.4935  -16.5077 N   0  0  0  0  0  0  0  0  0  0  0  0
   27.6394  -23.1265  -16.9131 C   0  0  0  0  0  0  0  0  0  0  0  0
   28.1551  -22.2336  -15.8313 C   0  0  0  0  0  0  0  0  0  0  0  0
   27.0870  -21.6953  -14.9104 C   0  0  0  0  0  0  0  0  0  0  0  0
   27.6257  -20.6343  -13.9732 C   0  0  2  0  0  0  0  0  0  0  0  0
   26.6651  -20.2612  -12.9677 N   0  0  0  0  0  0  0  0  0  0  0  0
   28.2437  -19.5474  -14.7292 C   0  0  0  0  0  0  0  0  0  0  0  0
   27.6913  -19.0388  -15.8696 O   0  0  0  0  0  0  0  0  0  0  0  0
   29.3355  -19.0288  -14.3434 O   0  0  0  0  0  0  0  0  0  0  0  0
  2  1  1  6
  3  2  1  0
  4  2  1  0
  5  4  1  0
  5  6  1  1
  7  8  2  0
  7  5  1  0
  9  7  1  0
 10 18  1  0
 10  9  1  0
 10 11  1  1
 12 13  2  0
 12 11  1  0
 14 13  1  0
 15 14  2  0
 16 15  1  0
 16 17  2  0
 17 12  1  0
 18 28  1  0
 19 18  2  0
 20 21  1  0
 21 22  2  0
 23 21  1  0
 23 24  1  0
 24 25  1  0
 25 26  1  0
 27 26  1  6
 27 29  1  0
 28 27  1  0
 29 31  2  0
 29 30  1  0
M  END
$$$$
