LFR.pdb
     RDKit          3D

 31 31  0  0  1  0  0  0  0  0999 V2000
   30.5449  -31.7650  -19.4417 C   0  0  0  0  0  0  0  0  0  0  0  0
   30.1999  -32.6375  -18.2333 C   0  0  1  0  0  0  0  0  0  0  0  0
   31.4000  -32.6703  -17.3340 C   0  0  0  0  0  0  0  0  0  0  0  0
   28.9504  -32.1184  -17.5714 C   0  0  0  0  0  0  0  0  0  0  0  0
   28.6786  -32.8716  -16.2948 C   0  0  2  0  0  0  0  0  0  0  0  0
   28.4481  -34.2780  -16.5528 N   0  0  0  0  0  0  0  0  0  0  0  0
   27.5314  -32.2987  -15.5440 C   0  0  0  0  0  0  0  0  0  0  0  0
   27.4869  -31.0533  -15.2969 O   0  0  0  0  0  0  0  0  0  0  0  0
   26.4499  -33.0784  -15.0705 N   0  0  0  0  0  0  0  0  0  0  0  0
   25.2772  -32.5363  -14.4029 C   0  0  1  0  0  0  0  0  0  0  0  0
   24.0143  -32.7390  -15.1264 C   0  0  0  0  0  0  0  0  0  0  0  0
   23.8177  -31.9619  -16.3643 C   0  0  0  0  0  0  0  0  0  0  0  0
   24.1077  -32.5042  -17.5922 C   0  0  0  0  0  0  0  0  0  0  0  0
   23.9515  -31.7581  -18.7556 C   0  0  0  0  0  0  0  0  0  0  0  0
   23.5039  -30.4545  -18.7323 C   0  0  0  0  0  0  0  0  0  0  0  0
   23.2099  -29.8986  -17.5072 C   0  0  0  0  0  0  0  0  0  0  0  0
   23.3676  -30.6448  -16.3591 C   0  0  0  0  0  0  0  0  0  0  0  0
   25.2318  -33.0731  -13.0395 C   0  0  0  0  0  0  0  0  0  0  0  0
   25.1280  -34.3515  -12.8883 O   0  0  0  0  0  0  0  0  0  0  0  0
   26.4375  -32.1801   -4.9332 N   0  0  0  0  0  0  0  0  0  0  0  0
   26.2531  -33.5901   -5.0849 C   0  0  0  0  0  0  0  0  0  0  0  0
   26.0085  -34.3283   -4.0600 N   0  0  0  0  0  0  0  0  0  0  0  0
   26.3409  -34.1752   -6.3783 N   0  0  0  0  0  0  0  0  0  0  0  0
   26.5692  -33.4221   -7.5729 C   0  0  0  0  0  0  0  0  0  0  0  0
   25.3547  -32.6932   -8.0497 C   0  0  0  0  0  0  0  0  0  0  0  0
   25.5142  -32.0414   -9.4018 C   0  0  0  0  0  0  0  0  0  0  0  0
   25.1284  -32.9734  -10.5318 C   0  0  2  0  0  0  0  0  0  0  0  0
   25.2957  -32.3582  -11.8227 N   0  0  0  0  0  0  0  0  0  0  0  0
   23.8355  -33.5987  -10.2628 C   0  0  0  0  0  0  0  0  0  0  0  0
   22.6519  -33.0270  -10.6324 O   0  0  0  0  0  0  0  0  0  0  0  0
   23.7679  -34.7161   -9.6657 O   0  0  0  0  0  0  0  0  0  0  0  0
  2  1  1  6
  3  2  1  0
  4  2  1  0
  5  4  1  0
  5  6  1  6
  7  8  2  0
  7  5  1  0
  9  7  1  0
 10 18  1  0
 10  9  1  0
 10 11  1  6
 12 13  2  0
 12 11  1  0
 14 13  1  0
 15 14  2  0
 16 15  1  0
 16 17  2  0
 17 12  1  0
 18 28  1  0
 19 18  2  0
 20 21  1  0
 21 22  2  0
 23 21  1  0
 23 24  1  0
 24 25  1  0
 25 26  1  0
 27 26  1  1
 27 29  1  0
 28 27  1  0
 29 31  2  0
 29 30  1  0
M  END
$$$$
