FPQ.pdb
     RDKit          3D

 28 29  0  0  1  0  0  0  0  0999 V2000
    6.5952  -17.1162   26.0370 N   0  0  0  0  0  0  0  0  0  0  0  0
    6.2669  -16.6121   24.7575 C   0  0  1  0  0  0  0  0  0  0  0  0
    5.7110  -15.2199   24.7914 C   0  0  0  0  0  0  0  0  0  0  0  0
    6.4684  -14.3853   25.7207 C   0  0  0  0  0  0  0  0  0  0  0  0
    5.7669  -13.3592   26.3588 C   0  0  0  0  0  0  0  0  0  0  0  0
    6.4440  -12.5492   27.2270 C   0  0  0  0  0  0  0  0  0  0  0  0
    7.7790  -12.6987   27.4994 C   0  0  0  0  0  0  0  0  0  0  0  0
    8.4452  -13.7127   26.8607 C   0  0  0  0  0  0  0  0  0  0  0  0
    7.8012  -14.5644   25.9674 C   0  0  0  0  0  0  0  0  0  0  0  0
    7.4714  -16.5804   23.8926 C   0  0  0  0  0  0  0  0  0  0  0  0
    8.4305  -17.4106   24.1026 O   0  0  0  0  0  0  0  0  0  0  0  0
    7.6274  -15.6611   22.8204 N   0  0  0  0  0  0  0  0  0  0  0  0
    6.8313  -14.4922   22.5838 C   0  0  0  0  0  0  0  0  0  0  0  0
    7.3841  -13.8320   21.3153 C   0  0  0  0  0  0  0  0  0  0  0  0
    8.0695  -15.0166   20.6346 C   0  0  0  0  0  0  0  0  0  0  0  0
    8.6462  -15.7786   21.7855 C   0  0  1  0  0  0  0  0  0  0  0  0
    9.8906  -15.1654   22.2824 C   0  0  0  0  0  0  0  0  0  0  0  0
    9.8241  -14.1237   22.9798 O   0  0  0  0  0  0  0  0  0  0  0  0
   11.5555  -19.7213   26.0146 N   0  0  0  0  0  0  0  0  0  0  0  0
   11.6100  -18.3134   26.1020 C   0  0  0  0  0  0  0  0  0  0  0  0
   11.0378  -17.7434   27.0712 O   0  0  0  0  0  0  0  0  0  0  0  0
   12.3303  -17.5635   25.0621 C   0  0  0  0  0  0  0  0  0  0  0  0
   11.3693  -17.0981   23.9673 C   0  0  0  0  0  0  0  0  0  0  0  0
   12.0834  -16.1430   23.0216 C   0  0  2  0  0  0  0  0  0  0  0  0
   11.1816  -15.7370   21.9842 N   0  0  0  0  0  0  0  0  0  0  0  0
   13.3190  -16.7533   22.4760 C   0  0  0  0  0  0  0  0  0  0  0  0
   14.5819  -16.4516   22.9737 O   0  0  0  0  0  0  0  0  0  0  0  0
   13.2568  -17.5760   21.5302 O   0  0  0  0  0  0  0  0  0  0  0  0
  2  1  1  1
  2  3  1  0
  4  3  1  0
  5  4  2  0
  6  5  1  0
  7  6  2  0
  7  8  1  0
  8  9  2  0
  9  4  1  0
 10 11  2  0
 10  2  1  0
 12 10  1  0
 13 12  1  0
 14 13  1  0
 15 14  1  0
 15 16  1  0
 16 12  1  0
 17 18  2  0
 16 17  1  1
 20 19  1  0
 21 20  2  0
 22 20  1  0
 23 22  1  0
 24 23  1  1
 24 25  1  0
 25 17  1  0
 26 24  1  0
 27 26  1  0
 28 26  2  0
M  END
$$$$
