FPQ.pdb
     RDKit          3D

 28 29  0  0  1  0  0  0  0  0999 V2000
    6.1584  -17.2802   25.8820 N   0  0  0  0  0  0  0  0  0  0  0  0
    6.6490  -16.1705   25.1561 C   0  0  1  0  0  0  0  0  0  0  0  0
    7.7296  -15.4199   25.8754 C   0  0  0  0  0  0  0  0  0  0  0  0
    7.2939  -14.0605   26.1852 C   0  0  0  0  0  0  0  0  0  0  0  0
    8.2975  -13.1168   26.4189 C   0  0  0  0  0  0  0  0  0  0  0  0
    7.9292  -11.8362   26.7235 C   0  0  0  0  0  0  0  0  0  0  0  0
    6.6208  -11.4370   26.8097 C   0  0  0  0  0  0  0  0  0  0  0  0
    5.6546  -12.3814   26.5763 C   0  0  0  0  0  0  0  0  0  0  0  0
    5.9778  -13.6988   26.2629 C   0  0  0  0  0  0  0  0  0  0  0  0
    7.2148  -16.6140   23.8587 C   0  0  0  0  0  0  0  0  0  0  0  0
    7.3639  -17.8690   23.6227 O   0  0  0  0  0  0  0  0  0  0  0  0
    7.6109  -15.7068   22.8394 N   0  0  0  0  0  0  0  0  0  0  0  0
    7.5000  -14.2780   22.8866 C   0  0  0  0  0  0  0  0  0  0  0  0
    8.0571  -13.7487   21.5599 C   0  0  0  0  0  0  0  0  0  0  0  0
    7.8908  -14.9700   20.6559 C   0  0  0  0  0  0  0  0  0  0  0  0
    8.2032  -16.1113   21.5712 C   0  0  1  0  0  0  0  0  0  0  0  0
    9.6544  -16.2789   21.7650 C   0  0  0  0  0  0  0  0  0  0  0  0
   10.3203  -15.3337   22.2539 O   0  0  0  0  0  0  0  0  0  0  0  0
    9.4875  -21.1807   23.7670 N   0  0  0  0  0  0  0  0  0  0  0  0
   10.7734  -20.6123   23.8937 C   0  0  0  0  0  0  0  0  0  0  0  0
   11.7183  -21.3370   24.3103 O   0  0  0  0  0  0  0  0  0  0  0  0
   10.9648  -19.1988   23.5362 C   0  0  0  0  0  0  0  0  0  0  0  0
   11.9084  -19.0664   22.3400 C   0  0  0  0  0  0  0  0  0  0  0  0
   11.7167  -17.7106   21.6755 C   0  0  2  0  0  0  0  0  0  0  0  0
   10.3241  -17.5055   21.4051 N   0  0  0  0  0  0  0  0  0  0  0  0
   12.5435  -17.5924   20.4510 C   0  0  0  0  0  0  0  0  0  0  0  0
   11.9855  -17.4280   19.1879 O   0  0  0  0  0  0  0  0  0  0  0  0
   13.7956  -17.6383   20.5233 O   0  0  0  0  0  0  0  0  0  0  0  0
  2  1  1  1
  2  3  1  0
  4  3  1  0
  5  4  2  0
  6  5  1  0
  7  6  2  0
  7  8  1  0
  8  9  2  0
  9  4  1  0
 10 11  2  0
 10  2  1  0
 12 10  1  0
 13 12  1  0
 14 13  1  0
 15 14  1  0
 15 16  1  0
 16 12  1  0
 17 18  2  0
 16 17  1  1
 20 19  1  0
 21 20  2  0
 22 20  1  0
 23 22  1  0
 24 23  1  6
 24 25  1  0
 25 17  1  0
 26 24  1  0
 27 26  1  0
 28 26  2  0
M  END
$$$$
