FPQ.pdb
     RDKit          3D

 28 29  0  0  1  0  0  0  0  0999 V2000
    6.4210  -17.1363   26.4568 N   0  0  0  0  0  0  0  0  0  0  0  0
    6.2610  -16.6351   25.1444 C   0  0  1  0  0  0  0  0  0  0  0  0
    5.7214  -15.2367   25.1035 C   0  0  0  0  0  0  0  0  0  0  0  0
    6.4053  -14.3919   26.0794 C   0  0  0  0  0  0  0  0  0  0  0  0
    7.7026  -14.7682   26.4367 C   0  0  0  0  0  0  0  0  0  0  0  0
    8.3711  -14.0093   27.3562 C   0  0  0  0  0  0  0  0  0  0  0  0
    7.8261  -12.8966   27.9426 C   0  0  0  0  0  0  0  0  0  0  0  0
    6.5518  -12.5480   27.5756 C   0  0  0  0  0  0  0  0  0  0  0  0
    5.8290  -13.2882   26.6440 C   0  0  0  0  0  0  0  0  0  0  0  0
    7.5644  -16.6211   24.4367 C   0  0  0  0  0  0  0  0  0  0  0  0
    8.4834  -17.4545   24.7743 O   0  0  0  0  0  0  0  0  0  0  0  0
    7.8601  -15.7156   23.3824 N   0  0  0  0  0  0  0  0  0  0  0  0
    7.1479  -14.5092   23.0766 C   0  0  0  0  0  0  0  0  0  0  0  0
    7.8426  -13.8833   21.8617 C   0  0  0  0  0  0  0  0  0  0  0  0
    8.5245  -15.1039   21.2439 C   0  0  0  0  0  0  0  0  0  0  0  0
    8.9586  -15.8888   22.4411 C   0  0  1  0  0  0  0  0  0  0  0  0
   10.1839  -15.3367   23.0455 C   0  0  0  0  0  0  0  0  0  0  0  0
   10.0974  -14.3404   23.8045 O   0  0  0  0  0  0  0  0  0  0  0  0
   11.0699  -15.1850   28.4747 N   0  0  0  0  0  0  0  0  0  0  0  0
   11.3964  -16.0479   27.4063 C   0  0  0  0  0  0  0  0  0  0  0  0
   11.2562  -17.2914   27.5667 O   0  0  0  0  0  0  0  0  0  0  0  0
   11.8870  -15.4674   26.1474 C   0  0  0  0  0  0  0  0  0  0  0  0
   11.9826  -16.5378   25.0594 C   0  0  0  0  0  0  0  0  0  0  0  0
   12.5157  -15.9237   23.7728 C   0  0  2  0  0  0  0  0  0  0  0  0
   11.4789  -15.9170   22.7832 N   0  0  0  0  0  0  0  0  0  0  0  0
   13.7282  -16.6345   23.3020 C   0  0  0  0  0  0  0  0  0  0  0  0
   13.7043  -17.5186   22.2290 O   0  0  0  0  0  0  0  0  0  0  0  0
   14.8318  -16.4533   23.8714 O   0  0  0  0  0  0  0  0  0  0  0  0
  2  1  1  1
  2  3  1  0
  4  3  1  0
  5  4  2  0
  6  5  1  0
  7  6  2  0
  7  8  1  0
  8  9  2  0
  9  4  1  0
 10 11  2  0
 10  2  1  0
 12 10  1  0
 13 12  1  0
 14 13  1  0
 15 14  1  0
 15 16  1  0
 16 12  1  0
 17 18  2  0
 16 17  1  1
 20 19  1  0
 21 20  2  0
 22 20  1  0
 23 22  1  0
 24 23  1  1
 24 25  1  0
 25 17  1  0
 26 24  1  0
 27 26  1  0
 28 26  2  0
M  END
$$$$
