FPQ.pdb
     RDKit          3D

 28 29  0  0  1  0  0  0  0  0999 V2000
    5.9627  -17.8265   25.5895 N   0  0  0  0  0  0  0  0  0  0  0  0
    6.5390  -16.5777   25.2617 C   0  0  1  0  0  0  0  0  0  0  0  0
    7.3208  -15.9696   26.3875 C   0  0  0  0  0  0  0  0  0  0  0  0
    7.1155  -14.5242   26.4355 C   0  0  0  0  0  0  0  0  0  0  0  0
    8.2607  -13.7249   26.3916 C   0  0  0  0  0  0  0  0  0  0  0  0
    8.1101  -12.3674   26.4462 C   0  0  0  0  0  0  0  0  0  0  0  0
    6.8870  -11.7560   26.5418 C   0  0  0  0  0  0  0  0  0  0  0  0
    5.7785  -12.5620   26.5834 C   0  0  0  0  0  0  0  0  0  0  0  0
    5.8786  -13.9496   26.5313 C   0  0  0  0  0  0  0  0  0  0  0  0
    7.4679  -16.7251   24.1148 C   0  0  0  0  0  0  0  0  0  0  0  0
    8.1938  -17.7814   24.0125 O   0  0  0  0  0  0  0  0  0  0  0  0
    7.6029  -15.7399   23.0999 N   0  0  0  0  0  0  0  0  0  0  0  0
    6.9319  -14.4736   23.0534 C   0  0  0  0  0  0  0  0  0  0  0  0
    7.4026  -13.7721   21.7741 C   0  0  0  0  0  0  0  0  0  0  0  0
    7.8515  -14.9625   20.9267 C   0  0  0  0  0  0  0  0  0  0  0  0
    8.4667  -15.8804   21.9350 C   0  0  1  0  0  0  0  0  0  0  0  0
    9.8274  -15.4547   22.3076 C   0  0  0  0  0  0  0  0  0  0  0  0
    9.9789  -14.4018   22.9743 O   0  0  0  0  0  0  0  0  0  0  0  0
   10.9511  -18.2810   26.6144 N   0  0  0  0  0  0  0  0  0  0  0  0
   11.9589  -18.3204   25.6269 C   0  0  0  0  0  0  0  0  0  0  0  0
   13.1017  -18.7508   25.9436 O   0  0  0  0  0  0  0  0  0  0  0  0
   11.6411  -17.8591   24.2672 C   0  0  0  0  0  0  0  0  0  0  0  0
   12.0417  -16.3945   24.0855 C   0  0  0  0  0  0  0  0  0  0  0  0
   12.2393  -16.0902   22.6073 C   0  0  2  0  0  0  0  0  0  0  0  0
   10.9872  -16.2223   21.9225 N   0  0  0  0  0  0  0  0  0  0  0  0
   13.2887  -16.9551   22.0178 C   0  0  0  0  0  0  0  0  0  0  0  0
   12.9997  -17.9529   21.0933 O   0  0  0  0  0  0  0  0  0  0  0  0
   14.4914  -16.8067   22.3443 O   0  0  0  0  0  0  0  0  0  0  0  0
  2  1  1  1
  2  3  1  0
  4  3  1  0
  5  4  2  0
  6  5  1  0
  7  6  2  0
  7  8  1  0
  8  9  2  0
  9  4  1  0
 10 11  2  0
 10  2  1  0
 12 10  1  0
 13 12  1  0
 14 13  1  0
 15 14  1  0
 15 16  1  0
 16 12  1  0
 17 18  2  0
 16 17  1  1
 20 19  1  0
 21 20  2  0
 22 20  1  0
 23 22  1  0
 24 23  1  1
 24 25  1  0
 25 17  1  0
 26 24  1  0
 27 26  1  0
 28 26  2  0
M  END
$$$$
