FPQ.pdb
     RDKit          3D

 28 29  0  0  1  0  0  0  0  0999 V2000
    6.0125  -17.6535   25.6671 N   0  0  0  0  0  0  0  0  0  0  0  0
    6.6394  -16.4319   25.3299 C   0  0  1  0  0  0  0  0  0  0  0  0
    7.4443  -15.8470   26.4518 C   0  0  0  0  0  0  0  0  0  0  0  0
    7.3322  -14.3905   26.4614 C   0  0  0  0  0  0  0  0  0  0  0  0
    6.0449  -13.8586   26.3519 C   0  0  0  0  0  0  0  0  0  0  0  0
    5.9001  -12.4994   26.3453 C   0  0  0  0  0  0  0  0  0  0  0  0
    6.9604  -11.6360   26.4414 C   0  0  0  0  0  0  0  0  0  0  0  0
    8.2135  -12.1824   26.5477 C   0  0  0  0  0  0  0  0  0  0  0  0
    8.4139  -13.5601   26.5586 C   0  0  0  0  0  0  0  0  0  0  0  0
    7.5625  -16.6262   24.1853 C   0  0  0  0  0  0  0  0  0  0  0  0
    8.2684  -17.6982   24.1091 O   0  0  0  0  0  0  0  0  0  0  0  0
    7.7134  -15.6703   23.1450 N   0  0  0  0  0  0  0  0  0  0  0  0
    7.0014  -14.4317   23.0224 C   0  0  0  0  0  0  0  0  0  0  0  0
    7.5106  -13.7554   21.7441 C   0  0  0  0  0  0  0  0  0  0  0  0
    8.0428  -14.9555   20.9611 C   0  0  0  0  0  0  0  0  0  0  0  0
    8.6388  -15.8168   22.0292 C   0  0  1  0  0  0  0  0  0  0  0  0
    9.9633  -15.3294   22.4529 C   0  0  0  0  0  0  0  0  0  0  0  0
   10.0526  -14.2129   23.0199 O   0  0  0  0  0  0  0  0  0  0  0  0
   10.7730  -16.4137   27.1932 N   0  0  0  0  0  0  0  0  0  0  0  0
   11.9028  -17.2118   26.9118 C   0  0  0  0  0  0  0  0  0  0  0  0
   12.3469  -17.9736   27.8140 O   0  0  0  0  0  0  0  0  0  0  0  0
   12.5200  -17.1265   25.5798 C   0  0  0  0  0  0  0  0  0  0  0  0
   11.4671  -16.8181   24.5145 C   0  0  0  0  0  0  0  0  0  0  0  0
   12.1412  -16.2897   23.2563 C   0  0  2  0  0  0  0  0  0  0  0  0
   11.1576  -16.1080   22.2296 N   0  0  0  0  0  0  0  0  0  0  0  0
   13.2397  -17.1845   22.8208 C   0  0  0  0  0  0  0  0  0  0  0  0
   14.5374  -17.0617   23.3052 O   0  0  0  0  0  0  0  0  0  0  0  0
   13.0230  -18.0961   21.9858 O   0  0  0  0  0  0  0  0  0  0  0  0
  2  1  1  1
  2  3  1  0
  4  3  1  0
  5  4  2  0
  6  5  1  0
  7  6  2  0
  7  8  1  0
  8  9  2  0
  9  4  1  0
 10 11  2  0
 10  2  1  0
 12 10  1  0
 13 12  1  0
 14 13  1  0
 15 14  1  0
 15 16  1  0
 16 12  1  0
 17 18  2  0
 16 17  1  1
 20 19  1  0
 21 20  2  0
 22 20  1  0
 23 22  1  0
 24 23  1  1
 24 25  1  0
 25 17  1  0
 26 24  1  0
 27 26  1  0
 28 26  2  0
M  END
$$$$
