FPQ.pdb
     RDKit          3D

 28 29  0  0  1  0  0  0  0  0999 V2000
    8.3728  -13.8229   21.0887 N   0  0  0  0  0  0  0  0  0  0  0  0
    7.5073  -13.5242   22.1661 C   0  0  1  0  0  0  0  0  0  0  0  0
    6.2374  -14.3214   22.1474 C   0  0  0  0  0  0  0  0  0  0  0  0
    6.5280  -15.7530   22.1390 C   0  0  0  0  0  0  0  0  0  0  0  0
    6.6756  -16.3716   23.3831 C   0  0  0  0  0  0  0  0  0  0  0  0
    6.9597  -17.7082   23.4164 C   0  0  0  0  0  0  0  0  0  0  0  0
    7.1060  -18.4679   22.2848 C   0  0  0  0  0  0  0  0  0  0  0  0
    6.9566  -17.8378   21.0762 C   0  0  0  0  0  0  0  0  0  0  0  0
    6.6674  -16.4787   20.9889 C   0  0  0  0  0  0  0  0  0  0  0  0
    8.1793  -13.8036   23.4584 C   0  0  0  0  0  0  0  0  0  0  0  0
    9.2484  -14.5175   23.4810 O   0  0  0  0  0  0  0  0  0  0  0  0
    7.6946  -13.3150   24.7015 N   0  0  0  0  0  0  0  0  0  0  0  0
    6.4776  -12.5858   24.9090 C   0  0  0  0  0  0  0  0  0  0  0  0
    6.3955  -12.2833   26.4098 C   0  0  0  0  0  0  0  0  0  0  0  0
    7.8672  -12.3684   26.8141 C   0  0  0  0  0  0  0  0  0  0  0  0
    8.3827  -13.4932   25.9733 C   0  0  1  0  0  0  0  0  0  0  0  0
    8.0109  -14.8077   26.5261 C   0  0  0  0  0  0  0  0  0  0  0  0
    6.8744  -15.2783   26.2756 O   0  0  0  0  0  0  0  0  0  0  0  0
   11.0793  -18.5159   23.7875 N   0  0  0  0  0  0  0  0  0  0  0  0
   11.9162  -17.7115   24.5907 C   0  0  0  0  0  0  0  0  0  0  0  0
   13.1613  -17.7426   24.3902 O   0  0  0  0  0  0  0  0  0  0  0  0
   11.3076  -16.8678   25.6301 C   0  0  0  0  0  0  0  0  0  0  0  0
    9.7860  -17.0207   25.6285 C   0  0  0  0  0  0  0  0  0  0  0  0
    9.2536  -16.9268   27.0513 C   0  0  2  0  0  0  0  0  0  0  0  0
    8.9252  -15.5635   27.3478 N   0  0  0  0  0  0  0  0  0  0  0  0
   10.2207  -17.4892   28.0235 C   0  0  0  0  0  0  0  0  0  0  0  0
   11.1796  -16.7073   28.6583 O   0  0  0  0  0  0  0  0  0  0  0  0
   10.1993  -18.7119   28.3056 O   0  0  0  0  0  0  0  0  0  0  0  0
  2  1  1  6
  2  3  1  0
  4  3  1  0
  5  4  2  0
  6  5  1  0
  7  6  2  0
  7  8  1  0
  8  9  2  0
  9  4  1  0
 10 11  2  0
 10  2  1  0
 12 10  1  0
 13 12  1  0
 14 13  1  0
 15 14  1  0
 15 16  1  0
 16 12  1  0
 17 18  2  0
 16 17  1  1
 20 19  1  0
 21 20  2  0
 22 20  1  0
 23 22  1  0
 24 23  1  6
 24 25  1  0
 25 17  1  0
 26 24  1  0
 27 26  1  0
 28 26  2  0
M  END
$$$$
