EYE.pdb
     RDKit          3D

 31 31  0  0  1  0  0  0  0  0999 V2000
   20.5074  -14.9463  -19.6255 N   0  0  0  0  0  0  0  0  0  0  0  0
   21.5820  -14.2943  -18.8573 C   0  0  1  0  0  0  0  0  0  0  0  0
   22.2906  -13.4086  -19.8513 C   0  0  0  0  0  0  0  0  0  0  0  0
   21.3356  -12.4329  -20.4492 C   0  0  0  0  0  0  0  0  0  0  0  0
   22.0341  -11.5568  -21.4372 C   0  0  0  0  0  0  0  0  0  0  0  0
   23.2765  -11.6514  -21.6510 O   0  0  0  0  0  0  0  0  0  0  0  0
   21.0236  -13.5904  -17.6885 C   0  0  0  0  0  0  0  0  0  0  0  0
   19.8273  -13.2152  -17.7071 O   0  0  0  0  0  0  0  0  0  0  0  0
   21.3490  -10.6018  -22.1623 O   0  0  0  0  0  0  0  0  0  0  0  0
   19.0150  -18.3006  -13.4981 O   0  0  0  0  0  0  0  0  0  0  0  0
   19.7329  -17.1249  -13.6783 C   0  0  0  0  0  0  0  0  0  0  0  0
   20.8383  -17.1058  -14.5000 C   0  0  0  0  0  0  0  0  0  0  0  0
   21.5368  -15.9391  -14.6682 C   0  0  0  0  0  0  0  0  0  0  0  0
   21.1554  -14.7811  -14.0307 C   0  0  0  0  0  0  0  0  0  0  0  0
   21.8794  -13.5007  -14.1821 C   0  0  0  0  0  0  0  0  0  0  0  0
   21.3338  -12.6949  -15.3545 C   0  0  2  0  0  0  0  0  0  0  0  0
   21.8211  -13.3373  -16.5417 N   0  0  0  0  0  0  0  0  0  0  0  0
   21.8259  -11.3021  -15.2982 C   0  0  0  0  0  0  0  0  0  0  0  0
   22.7254  -10.9798  -16.1026 O   0  0  0  0  0  0  0  0  0  0  0  0
   20.0382  -14.8184  -13.2057 C   0  0  0  0  0  0  0  0  0  0  0  0
   19.3267  -15.9853  -13.0278 C   0  0  0  0  0  0  0  0  0  0  0  0
   21.3227  -10.3557  -14.3886 N   0  0  0  0  0  0  0  0  0  0  0  0
   21.3922   -8.9455  -14.4446 C   0  0  1  0  0  0  0  0  0  0  0  0
   21.0932   -8.3656  -15.8314 C   0  0  0  0  0  0  0  0  0  0  0  0
   21.2504   -6.8693  -15.8232 C   0  0  0  0  0  0  0  0  0  0  0  0
   20.9126   -6.3265  -17.1644 C   0  0  0  0  0  0  0  0  0  0  0  0
   21.8138   -6.0724  -17.9829 O   0  0  0  0  0  0  0  0  0  0  0  0
   20.7429   -8.1878  -13.3955 C   0  0  0  0  0  0  0  0  0  0  0  0
   21.1631   -6.9314  -12.9483 O   0  0  0  0  0  0  0  0  0  0  0  0
   19.5897   -6.1066  -17.4944 O   0  0  0  0  0  0  0  0  0  0  0  0
   19.7295   -8.6646  -12.8278 O   0  0  0  0  0  0  0  0  0  0  0  0
  2  1  1  6
  2  3  1  0
  3  4  1  0
  4  5  1  0
  5  9  1  0
  6  5  2  0
  7  8  2  0
  7  2  1  0
 10 11  1  0
 11 12  2  0
 12 13  1  0
 14 13  2  0
 14 15  1  0
 16 15  1  1
 16 17  1  0
 17  7  1  0
 18 22  1  0
 18 16  1  0
 19 18  2  0
 20 14  1  0
 21 11  1  0
 21 20  2  0
 23 22  1  0
 23 28  1  0
 23 24  1  6
 25 24  1  0
 26 25  1  0
 27 26  2  0
 28 29  1  0
 30 26  1  0
 31 28  2  0
M  END
$$$$
