EYE.pdb
     RDKit          3D

 31 31  0  0  1  0  0  0  0  0999 V2000
   25.5159  -20.1486   -7.1861 N   0  0  0  0  0  0  0  0  0  0  0  0
   24.8969  -20.8668   -8.3136 C   0  0  1  0  0  0  0  0  0  0  0  0
   23.4502  -21.0353   -7.9221 C   0  0  0  0  0  0  0  0  0  0  0  0
   23.3360  -21.9186   -6.7270 C   0  0  0  0  0  0  0  0  0  0  0  0
   22.4354  -23.0748   -7.0162 C   0  0  0  0  0  0  0  0  0  0  0  0
   22.7970  -24.0325   -7.7579 O   0  0  0  0  0  0  0  0  0  0  0  0
   25.1161  -20.1324   -9.5730 C   0  0  0  0  0  0  0  0  0  0  0  0
   24.6484  -18.9763   -9.7031 O   0  0  0  0  0  0  0  0  0  0  0  0
   21.1635  -23.1469   -6.4829 O   0  0  0  0  0  0  0  0  0  0  0  0
   28.6801  -18.4602  -17.4750 O   0  0  0  0  0  0  0  0  0  0  0  0
   28.3669  -18.9625  -16.2181 C   0  0  0  0  0  0  0  0  0  0  0  0
   28.1395  -18.1043  -15.1648 C   0  0  0  0  0  0  0  0  0  0  0  0
   27.8317  -18.6137  -13.9307 C   0  0  0  0  0  0  0  0  0  0  0  0
   27.7445  -19.9706  -13.7206 C   0  0  0  0  0  0  0  0  0  0  0  0
   27.4165  -20.5643  -12.4067 C   0  0  0  0  0  0  0  0  0  0  0  0
   26.0597  -20.0824  -11.9080 C   0  0  2  0  0  0  0  0  0  0  0  0
   25.8539  -20.7152  -10.6365 N   0  0  0  0  0  0  0  0  0  0  0  0
   24.9914  -20.4829  -12.8480 C   0  0  0  0  0  0  0  0  0  0  0  0
   24.6619  -21.6875  -12.8605 O   0  0  0  0  0  0  0  0  0  0  0  0
   27.9768  -20.8216  -14.7940 C   0  0  0  0  0  0  0  0  0  0  0  0
   28.2874  -20.3223  -16.0405 C   0  0  0  0  0  0  0  0  0  0  0  0
   24.3529  -19.5695  -13.7050 N   0  0  0  0  0  0  0  0  0  0  0  0
   23.3395  -19.8073  -14.6605 C   0  0  1  0  0  0  0  0  0  0  0  0
   22.0338  -19.0562  -14.3781 C   0  0  0  0  0  0  0  0  0  0  0  0
   20.9858  -19.4180  -15.3952 C   0  0  0  0  0  0  0  0  0  0  0  0
   19.9306  -18.3722  -15.4154 C   0  0  0  0  0  0  0  0  0  0  0  0
   20.0372  -17.3604  -14.7002 O   0  0  0  0  0  0  0  0  0  0  0  0
   23.6968  -19.7525  -16.0626 C   0  0  0  0  0  0  0  0  0  0  0  0
   23.2879  -20.6836  -17.0223 O   0  0  0  0  0  0  0  0  0  0  0  0
   18.8306  -18.5332  -16.2347 O   0  0  0  0  0  0  0  0  0  0  0  0
   24.4234  -18.8161  -16.4773 O   0  0  0  0  0  0  0  0  0  0  0  0
  2  1  1  1
  2  3  1  0
  3  4  1  0
  4  5  1  0
  5  9  1  0
  6  5  2  0
  7  8  2  0
  7  2  1  0
 10 11  1  0
 11 12  2  0
 12 13  1  0
 14 13  2  0
 14 15  1  0
 16 15  1  6
 16 17  1  0
 17  7  1  0
 18 22  1  0
 18 16  1  0
 19 18  2  0
 20 14  1  0
 21 11  1  0
 21 20  2  0
 23 22  1  0
 23 28  1  0
 23 24  1  6
 25 24  1  0
 26 25  1  0
 27 26  2  0
 28 29  1  0
 30 26  1  0
 31 28  2  0
M  END
$$$$
