EYE.pdb
     RDKit          3D

 31 31  0  0  1  0  0  0  0  0999 V2000
   20.1349  -16.4651  -15.9851 N   0  0  0  0  0  0  0  0  0  0  0  0
   20.1792  -15.0751  -16.4710 C   0  0  1  0  0  0  0  0  0  0  0  0
   18.9370  -14.4267  -15.9132 C   0  0  0  0  0  0  0  0  0  0  0  0
   17.7178  -15.0512  -16.5005 C   0  0  0  0  0  0  0  0  0  0  0  0
   16.4859  -14.4089  -15.9516 C   0  0  0  0  0  0  0  0  0  0  0  0
   16.1015  -13.2674  -16.3353 O   0  0  0  0  0  0  0  0  0  0  0  0
   21.4450  -14.4321  -16.0740 C   0  0  0  0  0  0  0  0  0  0  0  0
   21.9168  -14.6498  -14.9328 O   0  0  0  0  0  0  0  0  0  0  0  0
   15.7109  -15.0379  -14.9971 O   0  0  0  0  0  0  0  0  0  0  0  0
   29.3954  -11.0446  -16.2811 O   0  0  0  0  0  0  0  0  0  0  0  0
   28.1746  -11.6351  -16.5830 C   0  0  0  0  0  0  0  0  0  0  0  0
   27.4576  -11.2224  -17.6844 C   0  0  0  0  0  0  0  0  0  0  0  0
   26.2551  -11.8136  -17.9700 C   0  0  0  0  0  0  0  0  0  0  0  0
   25.7465  -12.8156  -17.1761 C   0  0  0  0  0  0  0  0  0  0  0  0
   24.4536  -13.4807  -17.4455 C   0  0  0  0  0  0  0  0  0  0  0  0
   23.3318  -12.8566  -16.6246 C   0  0  2  0  0  0  0  0  0  0  0  0
   22.1381  -13.5752  -16.9687 N   0  0  0  0  0  0  0  0  0  0  0  0
   23.1746  -11.4271  -16.9667 C   0  0  0  0  0  0  0  0  0  0  0  0
   22.8975  -11.1494  -18.1524 O   0  0  0  0  0  0  0  0  0  0  0  0
   26.4828  -13.2195  -16.0694 C   0  0  0  0  0  0  0  0  0  0  0  0
   27.6938  -12.6331  -15.7708 C   0  0  0  0  0  0  0  0  0  0  0  0
   23.3240  -10.3992  -16.0193 N   0  0  0  0  0  0  0  0  0  0  0  0
   23.1555   -9.0063  -16.1861 C   0  0  1  0  0  0  0  0  0  0  0  0
   22.7503   -8.2736  -14.9023 C   0  0  0  0  0  0  0  0  0  0  0  0
   22.4658   -6.8243  -15.1888 C   0  0  0  0  0  0  0  0  0  0  0  0
   22.0703   -6.1374  -13.9321 C   0  0  0  0  0  0  0  0  0  0  0  0
   22.0768   -6.7540  -12.8521 O   0  0  0  0  0  0  0  0  0  0  0  0
   24.1694   -8.2791  -16.9208 C   0  0  0  0  0  0  0  0  0  0  0  0
   23.9134   -7.4526  -18.0191 O   0  0  0  0  0  0  0  0  0  0  0  0
   21.6956   -4.8088  -13.9734 O   0  0  0  0  0  0  0  0  0  0  0  0
   25.3718   -8.3765  -16.5724 O   0  0  0  0  0  0  0  0  0  0  0  0
  2  1  1  1
  2  3  1  0
  3  4  1  0
  4  5  1  0
  5  9  1  0
  6  5  2  0
  7  8  2  0
  7  2  1  0
 10 11  1  0
 11 12  2  0
 12 13  1  0
 14 13  2  0
 14 15  1  0
 16 15  1  6
 16 17  1  0
 17  7  1  0
 18 22  1  0
 18 16  1  0
 19 18  2  0
 20 14  1  0
 21 11  1  0
 21 20  2  0
 23 22  1  0
 23 28  1  0
 23 24  1  1
 25 24  1  0
 26 25  1  0
 27 26  2  0
 28 29  1  0
 30 26  1  0
 31 28  2  0
M  END
$$$$
