EYE.pdb
     RDKit          3D

 31 31  0  0  1  0  0  0  0  0999 V2000
   27.0279  -20.5420  -15.6283 N   0  0  0  0  0  0  0  0  0  0  0  0
   26.3167  -21.8079  -15.8765 C   0  0  1  0  0  0  0  0  0  0  0  0
   27.3779  -22.8759  -15.7878 C   0  0  0  0  0  0  0  0  0  0  0  0
   28.0374  -23.0626  -17.1113 C   0  0  0  0  0  0  0  0  0  0  0  0
   29.1153  -24.0926  -17.0171 C   0  0  0  0  0  0  0  0  0  0  0  0
   28.9065  -25.2320  -16.5109 O   0  0  0  0  0  0  0  0  0  0  0  0
   25.1998  -21.9644  -14.9269 C   0  0  0  0  0  0  0  0  0  0  0  0
   25.1016  -23.0201  -14.2577 O   0  0  0  0  0  0  0  0  0  0  0  0
   30.3917  -23.8425  -17.4812 O   0  0  0  0  0  0  0  0  0  0  0  0
   26.4301  -20.9363   -8.3077 O   0  0  0  0  0  0  0  0  0  0  0  0
   25.6704  -20.6366   -9.4316 C   0  0  0  0  0  0  0  0  0  0  0  0
   24.2978  -20.5626   -9.3418 C   0  0  0  0  0  0  0  0  0  0  0  0
   23.5612  -20.2662  -10.4584 C   0  0  0  0  0  0  0  0  0  0  0  0
   24.1666  -20.0400  -11.6730 C   0  0  0  0  0  0  0  0  0  0  0  0
   23.4120  -19.7184  -12.9032 C   0  0  0  0  0  0  0  0  0  0  0  0
   23.2048  -20.9597  -13.7624 C   0  0  2  0  0  0  0  0  0  0  0  0
   24.2387  -20.9335  -14.7575 N   0  0  0  0  0  0  0  0  0  0  0  0
   21.8784  -20.9219  -14.4140 C   0  0  0  0  0  0  0  0  0  0  0  0
   21.7256  -20.1147  -15.3546 O   0  0  0  0  0  0  0  0  0  0  0  0
   25.5518  -20.1186  -11.7455 C   0  0  0  0  0  0  0  0  0  0  0  0
   26.3046  -20.4159  -10.6299 C   0  0  0  0  0  0  0  0  0  0  0  0
   20.8131  -21.7478  -14.0149 N   0  0  0  0  0  0  0  0  0  0  0  0
   19.4696  -21.7382  -14.4525 C   0  0  1  0  0  0  0  0  0  0  0  0
   18.9325  -23.1223  -14.8329 C   0  0  0  0  0  0  0  0  0  0  0  0
   20.0528  -24.0158  -15.2915 C   0  0  0  0  0  0  0  0  0  0  0  0
   19.5152  -25.3637  -15.6101 C   0  0  0  0  0  0  0  0  0  0  0  0
   18.2985  -25.5956  -15.4985 O   0  0  0  0  0  0  0  0  0  0  0  0
   18.5055  -20.9830  -13.6802 C   0  0  0  0  0  0  0  0  0  0  0  0
   17.1910  -20.7284  -14.0832 O   0  0  0  0  0  0  0  0  0  0  0  0
   20.3777  -26.3567  -16.0311 O   0  0  0  0  0  0  0  0  0  0  0  0
   18.8423  -20.5101  -12.5668 O   0  0  0  0  0  0  0  0  0  0  0  0
  2  1  1  1
  2  3  1  0
  3  4  1  0
  4  5  1  0
  5  9  1  0
  6  5  2  0
  7  8  2  0
  7  2  1  0
 10 11  1  0
 11 12  2  0
 12 13  1  0
 14 13  2  0
 14 15  1  0
 16 15  1  1
 16 17  1  0
 17  7  1  0
 18 22  1  0
 18 16  1  0
 19 18  2  0
 20 14  1  0
 21 11  1  0
 21 20  2  0
 23 22  1  0
 23 28  1  0
 23 24  1  1
 25 24  1  0
 26 25  1  0
 27 26  2  0
 28 29  1  0
 30 26  1  0
 31 28  2  0
M  END
$$$$
