EYE.pdb
     RDKit          3D

 31 31  0  0  1  0  0  0  0  0999 V2000
   22.8986  -12.5382  -16.5985 N   0  0  0  0  0  0  0  0  0  0  0  0
   23.1802  -11.3555  -15.7666 C   0  0  1  0  0  0  0  0  0  0  0  0
   24.6461  -11.0701  -15.9772 C   0  0  0  0  0  0  0  0  0  0  0  0
   25.2258  -12.0312  -16.9579 C   0  0  0  0  0  0  0  0  0  0  0  0
   26.6307  -11.6508  -17.2940 C   0  0  0  0  0  0  0  0  0  0  0  0
   27.1963  -10.6524  -16.7637 O   0  0  0  0  0  0  0  0  0  0  0  0
   22.2758  -10.2479  -16.1254 C   0  0  0  0  0  0  0  0  0  0  0  0
   21.8297  -10.1691  -17.2945 O   0  0  0  0  0  0  0  0  0  0  0  0
   27.3748  -12.3774  -18.2027 O   0  0  0  0  0  0  0  0  0  0  0  0
   16.3859  -12.3615  -16.7586 O   0  0  0  0  0  0  0  0  0  0  0  0
   17.2157  -11.3820  -16.2275 C   0  0  0  0  0  0  0  0  0  0  0  0
   17.2773  -10.1347  -16.8088 C   0  0  0  0  0  0  0  0  0  0  0  0
   18.1002   -9.1784  -16.2744 C   0  0  0  0  0  0  0  0  0  0  0  0
   18.8698   -9.4392  -15.1641 C   0  0  0  0  0  0  0  0  0  0  0  0
   19.7720   -8.4388  -14.5546 C   0  0  0  0  0  0  0  0  0  0  0  0
   20.9944   -8.1936  -15.4306 C   0  0  2  0  0  0  0  0  0  0  0  0
   21.9003   -9.2740  -15.1633 N   0  0  0  0  0  0  0  0  0  0  0  0
   21.6306   -6.9057  -15.0816 C   0  0  0  0  0  0  0  0  0  0  0  0
   22.2790   -6.8580  -14.0152 O   0  0  0  0  0  0  0  0  0  0  0  0
   18.7953  -10.7024  -14.5906 C   0  0  0  0  0  0  0  0  0  0  0  0
   17.9717  -11.6734  -15.1182 C   0  0  0  0  0  0  0  0  0  0  0  0
   21.5288   -5.7638  -15.8953 N   0  0  0  0  0  0  0  0  0  0  0  0
   22.0109   -4.4572  -15.6566 C   0  0  1  0  0  0  0  0  0  0  0  0
   22.1147   -3.5954  -16.9197 C   0  0  0  0  0  0  0  0  0  0  0  0
   22.8913   -4.3157  -17.9882 C   0  0  0  0  0  0  0  0  0  0  0  0
   22.8604   -3.5235  -19.2447 C   0  0  0  0  0  0  0  0  0  0  0  0
   22.3024   -2.4124  -19.2716 O   0  0  0  0  0  0  0  0  0  0  0  0
   21.4515   -3.7154  -14.5462 C   0  0  0  0  0  0  0  0  0  0  0  0
   22.0301   -2.5738  -13.9832 O   0  0  0  0  0  0  0  0  0  0  0  0
   23.4564   -4.0313  -20.3824 O   0  0  0  0  0  0  0  0  0  0  0  0
   20.3725   -4.0983  -14.0304 O   0  0  0  0  0  0  0  0  0  0  0  0
  2  1  1  6
  2  3  1  0
  3  4  1  0
  4  5  1  0
  5  9  1  0
  6  5  2  0
  7  8  2  0
  7  2  1  0
 10 11  1  0
 11 12  2  0
 12 13  1  0
 14 13  2  0
 14 15  1  0
 16 15  1  1
 16 17  1  0
 17  7  1  0
 18 22  1  0
 18 16  1  0
 19 18  2  0
 20 14  1  0
 21 11  1  0
 21 20  2  0
 23 22  1  0
 23 28  1  0
 23 24  1  6
 25 24  1  0
 26 25  1  0
 27 26  2  0
 28 29  1  0
 30 26  1  0
 31 28  2  0
M  END
$$$$
