EYE.pdb
     RDKit          3D

 31 31  0  0  1  0  0  0  0  0999 V2000
   23.3466   -8.2590  -18.2738 N   0  0  0  0  0  0  0  0  0  0  0  0
   21.9334   -8.2646  -18.6899 C   0  0  1  0  0  0  0  0  0  0  0  0
   21.6814   -9.6623  -19.1975 C   0  0  0  0  0  0  0  0  0  0  0  0
   22.4955   -9.9253  -20.4179 C   0  0  0  0  0  0  0  0  0  0  0  0
   21.6090  -10.2188  -21.5839 C   0  0  0  0  0  0  0  0  0  0  0  0
   21.1691   -9.3018  -22.3346 O   0  0  0  0  0  0  0  0  0  0  0  0
   21.0673   -7.8458  -17.5728 C   0  0  0  0  0  0  0  0  0  0  0  0
   19.8279   -7.7704  -17.7472 O   0  0  0  0  0  0  0  0  0  0  0  0
   21.2306  -11.5106  -21.8926 O   0  0  0  0  0  0  0  0  0  0  0  0
   18.2088  -12.8701  -14.8009 O   0  0  0  0  0  0  0  0  0  0  0  0
   18.9432  -11.7037  -14.6270 C   0  0  0  0  0  0  0  0  0  0  0  0
   20.2402  -11.6256  -15.0845 C   0  0  0  0  0  0  0  0  0  0  0  0
   20.9527  -10.4690  -14.9060 C   0  0  0  0  0  0  0  0  0  0  0  0
   20.3971   -9.3790  -14.2766 C   0  0  0  0  0  0  0  0  0  0  0  0
   21.1285   -8.1120  -14.0614 C   0  0  0  0  0  0  0  0  0  0  0  0
   20.8374   -7.1124  -15.1739 C   0  0  2  0  0  0  0  0  0  0  0  0
   21.6181   -7.5326  -16.3025 N   0  0  0  0  0  0  0  0  0  0  0  0
   21.2395   -5.7504  -14.7633 C   0  0  0  0  0  0  0  0  0  0  0  0
   22.4559   -5.5479  -14.5652 O   0  0  0  0  0  0  0  0  0  0  0  0
   19.0879   -9.4751  -13.8216 C   0  0  0  0  0  0  0  0  0  0  0  0
   18.3602  -10.6327  -13.9947 C   0  0  0  0  0  0  0  0  0  0  0  0
   20.3151   -4.7047  -14.5946 N   0  0  0  0  0  0  0  0  0  0  0  0
   20.4761   -3.3258  -14.8574 C   0  0  1  0  0  0  0  0  0  0  0  0
   21.2327   -3.0274  -16.1565 C   0  0  0  0  0  0  0  0  0  0  0  0
   21.4632   -1.5481  -16.3055 C   0  0  0  0  0  0  0  0  0  0  0  0
   22.1652   -1.2810  -17.5874 C   0  0  0  0  0  0  0  0  0  0  0  0
   22.6123   -2.2229  -18.2652 O   0  0  0  0  0  0  0  0  0  0  0  0
   19.3258   -2.4613  -14.6966 C   0  0  0  0  0  0  0  0  0  0  0  0
   19.3554   -1.2091  -14.0751 O   0  0  0  0  0  0  0  0  0  0  0  0
   22.3169    0.0218  -18.0199 O   0  0  0  0  0  0  0  0  0  0  0  0
   18.2093   -2.8332  -15.1347 O   0  0  0  0  0  0  0  0  0  0  0  0
  2  1  1  1
  2  3  1  0
  3  4  1  0
  4  5  1  0
  5  9  1  0
  6  5  2  0
  7  8  2  0
  7  2  1  0
 10 11  1  0
 11 12  2  0
 12 13  1  0
 14 13  2  0
 14 15  1  0
 16 15  1  1
 16 17  1  0
 17  7  1  0
 18 22  1  0
 18 16  1  0
 19 18  2  0
 20 14  1  0
 21 11  1  0
 21 20  2  0
 23 22  1  0
 23 28  1  0
 23 24  1  6
 25 24  1  0
 26 25  1  0
 27 26  2  0
 28 29  1  0
 30 26  1  0
 31 28  2  0
M  END
$$$$
