EYE.pdb
     RDKit          3D

 31 31  0  0  1  0  0  0  0  0999 V2000
   17.5757  -13.7908  -15.4912 N   0  0  0  0  0  0  0  0  0  0  0  0
   18.3248  -12.8861  -16.3803 C   0  0  1  0  0  0  0  0  0  0  0  0
   17.5309  -12.8527  -17.6622 C   0  0  0  0  0  0  0  0  0  0  0  0
   17.6589  -14.1497  -18.3852 C   0  0  0  0  0  0  0  0  0  0  0  0
   16.9174  -14.1007  -19.6811 C   0  0  0  0  0  0  0  0  0  0  0  0
   15.7415  -14.5506  -19.7940 O   0  0  0  0  0  0  0  0  0  0  0  0
   18.5156  -11.5740  -15.7356 C   0  0  0  0  0  0  0  0  0  0  0  0
   17.5819  -11.0743  -15.0642 O   0  0  0  0  0  0  0  0  0  0  0  0
   17.4880  -13.5592  -20.8162 O   0  0  0  0  0  0  0  0  0  0  0  0
   22.8485   -4.1567  -13.7126 O   0  0  0  0  0  0  0  0  0  0  0  0
   22.5057   -5.4618  -14.0432 C   0  0  0  0  0  0  0  0  0  0  0  0
   22.8991   -5.9984  -15.2494 C   0  0  0  0  0  0  0  0  0  0  0  0
   22.5538   -7.2868  -15.5622 C   0  0  0  0  0  0  0  0  0  0  0  0
   21.8190   -8.0595  -14.6927 C   0  0  0  0  0  0  0  0  0  0  0  0
   21.4232   -9.4531  -14.9889 C   0  0  0  0  0  0  0  0  0  0  0  0
   19.9537   -9.5361  -15.3834 C   0  0  2  0  0  0  0  0  0  0  0  0
   19.7436  -10.8730  -15.8611 N   0  0  0  0  0  0  0  0  0  0  0  0
   19.6508   -8.5652  -16.4562 C   0  0  0  0  0  0  0  0  0  0  0  0
   20.2300   -8.7231  -17.5513 O   0  0  0  0  0  0  0  0  0  0  0  0
   21.4307   -7.5025  -13.4806 C   0  0  0  0  0  0  0  0  0  0  0  0
   21.7714   -6.2077  -13.1536 C   0  0  0  0  0  0  0  0  0  0  0  0
   18.7525   -7.4979  -16.2823 N   0  0  0  0  0  0  0  0  0  0  0  0
   18.5056   -6.3972  -17.1332 C   0  0  1  0  0  0  0  0  0  0  0  0
   17.0348   -6.2436  -17.5357 C   0  0  0  0  0  0  0  0  0  0  0  0
   16.5860   -7.4221  -18.3564 C   0  0  0  0  0  0  0  0  0  0  0  0
   15.1169   -7.5944  -18.2172 C   0  0  0  0  0  0  0  0  0  0  0  0
   14.3504   -6.6396  -18.4355 O   0  0  0  0  0  0  0  0  0  0  0  0
   19.1037   -5.1234  -16.7925 C   0  0  0  0  0  0  0  0  0  0  0  0
   19.6552   -4.8144  -15.5453 O   0  0  0  0  0  0  0  0  0  0  0  0
   14.6096   -8.8233  -17.8435 O   0  0  0  0  0  0  0  0  0  0  0  0
   19.1456   -4.2118  -17.6551 O   0  0  0  0  0  0  0  0  0  0  0  0
  2  1  1  1
  2  3  1  0
  3  4  1  0
  4  5  1  0
  5  9  1  0
  6  5  2  0
  7  8  2  0
  7  2  1  0
 10 11  1  0
 11 12  2  0
 12 13  1  0
 14 13  2  0
 14 15  1  0
 16 15  1  6
 16 17  1  0
 17  7  1  0
 18 22  1  0
 18 16  1  0
 19 18  2  0
 20 14  1  0
 21 11  1  0
 21 20  2  0
 23 22  1  0
 23 28  1  0
 23 24  1  1
 25 24  1  0
 26 25  1  0
 27 26  2  0
 28 29  1  0
 30 26  1  0
 31 28  2  0
M  END
$$$$
