EYE.pdb
     RDKit          3D

 31 31  0  0  1  0  0  0  0  0999 V2000
   31.5917    2.9504   -3.4286 N   0  0  0  0  0  0  0  0  0  0  0  0
   30.2073    2.4794   -3.2512 C   0  0  1  0  0  0  0  0  0  0  0  0
   29.6951    3.2193   -2.0409 C   0  0  0  0  0  0  0  0  0  0  0  0
   29.5925    4.6778   -2.3301 C   0  0  0  0  0  0  0  0  0  0  0  0
   29.3096    5.4401   -1.0769 C   0  0  0  0  0  0  0  0  0  0  0  0
   29.2462    4.8708    0.0500 O   0  0  0  0  0  0  0  0  0  0  0  0
   29.4290    2.6957   -4.4845 C   0  0  0  0  0  0  0  0  0  0  0  0
   29.8745    3.4650   -5.3687 O   0  0  0  0  0  0  0  0  0  0  0  0
   29.1044    6.8057   -1.0964 O   0  0  0  0  0  0  0  0  0  0  0  0
   23.3753    0.8164  -10.5881 O   0  0  0  0  0  0  0  0  0  0  0  0
   24.1303    0.8465   -9.4223 C   0  0  0  0  0  0  0  0  0  0  0  0
   23.5491    1.2133   -8.2285 C   0  0  0  0  0  0  0  0  0  0  0  0
   24.3058    1.2386   -7.0865 C   0  0  0  0  0  0  0  0  0  0  0  0
   25.6401    0.9037   -7.1074 C   0  0  0  0  0  0  0  0  0  0  0  0
   26.4946    0.9179   -5.9008 C   0  0  0  0  0  0  0  0  0  0  0  0
   27.4234    2.1258   -5.8980 C   0  0  2  0  0  0  0  0  0  0  0  0
   28.1860    2.0402   -4.6852 N   0  0  0  0  0  0  0  0  0  0  0  0
   26.6407    3.3798   -5.9126 C   0  0  0  0  0  0  0  0  0  0  0  0
   26.3622    3.8936   -4.8088 O   0  0  0  0  0  0  0  0  0  0  0  0
   26.2100    0.5361   -8.3200 C   0  0  0  0  0  0  0  0  0  0  0  0
   25.4601    0.5065   -9.4760 C   0  0  0  0  0  0  0  0  0  0  0  0
   26.2130    3.9936   -7.1028 N   0  0  0  0  0  0  0  0  0  0  0  0
   25.8318    5.3364   -7.3224 C   0  0  1  0  0  0  0  0  0  0  0  0
   26.7616    6.3600   -6.6616 C   0  0  0  0  0  0  0  0  0  0  0  0
   26.2529    7.7580   -6.8865 C   0  0  0  0  0  0  0  0  0  0  0  0
   27.0768    8.7181   -6.1076 C   0  0  0  0  0  0  0  0  0  0  0  0
   28.0845    8.3253   -5.4938 O   0  0  0  0  0  0  0  0  0  0  0  0
   25.4689    5.7317   -8.6672 C   0  0  0  0  0  0  0  0  0  0  0  0
   24.4163    6.5963   -8.9830 O   0  0  0  0  0  0  0  0  0  0  0  0
   26.7143   10.0503   -6.0711 O   0  0  0  0  0  0  0  0  0  0  0  0
   26.1256    5.2843   -9.6395 O   0  0  0  0  0  0  0  0  0  0  0  0
  2  1  1  6
  2  3  1  0
  3  4  1  0
  4  5  1  0
  5  9  1  0
  6  5  2  0
  7  8  2  0
  7  2  1  0
 10 11  1  0
 11 12  2  0
 12 13  1  0
 14 13  2  0
 14 15  1  0
 16 15  1  1
 16 17  1  0
 17  7  1  0
 18 22  1  0
 18 16  1  0
 19 18  2  0
 20 14  1  0
 21 11  1  0
 21 20  2  0
 23 22  1  0
 23 28  1  0
 23 24  1  6
 25 24  1  0
 26 25  1  0
 27 26  2  0
 28 29  1  0
 30 26  1  0
 31 28  2  0
M  END
$$$$
