EYE.pdb
     RDKit          3D

 31 31  0  0  1  0  0  0  0  0999 V2000
   24.5725  -12.5264  -19.7727 N   0  0  0  0  0  0  0  0  0  0  0  0
   23.9272  -11.2025  -19.7427 C   0  0  1  0  0  0  0  0  0  0  0  0
   22.7821  -11.3041  -20.7189 C   0  0  0  0  0  0  0  0  0  0  0  0
   23.2908  -11.2771  -22.1196 C   0  0  0  0  0  0  0  0  0  0  0  0
   23.7141   -9.8945  -22.4949 C   0  0  0  0  0  0  0  0  0  0  0  0
   22.8962   -8.9310  -22.5222 O   0  0  0  0  0  0  0  0  0  0  0  0
   23.5372  -10.8521  -18.3648 C   0  0  0  0  0  0  0  0  0  0  0  0
   23.1586  -11.7552  -17.5817 O   0  0  0  0  0  0  0  0  0  0  0  0
   25.0232   -9.6090  -22.8295 O   0  0  0  0  0  0  0  0  0  0  0  0
   29.2346  -11.3131  -15.9333 O   0  0  0  0  0  0  0  0  0  0  0  0
   28.0618  -10.5692  -15.9631 C   0  0  0  0  0  0  0  0  0  0  0  0
   27.1173  -10.7224  -14.9721 C   0  0  0  0  0  0  0  0  0  0  0  0
   25.9652   -9.9821  -15.0144 C   0  0  0  0  0  0  0  0  0  0  0  0
   25.7308   -9.0847  -16.0306 C   0  0  0  0  0  0  0  0  0  0  0  0
   24.5024   -8.2663  -16.1170 C   0  0  0  0  0  0  0  0  0  0  0  0
   23.3117   -9.1057  -16.5636 C   0  0  2  0  0  0  0  0  0  0  0  0
   23.5903   -9.5075  -17.9129 N   0  0  0  0  0  0  0  0  0  0  0  0
   22.0702   -8.3043  -16.5236 C   0  0  0  0  0  0  0  0  0  0  0  0
   21.9553   -7.3845  -17.3606 O   0  0  0  0  0  0  0  0  0  0  0  0
   26.6940   -8.9428  -17.0217 C   0  0  0  0  0  0  0  0  0  0  0  0
   27.8573   -9.6813  -16.9911 C   0  0  0  0  0  0  0  0  0  0  0  0
   21.0426   -8.5429  -15.5943 N   0  0  0  0  0  0  0  0  0  0  0  0
   19.8123   -7.8661  -15.4373 C   0  0  1  0  0  0  0  0  0  0  0  0
   18.6482   -8.7814  -15.0423 C   0  0  0  0  0  0  0  0  0  0  0  0
   17.3727   -7.9923  -14.9236 C   0  0  0  0  0  0  0  0  0  0  0  0
   16.2540   -8.9053  -14.5737 C   0  0  0  0  0  0  0  0  0  0  0  0
   16.4706  -10.1129  -14.3706 O   0  0  0  0  0  0  0  0  0  0  0  0
   19.8039   -6.6317  -14.6807 C   0  0  0  0  0  0  0  0  0  0  0  0
   19.1904   -5.4477  -15.1013 O   0  0  0  0  0  0  0  0  0  0  0  0
   14.9717   -8.4017  -14.4760 O   0  0  0  0  0  0  0  0  0  0  0  0
   20.3790   -6.5886  -13.5653 O   0  0  0  0  0  0  0  0  0  0  0  0
  2  1  1  1
  2  3  1  0
  3  4  1  0
  4  5  1  0
  5  9  1  0
  6  5  2  0
  7  8  2  0
  7  2  1  0
 10 11  1  0
 11 12  2  0
 12 13  1  0
 14 13  2  0
 14 15  1  0
 16 15  1  6
 16 17  1  0
 17  7  1  0
 18 22  1  0
 18 16  1  0
 19 18  2  0
 20 14  1  0
 21 11  1  0
 21 20  2  0
 23 22  1  0
 23 28  1  0
 23 24  1  1
 25 24  1  0
 26 25  1  0
 27 26  2  0
 28 29  1  0
 30 26  1  0
 31 28  2  0
M  END
$$$$
