QGI.pdb
     RDKit          3D

 22 21  0  0  1  0  0  0  0  0999 V2000
   12.3356  -11.4404  -16.1722 N   0  0  0  0  0  0  0  0  0  0  0  0
   12.1812  -11.9001  -17.5055 C   0  0  0  0  0  0  0  0  0  0  0  0
   11.0517  -11.9033  -18.0597 O   0  0  0  0  0  0  0  0  0  0  0  0
   13.3594  -12.3783  -18.2464 C   0  0  0  0  0  0  0  0  0  0  0  0
   14.6193  -12.1446  -17.4366 C   0  0  0  0  0  0  0  0  0  0  0  0
   15.8277  -12.6839  -18.1753 C   0  0  2  0  0  0  0  0  0  0  0  0
   16.3479  -13.8465  -17.5090 N   0  0  0  0  0  0  0  0  0  0  0  0
   16.8511  -11.5985  -18.2542 C   0  0  0  0  0  0  0  0  0  0  0  0
   17.0419  -11.0405  -19.3733 O   0  0  0  0  0  0  0  0  0  0  0  0
   17.5850  -11.2027  -17.1225 N   0  0  0  0  0  0  0  0  0  0  0  0
   18.5065  -10.0768  -17.2068 C   0  0  0  0  0  0  0  0  0  0  0  0
   19.1660   -9.8254  -15.9078 C   0  0  0  0  0  0  0  0  0  0  0  0
   18.6471  -10.2499  -14.8632 O   0  0  0  0  0  0  0  0  0  0  0  0
   23.7960  -11.5236  -15.1547 C   0  0  0  0  0  0  0  0  0  0  0  0
   22.3639  -11.0058  -15.0669 C   0  0  0  0  0  0  0  0  0  0  0  0
   22.4475   -9.5458  -14.7566 C   0  0  2  0  0  0  0  0  0  0  0  0
   23.3115   -9.3507  -13.5351 C   0  0  0  0  0  0  0  0  0  0  0  0
   21.1198   -8.8579  -14.6447 C   0  0  2  0  0  0  0  0  0  0  0  0
   20.3676   -9.1132  -15.8570 N   0  0  0  0  0  0  0  0  0  0  0  0
   21.1814   -7.4367  -14.3007 C   0  0  0  0  0  0  0  0  0  0  0  0
   21.2993   -7.0453  -13.1130 O   0  0  0  0  0  0  0  0  0  0  0  0
   21.1127   -6.4433  -15.2695 O   0  0  0  0  0  0  0  0  0  0  0  0
  1  2  1  0
  2  4  1  0
  2  3  2  0
  4  5  1  0
  5  6  1  0
  6  8  1  0
  6  7  1  1
  8  9  2  0
 10 11  1  0
 10  8  1  0
 11 12  1  0
 12 13  2  0
 12 19  1  0
 15 14  1  0
 15 16  1  0
 16 18  1  0
 16 17  1  1
 18 20  1  0
 18 19  1  6
 20 22  1  0
 21 20  2  0
M  END
$$$$
