QGI.pdb
     RDKit          3D

 22 21  0  0  1  0  0  0  0  0999 V2000
   22.7624  -18.7671  -14.3276 N   0  0  0  0  0  0  0  0  0  0  0  0
   22.2321  -19.4003  -15.4812 C   0  0  0  0  0  0  0  0  0  0  0  0
   21.0394  -19.7999  -15.5064 O   0  0  0  0  0  0  0  0  0  0  0  0
   23.0909  -19.5902  -16.6610 C   0  0  0  0  0  0  0  0  0  0  0  0
   24.4670  -19.0068  -16.4082 C   0  0  0  0  0  0  0  0  0  0  0  0
   25.4747  -20.1150  -16.1785 C   0  0  2  0  0  0  0  0  0  0  0  0
   24.8048  -21.3683  -15.9624 N   0  0  0  0  0  0  0  0  0  0  0  0
   26.3220  -19.7418  -15.0062 C   0  0  0  0  0  0  0  0  0  0  0  0
   27.0894  -18.7426  -15.1202 O   0  0  0  0  0  0  0  0  0  0  0  0
   26.2740  -20.4744  -13.8073 N   0  0  0  0  0  0  0  0  0  0  0  0
   27.1722  -20.1385  -12.7099 C   0  0  0  0  0  0  0  0  0  0  0  0
   26.8192  -20.8817  -11.4816 C   0  0  0  0  0  0  0  0  0  0  0  0
   26.5667  -22.0951  -11.5491 O   0  0  0  0  0  0  0  0  0  0  0  0
   28.4649  -19.0924   -6.6199 C   0  0  0  0  0  0  0  0  0  0  0  0
   28.0904  -20.0403   -7.7548 C   0  0  0  0  0  0  0  0  0  0  0  0
   26.6006  -20.0089   -7.8740 C   0  0  2  0  0  0  0  0  0  0  0  0
   25.9930  -20.5135   -6.5883 C   0  0  0  0  0  0  0  0  0  0  0  0
   26.0598  -20.7078   -9.0854 C   0  0  2  0  0  0  0  0  0  0  0  0
   26.7702  -20.2208  -10.2510 N   0  0  0  0  0  0  0  0  0  0  0  0
   24.6054  -20.6520   -9.2397 C   0  0  0  0  0  0  0  0  0  0  0  0
   24.0330  -19.6800   -9.7921 O   0  0  0  0  0  0  0  0  0  0  0  0
   23.7793  -21.6715   -8.7835 O   0  0  0  0  0  0  0  0  0  0  0  0
  1  2  1  0
  2  4  1  0
  2  3  2  0
  4  5  1  0
  5  6  1  0
  6  8  1  0
  6  7  1  1
  8  9  2  0
 10 11  1  0
 10  8  1  0
 11 12  1  0
 12 13  2  0
 12 19  1  0
 15 14  1  0
 15 16  1  0
 16 18  1  0
 16 17  1  1
 18 20  1  0
 18 19  1  6
 20 22  1  0
 21 20  2  0
M  END
$$$$
