QGI.pdb
     RDKit          3D

 22 21  0  0  1  0  0  0  0  0999 V2000
   21.1582  -21.1286  -13.6427 N   0  0  0  0  0  0  0  0  0  0  0  0
   21.1829  -21.3850  -15.0379 C   0  0  0  0  0  0  0  0  0  0  0  0
   20.3522  -22.1699  -15.5640 O   0  0  0  0  0  0  0  0  0  0  0  0
   22.1943  -20.7226  -15.8770 C   0  0  0  0  0  0  0  0  0  0  0  0
   23.0376  -19.7821  -15.0390 C   0  0  0  0  0  0  0  0  0  0  0  0
   24.4974  -20.1835  -15.1052 C   0  0  2  0  0  0  0  0  0  0  0  0
   24.6245  -21.6141  -15.1619 N   0  0  0  0  0  0  0  0  0  0  0  0
   25.1920  -19.6226  -13.9075 C   0  0  0  0  0  0  0  0  0  0  0  0
   24.9351  -18.4295  -13.5747 O   0  0  0  0  0  0  0  0  0  0  0  0
   26.1060  -20.3915  -13.1662 N   0  0  0  0  0  0  0  0  0  0  0  0
   26.7515  -19.8245  -11.9892 C   0  0  0  0  0  0  0  0  0  0  0  0
   26.5162  -20.6612  -10.7933 C   0  0  0  0  0  0  0  0  0  0  0  0
   26.2231  -21.8595  -10.9302 O   0  0  0  0  0  0  0  0  0  0  0  0
   28.3428  -18.8643   -5.6661 C   0  0  0  0  0  0  0  0  0  0  0  0
   27.3082  -19.0332   -6.7742 C   0  0  0  0  0  0  0  0  0  0  0  0
   27.4511  -20.4275   -7.2940 C   0  0  2  0  0  0  0  0  0  0  0  0
   28.8520  -20.6147   -7.8226 C   0  0  0  0  0  0  0  0  0  0  0  0
   26.3986  -20.8325   -8.2822 C   0  0  2  0  0  0  0  0  0  0  0  0
   26.6234  -20.1051   -9.5154 N   0  0  0  0  0  0  0  0  0  0  0  0
   25.0199  -20.7283   -7.8021 C   0  0  0  0  0  0  0  0  0  0  0  0
   24.5697  -21.4846   -6.9060 O   0  0  0  0  0  0  0  0  0  0  0  0
   24.1345  -19.7868   -8.3116 O   0  0  0  0  0  0  0  0  0  0  0  0
  1  2  1  0
  2  4  1  0
  2  3  2  0
  4  5  1  0
  5  6  1  0
  6  8  1  0
  6  7  1  1
  8  9  2  0
 10 11  1  0
 10  8  1  0
 11 12  1  0
 12 13  2  0
 12 19  1  0
 15 14  1  0
 15 16  1  0
 16 18  1  0
 16 17  1  6
 18 20  1  0
 18 19  1  6
 20 22  1  0
 21 20  2  0
M  END
$$$$
