QGI.pdb
     RDKit          3D

 22 21  0  0  1  0  0  0  0  0999 V2000
   24.7264  -20.6651   -8.9329 N   0  0  0  0  0  0  0  0  0  0  0  0
   26.1097  -20.4468   -9.1602 C   0  0  0  0  0  0  0  0  0  0  0  0
   26.9496  -20.6213   -8.2398 O   0  0  0  0  0  0  0  0  0  0  0  0
   26.5639  -20.0110  -10.4904 C   0  0  0  0  0  0  0  0  0  0  0  0
   25.3735  -19.7341  -11.3870 C   0  0  0  0  0  0  0  0  0  0  0  0
   24.9013  -21.0146  -12.0458 C   0  0  2  0  0  0  0  0  0  0  0  0
   25.9533  -21.5913  -12.8375 N   0  0  0  0  0  0  0  0  0  0  0  0
   23.7036  -20.6976  -12.8804 C   0  0  0  0  0  0  0  0  0  0  0  0
   22.5844  -20.5929  -12.3002 O   0  0  0  0  0  0  0  0  0  0  0  0
   23.8084  -20.5193  -14.2709 N   0  0  0  0  0  0  0  0  0  0  0  0
   22.6313  -20.1617  -15.0520 C   0  0  0  0  0  0  0  0  0  0  0  0
   22.9732  -19.2134  -16.1334 C   0  0  0  0  0  0  0  0  0  0  0  0
   24.1267  -18.7619  -16.2123 O   0  0  0  0  0  0  0  0  0  0  0  0
   21.2654  -20.9586  -20.0565 C   0  0  0  0  0  0  0  0  0  0  0  0
   22.3850  -19.9779  -19.7226 C   0  0  0  0  0  0  0  0  0  0  0  0
   21.7384  -18.6615  -19.4338 C   0  0  2  0  0  0  0  0  0  0  0  0
   21.8165  -17.7938  -20.6658 C   0  0  0  0  0  0  0  0  0  0  0  0
   22.2532  -17.9732  -18.2052 C   0  0  2  0  0  0  0  0  0  0  0  0
   22.0022  -18.8276  -17.0617 N   0  0  0  0  0  0  0  0  0  0  0  0
   21.7730  -16.6044  -18.0102 C   0  0  0  0  0  0  0  0  0  0  0  0
   20.6474  -16.3604  -17.5089 O   0  0  0  0  0  0  0  0  0  0  0  0
   22.5365  -15.5006  -18.3692 O   0  0  0  0  0  0  0  0  0  0  0  0
  1  2  1  0
  2  4  1  0
  2  3  2  0
  4  5  1  0
  5  6  1  0
  6  8  1  0
  6  7  1  6
  8  9  2  0
 10 11  1  0
 10  8  1  0
 11 12  1  0
 12 13  2  0
 12 19  1  0
 15 14  1  0
 15 16  1  0
 16 18  1  0
 16 17  1  6
 18 20  1  0
 18 19  1  1
 20 22  1  0
 21 20  2  0
M  END
$$$$
