QGI.pdb
     RDKit          3D

 22 21  0  0  1  0  0  0  0  0999 V2000
   20.2774  -19.1353  -15.5457 N   0  0  0  0  0  0  0  0  0  0  0  0
   20.9963  -20.2272  -16.0971 C   0  0  0  0  0  0  0  0  0  0  0  0
   21.3869  -20.2039  -17.2928 O   0  0  0  0  0  0  0  0  0  0  0  0
   21.2867  -21.3998  -15.2567 C   0  0  0  0  0  0  0  0  0  0  0  0
   22.3423  -21.0573  -14.2241 C   0  0  0  0  0  0  0  0  0  0  0  0
   23.6423  -20.6797  -14.9053 C   0  0  2  0  0  0  0  0  0  0  0  0
   24.1017  -21.7528  -15.7442 N   0  0  0  0  0  0  0  0  0  0  0  0
   24.6450  -20.3474  -13.8491 C   0  0  0  0  0  0  0  0  0  0  0  0
   24.3539  -19.4413  -13.0158 O   0  0  0  0  0  0  0  0  0  0  0  0
   25.8788  -21.0174  -13.7762 N   0  0  0  0  0  0  0  0  0  0  0  0
   26.8666  -20.6221  -12.7803 C   0  0  0  0  0  0  0  0  0  0  0  0
   26.5320  -21.1673  -11.4475 C   0  0  0  0  0  0  0  0  0  0  0  0
   26.2406  -22.3682  -11.3307 O   0  0  0  0  0  0  0  0  0  0  0  0
   27.9960  -19.3705   -5.8441 C   0  0  0  0  0  0  0  0  0  0  0  0
   27.1302  -20.3603   -6.6169 C   0  0  0  0  0  0  0  0  0  0  0  0
   27.1239  -19.9118   -8.0429 C   0  0  2  0  0  0  0  0  0  0  0  0
   26.7026  -18.4641   -8.1019 C   0  0  0  0  0  0  0  0  0  0  0  0
   26.3282  -20.7863   -8.9652 C   0  0  2  0  0  0  0  0  0  0  0  0
   26.5440  -20.3343  -10.3252 N   0  0  0  0  0  0  0  0  0  0  0  0
   24.9105  -20.9210   -8.6274 C   0  0  0  0  0  0  0  0  0  0  0  0
   24.5278  -21.5355   -7.6009 O   0  0  0  0  0  0  0  0  0  0  0  0
   23.9112  -20.3763   -9.4241 O   0  0  0  0  0  0  0  0  0  0  0  0
  1  2  1  0
  2  4  1  0
  2  3  2  0
  4  5  1  0
  5  6  1  0
  6  8  1  0
  6  7  1  1
  8  9  2  0
 10 11  1  0
 10  8  1  0
 11 12  1  0
 12 13  2  0
 12 19  1  0
 15 14  1  0
 15 16  1  0
 16 18  1  0
 16 17  1  1
 18 20  1  0
 18 19  1  6
 20 22  1  0
 21 20  2  0
M  END
$$$$
