QGI.pdb
     RDKit          3D

 22 21  0  0  1  0  0  0  0  0999 V2000
   23.6144  -19.2244  -16.9363 N   0  0  0  0  0  0  0  0  0  0  0  0
   22.3774  -19.3390  -16.2509 C   0  0  0  0  0  0  0  0  0  0  0  0
   21.2946  -19.4271  -16.8853 O   0  0  0  0  0  0  0  0  0  0  0  0
   22.3650  -19.3547  -14.7794 C   0  0  0  0  0  0  0  0  0  0  0  0
   23.7726  -19.1929  -14.2406 C   0  0  0  0  0  0  0  0  0  0  0  0
   24.4023  -20.5497  -13.9969 C   0  0  2  0  0  0  0  0  0  0  0  0
   23.5046  -21.3967  -13.2601 N   0  0  0  0  0  0  0  0  0  0  0  0
   25.6852  -20.3447  -13.2596 C   0  0  0  0  0  0  0  0  0  0  0  0
   26.5797  -19.6368  -13.8064 O   0  0  0  0  0  0  0  0  0  0  0  0
   25.9004  -20.9183  -11.9943 N   0  0  0  0  0  0  0  0  0  0  0  0
   27.1703  -20.7177  -11.3080 C   0  0  0  0  0  0  0  0  0  0  0  0
   27.1456  -21.3059   -9.9519 C   0  0  0  0  0  0  0  0  0  0  0  0
   26.9664  -22.5265   -9.8151 O   0  0  0  0  0  0  0  0  0  0  0  0
   29.0367  -19.8258   -4.3937 C   0  0  0  0  0  0  0  0  0  0  0  0
   27.9987  -20.6532   -5.1451 C   0  0  0  0  0  0  0  0  0  0  0  0
   27.9855  -20.1579   -6.5555 C   0  0  2  0  0  0  0  0  0  0  0  0
   27.7334  -18.6702   -6.5525 C   0  0  0  0  0  0  0  0  0  0  0  0
   27.0559  -20.9025   -7.4664 C   0  0  2  0  0  0  0  0  0  0  0  0
   27.3232  -20.4912   -8.8301 N   0  0  0  0  0  0  0  0  0  0  0  0
   25.6379  -20.8190   -7.1133 C   0  0  0  0  0  0  0  0  0  0  0  0
   25.1434  -21.5042   -6.1839 O   0  0  0  0  0  0  0  0  0  0  0  0
   24.7621  -19.9772   -7.7872 O   0  0  0  0  0  0  0  0  0  0  0  0
  1  2  1  0
  2  4  1  0
  2  3  2  0
  4  5  1  0
  5  6  1  0
  6  8  1  0
  6  7  1  1
  8  9  2  0
 10 11  1  0
 10  8  1  0
 11 12  1  0
 12 13  2  0
 12 19  1  0
 15 14  1  0
 15 16  1  0
 16 18  1  0
 16 17  1  1
 18 20  1  0
 18 19  1  6
 20 22  1  0
 21 20  2  0
M  END
$$$$
