QGI.pdb
     RDKit          3D

 22 21  0  0  1  0  0  0  0  0999 V2000
   24.8537  -18.9744  -14.7383 N   0  0  0  0  0  0  0  0  0  0  0  0
   23.4654  -19.2084  -14.5630 C   0  0  0  0  0  0  0  0  0  0  0  0
   22.8358  -19.9672  -15.3444 O   0  0  0  0  0  0  0  0  0  0  0  0
   22.7564  -18.5535  -13.4520 C   0  0  0  0  0  0  0  0  0  0  0  0
   23.0921  -19.2351  -12.1404 C   0  0  0  0  0  0  0  0  0  0  0  0
   23.5385  -20.6621  -12.3877 C   0  0  2  0  0  0  0  0  0  0  0  0
   22.4027  -21.5404  -12.4568 N   0  0  0  0  0  0  0  0  0  0  0  0
   24.4674  -21.0595  -11.2873 C   0  0  0  0  0  0  0  0  0  0  0  0
   24.0412  -21.8654  -10.4104 O   0  0  0  0  0  0  0  0  0  0  0  0
   25.7786  -20.5570  -11.2208 N   0  0  0  0  0  0  0  0  0  0  0  0
   26.7191  -21.0971  -10.2475 C   0  0  0  0  0  0  0  0  0  0  0  0
   26.5525  -20.4537   -8.9269 C   0  0  0  0  0  0  0  0  0  0  0  0
   25.5977  -19.6844   -8.7346 O   0  0  0  0  0  0  0  0  0  0  0  0
   29.7696  -20.8234   -3.6801 C   0  0  0  0  0  0  0  0  0  0  0  0
   28.5736  -20.1605   -4.3560 C   0  0  0  0  0  0  0  0  0  0  0  0
   28.5635  -20.6262   -5.7765 C   0  0  2  0  0  0  0  0  0  0  0  0
   29.9291  -20.4020   -6.3779 C   0  0  0  0  0  0  0  0  0  0  0  0
   27.4595  -20.0492   -6.6112 C   0  0  2  0  0  0  0  0  0  0  0  0
   27.4659  -20.7109   -7.9006 N   0  0  0  0  0  0  0  0  0  0  0  0
   27.4579  -18.5896   -6.7195 C   0  0  0  0  0  0  0  0  0  0  0  0
   28.0089  -17.9942   -7.6784 O   0  0  0  0  0  0  0  0  0  0  0  0
   26.8467  -17.7836   -5.7672 O   0  0  0  0  0  0  0  0  0  0  0  0
  1  2  1  0
  2  4  1  0
  2  3  2  0
  4  5  1  0
  5  6  1  0
  6  8  1  0
  6  7  1  1
  8  9  2  0
 10 11  1  0
 10  8  1  0
 11 12  1  0
 12 13  2  0
 12 19  1  0
 15 14  1  0
 15 16  1  0
 16 18  1  0
 16 17  1  6
 18 20  1  0
 18 19  1  6
 20 22  1  0
 21 20  2  0
M  END
$$$$
