QGI.pdb
     RDKit          3D

 22 21  0  0  1  0  0  0  0  0999 V2000
   28.4497  -19.1414  -14.9111 N   0  0  0  0  0  0  0  0  0  0  0  0
   27.4068  -20.0422  -15.2485 C   0  0  0  0  0  0  0  0  0  0  0  0
   26.4425  -19.6721  -15.9669 O   0  0  0  0  0  0  0  0  0  0  0  0
   27.4572  -21.4259  -14.7502 C   0  0  0  0  0  0  0  0  0  0  0  0
   27.0295  -21.4765  -13.2968 C   0  0  0  0  0  0  0  0  0  0  0  0
   25.6805  -20.8086  -13.1213 C   0  0  2  0  0  0  0  0  0  0  0  0
   25.6811  -19.5053  -13.7273 N   0  0  0  0  0  0  0  0  0  0  0  0
   25.3842  -20.7288  -11.6593 C   0  0  0  0  0  0  0  0  0  0  0  0
   25.1311  -21.8044  -11.0435 O   0  0  0  0  0  0  0  0  0  0  0  0
   25.3847  -19.4980  -10.9799 N   0  0  0  0  0  0  0  0  0  0  0  0
   25.1318  -19.4558   -9.5454 C   0  0  0  0  0  0  0  0  0  0  0  0
   26.2071  -20.1347   -8.7913 C   0  0  0  0  0  0  0  0  0  0  0  0
   26.9340  -20.9600   -9.3667 O   0  0  0  0  0  0  0  0  0  0  0  0
   30.0243  -18.8642   -4.4261 C   0  0  0  0  0  0  0  0  0  0  0  0
   29.2758  -20.0518   -5.0229 C   0  0  0  0  0  0  0  0  0  0  0  0
   28.2045  -19.4929   -5.9032 C   0  0  2  0  0  0  0  0  0  0  0  0
   27.3885  -18.4982   -5.1148 C   0  0  0  0  0  0  0  0  0  0  0  0
   27.3593  -20.5268   -6.5851 C   0  0  2  0  0  0  0  0  0  0  0  0
   26.4035  -19.8482   -7.4375 N   0  0  0  0  0  0  0  0  0  0  0  0
   26.7344  -21.5066   -5.6953 C   0  0  0  0  0  0  0  0  0  0  0  0
   25.4983  -21.5076   -5.4718 O   0  0  0  0  0  0  0  0  0  0  0  0
   27.4749  -22.4889   -5.0495 O   0  0  0  0  0  0  0  0  0  0  0  0
  1  2  1  0
  2  4  1  0
  2  3  2  0
  4  5  1  0
  5  6  1  0
  6  8  1  0
  6  7  1  1
  8  9  2  0
 10 11  1  0
 10  8  1  0
 11 12  1  0
 12 13  2  0
 12 19  1  0
 15 14  1  0
 15 16  1  0
 16 18  1  0
 16 17  1  1
 18 20  1  0
 18 19  1  1
 20 22  1  0
 21 20  2  0
M  END
$$$$
