QGI.pdb
     RDKit          3D

 22 21  0  0  1  0  0  0  0  0999 V2000
   18.6342  -13.5322  -18.1105 N   0  0  0  0  0  0  0  0  0  0  0  0
   18.9383  -12.4316  -17.2684 C   0  0  0  0  0  0  0  0  0  0  0  0
   20.0378  -12.3697  -16.6601 O   0  0  0  0  0  0  0  0  0  0  0  0
   17.9526  -11.3508  -17.1069 C   0  0  0  0  0  0  0  0  0  0  0  0
   18.3353  -10.4610  -15.9409 C   0  0  0  0  0  0  0  0  0  0  0  0
   17.4898  -10.7908  -14.7272 C   0  0  2  0  0  0  0  0  0  0  0  0
   16.0920  -10.6669  -15.0383 N   0  0  0  0  0  0  0  0  0  0  0  0
   17.8839   -9.8709  -13.6181 C   0  0  0  0  0  0  0  0  0  0  0  0
   19.0805   -9.9095  -13.2095 O   0  0  0  0  0  0  0  0  0  0  0  0
   16.9582   -8.9850  -13.0398 N   0  0  0  0  0  0  0  0  0  0  0  0
   17.3995   -8.0124  -12.0483 C   0  0  0  0  0  0  0  0  0  0  0  0
   16.2686   -7.1966  -11.5574 C   0  0  0  0  0  0  0  0  0  0  0  0
   15.4055   -6.7993  -12.3561 O   0  0  0  0  0  0  0  0  0  0  0  0
   12.4367   -7.4855   -7.2428 C   0  0  0  0  0  0  0  0  0  0  0  0
   13.1573   -6.3833   -8.0127 C   0  0  0  0  0  0  0  0  0  0  0  0
   14.3560   -7.0099   -8.6494 C   0  0  2  0  0  0  0  0  0  0  0  0
   15.2539   -7.5633   -7.5705 C   0  0  0  0  0  0  0  0  0  0  0  0
   15.0845   -6.1197   -9.6113 C   0  0  2  0  0  0  0  0  0  0  0  0
   16.1724   -6.8745  -10.2007 N   0  0  0  0  0  0  0  0  0  0  0  0
   15.5147   -4.8318   -9.0650 C   0  0  0  0  0  0  0  0  0  0  0  0
   16.6524   -4.6725   -8.5571 O   0  0  0  0  0  0  0  0  0  0  0  0
   14.6876   -3.7156   -9.0787 O   0  0  0  0  0  0  0  0  0  0  0  0
  1  2  1  0
  2  4  1  0
  2  3  2  0
  4  5  1  0
  5  6  1  0
  6  8  1  0
  6  7  1  6
  8  9  2  0
 10 11  1  0
 10  8  1  0
 11 12  1  0
 12 13  2  0
 12 19  1  0
 15 14  1  0
 15 16  1  0
 16 18  1  0
 16 17  1  1
 18 20  1  0
 18 19  1  1
 20 22  1  0
 21 20  2  0
M  END
$$$$
