QGI.pdb
     RDKit          3D

 22 21  0  0  1  0  0  0  0  0999 V2000
   24.1387  -20.7703  -17.0696 N   0  0  0  0  0  0  0  0  0  0  0  0
   23.1458  -19.7593  -16.9998 C   0  0  0  0  0  0  0  0  0  0  0  0
   22.1868  -19.7403  -17.8140 O   0  0  0  0  0  0  0  0  0  0  0  0
   23.2422  -18.7217  -15.9607 C   0  0  0  0  0  0  0  0  0  0  0  0
   24.4456  -18.9760  -15.0748 C   0  0  0  0  0  0  0  0  0  0  0  0
   24.2243  -20.2135  -14.2284 C   0  0  2  0  0  0  0  0  0  0  0  0
   23.2426  -19.9583  -13.2100 N   0  0  0  0  0  0  0  0  0  0  0  0
   25.5345  -20.6139  -13.6331 C   0  0  0  0  0  0  0  0  0  0  0  0
   26.2590  -21.4251  -14.2792 O   0  0  0  0  0  0  0  0  0  0  0  0
   25.9577  -20.1087  -12.3913 N   0  0  0  0  0  0  0  0  0  0  0  0
   27.2465  -20.5087  -11.8411 C   0  0  0  0  0  0  0  0  0  0  0  0
   27.0938  -21.1050  -10.4970 C   0  0  0  0  0  0  0  0  0  0  0  0
   27.1816  -22.3352  -10.3572 O   0  0  0  0  0  0  0  0  0  0  0  0
   28.8442  -19.5212   -5.0809 C   0  0  0  0  0  0  0  0  0  0  0  0
   27.8365  -20.4364   -5.7691 C   0  0  0  0  0  0  0  0  0  0  0  0
   27.7080  -19.9590   -7.1799 C   0  0  2  0  0  0  0  0  0  0  0  0
   27.3796  -18.4862   -7.1733 C   0  0  0  0  0  0  0  0  0  0  0  0
   26.7623  -20.7610   -8.0230 C   0  0  2  0  0  0  0  0  0  0  0  0
   26.8518  -20.2871   -9.3897 N   0  0  0  0  0  0  0  0  0  0  0  0
   25.3857  -20.8215   -7.5296 C   0  0  0  0  0  0  0  0  0  0  0  0
   24.4802  -20.0863   -7.9959 O   0  0  0  0  0  0  0  0  0  0  0  0
   25.0060  -21.6955   -6.5187 O   0  0  0  0  0  0  0  0  0  0  0  0
  1  2  1  0
  2  4  1  0
  2  3  2  0
  4  5  1  0
  5  6  1  0
  6  8  1  0
  6  7  1  1
  8  9  2  0
 10 11  1  0
 10  8  1  0
 11 12  1  0
 12 13  2  0
 12 19  1  0
 15 14  1  0
 15 16  1  0
 16 18  1  0
 16 17  1  1
 18 20  1  0
 18 19  1  6
 20 22  1  0
 21 20  2  0
M  END
$$$$
