QGI.pdb
     RDKit          3D

 22 21  0  0  1  0  0  0  0  0999 V2000
   22.0262  -21.8861  -11.4037 N   0  0  0  0  0  0  0  0  0  0  0  0
   21.4755  -22.0275  -12.7035 C   0  0  0  0  0  0  0  0  0  0  0  0
   20.2629  -22.3236  -12.8612 O   0  0  0  0  0  0  0  0  0  0  0  0
   22.3365  -21.8245  -13.8795 C   0  0  0  0  0  0  0  0  0  0  0  0
   23.7219  -21.3872  -13.4468 C   0  0  0  0  0  0  0  0  0  0  0  0
   23.8647  -19.8842  -13.5785 C   0  0  2  0  0  0  0  0  0  0  0  0
   24.0294  -19.5127  -14.9572 N   0  0  0  0  0  0  0  0  0  0  0  0
   25.0333  -19.4510  -12.7549 C   0  0  0  0  0  0  0  0  0  0  0  0
   25.6604  -18.4118  -13.1113 O   0  0  0  0  0  0  0  0  0  0  0  0
   25.4313  -20.1717  -11.6153 N   0  0  0  0  0  0  0  0  0  0  0  0
   25.8264  -19.4633  -10.4046 C   0  0  0  0  0  0  0  0  0  0  0  0
   26.1893  -20.4068   -9.3258 C   0  0  0  0  0  0  0  0  0  0  0  0
   25.9288  -21.6138   -9.4521 O   0  0  0  0  0  0  0  0  0  0  0  0
   29.5029  -18.3912   -5.3677 C   0  0  0  0  0  0  0  0  0  0  0  0
   28.9205  -19.2910   -6.4530 C   0  0  0  0  0  0  0  0  0  0  0  0
   27.6340  -19.8365   -5.9218 C   0  0  2  0  0  0  0  0  0  0  0  0
   27.9070  -20.5774   -4.6360 C   0  0  0  0  0  0  0  0  0  0  0  0
   26.8515  -20.6520   -6.9071 C   0  0  2  0  0  0  0  0  0  0  0  0
   26.8224  -19.9413   -8.1699 N   0  0  0  0  0  0  0  0  0  0  0  0
   25.5226  -21.0676   -6.4561 C   0  0  0  0  0  0  0  0  0  0  0  0
   24.5327  -20.2961   -6.5065 O   0  0  0  0  0  0  0  0  0  0  0  0
   25.2842  -22.3384   -5.9477 O   0  0  0  0  0  0  0  0  0  0  0  0
  1  2  1  0
  2  4  1  0
  2  3  2  0
  4  5  1  0
  5  6  1  0
  6  8  1  0
  6  7  1  6
  8  9  2  0
 10 11  1  0
 10  8  1  0
 11 12  1  0
 12 13  2  0
 12 19  1  0
 15 14  1  0
 15 16  1  0
 16 18  1  0
 16 17  1  1
 18 20  1  0
 18 19  1  6
 20 22  1  0
 21 20  2  0
M  END
$$$$
