QGI.pdb
     RDKit          3D

 22 21  0  0  1  0  0  0  0  0999 V2000
   26.7456  -22.3603  -16.1209 N   0  0  0  0  0  0  0  0  0  0  0  0
   25.4706  -22.9689  -15.9905 C   0  0  0  0  0  0  0  0  0  0  0  0
   25.0007  -23.6848  -16.9122 O   0  0  0  0  0  0  0  0  0  0  0  0
   24.6912  -22.7579  -14.7603 C   0  0  0  0  0  0  0  0  0  0  0  0
   25.4931  -21.9448  -13.7635 C   0  0  0  0  0  0  0  0  0  0  0  0
   24.5972  -21.4492  -12.6461 C   0  0  2  0  0  0  0  0  0  0  0  0
   23.4673  -20.7412  -13.1828 N   0  0  0  0  0  0  0  0  0  0  0  0
   25.4097  -20.5757  -11.7471 C   0  0  0  0  0  0  0  0  0  0  0  0
   25.6627  -19.3974  -12.1314 O   0  0  0  0  0  0  0  0  0  0  0  0
   25.8834  -21.0418  -10.5083 N   0  0  0  0  0  0  0  0  0  0  0  0
   26.7753  -20.2120   -9.7085 C   0  0  0  0  0  0  0  0  0  0  0  0
   27.0384  -20.8250   -8.3892 C   0  0  0  0  0  0  0  0  0  0  0  0
   27.0905  -22.0608   -8.2855 O   0  0  0  0  0  0  0  0  0  0  0  0
   29.8632  -17.9084   -4.7873 C   0  0  0  0  0  0  0  0  0  0  0  0
   29.3272  -19.0120   -5.6936 C   0  0  0  0  0  0  0  0  0  0  0  0
   28.0539  -19.4988   -5.0801 C   0  0  2  0  0  0  0  0  0  0  0  0
   28.3357  -19.9814   -3.6785 C   0  0  0  0  0  0  0  0  0  0  0  0
   27.3141  -20.5094   -5.9046 C   0  0  2  0  0  0  0  0  0  0  0  0
   27.2275  -20.0166   -7.2647 N   0  0  0  0  0  0  0  0  0  0  0  0
   26.0186  -20.9255   -5.3654 C   0  0  0  0  0  0  0  0  0  0  0  0
   25.9265  -21.7251   -4.4010 O   0  0  0  0  0  0  0  0  0  0  0  0
   24.8205  -20.4585   -5.8912 O   0  0  0  0  0  0  0  0  0  0  0  0
  1  2  1  0
  2  4  1  0
  2  3  2  0
  4  5  1  0
  5  6  1  0
  6  8  1  0
  6  7  1  6
  8  9  2  0
 10 11  1  0
 10  8  1  0
 11 12  1  0
 12 13  2  0
 12 19  1  0
 15 14  1  0
 15 16  1  0
 16 18  1  0
 16 17  1  1
 18 20  1  0
 18 19  1  6
 20 22  1  0
 21 20  2  0
M  END
$$$$
