QGI.pdb
     RDKit          3D

 22 21  0  0  1  0  0  0  0  0999 V2000
   18.7831  -16.0453  -19.9838 N   0  0  0  0  0  0  0  0  0  0  0  0
   17.4041  -16.3030  -20.1952 C   0  0  0  0  0  0  0  0  0  0  0  0
   16.9532  -17.4767  -20.1502 O   0  0  0  0  0  0  0  0  0  0  0  0
   16.4927  -15.1807  -20.4702 C   0  0  0  0  0  0  0  0  0  0  0  0
   17.2664  -13.8786  -20.5302 C   0  0  0  0  0  0  0  0  0  0  0  0
   17.4671  -13.3207  -19.1355 C   0  0  2  0  0  0  0  0  0  0  0  0
   16.2049  -12.9568  -18.5520 N   0  0  0  0  0  0  0  0  0  0  0  0
   18.3826  -12.1439  -19.2292 C   0  0  0  0  0  0  0  0  0  0  0  0
   18.9670  -11.9305  -20.3307 O   0  0  0  0  0  0  0  0  0  0  0  0
   18.5941  -11.2934  -18.1301 N   0  0  0  0  0  0  0  0  0  0  0  0
   19.3936  -10.0849  -18.2852 C   0  0  0  0  0  0  0  0  0  0  0  0
   19.4870   -9.3371  -17.0133 C   0  0  0  0  0  0  0  0  0  0  0  0
   18.4937   -9.2572  -16.2734 O   0  0  0  0  0  0  0  0  0  0  0  0
   23.4747  -11.0181  -14.4468 C   0  0  0  0  0  0  0  0  0  0  0  0
   22.1783  -10.4589  -15.0243 C   0  0  0  0  0  0  0  0  0  0  0  0
   22.2153   -8.9782  -14.8227 C   0  0  2  0  0  0  0  0  0  0  0  0
   22.5290   -8.6859  -13.3760 C   0  0  0  0  0  0  0  0  0  0  0  0
   20.9958   -8.2546  -15.3101 C   0  0  2  0  0  0  0  0  0  0  0  0
   20.6881   -8.7234  -16.6466 N   0  0  0  0  0  0  0  0  0  0  0  0
   21.0587   -6.7952  -15.2183 C   0  0  0  0  0  0  0  0  0  0  0  0
   21.6246   -6.0983  -16.0968 O   0  0  0  0  0  0  0  0  0  0  0  0
   20.4957   -6.1018  -14.1543 O   0  0  0  0  0  0  0  0  0  0  0  0
  1  2  1  0
  2  4  1  0
  2  3  2  0
  4  5  1  0
  5  6  1  0
  6  8  1  0
  6  7  1  6
  8  9  2  0
 10 11  1  0
 10  8  1  0
 11 12  1  0
 12 13  2  0
 12 19  1  0
 15 14  1  0
 15 16  1  0
 16 18  1  0
 16 17  1  1
 18 20  1  0
 18 19  1  6
 20 22  1  0
 21 20  2  0
M  END
$$$$
