KND.pdb
     RDKit          3D

 26 25  0  0  1  0  0  0  0  0999 V2000
   18.7911  -11.1997  -17.8273 N   0  0  0  0  0  0  0  0  0  0  0  0
   18.1014  -10.8766  -16.5985 C   0  0  1  0  0  0  0  0  0  0  0  0
   17.9267  -12.0839  -15.7102 C   0  0  0  0  0  0  0  0  0  0  0  0
   17.3892  -13.2623  -16.4716 C   0  0  0  0  0  0  0  0  0  0  0  0
   17.3530  -14.5137  -15.6298 C   0  0  0  0  0  0  0  0  0  0  0  0
   16.8994  -15.7252  -16.3756 C   0  0  0  0  0  0  0  0  0  0  0  0
   16.9106  -16.8661  -15.4876 N   0  0  0  0  0  0  0  0  0  0  0  0
   18.7674   -9.7700  -15.8630 C   0  0  0  0  0  0  0  0  0  0  0  0
   18.2337   -9.3380  -14.8243 O   0  0  0  0  0  0  0  0  0  0  0  0
   21.5117   -9.6273  -13.5821 N   0  0  0  0  0  0  0  0  0  0  0  0
   22.4809   -9.1051  -14.4961 C   0  0  0  0  0  0  0  0  0  0  0  0
   23.6936   -9.4412  -14.3196 O   0  0  0  0  0  0  0  0  0  0  0  0
   22.0941   -8.2129  -15.5998 C   0  0  0  0  0  0  0  0  0  0  0  0
   20.5961   -8.0289  -15.6141 C   0  0  2  0  0  0  0  0  0  0  0  0
   19.9778   -9.1868  -16.2895 N   0  0  0  0  0  0  0  0  0  0  0  0
   20.1356   -6.7776  -16.2415 C   0  0  0  0  0  0  0  0  0  0  0  0
   20.0463   -6.7591  -17.5149 O   0  0  0  0  0  0  0  0  0  0  0  0
   19.7748   -5.5891  -15.5926 N   0  0  0  0  0  0  0  0  0  0  0  0
   19.1279   -4.4730  -16.2530 C   0  0  1  0  0  0  0  0  0  0  0  0
   17.8036   -4.9215  -16.8856 C   0  0  0  0  0  0  0  0  0  0  0  0
   17.1055   -3.8344  -17.5674 C   0  0  0  0  0  0  0  0  0  0  0  0
   17.7252   -2.8007  -17.8944 O   0  0  0  0  0  0  0  0  0  0  0  0
   18.8684   -3.3234  -15.3610 C   0  0  0  0  0  0  0  0  0  0  0  0
   18.2629   -3.3941  -14.2644 O   0  0  0  0  0  0  0  0  0  0  0  0
   15.7611   -3.9205  -17.8637 O   0  0  0  0  0  0  0  0  0  0  0  0
   19.3063   -2.0466  -15.7157 O   0  0  0  0  0  0  0  0  0  0  0  0
  2  3  1  0
  2  1  1  6
  4  3  1  0
  5  4  1  0
  6  5  1  0
  7  6  1  0
  8  9  2  0
  8  2  1  0
 10 11  1  0
 11 12  2  0
 11 13  1  0
 14 13  1  6
 14 15  1  0
 15  8  1  0
 16 17  2  0
 16 14  1  0
 18 16  1  0
 19 20  1  1
 19 18  1  0
 21 20  1  0
 21 22  2  0
 23 19  1  0
 24 23  2  0
 25 21  1  0
 26 23  1  0
M  END
$$$$
