KND.pdb
     RDKit          3D

 26 25  0  0  1  0  0  0  0  0999 V2000
   18.5206  -11.7309  -15.6275 N   0  0  0  0  0  0  0  0  0  0  0  0
   19.7599  -12.4422  -15.8472 C   0  0  1  0  0  0  0  0  0  0  0  0
   19.6759  -13.3797  -17.0268 C   0  0  0  0  0  0  0  0  0  0  0  0
   18.2656  -13.8322  -17.2792 C   0  0  0  0  0  0  0  0  0  0  0  0
   17.5037  -12.8599  -18.1452 C   0  0  0  0  0  0  0  0  0  0  0  0
   16.1523  -13.3491  -18.5501 C   0  0  0  0  0  0  0  0  0  0  0  0
   15.4487  -12.2932  -19.2432 N   0  0  0  0  0  0  0  0  0  0  0  0
   20.9137  -11.5160  -15.9880 C   0  0  0  0  0  0  0  0  0  0  0  0
   22.0511  -11.9990  -16.1410 O   0  0  0  0  0  0  0  0  0  0  0  0
   23.8550   -8.3157  -19.3231 N   0  0  0  0  0  0  0  0  0  0  0  0
   23.5666   -8.6582  -17.9641 C   0  0  0  0  0  0  0  0  0  0  0  0
   24.3007   -8.1458  -17.0622 O   0  0  0  0  0  0  0  0  0  0  0  0
   22.4636   -9.5679  -17.6182 C   0  0  0  0  0  0  0  0  0  0  0  0
   21.8831   -9.1892  -16.2775 C   0  0  2  0  0  0  0  0  0  0  0  0
   20.7777  -10.1133  -15.9560 N   0  0  0  0  0  0  0  0  0  0  0  0
   21.4156   -7.7951  -16.1809 C   0  0  0  0  0  0  0  0  0  0  0  0
   20.4676   -7.4399  -16.9587 O   0  0  0  0  0  0  0  0  0  0  0  0
   21.8950   -6.8002  -15.3183 N   0  0  0  0  0  0  0  0  0  0  0  0
   21.4425   -5.4236  -15.3428 C   0  0  1  0  0  0  0  0  0  0  0  0
   20.6516   -5.0988  -14.0684 C   0  0  0  0  0  0  0  0  0  0  0  0
   20.1254   -3.7360  -14.0612 C   0  0  0  0  0  0  0  0  0  0  0  0
   19.1855   -3.4241  -14.8219 O   0  0  0  0  0  0  0  0  0  0  0  0
   22.5362   -4.4407  -15.4924 C   0  0  0  0  0  0  0  0  0  0  0  0
   23.7525   -4.6952  -15.3188 O   0  0  0  0  0  0  0  0  0  0  0  0
   20.6466   -2.7710  -13.2246 O   0  0  0  0  0  0  0  0  0  0  0  0
   22.2511   -3.1223  -15.8506 O   0  0  0  0  0  0  0  0  0  0  0  0
  2  3  1  0
  2  1  1  6
  4  3  1  0
  5  4  1  0
  6  5  1  0
  7  6  1  0
  8  9  2  0
  8  2  1  0
 10 11  1  0
 11 12  2  0
 11 13  1  0
 14 13  1  6
 14 15  1  0
 15  8  1  0
 16 17  2  0
 16 14  1  0
 18 16  1  0
 19 20  1  1
 19 18  1  0
 21 20  1  0
 21 22  2  0
 23 19  1  0
 24 23  2  0
 25 21  1  0
 26 23  1  0
M  END
$$$$
