KND.pdb
     RDKit          3D

 26 25  0  0  1  0  0  0  0  0999 V2000
   26.2816  -21.5376  -14.9316 N   0  0  0  0  0  0  0  0  0  0  0  0
   26.3613  -20.1369  -14.5830 C   0  0  1  0  0  0  0  0  0  0  0  0
   25.7962  -19.2488  -15.6642 C   0  0  0  0  0  0  0  0  0  0  0  0
   26.3403  -19.6053  -17.0186 C   0  0  0  0  0  0  0  0  0  0  0  0
   27.7987  -19.2451  -17.1575 C   0  0  0  0  0  0  0  0  0  0  0  0
   28.3534  -19.5050  -18.5192 C   0  0  0  0  0  0  0  0  0  0  0  0
   29.7776  -19.2558  -18.5115 N   0  0  0  0  0  0  0  0  0  0  0  0
   25.7167  -19.8534  -13.2742 C   0  0  0  0  0  0  0  0  0  0  0  0
   25.6414  -18.6714  -12.8899 O   0  0  0  0  0  0  0  0  0  0  0  0
   22.3960  -19.6256  -12.5757 N   0  0  0  0  0  0  0  0  0  0  0  0
   22.2028  -20.8341  -11.8343 C   0  0  0  0  0  0  0  0  0  0  0  0
   21.0549  -21.3765  -11.8867 O   0  0  0  0  0  0  0  0  0  0  0  0
   23.2880  -21.4305  -11.0403 C   0  0  0  0  0  0  0  0  0  0  0  0
   24.5339  -20.5861  -11.1524 C   0  0  2  0  0  0  0  0  0  0  0  0
   25.1859  -20.8642  -12.4473 N   0  0  0  0  0  0  0  0  0  0  0  0
   25.5007  -20.7667  -10.0551 C   0  0  0  0  0  0  0  0  0  0  0  0
   25.9014  -21.9552   -9.8171 O   0  0  0  0  0  0  0  0  0  0  0  0
   26.0428  -19.7696   -9.2329 N   0  0  0  0  0  0  0  0  0  0  0  0
   26.8364  -20.0409   -8.0510 C   0  0  1  0  0  0  0  0  0  0  0  0
   27.4668  -18.7454   -7.5223 C   0  0  0  0  0  0  0  0  0  0  0  0
   28.3544  -18.9716   -6.3843 C   0  0  0  0  0  0  0  0  0  0  0  0
   28.7229  -20.1301   -6.0988 O   0  0  0  0  0  0  0  0  0  0  0  0
   26.0762  -20.6849   -6.9592 C   0  0  0  0  0  0  0  0  0  0  0  0
   26.5559  -20.9927   -5.8414 O   0  0  0  0  0  0  0  0  0  0  0  0
   28.8024  -17.9248   -5.6057 O   0  0  0  0  0  0  0  0  0  0  0  0
   24.7262  -20.9942   -7.1311 O   0  0  0  0  0  0  0  0  0  0  0  0
  2  3  1  0
  2  1  1  6
  4  3  1  0
  5  4  1  0
  6  5  1  0
  7  6  1  0
  8  9  2  0
  8  2  1  0
 10 11  1  0
 11 12  2  0
 11 13  1  0
 14 13  1  1
 14 15  1  0
 15  8  1  0
 16 17  2  0
 16 14  1  0
 18 16  1  0
 19 20  1  1
 19 18  1  0
 21 20  1  0
 21 22  2  0
 23 19  1  0
 24 23  2  0
 25 21  1  0
 26 23  1  0
M  END
$$$$
