KND.pdb
     RDKit          3D

 26 25  0  0  1  0  0  0  0  0999 V2000
   16.7278  -12.2551  -11.7400 N   0  0  0  0  0  0  0  0  0  0  0  0
   16.0707  -11.4970  -12.7808 C   0  0  1  0  0  0  0  0  0  0  0  0
   14.8451  -12.2010  -13.3094 C   0  0  0  0  0  0  0  0  0  0  0  0
   14.9194  -13.6860  -13.0939 C   0  0  0  0  0  0  0  0  0  0  0  0
   13.6277  -14.3775  -13.4533 C   0  0  0  0  0  0  0  0  0  0  0  0
   13.6058  -15.8282  -13.1009 C   0  0  0  0  0  0  0  0  0  0  0  0
   12.3572  -16.4092  -13.5413 N   0  0  0  0  0  0  0  0  0  0  0  0
   15.7392  -10.1177  -12.3375 C   0  0  0  0  0  0  0  0  0  0  0  0
   15.1887   -9.3474  -13.1461 O   0  0  0  0  0  0  0  0  0  0  0  0
   15.0927   -5.8338   -9.4851 N   0  0  0  0  0  0  0  0  0  0  0  0
   15.3046   -6.9252   -8.5843 C   0  0  0  0  0  0  0  0  0  0  0  0
   15.1522   -6.6987   -7.3433 O   0  0  0  0  0  0  0  0  0  0  0  0
   15.6844   -8.2605   -9.0706 C   0  0  0  0  0  0  0  0  0  0  0  0
   15.6454   -8.2910  -10.5791 C   0  0  2  0  0  0  0  0  0  0  0  0
   16.0206   -9.6421  -11.0407 N   0  0  0  0  0  0  0  0  0  0  0  0
   16.4945   -7.2823  -11.2372 C   0  0  0  0  0  0  0  0  0  0  0  0
   17.7526   -7.3515  -11.0317 O   0  0  0  0  0  0  0  0  0  0  0  0
   16.0754   -6.2430  -12.0787 N   0  0  0  0  0  0  0  0  0  0  0  0
   16.9730   -5.2709  -12.6697 C   0  0  1  0  0  0  0  0  0  0  0  0
   17.1139   -5.5215  -14.1772 C   0  0  0  0  0  0  0  0  0  0  0  0
   17.9669   -4.5363  -14.8373 C   0  0  0  0  0  0  0  0  0  0  0  0
   18.4764   -3.6070  -14.1766 O   0  0  0  0  0  0  0  0  0  0  0  0
   16.5576   -3.8690  -12.4532 C   0  0  0  0  0  0  0  0  0  0  0  0
   15.4281   -3.5163  -12.0363 O   0  0  0  0  0  0  0  0  0  0  0  0
   18.2282   -4.6060  -16.1898 O   0  0  0  0  0  0  0  0  0  0  0  0
   17.4460   -2.8250  -12.7155 O   0  0  0  0  0  0  0  0  0  0  0  0
  2  3  1  0
  2  1  1  1
  4  3  1  0
  5  4  1  0
  6  5  1  0
  7  6  1  0
  8  9  2  0
  8  2  1  0
 10 11  1  0
 11 12  2  0
 11 13  1  0
 14 13  1  1
 14 15  1  0
 15  8  1  0
 16 17  2  0
 16 14  1  0
 18 16  1  0
 19 20  1  6
 19 18  1  0
 21 20  1  0
 21 22  2  0
 23 19  1  0
 24 23  2  0
 25 21  1  0
 26 23  1  0
M  END
$$$$
