KND.pdb
     RDKit          3D

 26 25  0  0  1  0  0  0  0  0999 V2000
   12.7165  -10.3825   -9.8341 N   0  0  0  0  0  0  0  0  0  0  0  0
   14.1298  -10.2644  -10.1144 C   0  0  1  0  0  0  0  0  0  0  0  0
   14.5251  -11.0077  -11.3668 C   0  0  0  0  0  0  0  0  0  0  0  0
   13.9798  -12.4077  -11.3789 C   0  0  0  0  0  0  0  0  0  0  0  0
   14.4470  -13.1887  -12.5821 C   0  0  0  0  0  0  0  0  0  0  0  0
   13.9404  -14.5928  -12.6193 C   0  0  0  0  0  0  0  0  0  0  0  0
   14.4099  -15.3023  -11.4503 N   0  0  0  0  0  0  0  0  0  0  0  0
   14.5653   -8.8450  -10.1814 C   0  0  0  0  0  0  0  0  0  0  0  0
   14.0186   -8.0917  -11.0085 O   0  0  0  0  0  0  0  0  0  0  0  0
   13.7209   -5.6888   -8.9376 N   0  0  0  0  0  0  0  0  0  0  0  0
   14.7458   -5.6303   -7.9407 C   0  0  0  0  0  0  0  0  0  0  0  0
   14.4786   -5.0156   -6.8611 O   0  0  0  0  0  0  0  0  0  0  0  0
   16.0601   -6.2561   -8.1520 C   0  0  0  0  0  0  0  0  0  0  0  0
   16.0958   -6.9407   -9.4965 C   0  0  2  0  0  0  0  0  0  0  0  0
   15.5711   -8.3127   -9.3494 N   0  0  0  0  0  0  0  0  0  0  0  0
   17.4241   -6.9774  -10.1335 C   0  0  0  0  0  0  0  0  0  0  0  0
   18.2766   -7.8033   -9.6634 O   0  0  0  0  0  0  0  0  0  0  0  0
   17.8654   -6.2024  -11.2145 N   0  0  0  0  0  0  0  0  0  0  0  0
   19.1125   -6.4313  -11.9162 C   0  0  1  0  0  0  0  0  0  0  0  0
   19.2139   -7.8967  -12.3608 C   0  0  0  0  0  0  0  0  0  0  0  0
   20.4042   -8.1629  -13.1648 C   0  0  0  0  0  0  0  0  0  0  0  0
   21.5297   -7.8145  -12.7508 O   0  0  0  0  0  0  0  0  0  0  0  0
   19.3011   -5.5585  -13.0940 C   0  0  0  0  0  0  0  0  0  0  0  0
   18.3703   -5.0063  -13.7288 O   0  0  0  0  0  0  0  0  0  0  0  0
   20.3166   -8.7977  -14.3862 O   0  0  0  0  0  0  0  0  0  0  0  0
   20.5847   -5.2971  -13.5758 O   0  0  0  0  0  0  0  0  0  0  0  0
  2  3  1  0
  2  1  1  6
  4  3  1  0
  5  4  1  0
  6  5  1  0
  7  6  1  0
  8  9  2  0
  8  2  1  0
 10 11  1  0
 11 12  2  0
 11 13  1  0
 14 13  1  1
 14 15  1  0
 15  8  1  0
 16 17  2  0
 16 14  1  0
 18 16  1  0
 19 20  1  6
 19 18  1  0
 21 20  1  0
 21 22  2  0
 23 19  1  0
 24 23  2  0
 25 21  1  0
 26 23  1  0
M  END
$$$$
