KND.pdb
     RDKit          3D

 26 25  0  0  1  0  0  0  0  0999 V2000
   26.4069  -20.3916  -15.5134 N   0  0  0  0  0  0  0  0  0  0  0  0
   25.8011  -21.7036  -15.4745 C   0  0  1  0  0  0  0  0  0  0  0  0
   26.8102  -22.8026  -15.7003 C   0  0  0  0  0  0  0  0  0  0  0  0
   27.8028  -22.4367  -16.7672 C   0  0  0  0  0  0  0  0  0  0  0  0
   28.8333  -23.5179  -16.9791 C   0  0  0  0  0  0  0  0  0  0  0  0
   29.9439  -23.1170  -17.8930 C   0  0  0  0  0  0  0  0  0  0  0  0
   30.8918  -24.2035  -17.9999 N   0  0  0  0  0  0  0  0  0  0  0  0
   25.0459  -21.9288  -14.2144 C   0  0  0  0  0  0  0  0  0  0  0  0
   24.5333  -23.0464  -14.0178 O   0  0  0  0  0  0  0  0  0  0  0  0
   26.1845  -22.3132  -10.8044 N   0  0  0  0  0  0  0  0  0  0  0  0
   25.8065  -21.0111  -10.3470 C   0  0  0  0  0  0  0  0  0  0  0  0
   26.5255  -20.4747   -9.4470 O   0  0  0  0  0  0  0  0  0  0  0  0
   24.6317  -20.3153  -10.8942 C   0  0  0  0  0  0  0  0  0  0  0  0
   24.0422  -21.1136  -12.0313 C   0  0  2  0  0  0  0  0  0  0  0  0
   24.8839  -20.9324  -13.2305 N   0  0  0  0  0  0  0  0  0  0  0  0
   22.6402  -20.7895  -12.3490 C   0  0  0  0  0  0  0  0  0  0  0  0
   21.7710  -20.9912  -11.4360 O   0  0  0  0  0  0  0  0  0  0  0  0
   22.1435  -20.2737  -13.5536 N   0  0  0  0  0  0  0  0  0  0  0  0
   20.7375  -20.0334  -13.8102 C   0  0  1  0  0  0  0  0  0  0  0  0
   20.5558  -18.7436  -14.6217 C   0  0  0  0  0  0  0  0  0  0  0  0
   19.1632  -18.4973  -14.9882 C   0  0  0  0  0  0  0  0  0  0  0  0
   18.2822  -18.4519  -14.1043 O   0  0  0  0  0  0  0  0  0  0  0  0
   20.0637  -21.1434  -14.5163 C   0  0  0  0  0  0  0  0  0  0  0  0
   20.6016  -21.8619  -15.3929 O   0  0  0  0  0  0  0  0  0  0  0  0
   18.7904  -18.3110  -16.3031 O   0  0  0  0  0  0  0  0  0  0  0  0
   18.7352  -21.4568  -14.2253 O   0  0  0  0  0  0  0  0  0  0  0  0
  2  3  1  0
  2  1  1  1
  4  3  1  0
  5  4  1  0
  6  5  1  0
  7  6  1  0
  8  9  2  0
  8  2  1  0
 10 11  1  0
 11 12  2  0
 11 13  1  0
 14 13  1  1
 14 15  1  0
 15  8  1  0
 16 17  2  0
 16 14  1  0
 18 16  1  0
 19 20  1  6
 19 18  1  0
 21 20  1  0
 21 22  2  0
 23 19  1  0
 24 23  2  0
 25 21  1  0
 26 23  1  0
M  END
$$$$
