EPP.pdb
     RDKit          3D

 24 25  0  0  1  0  0  0  0  0999 V2000
   10.8786  -15.6919   19.8448 N   0  0  0  0  0  0  0  0  0  0  0  0
   10.4314  -16.2959   21.0564 C   0  0  1  0  0  0  0  0  0  0  0  0
   11.5973  -16.9325   21.7730 C   0  0  0  0  0  0  0  0  0  0  0  0
   11.2639  -17.6748   23.0235 C   0  0  0  0  0  0  0  0  0  0  0  0
   12.3390  -18.3425   23.7386 C   0  0  0  0  0  0  0  0  0  0  0  0
   12.1950  -19.0162   24.7545 O   0  0  0  0  0  0  0  0  0  0  0  0
    9.7799  -15.2759   21.9457 C   0  0  0  0  0  0  0  0  0  0  0  0
   10.5664  -14.5982   22.6260 O   0  0  0  0  0  0  0  0  0  0  0  0
   13.6579  -18.2246   23.2510 O   0  0  0  0  0  0  0  0  0  0  0  0
    8.4055  -15.1386   21.9713 N   0  0  0  0  0  0  0  0  0  0  0  0
    7.5658  -15.2503   20.7540 C   0  0  0  0  0  0  0  0  0  0  0  0
    6.4319  -16.1069   21.2507 C   0  0  0  0  0  0  0  0  0  0  0  0
    6.4683  -16.0050   22.7544 C   0  0  0  0  0  0  0  0  0  0  0  0
    7.4057  -14.7954   22.9625 C   0  0  1  0  0  0  0  0  0  0  0  0
    7.8752  -14.7857   24.3526 C   0  0  0  0  0  0  0  0  0  0  0  0
    8.3315  -15.9311   24.7481 O   0  0  0  0  0  0  0  0  0  0  0  0
    7.9064  -13.7552   25.2844 N   0  0  0  0  0  0  0  0  0  0  0  0
    7.9183  -12.3213   24.8043 C   0  0  0  0  0  0  0  0  0  0  0  0
    6.7411  -11.7773   25.6273 C   0  0  0  0  0  0  0  0  0  0  0  0
    6.5494  -12.7783   26.7790 C   0  0  0  0  0  0  0  0  0  0  0  0
    7.8907  -13.5070   26.6774 C   0  0  1  0  0  0  0  0  0  0  0  0
    8.1358  -14.5088   27.6617 C   0  0  0  0  0  0  0  0  0  0  0  0
    7.5239  -15.7877   27.6285 O   0  0  0  0  0  0  0  0  0  0  0  0
    8.9009  -14.3423   28.6215 O   0  0  0  0  0  0  0  0  0  0  0  0
  2  1  1  6
  3  2  1  0
  3  4  1  0
  4  5  1  0
  5  9  1  0
  5  6  2  0
  7  2  1  0
  8  7  2  0
 10  7  1  0
 10 14  1  0
 11 12  1  0
 11 10  1  0
 12 13  1  0
 13 14  1  0
 14 15  1  1
 15 16  2  0
 17 15  1  0
 17 21  1  0
 18 19  1  0
 18 17  1  0
 19 20  1  0
 20 21  1  0
 21 22  1  1
 22 24  2  0
 22 23  1  0
M  END
$$$$
