EPP.pdb
     RDKit          3D

 24 25  0  0  1  0  0  0  0  0999 V2000
   11.4855  -16.4010   20.6611 N   0  0  0  0  0  0  0  0  0  0  0  0
   10.1877  -16.6299   21.2051 C   0  0  1  0  0  0  0  0  0  0  0  0
   10.1889  -17.9025   22.0166 C   0  0  0  0  0  0  0  0  0  0  0  0
   11.4086  -18.1460   22.8406 C   0  0  0  0  0  0  0  0  0  0  0  0
   11.3919  -19.2445   23.7924 C   0  0  0  0  0  0  0  0  0  0  0  0
   10.4415  -19.9986   23.9788 O   0  0  0  0  0  0  0  0  0  0  0  0
    9.7651  -15.4745   22.0667 C   0  0  0  0  0  0  0  0  0  0  0  0
   10.5993  -15.1248   22.9167 O   0  0  0  0  0  0  0  0  0  0  0  0
   12.5411  -19.4855   24.5751 O   0  0  0  0  0  0  0  0  0  0  0  0
    8.5316  -14.8781   21.8901 N   0  0  0  0  0  0  0  0  0  0  0  0
    7.9497  -14.6211   20.5505 C   0  0  0  0  0  0  0  0  0  0  0  0
    6.5264  -15.0680   20.7521 C   0  0  0  0  0  0  0  0  0  0  0  0
    6.3063  -15.0775   22.2436 C   0  0  0  0  0  0  0  0  0  0  0  0
    7.5276  -14.2760   22.7442 C   0  0  1  0  0  0  0  0  0  0  0  0
    7.7006  -14.5128   24.1819 C   0  0  0  0  0  0  0  0  0  0  0  0
    7.6842  -15.7676   24.5008 O   0  0  0  0  0  0  0  0  0  0  0  0
    7.8789  -13.6140   25.2267 N   0  0  0  0  0  0  0  0  0  0  0  0
    8.1163  -12.1532   24.9159 C   0  0  0  0  0  0  0  0  0  0  0  0
    7.0272  -11.5335   25.8041 C   0  0  0  0  0  0  0  0  0  0  0  0
    6.6709  -12.6193   26.8333 C   0  0  0  0  0  0  0  0  0  0  0  0
    7.8855  -13.5289   26.6391 C   0  0  1  0  0  0  0  0  0  0  0  0
    7.9626  -14.6635   27.4991 C   0  0  0  0  0  0  0  0  0  0  0  0
    7.5851  -15.9677   27.0897 O   0  0  0  0  0  0  0  0  0  0  0  0
    8.3647  -14.6004   28.6690 O   0  0  0  0  0  0  0  0  0  0  0  0
  2  1  1  1
  3  2  1  0
  3  4  1  0
  4  5  1  0
  5  9  1  0
  5  6  2  0
  7  2  1  0
  8  7  2  0
 10  7  1  0
 10 14  1  0
 11 12  1  0
 11 10  1  0
 12 13  1  0
 13 14  1  0
 14 15  1  1
 15 16  2  0
 17 15  1  0
 17 21  1  0
 18 19  1  0
 18 17  1  0
 19 20  1  0
 20 21  1  0
 21 22  1  1
 22 24  2  0
 22 23  1  0
M  END
$$$$
