EPP.pdb
     RDKit          3D

 24 25  0  0  1  0  0  0  0  0999 V2000
   11.2949  -15.7963   20.2762 N   0  0  0  0  0  0  0  0  0  0  0  0
   10.6124  -16.3702   21.3887 C   0  0  1  0  0  0  0  0  0  0  0  0
   11.5830  -17.1567   22.2357 C   0  0  0  0  0  0  0  0  0  0  0  0
   10.9988  -17.8437   23.4242 C   0  0  0  0  0  0  0  0  0  0  0  0
   11.8778  -18.6417   24.2629 C   0  0  0  0  0  0  0  0  0  0  0  0
   11.6800  -18.8946   25.4476 O   0  0  0  0  0  0  0  0  0  0  0  0
    9.9609  -15.3004   22.2175 C   0  0  0  0  0  0  0  0  0  0  0  0
   10.7038  -14.7641   23.0550 O   0  0  0  0  0  0  0  0  0  0  0  0
   13.0548  -19.1788   23.6993 O   0  0  0  0  0  0  0  0  0  0  0  0
    8.6327  -14.9723   22.0267 N   0  0  0  0  0  0  0  0  0  0  0  0
    8.0081  -14.9063   20.6833 C   0  0  0  0  0  0  0  0  0  0  0  0
    6.7034  -15.6175   20.9250 C   0  0  0  0  0  0  0  0  0  0  0  0
    6.4931  -15.5936   22.4177 C   0  0  0  0  0  0  0  0  0  0  0  0
    7.5305  -14.5395   22.8621 C   0  0  1  0  0  0  0  0  0  0  0  0
    7.7505  -14.6624   24.3076 C   0  0  0  0  0  0  0  0  0  0  0  0
    7.8734  -15.8885   24.7054 O   0  0  0  0  0  0  0  0  0  0  0  0
    7.8485  -13.6836   25.2892 N   0  0  0  0  0  0  0  0  0  0  0  0
    7.9830  -12.2340   24.8801 C   0  0  0  0  0  0  0  0  0  0  0  0
    6.8395  -11.6368   25.7136 C   0  0  0  0  0  0  0  0  0  0  0  0
    6.5491  -12.6730   26.8123 C   0  0  0  0  0  0  0  0  0  0  0  0
    7.8293  -13.5019   26.6923 C   0  0  1  0  0  0  0  0  0  0  0  0
    7.9769  -14.5661   27.6294 C   0  0  0  0  0  0  0  0  0  0  0  0
    7.2431  -15.7766   27.5426 O   0  0  0  0  0  0  0  0  0  0  0  0
    8.7560  -14.5184   28.5912 O   0  0  0  0  0  0  0  0  0  0  0  0
  2  1  1  6
  3  2  1  0
  3  4  1  0
  4  5  1  0
  5  9  1  0
  5  6  2  0
  7  2  1  0
  8  7  2  0
 10  7  1  0
 10 14  1  0
 11 12  1  0
 11 10  1  0
 12 13  1  0
 13 14  1  0
 14 15  1  1
 15 16  2  0
 17 15  1  0
 17 21  1  0
 18 19  1  0
 18 17  1  0
 19 20  1  0
 20 21  1  0
 21 22  1  1
 22 24  2  0
 22 23  1  0
M  END
$$$$
