EPP.pdb
     RDKit          3D

 24 25  0  0  1  0  0  0  0  0999 V2000
   11.3573  -15.9378   20.4297 N   0  0  0  0  0  0  0  0  0  0  0  0
   10.6486  -16.4980   21.5327 C   0  0  1  0  0  0  0  0  0  0  0  0
   11.5911  -17.3058   22.3912 C   0  0  0  0  0  0  0  0  0  0  0  0
   10.9722  -18.0036   23.5556 C   0  0  0  0  0  0  0  0  0  0  0  0
   11.8322  -18.7808   24.4327 C   0  0  0  0  0  0  0  0  0  0  0  0
   11.9369  -18.6123   25.6440 O   0  0  0  0  0  0  0  0  0  0  0  0
   10.0093  -15.4153   22.3543 C   0  0  0  0  0  0  0  0  0  0  0  0
   10.7571  -14.8849   23.1911 O   0  0  0  0  0  0  0  0  0  0  0  0
   12.6176  -19.8133   23.8772 O   0  0  0  0  0  0  0  0  0  0  0  0
    8.6861  -15.0704   22.1582 N   0  0  0  0  0  0  0  0  0  0  0  0
    8.0666  -15.0007   20.8126 C   0  0  0  0  0  0  0  0  0  0  0  0
    6.7519  -15.6937   21.0526 C   0  0  0  0  0  0  0  0  0  0  0  0
    6.5373  -15.6621   22.5445 C   0  0  0  0  0  0  0  0  0  0  0  0
    7.5872  -14.6203   22.9887 C   0  0  1  0  0  0  0  0  0  0  0  0
    7.8011  -14.7412   24.4353 C   0  0  0  0  0  0  0  0  0  0  0  0
    7.9523  -15.9647   24.8310 O   0  0  0  0  0  0  0  0  0  0  0  0
    7.8682  -13.7626   25.4197 N   0  0  0  0  0  0  0  0  0  0  0  0
    8.1375  -12.3285   25.0227 C   0  0  0  0  0  0  0  0  0  0  0  0
    6.9608  -11.6504   25.7399 C   0  0  0  0  0  0  0  0  0  0  0  0
    6.4972  -12.6559   26.8073 C   0  0  0  0  0  0  0  0  0  0  0  0
    7.7253  -13.5682   26.8139 C   0  0  1  0  0  0  0  0  0  0  0  0
    7.7106  -14.6319   27.7631 C   0  0  0  0  0  0  0  0  0  0  0  0
    6.9085  -15.7912   27.6089 O   0  0  0  0  0  0  0  0  0  0  0  0
    8.3957  -14.6282   28.7951 O   0  0  0  0  0  0  0  0  0  0  0  0
  2  1  1  6
  3  2  1  0
  3  4  1  0
  4  5  1  0
  5  9  1  0
  5  6  2  0
  7  2  1  0
  8  7  2  0
 10  7  1  0
 10 14  1  0
 11 12  1  0
 11 10  1  0
 12 13  1  0
 13 14  1  0
 14 15  1  1
 15 16  2  0
 17 15  1  0
 17 21  1  0
 18 19  1  0
 18 17  1  0
 19 20  1  0
 20 21  1  0
 21 22  1  1
 22 24  2  0
 22 23  1  0
M  END
$$$$
