EPP.pdb
     RDKit          3D

 24 25  0  0  1  0  0  0  0  0999 V2000
   11.2673  -15.9270   20.1896 N   0  0  0  0  0  0  0  0  0  0  0  0
   10.3808  -16.4951   21.1508 C   0  0  1  0  0  0  0  0  0  0  0  0
   11.0959  -17.5658   21.9383 C   0  0  0  0  0  0  0  0  0  0  0  0
   10.2788  -18.2675   22.9707 C   0  0  0  0  0  0  0  0  0  0  0  0
   10.4535  -19.7013   23.1336 C   0  0  0  0  0  0  0  0  0  0  0  0
   11.3772  -20.2320   23.7433 O   0  0  0  0  0  0  0  0  0  0  0  0
    9.8621  -15.4364   22.0813 C   0  0  0  0  0  0  0  0  0  0  0  0
   10.6652  -15.0692   22.9536 O   0  0  0  0  0  0  0  0  0  0  0  0
    9.5051  -20.5732   22.5576 O   0  0  0  0  0  0  0  0  0  0  0  0
    8.5811  -14.9392   21.9388 N   0  0  0  0  0  0  0  0  0  0  0  0
    7.9506  -14.7154   20.6153 C   0  0  0  0  0  0  0  0  0  0  0  0
    6.5725  -15.2774   20.8419 C   0  0  0  0  0  0  0  0  0  0  0  0
    6.3874  -15.3206   22.3375 C   0  0  0  0  0  0  0  0  0  0  0  0
    7.5516  -14.4290   22.8218 C   0  0  1  0  0  0  0  0  0  0  0  0
    7.7752  -14.6666   24.2524 C   0  0  0  0  0  0  0  0  0  0  0  0
    7.8634  -15.9222   24.5562 O   0  0  0  0  0  0  0  0  0  0  0  0
    7.9072  -13.7677   25.3039 N   0  0  0  0  0  0  0  0  0  0  0  0
    8.1762  -12.3101   25.0040 C   0  0  0  0  0  0  0  0  0  0  0  0
    7.0480  -11.6772   25.8320 C   0  0  0  0  0  0  0  0  0  0  0  0
    6.6260  -12.7571   26.8423 C   0  0  0  0  0  0  0  0  0  0  0  0
    7.8395  -13.6798   26.7145 C   0  0  1  0  0  0  0  0  0  0  0  0
    7.8587  -14.8134   27.5790 C   0  0  0  0  0  0  0  0  0  0  0  0
    6.9852  -15.9191   27.4192 O   0  0  0  0  0  0  0  0  0  0  0  0
    8.6379  -14.9224   28.5356 O   0  0  0  0  0  0  0  0  0  0  0  0
  2  1  1  6
  3  2  1  0
  3  4  1  0
  4  5  1  0
  5  9  1  0
  5  6  2  0
  7  2  1  0
  8  7  2  0
 10  7  1  0
 10 14  1  0
 11 12  1  0
 11 10  1  0
 12 13  1  0
 13 14  1  0
 14 15  1  1
 15 16  2  0
 17 15  1  0
 17 21  1  0
 18 19  1  0
 18 17  1  0
 19 20  1  0
 20 21  1  0
 21 22  1  1
 22 24  2  0
 22 23  1  0
M  END
$$$$
