EPP.pdb
     RDKit          3D

 24 25  0  0  1  0  0  0  0  0999 V2000
    9.9966  -15.2450   20.4143 N   0  0  0  0  0  0  0  0  0  0  0  0
    9.4272  -16.0419   21.4504 C   0  0  1  0  0  0  0  0  0  0  0  0
   10.0349  -17.4232   21.4277 C   0  0  0  0  0  0  0  0  0  0  0  0
    9.5577  -18.3600   22.4863 C   0  0  0  0  0  0  0  0  0  0  0  0
   10.1125  -19.7031   22.5223 C   0  0  0  0  0  0  0  0  0  0  0  0
    9.9184  -20.5198   23.4177 O   0  0  0  0  0  0  0  0  0  0  0  0
    9.6546  -15.4052   22.7915 C   0  0  0  0  0  0  0  0  0  0  0  0
   10.8158  -15.4936   23.2211 O   0  0  0  0  0  0  0  0  0  0  0  0
   10.9404  -20.1270   21.4611 O   0  0  0  0  0  0  0  0  0  0  0  0
    8.6195  -14.7799   23.4593 N   0  0  0  0  0  0  0  0  0  0  0  0
    7.5540  -14.0235   22.7580 C   0  0  0  0  0  0  0  0  0  0  0  0
    6.3224  -14.5057   23.4770 C   0  0  0  0  0  0  0  0  0  0  0  0
    6.8089  -15.0878   24.7798 C   0  0  0  0  0  0  0  0  0  0  0  0
    8.2543  -14.5478   24.8424 C   0  0  1  0  0  0  0  0  0  0  0  0
    9.0132  -15.3212   25.8317 C   0  0  0  0  0  0  0  0  0  0  0  0
    8.9046  -16.6019   25.6748 O   0  0  0  0  0  0  0  0  0  0  0  0
    9.8148  -14.8954   26.8840 N   0  0  0  0  0  0  0  0  0  0  0  0
   10.4256  -13.5128   26.8386 C   0  0  0  0  0  0  0  0  0  0  0  0
    9.9624  -12.9950   28.2083 C   0  0  0  0  0  0  0  0  0  0  0  0
    9.6062  -14.2506   29.0219 C   0  0  0  0  0  0  0  0  0  0  0  0
   10.3037  -15.2962   28.1499 C   0  0  1  0  0  0  0  0  0  0  0  0
   10.2589  -16.6395   28.6255 C   0  0  0  0  0  0  0  0  0  0  0  0
    9.0915  -17.4419   28.5591 O   0  0  0  0  0  0  0  0  0  0  0  0
   11.2336  -17.2112   29.1329 O   0  0  0  0  0  0  0  0  0  0  0  0
  2  1  1  6
  3  2  1  0
  3  4  1  0
  4  5  1  0
  5  9  1  0
  5  6  2  0
  7  2  1  0
  8  7  2  0
 10  7  1  0
 10 14  1  0
 11 12  1  0
 11 10  1  0
 12 13  1  0
 13 14  1  0
 14 15  1  1
 15 16  2  0
 17 15  1  0
 17 21  1  0
 18 19  1  0
 18 17  1  0
 19 20  1  0
 20 21  1  0
 21 22  1  1
 22 24  2  0
 22 23  1  0
M  END
$$$$
