NQQ.pdb
     RDKit          3D

 27 26  0  0  1  0  0  0  0  0999 V2000
   28.1056  -21.7742  -13.1071 N   0  0  0  0  0  0  0  0  0  0  0  0
   27.7718  -20.4006  -13.1120 C   0  0  0  0  0  0  0  0  0  0  0  0
   28.5628  -19.5375  -12.6547 O   0  0  0  0  0  0  0  0  0  0  0  0
   26.4766  -19.9755  -13.6625 C   0  0  0  0  0  0  0  0  0  0  0  0
   25.6535  -21.1674  -14.1518 C   0  0  2  0  0  0  0  0  0  0  0  0
   26.4589  -21.8264  -15.1535 N   0  0  0  0  0  0  0  0  0  0  0  0
   24.4617  -20.5732  -14.8346 C   0  0  0  0  0  0  0  0  0  0  0  0
   24.6338  -20.1793  -16.0305 O   0  0  0  0  0  0  0  0  0  0  0  0
   20.4022  -24.0315  -16.3351 N   0  0  0  0  0  0  0  0  0  0  0  0
   21.1600  -24.2381  -15.1526 C   0  0  0  0  0  0  0  0  0  0  0  0
   21.0521  -25.3362  -14.5578 O   0  0  0  0  0  0  0  0  0  0  0  0
   22.0500  -23.1330  -14.6762 C   0  0  0  0  0  0  0  0  0  0  0  0
   22.0537  -21.9524  -15.5671 C   0  0  0  0  0  0  0  0  0  0  0  0
   22.0011  -20.6008  -14.9840 C   0  0  2  0  0  0  0  0  0  0  0  0
   23.2128  -20.4575  -14.1831 N   0  0  0  0  0  0  0  0  0  0  0  0
   20.8255  -20.2569  -14.1642 C   0  0  0  0  0  0  0  0  0  0  0  0
   20.7410  -20.7316  -13.0005 O   0  0  0  0  0  0  0  0  0  0  0  0
   16.7799  -15.6299  -15.0385 N   0  0  0  0  0  0  0  0  0  0  0  0
   17.7954  -15.4559  -14.0692 C   0  0  0  0  0  0  0  0  0  0  0  0
   18.1025  -14.3194  -13.6824 O   0  0  0  0  0  0  0  0  0  0  0  0
   18.4849  -16.6824  -13.5275 C   0  0  0  0  0  0  0  0  0  0  0  0
   17.9251  -17.9175  -14.1760 C   0  0  0  0  0  0  0  0  0  0  0  0
   18.6465  -19.1308  -13.7089 C   0  0  2  0  0  0  0  0  0  0  0  0
   19.7873  -19.4251  -14.6031 N   0  0  0  0  0  0  0  0  0  0  0  0
   17.7896  -20.3222  -13.6483 C   0  0  0  0  0  0  0  0  0  0  0  0
   17.8668  -21.3035  -14.4238 O   0  0  0  0  0  0  0  0  0  0  0  0
   16.8015  -20.3741  -12.6427 O   0  0  0  0  0  0  0  0  0  0  0  0
  2  1  1  0
  2  3  2  0
  4  2  1  0
  5  4  1  0
  5  6  1  6
  7  8  2  0
  7  5  1  0
  9 10  1  0
 10 12  1  0
 11 10  2  0
 12 13  1  0
 14 13  1  1
 14 15  1  0
 15  7  1  0
 16 24  1  0
 16 14  1  0
 17 16  2  0
 19 21  1  0
 19 18  1  0
 20 19  2  0
 23 22  1  6
 22 21  1  0
 23 24  1  0
 25 23  1  0
 26 25  2  0
 27 25  1  0
M  END
$$$$
