NQQ.pdb
     RDKit          3D

 27 26  0  0  1  0  0  0  0  0999 V2000
   10.9145  -12.8161  -12.6223 N   0  0  0  0  0  0  0  0  0  0  0  0
   11.1165  -12.1136  -11.4123 C   0  0  0  0  0  0  0  0  0  0  0  0
   10.1586  -11.8633  -10.6380 O   0  0  0  0  0  0  0  0  0  0  0  0
   12.4713  -11.6691  -11.0542 C   0  0  0  0  0  0  0  0  0  0  0  0
   13.4988  -12.0900  -12.1053 C   0  0  2  0  0  0  0  0  0  0  0  0
   13.8509  -13.4564  -11.7970 N   0  0  0  0  0  0  0  0  0  0  0  0
   14.7001  -11.2345  -11.8508 C   0  0  0  0  0  0  0  0  0  0  0  0
   15.1971  -11.2918  -10.6826 O   0  0  0  0  0  0  0  0  0  0  0  0
   17.1555  -11.2953  -16.0826 N   0  0  0  0  0  0  0  0  0  0  0  0
   18.1553  -11.6790  -15.1507 C   0  0  0  0  0  0  0  0  0  0  0  0
   18.8667  -12.6768  -15.4142 O   0  0  0  0  0  0  0  0  0  0  0  0
   18.3087  -10.8715  -13.8997 C   0  0  0  0  0  0  0  0  0  0  0  0
   17.3152   -9.7831  -13.7742 C   0  0  0  0  0  0  0  0  0  0  0  0
   16.4868   -9.6909  -12.5597 C   0  0  2  0  0  0  0  0  0  0  0  0
   15.2509  -10.4084  -12.8566 N   0  0  0  0  0  0  0  0  0  0  0  0
   16.1650   -8.3443  -12.0543 C   0  0  0  0  0  0  0  0  0  0  0  0
   15.2866   -7.6684  -12.6529 O   0  0  0  0  0  0  0  0  0  0  0  0
   15.0691   -6.4162   -6.5519 N   0  0  0  0  0  0  0  0  0  0  0  0
   14.1454   -6.8812   -7.5171 C   0  0  0  0  0  0  0  0  0  0  0  0
   13.0184   -7.2629   -7.1711 O   0  0  0  0  0  0  0  0  0  0  0  0
   14.5700   -6.8980   -8.9637 C   0  0  0  0  0  0  0  0  0  0  0  0
   15.9799   -6.3932   -9.0932 C   0  0  0  0  0  0  0  0  0  0  0  0
   16.4117   -6.3959  -10.5160 C   0  0  2  0  0  0  0  0  0  0  0  0
   16.7805   -7.7648  -10.9372 N   0  0  0  0  0  0  0  0  0  0  0  0
   17.5561   -5.5114  -10.7717 C   0  0  0  0  0  0  0  0  0  0  0  0
   18.6805   -5.8891  -11.1758 O   0  0  0  0  0  0  0  0  0  0  0  0
   17.3847   -4.1290  -10.5483 O   0  0  0  0  0  0  0  0  0  0  0  0
  2  1  1  0
  2  3  2  0
  4  2  1  0
  5  4  1  0
  5  6  1  1
  7  8  2  0
  7  5  1  0
  9 10  1  0
 10 12  1  0
 11 10  2  0
 12 13  1  0
 14 13  1  6
 14 15  1  0
 15  7  1  0
 16 24  1  0
 16 14  1  0
 17 16  2  0
 19 21  1  0
 19 18  1  0
 20 19  2  0
 23 22  1  1
 22 21  1  0
 23 24  1  0
 25 23  1  0
 26 25  2  0
 27 25  1  0
M  END
$$$$
