NQQ.pdb
     RDKit          3D

 27 26  0  0  1  0  0  0  0  0999 V2000
   12.8185  -11.7049  -14.5107 N   0  0  0  0  0  0  0  0  0  0  0  0
   13.7819  -10.8143  -15.0370 C   0  0  0  0  0  0  0  0  0  0  0  0
   14.2282  -10.9543  -16.2037 O   0  0  0  0  0  0  0  0  0  0  0  0
   14.2691   -9.7050  -14.2043 C   0  0  0  0  0  0  0  0  0  0  0  0
   15.7950   -9.6994  -14.1094 C   0  0  2  0  0  0  0  0  0  0  0  0
   16.1479  -10.8139  -13.2610 N   0  0  0  0  0  0  0  0  0  0  0  0
   16.1429   -8.4377  -13.3834 C   0  0  0  0  0  0  0  0  0  0  0  0
   15.9364   -7.3509  -14.0087 O   0  0  0  0  0  0  0  0  0  0  0  0
   15.5225   -6.9356   -7.5327 N   0  0  0  0  0  0  0  0  0  0  0  0
   14.5776   -6.6667   -8.5575 C   0  0  0  0  0  0  0  0  0  0  0  0
   13.4129   -6.3423   -8.2265 O   0  0  0  0  0  0  0  0  0  0  0  0
   15.0209   -6.7847   -9.9822 C   0  0  0  0  0  0  0  0  0  0  0  0
   16.4420   -7.1678  -10.1284 C   0  0  0  0  0  0  0  0  0  0  0  0
   17.0568   -7.1852  -11.4668 C   0  0  2  0  0  0  0  0  0  0  0  0
   16.6721   -8.4559  -12.0730 N   0  0  0  0  0  0  0  0  0  0  0  0
   18.5196   -7.0240  -11.5475 C   0  0  0  0  0  0  0  0  0  0  0  0
   19.2543   -7.9458  -11.1034 O   0  0  0  0  0  0  0  0  0  0  0  0
   21.0899   -9.3485  -15.0420 N   0  0  0  0  0  0  0  0  0  0  0  0
   22.2258   -8.5255  -14.8598 C   0  0  0  0  0  0  0  0  0  0  0  0
   23.3067   -8.8261  -15.3862 O   0  0  0  0  0  0  0  0  0  0  0  0
   22.0825   -7.2852  -14.0147 C   0  0  0  0  0  0  0  0  0  0  0  0
   20.6741   -7.1705  -13.5020 C   0  0  0  0  0  0  0  0  0  0  0  0
   20.5366   -5.9982  -12.5977 C   0  0  2  0  0  0  0  0  0  0  0  0
   19.1494   -5.8986  -12.0947 N   0  0  0  0  0  0  0  0  0  0  0  0
   20.8834   -4.7270  -13.2467 C   0  0  0  0  0  0  0  0  0  0  0  0
   20.0654   -3.9554  -13.7996 O   0  0  0  0  0  0  0  0  0  0  0  0
   22.2392   -4.3371  -13.2522 O   0  0  0  0  0  0  0  0  0  0  0  0
  2  1  1  0
  2  3  2  0
  4  2  1  0
  5  4  1  0
  5  6  1  1
  7  8  2  0
  7  5  1  0
  9 10  1  0
 10 12  1  0
 11 10  2  0
 12 13  1  0
 14 13  1  1
 14 15  1  0
 15  7  1  0
 16 24  1  0
 16 14  1  0
 17 16  2  0
 19 21  1  0
 19 18  1  0
 20 19  2  0
 23 22  1  6
 22 21  1  0
 23 24  1  0
 25 23  1  0
 26 25  2  0
 27 25  1  0
M  END
$$$$
