NQQ.pdb
     RDKit          3D

 27 26  0  0  1  0  0  0  0  0999 V2000
   26.1982  -22.1455  -17.0614 N   0  0  0  0  0  0  0  0  0  0  0  0
   26.6705  -22.3270  -15.7415 C   0  0  0  0  0  0  0  0  0  0  0  0
   27.9014  -22.3806  -15.4928 O   0  0  0  0  0  0  0  0  0  0  0  0
   25.7039  -22.4546  -14.6411 C   0  0  0  0  0  0  0  0  0  0  0  0
   24.2702  -22.5666  -15.1604 C   0  0  2  0  0  0  0  0  0  0  0  0
   23.9551  -21.2848  -15.7468 N   0  0  0  0  0  0  0  0  0  0  0  0
   23.4190  -22.7391  -13.9417 C   0  0  0  0  0  0  0  0  0  0  0  0
   23.5768  -23.8190  -13.2907 O   0  0  0  0  0  0  0  0  0  0  0  0
   21.3092  -18.2039  -10.5526 N   0  0  0  0  0  0  0  0  0  0  0  0
   20.2092  -18.5861  -11.3645 C   0  0  0  0  0  0  0  0  0  0  0  0
   19.2439  -17.7940  -11.4746 O   0  0  0  0  0  0  0  0  0  0  0  0
   20.2583  -19.9168  -12.0480 C   0  0  0  0  0  0  0  0  0  0  0  0
   21.4596  -20.7102  -11.7093 C   0  0  0  0  0  0  0  0  0  0  0  0
   21.6753  -22.0159  -12.3562 C   0  0  2  0  0  0  0  0  0  0  0  0
   22.4904  -21.7530  -13.5380 N   0  0  0  0  0  0  0  0  0  0  0  0
   20.4827  -22.7907  -12.7431 C   0  0  0  0  0  0  0  0  0  0  0  0
   19.9829  -22.6007  -13.8836 O   0  0  0  0  0  0  0  0  0  0  0  0
   18.7568  -28.0905  -10.2577 N   0  0  0  0  0  0  0  0  0  0  0  0
   19.6927  -27.9932  -11.3138 C   0  0  0  0  0  0  0  0  0  0  0  0
   20.4625  -28.9336  -11.5557 O   0  0  0  0  0  0  0  0  0  0  0  0
   19.7245  -26.7238  -12.1269 C   0  0  0  0  0  0  0  0  0  0  0  0
   18.6104  -25.8097  -11.6994 C   0  0  0  0  0  0  0  0  0  0  0  0
   18.7010  -24.5036  -12.4042 C   0  0  2  0  0  0  0  0  0  0  0  0
   19.8658  -23.7358  -11.9132 N   0  0  0  0  0  0  0  0  0  0  0  0
   17.4998  -23.6750  -12.2372 C   0  0  0  0  0  0  0  0  0  0  0  0
   17.3287  -22.8324  -11.3256 O   0  0  0  0  0  0  0  0  0  0  0  0
   16.4538  -23.8333  -13.1705 O   0  0  0  0  0  0  0  0  0  0  0  0
  2  1  1  0
  2  3  2  0
  4  2  1  0
  5  4  1  0
  5  6  1  1
  7  8  2  0
  7  5  1  0
  9 10  1  0
 10 12  1  0
 11 10  2  0
 12 13  1  0
 14 13  1  6
 14 15  1  0
 15  7  1  0
 16 24  1  0
 16 14  1  0
 17 16  2  0
 19 21  1  0
 19 18  1  0
 20 19  2  0
 23 22  1  1
 22 21  1  0
 23 24  1  0
 25 23  1  0
 26 25  2  0
 27 25  1  0
M  END
$$$$
