NQQ.pdb
     RDKit          3D

 27 26  0  0  1  0  0  0  0  0999 V2000
   20.0674  -15.0036  -16.2376 N   0  0  0  0  0  0  0  0  0  0  0  0
   21.1432  -14.4348  -16.9570 C   0  0  0  0  0  0  0  0  0  0  0  0
   22.1763  -15.1018  -17.2172 O   0  0  0  0  0  0  0  0  0  0  0  0
   21.0504  -13.0389  -17.4086 C   0  0  0  0  0  0  0  0  0  0  0  0
   19.7003  -12.4184  -17.0482 C   0  0  2  0  0  0  0  0  0  0  0  0
   18.7653  -12.8867  -18.0446 N   0  0  0  0  0  0  0  0  0  0  0  0
   19.8777  -10.9445  -17.2376 C   0  0  0  0  0  0  0  0  0  0  0  0
   20.5173  -10.5810  -18.2737 O   0  0  0  0  0  0  0  0  0  0  0  0
   15.4284   -7.2997  -15.9491 N   0  0  0  0  0  0  0  0  0  0  0  0
   16.3246   -6.2759  -16.3539 C   0  0  0  0  0  0  0  0  0  0  0  0
   15.8839   -5.1085  -16.4730 O   0  0  0  0  0  0  0  0  0  0  0  0
   17.7513   -6.6434  -16.6181 C   0  0  0  0  0  0  0  0  0  0  0  0
   18.0249   -8.0896  -16.4732 C   0  0  0  0  0  0  0  0  0  0  0  0
   19.3944   -8.5943  -16.6712 C   0  0  2  0  0  0  0  0  0  0  0  0
   19.3609  -10.0088  -16.3129 N   0  0  0  0  0  0  0  0  0  0  0  0
   20.4812   -7.9253  -15.9339 C   0  0  0  0  0  0  0  0  0  0  0  0
   20.8705   -8.4265  -14.8457 O   0  0  0  0  0  0  0  0  0  0  0  0
   25.3725   -5.0269  -18.1784 N   0  0  0  0  0  0  0  0  0  0  0  0
   25.5856   -4.7941  -16.7995 C   0  0  0  0  0  0  0  0  0  0  0  0
   26.6456   -4.2859  -16.4077 O   0  0  0  0  0  0  0  0  0  0  0  0
   24.4952   -5.1794  -15.8321 C   0  0  0  0  0  0  0  0  0  0  0  0
   23.3496   -5.8120  -16.5716 C   0  0  0  0  0  0  0  0  0  0  0  0
   22.2737   -6.2174  -15.6288 C   0  0  2  0  0  0  0  0  0  0  0  0
   21.1152   -6.7562  -16.3738 N   0  0  0  0  0  0  0  0  0  0  0  0
   21.8036   -5.1125  -14.7827 C   0  0  0  0  0  0  0  0  0  0  0  0
   20.8687   -4.3309  -15.0747 O   0  0  0  0  0  0  0  0  0  0  0  0
   22.4483   -4.9090  -13.5445 O   0  0  0  0  0  0  0  0  0  0  0  0
  2  1  1  0
  2  3  2  0
  4  2  1  0
  5  4  1  0
  5  6  1  6
  7  8  2  0
  7  5  1  0
  9 10  1  0
 10 12  1  0
 11 10  2  0
 12 13  1  0
 14 13  1  1
 14 15  1  0
 15  7  1  0
 16 24  1  0
 16 14  1  0
 17 16  2  0
 19 21  1  0
 19 18  1  0
 20 19  2  0
 23 22  1  6
 22 21  1  0
 23 24  1  0
 25 23  1  0
 26 25  2  0
 27 25  1  0
M  END
$$$$
