NQQ.pdb
     RDKit          3D

 27 26  0  0  1  0  0  0  0  0999 V2000
   27.4632  -15.3283  -14.9237 N   0  0  0  0  0  0  0  0  0  0  0  0
   27.1724  -16.3295  -15.8783 C   0  0  0  0  0  0  0  0  0  0  0  0
   27.6956  -16.3102  -17.0210 O   0  0  0  0  0  0  0  0  0  0  0  0
   26.2419  -17.4121  -15.5269 C   0  0  0  0  0  0  0  0  0  0  0  0
   26.9851  -18.6718  -15.0815 C   0  0  2  0  0  0  0  0  0  0  0  0
   27.5033  -19.2782  -16.2856 N   0  0  0  0  0  0  0  0  0  0  0  0
   25.9322  -19.5776  -14.5240 C   0  0  0  0  0  0  0  0  0  0  0  0
   25.3535  -20.3481  -15.3525 O   0  0  0  0  0  0  0  0  0  0  0  0
   25.2058  -21.2425   -8.5179 N   0  0  0  0  0  0  0  0  0  0  0  0
   26.4069  -21.1501   -9.2689 C   0  0  0  0  0  0  0  0  0  0  0  0
   27.4999  -21.2346   -8.6610 O   0  0  0  0  0  0  0  0  0  0  0  0
   26.3066  -20.9560  -10.7497 C   0  0  0  0  0  0  0  0  0  0  0  0
   24.9245  -20.7238  -11.2222 C   0  0  0  0  0  0  0  0  0  0  0  0
   24.6630  -20.5825  -12.6648 C   0  0  2  0  0  0  0  0  0  0  0  0
   25.6010  -19.5751  -13.1501 N   0  0  0  0  0  0  0  0  0  0  0  0
   23.2951  -20.2211  -13.0778 C   0  0  0  0  0  0  0  0  0  0  0  0
   22.9512  -19.0101  -13.0345 O   0  0  0  0  0  0  0  0  0  0  0  0
   20.8739  -20.0129  -18.0694 N   0  0  0  0  0  0  0  0  0  0  0  0
   21.2436  -21.3193  -17.6725 C   0  0  0  0  0  0  0  0  0  0  0  0
   21.4906  -22.1851  -18.5239 O   0  0  0  0  0  0  0  0  0  0  0  0
   21.3268  -21.6224  -16.1979 C   0  0  0  0  0  0  0  0  0  0  0  0
   20.9944  -20.3931  -15.3992 C   0  0  0  0  0  0  0  0  0  0  0  0
   21.0032  -20.6929  -13.9429 C   0  0  2  0  0  0  0  0  0  0  0  0
   22.3452  -21.1502  -13.5217 N   0  0  0  0  0  0  0  0  0  0  0  0
   20.0258  -21.7205  -13.5610 C   0  0  0  0  0  0  0  0  0  0  0  0
   20.3131  -22.8555  -13.1142 O   0  0  0  0  0  0  0  0  0  0  0  0
   18.6561  -21.4144  -13.7045 O   0  0  0  0  0  0  0  0  0  0  0  0
  2  1  1  0
  2  3  2  0
  4  2  1  0
  5  4  1  0
  5  6  1  6
  7  8  2  0
  7  5  1  0
  9 10  1  0
 10 12  1  0
 11 10  2  0
 12 13  1  0
 14 13  1  1
 14 15  1  0
 15  7  1  0
 16 24  1  0
 16 14  1  0
 17 16  2  0
 19 21  1  0
 19 18  1  0
 20 19  2  0
 23 22  1  6
 22 21  1  0
 23 24  1  0
 25 23  1  0
 26 25  2  0
 27 25  1  0
M  END
$$$$
