NQQ.pdb
     RDKit          3D

 27 26  0  0  1  0  0  0  0  0999 V2000
   17.3035  -13.5004  -17.6478 N   0  0  0  0  0  0  0  0  0  0  0  0
   18.0605  -14.1180  -16.6261 C   0  0  0  0  0  0  0  0  0  0  0  0
   17.8821  -15.3249  -16.3238 O   0  0  0  0  0  0  0  0  0  0  0  0
   19.0742  -13.3339  -15.9058 C   0  0  0  0  0  0  0  0  0  0  0  0
   19.0731  -11.8701  -16.3471 C   0  0  2  0  0  0  0  0  0  0  0  0
   19.8724  -11.8133  -17.5489 N   0  0  0  0  0  0  0  0  0  0  0  0
   19.8038  -11.1305  -15.2706 C   0  0  0  0  0  0  0  0  0  0  0  0
   19.3202  -11.2155  -14.0986 O   0  0  0  0  0  0  0  0  0  0  0  0
   25.8079   -9.8867  -15.0301 N   0  0  0  0  0  0  0  0  0  0  0  0
   25.1092   -9.0936  -15.9777 C   0  0  0  0  0  0  0  0  0  0  0  0
   25.7653   -8.5295  -16.8847 O   0  0  0  0  0  0  0  0  0  0  0  0
   23.6233   -8.9712  -15.8449 C   0  0  0  0  0  0  0  0  0  0  0  0
   23.0663   -9.7435  -14.7133 C   0  0  0  0  0  0  0  0  0  0  0  0
   21.6207   -9.6881  -14.4363 C   0  0  2  0  0  0  0  0  0  0  0  0
   20.9688  -10.3786  -15.5447 N   0  0  0  0  0  0  0  0  0  0  0  0
   21.0109   -8.3582  -14.2579 C   0  0  0  0  0  0  0  0  0  0  0  0
   20.4490   -7.8140  -15.2453 O   0  0  0  0  0  0  0  0  0  0  0  0
   18.1313   -6.3268   -9.2877 N   0  0  0  0  0  0  0  0  0  0  0  0
   17.9802   -5.1869  -10.1115 C   0  0  0  0  0  0  0  0  0  0  0  0
   17.3088   -4.2201   -9.7242 O   0  0  0  0  0  0  0  0  0  0  0  0
   18.6539   -5.1848  -11.4604 C   0  0  0  0  0  0  0  0  0  0  0  0
   19.3863   -6.4801  -11.6730 C   0  0  0  0  0  0  0  0  0  0  0  0
   20.2184   -6.4187  -12.9037 C   0  0  2  0  0  0  0  0  0  0  0  0
   21.0160   -7.6561  -13.0457 N   0  0  0  0  0  0  0  0  0  0  0  0
   21.1383   -5.2737  -12.9199 C   0  0  0  0  0  0  0  0  0  0  0  0
   22.3311   -5.3042  -12.5371 O   0  0  0  0  0  0  0  0  0  0  0  0
   20.6497   -4.0413  -13.4023 O   0  0  0  0  0  0  0  0  0  0  0  0
  2  1  1  0
  2  3  2  0
  4  2  1  0
  5  4  1  0
  5  6  1  6
  7  8  2  0
  7  5  1  0
  9 10  1  0
 10 12  1  0
 11 10  2  0
 12 13  1  0
 14 13  1  6
 14 15  1  0
 15  7  1  0
 16 24  1  0
 16 14  1  0
 17 16  2  0
 19 21  1  0
 19 18  1  0
 20 19  2  0
 23 22  1  1
 22 21  1  0
 23 24  1  0
 25 23  1  0
 26 25  2  0
 27 25  1  0
M  END
$$$$
