NQQ.pdb
     RDKit          3D

 27 26  0  0  1  0  0  0  0  0999 V2000
   29.0702  -18.9370  -17.8626 N   0  0  0  0  0  0  0  0  0  0  0  0
   28.2186  -19.9787  -18.2963 C   0  0  0  0  0  0  0  0  0  0  0  0
   28.3099  -20.4527  -19.4567 O   0  0  0  0  0  0  0  0  0  0  0  0
   27.2092  -20.5164  -17.3725 C   0  0  0  0  0  0  0  0  0  0  0  0
   27.8527  -21.1208  -16.1242 C   0  0  2  0  0  0  0  0  0  0  0  0
   28.4419  -22.3714  -16.5426 N   0  0  0  0  0  0  0  0  0  0  0  0
   26.7154  -21.4313  -15.2022 C   0  0  0  0  0  0  0  0  0  0  0  0
   26.1926  -22.5838  -15.3182 O   0  0  0  0  0  0  0  0  0  0  0  0
   24.3786  -20.9235   -9.6538 N   0  0  0  0  0  0  0  0  0  0  0  0
   25.7894  -21.0205   -9.7788 C   0  0  0  0  0  0  0  0  0  0  0  0
   26.4499  -21.4293   -8.7949 O   0  0  0  0  0  0  0  0  0  0  0  0
   26.4165  -20.6293  -11.0803 C   0  0  0  0  0  0  0  0  0  0  0  0
   25.4432  -20.1415  -12.0814 C   0  0  0  0  0  0  0  0  0  0  0  0
   25.2170  -20.9161  -13.3136 C   0  0  2  0  0  0  0  0  0  0  0  0
   26.2495  -20.4924  -14.2541 N   0  0  0  0  0  0  0  0  0  0  0  0
   23.8937  -20.8083  -13.9537 C   0  0  0  0  0  0  0  0  0  0  0  0
   23.6822  -19.8521  -14.7461 O   0  0  0  0  0  0  0  0  0  0  0  0
   19.8721  -25.1261  -15.7015 N   0  0  0  0  0  0  0  0  0  0  0  0
   19.1301  -23.9604  -16.0042 C   0  0  0  0  0  0  0  0  0  0  0  0
   18.0564  -24.0443  -16.6171 O   0  0  0  0  0  0  0  0  0  0  0  0
   19.6802  -22.6277  -15.5633 C   0  0  0  0  0  0  0  0  0  0  0  0
   20.9836  -22.8216  -14.8401 C   0  0  0  0  0  0  0  0  0  0  0  0
   21.5442  -21.5148  -14.4054 C   0  0  2  0  0  0  0  0  0  0  0  0
   22.8473  -21.7135  -13.7347 N   0  0  0  0  0  0  0  0  0  0  0  0
   20.6598  -20.7862  -13.4865 C   0  0  0  0  0  0  0  0  0  0  0  0
   20.6690  -20.8995  -12.2386 O   0  0  0  0  0  0  0  0  0  0  0  0
   19.7255  -19.8876  -14.0432 O   0  0  0  0  0  0  0  0  0  0  0  0
  2  1  1  0
  2  3  2  0
  4  2  1  0
  5  4  1  0
  5  6  1  6
  7  8  2  0
  7  5  1  0
  9 10  1  0
 10 12  1  0
 11 10  2  0
 12 13  1  0
 14 13  1  1
 14 15  1  0
 15  7  1  0
 16 24  1  0
 16 14  1  0
 17 16  2  0
 19 21  1  0
 19 18  1  0
 20 19  2  0
 23 22  1  1
 22 21  1  0
 23 24  1  0
 25 23  1  0
 26 25  2  0
 27 25  1  0
M  END
$$$$
