NQQ.pdb
     RDKit          3D

 27 26  0  0  1  0  0  0  0  0999 V2000
   12.9660  -13.5843  -15.5048 N   0  0  0  0  0  0  0  0  0  0  0  0
   13.6180  -13.9700  -14.3113 C   0  0  0  0  0  0  0  0  0  0  0  0
   13.1045  -14.8127  -13.5329 O   0  0  0  0  0  0  0  0  0  0  0  0
   14.9198  -13.3747  -13.9763 C   0  0  0  0  0  0  0  0  0  0  0  0
   15.9509  -13.6166  -15.0791 C   0  0  2  0  0  0  0  0  0  0  0  0
   16.3920  -14.9831  -14.9225 N   0  0  0  0  0  0  0  0  0  0  0  0
   17.1021  -12.7187  -14.7500 C   0  0  0  0  0  0  0  0  0  0  0  0
   17.8110  -13.0529  -13.7497 O   0  0  0  0  0  0  0  0  0  0  0  0
   20.9254  -10.3904  -18.7059 N   0  0  0  0  0  0  0  0  0  0  0  0
   20.7384  -11.7289  -18.2716 C   0  0  0  0  0  0  0  0  0  0  0  0
   21.2683  -12.6517  -18.9340 O   0  0  0  0  0  0  0  0  0  0  0  0
   19.9170  -11.9699  -17.0438 C   0  0  0  0  0  0  0  0  0  0  0  0
   19.3651  -10.7326  -16.4506 C   0  0  0  0  0  0  0  0  0  0  0  0
   18.5934  -10.8076  -15.1982 C   0  0  2  0  0  0  0  0  0  0  0  0
   17.3841  -11.5622  -15.5118 N   0  0  0  0  0  0  0  0  0  0  0  0
   18.2263   -9.5378  -14.5462 C   0  0  0  0  0  0  0  0  0  0  0  0
   17.0073   -9.2934  -14.3433 O   0  0  0  0  0  0  0  0  0  0  0  0
   17.0774   -8.2238   -9.6699 N   0  0  0  0  0  0  0  0  0  0  0  0
   17.0386   -6.8644  -10.0592 C   0  0  0  0  0  0  0  0  0  0  0  0
   16.5460   -6.0122   -9.3064 O   0  0  0  0  0  0  0  0  0  0  0  0
   17.6086   -6.4888  -11.4035 C   0  0  0  0  0  0  0  0  0  0  0  0
   18.0964   -7.7178  -12.1185 C   0  0  0  0  0  0  0  0  0  0  0  0
   18.7032   -7.3595  -13.4278 C   0  0  2  0  0  0  0  0  0  0  0  0
   19.1585   -8.5776  -14.1324 N   0  0  0  0  0  0  0  0  0  0  0  0
   19.8466   -6.4461  -13.3014 C   0  0  0  0  0  0  0  0  0  0  0  0
   21.0424   -6.7582  -13.5085 O   0  0  0  0  0  0  0  0  0  0  0  0
   19.5874   -5.1133  -12.9185 O   0  0  0  0  0  0  0  0  0  0  0  0
  2  1  1  0
  2  3  2  0
  4  2  1  0
  5  4  1  0
  5  6  1  1
  7  8  2  0
  7  5  1  0
  9 10  1  0
 10 12  1  0
 11 10  2  0
 12 13  1  0
 14 13  1  6
 14 15  1  0
 15  7  1  0
 16 24  1  0
 16 14  1  0
 17 16  2  0
 19 21  1  0
 19 18  1  0
 20 19  2  0
 23 22  1  1
 22 21  1  0
 23 24  1  0
 25 23  1  0
 26 25  2  0
 27 25  1  0
M  END
$$$$
