EPG.pdb
     RDKit          3D

 21 21  0  0  1  0  0  0  0  0999 V2000
   24.0428  -14.6984  -14.9913 N   0  0  0  0  0  0  0  0  0  0  0  0
   23.6049  -13.6575  -15.8939 C   0  0  1  0  0  0  0  0  0  0  0  0
   22.1425  -13.8443  -16.2558 C   0  0  0  0  0  0  0  0  0  0  0  0
   21.8884  -15.0874  -17.0509 C   0  0  0  0  0  0  0  0  0  0  0  0
   20.9306  -16.0152  -16.4542 C   0  0  0  0  0  0  0  0  0  0  0  0
   19.9999  -15.5998  -15.7312 O   0  0  0  0  0  0  0  0  0  0  0  0
   23.8337  -12.3230  -15.3090 C   0  0  0  0  0  0  0  0  0  0  0  0
   23.1985  -12.0304  -14.2334 O   0  0  0  0  0  0  0  0  0  0  0  0
   21.0156  -17.3898  -16.6654 O   0  0  0  0  0  0  0  0  0  0  0  0
   24.7108  -11.3988  -15.8978 N   0  0  0  0  0  0  0  0  0  0  0  0
   25.5321  -11.5775  -17.0587 C   0  0  0  0  0  0  0  0  0  0  0  0
   26.2734  -10.2608  -17.2666 C   0  0  0  0  0  0  0  0  0  0  0  0
   26.1521   -9.5100  -15.9825 C   0  0  0  0  0  0  0  0  0  0  0  0
   24.9061  -10.0435  -15.3577 C   0  0  1  0  0  0  0  0  0  0  0  0
   23.7703   -9.2190  -15.7604 C   0  0  0  0  0  0  0  0  0  0  0  0
   23.0115   -9.6144  -16.6798 O   0  0  0  0  0  0  0  0  0  0  0  0
   23.5077   -7.9597  -15.1187 N   0  0  0  0  0  0  0  0  0  0  0  0
   22.1433   -7.5463  -14.9975 C   0  0  0  0  0  0  0  0  0  0  0  0
   21.9671   -6.2790  -14.2911 C   0  0  0  0  0  0  0  0  0  0  0  0
   22.0835   -6.2156  -12.9154 O   0  0  0  0  0  0  0  0  0  0  0  0
   21.7064   -5.2195  -14.9121 O   0  0  0  0  0  0  0  0  0  0  0  0
  2  1  1  1
  3  2  1  0
  4  3  1  0
  4  5  1  0
  5  6  2  0
  7  2  1  0
  8  7  2  0
  9  5  1  0
 10 14  1  0
 10  7  1  0
 11 10  1  0
 12 11  1  0
 12 13  1  0
 13 14  1  0
 14 15  1  6
 15 17  1  0
 15 16  2  0
 17 18  1  0
 19 18  1  0
 19 20  1  0
 21 19  2  0
M  END
$$$$
