EPG.pdb
     RDKit          3D

 21 21  0  0  1  0  0  0  0  0999 V2000
   25.0657  -21.0032  -10.5228 N   0  0  0  0  0  0  0  0  0  0  0  0
   25.9813  -21.0644  -11.6399 C   0  0  1  0  0  0  0  0  0  0  0  0
   25.8215  -22.3741  -12.3907 C   0  0  0  0  0  0  0  0  0  0  0  0
   24.3899  -22.7599  -12.6006 C   0  0  0  0  0  0  0  0  0  0  0  0
   24.0068  -22.9701  -13.9945 C   0  0  0  0  0  0  0  0  0  0  0  0
   23.7901  -24.1195  -14.4343 O   0  0  0  0  0  0  0  0  0  0  0  0
   25.7866  -19.9152  -12.5437 C   0  0  0  0  0  0  0  0  0  0  0  0
   24.7507  -19.1819  -12.3555 O   0  0  0  0  0  0  0  0  0  0  0  0
   23.8685  -21.9057  -14.8831 O   0  0  0  0  0  0  0  0  0  0  0  0
   26.6933  -19.6244  -13.5748 N   0  0  0  0  0  0  0  0  0  0  0  0
   27.8973  -20.3239  -13.9147 C   0  0  0  0  0  0  0  0  0  0  0  0
   28.4900  -19.5979  -15.1181 C   0  0  0  0  0  0  0  0  0  0  0  0
   27.8143  -18.2684  -15.1739 C   0  0  0  0  0  0  0  0  0  0  0  0
   26.5046  -18.4896  -14.4932 C   0  0  1  0  0  0  0  0  0  0  0  0
   25.4995  -18.8616  -15.4847 C   0  0  0  0  0  0  0  0  0  0  0  0
   25.1645  -20.0659  -15.6071 O   0  0  0  0  0  0  0  0  0  0  0  0
   24.8869  -17.8680  -16.3238 N   0  0  0  0  0  0  0  0  0  0  0  0
   23.8524  -17.0610  -15.7532 C   0  0  0  0  0  0  0  0  0  0  0  0
   22.5229  -17.6644  -15.8204 C   0  0  0  0  0  0  0  0  0  0  0  0
   21.9193  -18.1705  -14.6848 O   0  0  0  0  0  0  0  0  0  0  0  0
   21.8971  -17.7387  -16.9061 O   0  0  0  0  0  0  0  0  0  0  0  0
  2  1  1  1
  3  2  1  0
  4  3  1  0
  4  5  1  0
  5  6  2  0
  7  2  1  0
  8  7  2  0
  9  5  1  0
 10 14  1  0
 10  7  1  0
 11 10  1  0
 12 11  1  0
 12 13  1  0
 13 14  1  0
 14 15  1  6
 15 17  1  0
 15 16  2  0
 17 18  1  0
 19 18  1  0
 19 20  1  0
 21 19  2  0
M  END
$$$$
