EPG.pdb
     RDKit          3D

 21 21  0  0  1  0  0  0  0  0999 V2000
   26.5517  -23.0120  -15.2945 N   0  0  0  0  0  0  0  0  0  0  0  0
   26.2442  -21.8116  -14.5497 C   0  0  1  0  0  0  0  0  0  0  0  0
   25.9740  -20.6525  -15.4921 C   0  0  0  0  0  0  0  0  0  0  0  0
   27.2176  -20.1046  -16.1210 C   0  0  0  0  0  0  0  0  0  0  0  0
   27.6381  -20.7815  -17.3454 C   0  0  0  0  0  0  0  0  0  0  0  0
   26.8032  -21.3375  -18.0905 O   0  0  0  0  0  0  0  0  0  0  0  0
   25.0985  -22.0311  -13.6471 C   0  0  0  0  0  0  0  0  0  0  0  0
   24.1564  -22.7976  -14.0607 O   0  0  0  0  0  0  0  0  0  0  0  0
   28.9767  -20.8339  -17.7287 O   0  0  0  0  0  0  0  0  0  0  0  0
   25.0299  -21.4296  -12.3809 N   0  0  0  0  0  0  0  0  0  0  0  0
   25.9705  -20.5318  -11.7781 C   0  0  0  0  0  0  0  0  0  0  0  0
   25.4039  -20.1731  -10.4081 C   0  0  0  0  0  0  0  0  0  0  0  0
   24.3558  -21.1939  -10.1132 C   0  0  0  0  0  0  0  0  0  0  0  0
   23.9081  -21.6641  -11.4570 C   0  0  1  0  0  0  0  0  0  0  0  0
   22.7720  -20.8600  -11.8984 C   0  0  0  0  0  0  0  0  0  0  0  0
   22.9679  -19.8577  -12.6294 O   0  0  0  0  0  0  0  0  0  0  0  0
   21.4309  -21.1998  -11.5079 N   0  0  0  0  0  0  0  0  0  0  0  0
   20.3588  -20.7290  -12.3301 C   0  0  0  0  0  0  0  0  0  0  0  0
   19.0321  -21.1204  -11.8582 C   0  0  0  0  0  0  0  0  0  0  0  0
   18.6466  -22.4476  -11.8568 O   0  0  0  0  0  0  0  0  0  0  0  0
   18.2114  -20.2656  -11.4436 O   0  0  0  0  0  0  0  0  0  0  0  0
  2  1  1  6
  3  2  1  0
  4  3  1  0
  4  5  1  0
  5  6  2  0
  7  2  1  0
  8  7  2  0
  9  5  1  0
 10 14  1  0
 10  7  1  0
 11 10  1  0
 12 11  1  0
 12 13  1  0
 13 14  1  0
 14 15  1  6
 15 17  1  0
 15 16  2  0
 17 18  1  0
 19 18  1  0
 19 20  1  0
 21 19  2  0
M  END
$$$$
