EPG.pdb
     RDKit          3D

 21 21  0  0  1  0  0  0  0  0999 V2000
   25.5675  -20.8495  -17.6170 N   0  0  0  0  0  0  0  0  0  0  0  0
   26.0064  -20.0348  -16.5063 C   0  0  1  0  0  0  0  0  0  0  0  0
   25.3517  -18.6661  -16.5560 C   0  0  0  0  0  0  0  0  0  0  0  0
   23.8588  -18.7322  -16.6510 C   0  0  0  0  0  0  0  0  0  0  0  0
   23.1897  -17.4370  -16.7451 C   0  0  0  0  0  0  0  0  0  0  0  0
   23.0376  -16.8719  -17.8493 O   0  0  0  0  0  0  0  0  0  0  0  0
   25.7277  -20.7027  -15.2211 C   0  0  0  0  0  0  0  0  0  0  0  0
   24.6846  -21.4466  -15.1537 O   0  0  0  0  0  0  0  0  0  0  0  0
   22.6979  -16.7845  -15.6164 O   0  0  0  0  0  0  0  0  0  0  0  0
   26.5646  -20.5382  -14.1064 N   0  0  0  0  0  0  0  0  0  0  0  0
   27.7403  -19.7258  -13.9976 C   0  0  0  0  0  0  0  0  0  0  0  0
   28.2540  -19.9031  -12.5725 C   0  0  0  0  0  0  0  0  0  0  0  0
   27.5812  -21.1237  -12.0386 C   0  0  0  0  0  0  0  0  0  0  0  0
   26.3192  -21.2267  -12.8286 C   0  0  1  0  0  0  0  0  0  0  0  0
   25.2485  -20.5256  -12.1257 C   0  0  0  0  0  0  0  0  0  0  0  0
   24.9988  -19.3283  -12.4114 O   0  0  0  0  0  0  0  0  0  0  0  0
   24.4752  -21.1869  -11.1103 N   0  0  0  0  0  0  0  0  0  0  0  0
   23.3351  -20.4982  -10.5879 C   0  0  0  0  0  0  0  0  0  0  0  0
   22.0832  -20.8181  -11.2709 C   0  0  0  0  0  0  0  0  0  0  0  0
   20.8835  -20.2943  -10.8277 O   0  0  0  0  0  0  0  0  0  0  0  0
   22.0644  -21.5735  -12.2734 O   0  0  0  0  0  0  0  0  0  0  0  0
  2  1  1  6
  3  2  1  0
  4  3  1  0
  4  5  1  0
  5  6  2  0
  7  2  1  0
  8  7  2  0
  9  5  1  0
 10 14  1  0
 10  7  1  0
 11 10  1  0
 12 11  1  0
 12 13  1  0
 13 14  1  0
 14 15  1  1
 15 17  1  0
 15 16  2  0
 17 18  1  0
 19 18  1  0
 19 20  1  0
 21 19  2  0
M  END
$$$$
