EPG.pdb
     RDKit          3D

 21 21  0  0  1  0  0  0  0  0999 V2000
   25.3593  -20.5644  -17.6306 N   0  0  0  0  0  0  0  0  0  0  0  0
   26.0301  -19.7271  -16.6615 C   0  0  1  0  0  0  0  0  0  0  0  0
   25.4014  -18.3459  -16.6226 C   0  0  0  0  0  0  0  0  0  0  0  0
   24.2400  -18.2026  -17.5569 C   0  0  0  0  0  0  0  0  0  0  0  0
   22.9589  -17.9309  -16.9097 C   0  0  0  0  0  0  0  0  0  0  0  0
   22.0187  -18.7513  -16.9777 O   0  0  0  0  0  0  0  0  0  0  0  0
   26.0104  -20.3497  -15.3246 C   0  0  0  0  0  0  0  0  0  0  0  0
   25.0009  -21.0837  -15.0273 O   0  0  0  0  0  0  0  0  0  0  0  0
   22.7352  -16.7552  -16.1961 O   0  0  0  0  0  0  0  0  0  0  0  0
   27.0509  -20.1540  -14.4032 N   0  0  0  0  0  0  0  0  0  0  0  0
   28.1561  -19.2466  -14.4996 C   0  0  0  0  0  0  0  0  0  0  0  0
   28.9747  -19.4308  -13.2258 C   0  0  0  0  0  0  0  0  0  0  0  0
   28.5283  -20.7243  -12.6300 C   0  0  0  0  0  0  0  0  0  0  0  0
   27.1384  -20.9078  -13.1418 C   0  0  1  0  0  0  0  0  0  0  0  0
   26.1917  -20.3292  -12.1927 C   0  0  0  0  0  0  0  0  0  0  0  0
   26.0127  -19.0862  -12.1744 O   0  0  0  0  0  0  0  0  0  0  0  0
   25.4607  -21.1629  -11.2778 N   0  0  0  0  0  0  0  0  0  0  0  0
   24.6826  -20.5173  -10.2655 C   0  0  0  0  0  0  0  0  0  0  0  0
   24.9066  -21.0411   -8.9195 C   0  0  0  0  0  0  0  0  0  0  0  0
   23.9932  -20.8056   -7.9094 O   0  0  0  0  0  0  0  0  0  0  0  0
   25.9297  -21.7154   -8.6464 O   0  0  0  0  0  0  0  0  0  0  0  0
  2  1  1  6
  3  2  1  0
  4  3  1  0
  4  5  1  0
  5  6  2  0
  7  2  1  0
  8  7  2  0
  9  5  1  0
 10 14  1  0
 10  7  1  0
 11 10  1  0
 12 11  1  0
 12 13  1  0
 13 14  1  0
 14 15  1  1
 15 17  1  0
 15 16  2  0
 17 18  1  0
 19 18  1  0
 19 20  1  0
 21 19  2  0
M  END
$$$$
