EPG.pdb
     RDKit          3D

 21 21  0  0  1  0  0  0  0  0999 V2000
   17.5275  -11.6831  -15.0522 N   0  0  0  0  0  0  0  0  0  0  0  0
   18.6824  -11.2563  -15.8099 C   0  0  1  0  0  0  0  0  0  0  0  0
   18.2589  -10.6678  -17.1436 C   0  0  0  0  0  0  0  0  0  0  0  0
   17.5961  -11.6658  -18.0419 C   0  0  0  0  0  0  0  0  0  0  0  0
   17.2174  -11.1546  -19.3570 C   0  0  0  0  0  0  0  0  0  0  0  0
   16.0550  -11.3004  -19.7919 O   0  0  0  0  0  0  0  0  0  0  0  0
   19.4874  -10.2880  -15.0418 C   0  0  0  0  0  0  0  0  0  0  0  0
   18.8605   -9.4713  -14.2762 O   0  0  0  0  0  0  0  0  0  0  0  0
   18.1299  -10.4890  -20.1730 O   0  0  0  0  0  0  0  0  0  0  0  0
   20.8872  -10.2514  -15.1365 N   0  0  0  0  0  0  0  0  0  0  0  0
   21.7375  -11.0589  -15.9606 C   0  0  0  0  0  0  0  0  0  0  0  0
   23.1652  -10.5987  -15.6846 C   0  0  0  0  0  0  0  0  0  0  0  0
   23.1104   -9.8176  -14.4141 C   0  0  0  0  0  0  0  0  0  0  0  0
   21.7061   -9.3165  -14.3477 C   0  0  1  0  0  0  0  0  0  0  0  0
   21.6314   -7.9988  -14.9723 C   0  0  0  0  0  0  0  0  0  0  0  0
   21.3329   -7.9047  -16.1886 O   0  0  0  0  0  0  0  0  0  0  0  0
   21.8948   -6.8063  -14.2139 N   0  0  0  0  0  0  0  0  0  0  0  0
   21.4497   -5.5600  -14.7577 C   0  0  0  0  0  0  0  0  0  0  0  0
   21.6645   -4.4157  -13.8741 C   0  0  0  0  0  0  0  0  0  0  0  0
   21.0599   -4.3595  -12.6325 O   0  0  0  0  0  0  0  0  0  0  0  0
   22.4001   -3.4583  -14.2178 O   0  0  0  0  0  0  0  0  0  0  0  0
  2  1  1  1
  3  2  1  0
  4  3  1  0
  4  5  1  0
  5  6  2  0
  7  2  1  0
  8  7  2  0
  9  5  1  0
 10 14  1  0
 10  7  1  0
 11 10  1  0
 12 11  1  0
 12 13  1  0
 13 14  1  0
 14 15  1  6
 15 17  1  0
 15 16  2  0
 17 18  1  0
 19 18  1  0
 19 20  1  0
 21 19  2  0
M  END
$$$$
