EPG.pdb
     RDKit          3D

 21 21  0  0  1  0  0  0  0  0999 V2000
   19.3426  -20.7204  -11.2732 N   0  0  0  0  0  0  0  0  0  0  0  0
   20.5348  -21.0776  -10.5375 C   0  0  1  0  0  0  0  0  0  0  0  0
   20.4458  -22.5084  -10.0379 C   0  0  0  0  0  0  0  0  0  0  0  0
   19.5033  -22.6706   -8.8856 C   0  0  0  0  0  0  0  0  0  0  0  0
   18.6312  -23.8399   -8.9633 C   0  0  0  0  0  0  0  0  0  0  0  0
   17.3905  -23.7113   -9.0394 O   0  0  0  0  0  0  0  0  0  0  0  0
   21.7410  -20.8853  -11.3642 C   0  0  0  0  0  0  0  0  0  0  0  0
   21.5799  -20.7835  -12.6330 O   0  0  0  0  0  0  0  0  0  0  0  0
   19.1434  -25.1357   -8.9556 O   0  0  0  0  0  0  0  0  0  0  0  0
   23.0225  -20.8150  -10.7961 N   0  0  0  0  0  0  0  0  0  0  0  0
   23.4034  -21.0866   -9.4414 C   0  0  0  0  0  0  0  0  0  0  0  0
   24.9116  -20.8708   -9.3684 C   0  0  0  0  0  0  0  0  0  0  0  0
   25.2784  -20.0939  -10.5887 C   0  0  0  0  0  0  0  0  0  0  0  0
   24.2096  -20.4277  -11.5755 C   0  0  1  0  0  0  0  0  0  0  0  0
   24.6296  -21.5745  -12.3759 C   0  0  0  0  0  0  0  0  0  0  0  0
   24.7412  -22.7019  -11.8338 O   0  0  0  0  0  0  0  0  0  0  0  0
   24.9172  -21.4313  -13.7770 N   0  0  0  0  0  0  0  0  0  0  0  0
   26.0474  -22.1358  -14.2998 C   0  0  0  0  0  0  0  0  0  0  0  0
   26.9088  -21.3242  -15.1574 C   0  0  0  0  0  0  0  0  0  0  0  0
   26.6069  -19.9993  -15.4096 O   0  0  0  0  0  0  0  0  0  0  0  0
   27.9406  -21.8066  -15.6853 O   0  0  0  0  0  0  0  0  0  0  0  0
  2  1  1  6
  3  2  1  0
  4  3  1  0
  4  5  1  0
  5  6  2  0
  7  2  1  0
  8  7  2  0
  9  5  1  0
 10 14  1  0
 10  7  1  0
 11 10  1  0
 12 11  1  0
 12 13  1  0
 13 14  1  0
 14 15  1  6
 15 17  1  0
 15 16  2  0
 17 18  1  0
 19 18  1  0
 19 20  1  0
 21 19  2  0
M  END
$$$$
