YDM.pdb
     RDKit          3D

 29 29  0  0  1  0  0  0  0  0999 V2000
   22.0613    2.4592  -14.9863 O   0  0  0  0  0  0  0  0  0  0  0  0
   21.8313    1.0770  -14.9265 C   0  0  0  0  0  0  0  0  0  0  0  0
   21.0266    0.5417  -13.9371 C   0  0  0  0  0  0  0  0  0  0  0  0
   20.8188   -0.8269  -13.9047 C   0  0  0  0  0  0  0  0  0  0  0  0
   21.3811   -1.6920  -14.8208 C   0  0  0  0  0  0  0  0  0  0  0  0
   21.0898   -3.1189  -14.6863 C   0  0  0  0  0  0  0  0  0  0  0  0
   19.8340   -3.5623  -15.3516 C   0  0  2  0  0  0  0  0  0  0  0  0
   18.6282   -3.0638  -14.7696 N   0  0  0  0  0  0  0  0  0  0  0  0
   19.8276   -5.0685  -15.3323 C   0  0  0  0  0  0  0  0  0  0  0  0
   19.2949   -5.6776  -14.3698 O   0  0  0  0  0  0  0  0  0  0  0  0
   22.1816   -1.1497  -15.8032 C   0  0  0  0  0  0  0  0  0  0  0  0
   22.3937    0.2126  -15.8425 C   0  0  0  0  0  0  0  0  0  0  0  0
   20.4066   -5.8265  -16.3709 N   0  0  0  0  0  0  0  0  0  0  0  0
   20.3525   -7.2681  -16.4681 C   0  0  1  0  0  0  0  0  0  0  0  0
   19.4765   -7.6320  -17.6432 C   0  0  0  0  0  0  0  0  0  0  0  0
   19.3502   -9.0806  -17.8529 C   0  0  0  0  0  0  0  0  0  0  0  0
   19.3130   -9.5728  -19.0251 O   0  0  0  0  0  0  0  0  0  0  0  0
   21.7035   -7.7920  -16.7720 C   0  0  0  0  0  0  0  0  0  0  0  0
   22.4518   -7.1338  -17.5229 O   0  0  0  0  0  0  0  0  0  0  0  0
   19.2694   -9.9352  -16.7780 O   0  0  0  0  0  0  0  0  0  0  0  0
   28.1197  -11.0930  -14.9124 C   0  0  0  0  0  0  0  0  0  0  0  0
   26.6139  -10.1506  -14.8682 S   0  0  0  0  0  0  0  0  0  0  0  0
   25.1781  -11.0552  -15.4278 C   0  0  0  0  0  0  0  0  0  0  0  0
   23.8894  -10.3267  -15.3385 C   0  0  0  0  0  0  0  0  0  0  0  0
   23.4954   -9.4775  -16.4908 C   0  0  2  0  0  0  0  0  0  0  0  0
   22.1228   -9.0101  -16.2179 N   0  0  0  0  0  0  0  0  0  0  0  0
   23.4437  -10.2469  -17.7672 C   0  0  0  0  0  0  0  0  0  0  0  0
   24.4557  -10.3754  -18.6728 O   0  0  0  0  0  0  0  0  0  0  0  0
   22.3467  -10.8416  -18.0323 O   0  0  0  0  0  0  0  0  0  0  0  0
  2  3  2  0
  2  1  1  0
  4  3  1  0
  5  4  2  0
  6  5  1  0
  7  6  1  0
  7  8  1  1
  9  7  1  0
  9 10  2  0
 11  5  1  0
 11 12  2  0
 12  2  1  0
 13  9  1  0
 14 13  1  0
 14 15  1  6
 16 15  1  0
 17 16  2  0
 18 14  1  0
 19 18  2  0
 20 16  1  0
 22 21  1  0
 23 22  1  0
 25 24  1  1
 24 23  1  0
 25 26  1  0
 26 18  1  0
 27 28  1  0
 27 25  1  0
 29 27  2  0
M  END
$$$$
