YDM.pdb
     RDKit          3D

 29 29  0  0  1  0  0  0  0  0999 V2000
   28.4499  -11.5510  -16.9351 O   0  0  0  0  0  0  0  0  0  0  0  0
   27.8198  -12.7652  -16.6256 C   0  0  0  0  0  0  0  0  0  0  0  0
   27.7898  -13.2280  -15.3226 C   0  0  0  0  0  0  0  0  0  0  0  0
   27.1599  -14.4305  -15.0491 C   0  0  0  0  0  0  0  0  0  0  0  0
   26.5544  -15.1977  -16.0230 C   0  0  0  0  0  0  0  0  0  0  0  0
   25.9201  -16.4505  -15.6145 C   0  0  0  0  0  0  0  0  0  0  0  0
   26.8399  -17.6192  -15.5458 C   0  0  2  0  0  0  0  0  0  0  0  0
   27.4891  -17.9557  -16.7731 N   0  0  0  0  0  0  0  0  0  0  0  0
   26.0330  -18.7926  -15.0546 C   0  0  0  0  0  0  0  0  0  0  0  0
   25.4872  -19.5649  -15.8835 O   0  0  0  0  0  0  0  0  0  0  0  0
   26.5892  -14.7286  -17.3187 C   0  0  0  0  0  0  0  0  0  0  0  0
   27.2146  -13.5317  -17.5996 C   0  0  0  0  0  0  0  0  0  0  0  0
   25.8680  -19.0563  -13.6792 N   0  0  0  0  0  0  0  0  0  0  0  0
   25.1502  -20.1883  -13.1371 C   0  0  1  0  0  0  0  0  0  0  0  0
   25.5699  -20.3713  -11.6980 C   0  0  0  0  0  0  0  0  0  0  0  0
   25.1809  -21.6716  -11.1356 C   0  0  0  0  0  0  0  0  0  0  0  0
   24.5625  -22.5319  -11.8392 O   0  0  0  0  0  0  0  0  0  0  0  0
   23.7005  -19.8888  -13.1181 C   0  0  0  0  0  0  0  0  0  0  0  0
   23.3250  -18.7407  -12.8052 O   0  0  0  0  0  0  0  0  0  0  0  0
   25.4808  -21.9832   -9.8297 O   0  0  0  0  0  0  0  0  0  0  0  0
   17.8582  -17.3732  -15.9057 C   0  0  0  0  0  0  0  0  0  0  0  0
   19.5444  -17.8831  -15.6724 S   0  0  0  0  0  0  0  0  0  0  0  0
   19.7256  -19.6089  -15.2466 C   0  0  0  0  0  0  0  0  0  0  0  0
   21.1017  -20.0405  -14.9011 C   0  0  0  0  0  0  0  0  0  0  0  0
   21.3444  -20.5342  -13.5221 C   0  0  2  0  0  0  0  0  0  0  0  0
   22.7747  -20.8889  -13.4488 N   0  0  0  0  0  0  0  0  0  0  0  0
   20.5757  -21.7768  -13.2241 C   0  0  0  0  0  0  0  0  0  0  0  0
   19.4276  -21.8587  -12.4921 O   0  0  0  0  0  0  0  0  0  0  0  0
   21.0390  -22.8646  -13.7032 O   0  0  0  0  0  0  0  0  0  0  0  0
  2  3  2  0
  2  1  1  0
  4  3  1  0
  5  4  2  0
  6  5  1  0
  7  6  1  0
  7  8  1  6
  9  7  1  0
  9 10  2  0
 11  5  1  0
 11 12  2  0
 12  2  1  0
 13  9  1  0
 14 13  1  0
 14 15  1  1
 16 15  1  0
 17 16  2  0
 18 14  1  0
 19 18  2  0
 20 16  1  0
 22 21  1  0
 23 22  1  0
 25 24  1  6
 24 23  1  0
 25 26  1  0
 26 18  1  0
 27 28  1  0
 27 25  1  0
 29 27  2  0
M  END
$$$$
