YDM.pdb
     RDKit          3D

 29 29  0  0  1  0  0  0  0  0999 V2000
   31.1647  -16.1182  -19.3869 O   0  0  0  0  0  0  0  0  0  0  0  0
   30.2021  -16.7841  -18.6142 C   0  0  0  0  0  0  0  0  0  0  0  0
   30.4726  -17.1314  -17.3030 C   0  0  0  0  0  0  0  0  0  0  0  0
   29.5016  -17.7883  -16.5660 C   0  0  0  0  0  0  0  0  0  0  0  0
   28.2645  -18.1168  -17.0809 C   0  0  0  0  0  0  0  0  0  0  0  0
   27.3193  -18.8110  -16.2071 C   0  0  0  0  0  0  0  0  0  0  0  0
   27.7293  -20.1882  -15.8175 C   0  0  2  0  0  0  0  0  0  0  0  0
   27.9583  -21.0856  -16.9054 N   0  0  0  0  0  0  0  0  0  0  0  0
   26.6515  -20.7365  -14.9194 C   0  0  0  0  0  0  0  0  0  0  0  0
   25.7694  -21.4959  -15.3954 O   0  0  0  0  0  0  0  0  0  0  0  0
   28.0037  -17.7669  -18.3885 C   0  0  0  0  0  0  0  0  0  0  0  0
   28.9655  -17.1124  -19.1295 C   0  0  0  0  0  0  0  0  0  0  0  0
   26.5988  -20.4219  -13.5457 N   0  0  0  0  0  0  0  0  0  0  0  0
   25.5773  -20.8841  -12.6328 C   0  0  1  0  0  0  0  0  0  0  0  0
   25.9907  -20.5099  -11.2293 C   0  0  0  0  0  0  0  0  0  0  0  0
   25.0493  -20.9698  -10.1995 C   0  0  0  0  0  0  0  0  0  0  0  0
   24.0255  -21.6587  -10.5075 O   0  0  0  0  0  0  0  0  0  0  0  0
   24.3121  -20.1652  -12.9049 C   0  0  0  0  0  0  0  0  0  0  0  0
   24.3221  -18.9179  -12.9424 O   0  0  0  0  0  0  0  0  0  0  0  0
   25.2602  -20.6613   -8.8756 O   0  0  0  0  0  0  0  0  0  0  0  0
   18.6681  -18.8208  -17.6446 C   0  0  0  0  0  0  0  0  0  0  0  0
   20.2099  -19.5111  -17.0936 S   0  0  0  0  0  0  0  0  0  0  0  0
   20.4279  -19.4700  -15.3206 C   0  0  0  0  0  0  0  0  0  0  0  0
   21.6668  -20.1090  -14.8144 C   0  0  0  0  0  0  0  0  0  0  0  0
   21.8755  -20.1418  -13.3448 C   0  0  2  0  0  0  0  0  0  0  0  0
   23.1282  -20.8868  -13.1152 N   0  0  0  0  0  0  0  0  0  0  0  0
   20.7944  -20.8869  -12.6378 C   0  0  0  0  0  0  0  0  0  0  0  0
   19.6243  -20.3620  -12.1730 O   0  0  0  0  0  0  0  0  0  0  0  0
   20.9858  -22.1347  -12.4540 O   0  0  0  0  0  0  0  0  0  0  0  0
  2  3  2  0
  2  1  1  0
  4  3  1  0
  5  4  2  0
  6  5  1  0
  7  6  1  0
  7  8  1  6
  9  7  1  0
  9 10  2  0
 11  5  1  0
 11 12  2  0
 12  2  1  0
 13  9  1  0
 14 13  1  0
 14 15  1  1
 16 15  1  0
 17 16  2  0
 18 14  1  0
 19 18  2  0
 20 16  1  0
 22 21  1  0
 23 22  1  0
 25 24  1  6
 24 23  1  0
 25 26  1  0
 26 18  1  0
 27 28  1  0
 27 25  1  0
 29 27  2  0
M  END
$$$$
