YDM.pdb
     RDKit          3D

 29 29  0  0  1  0  0  0  0  0999 V2000
   21.9042  -13.1216  -20.9634 O   0  0  0  0  0  0  0  0  0  0  0  0
   21.1398  -12.0741  -20.4291 C   0  0  0  0  0  0  0  0  0  0  0  0
   19.8344  -12.2921  -20.0273 C   0  0  0  0  0  0  0  0  0  0  0  0
   19.1056  -11.2376  -19.5037 C   0  0  0  0  0  0  0  0  0  0  0  0
   19.6232   -9.9665  -19.3616 C   0  0  0  0  0  0  0  0  0  0  0  0
   18.7581   -8.9322  -18.7955 C   0  0  0  0  0  0  0  0  0  0  0  0
   18.8557   -8.7807  -17.3177 C   0  0  2  0  0  0  0  0  0  0  0  0
   18.4838   -9.9346  -16.5617 N   0  0  0  0  0  0  0  0  0  0  0  0
   17.9860   -7.6131  -16.9313 C   0  0  0  0  0  0  0  0  0  0  0  0
   16.7611   -7.7936  -16.7113 O   0  0  0  0  0  0  0  0  0  0  0  0
   20.9249   -9.7585  -19.7647 C   0  0  0  0  0  0  0  0  0  0  0  0
   21.6577  -10.8036  -20.2873 C   0  0  0  0  0  0  0  0  0  0  0  0
   18.5070   -6.3086  -16.8068 N   0  0  0  0  0  0  0  0  0  0  0  0
   17.7438   -5.1519  -16.3945 C   0  0  1  0  0  0  0  0  0  0  0  0
   17.6132   -5.1811  -14.8902 C   0  0  0  0  0  0  0  0  0  0  0  0
   16.8386   -4.0568  -14.3478 C   0  0  0  0  0  0  0  0  0  0  0  0
   15.5677   -4.0918  -14.3139 O   0  0  0  0  0  0  0  0  0  0  0  0
   18.4962   -3.9212  -16.7279 C   0  0  0  0  0  0  0  0  0  0  0  0
   19.6913   -3.8311  -16.3806 O   0  0  0  0  0  0  0  0  0  0  0  0
   17.4788   -2.9393  -13.8643 O   0  0  0  0  0  0  0  0  0  0  0  0
   18.9325    0.5977  -22.7740 C   0  0  0  0  0  0  0  0  0  0  0  0
   17.9066    0.2134  -21.3750 S   0  0  0  0  0  0  0  0  0  0  0  0
   18.7964   -0.5033  -20.0011 C   0  0  0  0  0  0  0  0  0  0  0  0
   17.9546   -1.0235  -18.8965 C   0  0  0  0  0  0  0  0  0  0  0  0
   18.6421   -1.6711  -17.7510 C   0  0  2  0  0  0  0  0  0  0  0  0
   17.8634   -2.8809  -17.4235 N   0  0  0  0  0  0  0  0  0  0  0  0
   18.6385   -0.8123  -16.5319 C   0  0  0  0  0  0  0  0  0  0  0  0
   19.5815    0.1141  -16.1954 O   0  0  0  0  0  0  0  0  0  0  0  0
   17.6569   -0.9605  -15.7308 O   0  0  0  0  0  0  0  0  0  0  0  0
  2  3  2  0
  2  1  1  0
  4  3  1  0
  5  4  2  0
  6  5  1  0
  7  6  1  0
  7  8  1  1
  9  7  1  0
  9 10  2  0
 11  5  1  0
 11 12  2  0
 12  2  1  0
 13  9  1  0
 14 13  1  0
 14 15  1  1
 16 15  1  0
 17 16  2  0
 18 14  1  0
 19 18  2  0
 20 16  1  0
 22 21  1  0
 23 22  1  0
 25 24  1  6
 24 23  1  0
 25 26  1  0
 26 18  1  0
 27 28  1  0
 27 25  1  0
 29 27  2  0
M  END
$$$$
