YDM.pdb
     RDKit          3D

 29 29  0  0  1  0  0  0  0  0999 V2000
   29.3349  -19.9109   -4.9829 O   0  0  0  0  0  0  0  0  0  0  0  0
   28.5545  -20.1204   -6.1293 C   0  0  0  0  0  0  0  0  0  0  0  0
   27.3968  -19.3915   -6.3328 C   0  0  0  0  0  0  0  0  0  0  0  0
   26.6479  -19.6214   -7.4747 C   0  0  0  0  0  0  0  0  0  0  0  0
   27.0038  -20.5518   -8.4294 C   0  0  0  0  0  0  0  0  0  0  0  0
   26.1338  -20.7070   -9.5946 C   0  0  0  0  0  0  0  0  0  0  0  0
   26.8292  -21.1469  -10.8353 C   0  0  2  0  0  0  0  0  0  0  0  0
   27.9911  -20.3914  -11.1822 N   0  0  0  0  0  0  0  0  0  0  0  0
   25.8241  -21.0841  -11.9555 C   0  0  0  0  0  0  0  0  0  0  0  0
   25.5337  -19.9747  -12.4715 O   0  0  0  0  0  0  0  0  0  0  0  0
   28.1590  -21.2736   -8.2182 C   0  0  0  0  0  0  0  0  0  0  0  0
   28.9107  -21.0506   -7.0834 C   0  0  0  0  0  0  0  0  0  0  0  0
   25.1905  -22.2428  -12.4500 N   0  0  0  0  0  0  0  0  0  0  0  0
   24.3106  -22.2754  -13.5968 C   0  0  1  0  0  0  0  0  0  0  0  0
   24.4258  -23.6347  -14.2448 C   0  0  0  0  0  0  0  0  0  0  0  0
   23.5504  -23.8026  -15.4127 C   0  0  0  0  0  0  0  0  0  0  0  0
   22.8303  -22.8433  -15.8358 O   0  0  0  0  0  0  0  0  0  0  0  0
   22.9072  -22.1423  -13.1445 C   0  0  0  0  0  0  0  0  0  0  0  0
   22.5322  -22.7839  -12.1421 O   0  0  0  0  0  0  0  0  0  0  0  0
   23.4939  -25.0081  -16.0730 O   0  0  0  0  0  0  0  0  0  0  0  0
   19.6470  -16.7546  -14.4207 C   0  0  0  0  0  0  0  0  0  0  0  0
   18.5243  -17.5994  -13.3328 S   0  0  0  0  0  0  0  0  0  0  0  0
   18.9081  -19.3287  -13.0986 C   0  0  0  0  0  0  0  0  0  0  0  0
   20.2857  -19.7333  -13.4699 C   0  0  0  0  0  0  0  0  0  0  0  0
   20.6391  -21.1703  -13.3494 C   0  0  2  0  0  0  0  0  0  0  0  0
   22.0239  -21.3047  -13.8407 N   0  0  0  0  0  0  0  0  0  0  0  0
   19.7878  -22.0353  -14.2158 C   0  0  0  0  0  0  0  0  0  0  0  0
   18.5822  -22.5769  -13.8783 O   0  0  0  0  0  0  0  0  0  0  0  0
   20.2328  -22.2890  -15.3841 O   0  0  0  0  0  0  0  0  0  0  0  0
  2  3  2  0
  2  1  1  0
  4  3  1  0
  5  4  2  0
  6  5  1  0
  7  6  1  0
  7  8  1  6
  9  7  1  0
  9 10  2  0
 11  5  1  0
 11 12  2  0
 12  2  1  0
 13  9  1  0
 14 13  1  0
 14 15  1  1
 16 15  1  0
 17 16  2  0
 18 14  1  0
 19 18  2  0
 20 16  1  0
 22 21  1  0
 23 22  1  0
 25 24  1  6
 24 23  1  0
 25 26  1  0
 26 18  1  0
 27 28  1  0
 27 25  1  0
 29 27  2  0
M  END
$$$$
