YDM.pdb
     RDKit          3D

 29 29  0  0  1  0  0  0  0  0999 V2000
   30.7651  -29.3273  -18.8135 O   0  0  0  0  0  0  0  0  0  0  0  0
   29.6767  -29.8939  -18.1341 C   0  0  0  0  0  0  0  0  0  0  0  0
   29.8724  -30.9207  -17.2284 C   0  0  0  0  0  0  0  0  0  0  0  0
   28.7777  -31.4592  -16.5735 C   0  0  0  0  0  0  0  0  0  0  0  0
   27.4875  -31.0170  -16.7824 C   0  0  0  0  0  0  0  0  0  0  0  0
   26.4105  -31.6626  -16.0327 C   0  0  0  0  0  0  0  0  0  0  0  0
   25.9181  -32.9367  -16.6250 C   0  0  2  0  0  0  0  0  0  0  0  0
   25.0870  -32.7906  -17.7778 N   0  0  0  0  0  0  0  0  0  0  0  0
   25.1693  -33.6705  -15.5434 C   0  0  0  0  0  0  0  0  0  0  0  0
   23.9156  -33.7525  -15.5982 O   0  0  0  0  0  0  0  0  0  0  0  0
   27.3020  -29.9933  -17.6867 C   0  0  0  0  0  0  0  0  0  0  0  0
   28.3872  -29.4514  -18.3433 C   0  0  0  0  0  0  0  0  0  0  0  0
   25.8365  -34.2756  -14.4583 N   0  0  0  0  0  0  0  0  0  0  0  0
   25.1843  -34.9964  -13.3880 C   0  0  1  0  0  0  0  0  0  0  0  0
   26.0700  -36.1516  -12.9854 C   0  0  0  0  0  0  0  0  0  0  0  0
   25.4094  -37.1116  -12.0908 C   0  0  0  0  0  0  0  0  0  0  0  0
   24.2006  -36.9478  -11.7306 O   0  0  0  0  0  0  0  0  0  0  0  0
   25.0714  -34.1190  -12.2009 C   0  0  0  0  0  0  0  0  0  0  0  0
   25.8396  -33.1411  -12.0972 O   0  0  0  0  0  0  0  0  0  0  0  0
   26.0913  -38.2113  -11.6239 O   0  0  0  0  0  0  0  0  0  0  0  0
   20.3339  -32.4915   -6.0365 C   0  0  0  0  0  0  0  0  0  0  0  0
   20.7186  -33.4168   -7.5039 S   0  0  0  0  0  0  0  0  0  0  0  0
   22.3206  -33.0375   -8.1986 C   0  0  0  0  0  0  0  0  0  0  0  0
   22.6644  -33.7638   -9.4451 C   0  0  0  0  0  0  0  0  0  0  0  0
   23.9687  -33.4574  -10.0849 C   0  0  2  0  0  0  0  0  0  0  0  0
   24.1117  -34.3940  -11.2160 N   0  0  0  0  0  0  0  0  0  0  0  0
   25.1189  -33.7075   -9.1693 C   0  0  0  0  0  0  0  0  0  0  0  0
   25.6628  -34.9223   -8.8712 O   0  0  0  0  0  0  0  0  0  0  0  0
   25.6421  -32.6842   -8.6157 O   0  0  0  0  0  0  0  0  0  0  0  0
  2  3  2  0
  2  1  1  0
  4  3  1  0
  5  4  2  0
  6  5  1  0
  7  6  1  0
  7  8  1  6
  9  7  1  0
  9 10  2  0
 11  5  1  0
 11 12  2  0
 12  2  1  0
 13  9  1  0
 14 13  1  0
 14 15  1  1
 16 15  1  0
 17 16  2  0
 18 14  1  0
 19 18  2  0
 20 16  1  0
 22 21  1  0
 23 22  1  0
 25 24  1  1
 24 23  1  0
 25 26  1  0
 26 18  1  0
 27 28  1  0
 27 25  1  0
 29 27  2  0
M  END
$$$$
