YDM.pdb
     RDKit          3D

 29 29  0  0  1  0  0  0  0  0999 V2000
   14.8348  -13.1973  -18.1421 O   0  0  0  0  0  0  0  0  0  0  0  0
   15.6539  -12.2058  -17.5825 C   0  0  0  0  0  0  0  0  0  0  0  0
   16.7767  -11.7605  -18.2563 C   0  0  0  0  0  0  0  0  0  0  0  0
   17.5653  -10.7805  -17.6774 C   0  0  0  0  0  0  0  0  0  0  0  0
   17.2830  -10.2206  -16.4484 C   0  0  0  0  0  0  0  0  0  0  0  0
   18.1892   -9.1926  -15.9377 C   0  0  0  0  0  0  0  0  0  0  0  0
   19.5762   -9.6634  -15.6712 C   0  0  2  0  0  0  0  0  0  0  0  0
   19.6886  -10.7096  -14.7048 N   0  0  0  0  0  0  0  0  0  0  0  0
   20.3750   -8.4665  -15.2257 C   0  0  0  0  0  0  0  0  0  0  0  0
   20.3398   -8.1064  -14.0214 O   0  0  0  0  0  0  0  0  0  0  0  0
   16.1621  -10.6705  -15.7841 C   0  0  0  0  0  0  0  0  0  0  0  0
   15.3712  -11.6464  -16.3538 C   0  0  0  0  0  0  0  0  0  0  0  0
   21.1703   -7.7281  -16.1262 N   0  0  0  0  0  0  0  0  0  0  0  0
   21.9864   -6.5910  -15.7637 C   0  0  1  0  0  0  0  0  0  0  0  0
   23.3082   -6.7063  -16.4852 C   0  0  0  0  0  0  0  0  0  0  0  0
   24.1330   -7.8295  -16.0199 C   0  0  0  0  0  0  0  0  0  0  0  0
   24.2273   -8.1053  -14.7819 O   0  0  0  0  0  0  0  0  0  0  0  0
   21.3462   -5.3493  -16.2538 C   0  0  0  0  0  0  0  0  0  0  0  0
   20.8203   -5.3469  -17.3853 O   0  0  0  0  0  0  0  0  0  0  0  0
   24.8222   -8.6074  -16.9212 O   0  0  0  0  0  0  0  0  0  0  0  0
   18.7544    1.7747  -13.9193 C   0  0  0  0  0  0  0  0  0  0  0  0
   19.5199    0.2082  -13.5764 S   0  0  0  0  0  0  0  0  0  0  0  0
   19.8584   -0.7659  -15.0356 C   0  0  0  0  0  0  0  0  0  0  0  0
   20.4379   -2.1083  -14.7872 C   0  0  0  0  0  0  0  0  0  0  0  0
   20.6891   -2.9798  -15.9626 C   0  0  2  0  0  0  0  0  0  0  0  0
   21.3382   -4.2011  -15.4486 N   0  0  0  0  0  0  0  0  0  0  0  0
   21.6392   -2.3609  -16.9312 C   0  0  0  0  0  0  0  0  0  0  0  0
   23.0009   -2.4134  -16.8704 O   0  0  0  0  0  0  0  0  0  0  0  0
   21.1247   -1.7241  -17.9095 O   0  0  0  0  0  0  0  0  0  0  0  0
  2  3  2  0
  2  1  1  0
  4  3  1  0
  5  4  2  0
  6  5  1  0
  7  6  1  0
  7  8  1  1
  9  7  1  0
  9 10  2  0
 11  5  1  0
 11 12  2  0
 12  2  1  0
 13  9  1  0
 14 13  1  0
 14 15  1  6
 16 15  1  0
 17 16  2  0
 18 14  1  0
 19 18  2  0
 20 16  1  0
 22 21  1  0
 23 22  1  0
 25 24  1  1
 24 23  1  0
 25 26  1  0
 26 18  1  0
 27 28  1  0
 27 25  1  0
 29 27  2  0
M  END
$$$$
