APA.pdb
     RDKit          3D

 18 18  0  0  1  0  0  0  0  0999 V2000
    7.9500  -16.5373   16.2798 C   0  0  0  0  0  0  0  0  0  0  0  0
    8.9341  -15.3783   16.2417 C   0  0  2  0  0  0  0  0  0  0  0  0
    9.9358  -15.5639   15.2208 N   0  0  0  0  0  0  0  0  0  0  0  0
    9.4946  -15.1790   17.5931 C   0  0  0  0  0  0  0  0  0  0  0  0
   10.6291  -15.7032   17.7960 O   0  0  0  0  0  0  0  0  0  0  0  0
    8.8598  -14.4612   18.6406 N   0  0  0  0  0  0  0  0  0  0  0  0
    7.5326  -13.8465   18.4620 C   0  0  0  0  0  0  0  0  0  0  0  0
    7.6308  -12.5949   19.3181 C   0  0  0  0  0  0  0  0  0  0  0  0
    8.3536  -13.1413   20.5167 C   0  0  0  0  0  0  0  0  0  0  0  0
    9.2794  -14.1802   19.9681 C   0  0  1  0  0  0  0  0  0  0  0  0
    9.2658  -15.4161   20.8335 C   0  0  0  0  0  0  0  0  0  0  0  0
    8.3764  -16.2836   20.7345 O   0  0  0  0  0  0  0  0  0  0  0  0
   12.0071  -17.0136   22.5846 C   0  0  0  0  0  0  0  0  0  0  0  0
   10.5169  -16.7429   22.5692 C   0  0  2  0  0  0  0  0  0  0  0  0
   10.3186  -15.5442   21.7694 N   0  0  0  0  0  0  0  0  0  0  0  0
   10.1012  -16.4009   23.9658 C   0  0  0  0  0  0  0  0  0  0  0  0
   10.1066  -17.3329   24.9947 O   0  0  0  0  0  0  0  0  0  0  0  0
    9.7211  -15.2257   24.2698 O   0  0  0  0  0  0  0  0  0  0  0  0
  2  1  1  1
  3  2  1  0
  4  2  1  0
  5  4  2  0
  6  4  1  0
  6  7  1  0
  7  8  1  0
  9  8  1  0
 10 11  1  1
 10  9  1  0
 10  6  1  0
 11 12  2  0
 14 13  1  1
 14 16  1  0
 15 14  1  0
 15 11  1  0
 16 18  2  0
 16 17  1  0
M  END
$$$$
