APA.pdb
     RDKit          3D

 18 18  0  0  1  0  0  0  0  0999 V2000
    6.2019  -14.8433   22.1673 C   0  0  0  0  0  0  0  0  0  0  0  0
    7.1779  -13.6790   22.2374 C   0  0  2  0  0  0  0  0  0  0  0  0
    7.9316  -13.5418   21.0155 N   0  0  0  0  0  0  0  0  0  0  0  0
    8.0208  -13.8301   23.4402 C   0  0  0  0  0  0  0  0  0  0  0  0
    9.1939  -14.2595   23.2340 O   0  0  0  0  0  0  0  0  0  0  0  0
    7.6089  -13.5340   24.7661 N   0  0  0  0  0  0  0  0  0  0  0  0
    6.2956  -12.9292   25.0502 C   0  0  0  0  0  0  0  0  0  0  0  0
    6.5913  -12.0477   26.2521 C   0  0  0  0  0  0  0  0  0  0  0  0
    7.4928  -12.9555   27.0399 C   0  0  0  0  0  0  0  0  0  0  0  0
    8.2667  -13.7176   26.0115 C   0  0  1  0  0  0  0  0  0  0  0  0
    8.3587  -15.1760   26.3869 C   0  0  0  0  0  0  0  0  0  0  0  0
    7.3872  -15.9495   26.2805 O   0  0  0  0  0  0  0  0  0  0  0  0
   11.2270  -17.3456   26.5429 C   0  0  0  0  0  0  0  0  0  0  0  0
    9.8810  -17.0263   27.1600 C   0  0  2  0  0  0  0  0  0  0  0  0
    9.6097  -15.6271   26.8689 N   0  0  0  0  0  0  0  0  0  0  0  0
   10.0232  -17.1361   28.6459 C   0  0  0  0  0  0  0  0  0  0  0  0
   10.2056  -18.3524   29.2896 O   0  0  0  0  0  0  0  0  0  0  0  0
    9.9819  -16.1042   29.3886 O   0  0  0  0  0  0  0  0  0  0  0  0
  2  1  1  6
  3  2  1  0
  4  2  1  0
  5  4  2  0
  6  4  1  0
  6  7  1  0
  7  8  1  0
  9  8  1  0
 10 11  1  1
 10  9  1  0
 10  6  1  0
 11 12  2  0
 14 13  1  6
 14 16  1  0
 15 14  1  0
 15 11  1  0
 16 18  2  0
 16 17  1  0
M  END
$$$$
