APA.pdb
     RDKit          3D

 18 18  0  0  1  0  0  0  0  0999 V2000
    6.6380  -17.8289   19.4682 C   0  0  0  0  0  0  0  0  0  0  0  0
    7.7984  -16.9462   19.0351 C   0  0  2  0  0  0  0  0  0  0  0  0
    8.4981  -17.5039   17.9040 N   0  0  0  0  0  0  0  0  0  0  0  0
    8.6668  -16.6876   20.2009 C   0  0  0  0  0  0  0  0  0  0  0  0
    9.7208  -17.3865   20.2618 O   0  0  0  0  0  0  0  0  0  0  0  0
    8.3996  -15.7370   21.2208 N   0  0  0  0  0  0  0  0  0  0  0  0
    7.1758  -14.9162   21.2104 C   0  0  0  0  0  0  0  0  0  0  0  0
    7.6529  -13.6049   21.8121 C   0  0  0  0  0  0  0  0  0  0  0  0
    8.5334  -14.1170   22.9167 C   0  0  0  0  0  0  0  0  0  0  0  0
    9.1433  -15.3703   22.3739 C   0  0  1  0  0  0  0  0  0  0  0  0
    9.1353  -16.4613   23.4161 C   0  0  0  0  0  0  0  0  0  0  0  0
    8.0962  -17.0790   23.7196 O   0  0  0  0  0  0  0  0  0  0  0  0
   11.8290  -18.5723   24.5265 C   0  0  0  0  0  0  0  0  0  0  0  0
   10.5514  -17.8742   24.9446 C   0  0  2  0  0  0  0  0  0  0  0  0
   10.3726  -16.7518   24.0369 N   0  0  0  0  0  0  0  0  0  0  0  0
   10.7736  -17.2942   26.3064 C   0  0  0  0  0  0  0  0  0  0  0  0
   10.8765  -18.0820   27.4447 O   0  0  0  0  0  0  0  0  0  0  0  0
   10.8784  -16.0380   26.4771 O   0  0  0  0  0  0  0  0  0  0  0  0
  2  1  1  1
  3  2  1  0
  4  2  1  0
  5  4  2  0
  6  4  1  0
  6  7  1  0
  7  8  1  0
  9  8  1  0
 10 11  1  1
 10  9  1  0
 10  6  1  0
 11 12  2  0
 14 13  1  6
 14 16  1  0
 15 14  1  0
 15 11  1  0
 16 18  2  0
 16 17  1  0
M  END
$$$$
