APA.pdb
     RDKit          3D

 18 18  0  0  1  0  0  0  0  0999 V2000
    6.2433  -15.2409   22.4879 C   0  0  0  0  0  0  0  0  0  0  0  0
    7.1859  -14.0486   22.4346 C   0  0  2  0  0  0  0  0  0  0  0  0
    7.9238  -14.0083   21.1961 N   0  0  0  0  0  0  0  0  0  0  0  0
    8.0442  -14.0603   23.6360 C   0  0  0  0  0  0  0  0  0  0  0  0
    9.2119  -14.5200   23.4679 O   0  0  0  0  0  0  0  0  0  0  0  0
    7.6520  -13.6040   24.9218 N   0  0  0  0  0  0  0  0  0  0  0  0
    6.2929  -13.0966   25.1801 C   0  0  0  0  0  0  0  0  0  0  0  0
    6.5367  -12.0136   26.2178 C   0  0  0  0  0  0  0  0  0  0  0  0
    7.5583  -12.6932   27.0851 C   0  0  0  0  0  0  0  0  0  0  0  0
    8.3708  -13.5250   26.1443 C   0  0  1  0  0  0  0  0  0  0  0  0
    8.6317  -14.8907   26.7302 C   0  0  0  0  0  0  0  0  0  0  0  0
    7.7591  -15.7804   26.7492 O   0  0  0  0  0  0  0  0  0  0  0  0
   11.7676  -16.6226   27.2321 C   0  0  0  0  0  0  0  0  0  0  0  0
   10.3582  -16.4151   27.7468 C   0  0  2  0  0  0  0  0  0  0  0  0
    9.9236  -15.1148   27.2608 N   0  0  0  0  0  0  0  0  0  0  0  0
   10.4279  -16.3147   29.2385 C   0  0  0  0  0  0  0  0  0  0  0  0
   10.7108  -17.4071   30.0470 O   0  0  0  0  0  0  0  0  0  0  0  0
   10.2276  -15.2082   29.8333 O   0  0  0  0  0  0  0  0  0  0  0  0
  2  1  1  6
  3  2  1  0
  4  2  1  0
  5  4  2  0
  6  4  1  0
  6  7  1  0
  7  8  1  0
  9  8  1  0
 10 11  1  1
 10  9  1  0
 10  6  1  0
 11 12  2  0
 14 13  1  6
 14 16  1  0
 15 14  1  0
 15 11  1  0
 16 18  2  0
 16 17  1  0
M  END
$$$$
