APA.pdb
     RDKit          3D

 18 18  0  0  1  0  0  0  0  0999 V2000
    6.3384  -14.3148   20.6772 C   0  0  0  0  0  0  0  0  0  0  0  0
    7.2738  -13.1850   21.0792 C   0  0  2  0  0  0  0  0  0  0  0  0
    8.0991  -12.7591   19.9758 N   0  0  0  0  0  0  0  0  0  0  0  0
    8.0429  -13.5985   22.2699 C   0  0  0  0  0  0  0  0  0  0  0  0
    9.2272  -13.9866   22.0468 O   0  0  0  0  0  0  0  0  0  0  0  0
    7.5511  -13.5876   23.6016 N   0  0  0  0  0  0  0  0  0  0  0  0
    6.1821  -13.1423   23.9159 C   0  0  0  0  0  0  0  0  0  0  0  0
    6.3530  -12.4842   25.2749 C   0  0  0  0  0  0  0  0  0  0  0  0
    7.2897  -13.4577   25.9325 C   0  0  0  0  0  0  0  0  0  0  0  0
    8.1666  -13.9553   24.8277 C   0  0  1  0  0  0  0  0  0  0  0  0
    8.3597  -15.4480   24.9321 C   0  0  0  0  0  0  0  0  0  0  0  0
    7.4736  -16.2555   24.5913 O   0  0  0  0  0  0  0  0  0  0  0  0
   11.3770  -17.4159   24.9866 C   0  0  0  0  0  0  0  0  0  0  0  0
    9.9637  -17.2979   25.5185 C   0  0  2  0  0  0  0  0  0  0  0  0
    9.6038  -15.8907   25.4391 N   0  0  0  0  0  0  0  0  0  0  0  0
    9.9927  -17.6523   26.9724 C   0  0  0  0  0  0  0  0  0  0  0  0
   10.2343  -18.9438   27.4203 O   0  0  0  0  0  0  0  0  0  0  0  0
    9.7942  -16.7713   27.8682 O   0  0  0  0  0  0  0  0  0  0  0  0
  2  1  1  6
  3  2  1  0
  4  2  1  0
  5  4  2  0
  6  4  1  0
  6  7  1  0
  7  8  1  0
  9  8  1  0
 10 11  1  6
 10  9  1  0
 10  6  1  0
 11 12  2  0
 14 13  1  1
 14 16  1  0
 15 14  1  0
 15 11  1  0
 16 18  2  0
 16 17  1  0
M  END
$$$$
