APA.pdb
     RDKit          3D

 18 18  0  0  1  0  0  0  0  0999 V2000
    6.8224  -16.7863   17.6176 C   0  0  0  0  0  0  0  0  0  0  0  0
    7.9687  -16.0461   16.9457 C   0  0  2  0  0  0  0  0  0  0  0  0
    8.5423  -16.8171   15.8703 N   0  0  0  0  0  0  0  0  0  0  0  0
    8.9483  -15.6421   17.9739 C   0  0  0  0  0  0  0  0  0  0  0  0
    9.9564  -16.3986   18.0942 O   0  0  0  0  0  0  0  0  0  0  0  0
    8.8309  -14.4978   18.8059 N   0  0  0  0  0  0  0  0  0  0  0  0
    7.6608  -13.6053   18.7315 C   0  0  0  0  0  0  0  0  0  0  0  0
    8.2659  -12.2428   19.0256 C   0  0  0  0  0  0  0  0  0  0  0  0
    9.2128  -12.5998   20.1362 C   0  0  0  0  0  0  0  0  0  0  0  0
    9.6971  -13.9751   19.8029 C   0  0  1  0  0  0  0  0  0  0  0  0
    9.7215  -14.8446   21.0357 C   0  0  0  0  0  0  0  0  0  0  0  0
    8.6782  -15.2877   21.5539 O   0  0  0  0  0  0  0  0  0  0  0  0
   11.1097  -17.4728   22.0223 C   0  0  0  0  0  0  0  0  0  0  0  0
   11.1894  -16.0977   22.6523 C   0  0  2  0  0  0  0  0  0  0  0  0
   10.9947  -15.1350   21.5794 N   0  0  0  0  0  0  0  0  0  0  0  0
   12.5868  -15.9059   23.1530 C   0  0  0  0  0  0  0  0  0  0  0  0
   13.4640  -14.9928   22.5840 O   0  0  0  0  0  0  0  0  0  0  0  0
   13.0325  -16.5820   24.1341 O   0  0  0  0  0  0  0  0  0  0  0  0
  2  1  1  1
  3  2  1  0
  4  2  1  0
  5  4  2  0
  6  4  1  0
  6  7  1  0
  7  8  1  0
  9  8  1  0
 10 11  1  1
 10  9  1  0
 10  6  1  0
 11 12  2  0
 14 13  1  6
 14 16  1  0
 15 14  1  0
 15 11  1  0
 16 18  2  0
 16 17  1  0
M  END
$$$$
