APA.pdb
     RDKit          3D

 18 18  0  0  1  0  0  0  0  0999 V2000
    6.9859  -17.4314   17.7987 C   0  0  0  0  0  0  0  0  0  0  0  0
    8.0529  -16.4682   17.3017 C   0  0  2  0  0  0  0  0  0  0  0  0
    8.8491  -17.0522   16.2505 N   0  0  0  0  0  0  0  0  0  0  0  0
    8.8465  -15.9943   18.4531 C   0  0  0  0  0  0  0  0  0  0  0  0
    9.9508  -16.5862   18.6353 O   0  0  0  0  0  0  0  0  0  0  0  0
    8.4588  -14.9527   19.3363 N   0  0  0  0  0  0  0  0  0  0  0  0
    7.2014  -14.2079   19.1476 C   0  0  0  0  0  0  0  0  0  0  0  0
    7.5689  -12.8133   19.6262 C   0  0  0  0  0  0  0  0  0  0  0  0
    8.3880  -13.1494   20.8401 C   0  0  0  0  0  0  0  0  0  0  0  0
    9.0959  -14.4191   20.4881 C   0  0  1  0  0  0  0  0  0  0  0  0
    9.0623  -15.3863   21.6456 C   0  0  0  0  0  0  0  0  0  0  0  0
    8.0306  -16.0140   21.9539 O   0  0  0  0  0  0  0  0  0  0  0  0
   11.9306  -16.9186   23.3833 C   0  0  0  0  0  0  0  0  0  0  0  0
   10.4512  -16.5942   23.3632 C   0  0  2  0  0  0  0  0  0  0  0  0
   10.2666  -15.5480   22.3697 N   0  0  0  0  0  0  0  0  0  0  0  0
   10.0978  -15.9952   24.6886 C   0  0  0  0  0  0  0  0  0  0  0  0
    9.7160  -14.6679   24.8289 O   0  0  0  0  0  0  0  0  0  0  0  0
   10.1338  -16.6886   25.7544 O   0  0  0  0  0  0  0  0  0  0  0  0
  2  1  1  1
  3  2  1  0
  4  2  1  0
  5  4  2  0
  6  4  1  0
  6  7  1  0
  7  8  1  0
  9  8  1  0
 10 11  1  1
 10  9  1  0
 10  6  1  0
 11 12  2  0
 14 13  1  1
 14 16  1  0
 15 14  1  0
 15 11  1  0
 16 18  2  0
 16 17  1  0
M  END
$$$$
