APA.pdb
     RDKit          3D

 18 18  0  0  1  0  0  0  0  0999 V2000
    7.0643  -17.4540   18.0282 C   0  0  0  0  0  0  0  0  0  0  0  0
    8.1472  -16.5039   17.5405 C   0  0  2  0  0  0  0  0  0  0  0  0
    8.9978  -17.1265   16.5563 N   0  0  0  0  0  0  0  0  0  0  0  0
    8.8803  -15.9716   18.7064 C   0  0  0  0  0  0  0  0  0  0  0  0
    9.9750  -16.5493   18.9727 O   0  0  0  0  0  0  0  0  0  0  0  0
    8.4462  -14.8903   19.5174 N   0  0  0  0  0  0  0  0  0  0  0  0
    7.2380  -14.1139   19.1878 C   0  0  0  0  0  0  0  0  0  0  0  0
    7.6055  -12.7163   19.6577 C   0  0  0  0  0  0  0  0  0  0  0  0
    8.2946  -13.0377   20.9537 C   0  0  0  0  0  0  0  0  0  0  0  0
    8.9895  -14.3393   20.7084 C   0  0  1  0  0  0  0  0  0  0  0  0
    8.8142  -15.2667   21.8855 C   0  0  0  0  0  0  0  0  0  0  0  0
    7.7177  -15.7945   22.1548 O   0  0  0  0  0  0  0  0  0  0  0  0
   11.3092  -17.2517   23.5853 C   0  0  0  0  0  0  0  0  0  0  0  0
    9.9936  -16.5146   23.7268 C   0  0  2  0  0  0  0  0  0  0  0  0
    9.9624  -15.5104   22.6749 N   0  0  0  0  0  0  0  0  0  0  0  0
   10.0236  -15.7737   25.0270 C   0  0  0  0  0  0  0  0  0  0  0  0
   10.0386  -14.3873   25.0950 O   0  0  0  0  0  0  0  0  0  0  0  0
   10.0368  -16.3942   26.1374 O   0  0  0  0  0  0  0  0  0  0  0  0
  2  1  1  1
  3  2  1  0
  4  2  1  0
  5  4  2  0
  6  4  1  0
  6  7  1  0
  7  8  1  0
  9  8  1  0
 10 11  1  1
 10  9  1  0
 10  6  1  0
 11 12  2  0
 14 13  1  6
 14 16  1  0
 15 14  1  0
 15 11  1  0
 16 18  2  0
 16 17  1  0
M  END
$$$$
