APA.pdb
     RDKit          3D

 18 18  0  0  1  0  0  0  0  0999 V2000
    7.1807  -17.5731   17.8240 C   0  0  0  0  0  0  0  0  0  0  0  0
    8.1180  -16.5037   17.2845 C   0  0  2  0  0  0  0  0  0  0  0  0
    8.8922  -16.9882   16.1684 N   0  0  0  0  0  0  0  0  0  0  0  0
    8.9400  -15.9809   18.3941 C   0  0  0  0  0  0  0  0  0  0  0  0
   10.0978  -16.4824   18.4986 O   0  0  0  0  0  0  0  0  0  0  0  0
    8.5242  -14.9860   19.3174 N   0  0  0  0  0  0  0  0  0  0  0  0
    7.2477  -14.2677   19.1564 C   0  0  0  0  0  0  0  0  0  0  0  0
    7.5780  -12.8841   19.6909 C   0  0  0  0  0  0  0  0  0  0  0  0
    8.4048  -13.2468   20.8920 C   0  0  0  0  0  0  0  0  0  0  0  0
    9.1462  -14.4823   20.4908 C   0  0  1  0  0  0  0  0  0  0  0  0
    9.1373  -15.4955   21.6087 C   0  0  0  0  0  0  0  0  0  0  0  0
    8.1423  -16.2064   21.8497 O   0  0  0  0  0  0  0  0  0  0  0  0
   12.0254  -16.8503   23.4755 C   0  0  0  0  0  0  0  0  0  0  0  0
   10.5281  -16.6523   23.3596 C   0  0  2  0  0  0  0  0  0  0  0  0
   10.3209  -15.6009   22.3761 N   0  0  0  0  0  0  0  0  0  0  0  0
   10.0362  -16.1188   24.6687 C   0  0  0  0  0  0  0  0  0  0  0  0
    9.9683  -16.9002   25.8141 O   0  0  0  0  0  0  0  0  0  0  0  0
    9.6552  -14.9108   24.7852 O   0  0  0  0  0  0  0  0  0  0  0  0
  2  1  1  1
  3  2  1  0
  4  2  1  0
  5  4  2  0
  6  4  1  0
  6  7  1  0
  7  8  1  0
  9  8  1  0
 10 11  1  1
 10  9  1  0
 10  6  1  0
 11 12  2  0
 14 13  1  1
 14 16  1  0
 15 14  1  0
 15 11  1  0
 16 18  2  0
 16 17  1  0
M  END
$$$$
