KYC.pdb
     RDKit          3D

 28 28  0  0  1  0  0  0  0  0999 V2000
   17.6312  -22.1300  -10.8156 N   0  0  0  0  0  0  0  0  0  0  0  0
   18.8245  -22.7497  -11.3511 C   0  0  1  0  0  0  0  0  0  0  0  0
   18.5972  -24.1576  -11.8417 C   0  0  0  0  0  0  0  0  0  0  0  0
   18.8507  -25.1632  -10.7895 C   0  0  0  0  0  0  0  0  0  0  0  0
   18.1222  -25.0278   -9.5082 C   0  0  0  0  0  0  0  0  0  0  0  0
   18.3661  -26.1538   -8.5367 C   0  0  0  0  0  0  0  0  0  0  0  0
   17.8376  -25.7224   -7.2497 N   0  0  0  0  0  0  0  0  0  0  0  0
   19.2596  -21.9421  -12.5258 C   0  0  0  0  0  0  0  0  0  0  0  0
   18.4146  -21.2105  -13.1524 O   0  0  0  0  0  0  0  0  0  0  0  0
   23.8964  -16.4134  -17.6042 O   0  0  0  0  0  0  0  0  0  0  0  0
   23.4666  -17.3264  -16.6616 C   0  0  0  0  0  0  0  0  0  0  0  0
   24.1868  -18.4485  -16.3089 C   0  0  0  0  0  0  0  0  0  0  0  0
   23.6829  -19.3293  -15.3418 C   0  0  0  0  0  0  0  0  0  0  0  0
   22.4689  -19.0901  -14.7324 C   0  0  0  0  0  0  0  0  0  0  0  0
   21.9584  -20.0017  -13.7437 C   0  0  0  0  0  0  0  0  0  0  0  0
   20.9492  -21.0085  -14.1213 C   0  0  2  0  0  0  0  0  0  0  0  0
   20.5818  -21.9085  -13.0369 N   0  0  0  0  0  0  0  0  0  0  0  0
   21.5572  -21.8906  -15.1882 C   0  0  0  0  0  0  0  0  0  0  0  0
   22.3247  -22.8463  -14.9105 O   0  0  0  0  0  0  0  0  0  0  0  0
   21.7798  -17.9674  -15.1057 C   0  0  0  0  0  0  0  0  0  0  0  0
   22.2394  -17.0755  -16.0521 C   0  0  0  0  0  0  0  0  0  0  0  0
   21.2442  -21.6220  -16.5458 N   0  0  0  0  0  0  0  0  0  0  0  0
   21.8569  -22.3843  -17.6113 C   0  0  1  0  0  0  0  0  0  0  0  0
   20.8326  -23.3865  -18.1003 C   0  0  0  0  0  0  0  0  0  0  0  0
   21.4202  -24.2414  -19.5891 S   0  0  0  0  0  0  0  0  0  0  0  0
   22.3658  -21.5255  -18.6814 C   0  0  0  0  0  0  0  0  0  0  0  0
   23.1302  -21.9358  -19.5771 O   0  0  0  0  0  0  0  0  0  0  0  0
   21.9888  -20.1924  -18.7126 O   0  0  0  0  0  0  0  0  0  0  0  0
  2  1  1  6
  3  2  1  0
  4  3  1  0
  5  4  1  0
  5  6  1  0
  7  6  1  0
  8  2  1  0
  8  9  2  0
 10 11  1  0
 11 12  2  0
 12 13  1  0
 14 13  2  0
 14 15  1  0
 16 15  1  1
 16 17  1  0
 17  8  1  0
 18 16  1  0
 19 18  2  0
 20 14  1  0
 21 11  1  0
 21 20  2  0
 22 18  1  0
 23 26  1  0
 23 22  1  0
 23 24  1  6
 25 24  1  0
 26 28  1  0
 27 26  2  0
M  END
$$$$
