KYC.pdb
     RDKit          3D

 28 28  0  0  1  0  0  0  0  0999 V2000
   28.3517  -22.2488  -15.8921 N   0  0  0  0  0  0  0  0  0  0  0  0
   27.6643  -21.0155  -15.5744 C   0  0  1  0  0  0  0  0  0  0  0  0
   26.9779  -20.3913  -16.7634 C   0  0  0  0  0  0  0  0  0  0  0  0
   27.9405  -19.8172  -17.7259 C   0  0  0  0  0  0  0  0  0  0  0  0
   28.3597  -20.6535  -18.8729 C   0  0  0  0  0  0  0  0  0  0  0  0
   29.2904  -19.9612  -19.8350 C   0  0  0  0  0  0  0  0  0  0  0  0
   29.7352  -20.9675  -20.7896 N   0  0  0  0  0  0  0  0  0  0  0  0
   26.6047  -21.3377  -14.5770 C   0  0  0  0  0  0  0  0  0  0  0  0
   26.0454  -22.4907  -14.5819 O   0  0  0  0  0  0  0  0  0  0  0  0
   29.4658  -21.0283   -7.7488 O   0  0  0  0  0  0  0  0  0  0  0  0
   28.3940  -20.7828   -8.5841 C   0  0  0  0  0  0  0  0  0  0  0  0
   27.1827  -20.2949   -8.1403 C   0  0  0  0  0  0  0  0  0  0  0  0
   26.1411  -20.0713   -9.0514 C   0  0  0  0  0  0  0  0  0  0  0  0
   26.3091  -20.3335  -10.3951 C   0  0  0  0  0  0  0  0  0  0  0  0
   25.2331  -20.1042  -11.3217 C   0  0  0  0  0  0  0  0  0  0  0  0
   25.1680  -20.8716  -12.5794 C   0  0  2  0  0  0  0  0  0  0  0  0
   26.1371  -20.4453  -13.5794 N   0  0  0  0  0  0  0  0  0  0  0  0
   23.8123  -20.6216  -13.2003 C   0  0  0  0  0  0  0  0  0  0  0  0
   23.6055  -19.6740  -13.9995 O   0  0  0  0  0  0  0  0  0  0  0  0
   27.5238  -20.8170  -10.8019 C   0  0  0  0  0  0  0  0  0  0  0  0
   28.5742  -21.0509   -9.9391 C   0  0  0  0  0  0  0  0  0  0  0  0
   22.7439  -21.4923  -12.8627 N   0  0  0  0  0  0  0  0  0  0  0  0
   21.4190  -21.2821  -13.4032 C   0  0  1  0  0  0  0  0  0  0  0  0
   21.1383  -22.4123  -14.3709 C   0  0  0  0  0  0  0  0  0  0  0  0
   19.4213  -22.3555  -14.9550 S   0  0  0  0  0  0  0  0  0  0  0  0
   20.4063  -21.1703  -12.3527 C   0  0  0  0  0  0  0  0  0  0  0  0
   19.3114  -20.5980  -12.5218 O   0  0  0  0  0  0  0  0  0  0  0  0
   20.6632  -21.7214  -11.1075 O   0  0  0  0  0  0  0  0  0  0  0  0
  2  1  1  6
  3  2  1  0
  4  3  1  0
  5  4  1  0
  5  6  1  0
  7  6  1  0
  8  2  1  0
  8  9  2  0
 10 11  1  0
 11 12  2  0
 12 13  1  0
 14 13  2  0
 14 15  1  0
 16 15  1  1
 16 17  1  0
 17  8  1  0
 18 16  1  0
 19 18  2  0
 20 14  1  0
 21 11  1  0
 21 20  2  0
 22 18  1  0
 23 26  1  0
 23 22  1  0
 23 24  1  6
 25 24  1  0
 26 28  1  0
 27 26  2  0
M  END
$$$$
