KYC.pdb
     RDKit          3D

 28 28  0  0  1  0  0  0  0  0999 V2000
   21.0792  -21.8821  -12.8359 N   0  0  0  0  0  0  0  0  0  0  0  0
   22.3443  -22.3974  -13.3143 C   0  0  1  0  0  0  0  0  0  0  0  0
   22.4747  -22.3592  -14.8164 C   0  0  0  0  0  0  0  0  0  0  0  0
   21.9200  -23.5700  -15.4559 C   0  0  0  0  0  0  0  0  0  0  0  0
   22.6642  -24.8402  -15.3027 C   0  0  0  0  0  0  0  0  0  0  0  0
   22.0609  -26.0035  -16.0470 C   0  0  0  0  0  0  0  0  0  0  0  0
   22.9794  -27.1238  -15.8948 N   0  0  0  0  0  0  0  0  0  0  0  0
   23.4203  -21.5279  -12.7597 C   0  0  0  0  0  0  0  0  0  0  0  0
   23.2179  -20.2719  -12.6064 O   0  0  0  0  0  0  0  0  0  0  0  0
   27.9691  -19.3325   -6.1419 O   0  0  0  0  0  0  0  0  0  0  0  0
   27.6261  -19.8862   -7.3594 C   0  0  0  0  0  0  0  0  0  0  0  0
   26.3290  -19.9539   -7.8233 C   0  0  0  0  0  0  0  0  0  0  0  0
   26.0606  -20.5319   -9.0719 C   0  0  0  0  0  0  0  0  0  0  0  0
   27.0806  -21.0381   -9.8502 C   0  0  0  0  0  0  0  0  0  0  0  0
   26.7949  -21.6325  -11.1285 C   0  0  0  0  0  0  0  0  0  0  0  0
   25.7570  -21.0474  -11.9975 C   0  0  2  0  0  0  0  0  0  0  0  0
   24.7051  -21.9833  -12.3697 N   0  0  0  0  0  0  0  0  0  0  0  0
   26.4181  -20.6470  -13.2969 C   0  0  0  0  0  0  0  0  0  0  0  0
   26.6969  -21.4834  -14.1927 O   0  0  0  0  0  0  0  0  0  0  0  0
   28.3564  -20.9549   -9.3599 C   0  0  0  0  0  0  0  0  0  0  0  0
   28.6637  -20.3944   -8.1376 C   0  0  0  0  0  0  0  0  0  0  0  0
   26.7301  -19.2781  -13.5023 N   0  0  0  0  0  0  0  0  0  0  0  0
   26.9908  -18.7698  -14.8310 C   0  0  1  0  0  0  0  0  0  0  0  0
   26.5415  -17.3242  -14.8610 C   0  0  0  0  0  0  0  0  0  0  0  0
   27.4640  -16.3325  -13.6535 S   0  0  0  0  0  0  0  0  0  0  0  0
   28.3917  -18.9365  -15.2200 C   0  0  0  0  0  0  0  0  0  0  0  0
   29.2748  -19.3270  -14.4309 O   0  0  0  0  0  0  0  0  0  0  0  0
   28.7682  -18.6504  -16.5226 O   0  0  0  0  0  0  0  0  0  0  0  0
  2  1  1  6
  3  2  1  0
  4  3  1  0
  5  4  1  0
  5  6  1  0
  7  6  1  0
  8  2  1  0
  8  9  2  0
 10 11  1  0
 11 12  2  0
 12 13  1  0
 14 13  2  0
 14 15  1  0
 16 15  1  1
 16 17  1  0
 17  8  1  0
 18 16  1  0
 19 18  2  0
 20 14  1  0
 21 11  1  0
 21 20  2  0
 22 18  1  0
 23 26  1  0
 23 22  1  0
 23 24  1  1
 25 24  1  0
 26 28  1  0
 27 26  2  0
M  END
$$$$
