KYC.pdb
     RDKit          3D

 28 28  0  0  1  0  0  0  0  0999 V2000
   28.7291  -26.9664  -17.0176 N   0  0  0  0  0  0  0  0  0  0  0  0
   28.3762  -25.5969  -16.7100 C   0  0  1  0  0  0  0  0  0  0  0  0
   28.7278  -24.6282  -17.8112 C   0  0  0  0  0  0  0  0  0  0  0  0
   30.1839  -24.3976  -17.9081 C   0  0  0  0  0  0  0  0  0  0  0  0
   30.6613  -23.3453  -18.8330 C   0  0  0  0  0  0  0  0  0  0  0  0
   32.1608  -23.2706  -18.9629 C   0  0  0  0  0  0  0  0  0  0  0  0
   32.4522  -22.1525  -19.8500 N   0  0  0  0  0  0  0  0  0  0  0  0
   26.8968  -25.5439  -16.5369 C   0  0  0  0  0  0  0  0  0  0  0  0
   26.1398  -26.3115  -17.2296 O   0  0  0  0  0  0  0  0  0  0  0  0
   18.8049  -24.1166  -13.0421 O   0  0  0  0  0  0  0  0  0  0  0  0
   20.1556  -24.0866  -13.3274 C   0  0  0  0  0  0  0  0  0  0  0  0
   20.8350  -22.9334  -13.6601 C   0  0  0  0  0  0  0  0  0  0  0  0
   22.2083  -22.9842  -13.9367 C   0  0  0  0  0  0  0  0  0  0  0  0
   22.8966  -24.1782  -13.8812 C   0  0  0  0  0  0  0  0  0  0  0  0
   24.3050  -24.2208  -14.1701 C   0  0  0  0  0  0  0  0  0  0  0  0
   24.7765  -24.7597  -15.4594 C   0  0  2  0  0  0  0  0  0  0  0  0
   26.2200  -24.6829  -15.6364 N   0  0  0  0  0  0  0  0  0  0  0  0
   24.1899  -23.9021  -16.5577 C   0  0  0  0  0  0  0  0  0  0  0  0
   24.5866  -22.7299  -16.7771 O   0  0  0  0  0  0  0  0  0  0  0  0
   22.1919  -25.3039  -13.5478 C   0  0  0  0  0  0  0  0  0  0  0  0
   20.8412  -25.2977  -13.2684 C   0  0  0  0  0  0  0  0  0  0  0  0
   23.1569  -24.4487  -17.3626 N   0  0  0  0  0  0  0  0  0  0  0  0
   22.5177  -23.6529  -18.3873 C   0  0  1  0  0  0  0  0  0  0  0  0
   22.3188  -24.5430  -19.5959 C   0  0  0  0  0  0  0  0  0  0  0  0
   23.9038  -25.2007  -20.1857 S   0  0  0  0  0  0  0  0  0  0  0  0
   21.2710  -23.0474  -17.9175 C   0  0  0  0  0  0  0  0  0  0  0  0
   20.5932  -23.5228  -16.9851 O   0  0  0  0  0  0  0  0  0  0  0  0
   20.8108  -21.8919  -18.5286 O   0  0  0  0  0  0  0  0  0  0  0  0
  2  1  1  6
  3  2  1  0
  4  3  1  0
  5  4  1  0
  5  6  1  0
  7  6  1  0
  8  2  1  0
  8  9  2  0
 10 11  1  0
 11 12  2  0
 12 13  1  0
 14 13  2  0
 14 15  1  0
 16 15  1  1
 16 17  1  0
 17  8  1  0
 18 16  1  0
 19 18  2  0
 20 14  1  0
 21 11  1  0
 21 20  2  0
 22 18  1  0
 23 26  1  0
 23 22  1  0
 23 24  1  6
 25 24  1  0
 26 28  1  0
 27 26  2  0
M  END
$$$$
