KYC.pdb
     RDKit          3D

 28 28  0  0  1  0  0  0  0  0999 V2000
   26.5257  -18.8870  -16.9859 N   0  0  0  0  0  0  0  0  0  0  0  0
   25.3953  -19.5371  -16.3582 C   0  0  1  0  0  0  0  0  0  0  0  0
   24.1961  -19.6562  -17.2650 C   0  0  0  0  0  0  0  0  0  0  0  0
   23.7156  -18.3392  -17.7312 C   0  0  0  0  0  0  0  0  0  0  0  0
   22.4718  -18.2966  -18.5324 C   0  0  0  0  0  0  0  0  0  0  0  0
   22.0624  -16.9121  -18.9647 C   0  0  0  0  0  0  0  0  0  0  0  0
   20.7697  -17.0410  -19.6237 N   0  0  0  0  0  0  0  0  0  0  0  0
   25.8154  -20.9226  -16.0043 C   0  0  0  0  0  0  0  0  0  0  0  0
   26.8681  -21.4300  -16.5300 O   0  0  0  0  0  0  0  0  0  0  0  0
   22.7586  -19.9616   -9.8630 O   0  0  0  0  0  0  0  0  0  0  0  0
   23.3416  -20.8480  -10.7467 C   0  0  0  0  0  0  0  0  0  0  0  0
   22.6189  -21.6407  -11.6135 C   0  0  0  0  0  0  0  0  0  0  0  0
   23.2843  -22.5172  -12.4818 C   0  0  0  0  0  0  0  0  0  0  0  0
   24.6611  -22.6003  -12.4836 C   0  0  0  0  0  0  0  0  0  0  0  0
   25.3348  -23.5053  -13.3758 C   0  0  0  0  0  0  0  0  0  0  0  0
   25.6413  -23.0869  -14.7563 C   0  0  2  0  0  0  0  0  0  0  0  0
   25.1256  -21.7689  -15.0997 N   0  0  0  0  0  0  0  0  0  0  0  0
   24.9450  -24.0482  -15.6929 C   0  0  0  0  0  0  0  0  0  0  0  0
   23.7838  -23.8396  -16.1259 O   0  0  0  0  0  0  0  0  0  0  0  0
   25.3480  -21.7996  -11.6107 C   0  0  0  0  0  0  0  0  0  0  0  0
   24.7325  -20.9241  -10.7404 C   0  0  0  0  0  0  0  0  0  0  0  0
   25.6348  -25.2227  -16.0904 N   0  0  0  0  0  0  0  0  0  0  0  0
   25.1253  -26.0546  -17.1582 C   0  0  1  0  0  0  0  0  0  0  0  0
   25.2458  -25.2663  -18.4454 C   0  0  0  0  0  0  0  0  0  0  0  0
   26.9715  -24.8058  -18.7655 S   0  0  0  0  0  0  0  0  0  0  0  0
   25.8045  -27.3493  -17.2204 C   0  0  0  0  0  0  0  0  0  0  0  0
   26.8460  -27.6023  -16.5831 O   0  0  0  0  0  0  0  0  0  0  0  0
   25.2765  -28.3497  -18.0210 O   0  0  0  0  0  0  0  0  0  0  0  0
  2  1  1  6
  3  2  1  0
  4  3  1  0
  5  4  1  0
  5  6  1  0
  7  6  1  0
  8  2  1  0
  8  9  2  0
 10 11  1  0
 11 12  2  0
 12 13  1  0
 14 13  2  0
 14 15  1  0
 16 15  1  1
 16 17  1  0
 17  8  1  0
 18 16  1  0
 19 18  2  0
 20 14  1  0
 21 11  1  0
 21 20  2  0
 22 18  1  0
 23 26  1  0
 23 22  1  0
 23 24  1  6
 25 24  1  0
 26 28  1  0
 27 26  2  0
M  END
$$$$
