KYC.pdb
     RDKit          3D

 28 28  0  0  1  0  0  0  0  0999 V2000
   29.0560  -21.6351  -18.8393 N   0  0  0  0  0  0  0  0  0  0  0  0
   27.9490  -20.7583  -18.5223 C   0  0  1  0  0  0  0  0  0  0  0  0
   26.7817  -20.9057  -19.4659 C   0  0  0  0  0  0  0  0  0  0  0  0
   26.8987  -20.0187  -20.6416 C   0  0  0  0  0  0  0  0  0  0  0  0
   26.8823  -18.5563  -20.4137 C   0  0  0  0  0  0  0  0  0  0  0  0
   26.8860  -17.7341  -21.6767 C   0  0  0  0  0  0  0  0  0  0  0  0
   26.7595  -16.3402  -21.2729 N   0  0  0  0  0  0  0  0  0  0  0  0
   27.4615  -21.1263  -17.1628 C   0  0  0  0  0  0  0  0  0  0  0  0
   27.2182  -22.3513  -16.8760 O   0  0  0  0  0  0  0  0  0  0  0  0
   25.1324  -20.7470   -8.5340 O   0  0  0  0  0  0  0  0  0  0  0  0
   25.6502  -20.5339   -9.7962 C   0  0  0  0  0  0  0  0  0  0  0  0
   26.7894  -21.1552  -10.2634 C   0  0  0  0  0  0  0  0  0  0  0  0
   27.2531  -20.8865  -11.5587 C   0  0  0  0  0  0  0  0  0  0  0  0
   26.5833  -20.0038  -12.3801 C   0  0  0  0  0  0  0  0  0  0  0  0
   27.0688  -19.7318  -13.7065 C   0  0  0  0  0  0  0  0  0  0  0  0
   26.7346  -20.6452  -14.8150 C   0  0  2  0  0  0  0  0  0  0  0  0
   27.2312  -20.2038  -16.1110 N   0  0  0  0  0  0  0  0  0  0  0  0
   25.2288  -20.6732  -14.9490 C   0  0  0  0  0  0  0  0  0  0  0  0
   24.5912  -19.7635  -15.5366 O   0  0  0  0  0  0  0  0  0  0  0  0
   25.4561  -19.4044  -11.8852 C   0  0  0  0  0  0  0  0  0  0  0  0
   24.9662  -19.6407  -10.6176 C   0  0  0  0  0  0  0  0  0  0  0  0
   24.5212  -21.7682  -14.3889 N   0  0  0  0  0  0  0  0  0  0  0  0
   23.0769  -21.8212  -14.4426 C   0  0  1  0  0  0  0  0  0  0  0  0
   22.6668  -23.2635  -14.2323 C   0  0  0  0  0  0  0  0  0  0  0  0
   20.8661  -23.4081  -14.0619 S   0  0  0  0  0  0  0  0  0  0  0  0
   22.4555  -20.9090  -13.4817 C   0  0  0  0  0  0  0  0  0  0  0  0
   22.9148  -20.7079  -12.3399 O   0  0  0  0  0  0  0  0  0  0  0  0
   21.3027  -20.2308  -13.8443 O   0  0  0  0  0  0  0  0  0  0  0  0
  2  1  1  6
  3  2  1  0
  4  3  1  0
  5  4  1  0
  5  6  1  0
  7  6  1  0
  8  2  1  0
  8  9  2  0
 10 11  1  0
 11 12  2  0
 12 13  1  0
 14 13  2  0
 14 15  1  0
 16 15  1  1
 16 17  1  0
 17  8  1  0
 18 16  1  0
 19 18  2  0
 20 14  1  0
 21 11  1  0
 21 20  2  0
 22 18  1  0
 23 26  1  0
 23 22  1  0
 23 24  1  1
 25 24  1  0
 26 28  1  0
 27 26  2  0
M  END
$$$$
