KYC.pdb
     RDKit          3D

 28 28  0  0  1  0  0  0  0  0999 V2000
   23.0765  -18.0068  -15.3919 N   0  0  0  0  0  0  0  0  0  0  0  0
   23.0197  -19.1682  -16.2536 C   0  0  1  0  0  0  0  0  0  0  0  0
   23.3617  -18.8627  -17.6904 C   0  0  0  0  0  0  0  0  0  0  0  0
   22.1943  -19.0048  -18.5846 C   0  0  0  0  0  0  0  0  0  0  0  0
   20.9882  -19.6773  -18.0519 C   0  0  0  0  0  0  0  0  0  0  0  0
   19.8722  -19.8290  -19.0532 C   0  0  0  0  0  0  0  0  0  0  0  0
   18.7510  -19.0420  -18.5579 N   0  0  0  0  0  0  0  0  0  0  0  0
   24.0344  -20.1419  -15.7600 C   0  0  0  0  0  0  0  0  0  0  0  0
   25.2162  -19.7452  -15.4635 O   0  0  0  0  0  0  0  0  0  0  0  0
   24.2825  -19.9952   -8.9322 O   0  0  0  0  0  0  0  0  0  0  0  0
   24.2352  -20.7229  -10.1048 C   0  0  0  0  0  0  0  0  0  0  0  0
   23.0780  -20.9204  -10.8286 C   0  0  0  0  0  0  0  0  0  0  0  0
   23.1109  -21.6723  -12.0112 C   0  0  0  0  0  0  0  0  0  0  0  0
   24.2911  -22.2222  -12.4664 C   0  0  0  0  0  0  0  0  0  0  0  0
   24.3141  -22.9952  -13.6792 C   0  0  0  0  0  0  0  0  0  0  0  0
   24.7882  -22.3828  -14.9342 C   0  0  2  0  0  0  0  0  0  0  0  0
   23.8017  -21.5291  -15.5814 N   0  0  0  0  0  0  0  0  0  0  0  0
   25.0603  -23.4998  -15.9161 C   0  0  0  0  0  0  0  0  0  0  0  0
   24.1729  -23.9467  -16.6857 O   0  0  0  0  0  0  0  0  0  0  0  0
   25.4212  -22.0069  -11.7239 C   0  0  0  0  0  0  0  0  0  0  0  0
   25.4325  -21.2738  -10.5556 C   0  0  0  0  0  0  0  0  0  0  0  0
   26.3652  -24.0553  -15.9626 N   0  0  0  0  0  0  0  0  0  0  0  0
   26.7040  -25.0681  -16.9379 C   0  0  1  0  0  0  0  0  0  0  0  0
   28.2133  -25.1850  -16.9662 C   0  0  0  0  0  0  0  0  0  0  0  0
   28.9900  -23.5468  -17.0412 S   0  0  0  0  0  0  0  0  0  0  0  0
   26.0416  -26.3434  -16.6613 C   0  0  0  0  0  0  0  0  0  0  0  0
   25.3021  -26.5255  -15.6738 O   0  0  0  0  0  0  0  0  0  0  0  0
   26.2365  -27.4063  -17.5288 O   0  0  0  0  0  0  0  0  0  0  0  0
  2  1  1  1
  3  2  1  0
  4  3  1  0
  5  4  1  0
  5  6  1  0
  7  6  1  0
  8  2  1  0
  8  9  2  0
 10 11  1  0
 11 12  2  0
 12 13  1  0
 14 13  2  0
 14 15  1  0
 16 15  1  1
 16 17  1  0
 17  8  1  0
 18 16  1  0
 19 18  2  0
 20 14  1  0
 21 11  1  0
 21 20  2  0
 22 18  1  0
 23 26  1  0
 23 22  1  0
 23 24  1  1
 25 24  1  0
 26 28  1  0
 27 26  2  0
M  END
$$$$
