KYC.pdb
     RDKit          3D

 28 28  0  0  1  0  0  0  0  0999 V2000
   20.6544  -20.1636  -12.9793 N   0  0  0  0  0  0  0  0  0  0  0  0
   21.5481  -21.2988  -12.8941 C   0  0  1  0  0  0  0  0  0  0  0  0
   21.7778  -21.9785  -14.2207 C   0  0  0  0  0  0  0  0  0  0  0  0
   20.6109  -22.7776  -14.6480 C   0  0  0  0  0  0  0  0  0  0  0  0
   20.6871  -23.4783  -15.9496 C   0  0  0  0  0  0  0  0  0  0  0  0
   19.4207  -24.1961  -16.3399 C   0  0  0  0  0  0  0  0  0  0  0  0
   19.6258  -24.7111  -17.6870 N   0  0  0  0  0  0  0  0  0  0  0  0
   22.8702  -20.7936  -12.4269 C   0  0  0  0  0  0  0  0  0  0  0  0
   23.1674  -19.5538  -12.5552 O   0  0  0  0  0  0  0  0  0  0  0  0
   28.6834  -19.1382   -6.3147 O   0  0  0  0  0  0  0  0  0  0  0  0
   27.9345  -19.7717   -7.2866 C   0  0  0  0  0  0  0  0  0  0  0  0
   26.5570  -19.7235   -7.3342 C   0  0  0  0  0  0  0  0  0  0  0  0
   25.8672  -20.3939   -8.3539 C   0  0  0  0  0  0  0  0  0  0  0  0
   26.5490  -21.1066   -9.3180 C   0  0  0  0  0  0  0  0  0  0  0  0
   25.8322  -21.7942  -10.3583 C   0  0  0  0  0  0  0  0  0  0  0  0
   25.1493  -21.0247  -11.4149 C   0  0  2  0  0  0  0  0  0  0  0  0
   23.8745  -21.5952  -11.8275 N   0  0  0  0  0  0  0  0  0  0  0  0
   26.0242  -21.0605  -12.6475 C   0  0  0  0  0  0  0  0  0  0  0  0
   26.0419  -22.0448  -13.4286 O   0  0  0  0  0  0  0  0  0  0  0  0
   27.9159  -21.1340   -9.2413 C   0  0  0  0  0  0  0  0  0  0  0  0
   28.6329  -20.4887   -8.2554 C   0  0  0  0  0  0  0  0  0  0  0  0
   26.8495  -19.9394  -12.9227 N   0  0  0  0  0  0  0  0  0  0  0  0
   27.6220  -19.8712  -14.1435 C   0  0  1  0  0  0  0  0  0  0  0  0
   28.3348  -18.5354  -14.1562 C   0  0  0  0  0  0  0  0  0  0  0  0
   27.4729  -17.3497  -15.2256 S   0  0  0  0  0  0  0  0  0  0  0  0
   28.5380  -21.0042  -14.2803 C   0  0  0  0  0  0  0  0  0  0  0  0
   29.1693  -21.4882  -13.3200 O   0  0  0  0  0  0  0  0  0  0  0  0
   28.7220  -21.5751  -15.5296 O   0  0  0  0  0  0  0  0  0  0  0  0
  2  1  1  6
  3  2  1  0
  4  3  1  0
  5  4  1  0
  5  6  1  0
  7  6  1  0
  8  2  1  0
  8  9  2  0
 10 11  1  0
 11 12  2  0
 12 13  1  0
 14 13  2  0
 14 15  1  0
 16 15  1  1
 16 17  1  0
 17  8  1  0
 18 16  1  0
 19 18  2  0
 20 14  1  0
 21 11  1  0
 21 20  2  0
 22 18  1  0
 23 26  1  0
 23 22  1  0
 23 24  1  1
 25 24  1  0
 26 28  1  0
 27 26  2  0
M  END
$$$$
