KYC.pdb
     RDKit          3D

 28 28  0  0  1  0  0  0  0  0999 V2000
   19.2347  -20.1583  -11.7892 N   0  0  0  0  0  0  0  0  0  0  0  0
   20.0702  -21.2361  -12.2740 C   0  0  1  0  0  0  0  0  0  0  0  0
   19.3941  -22.0938  -13.3141 C   0  0  0  0  0  0  0  0  0  0  0  0
   18.5327  -23.1304  -12.7090 C   0  0  0  0  0  0  0  0  0  0  0  0
   19.0586  -23.8794  -11.5457 C   0  0  0  0  0  0  0  0  0  0  0  0
   18.0966  -24.8890  -10.9746 C   0  0  0  0  0  0  0  0  0  0  0  0
   18.8042  -25.5928   -9.9136 N   0  0  0  0  0  0  0  0  0  0  0  0
   21.2629  -20.6210  -12.9224 C   0  0  0  0  0  0  0  0  0  0  0  0
   21.2264  -19.4005  -13.3111 O   0  0  0  0  0  0  0  0  0  0  0  0
   29.4432  -19.6153  -16.4464 O   0  0  0  0  0  0  0  0  0  0  0  0
   28.3273  -19.9386  -15.7002 C   0  0  0  0  0  0  0  0  0  0  0  0
   27.6840  -19.0437  -14.8711 C   0  0  0  0  0  0  0  0  0  0  0  0
   26.5552  -19.4481  -14.1448 C   0  0  0  0  0  0  0  0  0  0  0  0
   26.0737  -20.7366  -14.2467 C   0  0  0  0  0  0  0  0  0  0  0  0
   24.9169  -21.1431  -13.4947 C   0  0  0  0  0  0  0  0  0  0  0  0
   23.5815  -20.6414  -13.8687 C   0  0  2  0  0  0  0  0  0  0  0  0
   22.4887  -21.2928  -13.1600 N   0  0  0  0  0  0  0  0  0  0  0  0
   23.3626  -20.9632  -15.3297 C   0  0  0  0  0  0  0  0  0  0  0  0
   23.0002  -22.1022  -15.7181 O   0  0  0  0  0  0  0  0  0  0  0  0
   26.7359  -21.5994  -15.0785 C   0  0  0  0  0  0  0  0  0  0  0  0
   27.8492  -21.2423  -15.8104 C   0  0  0  0  0  0  0  0  0  0  0  0
   23.5759  -19.9374  -16.2866 N   0  0  0  0  0  0  0  0  0  0  0  0
   23.3601  -20.1832  -17.6954 C   0  0  1  0  0  0  0  0  0  0  0  0
   22.7111  -18.9457  -18.2785 C   0  0  0  0  0  0  0  0  0  0  0  0
   21.2957  -18.4196  -17.2723 S   0  0  0  0  0  0  0  0  0  0  0  0
   24.5958  -20.5543  -18.3859 C   0  0  0  0  0  0  0  0  0  0  0  0
   25.7296  -20.3419  -17.9124 O   0  0  0  0  0  0  0  0  0  0  0  0
   24.5167  -21.1711  -19.6244 O   0  0  0  0  0  0  0  0  0  0  0  0
  2  1  1  6
  3  2  1  0
  4  3  1  0
  5  4  1  0
  5  6  1  0
  7  6  1  0
  8  2  1  0
  8  9  2  0
 10 11  1  0
 11 12  2  0
 12 13  1  0
 14 13  2  0
 14 15  1  0
 16 15  1  1
 16 17  1  0
 17  8  1  0
 18 16  1  0
 19 18  2  0
 20 14  1  0
 21 11  1  0
 21 20  2  0
 22 18  1  0
 23 26  1  0
 23 22  1  0
 23 24  1  6
 25 24  1  0
 26 28  1  0
 27 26  2  0
M  END
$$$$
