RFW.pdb
     RDKit          3D

 37 39  0  0  1  0  0  0  0  0999 V2000
   11.2812  -23.8841   18.2049 N   0  0  0  0  0  0  0  0  0  0  0  0
   11.8266  -22.8970   17.3349 C   0  0  0  0  0  0  0  0  0  0  0  0
   12.0375  -23.1999   16.0792 N   0  0  0  0  0  0  0  0  0  0  0  0
   12.1576  -21.5877   17.7589 N   0  0  0  0  0  0  0  0  0  0  0  0
   11.9563  -21.2394   19.1516 C   0  0  0  0  0  0  0  0  0  0  0  0
   10.6823  -20.4297   19.3570 C   0  0  0  0  0  0  0  0  0  0  0  0
   11.1208  -19.0127   19.5977 C   0  0  0  0  0  0  0  0  0  0  0  0
   10.0706  -17.9807   19.3909 C   0  0  2  0  0  0  0  0  0  0  0  0
   10.0946  -17.3031   18.1365 N   0  0  0  0  0  0  0  0  0  0  0  0
   10.0254  -17.0246   20.5473 C   0  0  0  0  0  0  0  0  0  0  0  0
   11.0352  -16.3660   20.8903 O   0  0  0  0  0  0  0  0  0  0  0  0
   12.4088  -22.4889   15.4103 N   0  0  0  0  0  0  0  0  0  0  0  0
    8.8217  -16.8484   21.2822 C   0  0  1  0  0  0  0  0  0  0  0  0
    8.6414  -16.0845   22.4653 C   0  0  0  0  0  0  0  0  0  0  0  0
    7.2668  -15.4605   22.6413 C   0  0  0  0  0  0  0  0  0  0  0  0
    7.2913  -14.4935   23.7551 C   0  0  0  0  0  0  0  0  0  0  0  0
    6.9359  -14.9751   25.0105 C   0  0  0  0  0  0  0  0  0  0  0  0
    6.9038  -14.1788   26.1341 C   0  0  0  0  0  0  0  0  0  0  0  0
    7.2361  -12.8457   26.0222 C   0  0  0  0  0  0  0  0  0  0  0  0
    7.5911  -12.3426   24.7936 C   0  0  0  0  0  0  0  0  0  0  0  0
    7.6130  -13.1726   23.6816 C   0  0  0  0  0  0  0  0  0  0  0  0
    9.1298  -16.7408   23.6886 O   0  0  0  0  0  0  0  0  0  0  0  0
    8.9039  -17.9554   23.9235 N   0  0  0  0  0  0  0  0  0  0  0  0
    9.8748  -16.0050   24.6372 C   0  0  2  0  0  0  0  0  0  0  0  0
   11.1141  -16.5486   25.1410 C   0  0  0  0  0  0  0  0  0  0  0  0
   11.5940  -15.5865   26.2164 C   0  0  0  0  0  0  0  0  0  0  0  0
   10.8574  -15.7087   27.4828 C   0  0  0  0  0  0  0  0  0  0  0  0
   10.9185  -16.7044   28.4444 N   0  0  0  0  0  0  0  0  0  0  0  0
   10.0658  -16.4064   29.4388 C   0  0  0  0  0  0  0  0  0  0  0  0
    9.4488  -15.2310   29.1411 C   0  0  0  0  0  0  0  0  0  0  0  0
    8.4907  -14.4787   29.8151 C   0  0  0  0  0  0  0  0  0  0  0  0
    8.0168  -13.2949   29.2875 C   0  0  0  0  0  0  0  0  0  0  0  0
    8.4978  -12.8480   28.0745 C   0  0  0  0  0  0  0  0  0  0  0  0
    9.4469  -13.5849   27.3984 C   0  0  0  0  0  0  0  0  0  0  0  0
    9.9278  -14.7834   27.9307 C   0  0  0  0  0  0  0  0  0  0  0  0
   10.9134  -17.9146   25.6949 O   0  0  0  0  0  0  0  0  0  0  0  0
   11.8256  -18.6150   26.1847 O   0  0  0  0  0  0  0  0  0  0  0  0
  2  3  2  0
  2  1  1  0
  4  2  1  0
  5  4  1  0
  6  5  1  0
  7  6  1  0
  8 10  1  0
  8  7  1  0
  8  9  1  6
 10 12  1  0
 11 10  2  0
 12 13  1  0
 13 14  1  1
 13 21  1  0
 15 14  1  0
 16 15  2  0
 17 16  1  0
 18 17  2  0
 18 19  1  0
 19 20  2  0
 20 15  1  0
 21 23  1  0
 21 22  2  0
 23 24  1  0
 24 35  1  0
 24 25  1  6
 26 27  2  0
 26 25  1  0
 28 27  1  0
 29 34  2  0
 29 28  1  0
 30 29  1  0
 31 32  1  0
 31 30  2  0
 32 33  2  0
 33 34  1  0
 34 26  1  0
 35 37  1  0
 36 35  2  0
M  END
$$$$
