RFW.pdb
     RDKit          3D

 37 39  0  0  1  0  0  0  0  0999 V2000
    9.9044  -19.9701   14.2777 N   0  0  0  0  0  0  0  0  0  0  0  0
   10.5702  -21.1061   14.8205 C   0  0  0  0  0  0  0  0  0  0  0  0
   10.8009  -22.1387   14.0501 N   0  0  0  0  0  0  0  0  0  0  0  0
   11.0030  -21.1814   16.1662 N   0  0  0  0  0  0  0  0  0  0  0  0
   10.4237  -20.2684   17.1317 C   0  0  0  0  0  0  0  0  0  0  0  0
   10.1962  -18.8834   16.5394 C   0  0  0  0  0  0  0  0  0  0  0  0
   10.6010  -17.9016   17.6026 C   0  0  0  0  0  0  0  0  0  0  0  0
   10.4983  -18.4018   18.9990 C   0  0  2  0  0  0  0  0  0  0  0  0
    9.3092  -19.1191   19.3232 N   0  0  0  0  0  0  0  0  0  0  0  0
   10.7798  -17.3033   19.9826 C   0  0  0  0  0  0  0  0  0  0  0  0
   11.7735  -16.5502   19.8541 O   0  0  0  0  0  0  0  0  0  0  0  0
   11.3603  -22.9510   14.3938 N   0  0  0  0  0  0  0  0  0  0  0  0
    9.9135  -17.0966   21.0902 C   0  0  1  0  0  0  0  0  0  0  0  0
   10.0386  -16.1135   22.1070 C   0  0  0  0  0  0  0  0  0  0  0  0
    8.7371  -15.4839   22.5757 C   0  0  0  0  0  0  0  0  0  0  0  0
    8.1400  -14.6901   21.4850 C   0  0  0  0  0  0  0  0  0  0  0  0
    7.0434  -15.2454   20.8343 C   0  0  0  0  0  0  0  0  0  0  0  0
    6.3979  -14.6185   19.7913 C   0  0  0  0  0  0  0  0  0  0  0  0
    6.8487  -13.3875   19.3651 C   0  0  0  0  0  0  0  0  0  0  0  0
    7.9308  -12.8152   19.9899 C   0  0  0  0  0  0  0  0  0  0  0  0
    8.5582  -13.4741   21.0377 C   0  0  0  0  0  0  0  0  0  0  0  0
   10.9156  -16.5056   23.2219 O   0  0  0  0  0  0  0  0  0  0  0  0
   12.1159  -16.1354   23.2816 N   0  0  0  0  0  0  0  0  0  0  0  0
   10.4153  -17.3187   24.2634 C   0  0  1  0  0  0  0  0  0  0  0  0
    9.6857  -16.7090   25.3501 C   0  0  0  0  0  0  0  0  0  0  0  0
    8.6691  -15.7771   24.7094 C   0  0  0  0  0  0  0  0  0  0  0  0
    7.9073  -14.9824   25.6838 C   0  0  0  0  0  0  0  0  0  0  0  0
    6.5611  -15.0401   26.0069 N   0  0  0  0  0  0  0  0  0  0  0  0
    6.2979  -14.1241   26.9537 C   0  0  0  0  0  0  0  0  0  0  0  0
    7.4519  -13.4691   27.2538 C   0  0  0  0  0  0  0  0  0  0  0  0
    7.7414  -12.4432   28.1494 C   0  0  0  0  0  0  0  0  0  0  0  0
    9.0220  -11.9425   28.2662 C   0  0  0  0  0  0  0  0  0  0  0  0
   10.0322  -12.4643   27.4852 C   0  0  0  0  0  0  0  0  0  0  0  0
    9.7569  -13.4804   26.5950 C   0  0  0  0  0  0  0  0  0  0  0  0
    8.4613  -13.9886   26.4753 C   0  0  0  0  0  0  0  0  0  0  0  0
    9.0150  -17.7385   26.1888 O   0  0  0  0  0  0  0  0  0  0  0  0
    8.3922  -18.7208   25.7309 O   0  0  0  0  0  0  0  0  0  0  0  0
  2  3  2  0
  2  1  1  0
  4  2  1  0
  5  4  1  0
  6  5  1  0
  7  6  1  0
  8 10  1  0
  8  7  1  0
  8  9  1  1
 10 12  1  0
 11 10  2  0
 12 13  1  0
 13 14  1  6
 13 21  1  0
 15 14  1  0
 16 15  2  0
 17 16  1  0
 18 17  2  0
 18 19  1  0
 19 20  2  0
 20 15  1  0
 21 23  1  0
 21 22  2  0
 23 24  1  0
 24 35  1  0
 24 25  1  1
 26 27  2  0
 26 25  1  0
 28 27  1  0
 29 34  2  0
 29 28  1  0
 30 29  1  0
 31 32  1  0
 31 30  2  0
 32 33  2  0
 33 34  1  0
 34 26  1  0
 35 37  1  0
 36 35  2  0
M  END
$$$$
