RFW.pdb
     RDKit          3D

 37 39  0  0  1  0  0  0  0  0999 V2000
    9.9309  -13.7599   14.6056 N   0  0  0  0  0  0  0  0  0  0  0  0
    8.5165  -13.6922   14.7584 C   0  0  0  0  0  0  0  0  0  0  0  0
    7.8345  -12.8541   14.0197 N   0  0  0  0  0  0  0  0  0  0  0  0
    7.7968  -14.4927   15.6776 N   0  0  0  0  0  0  0  0  0  0  0  0
    8.4987  -15.5589   16.3646 C   0  0  0  0  0  0  0  0  0  0  0  0
    9.5855  -15.0222   17.2874 C   0  0  0  0  0  0  0  0  0  0  0  0
    8.9791  -14.9676   18.6613 C   0  0  0  0  0  0  0  0  0  0  0  0
    9.0467  -16.2359   19.4344 C   0  0  2  0  0  0  0  0  0  0  0  0
    8.0720  -17.2238   19.1064 N   0  0  0  0  0  0  0  0  0  0  0  0
    9.0965  -15.9610   20.9093 C   0  0  0  0  0  0  0  0  0  0  0  0
    9.9410  -15.1749   21.3992 O   0  0  0  0  0  0  0  0  0  0  0  0
    6.7925  -12.9057   13.9715 N   0  0  0  0  0  0  0  0  0  0  0  0
    8.1756  -16.5959   21.7860 C   0  0  1  0  0  0  0  0  0  0  0  0
    8.0969  -16.4569   23.1968 C   0  0  0  0  0  0  0  0  0  0  0  0
    6.6943  -16.3198   23.7662 C   0  0  0  0  0  0  0  0  0  0  0  0
    6.5925  -15.0819   24.5621 C   0  0  0  0  0  0  0  0  0  0  0  0
    6.0624  -15.2024   25.8423 C   0  0  0  0  0  0  0  0  0  0  0  0
    5.8992  -14.1266   26.6871 C   0  0  0  0  0  0  0  0  0  0  0  0
    6.2737  -12.8718   26.2567 C   0  0  0  0  0  0  0  0  0  0  0  0
    6.8003  -12.7233   24.9960 C   0  0  0  0  0  0  0  0  0  0  0  0
    6.9510  -13.8283   24.1702 C   0  0  0  0  0  0  0  0  0  0  0  0
    8.9243  -17.4162   23.9456 O   0  0  0  0  0  0  0  0  0  0  0  0
    8.8280  -18.6568   23.7637 N   0  0  0  0  0  0  0  0  0  0  0  0
    9.8585  -16.9520   24.8986 C   0  0  2  0  0  0  0  0  0  0  0  0
   10.7380  -17.8961   25.5468 C   0  0  0  0  0  0  0  0  0  0  0  0
   11.8620  -17.0767   26.1615 C   0  0  0  0  0  0  0  0  0  0  0  0
   11.4615  -16.3512   27.3758 C   0  0  0  0  0  0  0  0  0  0  0  0
   11.3992  -16.7957   28.6868 N   0  0  0  0  0  0  0  0  0  0  0  0
   10.9760  -15.7902   29.4708 C   0  0  0  0  0  0  0  0  0  0  0  0
   10.7612  -14.6958   28.6917 C   0  0  0  0  0  0  0  0  0  0  0  0
   10.3251  -13.4069   28.9863 C   0  0  0  0  0  0  0  0  0  0  0  0
   10.1865  -12.4594   27.9926 C   0  0  0  0  0  0  0  0  0  0  0  0
   10.4837  -12.7916   26.6873 C   0  0  0  0  0  0  0  0  0  0  0  0
   10.9165  -14.0651   26.3842 C   0  0  0  0  0  0  0  0  0  0  0  0
   11.0573  -15.0256   27.3885 C   0  0  0  0  0  0  0  0  0  0  0  0
   10.0136  -18.6763   26.5858 O   0  0  0  0  0  0  0  0  0  0  0  0
    8.8404  -18.4431   26.9488 O   0  0  0  0  0  0  0  0  0  0  0  0
  2  3  2  0
  2  1  1  0
  4  2  1  0
  5  4  1  0
  6  5  1  0
  7  6  1  0
  8 10  1  0
  8  7  1  0
  8  9  1  1
 10 12  1  0
 11 10  2  0
 12 13  1  0
 13 14  1  1
 13 21  1  0
 15 14  1  0
 16 15  2  0
 17 16  1  0
 18 17  2  0
 18 19  1  0
 19 20  2  0
 20 15  1  0
 21 23  1  0
 21 22  2  0
 23 24  1  0
 24 35  1  0
 24 25  1  1
 26 27  2  0
 26 25  1  0
 28 27  1  0
 29 34  2  0
 29 28  1  0
 30 29  1  0
 31 32  1  0
 31 30  2  0
 32 33  2  0
 33 34  1  0
 34 26  1  0
 35 37  1  0
 36 35  2  0
M  END
$$$$
