RFW.pdb
     RDKit          3D

 37 39  0  0  1  0  0  0  0  0999 V2000
    7.7644  -13.5488   16.1828 N   0  0  0  0  0  0  0  0  0  0  0  0
    8.9791  -13.1902   16.8343 C   0  0  0  0  0  0  0  0  0  0  0  0
    8.9943  -12.1491   17.6273 N   0  0  0  0  0  0  0  0  0  0  0  0
   10.1881  -13.9078   16.6699 N   0  0  0  0  0  0  0  0  0  0  0  0
   10.1663  -15.1322   15.8942 C   0  0  0  0  0  0  0  0  0  0  0  0
    9.6075  -16.3023   16.6938 C   0  0  0  0  0  0  0  0  0  0  0  0
   10.5700  -16.5349   17.8241 C   0  0  0  0  0  0  0  0  0  0  0  0
   10.1037  -17.4856   18.8678 C   0  0  2  0  0  0  0  0  0  0  0  0
    9.0308  -18.3486   18.4968 N   0  0  0  0  0  0  0  0  0  0  0  0
    9.8309  -16.7703   20.1591 C   0  0  0  0  0  0  0  0  0  0  0  0
   10.7616  -16.3003   20.8549 O   0  0  0  0  0  0  0  0  0  0  0  0
    9.8395  -11.9197   18.1964 N   0  0  0  0  0  0  0  0  0  0  0  0
    8.4959  -16.6127   20.6204 C   0  0  1  0  0  0  0  0  0  0  0  0
    8.0766  -16.1747   21.9043 C   0  0  0  0  0  0  0  0  0  0  0  0
    6.8607  -15.2630   21.9228 C   0  0  0  0  0  0  0  0  0  0  0  0
    6.7127  -14.6475   23.2553 C   0  0  0  0  0  0  0  0  0  0  0  0
    5.9033  -15.3162   24.1675 C   0  0  0  0  0  0  0  0  0  0  0  0
    5.6684  -14.8473   25.4413 C   0  0  0  0  0  0  0  0  0  0  0  0
    6.2550  -13.6656   25.8407 C   0  0  0  0  0  0  0  0  0  0  0  0
    7.0596  -12.9835   24.9598 C   0  0  0  0  0  0  0  0  0  0  0  0
    7.2752  -13.4840   23.6835 C   0  0  0  0  0  0  0  0  0  0  0  0
    8.0022  -17.2438   22.9129 O   0  0  0  0  0  0  0  0  0  0  0  0
    7.9900  -18.4591   22.5897 N   0  0  0  0  0  0  0  0  0  0  0  0
    7.9427  -16.9179   24.2864 C   0  0  1  0  0  0  0  0  0  0  0  0
    8.9862  -17.3813   25.1704 C   0  0  0  0  0  0  0  0  0  0  0  0
    9.8293  -16.1618   25.5086 C   0  0  0  0  0  0  0  0  0  0  0  0
   10.5249  -16.2702   26.7993 C   0  0  0  0  0  0  0  0  0  0  0  0
   11.3711  -17.2647   27.2627 N   0  0  0  0  0  0  0  0  0  0  0  0
   11.7766  -16.9518   28.5046 C   0  0  0  0  0  0  0  0  0  0  0  0
   11.2080  -15.7678   28.8592 C   0  0  0  0  0  0  0  0  0  0  0  0
   11.2878  -14.9998   30.0176 C   0  0  0  0  0  0  0  0  0  0  0  0
   10.5977  -13.8101   30.1301 C   0  0  0  0  0  0  0  0  0  0  0  0
    9.8164  -13.3730   29.0808 C   0  0  0  0  0  0  0  0  0  0  0  0
    9.7301  -14.1256   27.9288 C   0  0  0  0  0  0  0  0  0  0  0  0
   10.4278  -15.3301   27.8130 C   0  0  0  0  0  0  0  0  0  0  0  0
    8.4138  -17.9945   26.3990 O   0  0  0  0  0  0  0  0  0  0  0  0
    8.7929  -19.0829   26.8830 O   0  0  0  0  0  0  0  0  0  0  0  0
  2  3  2  0
  2  1  1  0
  4  2  1  0
  5  4  1  0
  6  5  1  0
  7  6  1  0
  8 10  1  0
  8  7  1  0
  8  9  1  6
 10 12  1  0
 11 10  2  0
 12 13  1  0
 13 14  1  1
 13 21  1  0
 15 14  1  0
 16 15  2  0
 17 16  1  0
 18 17  2  0
 18 19  1  0
 19 20  2  0
 20 15  1  0
 21 23  1  0
 21 22  2  0
 23 24  1  0
 24 35  1  0
 24 25  1  1
 26 27  2  0
 26 25  1  0
 28 27  1  0
 29 34  2  0
 29 28  1  0
 30 29  1  0
 31 32  1  0
 31 30  2  0
 32 33  2  0
 33 34  1  0
 34 26  1  0
 35 37  1  0
 36 35  2  0
M  END
$$$$
