CPF.pdb
     RDKit          3D

 25 26  0  0  1  0  0  0  0  0999 V2000
    7.7648  -12.6684   18.3631 N   0  0  0  0  0  0  0  0  0  0  0  0
    8.6182  -13.8025   18.6840 C   0  0  1  0  0  0  0  0  0  0  0  0
   10.0352  -13.2433   18.6851 C   0  0  0  0  0  0  0  0  0  0  0  0
   11.1317  -14.6165   19.1555 S   0  0  0  0  0  0  0  0  0  0  0  0
    8.2106  -14.3280   20.0096 C   0  0  0  0  0  0  0  0  0  0  0  0
    8.1200  -13.5343   20.9698 O   0  0  0  0  0  0  0  0  0  0  0  0
    7.9045  -15.7118   20.2713 N   0  0  0  0  0  0  0  0  0  0  0  0
    7.6856  -16.6600   19.1858 C   0  0  0  0  0  0  0  0  0  0  0  0
    6.7966  -17.7379   19.8552 C   0  0  0  0  0  0  0  0  0  0  0  0
    7.5564  -17.8475   21.1935 C   0  0  0  0  0  0  0  0  0  0  0  0
    7.7407  -16.3827   21.5077 C   0  0  1  0  0  0  0  0  0  0  0  0
    8.8013  -16.1623   22.5059 C   0  0  0  0  0  0  0  0  0  0  0  0
    9.9976  -16.3163   22.2005 O   0  0  0  0  0  0  0  0  0  0  0  0
    8.4516  -15.7748   23.8129 N   0  0  0  0  0  0  0  0  0  0  0  0
    9.4068  -15.5764   24.8858 C   0  0  1  0  0  0  0  0  0  0  0  0
    9.5601  -14.1155   25.1023 C   0  0  0  0  0  0  0  0  0  0  0  0
    8.4110  -13.4241   25.6950 C   0  0  0  0  0  0  0  0  0  0  0  0
    8.3895  -13.0730   27.0266 C   0  0  0  0  0  0  0  0  0  0  0  0
    7.3224  -12.4248   27.6105 C   0  0  0  0  0  0  0  0  0  0  0  0
    6.2138  -12.1049   26.8336 C   0  0  0  0  0  0  0  0  0  0  0  0
    6.2101  -12.4407   25.5098 C   0  0  0  0  0  0  0  0  0  0  0  0
    7.2915  -13.0886   24.9539 C   0  0  0  0  0  0  0  0  0  0  0  0
    9.0809  -16.3582   26.0887 C   0  0  0  0  0  0  0  0  0  0  0  0
    9.9024  -16.3882   27.0323 O   0  0  0  0  0  0  0  0  0  0  0  0
    7.8993  -17.0467   26.1845 O   0  0  0  0  0  0  0  0  0  0  0  0
  2  1  1  1
  2  5  1  0
  3  2  1  0
  4  3  1  0
  5  6  2  0
  7  5  1  0
  7 11  1  0
  8  9  1  0
  8  7  1  0
  9 10  1  0
 10 11  1  0
 11 12  1  1
 12 13  2  0
 14 12  1  0
 14 15  1  0
 15 23  1  0
 15 16  1  1
 17 22  1  0
 17 16  1  0
 18 17  2  0
 19 20  2  0
 19 18  1  0
 20 21  1  0
 21 22  2  0
 23 25  1  0
 24 23  2  0
M  END
$$$$
