DIT.pdb
     RDKit          3D

 24 23  0  0  1  0  0  0  0  0999 V2000
   27.9462  -21.8283  -16.0265 N   0  0  0  0  0  0  0  0  0  0  0  0
   27.2496  -20.6571  -15.5573 C   0  0  1  0  0  0  0  0  0  0  0  0
   26.7381  -19.8471  -16.6942 C   0  0  0  0  0  0  0  0  0  0  0  0
   27.7845  -19.2226  -17.5277 C   0  0  0  0  0  0  0  0  0  0  0  0
   27.8441  -19.3634  -18.7582 O   0  0  0  0  0  0  0  0  0  0  0  0
   26.1716  -21.1042  -14.6319 C   0  0  0  0  0  0  0  0  0  0  0  0
   25.4728  -22.1062  -14.9313 O   0  0  0  0  0  0  0  0  0  0  0  0
   28.7863  -18.4195  -16.9495 O   0  0  0  0  0  0  0  0  0  0  0  0
   26.8613  -20.6882   -9.2626 C   0  0  0  0  0  0  0  0  0  0  0  0
   26.4125  -21.1634  -10.6176 C   0  0  0  0  0  0  0  0  0  0  0  0
   25.1494  -20.4616  -11.0748 C   0  0  2  0  0  0  0  0  0  0  0  0
   23.9882  -20.7666  -10.1589 C   0  0  0  0  0  0  0  0  0  0  0  0
   24.8394  -20.7752  -12.5224 C   0  0  2  0  0  0  0  0  0  0  0  0
   25.8982  -20.4444  -13.4233 N   0  0  0  0  0  0  0  0  0  0  0  0
   23.5262  -20.2218  -12.9361 C   0  0  0  0  0  0  0  0  0  0  0  0
   23.3239  -18.9718  -13.0097 O   0  0  0  0  0  0  0  0  0  0  0  0
   19.4218  -20.5163  -15.4558 C   0  0  0  0  0  0  0  0  0  0  0  0
   20.7236  -21.1824  -15.0554 C   0  0  1  0  0  0  0  0  0  0  0  0
   21.6276  -20.9669  -16.0765 O   0  0  0  0  0  0  0  0  0  0  0  0
   21.1570  -20.5499  -13.7538 C   0  0  2  0  0  0  0  0  0  0  0  0
   22.4182  -21.0454  -13.2745 N   0  0  0  0  0  0  0  0  0  0  0  0
   20.0878  -20.6733  -12.7511 C   0  0  0  0  0  0  0  0  0  0  0  0
   19.9206  -21.6816  -12.0240 O   0  0  0  0  0  0  0  0  0  0  0  0
   19.2064  -19.6142  -12.5942 O   0  0  0  0  0  0  0  0  0  0  0  0
  2  1  1  6
  2  3  1  0
  3  4  1  0
  4  8  1  0
  5  4  2  0
  6 14  1  0
  6  2  1  0
  7  6  2  0
  9 10  1  0
 11 10  1  0
 11 13  1  0
 11 12  1  1
 13 14  1  6
 15 13  1  0
 15 16  2  0
 18 17  1  6
 19 18  1  0
 20 21  1  1
 20 18  1  0
 21 15  1  0
 22 20  1  0
 23 22  2  0
 24 22  1  0
M  END
$$$$
