DIT.pdb
     RDKit          3D

 24 23  0  0  1  0  0  0  0  0999 V2000
   19.1745  -12.3595  -17.2158 N   0  0  0  0  0  0  0  0  0  0  0  0
   19.8286  -11.1826  -17.7299 C   0  0  1  0  0  0  0  0  0  0  0  0
   18.8368  -10.1919  -18.2245 C   0  0  0  0  0  0  0  0  0  0  0  0
   17.9459  -10.6896  -19.2915 C   0  0  0  0  0  0  0  0  0  0  0  0
   16.7091  -10.6354  -19.2215 O   0  0  0  0  0  0  0  0  0  0  0  0
   20.7060  -10.6390  -16.6560 C   0  0  0  0  0  0  0  0  0  0  0  0
   20.3861  -10.8033  -15.4508 O   0  0  0  0  0  0  0  0  0  0  0  0
   18.4728  -11.2622  -20.4652 O   0  0  0  0  0  0  0  0  0  0  0  0
   26.3285  -10.1976  -14.7210 C   0  0  0  0  0  0  0  0  0  0  0  0
   25.0051   -9.4895  -14.8233 C   0  0  0  0  0  0  0  0  0  0  0  0
   24.1129  -10.1058  -15.8821 C   0  0  2  0  0  0  0  0  0  0  0  0
   24.8095  -10.1687  -17.2204 C   0  0  0  0  0  0  0  0  0  0  0  0
   22.7794   -9.3946  -15.9594 C   0  0  2  0  0  0  0  0  0  0  0  0
   21.8908   -9.9403  -16.9365 N   0  0  0  0  0  0  0  0  0  0  0  0
   22.9459   -7.9247  -16.0777 C   0  0  0  0  0  0  0  0  0  0  0  0
   23.7160   -7.4097  -16.9440 O   0  0  0  0  0  0  0  0  0  0  0  0
   20.9661   -5.5934  -17.4128 C   0  0  0  0  0  0  0  0  0  0  0  0
   21.0693   -4.9981  -16.0223 C   0  0  1  0  0  0  0  0  0  0  0  0
   19.9190   -5.3420  -15.3405 O   0  0  0  0  0  0  0  0  0  0  0  0
   22.3134   -5.5762  -15.3897 C   0  0  2  0  0  0  0  0  0  0  0  0
   22.2615   -7.0045  -15.2380 N   0  0  0  0  0  0  0  0  0  0  0  0
   22.6031   -4.8874  -14.1227 C   0  0  0  0  0  0  0  0  0  0  0  0
   22.9204   -3.6768  -14.0387 O   0  0  0  0  0  0  0  0  0  0  0  0
   22.5226   -5.6142  -12.9443 O   0  0  0  0  0  0  0  0  0  0  0  0
  2  1  1  1
  2  3  1  0
  3  4  1  0
  4  8  1  0
  5  4  2  0
  6 14  1  0
  6  2  1  0
  7  6  2  0
  9 10  1  0
 11 10  1  0
 11 13  1  0
 11 12  1  6
 13 14  1  6
 15 13  1  0
 15 16  2  0
 18 17  1  6
 19 18  1  0
 20 21  1  1
 20 18  1  0
 21 15  1  0
 22 20  1  0
 23 22  2  0
 24 22  1  0
M  END
$$$$
