DIT.pdb
     RDKit          3D

 24 23  0  0  1  0  0  0  0  0999 V2000
   22.2701  -11.4421  -20.7308 N   0  0  0  0  0  0  0  0  0  0  0  0
   23.0067  -10.2487  -20.3987 C   0  0  1  0  0  0  0  0  0  0  0  0
   22.5507   -9.0934  -21.2156 C   0  0  0  0  0  0  0  0  0  0  0  0
   22.9668   -9.1356  -22.6316 C   0  0  0  0  0  0  0  0  0  0  0  0
   22.9269  -10.1669  -23.3189 O   0  0  0  0  0  0  0  0  0  0  0  0
   22.8665  -10.0154  -18.9343 C   0  0  0  0  0  0  0  0  0  0  0  0
   21.8323  -10.4125  -18.3389 O   0  0  0  0  0  0  0  0  0  0  0  0
   23.4393   -7.9791  -23.2814 O   0  0  0  0  0  0  0  0  0  0  0  0
   26.3845  -11.5938  -15.5146 C   0  0  0  0  0  0  0  0  0  0  0  0
   25.1521  -11.0830  -16.2097 C   0  0  0  0  0  0  0  0  0  0  0  0
   24.9488   -9.5980  -15.9850 C   0  0  2  0  0  0  0  0  0  0  0  0
   24.8351   -9.2745  -14.5144 C   0  0  0  0  0  0  0  0  0  0  0  0
   23.7727   -9.0771  -16.7822 C   0  0  2  0  0  0  0  0  0  0  0  0
   23.8534   -9.3607  -18.1805 N   0  0  0  0  0  0  0  0  0  0  0  0
   23.5005   -7.6477  -16.4910 C   0  0  0  0  0  0  0  0  0  0  0  0
   24.3359   -6.7385  -16.7809 O   0  0  0  0  0  0  0  0  0  0  0  0
   20.3038   -4.0663  -15.4440 C   0  0  0  0  0  0  0  0  0  0  0  0
   20.4829   -5.5564  -15.6589 C   0  0  1  0  0  0  0  0  0  0  0  0
   19.9034   -5.8702  -16.8721 O   0  0  0  0  0  0  0  0  0  0  0  0
   21.9691   -5.8263  -15.6387 C   0  0  2  0  0  0  0  0  0  0  0  0
   22.2987   -7.2053  -15.8744 N   0  0  0  0  0  0  0  0  0  0  0  0
   22.5592   -5.3132  -14.3929 C   0  0  0  0  0  0  0  0  0  0  0  0
   22.5096   -5.9145  -13.2932 O   0  0  0  0  0  0  0  0  0  0  0  0
   23.2121   -4.0902  -14.4280 O   0  0  0  0  0  0  0  0  0  0  0  0
  2  1  1  6
  2  3  1  0
  3  4  1  0
  4  8  1  0
  5  4  2  0
  6 14  1  0
  6  2  1  0
  7  6  2  0
  9 10  1  0
 11 10  1  0
 11 13  1  0
 11 12  1  1
 13 14  1  6
 15 13  1  0
 15 16  2  0
 18 17  1  6
 19 18  1  0
 20 21  1  1
 20 18  1  0
 21 15  1  0
 22 20  1  0
 23 22  2  0
 24 22  1  0
M  END
$$$$
