DIT.pdb
     RDKit          3D

 24 23  0  0  1  0  0  0  0  0999 V2000
   43.8324  -11.1628   -6.9109 N   0  0  0  0  0  0  0  0  0  0  0  0
   42.9646  -10.2265   -6.2420 C   0  0  1  0  0  0  0  0  0  0  0  0
   43.7299   -9.0601   -5.7283 C   0  0  0  0  0  0  0  0  0  0  0  0
   44.7716   -9.3930   -4.7365 C   0  0  0  0  0  0  0  0  0  0  0  0
   44.5193   -9.9002   -3.6335 O   0  0  0  0  0  0  0  0  0  0  0  0
   41.8862   -9.8397   -7.1936 C   0  0  0  0  0  0  0  0  0  0  0  0
   42.1194   -9.8405   -8.4295 O   0  0  0  0  0  0  0  0  0  0  0  0
   46.1314   -9.1436   -5.0043 O   0  0  0  0  0  0  0  0  0  0  0  0
   37.0464  -11.6933   -6.2474 C   0  0  0  0  0  0  0  0  0  0  0  0
   38.2542  -11.1658   -6.9727 C   0  0  0  0  0  0  0  0  0  0  0  0
   38.1812   -9.6662   -7.1795 C   0  0  2  0  0  0  0  0  0  0  0  0
   37.0633   -9.2948   -8.1242 C   0  0  0  0  0  0  0  0  0  0  0  0
   39.5167   -9.1060   -7.6184 C   0  0  2  0  0  0  0  0  0  0  0  0
   40.6027   -9.4678   -6.7630 N   0  0  0  0  0  0  0  0  0  0  0  0
   39.4417   -7.6475   -7.8818 C   0  0  0  0  0  0  0  0  0  0  0  0
   39.0357   -6.8317   -6.9996 O   0  0  0  0  0  0  0  0  0  0  0  0
   42.1798   -5.5860   -9.9224 C   0  0  0  0  0  0  0  0  0  0  0  0
   40.8024   -5.2545  -10.4627 C   0  0  1  0  0  0  0  0  0  0  0  0
   40.6413   -5.9585  -11.6394 O   0  0  0  0  0  0  0  0  0  0  0  0
   39.8064   -5.6614   -9.4022 C   0  0  2  0  0  0  0  0  0  0  0  0
   39.8156   -7.0720   -9.1265 N   0  0  0  0  0  0  0  0  0  0  0  0
   38.4660   -5.1664   -9.7512 C   0  0  0  0  0  0  0  0  0  0  0  0
   37.5505   -5.8874  -10.2150 O   0  0  0  0  0  0  0  0  0  0  0  0
   38.1897   -3.8211   -9.5585 O   0  0  0  0  0  0  0  0  0  0  0  0
  2  1  1  6
  2  3  1  0
  3  4  1  0
  4  8  1  0
  5  4  2  0
  6 14  1  0
  6  2  1  0
  7  6  2  0
  9 10  1  0
 11 10  1  0
 11 13  1  0
 11 12  1  6
 13 14  1  1
 15 13  1  0
 15 16  2  0
 18 17  1  1
 19 18  1  0
 20 21  1  6
 20 18  1  0
 21 15  1  0
 22 20  1  0
 23 22  2  0
 24 22  1  0
M  END
$$$$
