DIT.pdb
     RDKit          3D

 24 23  0  0  1  0  0  0  0  0999 V2000
   22.0746  -11.6565  -20.6764 N   0  0  0  0  0  0  0  0  0  0  0  0
   22.4352  -10.3400  -20.2139 C   0  0  1  0  0  0  0  0  0  0  0  0
   21.9403   -9.2915  -21.1444 C   0  0  0  0  0  0  0  0  0  0  0  0
   22.5625   -9.3100  -22.4832 C   0  0  0  0  0  0  0  0  0  0  0  0
   21.9923   -8.8902  -23.5011 O   0  0  0  0  0  0  0  0  0  0  0  0
   21.9116  -10.1807  -18.8287 C   0  0  0  0  0  0  0  0  0  0  0  0
   20.8199  -10.7189  -18.5122 O   0  0  0  0  0  0  0  0  0  0  0  0
   23.8628   -9.8175  -22.6694 O   0  0  0  0  0  0  0  0  0  0  0  0
   24.3345  -11.7482  -14.6716 C   0  0  0  0  0  0  0  0  0  0  0  0
   23.3396  -11.2182  -15.6678 C   0  0  0  0  0  0  0  0  0  0  0  0
   23.0396   -9.7498  -15.4429 C   0  0  2  0  0  0  0  0  0  0  0  0
   22.5013   -9.5045  -14.0536 C   0  0  0  0  0  0  0  0  0  0  0  0
   22.1266   -9.2040  -16.5193 C   0  0  2  0  0  0  0  0  0  0  0  0
   22.5945   -9.4437  -17.8481 N   0  0  0  0  0  0  0  0  0  0  0  0
   21.7721   -7.7844  -16.2723 C   0  0  0  0  0  0  0  0  0  0  0  0
   22.6521   -6.8711  -16.2590 O   0  0  0  0  0  0  0  0  0  0  0  0
   19.7029   -5.7641  -18.3455 C   0  0  0  0  0  0  0  0  0  0  0  0
   19.0247   -5.5855  -17.0013 C   0  0  1  0  0  0  0  0  0  0  0  0
   17.9052   -6.3935  -16.9942 O   0  0  0  0  0  0  0  0  0  0  0  0
   20.0318   -5.9803  -15.9468 C   0  0  2  0  0  0  0  0  0  0  0  0
   20.4374   -7.3563  -16.0364 N   0  0  0  0  0  0  0  0  0  0  0  0
   19.5280   -5.6295  -14.6101 C   0  0  0  0  0  0  0  0  0  0  0  0
   19.2257   -6.4715  -13.7309 O   0  0  0  0  0  0  0  0  0  0  0  0
   19.3748   -4.2877  -14.2950 O   0  0  0  0  0  0  0  0  0  0  0  0
  2  1  1  6
  2  3  1  0
  3  4  1  0
  4  8  1  0
  5  4  2  0
  6 14  1  0
  6  2  1  0
  7  6  2  0
  9 10  1  0
 11 10  1  0
 11 13  1  0
 11 12  1  1
 13 14  1  6
 15 13  1  0
 15 16  2  0
 18 17  1  6
 19 18  1  0
 20 21  1  1
 20 18  1  0
 21 15  1  0
 22 20  1  0
 23 22  2  0
 24 22  1  0
M  END
$$$$
