DIT.pdb
     RDKit          3D

 24 23  0  0  1  0  0  0  0  0999 V2000
   17.6175  -11.2374  -17.9055 N   0  0  0  0  0  0  0  0  0  0  0  0
   18.2197   -9.9330  -18.0195 C   0  0  1  0  0  0  0  0  0  0  0  0
   17.2032   -8.9016  -18.3560 C   0  0  0  0  0  0  0  0  0  0  0  0
   16.5790   -9.0599  -19.6845 C   0  0  0  0  0  0  0  0  0  0  0  0
   15.4736   -8.5790  -19.9752 O   0  0  0  0  0  0  0  0  0  0  0  0
   18.9382   -9.6463  -16.7467 C   0  0  0  0  0  0  0  0  0  0  0  0
   18.3971   -9.9378  -15.6494 O   0  0  0  0  0  0  0  0  0  0  0  0
   17.2258   -9.7815  -20.7063 O   0  0  0  0  0  0  0  0  0  0  0  0
   23.7569  -10.5346  -13.5733 C   0  0  0  0  0  0  0  0  0  0  0  0
   22.7514   -9.4769  -13.9386 C   0  0  0  0  0  0  0  0  0  0  0  0
   22.0055   -9.8197  -15.2125 C   0  0  2  0  0  0  0  0  0  0  0  0
   22.9576  -10.0632  -16.3591 C   0  0  0  0  0  0  0  0  0  0  0  0
   20.9654   -8.7704  -15.5400 C   0  0  2  0  0  0  0  0  0  0  0  0
   20.2112   -9.0550  -16.7199 N   0  0  0  0  0  0  0  0  0  0  0  0
   21.5418   -7.4029  -15.5310 C   0  0  0  0  0  0  0  0  0  0  0  0
   22.3917   -7.0331  -16.3967 O   0  0  0  0  0  0  0  0  0  0  0  0
   19.3682   -4.4158  -13.6934 C   0  0  0  0  0  0  0  0  0  0  0  0
   20.3021   -4.1460  -14.8570 C   0  0  1  0  0  0  0  0  0  0  0  0
   20.6171   -2.8021  -14.8293 O   0  0  0  0  0  0  0  0  0  0  0  0
   21.5117   -5.0296  -14.6618 C   0  0  2  0  0  0  0  0  0  0  0  0
   21.1845   -6.4257  -14.5627 N   0  0  0  0  0  0  0  0  0  0  0  0
   22.3040   -4.5561  -13.5164 C   0  0  0  0  0  0  0  0  0  0  0  0
   22.9551   -3.4841  -13.5088 O   0  0  0  0  0  0  0  0  0  0  0  0
   22.3381   -5.3373  -12.3710 O   0  0  0  0  0  0  0  0  0  0  0  0
  2  1  1  1
  2  3  1  0
  3  4  1  0
  4  8  1  0
  5  4  2  0
  6 14  1  0
  6  2  1  0
  7  6  2  0
  9 10  1  0
 11 10  1  0
 11 13  1  0
 11 12  1  6
 13 14  1  6
 15 13  1  0
 15 16  2  0
 18 17  1  1
 19 18  1  0
 20 21  1  1
 20 18  1  0
 21 15  1  0
 22 20  1  0
 23 22  2  0
 24 22  1  0
M  END
$$$$
