DIT.pdb
     RDKit          3D

 24 23  0  0  1  0  0  0  0  0999 V2000
   22.9217  -13.2330  -17.6290 N   0  0  0  0  0  0  0  0  0  0  0  0
   22.9869  -12.3254  -16.5113 C   0  0  1  0  0  0  0  0  0  0  0  0
   24.3772  -11.8477  -16.2900 C   0  0  0  0  0  0  0  0  0  0  0  0
   25.3579  -12.9130  -16.0020 C   0  0  0  0  0  0  0  0  0  0  0  0
   25.0655  -14.1180  -15.9906 O   0  0  0  0  0  0  0  0  0  0  0  0
   22.0254  -11.2163  -16.7640 C   0  0  0  0  0  0  0  0  0  0  0  0
   21.7218  -10.9157  -17.9469 O   0  0  0  0  0  0  0  0  0  0  0  0
   26.7021  -12.6018  -15.7203 O   0  0  0  0  0  0  0  0  0  0  0  0
   17.8186  -11.9029  -15.2182 C   0  0  0  0  0  0  0  0  0  0  0  0
   18.4191  -10.8474  -16.1062 C   0  0  0  0  0  0  0  0  0  0  0  0
   19.1151   -9.7636  -15.3075 C   0  0  2  0  0  0  0  0  0  0  0  0
   18.2429   -8.5392  -15.1647 C   0  0  0  0  0  0  0  0  0  0  0  0
   20.4738   -9.4386  -15.8892 C   0  0  2  0  0  0  0  0  0  0  0  0
   21.4365  -10.4815  -15.7228 N   0  0  0  0  0  0  0  0  0  0  0  0
   20.9640   -8.1135  -15.4352 C   0  0  0  0  0  0  0  0  0  0  0  0
   21.3584   -7.9217  -14.2451 O   0  0  0  0  0  0  0  0  0  0  0  0
   22.2104   -3.4367  -16.4427 C   0  0  0  0  0  0  0  0  0  0  0  0
   21.6402   -4.7141  -17.0275 C   0  0  1  0  0  0  0  0  0  0  0  0
   22.5510   -5.1865  -17.9514 O   0  0  0  0  0  0  0  0  0  0  0  0
   21.4338   -5.6692  -15.8755 C   0  0  2  0  0  0  0  0  0  0  0  0
   21.0241   -6.9820  -16.2934 N   0  0  0  0  0  0  0  0  0  0  0  0
   20.5136   -5.0812  -14.8900 C   0  0  0  0  0  0  0  0  0  0  0  0
   19.2666   -5.0562  -15.0219 O   0  0  0  0  0  0  0  0  0  0  0  0
   21.0502   -4.5179  -13.7419 O   0  0  0  0  0  0  0  0  0  0  0  0
  2  1  1  6
  2  3  1  0
  3  4  1  0
  4  8  1  0
  5  4  2  0
  6 14  1  0
  6  2  1  0
  7  6  2  0
  9 10  1  0
 11 10  1  0
 11 13  1  0
 11 12  1  6
 13 14  1  1
 15 13  1  0
 15 16  2  0
 18 17  1  1
 19 18  1  0
 20 21  1  6
 20 18  1  0
 21 15  1  0
 22 20  1  0
 23 22  2  0
 24 22  1  0
M  END
$$$$
