PKF.pdb
     RDKit          3D

 28 29  0  0  1  0  0  0  0  0999 V2000
    8.7328  -15.0956   18.6728 N   0  0  0  0  0  0  0  0  0  0  0  0
    8.8690  -14.3430   17.4385 C   0  0  0  0  0  0  0  0  0  0  0  0
    7.6952  -13.3751   17.5619 C   0  0  0  0  0  0  0  0  0  0  0  0
    7.6902  -13.0709   19.0608 C   0  0  0  0  0  0  0  0  0  0  0  0
    8.6105  -14.0633   19.6583 C   0  0  1  0  0  0  0  0  0  0  0  0
    8.1895  -14.5739   20.9817 C   0  0  0  0  0  0  0  0  0  0  0  0
    8.1033  -13.7299   21.8992 O   0  0  0  0  0  0  0  0  0  0  0  0
    7.8994  -15.9324   21.2077 N   0  0  0  0  0  0  0  0  0  0  0  0
    7.5723  -16.5688   22.4371 C   0  0  1  0  0  0  0  0  0  0  0  0
    6.9594  -17.9696   22.2791 C   0  0  0  0  0  0  0  0  0  0  0  0
    6.5873  -18.5500   23.6164 C   0  0  0  0  0  0  0  0  0  0  0  0
    5.9968  -19.9341   23.3647 C   0  0  0  0  0  0  0  0  0  0  0  0
    5.4912  -20.5430   24.6568 C   0  0  0  0  0  0  0  0  0  0  0  0
    4.9757  -21.8703   24.3797 N   0  0  0  0  0  0  0  0  0  0  0  0
    8.5591  -16.4718   23.4986 C   0  0  0  0  0  0  0  0  0  0  0  0
    9.4013  -17.4343   23.6054 O   0  0  0  0  0  0  0  0  0  0  0  0
    8.6761  -15.4072   24.4291 N   0  0  0  0  0  0  0  0  0  0  0  0
    8.6735  -15.6449   25.8612 C   0  0  1  0  0  0  0  0  0  0  0  0
    7.3537  -15.2556   26.4363 C   0  0  0  0  0  0  0  0  0  0  0  0
    7.1127  -13.8103   26.4490 C   0  0  0  0  0  0  0  0  0  0  0  0
    8.0900  -12.9458   26.0060 C   0  0  0  0  0  0  0  0  0  0  0  0
    7.8500  -11.5877   26.0217 C   0  0  0  0  0  0  0  0  0  0  0  0
    6.6706  -11.0452   26.4622 C   0  0  0  0  0  0  0  0  0  0  0  0
    5.6974  -11.9062   26.9034 C   0  0  0  0  0  0  0  0  0  0  0  0
    5.9116  -13.2915   26.8997 C   0  0  0  0  0  0  0  0  0  0  0  0
    9.0944  -17.0330   26.1706 C   0  0  0  0  0  0  0  0  0  0  0  0
    8.8547  -18.0066   25.4182 O   0  0  0  0  0  0  0  0  0  0  0  0
    9.7869  -17.2782   27.3453 O   0  0  0  0  0  0  0  0  0  0  0  0
  1  2  1  0
  3  2  1  0
  4  5  1  0
  4  3  1  0
  5  1  1  0
  6  8  1  0
  5  6  1  1
  7  6  2  0
  9 15  1  0
  9  8  1  0
  9 10  1  6
 11 10  1  0
 12 11  1  0
 13 12  1  0
 14 13  1  0
 15 17  1  0
 16 15  2  0
 17 18  1  0
 18 19  1  6
 18 26  1  0
 20 25  1  0
 20 19  1  0
 21 20  2  0
 22 21  1  0
 23 22  2  0
 23 24  1  0
 24 25  2  0
 26 27  2  0
 26 28  1  0
M  END
$$$$
