PKF.pdb
     RDKit          3D

 28 29  0  0  1  0  0  0  0  0999 V2000
    8.3042  -14.7634   19.0941 N   0  0  0  0  0  0  0  0  0  0  0  0
    8.3265  -13.8378   17.9755 C   0  0  0  0  0  0  0  0  0  0  0  0
    7.1776  -12.9058   18.3516 C   0  0  0  0  0  0  0  0  0  0  0  0
    7.3196  -12.8237   19.8722 C   0  0  0  0  0  0  0  0  0  0  0  0
    8.2855  -13.8869   20.2268 C   0  0  1  0  0  0  0  0  0  0  0  0
    7.9902  -14.5878   21.4959 C   0  0  0  0  0  0  0  0  0  0  0  0
    7.9319  -13.8760   22.5213 O   0  0  0  0  0  0  0  0  0  0  0  0
    7.7844  -15.9788   21.5581 N   0  0  0  0  0  0  0  0  0  0  0  0
    7.4383  -16.7664   22.6910 C   0  0  1  0  0  0  0  0  0  0  0  0
    7.2375  -18.2592   22.3841 C   0  0  0  0  0  0  0  0  0  0  0  0
    6.7840  -19.0058   23.6091 C   0  0  0  0  0  0  0  0  0  0  0  0
    6.6441  -20.4750   23.2221 C   0  0  0  0  0  0  0  0  0  0  0  0
    6.0060  -21.2658   24.3461 C   0  0  0  0  0  0  0  0  0  0  0  0
    5.8774  -22.6500   23.9317 N   0  0  0  0  0  0  0  0  0  0  0  0
    8.1842  -16.5089   23.9106 C   0  0  0  0  0  0  0  0  0  0  0  0
    9.4648  -16.5370   23.8312 O   0  0  0  0  0  0  0  0  0  0  0  0
    7.6236  -16.2281   25.1833 N   0  0  0  0  0  0  0  0  0  0  0  0
    8.4590  -15.9872   26.3459 C   0  0  1  0  0  0  0  0  0  0  0  0
    7.8062  -14.9873   27.2395 C   0  0  0  0  0  0  0  0  0  0  0  0
    7.6027  -13.6763   26.6176 C   0  0  0  0  0  0  0  0  0  0  0  0
    8.6751  -12.8332   26.4227 C   0  0  0  0  0  0  0  0  0  0  0  0
    8.4702  -11.6024   25.8348 C   0  0  0  0  0  0  0  0  0  0  0  0
    7.2353  -11.1680   25.4281 C   0  0  0  0  0  0  0  0  0  0  0  0
    6.1674  -12.0077   25.6223 C   0  0  0  0  0  0  0  0  0  0  0  0
    6.3437  -13.2646   26.2171 C   0  0  0  0  0  0  0  0  0  0  0  0
    8.8245  -17.2613   27.0113 C   0  0  0  0  0  0  0  0  0  0  0  0
    8.3506  -18.3720   26.6746 O   0  0  0  0  0  0  0  0  0  0  0  0
    9.7328  -17.2356   28.0572 O   0  0  0  0  0  0  0  0  0  0  0  0
  1  2  1  0
  3  2  1  0
  4  5  1  0
  4  3  1  0
  5  1  1  0
  6  8  1  0
  5  6  1  1
  7  6  2  0
  9 15  1  0
  9  8  1  0
  9 10  1  6
 11 10  1  0
 12 11  1  0
 13 12  1  0
 14 13  1  0
 15 17  1  0
 16 15  2  0
 17 18  1  0
 18 19  1  1
 18 26  1  0
 20 25  1  0
 20 19  1  0
 21 20  2  0
 22 21  1  0
 23 22  2  0
 23 24  1  0
 24 25  2  0
 26 27  2  0
 26 28  1  0
M  END
$$$$
