PKF.pdb
     RDKit          3D

 28 29  0  0  1  0  0  0  0  0999 V2000
    8.6605  -14.6136   18.0004 N   0  0  0  0  0  0  0  0  0  0  0  0
    8.2519  -13.6390   17.0046 C   0  0  0  0  0  0  0  0  0  0  0  0
    7.0214  -13.0384   17.6793 C   0  0  0  0  0  0  0  0  0  0  0  0
    7.4405  -13.0239   19.1501 C   0  0  0  0  0  0  0  0  0  0  0  0
    8.6710  -13.8433   19.2080 C   0  0  1  0  0  0  0  0  0  0  0  0
    8.7988  -14.6761   20.4243 C   0  0  0  0  0  0  0  0  0  0  0  0
    8.5948  -14.0998   21.5141 O   0  0  0  0  0  0  0  0  0  0  0  0
    9.1310  -16.0427   20.3702 N   0  0  0  0  0  0  0  0  0  0  0  0
    9.1774  -16.9791   21.4400 C   0  0  1  0  0  0  0  0  0  0  0  0
    9.5546  -18.4068   21.0130 C   0  0  0  0  0  0  0  0  0  0  0  0
    8.4461  -19.0436   20.2196 C   0  0  0  0  0  0  0  0  0  0  0  0
    8.9384  -20.4152   19.7676 C   0  0  0  0  0  0  0  0  0  0  0  0
    7.9120  -21.0848   18.8764 C   0  0  0  0  0  0  0  0  0  0  0  0
    8.4642  -22.3306   18.3789 N   0  0  0  0  0  0  0  0  0  0  0  0
    9.8284  -16.5358   22.6605 C   0  0  0  0  0  0  0  0  0  0  0  0
   11.0534  -16.1641   22.5693 O   0  0  0  0  0  0  0  0  0  0  0  0
    9.2310  -16.4761   23.9459 N   0  0  0  0  0  0  0  0  0  0  0  0
    9.9567  -15.9756   25.0994 C   0  0  1  0  0  0  0  0  0  0  0  0
    8.9945  -15.5275   26.1471 C   0  0  0  0  0  0  0  0  0  0  0  0
    9.6331  -14.9899   27.3513 C   0  0  0  0  0  0  0  0  0  0  0  0
    9.8443  -13.6335   27.4711 C   0  0  0  0  0  0  0  0  0  0  0  0
   10.4450  -13.1401   28.6104 C   0  0  0  0  0  0  0  0  0  0  0  0
   10.8491  -13.9423   29.6460 C   0  0  0  0  0  0  0  0  0  0  0  0
   10.6388  -15.2932   29.5265 C   0  0  0  0  0  0  0  0  0  0  0  0
   10.0307  -15.8247   28.3808 C   0  0  0  0  0  0  0  0  0  0  0  0
   10.9592  -16.9637   25.5666 C   0  0  0  0  0  0  0  0  0  0  0  0
   12.1326  -16.6544   25.8813 O   0  0  0  0  0  0  0  0  0  0  0  0
   10.5930  -18.2964   25.6641 O   0  0  0  0  0  0  0  0  0  0  0  0
  1  2  1  0
  3  2  1  0
  4  5  1  0
  4  3  1  0
  5  1  1  0
  6  8  1  0
  5  6  1  1
  7  6  2  0
  9 15  1  0
  9  8  1  0
  9 10  1  6
 11 10  1  0
 12 11  1  0
 13 12  1  0
 14 13  1  0
 15 17  1  0
 16 15  2  0
 17 18  1  0
 18 19  1  1
 18 26  1  0
 20 25  1  0
 20 19  1  0
 21 20  2  0
 22 21  1  0
 23 22  2  0
 23 24  1  0
 24 25  2  0
 26 27  2  0
 26 28  1  0
M  END
$$$$
