PKF.pdb
     RDKit          3D

 28 29  0  0  1  0  0  0  0  0999 V2000
    8.2184  -15.0474   19.3627 N   0  0  0  0  0  0  0  0  0  0  0  0
    8.3283  -14.2273   18.1695 C   0  0  0  0  0  0  0  0  0  0  0  0
    7.4364  -13.0481   18.5490 C   0  0  0  0  0  0  0  0  0  0  0  0
    7.7318  -12.8935   20.0416 C   0  0  0  0  0  0  0  0  0  0  0  0
    8.4857  -14.1111   20.4132 C   0  0  1  0  0  0  0  0  0  0  0  0
    8.1702  -14.6438   21.7571 C   0  0  0  0  0  0  0  0  0  0  0  0
    8.3973  -13.8828   22.7219 O   0  0  0  0  0  0  0  0  0  0  0  0
    7.6431  -15.9342   21.9513 N   0  0  0  0  0  0  0  0  0  0  0  0
    7.3380  -16.5835   23.1796 C   0  0  1  0  0  0  0  0  0  0  0  0
    6.8605  -18.0363   23.0239 C   0  0  0  0  0  0  0  0  0  0  0  0
    6.4049  -18.5990   24.3428 C   0  0  0  0  0  0  0  0  0  0  0  0
    6.0330  -20.0605   24.1112 C   0  0  0  0  0  0  0  0  0  0  0  0
    6.6651  -20.9468   25.1652 C   0  0  0  0  0  0  0  0  0  0  0  0
    6.2377  -22.3154   24.9451 N   0  0  0  0  0  0  0  0  0  0  0  0
    8.2789  -16.3841   24.2682 C   0  0  0  0  0  0  0  0  0  0  0  0
    9.5245  -16.5412   24.0022 O   0  0  0  0  0  0  0  0  0  0  0  0
    7.9444  -16.0303   25.6008 N   0  0  0  0  0  0  0  0  0  0  0  0
    8.9609  -15.8844   26.6270 C   0  0  1  0  0  0  0  0  0  0  0  0
    8.6407  -14.7135   27.4934 C   0  0  0  0  0  0  0  0  0  0  0  0
    7.8785  -13.6618   26.8154 C   0  0  0  0  0  0  0  0  0  0  0  0
    6.5071  -13.7579   26.7209 C   0  0  0  0  0  0  0  0  0  0  0  0
    5.8011  -12.7604   26.0815 C   0  0  0  0  0  0  0  0  0  0  0  0
    6.4031  -11.6610   25.5263 C   0  0  0  0  0  0  0  0  0  0  0  0
    7.7688  -11.5654   25.6204 C   0  0  0  0  0  0  0  0  0  0  0  0
    8.5139  -12.5630   26.2641 C   0  0  0  0  0  0  0  0  0  0  0  0
    9.1613  -17.1572   27.3616 C   0  0  0  0  0  0  0  0  0  0  0  0
    8.4495  -18.1732   27.1811 O   0  0  0  0  0  0  0  0  0  0  0  0
   10.1817  -17.2395   28.2953 O   0  0  0  0  0  0  0  0  0  0  0  0
  1  2  1  0
  3  2  1  0
  4  5  1  0
  4  3  1  0
  5  1  1  0
  6  8  1  0
  5  6  1  1
  7  6  2  0
  9 15  1  0
  9  8  1  0
  9 10  1  6
 11 10  1  0
 12 11  1  0
 13 12  1  0
 14 13  1  0
 15 17  1  0
 16 15  2  0
 17 18  1  0
 18 19  1  1
 18 26  1  0
 20 25  1  0
 20 19  1  0
 21 20  2  0
 22 21  1  0
 23 22  2  0
 23 24  1  0
 24 25  2  0
 26 27  2  0
 26 28  1  0
M  END
$$$$
