PKF.pdb
     RDKit          3D

 28 29  0  0  1  0  0  0  0  0999 V2000
    8.4039  -14.8023   19.1670 N   0  0  0  0  0  0  0  0  0  0  0  0
    8.5635  -13.8661   18.0685 C   0  0  0  0  0  0  0  0  0  0  0  0
    7.5519  -12.7916   18.4583 C   0  0  0  0  0  0  0  0  0  0  0  0
    7.6914  -12.7610   19.9811 C   0  0  0  0  0  0  0  0  0  0  0  0
    8.4977  -13.9548   20.3180 C   0  0  1  0  0  0  0  0  0  0  0  0
    8.0977  -14.6337   21.5704 C   0  0  0  0  0  0  0  0  0  0  0  0
    8.0922  -13.9313   22.6038 O   0  0  0  0  0  0  0  0  0  0  0  0
    7.7409  -15.9946   21.6088 N   0  0  0  0  0  0  0  0  0  0  0  0
    7.3165  -16.7609   22.7296 C   0  0  1  0  0  0  0  0  0  0  0  0
    6.9354  -18.2118   22.3943 C   0  0  0  0  0  0  0  0  0  0  0  0
    6.3923  -18.9208   23.6051 C   0  0  0  0  0  0  0  0  0  0  0  0
    6.1284  -20.3694   23.2053 C   0  0  0  0  0  0  0  0  0  0  0  0
    5.5251  -21.1418   24.3609 C   0  0  0  0  0  0  0  0  0  0  0  0
    5.1920  -22.4791   23.9083 N   0  0  0  0  0  0  0  0  0  0  0  0
    8.1018  -16.6215   23.9436 C   0  0  0  0  0  0  0  0  0  0  0  0
    9.3775  -16.7032   23.8287 O   0  0  0  0  0  0  0  0  0  0  0  0
    7.5851  -16.4026   25.2466 N   0  0  0  0  0  0  0  0  0  0  0  0
    8.4595  -16.1925   26.3863 C   0  0  1  0  0  0  0  0  0  0  0  0
    7.7565  -15.3794   27.4202 C   0  0  0  0  0  0  0  0  0  0  0  0
    7.3202  -14.0630   26.9471 C   0  0  0  0  0  0  0  0  0  0  0  0
    8.2245  -13.0264   26.8660 C   0  0  0  0  0  0  0  0  0  0  0  0
    7.8013  -11.7927   26.4176 C   0  0  0  0  0  0  0  0  0  0  0  0
    6.5070  -11.5406   26.0427 C   0  0  0  0  0  0  0  0  0  0  0  0
    5.6065  -12.5730   26.1236 C   0  0  0  0  0  0  0  0  0  0  0  0
    6.0063  -13.8383   26.5754 C   0  0  0  0  0  0  0  0  0  0  0  0
    9.0057  -17.4793   26.8818 C   0  0  0  0  0  0  0  0  0  0  0  0
    8.5794  -18.5964   26.5049 O   0  0  0  0  0  0  0  0  0  0  0  0
   10.0373  -17.4588   27.8064 O   0  0  0  0  0  0  0  0  0  0  0  0
  1  2  1  0
  3  2  1  0
  4  5  1  0
  4  3  1  0
  5  1  1  0
  6  8  1  0
  5  6  1  1
  7  6  2  0
  9 15  1  0
  9  8  1  0
  9 10  1  6
 11 10  1  0
 12 11  1  0
 13 12  1  0
 14 13  1  0
 15 17  1  0
 16 15  2  0
 17 18  1  0
 18 19  1  1
 18 26  1  0
 20 25  1  0
 20 19  1  0
 21 20  2  0
 22 21  1  0
 23 22  2  0
 23 24  1  0
 24 25  2  0
 26 27  2  0
 26 28  1  0
M  END
$$$$
