PKF.pdb
     RDKit          3D

 28 29  0  0  1  0  0  0  0  0999 V2000
    5.8866  -18.8009   22.1449 N   0  0  0  0  0  0  0  0  0  0  0  0
    4.5208  -19.2923   22.1032 C   0  0  0  0  0  0  0  0  0  0  0  0
    3.8272  -18.1491   21.3669 C   0  0  0  0  0  0  0  0  0  0  0  0
    4.8943  -17.7287   20.3552 C   0  0  0  0  0  0  0  0  0  0  0  0
    6.1271  -18.4255   20.7836 C   0  0  1  0  0  0  0  0  0  0  0  0
    7.3692  -17.6403   20.6108 C   0  0  0  0  0  0  0  0  0  0  0  0
    8.4265  -18.2954   20.4906 O   0  0  0  0  0  0  0  0  0  0  0  0
    7.3731  -16.2332   20.5818 N   0  0  0  0  0  0  0  0  0  0  0  0
    8.4918  -15.3559   20.6315 C   0  0  1  0  0  0  0  0  0  0  0  0
    8.5065  -14.2888   19.5252 C   0  0  0  0  0  0  0  0  0  0  0  0
    8.1691  -14.8921   18.1888 C   0  0  0  0  0  0  0  0  0  0  0  0
    8.1893  -13.7645   17.1611 C   0  0  0  0  0  0  0  0  0  0  0  0
    7.9711  -14.3099   15.7643 C   0  0  0  0  0  0  0  0  0  0  0  0
    7.8583  -13.1985   14.8391 N   0  0  0  0  0  0  0  0  0  0  0  0
    8.8620  -14.8529   21.9429 C   0  0  0  0  0  0  0  0  0  0  0  0
    9.0057  -13.5833   22.0643 O   0  0  0  0  0  0  0  0  0  0  0  0
    9.0790  -15.6396   23.1034 N   0  0  0  0  0  0  0  0  0  0  0  0
    8.8026  -15.1262   24.4330 C   0  0  1  0  0  0  0  0  0  0  0  0
    7.5006  -14.3989   24.4339 C   0  0  0  0  0  0  0  0  0  0  0  0
    7.3462  -13.4558   25.5446 C   0  0  0  0  0  0  0  0  0  0  0  0
    8.1744  -12.3582   25.6356 C   0  0  0  0  0  0  0  0  0  0  0  0
    8.0177  -11.4772   26.6852 C   0  0  0  0  0  0  0  0  0  0  0  0
    7.0654  -11.6399   27.6578 C   0  0  0  0  0  0  0  0  0  0  0  0
    6.2407  -12.7331   27.5672 C   0  0  0  0  0  0  0  0  0  0  0  0
    6.3754  -13.6462   26.5122 C   0  0  0  0  0  0  0  0  0  0  0  0
    8.9083  -16.2003   25.4503 C   0  0  0  0  0  0  0  0  0  0  0  0
    9.2966  -15.9973   26.6248 O   0  0  0  0  0  0  0  0  0  0  0  0
    8.5642  -17.4951   25.0972 O   0  0  0  0  0  0  0  0  0  0  0  0
  1  2  1  0
  3  2  1  0
  4  5  1  0
  4  3  1  0
  5  1  1  0
  6  8  1  0
  5  6  1  1
  7  6  2  0
  9 15  1  0
  9  8  1  0
  9 10  1  6
 11 10  1  0
 12 11  1  0
 13 12  1  0
 14 13  1  0
 15 17  1  0
 16 15  2  0
 17 18  1  0
 18 19  1  6
 18 26  1  0
 20 25  1  0
 20 19  1  0
 21 20  2  0
 22 21  1  0
 23 22  2  0
 23 24  1  0
 24 25  2  0
 26 27  2  0
 26 28  1  0
M  END
$$$$
