PKF.pdb
     RDKit          3D

 28 29  0  0  1  0  0  0  0  0999 V2000
    8.5840  -15.0606   19.1194 N   0  0  0  0  0  0  0  0  0  0  0  0
    8.8231  -14.1756   17.9934 C   0  0  0  0  0  0  0  0  0  0  0  0
    7.7223  -13.1393   18.2044 C   0  0  0  0  0  0  0  0  0  0  0  0
    7.6843  -13.0219   19.7289 C   0  0  0  0  0  0  0  0  0  0  0  0
    8.5035  -14.1506   20.2227 C   0  0  1  0  0  0  0  0  0  0  0  0
    7.9956  -14.7844   21.4595 C   0  0  0  0  0  0  0  0  0  0  0  0
    7.8893  -14.0420   22.4589 O   0  0  0  0  0  0  0  0  0  0  0  0
    7.6482  -16.1469   21.5199 N   0  0  0  0  0  0  0  0  0  0  0  0
    7.2355  -16.8995   22.6543 C   0  0  1  0  0  0  0  0  0  0  0  0
    6.9266  -18.3751   22.3543 C   0  0  0  0  0  0  0  0  0  0  0  0
    6.3224  -19.0546   23.5531 C   0  0  0  0  0  0  0  0  0  0  0  0
    5.9399  -20.4699   23.1306 C   0  0  0  0  0  0  0  0  0  0  0  0
    5.2825  -21.2110   24.2772 C   0  0  0  0  0  0  0  0  0  0  0  0
    6.2569  -21.3968   25.3357 N   0  0  0  0  0  0  0  0  0  0  0  0
    7.9887  -16.6903   23.8786 C   0  0  0  0  0  0  0  0  0  0  0  0
    9.2683  -16.6691   23.7828 O   0  0  0  0  0  0  0  0  0  0  0  0
    7.4364  -16.5067   25.1724 N   0  0  0  0  0  0  0  0  0  0  0  0
    8.2760  -16.2478   26.3282 C   0  0  1  0  0  0  0  0  0  0  0  0
    7.5253  -15.4332   27.3266 C   0  0  0  0  0  0  0  0  0  0  0  0
    7.2569  -14.0594   26.8933 C   0  0  0  0  0  0  0  0  0  0  0  0
    5.9630  -13.6577   26.6413 C   0  0  0  0  0  0  0  0  0  0  0  0
    5.7237  -12.3614   26.2356 C   0  0  0  0  0  0  0  0  0  0  0  0
    6.7225  -11.4376   26.0674 C   0  0  0  0  0  0  0  0  0  0  0  0
    8.0110  -11.8378   26.3184 C   0  0  0  0  0  0  0  0  0  0  0  0
    8.2860  -13.1485   26.7321 C   0  0  0  0  0  0  0  0  0  0  0  0
    8.8452  -17.5079   26.8648 C   0  0  0  0  0  0  0  0  0  0  0  0
    8.4871  -18.6439   26.4739 O   0  0  0  0  0  0  0  0  0  0  0  0
    9.8207  -17.4391   27.8463 O   0  0  0  0  0  0  0  0  0  0  0  0
  1  2  1  0
  3  2  1  0
  4  5  1  0
  4  3  1  0
  5  1  1  0
  6  8  1  0
  5  6  1  1
  7  6  2  0
  9 15  1  0
  9  8  1  0
  9 10  1  6
 11 10  1  0
 12 11  1  0
 13 12  1  0
 14 13  1  0
 15 17  1  0
 16 15  2  0
 17 18  1  0
 18 19  1  1
 18 26  1  0
 20 25  1  0
 20 19  1  0
 21 20  2  0
 22 21  1  0
 23 22  2  0
 23 24  1  0
 24 25  2  0
 26 27  2  0
 26 28  1  0
M  END
$$$$
