AGP.pdb
     RDKit          3D

 17 17  0  0  1  0  0  0  0  0999 V2000
   19.0810  -14.3538  -20.4451 C   0  0  0  0  0  0  0  0  0  0  0  0
   18.5552  -13.5578  -19.2761 C   0  0  2  0  0  0  0  0  0  0  0  0
   17.9725  -12.3357  -19.7391 N   0  0  0  0  0  0  0  0  0  0  0  0
   19.6720  -13.3008  -18.2983 C   0  0  0  0  0  0  0  0  0  0  0  0
   20.1168  -14.2413  -17.6082 O   0  0  0  0  0  0  0  0  0  0  0  0
   20.2361  -12.0136  -18.1381 N   0  0  0  0  0  0  0  0  0  0  0  0
   21.3091  -11.7251  -17.1830 C   0  0  0  0  0  0  0  0  0  0  0  0
   20.9290  -10.6746  -16.2357 C   0  0  0  0  0  0  0  0  0  0  0  0
   19.8246  -10.0653  -16.5596 O   0  0  0  0  0  0  0  0  0  0  0  0
   21.5553  -10.2402  -15.0712 N   0  0  0  0  0  0  0  0  0  0  0  0
   22.4984  -11.1954  -14.3566 C   0  0  0  0  0  0  0  0  0  0  0  0
   23.5839  -10.3136  -13.8112 C   0  0  0  0  0  0  0  0  0  0  0  0
   23.1700   -8.9152  -14.1908 C   0  0  0  0  0  0  0  0  0  0  0  0
   21.6248   -9.1187  -14.2180 C   0  0  1  0  0  0  0  0  0  0  0  0
   21.0150   -7.8590  -14.5106 C   0  0  0  0  0  0  0  0  0  0  0  0
   20.2037   -7.4122  -13.5910 O   0  0  0  0  0  0  0  0  0  0  0  0
   21.1143   -7.0136  -15.5813 O   0  0  0  0  0  0  0  0  0  0  0  0
  2  1  1  6
  2  3  1  0
  4  2  1  0
  4  5  2  0
  6  4  1  0
  7  6  1  0
  8  9  2  0
  8  7  1  0
 10  8  1  0
 11 12  1  0
 11 10  1  0
 13 14  1  0
 13 12  1  0
 14 10  1  0
 14 15  1  6
 15 17  1  0
 16 15  2  0
M  END
$$$$
