AGP.pdb
     RDKit          3D

 17 17  0  0  1  0  0  0  0  0999 V2000
   25.5207  -18.7285  -16.8593 C   0  0  0  0  0  0  0  0  0  0  0  0
   24.6325  -17.5175  -17.0041 C   0  0  2  0  0  0  0  0  0  0  0  0
   24.1781  -17.4031  -18.3561 N   0  0  0  0  0  0  0  0  0  0  0  0
   25.3836  -16.2866  -16.5686 C   0  0  0  0  0  0  0  0  0  0  0  0
   25.5881  -16.0858  -15.3534 O   0  0  0  0  0  0  0  0  0  0  0  0
   25.8682  -15.3433  -17.5047 N   0  0  0  0  0  0  0  0  0  0  0  0
   26.5724  -14.1194  -17.1137 C   0  0  0  0  0  0  0  0  0  0  0  0
   25.6466  -13.0751  -16.6691 C   0  0  0  0  0  0  0  0  0  0  0  0
   24.4198  -13.2765  -17.0568 O   0  0  0  0  0  0  0  0  0  0  0  0
   25.8753  -11.9284  -15.9142 N   0  0  0  0  0  0  0  0  0  0  0  0
   27.1499  -11.8469  -15.0889 C   0  0  0  0  0  0  0  0  0  0  0  0
   27.5491  -10.4015  -15.1562 C   0  0  0  0  0  0  0  0  0  0  0  0
   26.4584   -9.7384  -15.9572 C   0  0  0  0  0  0  0  0  0  0  0  0
   25.2786  -10.6906  -15.5947 C   0  0  1  0  0  0  0  0  0  0  0  0
   24.0953  -10.1929  -16.2246 C   0  0  0  0  0  0  0  0  0  0  0  0
   23.1884   -9.7307  -15.4077 O   0  0  0  0  0  0  0  0  0  0  0  0
   23.7177  -10.1030  -17.5362 O   0  0  0  0  0  0  0  0  0  0  0  0
  2  1  1  6
  2  3  1  0
  4  2  1  0
  4  5  2  0
  6  4  1  0
  7  6  1  0
  8  9  2  0
  8  7  1  0
 10  8  1  0
 11 12  1  0
 11 10  1  0
 13 14  1  0
 13 12  1  0
 14 10  1  0
 14 15  1  6
 15 17  1  0
 16 15  2  0
M  END
$$$$
