AGP.pdb
     RDKit          3D

 17 17  0  0  1  0  0  0  0  0999 V2000
   24.3424  -20.6598   -7.9030 C   0  0  0  0  0  0  0  0  0  0  0  0
   23.6954  -20.5851   -9.2639 C   0  0  2  0  0  0  0  0  0  0  0  0
   22.4952  -21.3641   -9.2784 N   0  0  0  0  0  0  0  0  0  0  0  0
   24.6703  -21.0545  -10.3119 C   0  0  0  0  0  0  0  0  0  0  0  0
   24.5989  -22.2245  -10.7417 O   0  0  0  0  0  0  0  0  0  0  0  0
   25.6731  -20.2005  -10.8277 N   0  0  0  0  0  0  0  0  0  0  0  0
   26.6075  -20.6101  -11.8793 C   0  0  0  0  0  0  0  0  0  0  0  0
   26.3719  -19.8869  -13.1311 C   0  0  0  0  0  0  0  0  0  0  0  0
   25.1705  -19.3924  -13.2208 O   0  0  0  0  0  0  0  0  0  0  0  0
   27.2174  -19.6552  -14.2121 N   0  0  0  0  0  0  0  0  0  0  0  0
   28.6944  -19.4190  -13.9385 C   0  0  0  0  0  0  0  0  0  0  0  0
   29.3987  -20.0639  -15.0967 C   0  0  0  0  0  0  0  0  0  0  0  0
   28.2923  -20.5724  -15.9844 C   0  0  0  0  0  0  0  0  0  0  0  0
   27.1899  -19.5331  -15.6173 C   0  0  1  0  0  0  0  0  0  0  0  0
   26.0362  -19.8070  -16.4162 C   0  0  0  0  0  0  0  0  0  0  0  0
   25.7351  -18.8815  -17.2858 O   0  0  0  0  0  0  0  0  0  0  0  0
   25.1696  -20.8647  -16.4514 O   0  0  0  0  0  0  0  0  0  0  0  0
  2  1  1  1
  2  3  1  0
  4  2  1  0
  4  5  2  0
  6  4  1  0
  7  6  1  0
  8  9  2  0
  8  7  1  0
 10  8  1  0
 11 12  1  0
 11 10  1  0
 13 14  1  0
 13 12  1  0
 14 10  1  0
 14 15  1  6
 15 17  1  0
 16 15  2  0
M  END
$$$$
