AGP.pdb
     RDKit          3D

 17 17  0  0  1  0  0  0  0  0999 V2000
   18.4874  -12.2886  -17.9118 C   0  0  0  0  0  0  0  0  0  0  0  0
   19.5071  -11.7399  -16.9446 C   0  0  2  0  0  0  0  0  0  0  0  0
   19.1977  -12.1653  -15.6140 N   0  0  0  0  0  0  0  0  0  0  0  0
   19.5434  -10.2376  -17.0491 C   0  0  0  0  0  0  0  0  0  0  0  0
   20.0965   -9.7002  -18.0309 O   0  0  0  0  0  0  0  0  0  0  0  0
   18.9640   -9.4109  -16.0583 N   0  0  0  0  0  0  0  0  0  0  0  0
   18.9494   -7.9485  -16.1468 C   0  0  0  0  0  0  0  0  0  0  0  0
   20.1702   -7.3559  -15.5954 C   0  0  0  0  0  0  0  0  0  0  0  0
   20.8587   -8.1844  -14.8636 O   0  0  0  0  0  0  0  0  0  0  0  0
   20.6917   -6.0728  -15.7321 N   0  0  0  0  0  0  0  0  0  0  0  0
   20.3567   -5.2851  -16.9889 C   0  0  0  0  0  0  0  0  0  0  0  0
   20.2380   -3.8638  -16.5209 C   0  0  0  0  0  0  0  0  0  0  0  0
   20.5677   -3.9142  -15.0514 C   0  0  0  0  0  0  0  0  0  0  0  0
   21.5188   -5.1493  -15.0587 C   0  0  1  0  0  0  0  0  0  0  0  0
   22.0072   -5.3428  -13.7288 C   0  0  0  0  0  0  0  0  0  0  0  0
   23.0456   -4.6185  -13.4118 O   0  0  0  0  0  0  0  0  0  0  0  0
   21.5958   -6.1503  -12.7043 O   0  0  0  0  0  0  0  0  0  0  0  0
  2  1  1  6
  2  3  1  0
  4  2  1  0
  4  5  2  0
  6  4  1  0
  7  6  1  0
  8  9  2  0
  8  7  1  0
 10  8  1  0
 11 12  1  0
 11 10  1  0
 13 14  1  0
 13 12  1  0
 14 10  1  0
 14 15  1  1
 15 17  1  0
 16 15  2  0
M  END
$$$$
