AGP.pdb
     RDKit          3D

 17 17  0  0  1  0  0  0  0  0999 V2000
   16.9829   -4.1823  -15.6891 C   0  0  0  0  0  0  0  0  0  0  0  0
   18.2926   -3.5885  -15.2325 C   0  0  2  0  0  0  0  0  0  0  0  0
   18.5443   -2.3647  -15.9297 N   0  0  0  0  0  0  0  0  0  0  0  0
   19.4009   -4.5853  -15.4498 C   0  0  0  0  0  0  0  0  0  0  0  0
   19.9395   -4.6745  -16.5726 O   0  0  0  0  0  0  0  0  0  0  0  0
   19.8529   -5.4306  -14.4096 N   0  0  0  0  0  0  0  0  0  0  0  0
   20.9187   -6.4197  -14.5904 C   0  0  0  0  0  0  0  0  0  0  0  0
   20.4022   -7.6918  -15.1008 C   0  0  0  0  0  0  0  0  0  0  0  0
   19.1551   -7.9020  -14.7903 O   0  0  0  0  0  0  0  0  0  0  0  0
   21.0282   -8.6848  -15.8484 N   0  0  0  0  0  0  0  0  0  0  0  0
   22.3391   -8.3506  -16.5428 C   0  0  0  0  0  0  0  0  0  0  0  0
   23.1413   -9.6167  -16.4604 C   0  0  0  0  0  0  0  0  0  0  0  0
   22.2283  -10.6068  -15.7844 C   0  0  0  0  0  0  0  0  0  0  0  0
   20.8571  -10.0272  -16.2472 C   0  0  1  0  0  0  0  0  0  0  0  0
   19.8227  -10.8787  -15.7479 C   0  0  0  0  0  0  0  0  0  0  0  0
   19.2629  -11.6485  -16.6410 O   0  0  0  0  0  0  0  0  0  0  0  0
   19.2933  -11.0504  -14.4985 O   0  0  0  0  0  0  0  0  0  0  0  0
  2  1  1  6
  2  3  1  0
  4  2  1  0
  4  5  2  0
  6  4  1  0
  7  6  1  0
  8  9  2  0
  8  7  1  0
 10  8  1  0
 11 12  1  0
 11 10  1  0
 13 14  1  0
 13 12  1  0
 14 10  1  0
 14 15  1  1
 15 17  1  0
 16 15  2  0
M  END
$$$$
