AGP.pdb
     RDKit          3D

 17 17  0  0  1  0  0  0  0  0999 V2000
   26.0159  -20.4850  -16.5645 C   0  0  0  0  0  0  0  0  0  0  0  0
   25.5064  -21.2881  -15.3933 C   0  0  2  0  0  0  0  0  0  0  0  0
   24.0882  -21.4506  -15.4916 N   0  0  0  0  0  0  0  0  0  0  0  0
   25.8958  -20.6067  -14.1075 C   0  0  0  0  0  0  0  0  0  0  0  0
   25.2375  -19.6252  -13.7051 O   0  0  0  0  0  0  0  0  0  0  0  0
   26.9952  -21.0507  -13.3361 N   0  0  0  0  0  0  0  0  0  0  0  0
   27.3632  -20.4510  -12.0509 C   0  0  0  0  0  0  0  0  0  0  0  0
   26.6002  -21.0269  -10.9412 C   0  0  0  0  0  0  0  0  0  0  0  0
   25.6322  -21.8053  -11.3322 O   0  0  0  0  0  0  0  0  0  0  0  0
   26.7501  -20.8708   -9.5663 N   0  0  0  0  0  0  0  0  0  0  0  0
   28.1559  -20.7434   -9.0010 C   0  0  0  0  0  0  0  0  0  0  0  0
   28.0159  -19.7776   -7.8604 C   0  0  0  0  0  0  0  0  0  0  0  0
   26.5440  -19.4600   -7.8042 C   0  0  0  0  0  0  0  0  0  0  0  0
   25.9856  -20.7954   -8.3830 C   0  0  1  0  0  0  0  0  0  0  0  0
   24.5576  -20.7267   -8.3627 C   0  0  0  0  0  0  0  0  0  0  0  0
   23.9822  -21.4738   -7.4603 O   0  0  0  0  0  0  0  0  0  0  0  0
   23.6581  -20.0214   -9.1139 O   0  0  0  0  0  0  0  0  0  0  0  0
  2  1  1  6
  2  3  1  0
  4  2  1  0
  4  5  2  0
  6  4  1  0
  7  6  1  0
  8  9  2  0
  8  7  1  0
 10  8  1  0
 11 12  1  0
 11 10  1  0
 13 14  1  0
 13 12  1  0
 14 10  1  0
 14 15  1  6
 15 17  1  0
 16 15  2  0
M  END
$$$$
