AGP.pdb
     RDKit          3D

 17 17  0  0  1  0  0  0  0  0999 V2000
   20.0696  -12.4798  -19.6151 C   0  0  0  0  0  0  0  0  0  0  0  0
   20.1230  -12.0454  -18.1712 C   0  0  2  0  0  0  0  0  0  0  0  0
   18.9442  -12.4794  -17.4859 N   0  0  0  0  0  0  0  0  0  0  0  0
   20.2829  -10.5492  -18.1005 C   0  0  0  0  0  0  0  0  0  0  0  0
   19.3523   -9.8102  -18.4834 O   0  0  0  0  0  0  0  0  0  0  0  0
   21.4671   -9.9521  -17.6086 N   0  0  0  0  0  0  0  0  0  0  0  0
   21.6143   -8.5064  -17.4213 C   0  0  0  0  0  0  0  0  0  0  0  0
   21.1530   -8.0775  -16.0989 C   0  0  0  0  0  0  0  0  0  0  0  0
   20.2667   -8.8776  -15.5791 O   0  0  0  0  0  0  0  0  0  0  0  0
   21.5101   -6.9709  -15.3340 N   0  0  0  0  0  0  0  0  0  0  0  0
   22.9359   -6.4517  -15.4331 C   0  0  0  0  0  0  0  0  0  0  0  0
   22.8026   -4.9619  -15.3063 C   0  0  0  0  0  0  0  0  0  0  0  0
   21.3311   -4.7251  -15.0845 C   0  0  0  0  0  0  0  0  0  0  0  0
   20.9709   -6.0729  -14.3889 C   0  0  1  0  0  0  0  0  0  0  0  0
   19.5873   -6.0328  -14.0303 C   0  0  0  0  0  0  0  0  0  0  0  0
   18.7746   -5.7187  -15.0019 O   0  0  0  0  0  0  0  0  0  0  0  0
   18.9341   -6.2623  -12.8507 O   0  0  0  0  0  0  0  0  0  0  0  0
  2  1  1  6
  2  3  1  0
  4  2  1  0
  4  5  2  0
  6  4  1  0
  7  6  1  0
  8  9  2  0
  8  7  1  0
 10  8  1  0
 11 12  1  0
 11 10  1  0
 13 14  1  0
 13 12  1  0
 14 10  1  0
 14 15  1  6
 15 17  1  0
 16 15  2  0
M  END
$$$$
