QNS.pdb
     RDKit          3D

 24 23  0  0  1  0  0  0  0  0999 V2000
   10.0977  -16.8056   14.0189 N   0  0  0  0  0  0  0  0  0  0  0  0
    8.7577  -17.1629   14.3977 C   0  0  0  0  0  0  0  0  0  0  0  0
    7.8815  -17.1381   13.4987 O   0  0  0  0  0  0  0  0  0  0  0  0
    8.4981  -17.5303   15.7897 C   0  0  0  0  0  0  0  0  0  0  0  0
    9.7001  -17.5096   16.6915 C   0  0  0  0  0  0  0  0  0  0  0  0
    9.3735  -17.8176   18.1097 C   0  0  2  0  0  0  0  0  0  0  0  0
    7.9554  -18.1302   18.1978 N   0  0  0  0  0  0  0  0  0  0  0  0
    9.6969  -16.6950   19.0349 C   0  0  0  0  0  0  0  0  0  0  0  0
   10.8986  -16.3751   19.2048 O   0  0  0  0  0  0  0  0  0  0  0  0
    6.8375  -12.3720   18.9225 N   0  0  0  0  0  0  0  0  0  0  0  0
    8.0261  -13.0097   19.3397 C   0  0  0  0  0  0  0  0  0  0  0  0
    9.0361  -12.8712   18.6074 O   0  0  0  0  0  0  0  0  0  0  0  0
    7.9973  -13.7820   20.5879 C   0  0  0  0  0  0  0  0  0  0  0  0
    9.0125  -14.8891   20.6475 C   0  0  2  0  0  0  0  0  0  0  0  0
    8.7205  -15.9689   19.7335 N   0  0  0  0  0  0  0  0  0  0  0  0
    9.2000  -15.3882   22.0428 C   0  0  0  0  0  0  0  0  0  0  0  0
    8.2690  -15.3685   22.8871 O   0  0  0  0  0  0  0  0  0  0  0  0
   10.4259  -18.6950   23.1320 O   0  0  0  0  0  0  0  0  0  0  0  0
    9.9928  -17.7523   24.0604 C   0  0  0  0  0  0  0  0  0  0  0  0
   10.5996  -16.3956   23.8441 C   0  0  2  0  0  0  0  0  0  0  0  0
   10.4520  -15.9161   22.4930 N   0  0  0  0  0  0  0  0  0  0  0  0
   12.0349  -16.4826   24.2253 C   0  0  0  0  0  0  0  0  0  0  0  0
   12.9634  -16.3086   23.3888 O   0  0  0  0  0  0  0  0  0  0  0  0
   12.3781  -16.7609   25.5281 O   0  0  0  0  0  0  0  0  0  0  0  0
  1  2  1  0
  2  3  2  0
  4  2  1  0
  4  5  1  0
  6  8  1  0
  6  5  1  0
  6  7  1  6
  8 15  1  0
  9  8  2  0
 11 10  1  0
 12 11  2  0
 14 13  1  1
 13 11  1  0
 15 14  1  0
 16 21  1  0
 16 14  1  0
 17 16  2  0
 19 18  1  0
 20 19  1  6
 20 21  1  0
 22 24  1  0
 22 20  1  0
 23 22  2  0
M  END
$$$$
