QNS.pdb
     RDKit          3D

 24 23  0  0  1  0  0  0  0  0999 V2000
    7.2194  -12.8181   17.5730 N   0  0  0  0  0  0  0  0  0  0  0  0
    8.0152  -13.1523   16.4232 C   0  0  0  0  0  0  0  0  0  0  0  0
    7.4131  -13.2950   15.3308 O   0  0  0  0  0  0  0  0  0  0  0  0
    9.4604  -13.3032   16.5921 C   0  0  0  0  0  0  0  0  0  0  0  0
    9.9517  -13.2140   18.0096 C   0  0  0  0  0  0  0  0  0  0  0  0
   10.3770  -14.5265   18.5656 C   0  0  2  0  0  0  0  0  0  0  0  0
    9.2564  -15.4497   18.4743 N   0  0  0  0  0  0  0  0  0  0  0  0
   10.8353  -14.4341   19.9807 C   0  0  0  0  0  0  0  0  0  0  0  0
   11.8823  -13.7921   20.2392 O   0  0  0  0  0  0  0  0  0  0  0  0
    8.0401  -13.5334   23.3969 N   0  0  0  0  0  0  0  0  0  0  0  0
    8.2919  -14.8882   23.0891 C   0  0  0  0  0  0  0  0  0  0  0  0
    7.3587  -15.5355   22.5544 O   0  0  0  0  0  0  0  0  0  0  0  0
    9.6137  -15.4387   23.4128 C   0  0  0  0  0  0  0  0  0  0  0  0
   10.6743  -15.1262   22.3942 C   0  0  2  0  0  0  0  0  0  0  0  0
   10.1525  -15.0324   21.0505 N   0  0  0  0  0  0  0  0  0  0  0  0
   11.8132  -16.0893   22.4736 C   0  0  0  0  0  0  0  0  0  0  0  0
   12.0416  -16.9259   21.5636 O   0  0  0  0  0  0  0  0  0  0  0  0
   15.4302  -15.4816   22.4685 O   0  0  0  0  0  0  0  0  0  0  0  0
   14.7714  -16.7062   22.4002 C   0  0  0  0  0  0  0  0  0  0  0  0
   13.8742  -16.9551   23.5787 C   0  0  2  0  0  0  0  0  0  0  0  0
   12.7064  -16.1106   23.5919 N   0  0  0  0  0  0  0  0  0  0  0  0
   14.6879  -16.7592   24.8085 C   0  0  0  0  0  0  0  0  0  0  0  0
   15.7584  -17.3949   25.0135 O   0  0  0  0  0  0  0  0  0  0  0  0
   14.2738  -15.8594   25.7633 O   0  0  0  0  0  0  0  0  0  0  0  0
  1  2  1  0
  2  3  2  0
  4  2  1  0
  4  5  1  0
  6  8  1  0
  6  5  1  0
  6  7  1  1
  8 15  1  0
  9  8  2  0
 11 10  1  0
 12 11  2  0
 14 13  1  1
 13 11  1  0
 15 14  1  0
 16 21  1  0
 16 14  1  0
 17 16  2  0
 19 18  1  0
 20 19  1  6
 20 21  1  0
 22 24  1  0
 22 20  1  0
 23 22  2  0
M  END
$$$$
