QNS.pdb
     RDKit          3D

 24 23  0  0  1  0  0  0  0  0999 V2000
    9.2041  -14.9261   12.8633 N   0  0  0  0  0  0  0  0  0  0  0  0
    8.1334  -15.7796   13.3014 C   0  0  0  0  0  0  0  0  0  0  0  0
    7.0366  -15.6793   12.6987 O   0  0  0  0  0  0  0  0  0  0  0  0
    8.3826  -16.7030   14.4084 C   0  0  0  0  0  0  0  0  0  0  0  0
    9.7199  -16.5536   15.0774 C   0  0  0  0  0  0  0  0  0  0  0  0
    9.8707  -17.4119   16.2830 C   0  0  2  0  0  0  0  0  0  0  0  0
    8.7020  -18.2722   16.3844 N   0  0  0  0  0  0  0  0  0  0  0  0
   10.0227  -16.6240   17.5388 C   0  0  0  0  0  0  0  0  0  0  0  0
   11.1650  -16.2228   17.8695 O   0  0  0  0  0  0  0  0  0  0  0  0
    6.6296  -12.7705   18.9366 N   0  0  0  0  0  0  0  0  0  0  0  0
    7.8547  -13.4637   19.0468 C   0  0  0  0  0  0  0  0  0  0  0  0
    8.8338  -12.9972   18.4149 O   0  0  0  0  0  0  0  0  0  0  0  0
    7.8966  -14.6688   19.8841 C   0  0  0  0  0  0  0  0  0  0  0  0
    9.0747  -15.5627   19.6136 C   0  0  2  0  0  0  0  0  0  0  0  0
    8.9466  -16.3032   18.3800 N   0  0  0  0  0  0  0  0  0  0  0  0
    9.3549  -16.4671   20.7689 C   0  0  0  0  0  0  0  0  0  0  0  0
    9.3974  -16.0423   21.9512 O   0  0  0  0  0  0  0  0  0  0  0  0
    9.6333  -20.6371   20.2574 O   0  0  0  0  0  0  0  0  0  0  0  0
    9.2646  -20.1275   21.4994 C   0  0  0  0  0  0  0  0  0  0  0  0
    9.7654  -18.7306   21.7314 C   0  0  2  0  0  0  0  0  0  0  0  0
    9.5903  -17.8676   20.5904 N   0  0  0  0  0  0  0  0  0  0  0  0
   11.2004  -18.8280   22.1112 C   0  0  0  0  0  0  0  0  0  0  0  0
   11.5820  -19.4540   23.1382 O   0  0  0  0  0  0  0  0  0  0  0  0
   12.1551  -18.2215   21.3280 O   0  0  0  0  0  0  0  0  0  0  0  0
  1  2  1  0
  2  3  2  0
  4  2  1  0
  4  5  1  0
  6  8  1  0
  6  5  1  0
  6  7  1  1
  8 15  1  0
  9  8  2  0
 11 10  1  0
 12 11  2  0
 14 13  1  1
 13 11  1  0
 15 14  1  0
 16 21  1  0
 16 14  1  0
 17 16  2  0
 19 18  1  0
 20 19  1  6
 20 21  1  0
 22 24  1  0
 22 20  1  0
 23 22  2  0
M  END
$$$$
