QNS.pdb
     RDKit          3D

 24 23  0  0  1  0  0  0  0  0999 V2000
   12.5942  -19.9028   12.5155 N   0  0  0  0  0  0  0  0  0  0  0  0
   11.4901  -20.0030   13.4308 C   0  0  0  0  0  0  0  0  0  0  0  0
   10.6168  -19.1026   13.3769 O   0  0  0  0  0  0  0  0  0  0  0  0
   11.4497  -21.1341   14.3577 C   0  0  0  0  0  0  0  0  0  0  0  0
   12.6049  -22.0894   14.2519 C   0  0  0  0  0  0  0  0  0  0  0  0
   12.5030  -23.2380   15.1917 C   0  0  2  0  0  0  0  0  0  0  0  0
   11.1069  -23.4039   15.5657 N   0  0  0  0  0  0  0  0  0  0  0  0
   13.3313  -23.0578   16.4174 C   0  0  0  0  0  0  0  0  0  0  0  0
   12.9939  -23.6507   17.4709 O   0  0  0  0  0  0  0  0  0  0  0  0
   18.6417  -20.7196   18.4163 N   0  0  0  0  0  0  0  0  0  0  0  0
   17.7130  -21.7805   18.3411 C   0  0  0  0  0  0  0  0  0  0  0  0
   17.7550  -22.6422   19.2529 O   0  0  0  0  0  0  0  0  0  0  0  0
   16.7733  -21.8007   17.2134 C   0  0  0  0  0  0  0  0  0  0  0  0
   15.3642  -22.1585   17.5958 C   0  0  2  0  0  0  0  0  0  0  0  0
   14.4799  -22.2530   16.4576 N   0  0  0  0  0  0  0  0  0  0  0  0
   14.8238  -21.2301   18.6337 C   0  0  0  0  0  0  0  0  0  0  0  0
   14.3828  -20.0899   18.3415 O   0  0  0  0  0  0  0  0  0  0  0  0
   12.2556  -20.0255   22.2091 O   0  0  0  0  0  0  0  0  0  0  0  0
   12.7877  -20.9362   21.3004 C   0  0  0  0  0  0  0  0  0  0  0  0
   14.2353  -20.6794   20.9935 C   0  0  2  0  0  0  0  0  0  0  0  0
   14.7796  -21.5904   20.0183 N   0  0  0  0  0  0  0  0  0  0  0  0
   14.9848  -20.7609   22.2760 C   0  0  0  0  0  0  0  0  0  0  0  0
   15.5204  -21.8319   22.6737 O   0  0  0  0  0  0  0  0  0  0  0  0
   15.1072  -19.6411   23.0658 O   0  0  0  0  0  0  0  0  0  0  0  0
  1  2  1  0
  2  3  2  0
  4  2  1  0
  4  5  1  0
  6  8  1  0
  6  5  1  0
  6  7  1  1
  8 15  1  0
  9  8  2  0
 11 10  1  0
 12 11  2  0
 14 13  1  6
 13 11  1  0
 15 14  1  0
 16 21  1  0
 16 14  1  0
 17 16  2  0
 19 18  1  0
 20 19  1  1
 20 21  1  0
 22 24  1  0
 22 20  1  0
 23 22  2  0
M  END
$$$$
