QNS.pdb
     RDKit          3D

 24 23  0  0  1  0  0  0  0  0999 V2000
    9.8900  -15.2587   15.6520 N   0  0  0  0  0  0  0  0  0  0  0  0
    9.3039  -14.0596   15.1176 C   0  0  0  0  0  0  0  0  0  0  0  0
    9.2750  -13.9431   13.8678 O   0  0  0  0  0  0  0  0  0  0  0  0
    8.7820  -13.0600   16.0495 C   0  0  0  0  0  0  0  0  0  0  0  0
    8.7616  -13.4797   17.4924 C   0  0  0  0  0  0  0  0  0  0  0  0
    7.7410  -14.5216   17.7849 C   0  0  2  0  0  0  0  0  0  0  0  0
    6.4231  -13.9120   17.6976 N   0  0  0  0  0  0  0  0  0  0  0  0
    7.9170  -15.1430   19.1279 C   0  0  0  0  0  0  0  0  0  0  0  0
    7.2078  -14.7393   20.0815 O   0  0  0  0  0  0  0  0  0  0  0  0
    8.7279  -19.7489   18.4572 N   0  0  0  0  0  0  0  0  0  0  0  0
    8.2853  -19.1086   19.6351 C   0  0  0  0  0  0  0  0  0  0  0  0
    7.0715  -19.2313   19.9305 O   0  0  0  0  0  0  0  0  0  0  0  0
    9.2659  -18.3522   20.4234 C   0  0  0  0  0  0  0  0  0  0  0  0
    8.9067  -16.9064   20.6250 C   0  0  2  0  0  0  0  0  0  0  0  0
    8.8423  -16.1655   19.3866 N   0  0  0  0  0  0  0  0  0  0  0  0
    9.8141  -16.2470   21.6114 C   0  0  0  0  0  0  0  0  0  0  0  0
   10.7306  -15.4651   21.2528 O   0  0  0  0  0  0  0  0  0  0  0  0
    8.6496  -15.1768   25.2900 O   0  0  0  0  0  0  0  0  0  0  0  0
    9.8576  -14.7388   24.7542 C   0  0  0  0  0  0  0  0  0  0  0  0
   10.5580  -15.7949   23.9481 C   0  0  2  0  0  0  0  0  0  0  0  0
    9.6877  -16.4710   23.0194 N   0  0  0  0  0  0  0  0  0  0  0  0
   11.1668  -16.7569   24.9056 C   0  0  0  0  0  0  0  0  0  0  0  0
   10.8108  -17.9662   24.9600 O   0  0  0  0  0  0  0  0  0  0  0  0
   12.1512  -16.3302   25.7667 O   0  0  0  0  0  0  0  0  0  0  0  0
  1  2  1  0
  2  3  2  0
  4  2  1  0
  4  5  1  0
  6  8  1  0
  6  5  1  0
  6  7  1  1
  8 15  1  0
  9  8  2  0
 11 10  1  0
 12 11  2  0
 14 13  1  6
 13 11  1  0
 15 14  1  0
 16 21  1  0
 16 14  1  0
 17 16  2  0
 19 18  1  0
 20 19  1  1
 20 21  1  0
 22 24  1  0
 22 20  1  0
 23 22  2  0
M  END
$$$$
