QNS.pdb
     RDKit          3D

 24 23  0  0  1  0  0  0  0  0999 V2000
   10.2162  -13.0467   18.5440 N   0  0  0  0  0  0  0  0  0  0  0  0
    8.8477  -12.6144   18.4598 C   0  0  0  0  0  0  0  0  0  0  0  0
    8.5684  -11.7620   17.5813 O   0  0  0  0  0  0  0  0  0  0  0  0
    7.8743  -13.1867   19.3899 C   0  0  0  0  0  0  0  0  0  0  0  0
    8.4323  -14.1828   20.3671 C   0  0  0  0  0  0  0  0  0  0  0  0
    8.8507  -15.4591   19.7278 C   0  0  2  0  0  0  0  0  0  0  0  0
    7.6804  -16.0760   19.1228 N   0  0  0  0  0  0  0  0  0  0  0  0
    9.4767  -16.4099   20.6896 C   0  0  0  0  0  0  0  0  0  0  0  0
    8.7739  -17.3250   21.1833 O   0  0  0  0  0  0  0  0  0  0  0  0
   13.3147  -18.0150   19.0337 N   0  0  0  0  0  0  0  0  0  0  0  0
   12.6811  -18.5344   20.1836 C   0  0  0  0  0  0  0  0  0  0  0  0
   12.0677  -19.6221   20.0557 O   0  0  0  0  0  0  0  0  0  0  0  0
   12.7834  -17.7737   21.4350 C   0  0  0  0  0  0  0  0  0  0  0  0
   11.4648  -17.2806   21.9623 C   0  0  2  0  0  0  0  0  0  0  0  0
   10.8232  -16.3365   21.0771 N   0  0  0  0  0  0  0  0  0  0  0  0
   11.5964  -16.7323   23.3455 C   0  0  0  0  0  0  0  0  0  0  0  0
   12.0950  -15.6000   23.5676 O   0  0  0  0  0  0  0  0  0  0  0  0
    8.8382  -16.3875   25.8575 O   0  0  0  0  0  0  0  0  0  0  0  0
   10.1149  -15.8589   26.0273 C   0  0  0  0  0  0  0  0  0  0  0  0
   11.2022  -16.8707   25.8039 C   0  0  2  0  0  0  0  0  0  0  0  0
   11.1612  -17.4686   24.4932 N   0  0  0  0  0  0  0  0  0  0  0  0
   11.0750  -17.9046   26.8659 C   0  0  0  0  0  0  0  0  0  0  0  0
   10.7662  -19.1001   26.6055 O   0  0  0  0  0  0  0  0  0  0  0  0
   11.2978  -17.5627   28.1797 O   0  0  0  0  0  0  0  0  0  0  0  0
  1  2  1  0
  2  3  2  0
  4  2  1  0
  4  5  1  0
  6  8  1  0
  6  5  1  0
  6  7  1  1
  8 15  1  0
  9  8  2  0
 11 10  1  0
 12 11  2  0
 14 13  1  6
 13 11  1  0
 15 14  1  0
 16 21  1  0
 16 14  1  0
 17 16  2  0
 19 18  1  0
 20 19  1  6
 20 21  1  0
 22 24  1  0
 22 20  1  0
 23 22  2  0
M  END
$$$$
