QNS.pdb
     RDKit          3D

 24 23  0  0  1  0  0  0  0  0999 V2000
    7.0973  -12.7108   16.3638 N   0  0  0  0  0  0  0  0  0  0  0  0
    7.6924  -14.0173   16.2892 C   0  0  0  0  0  0  0  0  0  0  0  0
    7.3044  -14.7723   15.3641 O   0  0  0  0  0  0  0  0  0  0  0  0
    8.7023  -14.3843   17.2820 C   0  0  0  0  0  0  0  0  0  0  0  0
    8.9945  -13.3335   18.3158 C   0  0  0  0  0  0  0  0  0  0  0  0
   10.2130  -13.6241   19.1180 C   0  0  2  0  0  0  0  0  0  0  0  0
   11.3192  -13.8636   18.2040 N   0  0  0  0  0  0  0  0  0  0  0  0
   10.0456  -14.7987   20.0197 C   0  0  0  0  0  0  0  0  0  0  0  0
    9.1045  -14.7975   20.8501 O   0  0  0  0  0  0  0  0  0  0  0  0
   10.0833  -20.3821   20.7828 N   0  0  0  0  0  0  0  0  0  0  0  0
   11.1656  -19.5217   21.0693 C   0  0  0  0  0  0  0  0  0  0  0  0
   11.9167  -19.8460   22.0213 O   0  0  0  0  0  0  0  0  0  0  0  0
   11.3344  -18.3208   20.2420 C   0  0  0  0  0  0  0  0  0  0  0  0
   10.7312  -17.0780   20.8349 C   0  0  2  0  0  0  0  0  0  0  0  0
   10.8919  -15.9174   19.9901 N   0  0  0  0  0  0  0  0  0  0  0  0
   11.2405  -16.8250   22.2161 C   0  0  0  0  0  0  0  0  0  0  0  0
   12.3322  -16.2381   22.4254 O   0  0  0  0  0  0  0  0  0  0  0  0
    8.7367  -16.3646   25.4252 O   0  0  0  0  0  0  0  0  0  0  0  0
   10.0620  -15.9382   25.4129 C   0  0  0  0  0  0  0  0  0  0  0  0
   10.9764  -16.8890   24.6949 C   0  0  2  0  0  0  0  0  0  0  0  0
   10.5111  -17.2382   23.3763 N   0  0  0  0  0  0  0  0  0  0  0  0
   11.1205  -18.0995   25.5475 C   0  0  0  0  0  0  0  0  0  0  0  0
   11.6096  -18.0479   26.7095 O   0  0  0  0  0  0  0  0  0  0  0  0
   10.7121  -19.3227   25.0684 O   0  0  0  0  0  0  0  0  0  0  0  0
  1  2  1  0
  2  3  2  0
  4  2  1  0
  4  5  1  0
  6  8  1  0
  6  5  1  0
  6  7  1  6
  8 15  1  0
  9  8  2  0
 11 10  1  0
 12 11  2  0
 14 13  1  6
 13 11  1  0
 15 14  1  0
 16 21  1  0
 16 14  1  0
 17 16  2  0
 19 18  1  0
 20 19  1  1
 20 21  1  0
 22 24  1  0
 22 20  1  0
 23 22  2  0
M  END
$$$$
