CFM.pdb
     RDKit          3D

 26 26  0  0  1  0  0  0  0  0999 V2000
   28.5014  -23.0444  -16.8535 N   0  0  0  0  0  0  0  0  0  0  0  0
   27.6053  -21.9125  -16.7899 C   0  0  1  0  0  0  0  0  0  0  0  0
   26.8628  -21.7134  -18.1004 C   0  0  0  0  0  0  0  0  0  0  0  0
   25.8329  -20.2270  -17.9983 S   0  0  0  0  0  0  0  0  0  0  0  0
   26.6551  -22.0397  -15.6506 C   0  0  0  0  0  0  0  0  0  0  0  0
   26.0739  -23.1282  -15.4133 O   0  0  0  0  0  0  0  0  0  0  0  0
   26.3673  -20.9473  -14.7909 N   0  0  0  0  0  0  0  0  0  0  0  0
   25.4532  -21.0533  -13.6966 C   0  0  1  0  0  0  0  0  0  0  0  0
   25.8067  -20.1385  -12.5458 C   0  0  0  0  0  0  0  0  0  0  0  0
   24.9877  -20.3593  -11.3511 C   0  0  0  0  0  0  0  0  0  0  0  0
   23.6772  -19.8710  -11.2971 C   0  0  0  0  0  0  0  0  0  0  0  0
   22.9129  -20.0833  -10.1685 C   0  0  0  0  0  0  0  0  0  0  0  0
   23.3831  -20.7666   -9.0663 C   0  0  0  0  0  0  0  0  0  0  0  0
   24.6726  -21.2498   -9.1133 C   0  0  0  0  0  0  0  0  0  0  0  0
   25.4476  -21.0404  -10.2448 C   0  0  0  0  0  0  0  0  0  0  0  0
   24.0384  -20.9103  -14.1012 C   0  0  0  0  0  0  0  0  0  0  0  0
   23.7277  -19.9949  -14.8866 O   0  0  0  0  0  0  0  0  0  0  0  0
   21.0800  -24.4492  -17.5125 C   0  0  0  0  0  0  0  0  0  0  0  0
   19.5247  -24.0200  -16.6801 S   0  0  0  0  0  0  0  0  0  0  0  0
   19.9126  -22.7523  -15.4236 C   0  0  0  0  0  0  0  0  0  0  0  0
   21.3598  -22.8223  -15.0187 C   0  0  0  0  0  0  0  0  0  0  0  0
   21.6761  -21.7855  -14.0179 C   0  0  2  0  0  0  0  0  0  0  0  0
   23.0705  -21.7834  -13.6130 N   0  0  0  0  0  0  0  0  0  0  0  0
   20.7752  -21.7800  -12.8569 C   0  0  0  0  0  0  0  0  0  0  0  0
   21.0628  -22.7347  -11.8485 O   0  0  0  0  0  0  0  0  0  0  0  0
   19.8024  -21.0421  -12.6631 O   0  0  0  0  0  0  0  0  0  0  0  0
  2  1  1  6
  3  4  1  0
  3  2  1  0
  5  2  1  0
  5  6  2  0
  7  5  1  0
  8  7  1  0
  8  9  1  1
 10  9  1  0
 10 11  2  0
 12 11  1  0
 13 12  2  0
 14 15  2  0
 14 13  1  0
 15 10  1  0
 16  8  1  0
 17 16  2  0
 18 19  1  0
 19 20  1  0
 20 21  1  0
 22 21  1  1
 22 24  1  0
 22 23  1  0
 23 16  1  0
 24 25  1  0
 26 24  2  0
M  END
$$$$
