CFM.pdb
     RDKit          3D

 26 26  0  0  1  0  0  0  0  0999 V2000
   22.0005  -13.9819  -16.3445 N   0  0  0  0  0  0  0  0  0  0  0  0
   22.1002  -12.7452  -17.0853 C   0  0  1  0  0  0  0  0  0  0  0  0
   21.0639  -12.6728  -18.1940 C   0  0  0  0  0  0  0  0  0  0  0  0
   21.5430  -13.7741  -19.5498 S   0  0  0  0  0  0  0  0  0  0  0  0
   22.0006  -11.5656  -16.1821 C   0  0  0  0  0  0  0  0  0  0  0  0
   21.0998  -11.4955  -15.3088 O   0  0  0  0  0  0  0  0  0  0  0  0
   22.9102  -10.4790  -16.2675 N   0  0  0  0  0  0  0  0  0  0  0  0
   22.7916   -9.3140  -15.4473 C   0  0  1  0  0  0  0  0  0  0  0  0
   24.0019   -9.0884  -14.5695 C   0  0  0  0  0  0  0  0  0  0  0  0
   25.2708   -9.3991  -15.2330 C   0  0  0  0  0  0  0  0  0  0  0  0
   26.0068  -10.5263  -14.8502 C   0  0  0  0  0  0  0  0  0  0  0  0
   27.2005  -10.8115  -15.4801 C   0  0  0  0  0  0  0  0  0  0  0  0
   27.7180  -10.0266  -16.4895 C   0  0  0  0  0  0  0  0  0  0  0  0
   26.9981   -8.9154  -16.8709 C   0  0  0  0  0  0  0  0  0  0  0  0
   25.7967   -8.6218  -16.2423 C   0  0  0  0  0  0  0  0  0  0  0  0
   22.4264   -8.0993  -16.2070 C   0  0  0  0  0  0  0  0  0  0  0  0
   22.9686   -7.8945  -17.3094 O   0  0  0  0  0  0  0  0  0  0  0  0
   20.0514   -6.2618  -21.1279 C   0  0  0  0  0  0  0  0  0  0  0  0
   18.8128   -5.7500  -19.9033 S   0  0  0  0  0  0  0  0  0  0  0  0
   19.7133   -5.2598  -18.3915 C   0  0  0  0  0  0  0  0  0  0  0  0
   20.1733   -6.4693  -17.6243 C   0  0  0  0  0  0  0  0  0  0  0  0
   20.9450   -6.0724  -16.4311 C   0  0  2  0  0  0  0  0  0  0  0  0
   21.4929   -7.2004  -15.6991 N   0  0  0  0  0  0  0  0  0  0  0  0
   20.2349   -5.1429  -15.5414 C   0  0  0  0  0  0  0  0  0  0  0  0
   20.0987   -3.8146  -16.0190 O   0  0  0  0  0  0  0  0  0  0  0  0
   19.7472   -5.3880  -14.4321 O   0  0  0  0  0  0  0  0  0  0  0  0
  2  1  1  1
  3  4  1  0
  3  2  1  0
  5  2  1  0
  5  6  2  0
  7  5  1  0
  8  7  1  0
  8  9  1  6
 10  9  1  0
 10 11  2  0
 12 11  1  0
 13 12  2  0
 14 15  2  0
 14 13  1  0
 15 10  1  0
 16  8  1  0
 17 16  2  0
 18 19  1  0
 19 20  1  0
 20 21  1  0
 22 21  1  6
 22 24  1  0
 22 23  1  0
 23 16  1  0
 24 25  1  0
 26 24  2  0
M  END
$$$$
