CFM.pdb
     RDKit          3D

 26 26  0  0  1  0  0  0  0  0999 V2000
   28.3704  -22.7311  -17.7440 N   0  0  0  0  0  0  0  0  0  0  0  0
   27.3881  -21.7248  -17.4115 C   0  0  1  0  0  0  0  0  0  0  0  0
   26.1913  -21.7819  -18.3456 C   0  0  0  0  0  0  0  0  0  0  0  0
   25.1691  -20.3040  -18.1188 S   0  0  0  0  0  0  0  0  0  0  0  0
   26.9622  -21.8356  -15.9890 C   0  0  0  0  0  0  0  0  0  0  0  0
   26.6620  -22.9490  -15.4899 O   0  0  0  0  0  0  0  0  0  0  0  0
   26.8776  -20.6989  -15.1427 N   0  0  0  0  0  0  0  0  0  0  0  0
   26.4731  -20.7906  -13.7744 C   0  0  1  0  0  0  0  0  0  0  0  0
   27.2466  -19.8579  -12.8699 C   0  0  0  0  0  0  0  0  0  0  0  0
   26.9937  -20.0835  -11.4445 C   0  0  0  0  0  0  0  0  0  0  0  0
   27.7065  -21.0684  -10.7512 C   0  0  0  0  0  0  0  0  0  0  0  0
   27.4623  -21.2742   -9.4092 C   0  0  0  0  0  0  0  0  0  0  0  0
   26.5318  -20.5440   -8.6993 C   0  0  0  0  0  0  0  0  0  0  0  0
   25.8267  -19.5729   -9.3762 C   0  0  0  0  0  0  0  0  0  0  0  0
   26.0666  -19.3598  -10.7259 C   0  0  0  0  0  0  0  0  0  0  0  0
   25.0127  -20.6567  -13.5867 C   0  0  0  0  0  0  0  0  0  0  0  0
   24.3972  -19.8030  -14.2527 O   0  0  0  0  0  0  0  0  0  0  0  0
   21.6950  -21.8247   -8.0491 C   0  0  0  0  0  0  0  0  0  0  0  0
   20.6000  -22.6059   -9.2683 S   0  0  0  0  0  0  0  0  0  0  0  0
   21.0513  -21.9412  -10.9088 C   0  0  0  0  0  0  0  0  0  0  0  0
   22.5456  -21.8611  -11.0634 C   0  0  0  0  0  0  0  0  0  0  0  0
   22.9101  -21.4149  -12.4217 C   0  0  2  0  0  0  0  0  0  0  0  0
   24.3375  -21.4706  -12.6816 N   0  0  0  0  0  0  0  0  0  0  0  0
   22.3419  -20.1124  -12.7960 C   0  0  0  0  0  0  0  0  0  0  0  0
   23.2114  -18.9997  -12.6657 O   0  0  0  0  0  0  0  0  0  0  0  0
   21.1997  -19.8804  -13.2084 O   0  0  0  0  0  0  0  0  0  0  0  0
  2  1  1  6
  3  4  1  0
  3  2  1  0
  5  2  1  0
  5  6  2  0
  7  5  1  0
  8  7  1  0
  8  9  1  1
 10  9  1  0
 10 11  2  0
 12 11  1  0
 13 12  2  0
 14 15  2  0
 14 13  1  0
 15 10  1  0
 16  8  1  0
 17 16  2  0
 18 19  1  0
 19 20  1  0
 20 21  1  0
 22 21  1  1
 22 24  1  0
 22 23  1  0
 23 16  1  0
 24 25  1  0
 26 24  2  0
M  END
$$$$
