CFM.pdb
     RDKit          3D

 26 26  0  0  1  0  0  0  0  0999 V2000
   23.0374  -36.5293  -13.0097 N   0  0  0  0  0  0  0  0  0  0  0  0
   22.6791  -35.3980  -12.1850 C   0  0  1  0  0  0  0  0  0  0  0  0
   21.2031  -35.4140  -11.8253 C   0  0  0  0  0  0  0  0  0  0  0  0
   20.8339  -36.8802  -10.8283 S   0  0  0  0  0  0  0  0  0  0  0  0
   23.5269  -35.3311  -10.9628 C   0  0  0  0  0  0  0  0  0  0  0  0
   24.1534  -36.3414  -10.5557 O   0  0  0  0  0  0  0  0  0  0  0  0
   23.6631  -34.1344  -10.2113 N   0  0  0  0  0  0  0  0  0  0  0  0
   24.4495  -34.0631   -9.0195 C   0  0  1  0  0  0  0  0  0  0  0  0
   25.0314  -32.6879   -8.7815 C   0  0  0  0  0  0  0  0  0  0  0  0
   25.9205  -32.6230   -7.6188 C   0  0  0  0  0  0  0  0  0  0  0  0
   25.4189  -32.2355   -6.3710 C   0  0  0  0  0  0  0  0  0  0  0  0
   26.2630  -32.1770   -5.2814 C   0  0  0  0  0  0  0  0  0  0  0  0
   27.6049  -32.4872   -5.3591 C   0  0  0  0  0  0  0  0  0  0  0  0
   28.1047  -32.8695   -6.5849 C   0  0  0  0  0  0  0  0  0  0  0  0
   27.2623  -32.9307   -7.6855 C   0  0  0  0  0  0  0  0  0  0  0  0
   23.7483  -34.5803   -7.8250 C   0  0  0  0  0  0  0  0  0  0  0  0
   22.5871  -34.1929   -7.5954 O   0  0  0  0  0  0  0  0  0  0  0  0
   22.4393  -40.5929   -6.0837 C   0  0  0  0  0  0  0  0  0  0  0  0
   23.3701  -40.0118   -4.6374 S   0  0  0  0  0  0  0  0  0  0  0  0
   23.2453  -38.1897   -4.6069 C   0  0  0  0  0  0  0  0  0  0  0  0
   23.9440  -37.5834   -5.7931 C   0  0  0  0  0  0  0  0  0  0  0  0
   23.7427  -36.1223   -5.8312 C   0  0  2  0  0  0  0  0  0  0  0  0
   24.3749  -35.4842   -6.9720 N   0  0  0  0  0  0  0  0  0  0  0  0
   24.0782  -35.4393   -4.5740 C   0  0  0  0  0  0  0  0  0  0  0  0
   25.4317  -35.0412   -4.4305 O   0  0  0  0  0  0  0  0  0  0  0  0
   23.3182  -35.1752   -3.6353 O   0  0  0  0  0  0  0  0  0  0  0  0
  2  1  1  1
  3  4  1  0
  3  2  1  0
  5  2  1  0
  5  6  2  0
  7  5  1  0
  8  7  1  0
  8  9  1  1
 10  9  1  0
 10 11  2  0
 12 11  1  0
 13 12  2  0
 14 15  2  0
 14 13  1  0
 15 10  1  0
 16  8  1  0
 17 16  2  0
 18 19  1  0
 19 20  1  0
 20 21  1  0
 22 21  1  1
 22 24  1  0
 22 23  1  0
 23 16  1  0
 24 25  1  0
 26 24  2  0
M  END
$$$$
