DEH.pdb
     RDKit          3D

 28 28  0  0  1  0  0  0  0  0999 V2000
   10.2915  -14.4729   15.4378 N   0  0  0  0  0  0  0  0  0  0  0  0
    9.8734  -15.6715   16.1270 C   0  0  1  0  0  0  0  0  0  0  0  0
    9.7604  -16.8340   15.1853 C   0  0  0  0  0  0  0  0  0  0  0  0
   10.2303  -16.4270   13.8377 C   0  0  0  0  0  0  0  0  0  0  0  0
   11.1033  -15.5446   13.6660 O   0  0  0  0  0  0  0  0  0  0  0  0
   10.7333  -15.9076   17.2825 C   0  0  0  0  0  0  0  0  0  0  0  0
   10.5220  -16.9812   17.9420 O   0  0  0  0  0  0  0  0  0  0  0  0
    9.6953  -17.0339   12.7118 O   0  0  0  0  0  0  0  0  0  0  0  0
   11.7676  -15.0253   17.6995 N   0  0  0  0  0  0  0  0  0  0  0  0
   12.4616  -15.3580   18.9420 C   0  0  1  0  0  0  0  0  0  0  0  0
   13.8682  -14.8449   18.7513 C   0  0  0  0  0  0  0  0  0  0  0  0
   14.7144  -15.6934   17.8694 C   0  0  0  0  0  0  0  0  0  0  0  0
   16.0929  -15.0657   17.8350 C   0  0  0  0  0  0  0  0  0  0  0  0
   17.1153  -15.7925   17.7661 O   0  0  0  0  0  0  0  0  0  0  0  0
   11.8575  -14.6677   20.0894 C   0  0  0  0  0  0  0  0  0  0  0  0
   11.3610  -13.5351   19.9161 O   0  0  0  0  0  0  0  0  0  0  0  0
   16.1724  -13.6876   17.8817 O   0  0  0  0  0  0  0  0  0  0  0  0
   11.7991  -15.2065   21.3982 N   0  0  0  0  0  0  0  0  0  0  0  0
   10.5686  -15.2113   22.1689 C   0  0  1  0  0  0  0  0  0  0  0  0
    9.4329  -15.8214   21.3734 C   0  0  0  0  0  0  0  0  0  0  0  0
    8.6952  -14.8042   20.5954 C   0  0  0  0  0  0  0  0  0  0  0  0
    8.9893  -13.4629   20.5108 C   0  0  0  0  0  0  0  0  0  0  0  0
    8.0813  -12.8991   19.7193 N   0  0  0  0  0  0  0  0  0  0  0  0
    7.2207  -13.8623   19.3043 C   0  0  0  0  0  0  0  0  0  0  0  0
    7.5883  -15.0380   19.8369 N   0  0  0  0  0  0  0  0  0  0  0  0
   10.7558  -15.8029   23.4950 C   0  0  0  0  0  0  0  0  0  0  0  0
   10.1547  -15.4015   24.6623 O   0  0  0  0  0  0  0  0  0  0  0  0
   11.5523  -16.7877   23.5933 O   0  0  0  0  0  0  0  0  0  0  0  0
  2  6  1  0
  2  1  1  6
  3  2  1  0
  3  4  1  0
  4  5  2  0
  6  7  2  0
  8  4  1  0
  9 10  1  0
  9  6  1  0
 10 11  1  6
 11 12  1  0
 12 13  1  0
 13 14  2  0
 13 17  1  0
 15 10  1  0
 16 15  2  0
 18 15  1  0
 19 20  1  6
 19 18  1  0
 20 21  1  0
 21 25  1  0
 21 22  2  0
 22 23  1  0
 24 23  1  0
 25 24  2  0
 26 19  1  0
 27 26  1  0
 28 26  2  0
M  END
$$$$
