DEH.pdb
     RDKit          3D

 28 28  0  0  1  0  0  0  0  0999 V2000
   15.6983  -13.5927   16.5770 N   0  0  0  0  0  0  0  0  0  0  0  0
   14.8234  -14.7139   16.8301 C   0  0  1  0  0  0  0  0  0  0  0  0
   15.6009  -15.9808   17.0337 C   0  0  0  0  0  0  0  0  0  0  0  0
   16.2174  -16.3951   15.7489 C   0  0  0  0  0  0  0  0  0  0  0  0
   15.6467  -16.2358   14.6447 O   0  0  0  0  0  0  0  0  0  0  0  0
   13.8975  -14.3894   17.9107 C   0  0  0  0  0  0  0  0  0  0  0  0
   14.4151  -13.9580   18.9963 O   0  0  0  0  0  0  0  0  0  0  0  0
   17.4728  -16.9835   15.7480 O   0  0  0  0  0  0  0  0  0  0  0  0
   12.4852  -14.5257   17.8177 N   0  0  0  0  0  0  0  0  0  0  0  0
   11.7087  -14.2119   19.0156 C   0  0  1  0  0  0  0  0  0  0  0  0
   10.2899  -14.0480   18.5275 C   0  0  0  0  0  0  0  0  0  0  0  0
    9.3235  -13.6399   19.5826 C   0  0  0  0  0  0  0  0  0  0  0  0
    8.0031  -13.3602   18.8944 C   0  0  0  0  0  0  0  0  0  0  0  0
    7.8672  -13.6006   17.6689 O   0  0  0  0  0  0  0  0  0  0  0  0
   11.7522  -15.3176   19.9819 C   0  0  0  0  0  0  0  0  0  0  0  0
   12.4722  -16.3066   19.7315 O   0  0  0  0  0  0  0  0  0  0  0  0
    6.9775  -12.8402   19.6597 O   0  0  0  0  0  0  0  0  0  0  0  0
   11.0223  -15.3391   21.1957 N   0  0  0  0  0  0  0  0  0  0  0  0
   11.5483  -15.9699   22.3930 C   0  0  1  0  0  0  0  0  0  0  0  0
   12.9384  -15.4578   22.7097 C   0  0  0  0  0  0  0  0  0  0  0  0
   13.9897  -16.3423   22.1654 C   0  0  0  0  0  0  0  0  0  0  0  0
   13.9438  -17.7145   22.0778 C   0  0  0  0  0  0  0  0  0  0  0  0
   15.0885  -18.1238   21.5381 N   0  0  0  0  0  0  0  0  0  0  0  0
   15.8541  -17.0329   21.2847 C   0  0  0  0  0  0  0  0  0  0  0  0
   15.1887  -15.9316   21.6664 N   0  0  0  0  0  0  0  0  0  0  0  0
   10.6097  -15.8853   23.5135 C   0  0  0  0  0  0  0  0  0  0  0  0
   10.5276  -16.7472   24.5790 O   0  0  0  0  0  0  0  0  0  0  0  0
    9.7799  -14.9234   23.5151 O   0  0  0  0  0  0  0  0  0  0  0  0
  2  6  1  0
  2  1  1  1
  3  2  1  0
  3  4  1  0
  4  5  2  0
  6  7  2  0
  8  4  1  0
  9 10  1  0
  9  6  1  0
 10 11  1  6
 11 12  1  0
 12 13  1  0
 13 14  2  0
 13 17  1  0
 15 10  1  0
 16 15  2  0
 18 15  1  0
 19 20  1  1
 19 18  1  0
 20 21  1  0
 21 25  1  0
 21 22  2  0
 22 23  1  0
 24 23  1  0
 25 24  2  0
 26 19  1  0
 27 26  1  0
 28 26  2  0
M  END
$$$$
