DEH.pdb
     RDKit          3D

 28 28  0  0  1  0  0  0  0  0999 V2000
   12.7935  -15.1126   16.5085 N   0  0  0  0  0  0  0  0  0  0  0  0
   13.3546  -15.6662   17.7189 C   0  0  1  0  0  0  0  0  0  0  0  0
   14.2446  -14.6775   18.4126 C   0  0  0  0  0  0  0  0  0  0  0  0
   15.4488  -14.4276   17.5821 C   0  0  0  0  0  0  0  0  0  0  0  0
   15.9114  -15.2820   16.7907 O   0  0  0  0  0  0  0  0  0  0  0  0
   12.2920  -16.2171   18.5541 C   0  0  0  0  0  0  0  0  0  0  0  0
   11.0971  -15.8751   18.2579 O   0  0  0  0  0  0  0  0  0  0  0  0
   16.1027  -13.2082   17.6703 O   0  0  0  0  0  0  0  0  0  0  0  0
   12.5146  -17.0928   19.6522 N   0  0  0  0  0  0  0  0  0  0  0  0
   11.3338  -17.5707   20.3687 C   0  0  1  0  0  0  0  0  0  0  0  0
   11.7340  -18.9157   20.9245 C   0  0  0  0  0  0  0  0  0  0  0  0
   10.6862  -19.5718   21.7522 C   0  0  0  0  0  0  0  0  0  0  0  0
   11.2317  -20.9200   22.1767 C   0  0  0  0  0  0  0  0  0  0  0  0
   10.6539  -21.9759   21.8167 O   0  0  0  0  0  0  0  0  0  0  0  0
   10.9929  -16.6794   21.4856 C   0  0  0  0  0  0  0  0  0  0  0  0
   11.9160  -16.1027   22.0977 O   0  0  0  0  0  0  0  0  0  0  0  0
   12.3689  -20.9348   22.9604 O   0  0  0  0  0  0  0  0  0  0  0  0
    9.6694  -16.4259   21.9224 N   0  0  0  0  0  0  0  0  0  0  0  0
    9.3917  -15.5805   23.0696 C   0  0  1  0  0  0  0  0  0  0  0  0
    8.1403  -14.7565   22.8457 C   0  0  0  0  0  0  0  0  0  0  0  0
    8.3106  -13.7813   21.7485 C   0  0  0  0  0  0  0  0  0  0  0  0
    9.4822  -13.4781   21.0941 C   0  0  0  0  0  0  0  0  0  0  0  0
    9.2077  -12.5487   20.1832 N   0  0  0  0  0  0  0  0  0  0  0  0
    7.8836  -12.2616   20.2529 C   0  0  0  0  0  0  0  0  0  0  0  0
    7.3216  -13.0135   21.2121 N   0  0  0  0  0  0  0  0  0  0  0  0
    9.3924  -16.3394   24.3216 C   0  0  0  0  0  0  0  0  0  0  0  0
    9.2709  -15.8267   25.5895 O   0  0  0  0  0  0  0  0  0  0  0  0
    9.5178  -17.6013   24.2451 O   0  0  0  0  0  0  0  0  0  0  0  0
  2  6  1  0
  2  1  1  6
  3  2  1  0
  3  4  1  0
  4  5  2  0
  6  7  2  0
  8  4  1  0
  9 10  1  0
  9  6  1  0
 10 11  1  1
 11 12  1  0
 12 13  1  0
 13 14  2  0
 13 17  1  0
 15 10  1  0
 16 15  2  0
 18 15  1  0
 19 20  1  6
 19 18  1  0
 20 21  1  0
 21 25  1  0
 21 22  2  0
 22 23  1  0
 24 23  1  0
 25 24  2  0
 26 19  1  0
 27 26  1  0
 28 26  2  0
M  END
$$$$
