DEH.pdb
     RDKit          3D

 28 28  0  0  1  0  0  0  0  0999 V2000
   13.7596  -16.2023   16.3954 N   0  0  0  0  0  0  0  0  0  0  0  0
   14.0408  -15.8981   17.7792 C   0  0  1  0  0  0  0  0  0  0  0  0
   14.2475  -14.4266   17.9859 C   0  0  0  0  0  0  0  0  0  0  0  0
   15.6980  -14.1178   17.9302 C   0  0  0  0  0  0  0  0  0  0  0  0
   16.5681  -14.9988   17.7375 O   0  0  0  0  0  0  0  0  0  0  0  0
   13.0220  -16.4946   18.6375 C   0  0  0  0  0  0  0  0  0  0  0  0
   11.8896  -16.7357   18.0973 O   0  0  0  0  0  0  0  0  0  0  0  0
   16.1284  -12.8102   18.0955 O   0  0  0  0  0  0  0  0  0  0  0  0
   13.2222  -16.8128   20.0089 N   0  0  0  0  0  0  0  0  0  0  0  0
   12.1028  -17.4322   20.7158 C   0  0  1  0  0  0  0  0  0  0  0  0
   12.7235  -18.5388   21.5332 C   0  0  0  0  0  0  0  0  0  0  0  0
   11.7603  -19.2779   22.3932 C   0  0  0  0  0  0  0  0  0  0  0  0
   12.5564  -20.3002   23.1785 C   0  0  0  0  0  0  0  0  0  0  0  0
   13.0839  -21.2765   22.5896 O   0  0  0  0  0  0  0  0  0  0  0  0
   11.4552  -16.4777   21.6256 C   0  0  0  0  0  0  0  0  0  0  0  0
   12.1710  -15.7845   22.3783 O   0  0  0  0  0  0  0  0  0  0  0  0
   12.6732  -20.1135   24.5420 O   0  0  0  0  0  0  0  0  0  0  0  0
   10.0540  -16.2873   21.7089 N   0  0  0  0  0  0  0  0  0  0  0  0
    9.4557  -15.4512   22.7341 C   0  0  1  0  0  0  0  0  0  0  0  0
    8.1814  -14.8048   22.2311 C   0  0  0  0  0  0  0  0  0  0  0  0
    8.4382  -13.8785   21.1085 C   0  0  0  0  0  0  0  0  0  0  0  0
    9.6642  -13.5578   20.5729 C   0  0  0  0  0  0  0  0  0  0  0  0
    9.4600  -12.6872   19.5884 N   0  0  0  0  0  0  0  0  0  0  0  0
    8.1267  -12.4543   19.4951 C   0  0  0  0  0  0  0  0  0  0  0  0
    7.4882  -13.1814   20.4251 N   0  0  0  0  0  0  0  0  0  0  0  0
    9.3039  -16.1655   24.0031 C   0  0  0  0  0  0  0  0  0  0  0  0
    8.8946  -15.6305   25.1995 O   0  0  0  0  0  0  0  0  0  0  0  0
    9.5747  -17.4066   24.0162 O   0  0  0  0  0  0  0  0  0  0  0  0
  2  6  1  0
  2  1  1  6
  3  2  1  0
  3  4  1  0
  4  5  2  0
  6  7  2  0
  8  4  1  0
  9 10  1  0
  9  6  1  0
 10 11  1  1
 11 12  1  0
 12 13  1  0
 13 14  2  0
 13 17  1  0
 15 10  1  0
 16 15  2  0
 18 15  1  0
 19 20  1  6
 19 18  1  0
 20 21  1  0
 21 25  1  0
 21 22  2  0
 22 23  1  0
 24 23  1  0
 25 24  2  0
 26 19  1  0
 27 26  1  0
 28 26  2  0
M  END
$$$$
