DEH.pdb
     RDKit          3D

 28 28  0  0  1  0  0  0  0  0999 V2000
   10.6204  -20.0835   18.7688 N   0  0  0  0  0  0  0  0  0  0  0  0
    9.7612  -18.9508   18.5136 C   0  0  1  0  0  0  0  0  0  0  0  0
    8.6714  -19.2974   17.5424 C   0  0  0  0  0  0  0  0  0  0  0  0
    9.2572  -19.5060   16.1949 C   0  0  0  0  0  0  0  0  0  0  0  0
   10.2921  -18.9133   15.8103 O   0  0  0  0  0  0  0  0  0  0  0  0
    9.2929  -18.3863   19.7755 C   0  0  0  0  0  0  0  0  0  0  0  0
    8.6104  -17.3088   19.7010 O   0  0  0  0  0  0  0  0  0  0  0  0
    8.6512  -20.3864   15.3116 O   0  0  0  0  0  0  0  0  0  0  0  0
    9.5515  -18.9610   21.0502 N   0  0  0  0  0  0  0  0  0  0  0  0
    9.0508  -18.2376   22.2173 C   0  0  1  0  0  0  0  0  0  0  0  0
    8.6491  -19.3121   23.1982 C   0  0  0  0  0  0  0  0  0  0  0  0
    7.7945  -18.8307   24.3168 C   0  0  0  0  0  0  0  0  0  0  0  0
    7.5726  -20.0059   25.2468 C   0  0  0  0  0  0  0  0  0  0  0  0
    8.1414  -21.1034   25.0231 O   0  0  0  0  0  0  0  0  0  0  0  0
   10.1045  -17.4129   22.8238 C   0  0  0  0  0  0  0  0  0  0  0  0
   11.0540  -17.9811   23.4026 O   0  0  0  0  0  0  0  0  0  0  0  0
    6.7345  -19.8194   26.3287 O   0  0  0  0  0  0  0  0  0  0  0  0
   10.1172  -15.9967   22.7970 N   0  0  0  0  0  0  0  0  0  0  0  0
    9.5480  -15.2065   23.8739 C   0  0  1  0  0  0  0  0  0  0  0  0
    8.0794  -14.9298   23.6257 C   0  0  0  0  0  0  0  0  0  0  0  0
    7.8582  -14.2347   22.3404 C   0  0  0  0  0  0  0  0  0  0  0  0
    8.8269  -13.7633   21.4847 C   0  0  0  0  0  0  0  0  0  0  0  0
    8.2118  -13.1976   20.4500 N   0  0  0  0  0  0  0  0  0  0  0  0
    6.8727  -13.3049   20.6396 C   0  0  0  0  0  0  0  0  0  0  0  0
    6.6433  -13.9409   21.7989 N   0  0  0  0  0  0  0  0  0  0  0  0
    9.8342  -15.7855   25.1878 C   0  0  0  0  0  0  0  0  0  0  0  0
   10.2665  -15.1109   26.3027 O   0  0  0  0  0  0  0  0  0  0  0  0
    9.6719  -17.0376   25.3275 O   0  0  0  0  0  0  0  0  0  0  0  0
  2  6  1  0
  2  1  1  1
  3  2  1  0
  3  4  1  0
  4  5  2  0
  6  7  2  0
  8  4  1  0
  9 10  1  0
  9  6  1  0
 10 11  1  1
 11 12  1  0
 12 13  1  0
 13 14  2  0
 13 17  1  0
 15 10  1  0
 16 15  2  0
 18 15  1  0
 19 20  1  6
 19 18  1  0
 20 21  1  0
 21 25  1  0
 21 22  2  0
 22 23  1  0
 24 23  1  0
 25 24  2  0
 26 19  1  0
 27 26  1  0
 28 26  2  0
M  END
$$$$
