DEH.pdb
     RDKit          3D

 28 28  0  0  1  0  0  0  0  0999 V2000
   14.8553  -18.4323   15.8474 N   0  0  0  0  0  0  0  0  0  0  0  0
   14.1148  -19.5509   16.3829 C   0  0  1  0  0  0  0  0  0  0  0  0
   15.0209  -20.6997   16.7148 C   0  0  0  0  0  0  0  0  0  0  0  0
   16.4174  -20.3482   16.3564 C   0  0  0  0  0  0  0  0  0  0  0  0
   16.7107  -19.3009   15.7341 O   0  0  0  0  0  0  0  0  0  0  0  0
   13.2691  -19.1063   17.4863 C   0  0  0  0  0  0  0  0  0  0  0  0
   13.2510  -17.8507   17.7222 O   0  0  0  0  0  0  0  0  0  0  0  0
   17.4528  -21.1981   16.7145 O   0  0  0  0  0  0  0  0  0  0  0  0
   12.4846  -19.9781   18.2904 N   0  0  0  0  0  0  0  0  0  0  0  0
   11.6086  -19.3566   19.2816 C   0  0  1  0  0  0  0  0  0  0  0  0
   10.4814  -20.3414   19.4764 C   0  0  0  0  0  0  0  0  0  0  0  0
    9.4441  -20.3024   18.4106 C   0  0  0  0  0  0  0  0  0  0  0  0
    8.3697  -21.2984   18.7967 C   0  0  0  0  0  0  0  0  0  0  0  0
    8.3597  -22.4455   18.2844 O   0  0  0  0  0  0  0  0  0  0  0  0
   12.3027  -19.1720   20.5631 C   0  0  0  0  0  0  0  0  0  0  0  0
   13.3538  -19.8120   20.7749 O   0  0  0  0  0  0  0  0  0  0  0  0
    7.4223  -20.8963   19.7178 O   0  0  0  0  0  0  0  0  0  0  0  0
   11.8545  -18.3053   21.5900 N   0  0  0  0  0  0  0  0  0  0  0  0
   12.6172  -18.1061   22.8093 C   0  0  1  0  0  0  0  0  0  0  0  0
   12.6059  -16.6491   23.2240 C   0  0  0  0  0  0  0  0  0  0  0  0
   11.2312  -16.1205   23.3457 C   0  0  0  0  0  0  0  0  0  0  0  0
   10.3773  -15.8085   22.3131 C   0  0  0  0  0  0  0  0  0  0  0  0
    9.2453  -15.3580   22.8467 N   0  0  0  0  0  0  0  0  0  0  0  0
    9.3720  -15.3809   24.1972 C   0  0  0  0  0  0  0  0  0  0  0  0
   10.5892  -15.8480   24.5157 N   0  0  0  0  0  0  0  0  0  0  0  0
   12.2098  -19.0326   23.8672 C   0  0  0  0  0  0  0  0  0  0  0  0
   11.1430  -19.8962   23.8325 O   0  0  0  0  0  0  0  0  0  0  0  0
   12.9023  -19.0518   24.9320 O   0  0  0  0  0  0  0  0  0  0  0  0
  2  6  1  0
  2  1  1  1
  3  2  1  0
  3  4  1  0
  4  5  2  0
  6  7  2  0
  8  4  1  0
  9 10  1  0
  9  6  1  0
 10 11  1  1
 11 12  1  0
 12 13  1  0
 13 14  2  0
 13 17  1  0
 15 10  1  0
 16 15  2  0
 18 15  1  0
 19 20  1  1
 19 18  1  0
 20 21  1  0
 21 25  1  0
 21 22  2  0
 22 23  1  0
 24 23  1  0
 25 24  2  0
 26 19  1  0
 27 26  1  0
 28 26  2  0
M  END
$$$$
