DEH.pdb
     RDKit          3D

 28 28  0  0  1  0  0  0  0  0999 V2000
    9.4768  -16.5662   15.1891 N   0  0  0  0  0  0  0  0  0  0  0  0
    9.1958  -17.8801   15.7193 C   0  0  1  0  0  0  0  0  0  0  0  0
   10.1126  -18.9143   15.1354 C   0  0  0  0  0  0  0  0  0  0  0  0
   11.1970  -18.2429   14.3767 C   0  0  0  0  0  0  0  0  0  0  0  0
   11.1511  -17.0299   14.0654 O   0  0  0  0  0  0  0  0  0  0  0  0
    9.1809  -17.8360   17.1781 C   0  0  0  0  0  0  0  0  0  0  0  0
    8.0980  -17.4372   17.7265 O   0  0  0  0  0  0  0  0  0  0  0  0
   12.3128  -18.9678   13.9871 O   0  0  0  0  0  0  0  0  0  0  0  0
   10.2826  -18.2054   17.9977 N   0  0  0  0  0  0  0  0  0  0  0  0
   10.0657  -18.1966   19.4431 C   0  0  1  0  0  0  0  0  0  0  0  0
   10.9867  -19.2646   19.9811 C   0  0  0  0  0  0  0  0  0  0  0  0
   10.4638  -20.6504   19.8410 C   0  0  0  0  0  0  0  0  0  0  0  0
   11.5356  -21.5866   20.3606 C   0  0  0  0  0  0  0  0  0  0  0  0
   12.7298  -21.2022   20.4289 O   0  0  0  0  0  0  0  0  0  0  0  0
   10.4456  -16.9045   20.0297 C   0  0  0  0  0  0  0  0  0  0  0  0
   10.5117  -15.9032   19.2864 O   0  0  0  0  0  0  0  0  0  0  0  0
   11.1483  -22.8547   20.7476 O   0  0  0  0  0  0  0  0  0  0  0  0
   10.7469  -16.7139   21.4006 N   0  0  0  0  0  0  0  0  0  0  0  0
   10.2488  -15.5684   22.1408 C   0  0  1  0  0  0  0  0  0  0  0  0
    8.7470  -15.4372   21.9909 C   0  0  0  0  0  0  0  0  0  0  0  0
    8.3796  -14.5640   20.8566 C   0  0  0  0  0  0  0  0  0  0  0  0
    9.2450  -13.9074   20.0124 C   0  0  0  0  0  0  0  0  0  0  0  0
    8.5142  -13.2245   19.1356 N   0  0  0  0  0  0  0  0  0  0  0  0
    7.2039  -13.4400   19.4135 C   0  0  0  0  0  0  0  0  0  0  0  0
    7.1089  -14.2622   20.4700 N   0  0  0  0  0  0  0  0  0  0  0  0
   10.7138  -15.5696   23.5290 C   0  0  0  0  0  0  0  0  0  0  0  0
   11.3776  -16.5870   24.1688 O   0  0  0  0  0  0  0  0  0  0  0  0
   10.4878  -14.5322   24.2266 O   0  0  0  0  0  0  0  0  0  0  0  0
  2  6  1  0
  2  1  1  6
  3  2  1  0
  3  4  1  0
  4  5  2  0
  6  7  2  0
  8  4  1  0
  9 10  1  0
  9  6  1  0
 10 11  1  1
 11 12  1  0
 12 13  1  0
 13 14  2  0
 13 17  1  0
 15 10  1  0
 16 15  2  0
 18 15  1  0
 19 20  1  1
 19 18  1  0
 20 21  1  0
 21 25  1  0
 21 22  2  0
 22 23  1  0
 24 23  1  0
 25 24  2  0
 26 19  1  0
 27 26  1  0
 28 26  2  0
M  END
$$$$
