HNH.pdb
     RDKit          3D

 29 30  0  0  1  0  0  0  0  0999 V2000
   28.5929  -36.0743   -7.6242 N   0  0  0  0  0  0  0  0  0  0  0  0
   28.9297  -35.1919   -6.5293 C   0  0  1  0  0  0  0  0  0  0  0  0
   27.7003  -34.6628   -5.8322 C   0  0  0  0  0  0  0  0  0  0  0  0
   26.9560  -33.7081   -6.6873 C   0  0  0  0  0  0  0  0  0  0  0  0
   27.3543  -33.3709   -7.9635 C   0  0  0  0  0  0  0  0  0  0  0  0
   26.4543  -32.4826   -8.4673 N   0  0  0  0  0  0  0  0  0  0  0  0
   25.5140  -32.2689   -7.5271 C   0  0  0  0  0  0  0  0  0  0  0  0
   25.8293  -33.0139   -6.4601 N   0  0  0  0  0  0  0  0  0  0  0  0
   29.7670  -35.8980   -5.5471 C   0  0  0  0  0  0  0  0  0  0  0  0
   29.7207  -37.1409   -5.4656 O   0  0  0  0  0  0  0  0  0  0  0  0
   34.0171  -35.3254   -6.2425 N   0  0  0  0  0  0  0  0  0  0  0  0
   33.4344  -36.1244   -5.2394 C   0  0  0  0  0  0  0  0  0  0  0  0
   33.3704  -37.3603   -5.3934 O   0  0  0  0  0  0  0  0  0  0  0  0
   32.9049  -35.5044   -4.0184 C   0  0  0  0  0  0  0  0  0  0  0  0
   31.4728  -35.8539   -3.7549 C   0  0  2  0  0  0  0  0  0  0  0  0
   30.6203  -35.1556   -4.7025 N   0  0  0  0  0  0  0  0  0  0  0  0
   31.1089  -35.4749   -2.3800 C   0  0  0  0  0  0  0  0  0  0  0  0
   30.8950  -34.2691   -2.1148 O   0  0  0  0  0  0  0  0  0  0  0  0
   31.0040  -36.4696   -1.3759 N   0  0  0  0  0  0  0  0  0  0  0  0
   30.5024  -36.1316   -0.0654 C   0  0  1  0  0  0  0  0  0  0  0  0
   29.3994  -37.0287    0.4055 C   0  0  0  0  0  0  0  0  0  0  0  0
   28.1077  -36.7452   -0.2926 C   0  0  0  0  0  0  0  0  0  0  0  0
   27.7969  -37.2109   -1.5520 C   0  0  0  0  0  0  0  0  0  0  0  0
   26.5713  -36.7791   -1.8808 N   0  0  0  0  0  0  0  0  0  0  0  0
   26.1299  -36.0626   -0.8522 C   0  0  0  0  0  0  0  0  0  0  0  0
   27.0540  -36.0346    0.1184 N   0  0  0  0  0  0  0  0  0  0  0  0
   31.5875  -36.0762    0.9325 C   0  0  0  0  0  0  0  0  0  0  0  0
   31.3649  -35.7961    2.1169 O   0  0  0  0  0  0  0  0  0  0  0  0
   32.8877  -36.3411    0.5493 O   0  0  0  0  0  0  0  0  0  0  0  0
  2  1  1  6
  3  2  1  0
  3  4  1  0
  4  8  1  0
  5  4  2  0
  5  6  1  0
  6  7  1  0
  8  7  2  0
  9  2  1  0
  9 10  2  0
 12 14  1  0
 12 11  1  0
 13 12  2  0
 15 14  1  6
 15 17  1  0
 15 16  1  0
 16  9  1  0
 17 19  1  0
 18 17  2  0
 19 20  1  0
 20 27  1  0
 20 21  1  1
 22 21  1  0
 23 22  2  0
 24 25  1  0
 24 23  1  0
 25 26  2  0
 26 22  1  0
 27 28  2  0
 27 29  1  0
M  END
$$$$
