HNH.pdb
     RDKit          3D

 29 30  0  0  1  0  0  0  0  0999 V2000
   32.5481  -34.5817   -6.6255 N   0  0  0  0  0  0  0  0  0  0  0  0
   32.3976  -35.5720   -5.5826 C   0  0  1  0  0  0  0  0  0  0  0  0
   33.7250  -35.9651   -4.9818 C   0  0  0  0  0  0  0  0  0  0  0  0
   34.5859  -36.6608   -5.9674 C   0  0  0  0  0  0  0  0  0  0  0  0
   35.6311  -36.0448   -6.6222 C   0  0  0  0  0  0  0  0  0  0  0  0
   36.2127  -36.9591   -7.4460 N   0  0  0  0  0  0  0  0  0  0  0  0
   35.5459  -38.1212   -7.3095 C   0  0  0  0  0  0  0  0  0  0  0  0
   34.5684  -37.9265   -6.4153 N   0  0  0  0  0  0  0  0  0  0  0  0
   31.5260  -35.0570   -4.5152 C   0  0  0  0  0  0  0  0  0  0  0  0
   31.6310  -33.8731   -4.1397 O   0  0  0  0  0  0  0  0  0  0  0  0
   27.7135  -33.5429   -2.3021 N   0  0  0  0  0  0  0  0  0  0  0  0
   27.2936  -34.7480   -2.8986 C   0  0  0  0  0  0  0  0  0  0  0  0
   26.0863  -34.9209   -3.1587 O   0  0  0  0  0  0  0  0  0  0  0  0
   28.2734  -35.7956   -3.2119 C   0  0  0  0  0  0  0  0  0  0  0  0
   29.6823  -35.3955   -2.8996 C   0  0  2  0  0  0  0  0  0  0  0  0
   30.5728  -35.9143   -3.9244 N   0  0  0  0  0  0  0  0  0  0  0  0
   30.0733  -35.9232   -1.5824 C   0  0  0  0  0  0  0  0  0  0  0  0
   31.2124  -36.4250   -1.4386 O   0  0  0  0  0  0  0  0  0  0  0  0
   29.1648  -35.8593   -0.4964 N   0  0  0  0  0  0  0  0  0  0  0  0
   29.6157  -36.1325    0.8472 C   0  0  1  0  0  0  0  0  0  0  0  0
   30.7460  -35.2560    1.2915 C   0  0  0  0  0  0  0  0  0  0  0  0
   31.1601  -35.5432    2.6993 C   0  0  0  0  0  0  0  0  0  0  0  0
   30.6191  -36.5506    3.4688 C   0  0  0  0  0  0  0  0  0  0  0  0
   31.2078  -36.5367    4.6729 N   0  0  0  0  0  0  0  0  0  0  0  0
   32.0931  -35.5457    4.6539 C   0  0  0  0  0  0  0  0  0  0  0  0
   32.0733  -34.9348    3.4609 N   0  0  0  0  0  0  0  0  0  0  0  0
   28.5033  -36.0743    1.8144 C   0  0  0  0  0  0  0  0  0  0  0  0
   28.6600  -36.3852    3.0017 O   0  0  0  0  0  0  0  0  0  0  0  0
   27.2516  -35.6646    1.3985 O   0  0  0  0  0  0  0  0  0  0  0  0
  2  1  1  6
  3  2  1  0
  3  4  1  0
  4  8  1  0
  5  4  2  0
  5  6  1  0
  6  7  1  0
  8  7  2  0
  9  2  1  0
  9 10  2  0
 12 14  1  0
 12 11  1  0
 13 12  2  0
 15 14  1  6
 15 17  1  0
 15 16  1  0
 16  9  1  0
 17 19  1  0
 18 17  2  0
 19 20  1  0
 20 27  1  0
 20 21  1  1
 22 21  1  0
 23 22  2  0
 24 25  1  0
 24 23  1  0
 25 26  2  0
 26 22  1  0
 27 28  2  0
 27 29  1  0
M  END
$$$$
