HNH.pdb
     RDKit          3D

 29 30  0  0  1  0  0  0  0  0999 V2000
   16.7140  -11.0001  -14.3762 N   0  0  0  0  0  0  0  0  0  0  0  0
   15.3376  -10.6586  -14.0933 C   0  0  1  0  0  0  0  0  0  0  0  0
   14.5565  -11.8431  -13.5793 C   0  0  0  0  0  0  0  0  0  0  0  0
   14.7063  -13.0220  -14.4649 C   0  0  0  0  0  0  0  0  0  0  0  0
   14.2468  -13.0514  -15.7644 C   0  0  0  0  0  0  0  0  0  0  0  0
   14.5476  -14.2693  -16.2927 N   0  0  0  0  0  0  0  0  0  0  0  0
   15.1812  -14.9858  -15.3445 C   0  0  0  0  0  0  0  0  0  0  0  0
   15.2697  -14.2215  -14.2486 N   0  0  0  0  0  0  0  0  0  0  0  0
   15.2769   -9.5792  -13.0956 C   0  0  0  0  0  0  0  0  0  0  0  0
   14.1763   -9.1004  -12.7596 O   0  0  0  0  0  0  0  0  0  0  0  0
   15.8563   -6.4830   -9.0476 N   0  0  0  0  0  0  0  0  0  0  0  0
   17.0587   -7.1230   -9.4070 C   0  0  0  0  0  0  0  0  0  0  0  0
   18.1392   -6.7190   -8.9333 O   0  0  0  0  0  0  0  0  0  0  0  0
   17.0391   -8.2601  -10.3356 C   0  0  0  0  0  0  0  0  0  0  0  0
   16.4325   -7.9251  -11.6631 C   0  0  2  0  0  0  0  0  0  0  0  0
   16.4736   -9.0948  -12.5247 N   0  0  0  0  0  0  0  0  0  0  0  0
   17.1731   -6.8168  -12.2874 C   0  0  0  0  0  0  0  0  0  0  0  0
   17.2295   -5.7117  -11.6997 O   0  0  0  0  0  0  0  0  0  0  0  0
   17.8113   -7.0081  -13.5384 N   0  0  0  0  0  0  0  0  0  0  0  0
   18.6244   -5.9609  -14.1088 C   0  0  1  0  0  0  0  0  0  0  0  0
   19.7763   -6.4691  -14.9200 C   0  0  0  0  0  0  0  0  0  0  0  0
   20.5673   -7.5042  -14.1859 C   0  0  0  0  0  0  0  0  0  0  0  0
   20.7442   -7.5093  -12.8190 C   0  0  0  0  0  0  0  0  0  0  0  0
   21.4985   -8.5660  -12.4861 N   0  0  0  0  0  0  0  0  0  0  0  0
   21.7841   -9.2031  -13.6169 C   0  0  0  0  0  0  0  0  0  0  0  0
   21.2243   -8.5679  -14.6560 N   0  0  0  0  0  0  0  0  0  0  0  0
   17.8133   -5.0134  -14.8967 C   0  0  0  0  0  0  0  0  0  0  0  0
   18.3168   -4.0167  -15.4296 O   0  0  0  0  0  0  0  0  0  0  0  0
   16.4583   -5.2318  -15.0513 O   0  0  0  0  0  0  0  0  0  0  0  0
  2  1  1  1
  3  2  1  0
  3  4  1  0
  4  8  1  0
  5  4  2  0
  5  6  1  0
  6  7  1  0
  8  7  2  0
  9  2  1  0
  9 10  2  0
 12 14  1  0
 12 11  1  0
 13 12  2  0
 15 14  1  1
 15 17  1  0
 15 16  1  0
 16  9  1  0
 17 19  1  0
 18 17  2  0
 19 20  1  0
 20 27  1  0
 20 21  1  6
 22 21  1  0
 23 22  2  0
 24 25  1  0
 24 23  1  0
 25 26  2  0
 26 22  1  0
 27 28  2  0
 27 29  1  0
M  END
$$$$
