HNH.pdb
     RDKit          3D

 29 30  0  0  1  0  0  0  0  0999 V2000
   27.8117  -11.7447  -18.7335 N   0  0  0  0  0  0  0  0  0  0  0  0
   26.9521  -11.2654  -17.6741 C   0  0  1  0  0  0  0  0  0  0  0  0
   27.6118  -10.1795  -16.8598 C   0  0  0  0  0  0  0  0  0  0  0  0
   28.7001   -9.5151  -17.6154 C   0  0  0  0  0  0  0  0  0  0  0  0
   29.0658   -9.8854  -18.8921 C   0  0  0  0  0  0  0  0  0  0  0  0
   30.0851   -9.0768  -19.2920 N   0  0  0  0  0  0  0  0  0  0  0  0
   30.3511   -8.2198  -18.2876 C   0  0  0  0  0  0  0  0  0  0  0  0
   29.5088   -8.4958  -17.2840 N   0  0  0  0  0  0  0  0  0  0  0  0
   25.6969  -10.7428  -18.2358 C   0  0  0  0  0  0  0  0  0  0  0  0
   25.6453  -10.3929  -19.4310 O   0  0  0  0  0  0  0  0  0  0  0  0
   20.9348   -9.7141  -19.3462 N   0  0  0  0  0  0  0  0  0  0  0  0
   21.2458  -11.0615  -19.0779 C   0  0  0  0  0  0  0  0  0  0  0  0
   20.4865  -11.9636  -19.4839 O   0  0  0  0  0  0  0  0  0  0  0  0
   22.4585  -11.4016  -18.3233 C   0  0  0  0  0  0  0  0  0  0  0  0
   23.2943  -10.2064  -17.9835 C   0  0  2  0  0  0  0  0  0  0  0  0
   24.5562  -10.6437  -17.4102 N   0  0  0  0  0  0  0  0  0  0  0  0
   22.5782   -9.3501  -17.0241 C   0  0  0  0  0  0  0  0  0  0  0  0
   21.9652   -9.8819  -16.0695 O   0  0  0  0  0  0  0  0  0  0  0  0
   22.5886   -7.9423  -17.1873 N   0  0  0  0  0  0  0  0  0  0  0  0
   21.8667   -7.0971  -16.2665 C   0  0  1  0  0  0  0  0  0  0  0  0
   22.2226   -7.3314  -14.8306 C   0  0  0  0  0  0  0  0  0  0  0  0
   21.1774   -8.1260  -14.1149 C   0  0  0  0  0  0  0  0  0  0  0  0
   20.0477   -8.6316  -14.7212 C   0  0  0  0  0  0  0  0  0  0  0  0
   19.3245   -9.2897  -13.8045 N   0  0  0  0  0  0  0  0  0  0  0  0
   19.9870   -9.1964  -12.6562 C   0  0  0  0  0  0  0  0  0  0  0  0
   21.1138   -8.4920  -12.8319 N   0  0  0  0  0  0  0  0  0  0  0  0
   22.0140   -5.6703  -16.6111 C   0  0  0  0  0  0  0  0  0  0  0  0
   21.4321   -4.7857  -15.9711 O   0  0  0  0  0  0  0  0  0  0  0  0
   22.8176   -5.2988  -17.6712 O   0  0  0  0  0  0  0  0  0  0  0  0
  2  1  1  6
  3  2  1  0
  3  4  1  0
  4  8  1  0
  5  4  2  0
  5  6  1  0
  6  7  1  0
  8  7  2  0
  9  2  1  0
  9 10  2  0
 12 14  1  0
 12 11  1  0
 13 12  2  0
 15 14  1  1
 15 17  1  0
 15 16  1  0
 16  9  1  0
 17 19  1  0
 18 17  2  0
 19 20  1  0
 20 27  1  0
 20 21  1  1
 22 21  1  0
 23 22  2  0
 24 25  1  0
 24 23  1  0
 25 26  2  0
 26 22  1  0
 27 28  2  0
 27 29  1  0
M  END
$$$$
