HNH.pdb
     RDKit          3D

 29 30  0  0  1  0  0  0  0  0999 V2000
   26.0660  -32.2427  -20.2656 N   0  0  0  0  0  0  0  0  0  0  0  0
   25.9037  -31.6461  -18.9585 C   0  0  1  0  0  0  0  0  0  0  0  0
   25.5428  -30.1834  -19.0465 C   0  0  0  0  0  0  0  0  0  0  0  0
   26.6484  -29.3818  -19.6226 C   0  0  0  0  0  0  0  0  0  0  0  0
   27.8597  -29.9259  -19.9933 C   0  0  0  0  0  0  0  0  0  0  0  0
   28.6407  -28.9254  -20.4852 N   0  0  0  0  0  0  0  0  0  0  0  0
   27.9335  -27.7810  -20.4234 C   0  0  0  0  0  0  0  0  0  0  0  0
   26.7350  -28.0713  -19.9015 N   0  0  0  0  0  0  0  0  0  0  0  0
   24.8546  -32.3506  -18.2054 C   0  0  0  0  0  0  0  0  0  0  0  0
   23.9994  -33.0271  -18.8094 O   0  0  0  0  0  0  0  0  0  0  0  0
   22.2580  -35.7167  -15.5433 N   0  0  0  0  0  0  0  0  0  0  0  0
   23.2361  -34.9984  -14.8278 C   0  0  0  0  0  0  0  0  0  0  0  0
   23.2249  -35.0134  -13.5809 O   0  0  0  0  0  0  0  0  0  0  0  0
   24.2634  -34.2355  -15.5476 C   0  0  0  0  0  0  0  0  0  0  0  0
   23.7688  -32.9161  -16.0548 C   0  0  2  0  0  0  0  0  0  0  0  0
   24.8280  -32.2535  -16.7974 N   0  0  0  0  0  0  0  0  0  0  0  0
   23.3447  -32.0720  -14.9261 C   0  0  0  0  0  0  0  0  0  0  0  0
   24.1402  -31.2193  -14.4679 O   0  0  0  0  0  0  0  0  0  0  0  0
   22.0498  -32.2296  -14.3720 N   0  0  0  0  0  0  0  0  0  0  0  0
   21.6119  -31.3796  -13.2908 C   0  0  1  0  0  0  0  0  0  0  0  0
   21.7733  -29.9175  -13.5729 C   0  0  0  0  0  0  0  0  0  0  0  0
   21.2588  -29.0692  -12.4541 C   0  0  0  0  0  0  0  0  0  0  0  0
   20.7033  -29.5755  -11.2989 C   0  0  0  0  0  0  0  0  0  0  0  0
   20.3474  -28.5536  -10.5080 N   0  0  0  0  0  0  0  0  0  0  0  0
   20.6730  -27.4389  -11.1542 C   0  0  0  0  0  0  0  0  0  0  0  0
   21.2272  -27.7389  -12.3372 N   0  0  0  0  0  0  0  0  0  0  0  0
   20.2237  -31.6808  -12.8927 C   0  0  0  0  0  0  0  0  0  0  0  0
   19.4939  -32.4032  -13.5830 O   0  0  0  0  0  0  0  0  0  0  0  0
   19.7133  -31.1503  -11.7240 O   0  0  0  0  0  0  0  0  0  0  0  0
  2  1  1  6
  3  2  1  0
  3  4  1  0
  4  8  1  0
  5  4  2  0
  5  6  1  0
  6  7  1  0
  8  7  2  0
  9  2  1  0
  9 10  2  0
 12 14  1  0
 12 11  1  0
 13 12  2  0
 15 14  1  1
 15 17  1  0
 15 16  1  0
 16  9  1  0
 17 19  1  0
 18 17  2  0
 19 20  1  0
 20 27  1  0
 20 21  1  6
 22 21  1  0
 23 22  2  0
 24 25  1  0
 24 23  1  0
 25 26  2  0
 26 22  1  0
 27 28  2  0
 27 29  1  0
M  END
$$$$
