HNH.pdb
     RDKit          3D

 29 30  0  0  1  0  0  0  0  0999 V2000
   24.0523  -11.1160  -17.1692 N   0  0  0  0  0  0  0  0  0  0  0  0
   24.0479   -9.9022  -16.3834 C   0  0  1  0  0  0  0  0  0  0  0  0
   25.2333   -9.0225  -16.6970 C   0  0  0  0  0  0  0  0  0  0  0  0
   26.5150   -9.7214  -16.4408 C   0  0  0  0  0  0  0  0  0  0  0  0
   27.3739  -10.1125  -17.4458 C   0  0  0  0  0  0  0  0  0  0  0  0
   28.4499  -10.7172  -16.8719 N   0  0  0  0  0  0  0  0  0  0  0  0
   28.2680  -10.7046  -15.5375 C   0  0  0  0  0  0  0  0  0  0  0  0
   27.0978  -10.1015  -15.2925 N   0  0  0  0  0  0  0  0  0  0  0  0
   22.8128   -9.1420  -16.6300 C   0  0  0  0  0  0  0  0  0  0  0  0
   22.3702   -9.0285  -17.7897 O   0  0  0  0  0  0  0  0  0  0  0  0
   19.4395  -10.2994  -15.6494 N   0  0  0  0  0  0  0  0  0  0  0  0
   19.2413   -9.3923  -14.5900 C   0  0  0  0  0  0  0  0  0  0  0  0
   18.4378   -9.6728  -13.6786 O   0  0  0  0  0  0  0  0  0  0  0  0
   19.9776   -8.1224  -14.5599 C   0  0  0  0  0  0  0  0  0  0  0  0
   20.8452   -7.9170  -15.7631 C   0  0  2  0  0  0  0  0  0  0  0  0
   22.1367   -8.5463  -15.5434 N   0  0  0  0  0  0  0  0  0  0  0  0
   21.0252   -6.4774  -16.0116 C   0  0  0  0  0  0  0  0  0  0  0  0
   21.8538   -5.8373  -15.3233 O   0  0  0  0  0  0  0  0  0  0  0  0
   20.2658   -5.8329  -17.0198 N   0  0  0  0  0  0  0  0  0  0  0  0
   20.5139   -4.4489  -17.3458 C   0  0  1  0  0  0  0  0  0  0  0  0
   20.7123   -4.2027  -18.8097 C   0  0  0  0  0  0  0  0  0  0  0  0
   21.0406   -2.7730  -19.0998 C   0  0  0  0  0  0  0  0  0  0  0  0
   20.2527   -1.7103  -18.7133 C   0  0  0  0  0  0  0  0  0  0  0  0
   20.8292   -0.5733  -19.1276 N   0  0  0  0  0  0  0  0  0  0  0  0
   21.9479   -0.9191  -19.7562 C   0  0  0  0  0  0  0  0  0  0  0  0
   22.0873   -2.2523  -19.7460 N   0  0  0  0  0  0  0  0  0  0  0  0
   19.4584   -3.5684  -16.8102 C   0  0  0  0  0  0  0  0  0  0  0  0
   18.2615   -3.8733  -16.8830 O   0  0  0  0  0  0  0  0  0  0  0  0
   19.8001   -2.3720  -16.2106 O   0  0  0  0  0  0  0  0  0  0  0  0
  2  1  1  6
  3  2  1  0
  3  4  1  0
  4  8  1  0
  5  4  2  0
  5  6  1  0
  6  7  1  0
  8  7  2  0
  9  2  1  0
  9 10  2  0
 12 14  1  0
 12 11  1  0
 13 12  2  0
 15 14  1  1
 15 17  1  0
 15 16  1  0
 16  9  1  0
 17 19  1  0
 18 17  2  0
 19 20  1  0
 20 27  1  0
 20 21  1  6
 22 21  1  0
 23 22  2  0
 24 25  1  0
 24 23  1  0
 25 26  2  0
 26 22  1  0
 27 28  2  0
 27 29  1  0
M  END
$$$$
