LRA.pdb
     RDKit          3D

 25 24  0  0  1  0  0  0  0  0999 V2000
   28.5068  -18.6761  -13.9737 C   0  0  0  0  0  0  0  0  0  0  0  0
   27.8185  -19.2192  -15.1897 C   0  0  2  0  0  0  0  0  0  0  0  0
   27.7268  -18.0972  -16.2539 C   0  0  0  0  0  0  0  0  0  0  0  0
   26.4338  -19.6650  -14.9072 C   0  0  0  0  0  0  0  0  0  0  0  0
   26.1682  -20.6784  -13.8536 C   0  0  2  0  0  0  0  0  0  0  0  0
   26.7378  -21.9414  -14.4580 N   0  0  0  0  0  0  0  0  0  0  0  0
   24.7207  -21.0150  -13.6301 C   0  0  0  0  0  0  0  0  0  0  0  0
   24.1655  -21.7697  -14.4398 O   0  0  0  0  0  0  0  0  0  0  0  0
   19.0672  -22.4101   -8.7181 N   0  0  0  0  0  0  0  0  0  0  0  0
   19.9667  -22.8182   -7.6486 C   0  0  0  0  0  0  0  0  0  0  0  0
   19.5659  -23.6434   -6.8069 N   0  0  0  0  0  0  0  0  0  0  0  0
   21.2689  -22.2735   -7.5544 N   0  0  0  0  0  0  0  0  0  0  0  0
   21.8368  -21.3366   -8.4499 C   0  0  0  0  0  0  0  0  0  0  0  0
   21.9003  -21.6614   -9.8949 C   0  0  0  0  0  0  0  0  0  0  0  0
   22.4969  -20.4863  -10.6655 C   0  0  0  0  0  0  0  0  0  0  0  0
   22.6327  -20.7304  -12.1474 C   0  0  2  0  0  0  0  0  0  0  0  0
   24.0598  -20.4756  -12.5200 N   0  0  0  0  0  0  0  0  0  0  0  0
   21.8249  -19.9280  -13.0306 C   0  0  0  0  0  0  0  0  0  0  0  0
   22.3496  -18.8144  -13.4674 O   0  0  0  0  0  0  0  0  0  0  0  0
   19.7797  -24.1250   -5.9828 C   0  0  0  0  0  0  0  0  0  0  0  0
   20.5751  -19.8381  -15.8774 C   0  0  1  0  0  0  0  0  0  0  0  0
   19.9726  -19.3979  -14.5722 N   0  0  0  0  0  0  0  0  0  0  0  0
   20.5094  -20.1939  -13.4913 C   0  0  0  0  0  0  0  0  0  0  0  0
   18.4711  -19.4984  -14.5809 O   0  0  0  0  0  0  0  0  0  0  0  0
   17.7806  -18.7327  -15.4999 O   0  0  0  0  0  0  0  0  0  0  0  0
  2  1  1  1
  3  2  1  0
  4  2  1  0
  4  5  1  0
  5  7  1  0
  5  6  1  6
  7  8  2  0
 10 12  1  0
 10  9  1  0
 11 10  2  0
 13 14  1  0
 13 12  1  0
 14 15  1  0
 16 15  1  1
 17 16  1  0
 17  7  1  0
 18 16  1  0
 19 18  2  0
 21 20  1  1
 21 23  1  0
 21 22  1  0
 22 18  1  0
 23 24  1  0
 25 23  2  0
M  END
$$$$
