LRA.pdb
     RDKit          3D

 25 24  0  0  1  0  0  0  0  0999 V2000
   15.6459   -9.3536  -17.6873 C   0  0  0  0  0  0  0  0  0  0  0  0
   15.8939   -8.1462  -16.8341 C   0  0  2  0  0  0  0  0  0  0  0  0
   16.3292   -6.9718  -17.7458 C   0  0  0  0  0  0  0  0  0  0  0  0
   16.9814   -8.3594  -15.8503 C   0  0  0  0  0  0  0  0  0  0  0  0
   17.8256   -9.5805  -15.9126 C   0  0  2  0  0  0  0  0  0  0  0  0
   17.1192  -10.5200  -14.9623 N   0  0  0  0  0  0  0  0  0  0  0  0
   19.2007   -9.4470  -15.3209 C   0  0  0  0  0  0  0  0  0  0  0  0
   19.3021   -9.3898  -14.0880 O   0  0  0  0  0  0  0  0  0  0  0  0
   26.9423  -12.7342  -16.5193 N   0  0  0  0  0  0  0  0  0  0  0  0
   27.0085  -11.3700  -16.0153 C   0  0  0  0  0  0  0  0  0  0  0  0
   27.9964  -10.6691  -16.3034 N   0  0  0  0  0  0  0  0  0  0  0  0
   25.9775  -10.8530  -15.1962 N   0  0  0  0  0  0  0  0  0  0  0  0
   24.6015  -10.8223  -15.5249 C   0  0  0  0  0  0  0  0  0  0  0  0
   24.1018   -9.7835  -16.4569 C   0  0  0  0  0  0  0  0  0  0  0  0
   22.6064   -9.9763  -16.6960 C   0  0  0  0  0  0  0  0  0  0  0  0
   21.7286   -9.1949  -15.7510 C   0  0  2  0  0  0  0  0  0  0  0  0
   20.3083   -9.4016  -16.1758 N   0  0  0  0  0  0  0  0  0  0  0  0
   21.9348   -7.7708  -15.6753 C   0  0  0  0  0  0  0  0  0  0  0  0
   21.4829   -7.0520  -16.6679 O   0  0  0  0  0  0  0  0  0  0  0  0
   28.3875   -9.7732  -16.2721 C   0  0  0  0  0  0  0  0  0  0  0  0
   23.3491   -5.3083  -16.1450 C   0  0  2  0  0  0  0  0  0  0  0  0
   22.7424   -5.6086  -14.8026 N   0  0  0  0  0  0  0  0  0  0  0  0
   22.5800   -7.0368  -14.6466 C   0  0  0  0  0  0  0  0  0  0  0  0
   21.4162   -4.9224  -14.6159 O   0  0  0  0  0  0  0  0  0  0  0  0
   21.4123   -3.5442  -14.5261 O   0  0  0  0  0  0  0  0  0  0  0  0
  2  1  1  6
  3  2  1  0
  4  2  1  0
  4  5  1  0
  5  7  1  0
  5  6  1  1
  7  8  2  0
 10 12  1  0
 10  9  1  0
 11 10  2  0
 13 14  1  0
 13 12  1  0
 14 15  1  0
 16 15  1  6
 17 16  1  0
 17  7  1  0
 18 16  1  0
 19 18  2  0
 21 20  1  1
 21 23  1  0
 21 22  1  0
 22 18  1  0
 23 24  1  0
 25 23  2  0
M  END
$$$$
