LRA.pdb
     RDKit          3D

 25 24  0  0  1  0  0  0  0  0999 V2000
   27.9081  -18.2487   -6.3882 C   0  0  0  0  0  0  0  0  0  0  0  0
   27.8642  -19.7338   -6.1891 C   0  0  2  0  0  0  0  0  0  0  0  0
   29.2926  -20.2355   -5.8603 C   0  0  0  0  0  0  0  0  0  0  0  0
   27.4179  -20.4569   -7.4032 C   0  0  0  0  0  0  0  0  0  0  0  0
   26.0525  -20.2433   -7.9487 C   0  0  2  0  0  0  0  0  0  0  0  0
   25.1851  -21.0160   -6.9814 N   0  0  0  0  0  0  0  0  0  0  0  0
   25.7753  -20.8978   -9.2728 C   0  0  0  0  0  0  0  0  0  0  0  0
   26.0694  -22.0934   -9.4054 O   0  0  0  0  0  0  0  0  0  0  0  0
   21.4615  -22.2033  -15.2800 N   0  0  0  0  0  0  0  0  0  0  0  0
   20.5203  -21.6343  -14.3261 C   0  0  0  0  0  0  0  0  0  0  0  0
   19.4832  -22.2670  -14.0532 N   0  0  0  0  0  0  0  0  0  0  0  0
   20.7687  -20.3749  -13.7316 N   0  0  0  0  0  0  0  0  0  0  0  0
   21.9415  -19.6013  -13.9003 C   0  0  0  0  0  0  0  0  0  0  0  0
   23.2591  -20.2045  -13.5878 C   0  0  0  0  0  0  0  0  0  0  0  0
   23.5932  -19.9872  -12.1141 C   0  0  0  0  0  0  0  0  0  0  0  0
   24.8817  -20.6363  -11.6753 C   0  0  2  0  0  0  0  0  0  0  0  0
   25.1917  -20.1423  -10.2968 N   0  0  0  0  0  0  0  0  0  0  0  0
   26.0552  -20.3935  -12.4755 C   0  0  0  0  0  0  0  0  0  0  0  0
   26.6398  -19.2340  -12.3353 O   0  0  0  0  0  0  0  0  0  0  0  0
   18.6609  -22.2797  -13.5238 C   0  0  0  0  0  0  0  0  0  0  0  0
   28.7434  -21.9296  -14.4460 C   0  0  1  0  0  0  0  0  0  0  0  0
   27.8009  -20.7904  -14.1736 N   0  0  0  0  0  0  0  0  0  0  0  0
   26.6651  -21.2645  -13.4150 C   0  0  0  0  0  0  0  0  0  0  0  0
   27.3271  -20.1338  -15.4421 O   0  0  0  0  0  0  0  0  0  0  0  0
   28.2563  -19.4414  -16.1937 O   0  0  0  0  0  0  0  0  0  0  0  0
  2  1  1  6
  3  2  1  0
  4  2  1  0
  4  5  1  0
  5  7  1  0
  5  6  1  1
  7  8  2  0
 10 12  1  0
 10  9  1  0
 11 10  2  0
 13 14  1  0
 13 12  1  0
 14 15  1  0
 16 15  1  6
 17 16  1  0
 17  7  1  0
 18 16  1  0
 19 18  2  0
 21 20  1  1
 21 23  1  0
 21 22  1  0
 22 18  1  0
 23 24  1  0
 25 23  2  0
M  END
$$$$
