EKT.pdb
     RDKit          3D

 26 25  0  0  1  0  0  0  0  0999 V2000
    9.3858  -16.8706   19.3864 N   0  0  0  0  0  0  0  0  0  0  0  0
    9.9150  -17.3417   20.6492 C   0  0  1  0  0  0  0  0  0  0  0  0
   11.3178  -16.8165   20.7627 C   0  0  0  0  0  0  0  0  0  0  0  0
   11.8990  -16.3587   19.4776 C   0  0  0  0  0  0  0  0  0  0  0  0
   13.2636  -15.8322   19.5408 C   0  0  0  0  0  0  0  0  0  0  0  0
   13.5181  -14.6578   19.9022 O   0  0  0  0  0  0  0  0  0  0  0  0
    9.0713  -16.8649   21.7647 C   0  0  0  0  0  0  0  0  0  0  0  0
    8.3697  -15.8366   21.5894 O   0  0  0  0  0  0  0  0  0  0  0  0
   14.3453  -16.6288   19.1967 O   0  0  0  0  0  0  0  0  0  0  0  0
    8.9949  -17.4862   23.0260 N   0  0  0  0  0  0  0  0  0  0  0  0
    7.9791  -17.1554   24.0320 C   0  0  1  0  0  0  0  0  0  0  0  0
    7.7787  -18.3971   24.8504 C   0  0  0  0  0  0  0  0  0  0  0  0
    6.7764  -19.3509   24.2911 C   0  0  0  0  0  0  0  0  0  0  0  0
    6.5369  -20.5569   25.1753 C   0  0  0  0  0  0  0  0  0  0  0  0
    5.5935  -21.5236   24.5003 C   0  0  0  0  0  0  0  0  0  0  0  0
    5.3484  -22.6372   25.4152 N   0  0  0  0  0  0  0  0  0  0  0  0
    8.4091  -15.9870   24.8440 C   0  0  0  0  0  0  0  0  0  0  0  0
    9.6340  -15.8870   25.1025 O   0  0  0  0  0  0  0  0  0  0  0  0
    6.8891  -12.2121   24.7033 C   0  0  0  0  0  0  0  0  0  0  0  0
    7.0025  -12.7609   26.1098 C   0  0  1  0  0  0  0  0  0  0  0  0
    5.7432  -13.2130   26.4891 O   0  0  0  0  0  0  0  0  0  0  0  0
    8.0112  -13.8886   26.1187 C   0  0  2  0  0  0  0  0  0  0  0  0
    7.5196  -14.9991   25.3311 N   0  0  0  0  0  0  0  0  0  0  0  0
    8.2553  -14.2913   27.5272 C   0  0  0  0  0  0  0  0  0  0  0  0
    8.7557  -13.3916   28.4525 O   0  0  0  0  0  0  0  0  0  0  0  0
    7.9947  -15.4725   27.8554 O   0  0  0  0  0  0  0  0  0  0  0  0
  2  7  1  0
  2  1  1  6
  3  2  1  0
  4  3  1  0
  5  4  1  0
  5  6  2  0
  7 10  1  0
  8  7  2  0
  9  5  1  0
 10 11  1  0
 11 12  1  1
 13 12  1  0
 13 14  1  0
 14 15  1  0
 15 16  1  0
 17 18  2  0
 17 11  1  0
 20 19  1  6
 20 22  1  0
 21 20  1  0
 22 23  1  6
 23 17  1  0
 24 22  1  0
 24 25  1  0
 26 24  2  0
M  END
$$$$
