EKT.pdb
     RDKit          3D

 26 25  0  0  1  0  0  0  0  0999 V2000
    9.1699  -16.8831   19.0457 N   0  0  0  0  0  0  0  0  0  0  0  0
    9.7764  -17.2229   20.3160 C   0  0  1  0  0  0  0  0  0  0  0  0
   11.1198  -16.5521   20.3565 C   0  0  0  0  0  0  0  0  0  0  0  0
   12.2670  -17.4912   20.3252 C   0  0  0  0  0  0  0  0  0  0  0  0
   13.4794  -17.0479   21.0158 C   0  0  0  0  0  0  0  0  0  0  0  0
   14.5119  -17.7572   21.0897 O   0  0  0  0  0  0  0  0  0  0  0  0
    8.9161  -16.7697   21.4286 C   0  0  0  0  0  0  0  0  0  0  0  0
    8.3344  -15.6601   21.3238 O   0  0  0  0  0  0  0  0  0  0  0  0
   13.5309  -15.8032   21.6251 O   0  0  0  0  0  0  0  0  0  0  0  0
    8.6975  -17.4992   22.6129 N   0  0  0  0  0  0  0  0  0  0  0  0
    7.7593  -17.0808   23.6609 C   0  0  1  0  0  0  0  0  0  0  0  0
    7.2372  -18.3417   24.2848 C   0  0  0  0  0  0  0  0  0  0  0  0
    6.1500  -19.0100   23.5111 C   0  0  0  0  0  0  0  0  0  0  0  0
    5.6062  -20.2503   24.1890 C   0  0  0  0  0  0  0  0  0  0  0  0
    4.4691  -20.8326   23.3838 C   0  0  0  0  0  0  0  0  0  0  0  0
    4.0016  -22.0411   24.0608 N   0  0  0  0  0  0  0  0  0  0  0  0
    8.4323  -16.1844   24.6370 C   0  0  0  0  0  0  0  0  0  0  0  0
    9.6511  -16.3899   24.8598 O   0  0  0  0  0  0  0  0  0  0  0  0
    7.9928  -12.1916   25.2151 C   0  0  0  0  0  0  0  0  0  0  0  0
    7.8026  -13.0014   26.4802 C   0  0  1  0  0  0  0  0  0  0  0  0
    6.4349  -13.1500   26.6843 O   0  0  0  0  0  0  0  0  0  0  0  0
    8.4768  -14.3452   26.3109 C   0  0  2  0  0  0  0  0  0  0  0  0
    7.7766  -15.1289   25.3156 N   0  0  0  0  0  0  0  0  0  0  0  0
    8.4933  -15.0332   27.6269 C   0  0  0  0  0  0  0  0  0  0  0  0
    9.1103  -14.4613   28.7261 O   0  0  0  0  0  0  0  0  0  0  0  0
    7.9309  -16.1499   27.7144 O   0  0  0  0  0  0  0  0  0  0  0  0
  2  7  1  0
  2  1  1  6
  3  2  1  0
  4  3  1  0
  5  4  1  0
  5  6  2  0
  7 10  1  0
  8  7  2  0
  9  5  1  0
 10 11  1  0
 11 12  1  1
 13 12  1  0
 13 14  1  0
 14 15  1  0
 15 16  1  0
 17 18  2  0
 17 11  1  0
 20 19  1  6
 20 22  1  0
 21 20  1  0
 22 23  1  6
 23 17  1  0
 24 22  1  0
 24 25  1  0
 26 24  2  0
M  END
$$$$
