EKT.pdb
     RDKit          3D

 26 25  0  0  1  0  0  0  0  0999 V2000
    9.2451  -15.5389   19.9117 N   0  0  0  0  0  0  0  0  0  0  0  0
    8.4040  -16.2402   20.8590 C   0  0  1  0  0  0  0  0  0  0  0  0
    8.5266  -17.7064   20.5562 C   0  0  0  0  0  0  0  0  0  0  0  0
    9.8984  -18.2458   20.7183 C   0  0  0  0  0  0  0  0  0  0  0  0
   10.0677  -19.6699   20.4245 C   0  0  0  0  0  0  0  0  0  0  0  0
   10.6864  -20.0818   19.4134 O   0  0  0  0  0  0  0  0  0  0  0  0
    8.8328  -15.9397   22.2409 C   0  0  0  0  0  0  0  0  0  0  0  0
   10.0631  -15.9320   22.4990 O   0  0  0  0  0  0  0  0  0  0  0  0
    9.5399  -20.6339   21.2702 O   0  0  0  0  0  0  0  0  0  0  0  0
    7.9526  -15.6577   23.3031 N   0  0  0  0  0  0  0  0  0  0  0  0
    8.3994  -15.3676   24.6704 C   0  0  1  0  0  0  0  0  0  0  0  0
    7.2631  -14.6526   25.3407 C   0  0  0  0  0  0  0  0  0  0  0  0
    7.5613  -13.2419   25.7255 C   0  0  0  0  0  0  0  0  0  0  0  0
    6.3878  -12.5349   26.3710 C   0  0  0  0  0  0  0  0  0  0  0  0
    6.7619  -11.1163   26.7285 C   0  0  0  0  0  0  0  0  0  0  0  0
    5.5900  -10.4688   27.3158 N   0  0  0  0  0  0  0  0  0  0  0  0
    8.7913  -16.6198   25.3687 C   0  0  0  0  0  0  0  0  0  0  0  0
    7.8995  -17.4885   25.5337 O   0  0  0  0  0  0  0  0  0  0  0  0
   11.0974  -19.2545   24.5393 C   0  0  0  0  0  0  0  0  0  0  0  0
   11.5247  -18.8358   25.9301 C   0  0  1  0  0  0  0  0  0  0  0  0
   12.6498  -18.0286   25.8007 O   0  0  0  0  0  0  0  0  0  0  0  0
   10.3887  -18.0845   26.5892 C   0  0  2  0  0  0  0  0  0  0  0  0
   10.0987  -16.8754   25.8483 N   0  0  0  0  0  0  0  0  0  0  0  0
   10.7754  -17.7802   27.9904 C   0  0  0  0  0  0  0  0  0  0  0  0
   11.0016  -18.7926   28.9067 O   0  0  0  0  0  0  0  0  0  0  0  0
   10.8915  -16.5767   28.3208 O   0  0  0  0  0  0  0  0  0  0  0  0
  2  7  1  0
  2  1  1  6
  3  2  1  0
  4  3  1  0
  5  4  1  0
  5  6  2  0
  7 10  1  0
  8  7  2  0
  9  5  1  0
 10 11  1  0
 11 12  1  1
 13 12  1  0
 13 14  1  0
 14 15  1  0
 15 16  1  0
 17 18  2  0
 17 11  1  0
 20 19  1  6
 20 22  1  0
 21 20  1  0
 22 23  1  6
 23 17  1  0
 24 22  1  0
 24 25  1  0
 26 24  2  0
M  END
$$$$
