EKT.pdb
     RDKit          3D

 26 25  0  0  1  0  0  0  0  0999 V2000
   11.1168  -18.5087   18.4912 N   0  0  0  0  0  0  0  0  0  0  0  0
   11.5054  -18.8938   19.8318 C   0  0  1  0  0  0  0  0  0  0  0  0
   12.7653  -18.1435   20.1582 C   0  0  0  0  0  0  0  0  0  0  0  0
   13.9527  -18.5908   19.3909 C   0  0  0  0  0  0  0  0  0  0  0  0
   15.2010  -17.8766   19.6645 C   0  0  0  0  0  0  0  0  0  0  0  0
   15.5370  -16.8409   19.0407 O   0  0  0  0  0  0  0  0  0  0  0  0
   10.4256  -18.5714   20.7876 C   0  0  0  0  0  0  0  0  0  0  0  0
    9.6918  -17.5784   20.5513 O   0  0  0  0  0  0  0  0  0  0  0  0
   16.0742  -18.3284   20.6426 O   0  0  0  0  0  0  0  0  0  0  0  0
   10.1551  -19.3047   21.9588 N   0  0  0  0  0  0  0  0  0  0  0  0
    9.0331  -19.0110   22.8578 C   0  0  1  0  0  0  0  0  0  0  0  0
    8.7269  -20.2907   23.5791 C   0  0  0  0  0  0  0  0  0  0  0  0
    7.5790  -20.2055   24.5290 C   0  0  0  0  0  0  0  0  0  0  0  0
    7.2569  -21.5239   25.2010 C   0  0  0  0  0  0  0  0  0  0  0  0
    6.0074  -21.3943   26.0391 C   0  0  0  0  0  0  0  0  0  0  0  0
    5.6783  -22.7136   26.5760 N   0  0  0  0  0  0  0  0  0  0  0  0
    9.3778  -17.8941   23.7759 C   0  0  0  0  0  0  0  0  0  0  0  0
   10.5086  -17.9274   24.3214 O   0  0  0  0  0  0  0  0  0  0  0  0
    8.3395  -13.9200   23.4983 C   0  0  0  0  0  0  0  0  0  0  0  0
    8.0169  -14.5665   24.8289 C   0  0  1  0  0  0  0  0  0  0  0  0
    6.6698  -14.9120   24.8144 O   0  0  0  0  0  0  0  0  0  0  0  0
    8.8905  -15.7888   25.0074 C   0  0  2  0  0  0  0  0  0  0  0  0
    8.5078  -16.8138   24.0598 N   0  0  0  0  0  0  0  0  0  0  0  0
    8.7513  -16.2671   26.4065 C   0  0  0  0  0  0  0  0  0  0  0  0
    9.0889  -15.4571   27.4769 O   0  0  0  0  0  0  0  0  0  0  0  0
    8.3181  -17.4287   26.5911 O   0  0  0  0  0  0  0  0  0  0  0  0
  2  7  1  0
  2  1  1  6
  3  2  1  0
  4  3  1  0
  5  4  1  0
  5  6  2  0
  7 10  1  0
  8  7  2  0
  9  5  1  0
 10 11  1  0
 11 12  1  1
 13 12  1  0
 13 14  1  0
 14 15  1  0
 15 16  1  0
 17 18  2  0
 17 11  1  0
 20 19  1  6
 20 22  1  0
 21 20  1  0
 22 23  1  6
 23 17  1  0
 24 22  1  0
 24 25  1  0
 26 24  2  0
M  END
$$$$
