EKT.pdb
     RDKit          3D

 26 25  0  0  1  0  0  0  0  0999 V2000
    8.2917  -15.6663   17.6812 N   0  0  0  0  0  0  0  0  0  0  0  0
    7.6318  -16.2419   18.8345 C   0  0  1  0  0  0  0  0  0  0  0  0
    7.7270  -17.7348   18.6973 C   0  0  0  0  0  0  0  0  0  0  0  0
    9.0900  -18.2287   18.3857 C   0  0  0  0  0  0  0  0  0  0  0  0
    9.2212  -19.6739   18.1926 C   0  0  0  0  0  0  0  0  0  0  0  0
   10.2592  -20.3056   18.5064 O   0  0  0  0  0  0  0  0  0  0  0  0
    8.2793  -15.7745   20.0778 C   0  0  0  0  0  0  0  0  0  0  0  0
    9.5210  -15.5783   20.0705 O   0  0  0  0  0  0  0  0  0  0  0  0
    8.1822  -20.4113   17.6451 O   0  0  0  0  0  0  0  0  0  0  0  0
    7.5982  -15.5298   21.2856 N   0  0  0  0  0  0  0  0  0  0  0  0
    8.2336  -14.9379   22.4686 C   0  0  1  0  0  0  0  0  0  0  0  0
    7.1376  -14.2644   23.2411 C   0  0  0  0  0  0  0  0  0  0  0  0
    7.5819  -13.6235   24.5136 C   0  0  0  0  0  0  0  0  0  0  0  0
    6.4481  -12.9965   25.2977 C   0  0  0  0  0  0  0  0  0  0  0  0
    6.9809  -12.3093   26.5322 C   0  0  0  0  0  0  0  0  0  0  0  0
    5.8431  -11.8383   27.3202 N   0  0  0  0  0  0  0  0  0  0  0  0
    8.9447  -15.9790   23.2557 C   0  0  0  0  0  0  0  0  0  0  0  0
    8.2905  -17.0013   23.5789 O   0  0  0  0  0  0  0  0  0  0  0  0
   12.4537  -17.3549   22.4527 C   0  0  0  0  0  0  0  0  0  0  0  0
   12.3943  -17.0653   23.9376 C   0  0  1  0  0  0  0  0  0  0  0  0
   13.0700  -15.8705   24.1617 O   0  0  0  0  0  0  0  0  0  0  0  0
   10.9457  -16.9591   24.3612 C   0  0  2  0  0  0  0  0  0  0  0  0
   10.3001  -15.8754   23.6513 N   0  0  0  0  0  0  0  0  0  0  0  0
   10.8988  -16.7466   25.8302 C   0  0  0  0  0  0  0  0  0  0  0  0
   11.4170  -17.6846   26.7062 O   0  0  0  0  0  0  0  0  0  0  0  0
   10.3749  -15.6904   26.2558 O   0  0  0  0  0  0  0  0  0  0  0  0
  2  7  1  0
  2  1  1  6
  3  2  1  0
  4  3  1  0
  5  4  1  0
  5  6  2  0
  7 10  1  0
  8  7  2  0
  9  5  1  0
 10 11  1  0
 11 12  1  1
 13 12  1  0
 13 14  1  0
 14 15  1  0
 15 16  1  0
 17 18  2  0
 17 11  1  0
 20 19  1  6
 20 22  1  0
 21 20  1  0
 22 23  1  6
 23 17  1  0
 24 22  1  0
 24 25  1  0
 26 24  2  0
M  END
$$$$
