EKT.pdb
     RDKit          3D

 26 25  0  0  1  0  0  0  0  0999 V2000
    8.8927  -16.0536   18.2014 N   0  0  0  0  0  0  0  0  0  0  0  0
    7.9167  -16.2904   19.2445 C   0  0  1  0  0  0  0  0  0  0  0  0
    7.5738  -17.7524   19.2036 C   0  0  0  0  0  0  0  0  0  0  0  0
    8.5945  -18.6316   19.8234 C   0  0  0  0  0  0  0  0  0  0  0  0
    8.3283  -20.0697   19.7591 C   0  0  0  0  0  0  0  0  0  0  0  0
    8.7100  -20.7848   18.8010 O   0  0  0  0  0  0  0  0  0  0  0  0
    8.4723  -15.9059   20.5587 C   0  0  0  0  0  0  0  0  0  0  0  0
    9.7096  -16.0270   20.7458 O   0  0  0  0  0  0  0  0  0  0  0  0
    7.6310  -20.7058   20.7750 O   0  0  0  0  0  0  0  0  0  0  0  0
    7.7072  -15.4074   21.6305 N   0  0  0  0  0  0  0  0  0  0  0  0
    8.2895  -14.9440   22.8952 C   0  0  1  0  0  0  0  0  0  0  0  0
    7.1910  -14.2295   23.6264 C   0  0  0  0  0  0  0  0  0  0  0  0
    7.5985  -13.6483   24.9391 C   0  0  0  0  0  0  0  0  0  0  0  0
    6.5113  -12.8208   25.5925 C   0  0  0  0  0  0  0  0  0  0  0  0
    6.9788  -12.3037   26.9320 C   0  0  0  0  0  0  0  0  0  0  0  0
    5.9745  -11.3691   27.4370 N   0  0  0  0  0  0  0  0  0  0  0  0
    8.8507  -16.0870   23.6618 C   0  0  0  0  0  0  0  0  0  0  0  0
    8.1042  -17.0814   23.8390 O   0  0  0  0  0  0  0  0  0  0  0  0
   11.6230  -18.2887   22.9600 C   0  0  0  0  0  0  0  0  0  0  0  0
   11.9097  -17.7830   24.3580 C   0  0  1  0  0  0  0  0  0  0  0  0
   12.8739  -16.7859   24.2564 O   0  0  0  0  0  0  0  0  0  0  0  0
   10.6302  -17.2437   24.9588 C   0  0  2  0  0  0  0  0  0  0  0  0
   10.1632  -16.1081   24.1924 N   0  0  0  0  0  0  0  0  0  0  0  0
   10.8939  -16.8704   26.3718 C   0  0  0  0  0  0  0  0  0  0  0  0
   11.2611  -17.8223   27.3072 O   0  0  0  0  0  0  0  0  0  0  0  0
   10.7742  -15.6652   26.6944 O   0  0  0  0  0  0  0  0  0  0  0  0
  2  7  1  0
  2  1  1  6
  3  2  1  0
  4  3  1  0
  5  4  1  0
  5  6  2  0
  7 10  1  0
  8  7  2  0
  9  5  1  0
 10 11  1  0
 11 12  1  1
 13 12  1  0
 13 14  1  0
 14 15  1  0
 15 16  1  0
 17 18  2  0
 17 11  1  0
 20 19  1  6
 20 22  1  0
 21 20  1  0
 22 23  1  6
 23 17  1  0
 24 22  1  0
 24 25  1  0
 26 24  2  0
M  END
$$$$
