YMA.pdb
     RDKit          3D

 26 26  0  0  1  0  0  0  0  0999 V2000
   33.5310  -32.4722  -26.5222 O   0  0  0  0  0  0  0  0  0  0  0  0
   32.9906  -32.9527  -25.3511 C   0  0  0  0  0  0  0  0  0  0  0  0
   32.8480  -34.3133  -25.1417 C   0  0  0  0  0  0  0  0  0  0  0  0
   32.3070  -34.7947  -23.9696 C   0  0  0  0  0  0  0  0  0  0  0  0
   31.9043  -33.9331  -22.9987 C   0  0  0  0  0  0  0  0  0  0  0  0
   31.3217  -34.4561  -21.7361 C   0  0  0  0  0  0  0  0  0  0  0  0
   32.4332  -34.4744  -20.7064 C   0  0  2  0  0  0  0  0  0  0  0  0
   33.3483  -35.5393  -21.0749 N   0  0  0  0  0  0  0  0  0  0  0  0
   31.9010  -34.6732  -19.3331 C   0  0  0  0  0  0  0  0  0  0  0  0
   31.6175  -35.8139  -18.8714 O   0  0  0  0  0  0  0  0  0  0  0  0
   32.0323  -32.5744  -23.1756 C   0  0  0  0  0  0  0  0  0  0  0  0
   32.5777  -32.0886  -24.3573 C   0  0  0  0  0  0  0  0  0  0  0  0
   35.9939  -34.8764  -14.7259 C   0  0  0  0  0  0  0  0  0  0  0  0
   34.6534  -33.6713  -14.8526 S   0  0  0  0  0  0  0  0  0  0  0  0
   33.3750  -34.2251  -16.0233 C   0  0  0  0  0  0  0  0  0  0  0  0
   32.2537  -33.2308  -16.1278 C   0  0  0  0  0  0  0  0  0  0  0  0
   31.2330  -33.7029  -17.0875 C   0  0  2  0  0  0  0  0  0  0  0  0
   31.6873  -33.5763  -18.4756 N   0  0  0  0  0  0  0  0  0  0  0  0
   29.9005  -33.0736  -17.0008 C   0  0  0  0  0  0  0  0  0  0  0  0
   29.5599  -31.9775  -17.4891 O   0  0  0  0  0  0  0  0  0  0  0  0
   26.6417  -34.1038  -15.3621 C   0  0  0  0  0  0  0  0  0  0  0  0
   27.5231  -33.1375  -16.1259 C   0  0  2  0  0  0  0  0  0  0  0  0
   28.8286  -33.7480  -16.2866 N   0  0  0  0  0  0  0  0  0  0  0  0
   27.6421  -31.8702  -15.3266 C   0  0  0  0  0  0  0  0  0  0  0  0
   26.7768  -30.9864  -15.3535 O   0  0  0  0  0  0  0  0  0  0  0  0
   28.7764  -31.7300  -14.5478 O   0  0  0  0  0  0  0  0  0  0  0  0
  2  3  2  0
  2  1  1  0
  4  3  1  0
  5  4  2  0
  6  5  1  0
  7  9  1  0
  7  6  1  0
  7  8  1  6
  9 10  2  0
 11  5  1  0
 11 12  2  0
 12  2  1  0
 14 13  1  0
 15 14  1  0
 16 15  1  0
 17 16  1  1
 18  9  1  0
 18 17  1  0
 19 23  1  0
 19 17  1  0
 20 19  2  0
 22 21  1  1
 22 24  1  0
 22 23  1  0
 24 26  1  0
 25 24  2  0
M  END
$$$$
