YMA.pdb
     RDKit          3D

 26 26  0  0  1  0  0  0  0  0999 V2000
   21.4393  -28.2854  -15.3917 O   0  0  0  0  0  0  0  0  0  0  0  0
   22.6370  -28.0528  -16.0287 C   0  0  0  0  0  0  0  0  0  0  0  0
   22.7679  -27.0162  -16.9363 C   0  0  0  0  0  0  0  0  0  0  0  0
   23.9666  -26.7831  -17.5742 C   0  0  0  0  0  0  0  0  0  0  0  0
   25.0419  -27.5738  -17.3178 C   0  0  0  0  0  0  0  0  0  0  0  0
   26.3329  -27.3190  -18.0074 C   0  0  0  0  0  0  0  0  0  0  0  0
   27.1494  -26.4159  -17.1054 C   0  0  2  0  0  0  0  0  0  0  0  0
   26.4552  -25.1438  -17.0222 N   0  0  0  0  0  0  0  0  0  0  0  0
   28.5336  -26.2413  -17.6173 C   0  0  0  0  0  0  0  0  0  0  0  0
   28.9443  -25.1546  -18.1127 O   0  0  0  0  0  0  0  0  0  0  0  0
   24.9450  -28.6129  -16.4207 C   0  0  0  0  0  0  0  0  0  0  0  0
   23.7364  -28.8482  -15.7773 C   0  0  0  0  0  0  0  0  0  0  0  0
   32.2424  -24.8151  -14.1825 C   0  0  0  0  0  0  0  0  0  0  0  0
   33.4792  -25.7937  -15.0645 S   0  0  0  0  0  0  0  0  0  0  0  0
   32.7024  -26.8911  -16.2906 C   0  0  0  0  0  0  0  0  0  0  0  0
   31.5670  -26.2102  -17.0006 C   0  0  0  0  0  0  0  0  0  0  0  0
   30.8805  -27.1581  -17.9040 C   0  0  2  0  0  0  0  0  0  0  0  0
   29.4603  -27.3011  -17.5696 N   0  0  0  0  0  0  0  0  0  0  0  0
   31.4505  -28.5166  -17.9964 C   0  0  0  0  0  0  0  0  0  0  0  0
   31.3242  -29.4368  -17.1638 O   0  0  0  0  0  0  0  0  0  0  0  0
   33.6006  -30.2623  -20.5840 C   0  0  0  0  0  0  0  0  0  0  0  0
   32.8578  -30.1989  -19.2656 C   0  0  2  0  0  0  0  0  0  0  0  0
   32.2524  -28.8862  -19.1515 N   0  0  0  0  0  0  0  0  0  0  0  0
   33.8463  -30.4086  -18.1531 C   0  0  0  0  0  0  0  0  0  0  0  0
   34.4808  -29.4754  -17.6461 O   0  0  0  0  0  0  0  0  0  0  0  0
   34.0206  -31.7079  -17.7123 O   0  0  0  0  0  0  0  0  0  0  0  0
  2  3  2  0
  2  1  1  0
  4  3  1  0
  5  4  2  0
  6  5  1  0
  7  9  1  0
  7  6  1  0
  7  8  1  6
  9 10  2  0
 11  5  1  0
 11 12  2  0
 12  2  1  0
 14 13  1  0
 15 14  1  0
 16 15  1  0
 17 16  1  1
 18  9  1  0
 18 17  1  0
 19 23  1  0
 19 17  1  0
 20 19  2  0
 22 21  1  6
 22 24  1  0
 22 23  1  0
 24 26  1  0
 25 24  2  0
M  END
$$$$
