YMA.pdb
     RDKit          3D

 26 26  0  0  1  0  0  0  0  0999 V2000
   25.7111  -15.4216  -16.8427 O   0  0  0  0  0  0  0  0  0  0  0  0
   25.1005  -14.1910  -16.9265 C   0  0  0  0  0  0  0  0  0  0  0  0
   24.7163  -13.6718  -18.1505 C   0  0  0  0  0  0  0  0  0  0  0  0
   24.1050  -12.4400  -18.2348 C   0  0  0  0  0  0  0  0  0  0  0  0
   23.8706  -11.7153  -17.1092 C   0  0  0  0  0  0  0  0  0  0  0  0
   23.2109  -10.3875  -17.2041 C   0  0  0  0  0  0  0  0  0  0  0  0
   21.7386  -10.5997  -16.9156 C   0  0  2  0  0  0  0  0  0  0  0  0
   21.2332  -11.5345  -17.9045 N   0  0  0  0  0  0  0  0  0  0  0  0
   20.9858   -9.3188  -16.9517 C   0  0  0  0  0  0  0  0  0  0  0  0
   20.3189   -8.9491  -17.9584 O   0  0  0  0  0  0  0  0  0  0  0  0
   24.2403  -12.2030  -15.8765 C   0  0  0  0  0  0  0  0  0  0  0  0
   24.8567  -13.4450  -15.7912 C   0  0  0  0  0  0  0  0  0  0  0  0
   15.4660   -4.9657  -14.2777 C   0  0  0  0  0  0  0  0  0  0  0  0
   16.3239   -6.5170  -14.6279 S   0  0  0  0  0  0  0  0  0  0  0  0
   18.0272   -6.2174  -15.1939 C   0  0  0  0  0  0  0  0  0  0  0  0
   18.8047   -7.4977  -15.3081 C   0  0  0  0  0  0  0  0  0  0  0  0
   20.1834   -7.2252  -15.7670 C   0  0  2  0  0  0  0  0  0  0  0  0
   20.9864   -8.4494  -15.8434 N   0  0  0  0  0  0  0  0  0  0  0  0
   20.9578   -6.2380  -14.9893 C   0  0  0  0  0  0  0  0  0  0  0  0
   21.4037   -6.3829  -13.8334 O   0  0  0  0  0  0  0  0  0  0  0  0
   22.2803   -2.7742  -15.7647 C   0  0  0  0  0  0  0  0  0  0  0  0
   22.0008   -3.9339  -14.8314 C   0  0  2  0  0  0  0  0  0  0  0  0
   21.2678   -4.9425  -15.5718 N   0  0  0  0  0  0  0  0  0  0  0  0
   21.1694   -3.4309  -13.6848 C   0  0  0  0  0  0  0  0  0  0  0  0
   21.6638   -2.8375  -12.7184 O   0  0  0  0  0  0  0  0  0  0  0  0
   19.8077   -3.6623  -13.7552 O   0  0  0  0  0  0  0  0  0  0  0  0
  2  3  2  0
  2  1  1  0
  4  3  1  0
  5  4  2  0
  6  5  1  0
  7  9  1  0
  7  6  1  0
  7  8  1  6
  9 10  2  0
 11  5  1  0
 11 12  2  0
 12  2  1  0
 14 13  1  0
 15 14  1  0
 16 15  1  0
 17 16  1  1
 18  9  1  0
 18 17  1  0
 19 23  1  0
 19 17  1  0
 20 19  2  0
 22 21  1  6
 22 24  1  0
 22 23  1  0
 24 26  1  0
 25 24  2  0
M  END
$$$$
