YMA.pdb
     RDKit          3D

 26 26  0  0  1  0  0  0  0  0999 V2000
   18.2202  -16.5579  -20.7066 O   0  0  0  0  0  0  0  0  0  0  0  0
   19.0361  -15.7405  -19.9579 C   0  0  0  0  0  0  0  0  0  0  0  0
   19.9025  -14.8512  -20.5693 C   0  0  0  0  0  0  0  0  0  0  0  0
   20.7194  -14.0328  -19.8202 C   0  0  0  0  0  0  0  0  0  0  0  0
   20.6836  -14.0897  -18.4628 C   0  0  0  0  0  0  0  0  0  0  0  0
   21.5657  -13.2053  -17.6584 C   0  0  0  0  0  0  0  0  0  0  0  0
   22.9937  -13.5195  -18.0558 C   0  0  2  0  0  0  0  0  0  0  0  0
   23.2463  -14.9054  -17.7057 N   0  0  0  0  0  0  0  0  0  0  0  0
   23.9589  -12.6102  -17.3847 C   0  0  0  0  0  0  0  0  0  0  0  0
   24.4065  -12.8291  -16.2243 O   0  0  0  0  0  0  0  0  0  0  0  0
   19.8332  -14.9630  -17.8238 C   0  0  0  0  0  0  0  0  0  0  0  0
   19.0095  -15.7883  -18.5789 C   0  0  0  0  0  0  0  0  0  0  0  0
   29.6418   -9.9240  -16.9282 C   0  0  0  0  0  0  0  0  0  0  0  0
   29.1966  -10.7067  -18.4948 S   0  0  0  0  0  0  0  0  0  0  0  0
   27.4876  -11.3306  -18.4600 C   0  0  0  0  0  0  0  0  0  0  0  0
   26.4909  -10.2082  -18.4005 C   0  0  0  0  0  0  0  0  0  0  0  0
   25.4076  -10.5299  -17.4472 C   0  0  2  0  0  0  0  0  0  0  0  0
   24.4216  -11.4459  -18.0285 N   0  0  0  0  0  0  0  0  0  0  0  0
   24.6659   -9.3880  -16.8770 C   0  0  0  0  0  0  0  0  0  0  0  0
   25.1447   -8.4373  -16.2267 O   0  0  0  0  0  0  0  0  0  0  0  0
   22.7886   -8.1749  -14.9803 C   0  0  0  0  0  0  0  0  0  0  0  0
   22.4505   -8.2321  -16.4556 C   0  0  2  0  0  0  0  0  0  0  0  0
   23.2256   -9.3011  -17.0551 N   0  0  0  0  0  0  0  0  0  0  0  0
   22.8206   -6.9156  -17.0790 C   0  0  0  0  0  0  0  0  0  0  0  0
   23.7239   -6.8105  -17.9178 O   0  0  0  0  0  0  0  0  0  0  0  0
   22.0989   -5.8088  -16.6702 O   0  0  0  0  0  0  0  0  0  0  0  0
  2  3  2  0
  2  1  1  0
  4  3  1  0
  5  4  2  0
  6  5  1  0
  7  9  1  0
  7  6  1  0
  7  8  1  1
  9 10  2  0
 11  5  1  0
 11 12  2  0
 12  2  1  0
 14 13  1  0
 15 14  1  0
 16 15  1  0
 17 16  1  6
 18  9  1  0
 18 17  1  0
 19 23  1  0
 19 17  1  0
 20 19  2  0
 22 21  1  1
 22 24  1  0
 22 23  1  0
 24 26  1  0
 25 24  2  0
M  END
$$$$
