YMA.pdb
     RDKit          3D

 26 26  0  0  1  0  0  0  0  0999 V2000
   20.1376  -19.7134  -13.7085 O   0  0  0  0  0  0  0  0  0  0  0  0
   20.4439  -18.5086  -14.2993 C   0  0  0  0  0  0  0  0  0  0  0  0
   20.0236  -17.3159  -13.7370 C   0  0  0  0  0  0  0  0  0  0  0  0
   20.3300  -16.1096  -14.3281 C   0  0  0  0  0  0  0  0  0  0  0  0
   21.0535  -16.0768  -15.4781 C   0  0  0  0  0  0  0  0  0  0  0  0
   21.3822  -14.7741  -16.1122 C   0  0  0  0  0  0  0  0  0  0  0  0
   20.2308  -14.4232  -17.0326 C   0  0  2  0  0  0  0  0  0  0  0  0
   20.1541  -15.4600  -18.0457 N   0  0  0  0  0  0  0  0  0  0  0  0
   20.4132  -13.0824  -17.6472 C   0  0  0  0  0  0  0  0  0  0  0  0
   20.5929  -12.9204  -18.8867 O   0  0  0  0  0  0  0  0  0  0  0  0
   21.4867  -17.2449  -16.0627 C   0  0  0  0  0  0  0  0  0  0  0  0
   21.1779  -18.4613  -15.4670 C   0  0  0  0  0  0  0  0  0  0  0  0
   18.8657  -10.5676  -22.6652 C   0  0  0  0  0  0  0  0  0  0  0  0
   18.2612  -10.4368  -20.9673 S   0  0  0  0  0  0  0  0  0  0  0  0
   19.6226  -10.5770  -19.7681 C   0  0  0  0  0  0  0  0  0  0  0  0
   19.1272  -10.4650  -18.3543 C   0  0  0  0  0  0  0  0  0  0  0  0
   20.2546  -10.5634  -17.4030 C   0  0  2  0  0  0  0  0  0  0  0  0
   20.3927  -11.9167  -16.8566 N   0  0  0  0  0  0  0  0  0  0  0  0
   20.2428   -9.6266  -16.2622 C   0  0  0  0  0  0  0  0  0  0  0  0
   19.4888   -9.6696  -15.2694 O   0  0  0  0  0  0  0  0  0  0  0  0
   22.2833   -6.5505  -15.4027 C   0  0  0  0  0  0  0  0  0  0  0  0
   21.1562   -7.5336  -15.1637 C   0  0  2  0  0  0  0  0  0  0  0  0
   21.1811   -8.5166  -16.2295 N   0  0  0  0  0  0  0  0  0  0  0  0
   19.8559   -6.7803  -15.1883 C   0  0  0  0  0  0  0  0  0  0  0  0
   19.1457   -6.7176  -16.1993 O   0  0  0  0  0  0  0  0  0  0  0  0
   19.4797   -6.1500  -14.0161 O   0  0  0  0  0  0  0  0  0  0  0  0
  2  3  2  0
  2  1  1  0
  4  3  1  0
  5  4  2  0
  6  5  1  0
  7  9  1  0
  7  6  1  0
  7  8  1  6
  9 10  2  0
 11  5  1  0
 11 12  2  0
 12  2  1  0
 14 13  1  0
 15 14  1  0
 16 15  1  0
 17 16  1  1
 18  9  1  0
 18 17  1  0
 19 23  1  0
 19 17  1  0
 20 19  2  0
 22 21  1  6
 22 24  1  0
 22 23  1  0
 24 26  1  0
 25 24  2  0
M  END
$$$$
