YMA.pdb
     RDKit          3D

 26 26  0  0  1  0  0  0  0  0999 V2000
   17.1650  -24.0291   -6.7332 O   0  0  0  0  0  0  0  0  0  0  0  0
   18.1839  -23.6202   -7.5632 C   0  0  0  0  0  0  0  0  0  0  0  0
   19.4658  -23.4364   -7.0750 C   0  0  0  0  0  0  0  0  0  0  0  0
   20.4860  -23.0270   -7.9055 C   0  0  0  0  0  0  0  0  0  0  0  0
   20.2438  -22.7973   -9.2230 C   0  0  0  0  0  0  0  0  0  0  0  0
   21.3466  -22.3563  -10.1155 C   0  0  0  0  0  0  0  0  0  0  0  0
   21.7481  -20.9638   -9.6734 C   0  0  2  0  0  0  0  0  0  0  0  0
   20.6896  -20.0576  -10.0803 N   0  0  0  0  0  0  0  0  0  0  0  0
   23.0545  -20.5620  -10.2568 C   0  0  0  0  0  0  0  0  0  0  0  0
   23.1460  -19.8520  -11.2972 O   0  0  0  0  0  0  0  0  0  0  0  0
   18.9803  -22.9708   -9.7400 C   0  0  0  0  0  0  0  0  0  0  0  0
   17.9513  -23.3835   -8.9028 C   0  0  0  0  0  0  0  0  0  0  0  0
   27.9977  -18.9656   -5.6047 C   0  0  0  0  0  0  0  0  0  0  0  0
   28.0241  -20.1778   -6.9445 S   0  0  0  0  0  0  0  0  0  0  0  0
   26.6675  -19.8908   -8.1228 C   0  0  0  0  0  0  0  0  0  0  0  0
   26.6652  -20.9141   -9.2226 C   0  0  0  0  0  0  0  0  0  0  0  0
   25.5888  -20.6254  -10.1940 C   0  0  2  0  0  0  0  0  0  0  0  0
   24.2659  -20.9648   -9.6613 N   0  0  0  0  0  0  0  0  0  0  0  0
   25.7058  -21.2611  -11.5212 C   0  0  0  0  0  0  0  0  0  0  0  0
   25.4828  -22.4568  -11.7979 O   0  0  0  0  0  0  0  0  0  0  0  0
   26.1819  -19.9294  -15.0064 C   0  0  0  0  0  0  0  0  0  0  0  0
   26.2362  -21.0512  -13.9903 C   0  0  2  0  0  0  0  0  0  0  0  0
   26.1191  -20.4683  -12.6677 N   0  0  0  0  0  0  0  0  0  0  0  0
   27.5578  -21.7534  -14.1284 C   0  0  0  0  0  0  0  0  0  0  0  0
   27.8289  -22.4697  -15.1000 O   0  0  0  0  0  0  0  0  0  0  0  0
   28.4729  -21.5634  -13.1090 O   0  0  0  0  0  0  0  0  0  0  0  0
  2  3  2  0
  2  1  1  0
  4  3  1  0
  5  4  2  0
  6  5  1  0
  7  9  1  0
  7  6  1  0
  7  8  1  6
  9 10  2  0
 11  5  1  0
 11 12  2  0
 12  2  1  0
 14 13  1  0
 15 14  1  0
 16 15  1  0
 17 16  1  1
 18  9  1  0
 18 17  1  0
 19 23  1  0
 19 17  1  0
 20 19  2  0
 22 21  1  6
 22 24  1  0
 22 23  1  0
 24 26  1  0
 25 24  2  0
M  END
$$$$
