YMA.pdb
     RDKit          3D

 26 26  0  0  1  0  0  0  0  0999 V2000
   20.1576  -22.3983   -8.3788 O   0  0  0  0  0  0  0  0  0  0  0  0
   21.3633  -21.9041   -8.8219 C   0  0  0  0  0  0  0  0  0  0  0  0
   21.5368  -21.5393  -10.1456 C   0  0  0  0  0  0  0  0  0  0  0  0
   22.7436  -21.0445  -10.5895 C   0  0  0  0  0  0  0  0  0  0  0  0
   23.7849  -20.9081   -9.7268 C   0  0  0  0  0  0  0  0  0  0  0  0
   25.0845  -20.3738  -10.2093 C   0  0  0  0  0  0  0  0  0  0  0  0
   25.2244  -20.7853  -11.6608 C   0  0  2  0  0  0  0  0  0  0  0  0
   25.3402  -22.2320  -11.6921 N   0  0  0  0  0  0  0  0  0  0  0  0
   26.3990  -20.1373  -12.3004 C   0  0  0  0  0  0  0  0  0  0  0  0
   26.5459  -18.8837  -12.3424 O   0  0  0  0  0  0  0  0  0  0  0  0
   23.6452  -21.2616   -8.4042 C   0  0  0  0  0  0  0  0  0  0  0  0
   22.4285  -21.7606   -7.9562 C   0  0  0  0  0  0  0  0  0  0  0  0
   31.9060  -22.7504  -11.5273 C   0  0  0  0  0  0  0  0  0  0  0  0
   31.3398  -21.2760  -10.6493 S   0  0  0  0  0  0  0  0  0  0  0  0
   29.8806  -20.5461  -11.4551 C   0  0  0  0  0  0  0  0  0  0  0  0
   29.8531  -20.8482  -12.9264 C   0  0  0  0  0  0  0  0  0  0  0  0
   28.6050  -20.3401  -13.5345 C   0  0  2  0  0  0  0  0  0  0  0  0
   27.4144  -20.9102  -12.8968 N   0  0  0  0  0  0  0  0  0  0  0  0
   28.4552  -20.5234  -14.9915 C   0  0  0  0  0  0  0  0  0  0  0  0
   27.8667  -21.4594  -15.5690 O   0  0  0  0  0  0  0  0  0  0  0  0
   29.3971  -21.1109  -17.6901 C   0  0  0  0  0  0  0  0  0  0  0  0
   28.9367  -19.7103  -17.3429 C   0  0  2  0  0  0  0  0  0  0  0  0
   29.0291  -19.5485  -15.9048 N   0  0  0  0  0  0  0  0  0  0  0  0
   27.5094  -19.5557  -17.7878 C   0  0  0  0  0  0  0  0  0  0  0  0
   26.6063  -20.3004  -17.3871 O   0  0  0  0  0  0  0  0  0  0  0  0
   27.2426  -18.5310  -18.6775 O   0  0  0  0  0  0  0  0  0  0  0  0
  2  3  2  0
  2  1  1  0
  4  3  1  0
  5  4  2  0
  6  5  1  0
  7  9  1  0
  7  6  1  0
  7  8  1  1
  9 10  2  0
 11  5  1  0
 11 12  2  0
 12  2  1  0
 14 13  1  0
 15 14  1  0
 16 15  1  0
 17 16  1  1
 18  9  1  0
 18 17  1  0
 19 23  1  0
 19 17  1  0
 20 19  2  0
 22 21  1  1
 22 24  1  0
 22 23  1  0
 24 26  1  0
 25 24  2  0
M  END
$$$$
