YMA.pdb
     RDKit          3D

 26 26  0  0  1  0  0  0  0  0999 V2000
   27.8629  -12.5111  -17.2162 O   0  0  0  0  0  0  0  0  0  0  0  0
   27.2090  -13.6933  -16.9530 C   0  0  0  0  0  0  0  0  0  0  0  0
   27.0659  -14.1506  -15.6547 C   0  0  0  0  0  0  0  0  0  0  0  0
   26.4114  -15.3340  -15.3907 C   0  0  0  0  0  0  0  0  0  0  0  0
   25.8952  -16.0709  -16.4093 C   0  0  0  0  0  0  0  0  0  0  0  0
   25.1898  -17.3462  -16.1206 C   0  0  0  0  0  0  0  0  0  0  0  0
   26.1911  -18.2688  -15.4558 C   0  0  2  0  0  0  0  0  0  0  0  0
   27.0376  -18.8153  -16.5008 N   0  0  0  0  0  0  0  0  0  0  0  0
   25.5138  -19.3489  -14.6920 C   0  0  0  0  0  0  0  0  0  0  0  0
   25.0899  -20.4059  -15.2378 O   0  0  0  0  0  0  0  0  0  0  0  0
   26.0203  -15.6441  -17.7116 C   0  0  0  0  0  0  0  0  0  0  0  0
   26.6802  -14.4510  -17.9781 C   0  0  0  0  0  0  0  0  0  0  0  0
   27.3015  -22.1002  -10.1816 C   0  0  0  0  0  0  0  0  0  0  0  0
   25.7252  -22.1064   -9.2980 S   0  0  0  0  0  0  0  0  0  0  0  0
   24.4341  -21.2398  -10.2432 C   0  0  0  0  0  0  0  0  0  0  0  0
   25.0041  -20.1038  -11.0440 C   0  0  0  0  0  0  0  0  0  0  0  0
   24.6943  -20.2773  -12.4791 C   0  0  2  0  0  0  0  0  0  0  0  0
   25.3137  -19.2344  -13.3023 N   0  0  0  0  0  0  0  0  0  0  0  0
   23.2658  -20.3381  -12.8461 C   0  0  0  0  0  0  0  0  0  0  0  0
   22.4661  -19.3819  -12.8925 O   0  0  0  0  0  0  0  0  0  0  0  0
   21.0121  -23.1363  -14.0457 C   0  0  0  0  0  0  0  0  0  0  0  0
   21.2759  -21.7112  -13.6058 C   0  0  2  0  0  0  0  0  0  0  0  0
   22.6650  -21.6136  -13.2011 N   0  0  0  0  0  0  0  0  0  0  0  0
   20.3774  -21.3994  -12.4420 C   0  0  0  0  0  0  0  0  0  0  0  0
   20.7400  -21.5437  -11.2680 O   0  0  0  0  0  0  0  0  0  0  0  0
   19.1087  -20.9376  -12.7417 O   0  0  0  0  0  0  0  0  0  0  0  0
  2  3  2  0
  2  1  1  0
  4  3  1  0
  5  4  2  0
  6  5  1  0
  7  9  1  0
  7  6  1  0
  7  8  1  6
  9 10  2  0
 11  5  1  0
 11 12  2  0
 12  2  1  0
 14 13  1  0
 15 14  1  0
 16 15  1  0
 17 16  1  1
 18  9  1  0
 18 17  1  0
 19 23  1  0
 19 17  1  0
 20 19  2  0
 22 21  1  1
 22 24  1  0
 22 23  1  0
 24 26  1  0
 25 24  2  0
M  END
$$$$
