KHI.pdb
     RDKit          3D

 28 28  0  0  1  0  0  0  0  0999 V2000
   24.6485  -18.5977  -17.8813 N   0  0  0  0  0  0  0  0  0  0  0  0
   23.6765  -19.3260  -17.0952 C   0  0  1  0  0  0  0  0  0  0  0  0
   23.0347  -20.3675  -17.9624 C   0  0  0  0  0  0  0  0  0  0  0  0
   22.2223  -19.7074  -19.0328 C   0  0  0  0  0  0  0  0  0  0  0  0
   21.4197  -18.5805  -18.4574 C   0  0  0  0  0  0  0  0  0  0  0  0
   20.4915  -18.0156  -19.4887 C   0  0  0  0  0  0  0  0  0  0  0  0
   19.8513  -16.8476  -18.9049 N   0  0  0  0  0  0  0  0  0  0  0  0
   24.3928  -20.0832  -15.9939 C   0  0  0  0  0  0  0  0  0  0  0  0
   23.7408  -21.0333  -15.5204 O   0  0  0  0  0  0  0  0  0  0  0  0
   25.6669  -19.7062  -15.5885 N   0  0  0  0  0  0  0  0  0  0  0  0
   26.4060  -20.2729  -14.5201 C   0  0  1  0  0  0  0  0  0  0  0  0
   27.8649  -20.3777  -14.8730 C   0  0  0  0  0  0  0  0  0  0  0  0
   27.9994  -21.2453  -16.0774 C   0  0  0  0  0  0  0  0  0  0  0  0
   28.2377  -20.7921  -17.3402 C   0  0  0  0  0  0  0  0  0  0  0  0
   28.3036  -21.8404  -18.2009 N   0  0  0  0  0  0  0  0  0  0  0  0
   28.1061  -22.9410  -17.4693 C   0  0  0  0  0  0  0  0  0  0  0  0
   27.9208  -22.5803  -16.1761 N   0  0  0  0  0  0  0  0  0  0  0  0
   26.1621  -19.7019  -13.1720 C   0  0  0  0  0  0  0  0  0  0  0  0
   26.1197  -18.5175  -12.8410 O   0  0  0  0  0  0  0  0  0  0  0  0
   21.7905  -20.4886  -11.0431 C   0  0  0  0  0  0  0  0  0  0  0  0
   23.2089  -20.0798  -11.3697 C   0  0  0  0  0  0  0  0  0  0  0  0
   24.2197  -20.6062  -10.3960 C   0  0  2  0  0  0  0  0  0  0  0  0
   23.8670  -20.1524   -8.9956 C   0  0  0  0  0  0  0  0  0  0  0  0
   25.6385  -20.2659  -10.7596 C   0  0  2  0  0  0  0  0  0  0  0  0
   25.9464  -20.6539  -12.1160 N   0  0  0  0  0  0  0  0  0  0  0  0
   26.6363  -20.6393   -9.7679 C   0  0  0  0  0  0  0  0  0  0  0  0
   27.2658  -21.7111   -9.8977 O   0  0  0  0  0  0  0  0  0  0  0  0
   26.9247  -19.8513   -8.6707 O   0  0  0  0  0  0  0  0  0  0  0  0
  2  8  1  0
  2  1  1  6
  3  2  1  0
  4  3  1  0
  5  4  1  0
  6  5  1  0
  7  6  1  0
  8  9  2  0
 10 11  1  0
 10  8  1  0
 12 13  1  0
 11 12  1  6
 13 14  2  0
 15 14  1  0
 16 15  1  0
 17 16  2  0
 17 13  1  0
 18 11  1  0
 18 19  2  0
 20 21  1  0
 21 22  1  0
 22 24  1  0
 22 23  1  1
 24 25  1  6
 24 26  1  0
 25 18  1  0
 26 27  2  0
 26 28  1  0
M  END
$$$$
