KHI.pdb
     RDKit          3D

 28 28  0  0  1  0  0  0  0  0999 V2000
   25.8934  -22.2311  -17.9964 N   0  0  0  0  0  0  0  0  0  0  0  0
   24.8282  -22.7782  -17.1845 C   0  0  1  0  0  0  0  0  0  0  0  0
   25.3680  -23.9287  -16.3885 C   0  0  0  0  0  0  0  0  0  0  0  0
   24.7509  -25.2081  -16.8617 C   0  0  0  0  0  0  0  0  0  0  0  0
   25.7553  -26.0219  -17.6194 C   0  0  0  0  0  0  0  0  0  0  0  0
   25.1115  -27.2426  -18.2020 C   0  0  0  0  0  0  0  0  0  0  0  0
   26.1313  -27.9553  -18.9549 N   0  0  0  0  0  0  0  0  0  0  0  0
   24.3895  -21.7388  -16.1714 C   0  0  0  0  0  0  0  0  0  0  0  0
   25.3270  -21.0985  -15.6585 O   0  0  0  0  0  0  0  0  0  0  0  0
   23.0434  -21.5581  -15.8799 N   0  0  0  0  0  0  0  0  0  0  0  0
   22.5103  -20.6835  -14.9001 C   0  0  1  0  0  0  0  0  0  0  0  0
   21.1602  -20.1677  -15.3187 C   0  0  0  0  0  0  0  0  0  0  0  0
   21.3589  -19.0609  -16.2970 C   0  0  0  0  0  0  0  0  0  0  0  0
   22.5712  -18.5900  -16.7034 C   0  0  0  0  0  0  0  0  0  0  0  0
   22.3978  -17.5826  -17.5974 N   0  0  0  0  0  0  0  0  0  0  0  0
   21.0782  -17.4317  -17.7430 C   0  0  0  0  0  0  0  0  0  0  0  0
   20.4441  -18.3312  -16.9519 N   0  0  0  0  0  0  0  0  0  0  0  0
   22.5527  -21.1608  -13.4953 C   0  0  0  0  0  0  0  0  0  0  0  0
   22.2164  -22.2581  -13.0515 O   0  0  0  0  0  0  0  0  0  0  0  0
   26.9695  -20.0343  -10.8052 C   0  0  0  0  0  0  0  0  0  0  0  0
   25.6543  -20.5903  -11.3019 C   0  0  0  0  0  0  0  0  0  0  0  0
   24.4664  -20.0733  -10.5479 C   0  0  2  0  0  0  0  0  0  0  0  0
   24.5990  -20.4222   -9.0808 C   0  0  0  0  0  0  0  0  0  0  0  0
   23.1499  -20.5229  -11.1187 C   0  0  2  0  0  0  0  0  0  0  0  0
   23.0516  -20.2215  -12.5274 N   0  0  0  0  0  0  0  0  0  0  0  0
   21.9808  -20.1686  -10.3274 C   0  0  0  0  0  0  0  0  0  0  0  0
   21.3508  -19.1217  -10.5900 O   0  0  0  0  0  0  0  0  0  0  0  0
   21.5274  -20.9483   -9.2813 O   0  0  0  0  0  0  0  0  0  0  0  0
  2  8  1  0
  2  1  1  6
  3  2  1  0
  4  3  1  0
  5  4  1  0
  6  5  1  0
  7  6  1  0
  8  9  2  0
 10 11  1  0
 10  8  1  0
 12 13  1  0
 11 12  1  6
 13 14  2  0
 15 14  1  0
 16 15  1  0
 17 16  2  0
 17 13  1  0
 18 11  1  0
 18 19  2  0
 20 21  1  0
 21 22  1  0
 22 24  1  0
 22 23  1  1
 24 25  1  6
 24 26  1  0
 25 18  1  0
 26 27  2  0
 26 28  1  0
M  END
$$$$
