KHI.pdb
     RDKit          3D

 28 28  0  0  1  0  0  0  0  0999 V2000
   26.7779  -27.0322  -16.6504 N   0  0  0  0  0  0  0  0  0  0  0  0
   26.2125  -28.2347  -17.2228 C   0  0  1  0  0  0  0  0  0  0  0  0
   26.8720  -29.4263  -16.5951 C   0  0  0  0  0  0  0  0  0  0  0  0
   28.2433  -29.6086  -17.1676 C   0  0  0  0  0  0  0  0  0  0  0  0
   28.8489  -30.8865  -16.6723 C   0  0  0  0  0  0  0  0  0  0  0  0
   30.2321  -31.0604  -17.2209 C   0  0  0  0  0  0  0  0  0  0  0  0
   30.7380  -32.3325  -16.7306 N   0  0  0  0  0  0  0  0  0  0  0  0
   24.7460  -28.3233  -16.8478 C   0  0  0  0  0  0  0  0  0  0  0  0
   24.4609  -27.7707  -15.7684 O   0  0  0  0  0  0  0  0  0  0  0  0
   23.8416  -28.9762  -17.6758 N   0  0  0  0  0  0  0  0  0  0  0  0
   22.4435  -29.0819  -17.4680 C   0  0  1  0  0  0  0  0  0  0  0  0
   21.7671  -29.6886  -18.6673 C   0  0  0  0  0  0  0  0  0  0  0  0
   20.2972  -29.4788  -18.5383 C   0  0  0  0  0  0  0  0  0  0  0  0
   19.7109  -28.5652  -17.7146 C   0  0  0  0  0  0  0  0  0  0  0  0
   18.3604  -28.6328  -17.8389 N   0  0  0  0  0  0  0  0  0  0  0  0
   18.1128  -29.5882  -18.7396 C   0  0  0  0  0  0  0  0  0  0  0  0
   19.2911  -30.1043  -19.1665 N   0  0  0  0  0  0  0  0  0  0  0  0
   22.0103  -29.6769  -16.1792 C   0  0  0  0  0  0  0  0  0  0  0  0
   22.4713  -30.6592  -15.5987 O   0  0  0  0  0  0  0  0  0  0  0  0
   21.0374  -26.2257  -12.2081 C   0  0  0  0  0  0  0  0  0  0  0  0
   21.3180  -27.4063  -13.1099 C   0  0  0  0  0  0  0  0  0  0  0  0
   20.1203  -28.2777  -13.3403 C   0  0  2  0  0  0  0  0  0  0  0  0
   19.5370  -28.7089  -12.0116 C   0  0  0  0  0  0  0  0  0  0  0  0
   20.3935  -29.4482  -14.2439 C   0  0  2  0  0  0  0  0  0  0  0  0
   20.9112  -29.0220  -15.5227 N   0  0  0  0  0  0  0  0  0  0  0  0
   19.3308  -30.4407  -14.3065 C   0  0  0  0  0  0  0  0  0  0  0  0
   18.3308  -30.2309  -15.0261 O   0  0  0  0  0  0  0  0  0  0  0  0
   19.3760  -31.6239  -13.5952 O   0  0  0  0  0  0  0  0  0  0  0  0
  2  8  1  0
  2  1  1  1
  3  2  1  0
  4  3  1  0
  5  4  1  0
  6  5  1  0
  7  6  1  0
  8  9  2  0
 10 11  1  0
 10  8  1  0
 12 13  1  0
 11 12  1  6
 13 14  2  0
 15 14  1  0
 16 15  1  0
 17 16  2  0
 17 13  1  0
 18 11  1  0
 18 19  2  0
 20 21  1  0
 21 22  1  0
 22 24  1  0
 22 23  1  1
 24 25  1  6
 24 26  1  0
 25 18  1  0
 26 27  2  0
 26 28  1  0
M  END
$$$$
