KHI.pdb
     RDKit          3D

 28 28  0  0  1  0  0  0  0  0999 V2000
   22.7198  -14.7258  -19.0848 N   0  0  0  0  0  0  0  0  0  0  0  0
   22.2072  -13.3940  -19.3230 C   0  0  1  0  0  0  0  0  0  0  0  0
   20.8464  -13.5026  -19.9438 C   0  0  0  0  0  0  0  0  0  0  0  0
   20.9383  -14.2391  -21.2439 C   0  0  0  0  0  0  0  0  0  0  0  0
   19.6218  -14.2010  -21.9585 C   0  0  0  0  0  0  0  0  0  0  0  0
   19.7128  -14.9232  -23.2678 C   0  0  0  0  0  0  0  0  0  0  0  0
   18.4159  -14.8132  -23.9165 N   0  0  0  0  0  0  0  0  0  0  0  0
   22.0050  -12.6927  -17.9939 C   0  0  0  0  0  0  0  0  0  0  0  0
   21.0453  -13.1265  -17.3286 O   0  0  0  0  0  0  0  0  0  0  0  0
   22.8491  -11.6613  -17.6019 N   0  0  0  0  0  0  0  0  0  0  0  0
   22.7622  -10.9229  -16.3951 C   0  0  1  0  0  0  0  0  0  0  0  0
   24.0017  -11.1081  -15.5624 C   0  0  0  0  0  0  0  0  0  0  0  0
   24.1922  -12.5655  -15.3148 C   0  0  0  0  0  0  0  0  0  0  0  0
   25.2592  -13.2950  -15.7459 C   0  0  0  0  0  0  0  0  0  0  0  0
   25.1231  -14.5873  -15.3516 N   0  0  0  0  0  0  0  0  0  0  0  0
   23.9719  -14.6555  -14.6768 C   0  0  0  0  0  0  0  0  0  0  0  0
   23.4038  -13.4252  -14.6534 N   0  0  0  0  0  0  0  0  0  0  0  0
   22.3362   -9.5064  -16.5166 C   0  0  0  0  0  0  0  0  0  0  0  0
   22.7439   -8.6513  -17.3019 O   0  0  0  0  0  0  0  0  0  0  0  0
   17.4795   -8.1852  -17.3814 C   0  0  0  0  0  0  0  0  0  0  0  0
   18.9727   -8.1883  -17.1448 C   0  0  0  0  0  0  0  0  0  0  0  0
   19.3657   -7.6282  -15.8112 C   0  0  2  0  0  0  0  0  0  0  0  0
   18.8429   -6.2141  -15.6750 C   0  0  0  0  0  0  0  0  0  0  0  0
   20.8412   -7.7142  -15.5343 C   0  0  2  0  0  0  0  0  0  0  0  0
   21.3150   -9.0766  -15.5998 N   0  0  0  0  0  0  0  0  0  0  0  0
   21.2976   -6.9556  -14.3790 C   0  0  0  0  0  0  0  0  0  0  0  0
   21.3517   -7.5077  -13.2591 O   0  0  0  0  0  0  0  0  0  0  0  0
   21.6797   -5.6309  -14.4636 O   0  0  0  0  0  0  0  0  0  0  0  0
  2  8  1  0
  2  1  1  1
  3  2  1  0
  4  3  1  0
  5  4  1  0
  6  5  1  0
  7  6  1  0
  8  9  2  0
 10 11  1  0
 10  8  1  0
 12 13  1  0
 11 12  1  6
 13 14  2  0
 15 14  1  0
 16 15  1  0
 17 16  2  0
 17 13  1  0
 18 11  1  0
 18 19  2  0
 20 21  1  0
 21 22  1  0
 22 24  1  0
 22 23  1  6
 24 25  1  1
 24 26  1  0
 25 18  1  0
 26 27  2  0
 26 28  1  0
M  END
$$$$
