KHI.pdb
     RDKit          3D

 28 28  0  0  1  0  0  0  0  0999 V2000
   21.9740  -16.3178  -19.0603 N   0  0  0  0  0  0  0  0  0  0  0  0
   21.4070  -15.0234  -19.3705 C   0  0  1  0  0  0  0  0  0  0  0  0
   19.9142  -15.1086  -19.2564 C   0  0  0  0  0  0  0  0  0  0  0  0
   19.3784  -16.0502  -20.2897 C   0  0  0  0  0  0  0  0  0  0  0  0
   17.8803  -16.0184  -20.2968 C   0  0  0  0  0  0  0  0  0  0  0  0
   17.3401  -16.9175  -21.3664 C   0  0  0  0  0  0  0  0  0  0  0  0
   15.8935  -16.9465  -21.2209 N   0  0  0  0  0  0  0  0  0  0  0  0
   21.8494  -14.0213  -18.3221 C   0  0  0  0  0  0  0  0  0  0  0  0
   21.2397  -14.1124  -17.2396 O   0  0  0  0  0  0  0  0  0  0  0  0
   22.8546  -13.1035  -18.5995 N   0  0  0  0  0  0  0  0  0  0  0  0
   23.3410  -12.1048  -17.7191 C   0  0  1  0  0  0  0  0  0  0  0  0
   24.8135  -11.8766  -17.9276 C   0  0  0  0  0  0  0  0  0  0  0  0
   25.3013  -10.9414  -16.8746 C   0  0  0  0  0  0  0  0  0  0  0  0
   25.8738  -11.3239  -15.6987 C   0  0  0  0  0  0  0  0  0  0  0  0
   26.2037  -10.2273  -14.9688 N   0  0  0  0  0  0  0  0  0  0  0  0
   25.8348   -9.1675  -15.6943 C   0  0  0  0  0  0  0  0  0  0  0  0
   25.2853   -9.6007  -16.8550 N   0  0  0  0  0  0  0  0  0  0  0  0
   22.5519  -10.8500  -17.6430 C   0  0  0  0  0  0  0  0  0  0  0  0
   22.1695  -10.1316  -18.5659 O   0  0  0  0  0  0  0  0  0  0  0  0
   17.8181   -8.2357  -15.5430 C   0  0  0  0  0  0  0  0  0  0  0  0
   19.3133   -8.0487  -15.6662 C   0  0  0  0  0  0  0  0  0  0  0  0
   20.0675   -9.3391  -15.7802 C   0  0  2  0  0  0  0  0  0  0  0  0
   19.8256  -10.1847  -14.5481 C   0  0  0  0  0  0  0  0  0  0  0  0
   21.5334   -9.1558  -16.0606 C   0  0  2  0  0  0  0  0  0  0  0  0
   22.1856  -10.4174  -16.3214 N   0  0  0  0  0  0  0  0  0  0  0  0
   22.2337   -8.2772  -15.1354 C   0  0  0  0  0  0  0  0  0  0  0  0
   23.0137   -8.7654  -14.2898 O   0  0  0  0  0  0  0  0  0  0  0  0
   22.0733   -6.9053  -15.1477 O   0  0  0  0  0  0  0  0  0  0  0  0
  2  8  1  0
  2  1  1  1
  3  2  1  0
  4  3  1  0
  5  4  1  0
  6  5  1  0
  7  6  1  0
  8  9  2  0
 10 11  1  0
 10  8  1  0
 12 13  1  0
 11 12  1  6
 13 14  2  0
 15 14  1  0
 16 15  1  0
 17 16  2  0
 17 13  1  0
 18 11  1  0
 18 19  2  0
 20 21  1  0
 21 22  1  0
 22 24  1  0
 22 23  1  1
 24 25  1  1
 24 26  1  0
 25 18  1  0
 26 27  2  0
 26 28  1  0
M  END
$$$$
