KHI.pdb
     RDKit          3D

 28 28  0  0  1  0  0  0  0  0999 V2000
   22.8932  -16.0660  -19.2397 N   0  0  0  0  0  0  0  0  0  0  0  0
   21.7088  -15.2682  -19.0075 C   0  0  1  0  0  0  0  0  0  0  0  0
   20.9985  -15.7966  -17.7972 C   0  0  0  0  0  0  0  0  0  0  0  0
   20.3478  -17.1056  -18.1208 C   0  0  0  0  0  0  0  0  0  0  0  0
   20.9138  -18.1951  -17.2618 C   0  0  0  0  0  0  0  0  0  0  0  0
   20.3104  -19.5176  -17.6241 C   0  0  0  0  0  0  0  0  0  0  0  0
   20.8555  -20.5094  -16.7110 N   0  0  0  0  0  0  0  0  0  0  0  0
   22.1224  -13.8506  -18.6633 C   0  0  0  0  0  0  0  0  0  0  0  0
   23.2452  -13.7615  -18.1312 O   0  0  0  0  0  0  0  0  0  0  0  0
   21.2814  -12.7804  -18.9413 N   0  0  0  0  0  0  0  0  0  0  0  0
   21.5470  -11.4154  -18.6669 C   0  0  1  0  0  0  0  0  0  0  0  0
   20.4964  -10.5304  -19.2810 C   0  0  0  0  0  0  0  0  0  0  0  0
   20.9644   -9.1173  -19.2050 C   0  0  0  0  0  0  0  0  0  0  0  0
   22.1533   -8.7190  -18.6715 C   0  0  0  0  0  0  0  0  0  0  0  0
   22.2686   -7.3689  -18.7601 N   0  0  0  0  0  0  0  0  0  0  0  0
   21.1506   -6.9336  -19.3484 C   0  0  0  0  0  0  0  0  0  0  0  0
   20.3555   -7.9971  -19.6200 N   0  0  0  0  0  0  0  0  0  0  0  0
   21.8593  -11.0736  -17.2568 C   0  0  0  0  0  0  0  0  0  0  0  0
   21.2907  -11.4560  -16.2347 O   0  0  0  0  0  0  0  0  0  0  0  0
   26.5624  -11.9224  -15.4559 C   0  0  0  0  0  0  0  0  0  0  0  0
   25.1082  -11.5640  -15.6624 C   0  0  0  0  0  0  0  0  0  0  0  0
   24.8219  -10.1047  -15.4750 C   0  0  2  0  0  0  0  0  0  0  0  0
   25.2664   -9.6683  -14.0953 C   0  0  0  0  0  0  0  0  0  0  0  0
   23.3916   -9.7323  -15.7518 C   0  0  2  0  0  0  0  0  0  0  0  0
   22.9695  -10.1815  -17.0576 N   0  0  0  0  0  0  0  0  0  0  0  0
   23.0372   -8.3588  -15.4258 C   0  0  0  0  0  0  0  0  0  0  0  0
   22.5846   -8.0896  -14.2924 O   0  0  0  0  0  0  0  0  0  0  0  0
   23.1796   -7.3209  -16.3261 O   0  0  0  0  0  0  0  0  0  0  0  0
  2  8  1  0
  2  1  1  1
  3  2  1  0
  4  3  1  0
  5  4  1  0
  6  5  1  0
  7  6  1  0
  8  9  2  0
 10 11  1  0
 10  8  1  0
 12 13  1  0
 11 12  1  1
 13 14  2  0
 15 14  1  0
 16 15  1  0
 17 16  2  0
 17 13  1  0
 18 11  1  0
 18 19  2  0
 20 21  1  0
 21 22  1  0
 22 24  1  0
 22 23  1  1
 24 25  1  6
 24 26  1  0
 25 18  1  0
 26 27  2  0
 26 28  1  0
M  END
$$$$
