YQG.pdb
     RDKit          3D

 26 26  0  0  1  0  0  0  0  0999 V2000
   22.1820  -19.1760  -14.7683 O   0  0  0  0  0  0  0  0  0  0  0  0
   22.6560  -17.8648  -14.8063 C   0  0  0  0  0  0  0  0  0  0  0  0
   21.7200  -16.8490  -14.7937 C   0  0  0  0  0  0  0  0  0  0  0  0
   22.1112  -15.5165  -14.8294 C   0  0  0  0  0  0  0  0  0  0  0  0
   23.4501  -15.1947  -14.8780 C   0  0  0  0  0  0  0  0  0  0  0  0
   23.9501  -13.7926  -14.9183 C   0  0  0  0  0  0  0  0  0  0  0  0
   23.7313  -13.2912  -16.3159 C   0  0  2  0  0  0  0  0  0  0  0  0
   24.6885  -13.9594  -17.1724 N   0  0  0  0  0  0  0  0  0  0  0  0
   23.8383  -11.8546  -16.4810 C   0  0  0  0  0  0  0  0  0  0  0  0
   24.7950  -11.3943  -17.1511 O   0  0  0  0  0  0  0  0  0  0  0  0
   24.3681  -16.2229  -14.8898 C   0  0  0  0  0  0  0  0  0  0  0  0
   23.9981  -17.5551  -14.8548 C   0  0  0  0  0  0  0  0  0  0  0  0
   21.5081   -7.2751  -18.8625 N   0  0  0  0  0  0  0  0  0  0  0  0
   20.9431   -8.5690  -18.8652 C   0  0  0  0  0  0  0  0  0  0  0  0
   19.8255   -8.7791  -19.3979 O   0  0  0  0  0  0  0  0  0  0  0  0
   21.6626   -9.6956  -18.2391 C   0  0  0  0  0  0  0  0  0  0  0  0
   23.0187   -9.2493  -17.7306 C   0  0  0  0  0  0  0  0  0  0  0  0
   23.0401   -9.4935  -16.2396 C   0  0  2  0  0  0  0  0  0  0  0  0
   22.9297  -10.9030  -15.9350 N   0  0  0  0  0  0  0  0  0  0  0  0
   22.0006   -8.7069  -15.5258 C   0  0  0  0  0  0  0  0  0  0  0  0
   20.8024   -9.1196  -15.4793 O   0  0  0  0  0  0  0  0  0  0  0  0
   22.3225   -7.4832  -14.8837 N   0  0  0  0  0  0  0  0  0  0  0  0
   21.2899   -6.7278  -14.2086 C   0  0  0  0  0  0  0  0  0  0  0  0
   20.7110   -5.7149  -15.1181 C   0  0  0  0  0  0  0  0  0  0  0  0
   21.1200   -5.6078  -16.3022 O   0  0  0  0  0  0  0  0  0  0  0  0
   19.6973   -4.8746  -14.6385 O   0  0  0  0  0  0  0  0  0  0  0  0
  2  3  2  0
  2  1  1  0
  4  3  1  0
  5  4  2  0
  6  5  1  0
  7  6  1  0
  7  9  1  0
  7  8  1  6
  9 19  1  0
  9 10  2  0
 11  5  1  0
 11 12  2  0
 12  2  1  0
 14 15  2  0
 14 13  1  0
 16 14  1  0
 17 16  1  0
 18 17  1  6
 19 18  1  0
 20 18  1  0
 20 21  2  0
 22 20  1  0
 23 22  1  0
 24 23  1  0
 25 24  2  0
 26 24  1  0
M  END
$$$$
