YQG.pdb
     RDKit          3D

 26 26  0  0  1  0  0  0  0  0999 V2000
   27.0028  -25.3188  -16.8986 O   0  0  0  0  0  0  0  0  0  0  0  0
   25.6708  -25.0607  -16.5753 C   0  0  0  0  0  0  0  0  0  0  0  0
   25.4219  -24.3751  -15.4022 C   0  0  0  0  0  0  0  0  0  0  0  0
   24.1227  -24.0791  -15.0095 C   0  0  0  0  0  0  0  0  0  0  0  0
   23.0612  -24.4714  -15.7956 C   0  0  0  0  0  0  0  0  0  0  0  0
   21.6410  -24.1928  -15.4449 C   0  0  0  0  0  0  0  0  0  0  0  0
   21.2852  -25.1052  -14.3076 C   0  0  2  0  0  0  0  0  0  0  0  0
   21.2431  -26.4549  -14.8298 N   0  0  0  0  0  0  0  0  0  0  0  0
   20.0388  -24.7964  -13.6341 C   0  0  0  0  0  0  0  0  0  0  0  0
   18.9597  -24.9807  -14.2485 O   0  0  0  0  0  0  0  0  0  0  0  0
   23.3308  -25.1543  -16.9622 C   0  0  0  0  0  0  0  0  0  0  0  0
   24.6170  -25.4581  -17.3697 C   0  0  0  0  0  0  0  0  0  0  0  0
   18.8340  -25.0630   -7.6101 N   0  0  0  0  0  0  0  0  0  0  0  0
   18.8817  -26.0884   -8.5795 C   0  0  0  0  0  0  0  0  0  0  0  0
   18.9684  -27.2927   -8.2347 O   0  0  0  0  0  0  0  0  0  0  0  0
   18.8301  -25.7554  -10.0167 C   0  0  0  0  0  0  0  0  0  0  0  0
   18.6724  -24.2613  -10.2155 C   0  0  0  0  0  0  0  0  0  0  0  0
   18.6506  -24.0079  -11.7050 C   0  0  2  0  0  0  0  0  0  0  0  0
   19.9350  -24.2908  -12.3063 N   0  0  0  0  0  0  0  0  0  0  0  0
   18.1945  -22.6324  -12.0348 C   0  0  0  0  0  0  0  0  0  0  0  0
   19.0348  -21.6916  -12.1658 O   0  0  0  0  0  0  0  0  0  0  0  0
   16.8169  -22.3413  -12.2099 N   0  0  0  0  0  0  0  0  0  0  0  0
   16.3932  -20.9842  -12.4770 C   0  0  0  0  0  0  0  0  0  0  0  0
   15.8433  -20.8734  -13.8458 C   0  0  0  0  0  0  0  0  0  0  0  0
   15.9296  -21.8349  -14.6514 O   0  0  0  0  0  0  0  0  0  0  0  0
   15.2232  -19.6775  -14.2318 O   0  0  0  0  0  0  0  0  0  0  0  0
  2  3  2  0
  2  1  1  0
  4  3  1  0
  5  4  2  0
  6  5  1  0
  7  6  1  0
  7  9  1  0
  7  8  1  6
  9 19  1  0
  9 10  2  0
 11  5  1  0
 11 12  2  0
 12  2  1  0
 14 15  2  0
 14 13  1  0
 16 14  1  0
 17 16  1  0
 18 17  1  1
 19 18  1  0
 20 18  1  0
 20 21  2  0
 22 20  1  0
 23 22  1  0
 24 23  1  0
 25 24  2  0
 26 24  1  0
M  END
$$$$
