YQG.pdb
     RDKit          3D

 26 26  0  0  1  0  0  0  0  0999 V2000
   23.8660  -14.0698  -21.4439 O   0  0  0  0  0  0  0  0  0  0  0  0
   23.4000  -15.0975  -20.6241 C   0  0  0  0  0  0  0  0  0  0  0  0
   22.4827  -14.7653  -19.6462 C   0  0  0  0  0  0  0  0  0  0  0  0
   21.9705  -15.7313  -18.7893 C   0  0  0  0  0  0  0  0  0  0  0  0
   22.3780  -17.0420  -18.9096 C   0  0  0  0  0  0  0  0  0  0  0  0
   21.8767  -18.1350  -18.0311 C   0  0  0  0  0  0  0  0  0  0  0  0
   22.3590  -17.8344  -16.6420 C   0  0  2  0  0  0  0  0  0  0  0  0
   23.8062  -17.8651  -16.6680 N   0  0  0  0  0  0  0  0  0  0  0  0
   21.8638  -18.7241  -15.6098 C   0  0  0  0  0  0  0  0  0  0  0  0
   22.6845  -19.4434  -14.9891 O   0  0  0  0  0  0  0  0  0  0  0  0
   23.2940  -17.3528  -19.8917 C   0  0  0  0  0  0  0  0  0  0  0  0
   23.8151  -16.4054  -20.7540 C   0  0  0  0  0  0  0  0  0  0  0  0
   20.8466  -19.5911  -10.1398 N   0  0  0  0  0  0  0  0  0  0  0  0
   21.6847  -20.4250  -10.9116 C   0  0  0  0  0  0  0  0  0  0  0  0
   22.4007  -21.2985  -10.3627 O   0  0  0  0  0  0  0  0  0  0  0  0
   21.7296  -20.2793  -12.3798 C   0  0  0  0  0  0  0  0  0  0  0  0
   20.8425  -19.1370  -12.8326 C   0  0  0  0  0  0  0  0  0  0  0  0
   20.1025  -19.6060  -14.0637 C   0  0  2  0  0  0  0  0  0  0  0  0
   20.4958  -18.8524  -15.2337 N   0  0  0  0  0  0  0  0  0  0  0  0
   18.6281  -19.5789  -13.8781 C   0  0  0  0  0  0  0  0  0  0  0  0
   18.0016  -18.4764  -13.8758 O   0  0  0  0  0  0  0  0  0  0  0  0
   17.8917  -20.7786  -13.7003 N   0  0  0  0  0  0  0  0  0  0  0  0
   16.4751  -20.7211  -13.4127 C   0  0  0  0  0  0  0  0  0  0  0  0
   15.6962  -20.6172  -14.6661 C   0  0  0  0  0  0  0  0  0  0  0  0
   16.2779  -20.5153  -15.7761 O   0  0  0  0  0  0  0  0  0  0  0  0
   14.2967  -20.6341  -14.5971 O   0  0  0  0  0  0  0  0  0  0  0  0
  2  3  2  0
  2  1  1  0
  4  3  1  0
  5  4  2  0
  6  5  1  0
  7  6  1  0
  7  9  1  0
  7  8  1  6
  9 19  1  0
  9 10  2  0
 11  5  1  0
 11 12  2  0
 12  2  1  0
 14 15  2  0
 14 13  1  0
 16 14  1  0
 17 16  1  0
 18 17  1  1
 19 18  1  0
 20 18  1  0
 20 21  2  0
 22 20  1  0
 23 22  1  0
 24 23  1  0
 25 24  2  0
 26 24  1  0
M  END
$$$$
