YQG.pdb
     RDKit          3D

 26 26  0  0  1  0  0  0  0  0999 V2000
   28.2865  -19.8458   -6.1407 O   0  0  0  0  0  0  0  0  0  0  0  0
   27.8647  -19.8934   -7.4693 C   0  0  0  0  0  0  0  0  0  0  0  0
   28.7957  -20.2651   -8.4197 C   0  0  0  0  0  0  0  0  0  0  0  0
   28.4545  -20.3368   -9.7644 C   0  0  0  0  0  0  0  0  0  0  0  0
   27.1712  -20.0345  -10.1645 C   0  0  0  0  0  0  0  0  0  0  0  0
   26.7269  -20.0873  -11.5849 C   0  0  0  0  0  0  0  0  0  0  0  0
   25.7929  -21.2558  -11.7069 C   0  0  2  0  0  0  0  0  0  0  0  0
   26.6003  -22.4573  -11.7302 N   0  0  0  0  0  0  0  0  0  0  0  0
   24.9149  -21.2274  -12.8605 C   0  0  0  0  0  0  0  0  0  0  0  0
   25.3188  -21.7291  -13.9381 O   0  0  0  0  0  0  0  0  0  0  0  0
   26.2572  -19.6658   -9.2008 C   0  0  0  0  0  0  0  0  0  0  0  0
   26.5779  -19.5887   -7.8577 C   0  0  0  0  0  0  0  0  0  0  0  0
   20.4911  -23.2057  -12.1750 N   0  0  0  0  0  0  0  0  0  0  0  0
   20.2127  -21.8484  -11.9038 C   0  0  0  0  0  0  0  0  0  0  0  0
   19.4825  -21.5252  -10.9347 O   0  0  0  0  0  0  0  0  0  0  0  0
   20.7793  -20.7879  -12.7603 C   0  0  0  0  0  0  0  0  0  0  0  0
   21.5271  -21.3887  -13.9334 C   0  0  0  0  0  0  0  0  0  0  0  0
   22.8174  -20.6168  -14.0844 C   0  0  2  0  0  0  0  0  0  0  0  0
   23.6055  -20.6663  -12.8728 N   0  0  0  0  0  0  0  0  0  0  0  0
   22.5862  -19.2141  -14.5177 C   0  0  0  0  0  0  0  0  0  0  0  0
   22.6701  -18.2625  -13.6838 O   0  0  0  0  0  0  0  0  0  0  0  0
   22.2680  -18.9088  -15.8664 N   0  0  0  0  0  0  0  0  0  0  0  0
   22.0001  -17.5410  -16.2538 C   0  0  0  0  0  0  0  0  0  0  0  0
   22.8675  -17.1438  -17.3844 C   0  0  0  0  0  0  0  0  0  0  0  0
   22.7589  -16.0054  -17.9069 O   0  0  0  0  0  0  0  0  0  0  0  0
   23.8144  -18.0581  -17.8652 O   0  0  0  0  0  0  0  0  0  0  0  0
  2  3  2  0
  2  1  1  0
  4  3  1  0
  5  4  2  0
  6  5  1  0
  7  6  1  0
  7  9  1  0
  7  8  1  6
  9 19  1  0
  9 10  2  0
 11  5  1  0
 11 12  2  0
 12  2  1  0
 14 15  2  0
 14 13  1  0
 16 14  1  0
 17 16  1  0
 18 17  1  1
 19 18  1  0
 20 18  1  0
 20 21  2  0
 22 20  1  0
 23 22  1  0
 24 23  1  0
 25 24  2  0
 26 24  1  0
M  END
$$$$
