YQG.pdb
     RDKit          3D

 26 26  0  0  1  0  0  0  0  0999 V2000
   28.6895  -20.5828   -3.7136 O   0  0  0  0  0  0  0  0  0  0  0  0
   28.3609  -20.2826   -5.0354 C   0  0  0  0  0  0  0  0  0  0  0  0
   29.2827  -19.5659   -5.7734 C   0  0  0  0  0  0  0  0  0  0  0  0
   29.0305  -19.2272   -7.0969 C   0  0  0  0  0  0  0  0  0  0  0  0
   27.8462  -19.6077   -7.6896 C   0  0  0  0  0  0  0  0  0  0  0  0
   27.5011  -19.2842   -9.1017 C   0  0  0  0  0  0  0  0  0  0  0  0
   27.1135  -20.5746   -9.7629 C   0  0  2  0  0  0  0  0  0  0  0  0
   28.3209  -21.3546   -9.9355 N   0  0  0  0  0  0  0  0  0  0  0  0
   26.4279  -20.4367  -11.0331 C   0  0  0  0  0  0  0  0  0  0  0  0
   26.8924  -19.6408  -11.8857 O   0  0  0  0  0  0  0  0  0  0  0  0
   26.9398  -20.3223   -6.9362 C   0  0  0  0  0  0  0  0  0  0  0  0
   27.1728  -20.6687   -5.6177 C   0  0  0  0  0  0  0  0  0  0  0  0
   26.6065  -22.6874  -15.6282 N   0  0  0  0  0  0  0  0  0  0  0  0
   25.3325  -22.1904  -15.9796 C   0  0  0  0  0  0  0  0  0  0  0  0
   25.0439  -21.9581  -17.1794 O   0  0  0  0  0  0  0  0  0  0  0  0
   24.3199  -21.9368  -14.9359 C   0  0  0  0  0  0  0  0  0  0  0  0
   24.8838  -22.2279  -13.5598 C   0  0  0  0  0  0  0  0  0  0  0  0
   24.6582  -20.9962  -12.7139 C   0  0  2  0  0  0  0  0  0  0  0  0
   25.2472  -21.1435  -11.4013 N   0  0  0  0  0  0  0  0  0  0  0  0
   23.2197  -20.6346  -12.6196 C   0  0  0  0  0  0  0  0  0  0  0  0
   22.5980  -20.2039  -13.6375 O   0  0  0  0  0  0  0  0  0  0  0  0
   22.5128  -20.7618  -11.3959 N   0  0  0  0  0  0  0  0  0  0  0  0
   21.1037  -20.4395  -11.3385 C   0  0  0  0  0  0  0  0  0  0  0  0
   20.2937  -21.5660  -11.8517 C   0  0  0  0  0  0  0  0  0  0  0  0
   20.8475  -22.5924  -12.3213 O   0  0  0  0  0  0  0  0  0  0  0  0
   18.8963  -21.4712  -11.8061 O   0  0  0  0  0  0  0  0  0  0  0  0
  2  3  2  0
  2  1  1  0
  4  3  1  0
  5  4  2  0
  6  5  1  0
  7  6  1  0
  7  9  1  0
  7  8  1  6
  9 19  1  0
  9 10  2  0
 11  5  1  0
 11 12  2  0
 12  2  1  0
 14 15  2  0
 14 13  1  0
 16 14  1  0
 17 16  1  0
 18 17  1  1
 19 18  1  0
 20 18  1  0
 20 21  2  0
 22 20  1  0
 23 22  1  0
 24 23  1  0
 25 24  2  0
 26 24  1  0
M  END
$$$$
