CWT.pdb
     RDKit          3D

 28 29  0  0  1  0  0  0  0  0999 V2000
   28.2061  -21.6221  -15.3612 N   0  0  0  0  0  0  0  0  0  0  0  0
   28.2898  -20.5998  -14.3273 C   0  0  1  0  0  0  0  0  0  0  0  0
   27.8201  -19.2957  -14.9696 C   0  0  0  0  0  0  0  0  0  0  0  0
   29.1283  -18.5480  -15.9717 S   0  0  0  0  0  0  0  0  0  0  0  0
   27.4331  -21.0131  -13.1947 C   0  0  0  0  0  0  0  0  0  0  0  0
   26.3642  -21.6094  -13.4219 O   0  0  0  0  0  0  0  0  0  0  0  0
   27.8497  -20.7203  -11.8837 N   0  0  0  0  0  0  0  0  0  0  0  0
   27.0310  -20.8973  -10.7236 C   0  0  1  0  0  0  0  0  0  0  0  0
   27.8421  -20.7977   -9.4869 C   0  0  0  0  0  0  0  0  0  0  0  0
   27.1011  -20.7138   -8.2262 C   0  0  0  0  0  0  0  0  0  0  0  0
   25.7509  -21.0249   -8.0161 C   0  0  0  0  0  0  0  0  0  0  0  0
   25.4405  -20.7486   -6.7407 N   0  0  0  0  0  0  0  0  0  0  0  0
   26.5339  -20.2686   -6.1048 C   0  0  0  0  0  0  0  0  0  0  0  0
   26.7458  -19.8830   -4.7946 C   0  0  0  0  0  0  0  0  0  0  0  0
   28.0032  -19.4608   -4.3562 C   0  0  0  0  0  0  0  0  0  0  0  0
   29.0408  -19.4355   -5.2686 C   0  0  0  0  0  0  0  0  0  0  0  0
   28.7954  -19.8218   -6.5560 C   0  0  0  0  0  0  0  0  0  0  0  0
   27.5655  -20.2457   -7.0268 C   0  0  0  0  0  0  0  0  0  0  0  0
   25.7436  -20.2184  -10.8050 C   0  0  0  0  0  0  0  0  0  0  0  0
   25.6683  -18.9421  -10.7305 O   0  0  0  0  0  0  0  0  0  0  0  0
   23.0122  -22.0399  -13.0613 C   0  0  0  0  0  0  0  0  0  0  0  0
   23.0734  -20.5497  -12.8574 C   0  0  1  0  0  0  0  0  0  0  0  0
   21.8618  -19.9863  -13.3244 O   0  0  0  0  0  0  0  0  0  0  0  0
   23.2997  -20.1899  -11.4292 C   0  0  2  0  0  0  0  0  0  0  0  0
   24.5062  -20.9068  -10.9562 N   0  0  0  0  0  0  0  0  0  0  0  0
   22.1453  -20.7396  -10.6239 C   0  0  0  0  0  0  0  0  0  0  0  0
   22.3403  -21.6806   -9.8647 O   0  0  0  0  0  0  0  0  0  0  0  0
   20.9186  -20.1518  -10.7831 O   0  0  0  0  0  0  0  0  0  0  0  0
  2  1  1  6
  2  3  1  0
  4  3  1  0
  5  2  1  0
  5  6  2  0
  7  5  1  0
  8  7  1  0
  8  9  1  1
 10  9  1  0
 10 18  1  0
 11 12  1  0
 11 10  2  0
 12 13  1  0
 13 18  2  0
 13 14  1  0
 14 15  2  0
 15 16  1  0
 17 16  2  0
 18 17  1  0
 19  8  1  0
 19 20  2  0
 22 21  1  1
 23 22  1  0
 24 25  1  1
 24 22  1  0
 25 19  1  0
 26 24  1  0
 27 26  2  0
 28 26  1  0
M  END
$$$$
