CWT.pdb
     RDKit          3D

 28 29  0  0  1  0  0  0  0  0999 V2000
   17.4273  -12.0877  -15.0350 N   0  0  0  0  0  0  0  0  0  0  0  0
   17.2002  -10.7102  -15.4498 C   0  0  1  0  0  0  0  0  0  0  0  0
   16.2340  -10.1061  -14.4323 C   0  0  0  0  0  0  0  0  0  0  0  0
   14.5762  -10.8117  -14.6006 S   0  0  0  0  0  0  0  0  0  0  0  0
   18.5037  -10.0118  -15.4758 C   0  0  0  0  0  0  0  0  0  0  0  0
   19.4091  -10.3772  -14.7035 O   0  0  0  0  0  0  0  0  0  0  0  0
   18.6880   -8.9475  -16.3766 N   0  0  0  0  0  0  0  0  0  0  0  0
   19.9318   -8.2674  -16.5709 C   0  0  1  0  0  0  0  0  0  0  0  0
   20.3696   -8.3644  -17.9837 C   0  0  0  0  0  0  0  0  0  0  0  0
   20.6078   -9.7138  -18.5012 C   0  0  0  0  0  0  0  0  0  0  0  0
   21.7470  -10.5063  -18.3054 C   0  0  0  0  0  0  0  0  0  0  0  0
   21.6026  -11.6443  -19.0006 N   0  0  0  0  0  0  0  0  0  0  0  0
   20.4132  -11.6306  -19.6451 C   0  0  0  0  0  0  0  0  0  0  0  0
   19.7848  -12.5665  -20.4448 C   0  0  0  0  0  0  0  0  0  0  0  0
   18.5088  -12.3375  -20.9652 C   0  0  0  0  0  0  0  0  0  0  0  0
   17.8819  -11.1439  -20.6619 C   0  0  0  0  0  0  0  0  0  0  0  0
   18.5330  -10.2407  -19.8698 C   0  0  0  0  0  0  0  0  0  0  0  0
   19.7950  -10.4317  -19.3363 C   0  0  0  0  0  0  0  0  0  0  0  0
   20.0194   -6.9929  -15.8687 C   0  0  0  0  0  0  0  0  0  0  0  0
   19.3686   -5.9699  -16.2811 O   0  0  0  0  0  0  0  0  0  0  0  0
   19.9398   -6.2456  -11.8742 C   0  0  0  0  0  0  0  0  0  0  0  0
   21.1383   -5.6887  -12.5951 C   0  0  1  0  0  0  0  0  0  0  0  0
   22.2188   -6.5866  -12.4220 O   0  0  0  0  0  0  0  0  0  0  0  0
   20.8675   -5.4714  -14.0442 C   0  0  2  0  0  0  0  0  0  0  0  0
   20.8239   -6.7932  -14.7108 N   0  0  0  0  0  0  0  0  0  0  0  0
   22.0542   -4.7455  -14.6342 C   0  0  0  0  0  0  0  0  0  0  0  0
   22.7363   -5.3060  -15.4831 O   0  0  0  0  0  0  0  0  0  0  0  0
   22.3149   -3.4781  -14.1856 O   0  0  0  0  0  0  0  0  0  0  0  0
  2  1  1  1
  2  3  1  0
  4  3  1  0
  5  2  1  0
  5  6  2  0
  7  5  1  0
  8  7  1  0
  8  9  1  6
 10  9  1  0
 10 18  1  0
 11 12  1  0
 11 10  2  0
 12 13  1  0
 13 18  2  0
 13 14  1  0
 14 15  2  0
 15 16  1  0
 17 16  2  0
 18 17  1  0
 19  8  1  0
 19 20  2  0
 22 21  1  1
 23 22  1  0
 24 25  1  6
 24 22  1  0
 25 19  1  0
 26 24  1  0
 27 26  2  0
 28 26  1  0
M  END
$$$$
