CWT.pdb
     RDKit          3D

 28 29  0  0  1  0  0  0  0  0999 V2000
   16.7050  -18.9331    3.2668 N   0  0  0  0  0  0  0  0  0  0  0  0
   16.5353  -18.9940    4.7120 C   0  0  1  0  0  0  0  0  0  0  0  0
   16.6513  -20.4672    5.0992 C   0  0  0  0  0  0  0  0  0  0  0  0
   15.0670  -21.3220    4.9156 S   0  0  0  0  0  0  0  0  0  0  0  0
   17.5839  -18.1602    5.3386 C   0  0  0  0  0  0  0  0  0  0  0  0
   18.6972  -18.0629    4.7901 O   0  0  0  0  0  0  0  0  0  0  0  0
   17.2953  -17.4954    6.5439 N   0  0  0  0  0  0  0  0  0  0  0  0
   18.2283  -16.6701    7.2480 C   0  0  1  0  0  0  0  0  0  0  0  0
   17.6121  -15.3721    7.6125 C   0  0  0  0  0  0  0  0  0  0  0  0
   17.8425  -14.2589    6.6889 C   0  0  0  0  0  0  0  0  0  0  0  0
   17.0202  -13.8554    5.6282 C   0  0  0  0  0  0  0  0  0  0  0  0
   17.6179  -12.8422    4.9835 N   0  0  0  0  0  0  0  0  0  0  0  0
   18.8004  -12.5643    5.5791 C   0  0  0  0  0  0  0  0  0  0  0  0
   19.7576  -11.5997    5.3272 C   0  0  0  0  0  0  0  0  0  0  0  0
   20.8945  -11.4779    6.1298 C   0  0  0  0  0  0  0  0  0  0  0  0
   21.0443  -12.3507    7.1907 C   0  0  0  0  0  0  0  0  0  0  0  0
   20.0794  -13.2930    7.4096 C   0  0  0  0  0  0  0  0  0  0  0  0
   18.9412  -13.4442    6.6378 C   0  0  0  0  0  0  0  0  0  0  0  0
   19.0300  -17.3943    8.2267 C   0  0  0  0  0  0  0  0  0  0  0  0
   18.5656  -18.4308    8.8183 O   0  0  0  0  0  0  0  0  0  0  0  0
   23.3544  -18.0020   10.6323 C   0  0  0  0  0  0  0  0  0  0  0  0
   22.5356  -17.3900    9.5273 C   0  0  1  0  0  0  0  0  0  0  0  0
   23.0752  -17.8104    8.2881 O   0  0  0  0  0  0  0  0  0  0  0  0
   21.0969  -17.7658    9.6242 C   0  0  2  0  0  0  0  0  0  0  0  0
   20.3490  -17.0054    8.5967 N   0  0  0  0  0  0  0  0  0  0  0  0
   20.5800  -17.2826   10.9594 C   0  0  0  0  0  0  0  0  0  0  0  0
   20.7569  -17.9739   11.9547 O   0  0  0  0  0  0  0  0  0  0  0  0
   19.9290  -16.0782   10.9940 O   0  0  0  0  0  0  0  0  0  0  0  0
  2  1  1  6
  2  3  1  0
  4  3  1  0
  5  2  1  0
  5  6  2  0
  7  5  1  0
  8  7  1  0
  8  9  1  1
 10  9  1  0
 10 18  1  0
 11 12  1  0
 11 10  2  0
 12 13  1  0
 13 18  2  0
 13 14  1  0
 14 15  2  0
 15 16  1  0
 17 16  2  0
 18 17  1  0
 19  8  1  0
 19 20  2  0
 22 21  1  1
 23 22  1  0
 24 25  1  6
 24 22  1  0
 25 19  1  0
 26 24  1  0
 27 26  2  0
 28 26  1  0
M  END
$$$$
