CWT.pdb
     RDKit          3D

 28 29  0  0  1  0  0  0  0  0999 V2000
   21.7528  -20.3680  -10.1266 N   0  0  0  0  0  0  0  0  0  0  0  0
   22.6387  -21.3150  -10.7895 C   0  0  1  0  0  0  0  0  0  0  0  0
   21.9505  -21.7100  -12.0949 C   0  0  0  0  0  0  0  0  0  0  0  0
   20.9258  -23.1855  -11.8775 S   0  0  0  0  0  0  0  0  0  0  0  0
   23.9418  -20.6526  -11.0150 C   0  0  0  0  0  0  0  0  0  0  0  0
   23.9680  -19.4753  -11.4187 O   0  0  0  0  0  0  0  0  0  0  0  0
   25.1238  -21.3732  -10.7666 N   0  0  0  0  0  0  0  0  0  0  0  0
   26.4377  -20.8792  -11.0440 C   0  0  1  0  0  0  0  0  0  0  0  0
   27.3723  -21.2242   -9.9465 C   0  0  0  0  0  0  0  0  0  0  0  0
   27.2253  -20.4655   -8.7022 C   0  0  0  0  0  0  0  0  0  0  0  0
   26.1920  -19.5794   -8.3686 C   0  0  0  0  0  0  0  0  0  0  0  0
   26.4614  -19.0377   -7.1713 N   0  0  0  0  0  0  0  0  0  0  0  0
   27.6308  -19.5334   -6.7054 C   0  0  0  0  0  0  0  0  0  0  0  0
   28.3145  -19.3295   -5.5217 C   0  0  0  0  0  0  0  0  0  0  0  0
   29.5029  -20.0090   -5.2432 C   0  0  0  0  0  0  0  0  0  0  0  0
   29.9860  -20.8973   -6.1850 C   0  0  0  0  0  0  0  0  0  0  0  0
   29.2854  -21.0732   -7.3449 C   0  0  0  0  0  0  0  0  0  0  0  0
   28.1065  -20.4196   -7.6559 C   0  0  0  0  0  0  0  0  0  0  0  0
   26.8495  -21.0544  -12.4314 C   0  0  0  0  0  0  0  0  0  0  0  0
   26.7948  -22.2043  -12.9924 O   0  0  0  0  0  0  0  0  0  0  0  0
   28.2366  -18.9985  -16.7583 C   0  0  0  0  0  0  0  0  0  0  0  0
   27.9952  -18.8862  -15.2767 C   0  0  1  0  0  0  0  0  0  0  0  0
   27.1512  -17.7735  -15.0462 O   0  0  0  0  0  0  0  0  0  0  0  0
   27.3895  -20.1259  -14.7138 C   0  0  2  0  0  0  0  0  0  0  0  0
   27.3422  -19.9906  -13.2398 N   0  0  0  0  0  0  0  0  0  0  0  0
   28.3316  -21.2727  -14.9975 C   0  0  0  0  0  0  0  0  0  0  0  0
   27.9993  -22.1347  -15.8016 O   0  0  0  0  0  0  0  0  0  0  0  0
   29.5288  -21.2948  -14.3328 O   0  0  0  0  0  0  0  0  0  0  0  0
  2  1  1  6
  2  3  1  0
  4  3  1  0
  5  2  1  0
  5  6  2  0
  7  5  1  0
  8  7  1  0
  8  9  1  1
 10  9  1  0
 10 18  1  0
 11 12  1  0
 11 10  2  0
 12 13  1  0
 13 18  2  0
 13 14  1  0
 14 15  2  0
 15 16  1  0
 17 16  2  0
 18 17  1  0
 19  8  1  0
 19 20  2  0
 22 21  1  6
 23 22  1  0
 24 25  1  1
 24 22  1  0
 25 19  1  0
 26 24  1  0
 27 26  2  0
 28 26  1  0
M  END
$$$$
