CWT.pdb
     RDKit          3D

 28 29  0  0  1  0  0  0  0  0999 V2000
   28.7430  -19.0703  -18.2981 N   0  0  0  0  0  0  0  0  0  0  0  0
   28.6943  -18.5237  -16.9491 C   0  0  1  0  0  0  0  0  0  0  0  0
   28.3109  -17.0520  -17.0925 C   0  0  0  0  0  0  0  0  0  0  0  0
   26.5699  -16.8677  -17.5501 S   0  0  0  0  0  0  0  0  0  0  0  0
   27.6998  -19.2941  -16.1711 C   0  0  0  0  0  0  0  0  0  0  0  0
   26.7648  -19.8618  -16.7654 O   0  0  0  0  0  0  0  0  0  0  0  0
   27.8364  -19.3658  -14.7732 N   0  0  0  0  0  0  0  0  0  0  0  0
   26.9043  -20.0227  -13.9089 C   0  0  1  0  0  0  0  0  0  0  0  0
   27.4865  -20.2207  -12.5602 C   0  0  0  0  0  0  0  0  0  0  0  0
   26.6359  -20.8928  -11.5752 C   0  0  0  0  0  0  0  0  0  0  0  0
   25.9262  -22.0891  -11.7460 C   0  0  0  0  0  0  0  0  0  0  0  0
   25.2152  -22.3287  -10.6340 N   0  0  0  0  0  0  0  0  0  0  0  0
   25.4303  -21.3368   -9.7395 C   0  0  0  0  0  0  0  0  0  0  0  0
   24.9734  -21.1406   -8.4499 C   0  0  0  0  0  0  0  0  0  0  0  0
   25.3851  -20.0410   -7.6931 C   0  0  0  0  0  0  0  0  0  0  0  0
   26.2664  -19.1440   -8.2662 C   0  0  0  0  0  0  0  0  0  0  0  0
   26.6963  -19.3680   -9.5437 C   0  0  0  0  0  0  0  0  0  0  0  0
   26.3117  -20.4441  -10.3234 C   0  0  0  0  0  0  0  0  0  0  0  0
   25.5359  -19.5392  -14.0459 C   0  0  0  0  0  0  0  0  0  0  0  0
   25.2865  -18.2850  -14.1166 O   0  0  0  0  0  0  0  0  0  0  0  0
   20.9027  -20.0872  -15.4317 C   0  0  0  0  0  0  0  0  0  0  0  0
   22.3688  -20.4248  -15.3819 C   0  0  1  0  0  0  0  0  0  0  0  0
   22.9764  -19.9464  -16.5674 O   0  0  0  0  0  0  0  0  0  0  0  0
   23.0355  -19.8435  -14.1827 C   0  0  2  0  0  0  0  0  0  0  0  0
   24.4044  -20.4023  -14.0969 N   0  0  0  0  0  0  0  0  0  0  0  0
   22.3040  -20.3416  -12.9580 C   0  0  0  0  0  0  0  0  0  0  0  0
   22.5494  -21.4624  -12.5295 O   0  0  0  0  0  0  0  0  0  0  0  0
   21.3882  -19.5053  -12.3770 O   0  0  0  0  0  0  0  0  0  0  0  0
  2  1  1  6
  2  3  1  0
  4  3  1  0
  5  2  1  0
  5  6  2  0
  7  5  1  0
  8  7  1  0
  8  9  1  1
 10  9  1  0
 10 18  1  0
 11 12  1  0
 11 10  2  0
 12 13  1  0
 13 18  2  0
 13 14  1  0
 14 15  2  0
 15 16  1  0
 17 16  2  0
 18 17  1  0
 19  8  1  0
 19 20  2  0
 22 21  1  6
 23 22  1  0
 24 25  1  1
 24 22  1  0
 25 19  1  0
 26 24  1  0
 27 26  2  0
 28 26  1  0
M  END
$$$$
