CWT.pdb
     RDKit          3D

 28 29  0  0  1  0  0  0  0  0999 V2000
   28.5155  -21.5797  -15.3141 N   0  0  0  0  0  0  0  0  0  0  0  0
   28.4658  -20.5149  -14.3218 C   0  0  1  0  0  0  0  0  0  0  0  0
   27.9285  -19.2787  -15.0407 C   0  0  0  0  0  0  0  0  0  0  0  0
   29.2319  -18.4462  -15.9802 S   0  0  0  0  0  0  0  0  0  0  0  0
   27.5874  -20.9518  -13.2149 C   0  0  0  0  0  0  0  0  0  0  0  0
   26.5020  -21.5026  -13.4761 O   0  0  0  0  0  0  0  0  0  0  0  0
   28.0028  -20.7328  -11.8892 N   0  0  0  0  0  0  0  0  0  0  0  0
   27.1554  -20.8894  -10.7469 C   0  0  1  0  0  0  0  0  0  0  0  0
   27.9264  -20.7196   -9.4924 C   0  0  0  0  0  0  0  0  0  0  0  0
   27.1546  -20.7216   -8.2475 C   0  0  0  0  0  0  0  0  0  0  0  0
   25.7976  -21.0362   -8.0937 C   0  0  0  0  0  0  0  0  0  0  0  0
   25.4571  -20.8508   -6.8095 N   0  0  0  0  0  0  0  0  0  0  0  0
   26.5372  -20.4270   -6.1138 C   0  0  0  0  0  0  0  0  0  0  0  0
   26.7186  -20.1392   -4.7742 C   0  0  0  0  0  0  0  0  0  0  0  0
   27.9672  -19.7600   -4.2756 C   0  0  0  0  0  0  0  0  0  0  0  0
   29.0275  -19.6769   -5.1580 C   0  0  0  0  0  0  0  0  0  0  0  0
   28.8120  -19.9667   -6.4757 C   0  0  0  0  0  0  0  0  0  0  0  0
   27.5917  -20.3455   -7.0061 C   0  0  0  0  0  0  0  0  0  0  0  0
   25.8524  -20.2517  -10.8912 C   0  0  0  0  0  0  0  0  0  0  0  0
   25.7473  -18.9763  -10.9399 O   0  0  0  0  0  0  0  0  0  0  0  0
   21.6356  -20.2903  -13.1463 C   0  0  0  0  0  0  0  0  0  0  0  0
   22.9745  -20.8244  -12.7125 C   0  0  1  0  0  0  0  0  0  0  0  0
   23.9333  -20.4710  -13.6920 O   0  0  0  0  0  0  0  0  0  0  0  0
   23.3775  -20.3031  -11.3760 C   0  0  2  0  0  0  0  0  0  0  0  0
   24.6316  -20.9802  -10.9734 N   0  0  0  0  0  0  0  0  0  0  0  0
   22.3308  -20.7341  -10.3750 C   0  0  0  0  0  0  0  0  0  0  0  0
   22.6053  -21.6072   -9.5612 O   0  0  0  0  0  0  0  0  0  0  0  0
   21.1077  -20.1200  -10.4258 O   0  0  0  0  0  0  0  0  0  0  0  0
  2  1  1  6
  2  3  1  0
  4  3  1  0
  5  2  1  0
  5  6  2  0
  7  5  1  0
  8  7  1  0
  8  9  1  1
 10  9  1  0
 10 18  1  0
 11 12  1  0
 11 10  2  0
 12 13  1  0
 13 18  2  0
 13 14  1  0
 14 15  2  0
 15 16  1  0
 17 16  2  0
 18 17  1  0
 19  8  1  0
 19 20  2  0
 22 21  1  6
 23 22  1  0
 24 25  1  1
 24 22  1  0
 25 19  1  0
 26 24  1  0
 27 26  2  0
 28 26  1  0
M  END
$$$$
