CWT.pdb
     RDKit          3D

 28 29  0  0  1  0  0  0  0  0999 V2000
   24.1347  -21.5330   -8.5656 N   0  0  0  0  0  0  0  0  0  0  0  0
   24.7453  -20.5088   -9.4019 C   0  0  1  0  0  0  0  0  0  0  0  0
   26.2137  -20.4313   -8.9878 C   0  0  0  0  0  0  0  0  0  0  0  0
   26.5860  -18.8566   -8.1776 S   0  0  0  0  0  0  0  0  0  0  0  0
   24.5769  -20.9034  -10.8173 C   0  0  0  0  0  0  0  0  0  0  0  0
   25.1670  -21.9125  -11.2456 O   0  0  0  0  0  0  0  0  0  0  0  0
   23.7506  -20.1249  -11.6475 N   0  0  0  0  0  0  0  0  0  0  0  0
   23.5829  -20.3500  -13.0505 C   0  0  1  0  0  0  0  0  0  0  0  0
   22.2936  -19.7914  -13.5227 C   0  0  0  0  0  0  0  0  0  0  0  0
   21.9636  -20.0146  -14.9322 C   0  0  0  0  0  0  0  0  0  0  0  0
   21.5761  -21.2217  -15.5296 C   0  0  0  0  0  0  0  0  0  0  0  0
   21.4325  -21.0211  -16.8481 N   0  0  0  0  0  0  0  0  0  0  0  0
   21.7102  -19.7296  -17.1402 C   0  0  0  0  0  0  0  0  0  0  0  0
   21.6698  -19.0213  -18.3263 C   0  0  0  0  0  0  0  0  0  0  0  0
   21.9577  -17.6549  -18.3662 C   0  0  0  0  0  0  0  0  0  0  0  0
   22.2879  -17.0200  -17.1841 C   0  0  0  0  0  0  0  0  0  0  0  0
   22.3199  -17.7513  -16.0303 C   0  0  0  0  0  0  0  0  0  0  0  0
   22.0411  -19.1040  -15.9511 C   0  0  0  0  0  0  0  0  0  0  0  0
   24.7967  -20.1345  -13.8285 C   0  0  0  0  0  0  0  0  0  0  0  0
   25.5988  -19.1779  -13.5426 O   0  0  0  0  0  0  0  0  0  0  0  0
   26.9124  -23.1208  -15.4791 C   0  0  0  0  0  0  0  0  0  0  0  0
   27.4205  -21.7228  -15.2478 C   0  0  1  0  0  0  0  0  0  0  0  0
   28.6326  -21.5658  -15.9618 O   0  0  0  0  0  0  0  0  0  0  0  0
   26.4301  -20.6918  -15.6682 C   0  0  2  0  0  0  0  0  0  0  0  0
   25.1638  -20.9424  -14.9422 N   0  0  0  0  0  0  0  0  0  0  0  0
   26.1231  -20.9125  -17.1311 C   0  0  0  0  0  0  0  0  0  0  0  0
   25.0037  -21.2876  -17.4572 O   0  0  0  0  0  0  0  0  0  0  0  0
   27.1247  -20.6801  -18.0359 O   0  0  0  0  0  0  0  0  0  0  0  0
  2  1  1  1
  2  3  1  0
  4  3  1  0
  5  2  1  0
  5  6  2  0
  7  5  1  0
  8  7  1  0
  8  9  1  6
 10  9  1  0
 10 18  1  0
 11 12  1  0
 11 10  2  0
 12 13  1  0
 13 18  2  0
 13 14  1  0
 14 15  2  0
 15 16  1  0
 17 16  2  0
 18 17  1  0
 19  8  1  0
 19 20  2  0
 22 21  1  6
 23 22  1  0
 24 25  1  1
 24 22  1  0
 25 19  1  0
 26 24  1  0
 27 26  2  0
 28 26  1  0
M  END
$$$$
