CWT.pdb
     RDKit          3D

 28 29  0  0  1  0  0  0  0  0999 V2000
   28.4722  -22.0389  -14.7593 N   0  0  0  0  0  0  0  0  0  0  0  0
   27.8300  -20.8397  -14.2393 C   0  0  1  0  0  0  0  0  0  0  0  0
   27.3497  -20.0456  -15.4527 C   0  0  0  0  0  0  0  0  0  0  0  0
   26.5635  -18.4940  -14.9539 S   0  0  0  0  0  0  0  0  0  0  0  0
   26.7169  -21.2537  -13.3577 C   0  0  0  0  0  0  0  0  0  0  0  0
   26.0753  -22.2862  -13.6262 O   0  0  0  0  0  0  0  0  0  0  0  0
   26.4101  -20.4667  -12.2332 N   0  0  0  0  0  0  0  0  0  0  0  0
   25.3007  -20.7095  -11.3628 C   0  0  1  0  0  0  0  0  0  0  0  0
   25.6169  -20.2885   -9.9772 C   0  0  0  0  0  0  0  0  0  0  0  0
   26.9312  -20.6781   -9.4613 C   0  0  0  0  0  0  0  0  0  0  0  0
   27.8592  -21.5342  -10.0697 C   0  0  0  0  0  0  0  0  0  0  0  0
   28.9059  -21.6879   -9.2450 N   0  0  0  0  0  0  0  0  0  0  0  0
   28.7020  -20.9663   -8.1190 C   0  0  0  0  0  0  0  0  0  0  0  0
   29.4856  -20.7597   -6.9993 C   0  0  0  0  0  0  0  0  0  0  0  0
   29.0704  -19.9133   -5.9685 C   0  0  0  0  0  0  0  0  0  0  0  0
   27.8478  -19.2813   -6.0919 C   0  0  0  0  0  0  0  0  0  0  0  0
   27.0983  -19.5096   -7.2114 C   0  0  0  0  0  0  0  0  0  0  0  0
   27.4755  -20.3395   -8.2520 C   0  0  0  0  0  0  0  0  0  0  0  0
   24.0099  -20.3698  -11.9489 C   0  0  0  0  0  0  0  0  0  0  0  0
   23.7517  -19.1712  -12.3189 O   0  0  0  0  0  0  0  0  0  0  0  0
   22.5355  -21.5515  -15.0755 C   0  0  0  0  0  0  0  0  0  0  0  0
   21.5207  -21.8200  -13.9965 C   0  0  1  0  0  0  0  0  0  0  0  0
   21.6287  -23.1779  -13.6117 O   0  0  0  0  0  0  0  0  0  0  0  0
   21.7085  -20.9273  -12.8183 C   0  0  2  0  0  0  0  0  0  0  0  0
   22.9639  -21.3177  -12.1365 N   0  0  0  0  0  0  0  0  0  0  0  0
   20.5949  -21.2129  -11.8376 C   0  0  0  0  0  0  0  0  0  0  0  0
   20.8596  -21.7630  -10.7759 O   0  0  0  0  0  0  0  0  0  0  0  0
   19.3247  -20.8386  -12.1871 O   0  0  0  0  0  0  0  0  0  0  0  0
  2  1  1  6
  2  3  1  0
  4  3  1  0
  5  2  1  0
  5  6  2  0
  7  5  1  0
  8  7  1  0
  8  9  1  1
 10  9  1  0
 10 18  1  0
 11 12  1  0
 11 10  2  0
 12 13  1  0
 13 18  2  0
 13 14  1  0
 14 15  2  0
 15 16  1  0
 17 16  2  0
 18 17  1  0
 19  8  1  0
 19 20  2  0
 22 21  1  6
 23 22  1  0
 24 25  1  1
 24 22  1  0
 25 19  1  0
 26 24  1  0
 27 26  2  0
 28 26  1  0
M  END
$$$$
