HKG.pdb
     RDKit          3D

 24 24  0  0  1  0  0  0  0  0999 V2000
   26.7713  -27.0713  -22.8167 N   0  0  0  0  0  0  0  0  0  0  0  0
   25.9362  -26.9853  -21.6437 C   0  0  1  0  0  0  0  0  0  0  0  0
   24.6901  -26.2303  -22.0358 C   0  0  0  0  0  0  0  0  0  0  0  0
   25.0175  -24.8135  -22.3363 C   0  0  0  0  0  0  0  0  0  0  0  0
   25.3750  -23.8267  -21.4503 C   0  0  0  0  0  0  0  0  0  0  0  0
   25.5926  -22.6698  -22.1219 N   0  0  0  0  0  0  0  0  0  0  0  0
   25.3733  -22.9275  -23.4219 C   0  0  0  0  0  0  0  0  0  0  0  0
   25.0242  -24.2215  -23.5674 N   0  0  0  0  0  0  0  0  0  0  0  0
   25.6743  -28.2825  -21.0070 C   0  0  0  0  0  0  0  0  0  0  0  0
   25.4613  -29.2684  -21.7761 O   0  0  0  0  0  0  0  0  0  0  0  0
   25.6494  -28.4826  -19.6192 N   0  0  0  0  0  0  0  0  0  0  0  0
   25.4524  -29.7697  -18.9740 C   0  0  1  0  0  0  0  0  0  0  0  0
   26.5910  -30.0124  -18.0137 C   0  0  0  0  0  0  0  0  0  0  0  0
   26.5040  -31.2776  -17.2393 C   0  0  0  0  0  0  0  0  0  0  0  0
   27.6849  -31.5678  -16.3652 C   0  0  0  0  0  0  0  0  0  0  0  0
   27.4413  -32.9268  -15.7148 C   0  0  0  0  0  0  0  0  0  0  0  0
   28.5649  -33.3250  -14.8944 N   0  0  0  0  0  0  0  0  0  0  0  0
   24.2226  -29.6388  -18.1213 C   0  0  0  0  0  0  0  0  0  0  0  0
   23.9878  -28.6152  -17.4288 O   0  0  0  0  0  0  0  0  0  0  0  0
   23.2539  -30.6745  -18.0538 N   0  0  0  0  0  0  0  0  0  0  0  0
   22.0343  -30.5251  -17.2584 C   0  0  0  0  0  0  0  0  0  0  0  0
   22.2350  -30.9515  -15.8696 C   0  0  0  0  0  0  0  0  0  0  0  0
   21.1716  -30.8203  -14.9883 O   0  0  0  0  0  0  0  0  0  0  0  0
   23.3072  -31.4291  -15.4206 O   0  0  0  0  0  0  0  0  0  0  0  0
  2  1  1  6
  2  9  1  0
  3  2  1  0
  3  4  1  0
  4  8  1  0
  4  5  2  0
  5  6  1  0
  7  6  1  0
  8  7  2  0
  9 10  2  0
 11 12  1  0
 11  9  1  0
 12 18  1  0
 13 14  1  0
 12 13  1  1
 14 15  1  0
 16 15  1  0
 16 17  1  0
 18 19  2  0
 20 18  1  0
 20 21  1  0
 22 23  1  0
 22 21  1  0
 24 22  2  0
M  END
$$$$
