HKG.pdb
     RDKit          3D

 24 24  0  0  1  0  0  0  0  0999 V2000
   16.4725  -10.7200  -16.0426 N   0  0  0  0  0  0  0  0  0  0  0  0
   17.5998  -10.1021  -16.6970 C   0  0  1  0  0  0  0  0  0  0  0  0
   17.0848   -8.8798  -17.4164 C   0  0  0  0  0  0  0  0  0  0  0  0
   16.2685   -9.2775  -18.5913 C   0  0  0  0  0  0  0  0  0  0  0  0
   16.6408   -9.2763  -19.9134 C   0  0  0  0  0  0  0  0  0  0  0  0
   15.6084   -9.7099  -20.6768 N   0  0  0  0  0  0  0  0  0  0  0  0
   14.5933   -9.9820  -19.8402 C   0  0  0  0  0  0  0  0  0  0  0  0
   14.9779   -9.7251  -18.5738 N   0  0  0  0  0  0  0  0  0  0  0  0
   18.7320   -9.8358  -15.8004 C   0  0  0  0  0  0  0  0  0  0  0  0
   18.4611   -9.6174  -14.5807 O   0  0  0  0  0  0  0  0  0  0  0  0
   20.0711   -9.8124  -16.2162 N   0  0  0  0  0  0  0  0  0  0  0  0
   21.2022   -9.5468  -15.3433 C   0  0  1  0  0  0  0  0  0  0  0  0
   22.3797  -10.3682  -15.8085 C   0  0  0  0  0  0  0  0  0  0  0  0
   23.6100  -10.2284  -14.9870 C   0  0  0  0  0  0  0  0  0  0  0  0
   24.7496  -11.1089  -15.3979 C   0  0  0  0  0  0  0  0  0  0  0  0
   25.2524  -10.5965  -16.7448 C   0  0  0  0  0  0  0  0  0  0  0  0
   26.3884  -11.3641  -17.2074 N   0  0  0  0  0  0  0  0  0  0  0  0
   21.5918   -8.1137  -15.5693 C   0  0  0  0  0  0  0  0  0  0  0  0
   21.7788   -7.6387  -16.7189 O   0  0  0  0  0  0  0  0  0  0  0  0
   21.7702   -7.2146  -14.4851 N   0  0  0  0  0  0  0  0  0  0  0  0
   22.1919   -5.8304  -14.7060 C   0  0  0  0  0  0  0  0  0  0  0  0
   22.3596   -5.1047  -13.4426 C   0  0  0  0  0  0  0  0  0  0  0  0
   21.9365   -5.7237  -12.2754 O   0  0  0  0  0  0  0  0  0  0  0  0
   22.8618   -3.9570  -13.3436 O   0  0  0  0  0  0  0  0  0  0  0  0
  2  1  1  1
  2  9  1  0
  3  2  1  0
  3  4  1  0
  4  8  1  0
  4  5  2  0
  5  6  1  0
  7  6  1  0
  8  7  2  0
  9 10  2  0
 11 12  1  0
 11  9  1  0
 12 18  1  0
 13 14  1  0
 12 13  1  6
 14 15  1  0
 16 15  1  0
 16 17  1  0
 18 19  2  0
 20 18  1  0
 20 21  1  0
 22 23  1  0
 22 21  1  0
 24 22  2  0
M  END
$$$$
