HKG.pdb
     RDKit          3D

 24 24  0  0  1  0  0  0  0  0999 V2000
   19.2708  -23.0408  -14.3108 N   0  0  0  0  0  0  0  0  0  0  0  0
   20.2694  -22.2779  -13.6025 C   0  0  1  0  0  0  0  0  0  0  0  0
   20.8147  -23.1617  -12.5080 C   0  0  0  0  0  0  0  0  0  0  0  0
   19.7640  -23.4389  -11.4960 C   0  0  0  0  0  0  0  0  0  0  0  0
   18.4919  -22.9237  -11.4416 C   0  0  0  0  0  0  0  0  0  0  0  0
   17.8438  -23.4260  -10.3625 N   0  0  0  0  0  0  0  0  0  0  0  0
   18.7029  -24.2517   -9.7424 C   0  0  0  0  0  0  0  0  0  0  0  0
   19.8700  -24.2700  -10.4170 N   0  0  0  0  0  0  0  0  0  0  0  0
   21.3004  -21.6992  -14.4736 C   0  0  0  0  0  0  0  0  0  0  0  0
   21.6106  -22.3564  -15.5131 O   0  0  0  0  0  0  0  0  0  0  0  0
   21.9456  -20.4803  -14.2198 N   0  0  0  0  0  0  0  0  0  0  0  0
   22.9173  -19.8604  -15.1049 C   0  0  1  0  0  0  0  0  0  0  0  0
   22.7835  -18.3608  -15.0010 C   0  0  0  0  0  0  0  0  0  0  0  0
   21.8900  -17.7359  -16.0106 C   0  0  0  0  0  0  0  0  0  0  0  0
   20.4741  -17.5355  -15.5659 C   0  0  0  0  0  0  0  0  0  0  0  0
   19.7163  -16.9186  -16.7382 C   0  0  0  0  0  0  0  0  0  0  0  0
   18.3423  -16.6349  -16.3839 N   0  0  0  0  0  0  0  0  0  0  0  0
   24.2741  -20.1868  -14.5490 C   0  0  0  0  0  0  0  0  0  0  0  0
   24.5522  -20.0576  -13.3291 O   0  0  0  0  0  0  0  0  0  0  0  0
   25.3212  -20.6625  -15.3815 N   0  0  0  0  0  0  0  0  0  0  0  0
   26.6486  -20.9586  -14.8405 C   0  0  0  0  0  0  0  0  0  0  0  0
   27.5277  -21.5546  -15.8519 C   0  0  0  0  0  0  0  0  0  0  0  0
   28.8416  -21.8222  -15.4960 O   0  0  0  0  0  0  0  0  0  0  0  0
   27.1723  -21.8407  -17.0228 O   0  0  0  0  0  0  0  0  0  0  0  0
  2  1  1  6
  2  9  1  0
  3  2  1  0
  3  4  1  0
  4  8  1  0
  4  5  2  0
  5  6  1  0
  7  6  1  0
  8  7  2  0
  9 10  2  0
 11 12  1  0
 11  9  1  0
 12 18  1  0
 13 14  1  0
 12 13  1  1
 14 15  1  0
 16 15  1  0
 16 17  1  0
 18 19  2  0
 20 18  1  0
 20 21  1  0
 22 23  1  0
 22 21  1  0
 24 22  2  0
M  END
$$$$
