HKG.pdb
     RDKit          3D

 24 24  0  0  1  0  0  0  0  0999 V2000
   32.6645  -13.4582  -18.6370 N   0  0  0  0  0  0  0  0  0  0  0  0
   31.5389  -12.8076  -19.2619 C   0  0  1  0  0  0  0  0  0  0  0  0
   30.5805  -13.8894  -19.6950 C   0  0  0  0  0  0  0  0  0  0  0  0
   31.1925  -14.7267  -20.7576 C   0  0  0  0  0  0  0  0  0  0  0  0
   31.2454  -16.0977  -20.8222 C   0  0  0  0  0  0  0  0  0  0  0  0
   31.8898  -16.4750  -21.9531 N   0  0  0  0  0  0  0  0  0  0  0  0
   32.2399  -15.3486  -22.5956 C   0  0  0  0  0  0  0  0  0  0  0  0
   31.8245  -14.2815  -21.8840 N   0  0  0  0  0  0  0  0  0  0  0  0
   30.9255  -11.7611  -18.4340 C   0  0  0  0  0  0  0  0  0  0  0  0
   30.4943  -12.1090  -17.2931 O   0  0  0  0  0  0  0  0  0  0  0  0
   30.7960  -10.4229  -18.8329 N   0  0  0  0  0  0  0  0  0  0  0  0
   30.1921   -9.3758  -18.0263 C   0  0  1  0  0  0  0  0  0  0  0  0
   31.2393   -8.3339  -17.7176 C   0  0  0  0  0  0  0  0  0  0  0  0
   32.3048   -8.7698  -16.7780 C   0  0  0  0  0  0  0  0  0  0  0  0
   33.3195   -7.7215  -16.4403 C   0  0  0  0  0  0  0  0  0  0  0  0
   34.4082   -8.3979  -15.6117 C   0  0  0  0  0  0  0  0  0  0  0  0
   35.4076   -7.4448  -15.1800 N   0  0  0  0  0  0  0  0  0  0  0  0
   29.1814   -8.6894  -18.9005 C   0  0  0  0  0  0  0  0  0  0  0  0
   29.4684   -8.2432  -20.0411 O   0  0  0  0  0  0  0  0  0  0  0  0
   27.8381   -8.5081  -18.4785 N   0  0  0  0  0  0  0  0  0  0  0  0
   26.8379   -7.9053  -19.3610 C   0  0  0  0  0  0  0  0  0  0  0  0
   26.6551   -6.4774  -19.0807 C   0  0  0  0  0  0  0  0  0  0  0  0
   25.7393   -5.7750  -19.8505 O   0  0  0  0  0  0  0  0  0  0  0  0
   27.2726   -5.8436  -18.1884 O   0  0  0  0  0  0  0  0  0  0  0  0
  2  1  1  1
  2  9  1  0
  3  2  1  0
  3  4  1  0
  4  8  1  0
  4  5  2  0
  5  6  1  0
  7  6  1  0
  8  7  2  0
  9 10  2  0
 11 12  1  0
 11  9  1  0
 12 18  1  0
 13 14  1  0
 12 13  1  6
 14 15  1  0
 16 15  1  0
 16 17  1  0
 18 19  2  0
 20 18  1  0
 20 21  1  0
 22 23  1  0
 22 21  1  0
 24 22  2  0
M  END
$$$$
