HKG.pdb
     RDKit          3D

 24 24  0  0  1  0  0  0  0  0999 V2000
   14.6924  -10.3794  -13.7777 N   0  0  0  0  0  0  0  0  0  0  0  0
   16.0318  -10.0560  -13.3508 C   0  0  1  0  0  0  0  0  0  0  0  0
   16.9437  -10.2773  -14.5323 C   0  0  0  0  0  0  0  0  0  0  0  0
   16.9599  -11.7131  -14.9107 C   0  0  0  0  0  0  0  0  0  0  0  0
   17.4254  -12.7727  -14.1710 C   0  0  0  0  0  0  0  0  0  0  0  0
   17.2613  -13.9220  -14.8701 N   0  0  0  0  0  0  0  0  0  0  0  0
   16.6962  -13.5874  -16.0419 C   0  0  0  0  0  0  0  0  0  0  0  0
   16.5076  -12.2531  -16.0812 N   0  0  0  0  0  0  0  0  0  0  0  0
   16.1541   -8.7253  -12.7417 C   0  0  0  0  0  0  0  0  0  0  0  0
   15.6099   -7.7587  -13.3569 O   0  0  0  0  0  0  0  0  0  0  0  0
   16.8278   -8.4745  -11.5376 N   0  0  0  0  0  0  0  0  0  0  0  0
   16.9573   -7.1648  -10.9214 C   0  0  1  0  0  0  0  0  0  0  0  0
   16.3075   -7.2010   -9.5597 C   0  0  0  0  0  0  0  0  0  0  0  0
   14.8342   -7.3945   -9.5689 C   0  0  0  0  0  0  0  0  0  0  0  0
   14.1949   -7.4557   -8.2160 C   0  0  0  0  0  0  0  0  0  0  0  0
   12.6955   -7.6398   -8.4338 C   0  0  0  0  0  0  0  0  0  0  0  0
   11.9872   -7.7123   -7.1741 N   0  0  0  0  0  0  0  0  0  0  0  0
   18.4225   -6.9529  -10.6669 C   0  0  0  0  0  0  0  0  0  0  0  0
   18.9314   -7.0645   -9.5219 O   0  0  0  0  0  0  0  0  0  0  0  0
   19.3154   -6.6126  -11.7169 N   0  0  0  0  0  0  0  0  0  0  0  0
   20.7302   -6.3436  -11.4556 C   0  0  0  0  0  0  0  0  0  0  0  0
   21.2155   -5.1915  -12.2225 C   0  0  0  0  0  0  0  0  0  0  0  0
   22.5405   -4.8135  -12.0608 O   0  0  0  0  0  0  0  0  0  0  0  0
   20.5121   -4.5206  -13.0189 O   0  0  0  0  0  0  0  0  0  0  0  0
  2  1  1  6
  2  9  1  0
  3  2  1  0
  3  4  1  0
  4  8  1  0
  4  5  2  0
  5  6  1  0
  7  6  1  0
  8  7  2  0
  9 10  2  0
 11 12  1  0
 11  9  1  0
 12 18  1  0
 13 14  1  0
 12 13  1  1
 14 15  1  0
 16 15  1  0
 16 17  1  0
 18 19  2  0
 20 18  1  0
 20 21  1  0
 22 23  1  0
 22 21  1  0
 24 22  2  0
M  END
$$$$
