HKG.pdb
     RDKit          3D

 24 24  0  0  1  0  0  0  0  0999 V2000
   25.7656  -16.8128  -18.3786 N   0  0  0  0  0  0  0  0  0  0  0  0
   25.5615  -17.0715  -16.9742 C   0  0  1  0  0  0  0  0  0  0  0  0
   24.9471  -15.8305  -16.3752 C   0  0  0  0  0  0  0  0  0  0  0  0
   25.9765  -14.7736  -16.2078 C   0  0  0  0  0  0  0  0  0  0  0  0
   27.3032  -14.8282  -16.5598 C   0  0  0  0  0  0  0  0  0  0  0  0
   27.9065  -13.6572  -16.2414 N   0  0  0  0  0  0  0  0  0  0  0  0
   26.9654  -12.8712  -15.6928 C   0  0  0  0  0  0  0  0  0  0  0  0
   25.7914  -13.5334  -15.6657 N   0  0  0  0  0  0  0  0  0  0  0  0
   24.8086  -18.3028  -16.7024 C   0  0  0  0  0  0  0  0  0  0  0  0
   23.8291  -18.5589  -17.4665 O   0  0  0  0  0  0  0  0  0  0  0  0
   25.1126  -19.1926  -15.6620 N   0  0  0  0  0  0  0  0  0  0  0  0
   24.4270  -20.4521  -15.4260 C   0  0  1  0  0  0  0  0  0  0  0  0
   25.4491  -21.5031  -15.0676 C   0  0  0  0  0  0  0  0  0  0  0  0
   26.2692  -21.9984  -16.2035 C   0  0  0  0  0  0  0  0  0  0  0  0
   27.2456  -23.0794  -15.8559 C   0  0  0  0  0  0  0  0  0  0  0  0
   27.9906  -23.4432  -17.1372 C   0  0  0  0  0  0  0  0  0  0  0  0
   28.9709  -24.4803  -16.8979 N   0  0  0  0  0  0  0  0  0  0  0  0
   23.5908  -20.2613  -14.1928 C   0  0  0  0  0  0  0  0  0  0  0  0
   23.9941  -19.6033  -13.1994 O   0  0  0  0  0  0  0  0  0  0  0  0
   22.2900  -20.8199  -14.0858 N   0  0  0  0  0  0  0  0  0  0  0  0
   21.4666  -20.6083  -12.8943 C   0  0  0  0  0  0  0  0  0  0  0  0
   20.1551  -21.2529  -13.0179 C   0  0  0  0  0  0  0  0  0  0  0  0
   19.2737  -21.1448  -11.9520 O   0  0  0  0  0  0  0  0  0  0  0  0
   19.7727  -21.8987  -14.0259 O   0  0  0  0  0  0  0  0  0  0  0  0
  2  1  1  6
  2  9  1  0
  3  2  1  0
  3  4  1  0
  4  8  1  0
  4  5  2  0
  5  6  1  0
  7  6  1  0
  8  7  2  0
  9 10  2  0
 11 12  1  0
 11  9  1  0
 12 18  1  0
 13 14  1  0
 12 13  1  1
 14 15  1  0
 16 15  1  0
 16 17  1  0
 18 19  2  0
 20 18  1  0
 20 21  1  0
 22 23  1  0
 22 21  1  0
 24 22  2  0
M  END
$$$$
