HKG.pdb
     RDKit          3D

 24 24  0  0  1  0  0  0  0  0999 V2000
   19.3811  -10.8544  -16.9918 N   0  0  0  0  0  0  0  0  0  0  0  0
   19.6457  -11.1455  -15.6040 C   0  0  1  0  0  0  0  0  0  0  0  0
   19.8477  -12.6364  -15.4901 C   0  0  0  0  0  0  0  0  0  0  0  0
   18.6368  -13.3589  -15.9556 C   0  0  0  0  0  0  0  0  0  0  0  0
   17.4833  -13.6073  -15.2525 C   0  0  0  0  0  0  0  0  0  0  0  0
   16.6149  -14.2958  -16.0325 N   0  0  0  0  0  0  0  0  0  0  0  0
   17.2185  -14.4793  -17.2185 C   0  0  0  0  0  0  0  0  0  0  0  0
   18.4436  -13.9174  -17.1872 N   0  0  0  0  0  0  0  0  0  0  0  0
   20.7371  -10.3483  -15.0294 C   0  0  0  0  0  0  0  0  0  0  0  0
   20.9760  -10.5059  -13.7938 O   0  0  0  0  0  0  0  0  0  0  0  0
   21.5137   -9.4404  -15.7637 N   0  0  0  0  0  0  0  0  0  0  0  0
   22.6376   -8.6920  -15.2264 C   0  0  1  0  0  0  0  0  0  0  0  0
   23.8060   -8.8216  -16.1729 C   0  0  0  0  0  0  0  0  0  0  0  0
   24.7655   -9.9079  -15.8451 C   0  0  0  0  0  0  0  0  0  0  0  0
   25.9406  -10.0147  -16.7674 C   0  0  0  0  0  0  0  0  0  0  0  0
   26.7306  -11.2519  -16.3497 C   0  0  0  0  0  0  0  0  0  0  0  0
   27.7908  -11.5403  -17.2913 N   0  0  0  0  0  0  0  0  0  0  0  0
   22.2447   -7.2426  -15.2621 C   0  0  0  0  0  0  0  0  0  0  0  0
   23.0066   -6.3270  -14.8576 O   0  0  0  0  0  0  0  0  0  0  0  0
   20.9806   -6.8295  -15.7592 N   0  0  0  0  0  0  0  0  0  0  0  0
   20.5818   -5.4212  -15.7482 C   0  0  0  0  0  0  0  0  0  0  0  0
   20.9012   -4.7554  -17.0153 C   0  0  0  0  0  0  0  0  0  0  0  0
   21.5790   -5.4851  -17.9811 O   0  0  0  0  0  0  0  0  0  0  0  0
   20.6025   -3.5656  -17.2880 O   0  0  0  0  0  0  0  0  0  0  0  0
  2  1  1  6
  2  9  1  0
  3  2  1  0
  3  4  1  0
  4  8  1  0
  4  5  2  0
  5  6  1  0
  7  6  1  0
  8  7  2  0
  9 10  2  0
 11 12  1  0
 11  9  1  0
 12 18  1  0
 13 14  1  0
 12 13  1  6
 14 15  1  0
 16 15  1  0
 16 17  1  0
 18 19  2  0
 20 18  1  0
 20 21  1  0
 22 23  1  0
 22 21  1  0
 24 22  2  0
M  END
$$$$
