HKG.pdb
     RDKit          3D

 24 24  0  0  1  0  0  0  0  0999 V2000
   17.2747  -25.6649   -9.7346 N   0  0  0  0  0  0  0  0  0  0  0  0
   18.0500  -25.3438   -8.5613 C   0  0  1  0  0  0  0  0  0  0  0  0
   18.2727  -23.8515   -8.5667 C   0  0  0  0  0  0  0  0  0  0  0  0
   18.9641  -23.4368   -9.8136 C   0  0  0  0  0  0  0  0  0  0  0  0
   19.4338  -24.2419  -10.8226 C   0  0  0  0  0  0  0  0  0  0  0  0
   20.0025  -23.4777  -11.7865 N   0  0  0  0  0  0  0  0  0  0  0  0
   19.8912  -22.2002  -11.3863 C   0  0  0  0  0  0  0  0  0  0  0  0
   19.2646  -22.1594  -10.1933 N   0  0  0  0  0  0  0  0  0  0  0  0
   17.4741  -25.8582   -7.3121 C   0  0  0  0  0  0  0  0  0  0  0  0
   16.2421  -25.6333   -7.1110 O   0  0  0  0  0  0  0  0  0  0  0  0
   18.2028  -26.5723   -6.3500 N   0  0  0  0  0  0  0  0  0  0  0  0
   17.6257  -27.1894   -5.1676 C   0  0  1  0  0  0  0  0  0  0  0  0
   17.7809  -28.6868   -5.2749 C   0  0  0  0  0  0  0  0  0  0  0  0
   17.2841  -29.2830   -6.5421 C   0  0  0  0  0  0  0  0  0  0  0  0
   17.4314  -30.7699   -6.6431 C   0  0  0  0  0  0  0  0  0  0  0  0
   16.9777  -31.1740   -8.0431 C   0  0  0  0  0  0  0  0  0  0  0  0
   17.0566  -32.6071   -8.2272 N   0  0  0  0  0  0  0  0  0  0  0  0
   18.4822  -26.7744   -4.0054 C   0  0  0  0  0  0  0  0  0  0  0  0
   19.7087  -26.5231   -4.1270 O   0  0  0  0  0  0  0  0  0  0  0  0
   17.9443  -26.6438   -2.6980 N   0  0  0  0  0  0  0  0  0  0  0  0
   18.7832  -26.2462   -1.5662 C   0  0  0  0  0  0  0  0  0  0  0  0
   19.3243  -27.4092   -0.8552 C   0  0  0  0  0  0  0  0  0  0  0  0
   20.1575  -27.1789    0.2298 O   0  0  0  0  0  0  0  0  0  0  0  0
   19.0847  -28.6042   -1.1615 O   0  0  0  0  0  0  0  0  0  0  0  0
  2  1  1  6
  2  9  1  0
  3  2  1  0
  3  4  1  0
  4  8  1  0
  4  5  2  0
  5  6  1  0
  7  6  1  0
  8  7  2  0
  9 10  2  0
 11 12  1  0
 11  9  1  0
 12 18  1  0
 13 14  1  0
 12 13  1  6
 14 15  1  0
 16 15  1  0
 16 17  1  0
 18 19  2  0
 20 18  1  0
 20 21  1  0
 22 23  1  0
 22 21  1  0
 24 22  2  0
M  END
$$$$
