RSF.pdb
     RDKit          3D

 29 29  0  0  1  0  0  0  0  0999 V2000
    7.9420  -15.6613   15.3588 N   0  0  0  0  0  0  0  0  0  0  0  0
    8.2498  -14.2865   15.2730 C   0  0  0  0  0  0  0  0  0  0  0  0
    7.8522  -13.5302   14.3178 N   0  0  0  0  0  0  0  0  0  0  0  0
    9.0408  -13.7273   16.3159 N   0  0  0  0  0  0  0  0  0  0  0  0
    8.4652  -13.1195   17.4901 C   0  0  0  0  0  0  0  0  0  0  0  0
    7.3849  -14.1041   17.9776 C   0  0  0  0  0  0  0  0  0  0  0  0
    7.4479  -14.2678   19.4602 C   0  0  0  0  0  0  0  0  0  0  0  0
    8.6454  -15.1973   19.7779 C   0  0  2  0  0  0  0  0  0  0  0  0
    8.4192  -16.4537   19.0532 N   0  0  0  0  0  0  0  0  0  0  0  0
    8.4935  -15.4557   21.2698 C   0  0  0  0  0  0  0  0  0  0  0  0
    8.6057  -14.4372   21.9666 O   0  0  0  0  0  0  0  0  0  0  0  0
    8.0741  -12.5310   14.2362 O   0  0  0  0  0  0  0  0  0  0  0  0
    9.0289  -19.3917   22.6300 C   0  0  0  0  0  0  0  0  0  0  0  0
    7.9111  -18.7550   23.1125 C   0  0  1  0  0  0  0  0  0  0  0  0
    7.9949  -17.2114   22.9949 N   0  0  0  0  0  0  0  0  0  0  0  0
    8.2545  -16.7603   21.6852 C   0  0  0  0  0  0  0  0  0  0  0  0
    8.9863  -16.7008   23.9328 O   0  0  0  0  0  0  0  0  0  0  0  0
   10.2302  -16.7344   23.6187 N   0  0  0  0  0  0  0  0  0  0  0  0
    8.7432  -16.1424   25.2124 C   0  0  1  0  0  0  0  0  0  0  0  0
    9.8246  -15.8600   26.1132 C   0  0  0  0  0  0  0  0  0  0  0  0
   10.0198  -14.3292   26.0642 C   0  0  0  0  0  0  0  0  0  0  0  0
    8.7579  -13.5916   26.1666 C   0  0  0  0  0  0  0  0  0  0  0  0
    8.3418  -12.9060   27.3039 C   0  0  0  0  0  0  0  0  0  0  0  0
    7.1461  -12.2323   27.3144 C   0  0  0  0  0  0  0  0  0  0  0  0
    6.3309  -12.2180   26.2116 C   0  0  0  0  0  0  0  0  0  0  0  0
    6.6937  -12.8780   25.0690 C   0  0  0  0  0  0  0  0  0  0  0  0
    7.9129  -13.5529   25.0829 C   0  0  0  0  0  0  0  0  0  0  0  0
    9.5357  -16.2362   27.4994 O   0  0  0  0  0  0  0  0  0  0  0  0
   10.5758  -16.0264   28.4223 O   0  0  0  0  0  0  0  0  0  0  0  0
  1  2  1  0
  2  4  1  0
  2  3  2  0
  4  5  1  0
  6  5  1  0
  7  6  1  0
  8  7  1  0
  8  9  1  6
 10  8  1  0
 11 10  2  0
 13 12  1  0
 14 13  1  6
 14 16  1  0
 14 15  1  0
 15 10  1  0
 16 18  1  0
 17 16  2  0
 18 19  1  0
 19 27  1  0
 20 21  1  0
 19 20  1  1
 21 26  2  0
 22 23  2  0
 22 21  1  0
 23 24  1  0
 24 25  2  0
 26 25  1  0
 27 29  2  0
 27 28  1  0
M  END
$$$$
