RSF.pdb
     RDKit          3D

 29 29  0  0  1  0  0  0  0  0999 V2000
   13.2965  -14.6306   18.9477 N   0  0  0  0  0  0  0  0  0  0  0  0
   12.3683  -15.5344   18.3874 C   0  0  0  0  0  0  0  0  0  0  0  0
   12.4559  -16.8069   18.5112 N   0  0  0  0  0  0  0  0  0  0  0  0
   11.2804  -14.9830   17.6536 N   0  0  0  0  0  0  0  0  0  0  0  0
   10.3037  -14.1052   18.2494 C   0  0  0  0  0  0  0  0  0  0  0  0
   10.5442  -14.1905   19.7691 C   0  0  0  0  0  0  0  0  0  0  0  0
    9.4696  -13.4724   20.5164 C   0  0  0  0  0  0  0  0  0  0  0  0
    8.1329  -14.1997   20.2279 C   0  0  2  0  0  0  0  0  0  0  0  0
    7.2317  -13.2167   19.6145 N   0  0  0  0  0  0  0  0  0  0  0  0
    7.6183  -14.5377   21.6195 C   0  0  0  0  0  0  0  0  0  0  0  0
    7.1794  -13.5593   22.2405 O   0  0  0  0  0  0  0  0  0  0  0  0
   11.7604  -17.4748   18.1584 O   0  0  0  0  0  0  0  0  0  0  0  0
    6.8636  -18.6587   22.4157 C   0  0  0  0  0  0  0  0  0  0  0  0
    6.2876  -17.6096   23.0905 C   0  0  1  0  0  0  0  0  0  0  0  0
    7.2436  -16.4010   23.2611 N   0  0  0  0  0  0  0  0  0  0  0  0
    7.6910  -15.8608   22.0387 C   0  0  0  0  0  0  0  0  0  0  0  0
    8.3654  -16.7786   24.1108 O   0  0  0  0  0  0  0  0  0  0  0  0
    9.5195  -16.9746   23.5844 N   0  0  0  0  0  0  0  0  0  0  0  0
    8.3474  -16.9667   25.5153 C   0  0  1  0  0  0  0  0  0  0  0  0
    9.5181  -17.4121   26.2165 C   0  0  0  0  0  0  0  0  0  0  0  0
    9.3851  -16.8518   27.6490 C   0  0  0  0  0  0  0  0  0  0  0  0
    9.3102  -15.3889   27.6826 C   0  0  0  0  0  0  0  0  0  0  0  0
   10.3970  -14.5546   27.9272 C   0  0  0  0  0  0  0  0  0  0  0  0
   10.2425  -13.1910   27.9337 C   0  0  0  0  0  0  0  0  0  0  0  0
    9.0193  -12.6151   27.7031 C   0  0  0  0  0  0  0  0  0  0  0  0
    7.9191  -13.3914   27.4592 C   0  0  0  0  0  0  0  0  0  0  0  0
    8.1022  -14.7729   27.4563 C   0  0  0  0  0  0  0  0  0  0  0  0
    9.6176  -18.8709   26.3075 O   0  0  0  0  0  0  0  0  0  0  0  0
   10.7814  -19.3702   26.9189 O   0  0  0  0  0  0  0  0  0  0  0  0
  1  2  1  0
  2  4  1  0
  2  3  2  0
  4  5  1  0
  6  5  1  0
  7  6  1  0
  8  7  1  0
  8  9  1  1
 10  8  1  0
 11 10  2  0
 13 12  1  0
 14 13  1  6
 14 16  1  0
 14 15  1  0
 15 10  1  0
 16 18  1  0
 17 16  2  0
 18 19  1  0
 19 27  1  0
 20 21  1  0
 19 20  1  1
 21 26  2  0
 22 23  2  0
 22 21  1  0
 23 24  1  0
 24 25  2  0
 26 25  1  0
 27 29  2  0
 27 28  1  0
M  END
$$$$
