RSF.pdb
     RDKit          3D

 29 29  0  0  1  0  0  0  0  0999 V2000
    7.6447  -13.4480   16.0097 N   0  0  0  0  0  0  0  0  0  0  0  0
    8.7643  -14.0582   16.6149 C   0  0  0  0  0  0  0  0  0  0  0  0
    9.5160  -14.9080   16.0189 N   0  0  0  0  0  0  0  0  0  0  0  0
    9.0613  -13.6929   17.9582 N   0  0  0  0  0  0  0  0  0  0  0  0
    8.0813  -13.1134   18.8431 C   0  0  0  0  0  0  0  0  0  0  0  0
    7.2063  -14.2898   19.3175 C   0  0  0  0  0  0  0  0  0  0  0  0
    7.2820  -14.4417   20.8007 C   0  0  0  0  0  0  0  0  0  0  0  0
    8.4682  -15.3869   21.1143 C   0  0  2  0  0  0  0  0  0  0  0  0
    8.2819  -16.5956   20.3024 N   0  0  0  0  0  0  0  0  0  0  0  0
    8.2493  -15.7391   22.5784 C   0  0  0  0  0  0  0  0  0  0  0  0
    7.4358  -15.0017   23.1527 O   0  0  0  0  0  0  0  0  0  0  0  0
   10.3143  -15.3845   16.4546 O   0  0  0  0  0  0  0  0  0  0  0  0
   10.7685  -18.8579   24.0792 C   0  0  0  0  0  0  0  0  0  0  0  0
    9.4889  -18.7404   24.5657 C   0  0  1  0  0  0  0  0  0  0  0  0
    8.9160  -17.3068   24.4236 N   0  0  0  0  0  0  0  0  0  0  0  0
    8.9588  -16.8121   23.1046 C   0  0  0  0  0  0  0  0  0  0  0  0
    9.6033  -16.4101   25.3438 O   0  0  0  0  0  0  0  0  0  0  0  0
   10.6589  -15.7924   24.9548 N   0  0  0  0  0  0  0  0  0  0  0  0
    9.2387  -16.1156   26.6812 C   0  0  1  0  0  0  0  0  0  0  0  0
   10.0566  -15.2668   27.5005 C   0  0  0  0  0  0  0  0  0  0  0  0
    9.0736  -14.3742   28.2885 C   0  0  0  0  0  0  0  0  0  0  0  0
    8.2492  -13.5310   27.4189 C   0  0  0  0  0  0  0  0  0  0  0  0
    7.0616  -12.9230   27.8149 C   0  0  0  0  0  0  0  0  0  0  0  0
    6.3521  -12.1406   26.9387 C   0  0  0  0  0  0  0  0  0  0  0  0
    6.7894  -11.9388   25.6546 C   0  0  0  0  0  0  0  0  0  0  0  0
    7.9501  -12.5157   25.2155 C   0  0  0  0  0  0  0  0  0  0  0  0
    8.6531  -13.3041   26.1246 C   0  0  0  0  0  0  0  0  0  0  0  0
   10.8716  -16.0071   28.4671 O   0  0  0  0  0  0  0  0  0  0  0  0
   10.7183  -17.4049   28.4567 O   0  0  0  0  0  0  0  0  0  0  0  0
  1  2  1  0
  2  4  1  0
  2  3  2  0
  4  5  1  0
  6  5  1  0
  7  6  1  0
  8  7  1  0
  8  9  1  6
 10  8  1  0
 11 10  2  0
 13 12  1  0
 14 13  1  6
 14 16  1  0
 14 15  1  0
 15 10  1  0
 16 18  1  0
 17 16  2  0
 18 19  1  0
 19 27  1  0
 20 21  1  0
 19 20  1  1
 21 26  2  0
 22 23  2  0
 22 21  1  0
 23 24  1  0
 24 25  2  0
 26 25  1  0
 27 29  2  0
 27 28  1  0
M  END
$$$$
