RSF.pdb
     RDKit          3D

 29 29  0  0  1  0  0  0  0  0999 V2000
   15.1755  -19.5079   16.9870 N   0  0  0  0  0  0  0  0  0  0  0  0
   14.3107  -20.6125   17.1426 C   0  0  0  0  0  0  0  0  0  0  0  0
   13.7426  -21.2107   16.1619 N   0  0  0  0  0  0  0  0  0  0  0  0
   14.0737  -21.0756   18.4676 N   0  0  0  0  0  0  0  0  0  0  0  0
   13.2685  -20.3462   19.4157 C   0  0  0  0  0  0  0  0  0  0  0  0
   12.8774  -19.0364   18.7043 C   0  0  0  0  0  0  0  0  0  0  0  0
   12.0494  -18.1747   19.5990 C   0  0  0  0  0  0  0  0  0  0  0  0
   10.5783  -18.6411   19.4675 C   0  0  2  0  0  0  0  0  0  0  0  0
   10.2512  -18.6357   18.0365 N   0  0  0  0  0  0  0  0  0  0  0  0
    9.8018  -17.5268   20.1538 C   0  0  0  0  0  0  0  0  0  0  0  0
   10.4183  -16.4536   20.2153 O   0  0  0  0  0  0  0  0  0  0  0  0
   13.1183  -22.0203   16.2573 O   0  0  0  0  0  0  0  0  0  0  0  0
    6.0594  -18.7102   21.7925 C   0  0  0  0  0  0  0  0  0  0  0  0
    6.1383  -17.4789   21.1881 C   0  0  1  0  0  0  0  0  0  0  0  0
    7.5811  -16.9126   21.1529 N   0  0  0  0  0  0  0  0  0  0  0  0
    8.5269  -17.8150   20.6263 C   0  0  0  0  0  0  0  0  0  0  0  0
    7.9657  -16.4661   22.4856 O   0  0  0  0  0  0  0  0  0  0  0  0
    8.6897  -17.2273   23.2230 N   0  0  0  0  0  0  0  0  0  0  0  0
    7.6277  -15.2373   23.1051 C   0  0  1  0  0  0  0  0  0  0  0  0
    7.9354  -14.9967   24.4865 C   0  0  0  0  0  0  0  0  0  0  0  0
    7.2329  -13.6695   24.8456 C   0  0  0  0  0  0  0  0  0  0  0  0
    7.3752  -13.3155   26.2602 C   0  0  0  0  0  0  0  0  0  0  0  0
    6.3380  -12.8386   27.0563 C   0  0  0  0  0  0  0  0  0  0  0  0
    6.5542  -12.5371   28.3775 C   0  0  0  0  0  0  0  0  0  0  0  0
    7.7920  -12.6937   28.9470 C   0  0  0  0  0  0  0  0  0  0  0  0
    8.8453  -13.1577   28.2068 C   0  0  0  0  0  0  0  0  0  0  0  0
    8.5999  -13.4585   26.8683 C   0  0  0  0  0  0  0  0  0  0  0  0
    7.4245  -16.0371   25.3824 O   0  0  0  0  0  0  0  0  0  0  0  0
    6.0908  -16.4294   25.1707 O   0  0  0  0  0  0  0  0  0  0  0  0
  1  2  1  0
  2  4  1  0
  2  3  2  0
  4  5  1  0
  6  5  1  0
  7  6  1  0
  8  7  1  0
  8  9  1  6
 10  8  1  0
 11 10  2  0
 13 12  1  0
 14 13  1  6
 14 16  1  0
 14 15  1  0
 15 10  1  0
 16 18  1  0
 17 16  2  0
 18 19  1  0
 19 27  1  0
 20 21  1  0
 19 20  1  1
 21 26  2  0
 22 23  2  0
 22 21  1  0
 23 24  1  0
 24 25  2  0
 26 25  1  0
 27 29  2  0
 27 28  1  0
M  END
$$$$
