RSF.pdb
     RDKit          3D

 29 29  0  0  1  0  0  0  0  0999 V2000
    9.8224  -14.0394   20.4381 N   0  0  0  0  0  0  0  0  0  0  0  0
    8.9161  -13.7840   19.3867 C   0  0  0  0  0  0  0  0  0  0  0  0
    9.0335  -12.8001   18.5739 N   0  0  0  0  0  0  0  0  0  0  0  0
    7.8223  -14.6820   19.2339 N   0  0  0  0  0  0  0  0  0  0  0  0
    7.5654  -15.7611   20.1553 C   0  0  0  0  0  0  0  0  0  0  0  0
    6.7305  -15.1427   21.2933 C   0  0  0  0  0  0  0  0  0  0  0  0
    5.4206  -15.8455   21.4312 C   0  0  0  0  0  0  0  0  0  0  0  0
    5.7120  -17.3636   21.5284 C   0  0  2  0  0  0  0  0  0  0  0  0
    4.4149  -18.0506   21.5466 N   0  0  0  0  0  0  0  0  0  0  0  0
    6.3612  -17.5020   22.8976 C   0  0  0  0  0  0  0  0  0  0  0  0
    5.7939  -16.8517   23.7869 O   0  0  0  0  0  0  0  0  0  0  0  0
    8.4300  -12.6447   17.7579 O   0  0  0  0  0  0  0  0  0  0  0  0
    9.6257  -20.3365   23.1742 C   0  0  0  0  0  0  0  0  0  0  0  0
    8.7602  -20.0655   24.2064 C   0  0  1  0  0  0  0  0  0  0  0  0
    8.2154  -18.6144   24.1750 N   0  0  0  0  0  0  0  0  0  0  0  0
    7.4845  -18.3129   23.0083 C   0  0  0  0  0  0  0  0  0  0  0  0
    9.3121  -17.6741   24.3658 O   0  0  0  0  0  0  0  0  0  0  0  0
    9.8495  -17.1137   23.3438 N   0  0  0  0  0  0  0  0  0  0  0  0
    9.8921  -17.2769   25.5963 C   0  0  1  0  0  0  0  0  0  0  0  0
   11.0998  -16.5017   25.6280 C   0  0  0  0  0  0  0  0  0  0  0  0
   10.6596  -15.0349   25.4309 C   0  0  0  0  0  0  0  0  0  0  0  0
    9.7884  -14.5534   26.5060 C   0  0  0  0  0  0  0  0  0  0  0  0
   10.1583  -14.4939   27.8463 C   0  0  0  0  0  0  0  0  0  0  0  0
    9.2828  -14.0215   28.7916 C   0  0  0  0  0  0  0  0  0  0  0  0
    8.0248  -13.5995   28.4448 C   0  0  0  0  0  0  0  0  0  0  0  0
    7.6120  -13.6393   27.1406 C   0  0  0  0  0  0  0  0  0  0  0  0
    8.5198  -14.1213   26.1995 C   0  0  0  0  0  0  0  0  0  0  0  0
   11.8125  -16.5936   26.9047 O   0  0  0  0  0  0  0  0  0  0  0  0
   11.1912  -17.3680   27.9006 O   0  0  0  0  0  0  0  0  0  0  0  0
  1  2  1  0
  2  4  1  0
  2  3  2  0
  4  5  1  0
  6  5  1  0
  7  6  1  0
  8  7  1  0
  8  9  1  1
 10  8  1  0
 11 10  2  0
 13 12  1  0
 14 13  1  1
 14 16  1  0
 14 15  1  0
 15 10  1  0
 16 18  1  0
 17 16  2  0
 18 19  1  0
 19 27  1  0
 20 21  1  0
 19 20  1  1
 21 26  2  0
 22 23  2  0
 22 21  1  0
 23 24  1  0
 24 25  2  0
 26 25  1  0
 27 29  2  0
 27 28  1  0
M  END
$$$$
