RSF.pdb
     RDKit          3D

 29 29  0  0  1  0  0  0  0  0999 V2000
   17.9603  -17.6997   18.0980 N   0  0  0  0  0  0  0  0  0  0  0  0
   17.3753  -18.6917   17.2820 C   0  0  0  0  0  0  0  0  0  0  0  0
   17.7422  -18.9236   16.0762 N   0  0  0  0  0  0  0  0  0  0  0  0
   16.3266  -19.4696   17.8487 N   0  0  0  0  0  0  0  0  0  0  0  0
   15.8366  -19.2589   19.1885 C   0  0  0  0  0  0  0  0  0  0  0  0
   14.3860  -18.7655   19.0249 C   0  0  0  0  0  0  0  0  0  0  0  0
   13.4979  -19.3812   20.0549 C   0  0  0  0  0  0  0  0  0  0  0  0
   12.0597  -18.8653   19.8015 C   0  0  2  0  0  0  0  0  0  0  0  0
   12.1229  -17.9654   18.6436 N   0  0  0  0  0  0  0  0  0  0  0  0
   11.7647  -18.0435   21.0478 C   0  0  0  0  0  0  0  0  0  0  0  0
   12.5526  -17.1034   21.2235 O   0  0  0  0  0  0  0  0  0  0  0  0
   17.3127  -19.6258   15.4624 O   0  0  0  0  0  0  0  0  0  0  0  0
    8.6517  -19.5339   23.5937 C   0  0  0  0  0  0  0  0  0  0  0  0
    8.6928  -18.1938   23.2934 C   0  0  1  0  0  0  0  0  0  0  0  0
   10.1117  -17.7027   22.9075 N   0  0  0  0  0  0  0  0  0  0  0  0
   10.6820  -18.4173   21.8349 C   0  0  0  0  0  0  0  0  0  0  0  0
   10.9774  -17.7337   24.0791 O   0  0  0  0  0  0  0  0  0  0  0  0
   11.7214  -18.7583   24.2887 N   0  0  0  0  0  0  0  0  0  0  0  0
   11.1123  -16.7277   25.0681 C   0  0  2  0  0  0  0  0  0  0  0  0
   11.9234  -16.9406   26.2331 C   0  0  0  0  0  0  0  0  0  0  0  0
   12.3661  -15.5357   26.6959 C   0  0  0  0  0  0  0  0  0  0  0  0
   11.2872  -14.7836   27.3418 C   0  0  0  0  0  0  0  0  0  0  0  0
   11.0987  -14.7112   28.7188 C   0  0  0  0  0  0  0  0  0  0  0  0
   10.0652  -13.9769   29.2441 C   0  0  0  0  0  0  0  0  0  0  0  0
    9.1923  -13.2995   28.4315 C   0  0  0  0  0  0  0  0  0  0  0  0
    9.3334  -13.3401   27.0709 C   0  0  0  0  0  0  0  0  0  0  0  0
   10.3914  -14.0910   26.5623 C   0  0  0  0  0  0  0  0  0  0  0  0
   11.1961  -17.5732   27.3364 O   0  0  0  0  0  0  0  0  0  0  0  0
    9.8121  -17.7346   27.1470 O   0  0  0  0  0  0  0  0  0  0  0  0
  1  2  1  0
  2  4  1  0
  2  3  2  0
  4  5  1  0
  6  5  1  0
  7  6  1  0
  8  7  1  0
  8  9  1  6
 10  8  1  0
 11 10  2  0
 13 12  1  0
 14 13  1  6
 14 16  1  0
 14 15  1  0
 15 10  1  0
 16 18  1  0
 17 16  2  0
 18 19  1  0
 19 27  1  0
 20 21  1  0
 19 20  1  1
 21 26  2  0
 22 23  2  0
 22 21  1  0
 23 24  1  0
 24 25  2  0
 26 25  1  0
 27 29  2  0
 27 28  1  0
M  END
$$$$
