RSF.pdb
     RDKit          3D

 29 29  0  0  1  0  0  0  0  0999 V2000
    9.0706  -15.2724   14.1478 N   0  0  0  0  0  0  0  0  0  0  0  0
    8.0438  -14.3194   13.9759 C   0  0  0  0  0  0  0  0  0  0  0  0
    7.2834  -14.2760   12.9452 N   0  0  0  0  0  0  0  0  0  0  0  0
    7.8547  -13.3672   15.0168 N   0  0  0  0  0  0  0  0  0  0  0  0
    8.6807  -13.3297   16.1983 C   0  0  0  0  0  0  0  0  0  0  0  0
    8.0759  -14.3722   17.1584 C   0  0  0  0  0  0  0  0  0  0  0  0
    8.4375  -14.0618   18.5732 C   0  0  0  0  0  0  0  0  0  0  0  0
    9.0143  -15.3539   19.2030 C   0  0  2  0  0  0  0  0  0  0  0  0
    8.6564  -16.4641   18.3118 N   0  0  0  0  0  0  0  0  0  0  0  0
    8.2248  -15.4876   20.4969 C   0  0  0  0  0  0  0  0  0  0  0  0
    7.5411  -14.4908   20.7696 O   0  0  0  0  0  0  0  0  0  0  0  0
    6.5104  -13.6117   12.8203 O   0  0  0  0  0  0  0  0  0  0  0  0
    8.3010  -19.3506   22.4008 C   0  0  0  0  0  0  0  0  0  0  0  0
    7.3167  -18.4208   22.6340 C   0  0  1  0  0  0  0  0  0  0  0  0
    7.8165  -16.9603   22.4898 N   0  0  0  0  0  0  0  0  0  0  0  0
    8.3468  -16.6703   21.2166 C   0  0  0  0  0  0  0  0  0  0  0  0
    8.7820  -16.6659   23.5407 O   0  0  0  0  0  0  0  0  0  0  0  0
   10.0309  -16.8702   23.3273 N   0  0  0  0  0  0  0  0  0  0  0  0
    8.5073  -16.1563   24.8342 C   0  0  1  0  0  0  0  0  0  0  0  0
    9.5368  -16.0776   25.8316 C   0  0  0  0  0  0  0  0  0  0  0  0
    9.7693  -14.5704   26.0733 C   0  0  0  0  0  0  0  0  0  0  0  0
    8.5219  -13.8269   26.2689 C   0  0  0  0  0  0  0  0  0  0  0  0
    7.6687  -13.4442   25.2382 C   0  0  0  0  0  0  0  0  0  0  0  0
    6.5132  -12.7549   25.5084 C   0  0  0  0  0  0  0  0  0  0  0  0
    6.1698  -12.4232   26.7941 C   0  0  0  0  0  0  0  0  0  0  0  0
    6.9756  -12.7749   27.8428 C   0  0  0  0  0  0  0  0  0  0  0  0
    8.1422  -13.4757   27.5426 C   0  0  0  0  0  0  0  0  0  0  0  0
    9.1539  -16.6877   27.1073 O   0  0  0  0  0  0  0  0  0  0  0  0
   10.1443  -16.6971   28.1055 O   0  0  0  0  0  0  0  0  0  0  0  0
  1  2  1  0
  2  4  1  0
  2  3  2  0
  4  5  1  0
  6  5  1  0
  7  6  1  0
  8  7  1  0
  8  9  1  6
 10  8  1  0
 11 10  2  0
 13 12  1  0
 14 13  1  6
 14 16  1  0
 14 15  1  0
 15 10  1  0
 16 18  1  0
 17 16  2  0
 18 19  1  0
 19 27  1  0
 20 21  1  0
 19 20  1  1
 21 26  2  0
 22 23  2  0
 22 21  1  0
 23 24  1  0
 24 25  2  0
 26 25  1  0
 27 29  2  0
 27 28  1  0
M  END
$$$$
