FDS.pdb
     RDKit          3D

 26 26  0  0  1  0  0  0  0  0999 V2000
   36.5743  -23.3432    4.7771 N   0  0  0  0  0  0  0  0  0  0  0  0
   35.7315  -23.6055    5.9136 C   0  0  1  0  0  0  0  0  0  0  0  0
   34.2760  -23.7367    5.5243 C   0  0  0  0  0  0  0  0  0  0  0  0
   33.6502  -22.4671    5.1499 C   0  0  0  0  0  0  0  0  0  0  0  0
   33.1288  -22.2851    3.8953 C   0  0  0  0  0  0  0  0  0  0  0  0
   32.5298  -21.0728    3.5329 C   0  0  0  0  0  0  0  0  0  0  0  0
   32.4720  -20.0664    4.4546 C   0  0  0  0  0  0  0  0  0  0  0  0
   32.9893  -20.2273    5.7205 C   0  0  0  0  0  0  0  0  0  0  0  0
   33.5807  -21.4419    6.0593 C   0  0  0  0  0  0  0  0  0  0  0  0
   36.1349  -24.8842    6.5290 C   0  0  0  0  0  0  0  0  0  0  0  0
   36.6084  -25.7964    5.8294 O   0  0  0  0  0  0  0  0  0  0  0  0
   35.9873  -25.0805    7.9083 N   0  0  0  0  0  0  0  0  0  0  0  0
   36.4648  -26.2354    8.6276 C   0  0  1  0  0  0  0  0  0  0  0  0
   36.9777  -25.9280    9.9907 C   0  0  0  0  0  0  0  0  0  0  0  0
   36.0213  -25.2612   10.8734 C   0  0  0  0  0  0  0  0  0  0  0  0
   35.4153  -24.2492   10.4135 O   0  0  0  0  0  0  0  0  0  0  0  0
   35.4256  -27.2764    8.5967 C   0  0  0  0  0  0  0  0  0  0  0  0
   34.1978  -27.0014    8.6455 O   0  0  0  0  0  0  0  0  0  0  0  0
   35.7148  -25.6308   12.1652 O   0  0  0  0  0  0  0  0  0  0  0  0
   34.4922  -32.0117    7.8102 O   0  0  0  0  0  0  0  0  0  0  0  0
   35.4255  -30.9751    7.9982 C   0  0  0  0  0  0  0  0  0  0  0  0
   34.7131  -29.6845    8.3908 C   0  0  2  0  0  0  0  0  0  0  0  0
   35.7456  -28.6761    8.5086 N   0  0  0  0  0  0  0  0  0  0  0  0
   34.0634  -29.8574    9.6988 C   0  0  0  0  0  0  0  0  0  0  0  0
   32.7801  -30.3592    9.8248 O   0  0  0  0  0  0  0  0  0  0  0  0
   34.6827  -29.5434   10.7414 O   0  0  0  0  0  0  0  0  0  0  0  0
  2  1  1  6
  2 10  1  0
  3  2  1  0
  4  5  2  0
  4  3  1  0
  6  5  1  0
  7  6  2  0
  8  7  1  0
  8  9  2  0
  9  4  1  0
 10 11  2  0
 10 12  1  0
 12 13  1  0
 13 14  1  1
 14 15  1  0
 15 16  2  0
 15 19  1  0
 17 13  1  0
 17 18  2  0
 20 21  1  0
 22 21  1  1
 22 24  1  0
 22 23  1  0
 23 17  1  0
 24 25  1  0
 26 24  2  0
M  END
$$$$
