FDS.pdb
     RDKit          3D

 26 26  0  0  1  0  0  0  0  0999 V2000
   23.1598  -17.4250  -17.8810 N   0  0  0  0  0  0  0  0  0  0  0  0
   22.9474  -18.2546  -16.7245 C   0  0  1  0  0  0  0  0  0  0  0  0
   23.0579  -17.4723  -15.4350 C   0  0  0  0  0  0  0  0  0  0  0  0
   24.3224  -16.7480  -15.2925 C   0  0  0  0  0  0  0  0  0  0  0  0
   25.5217  -17.4045  -15.3902 C   0  0  0  0  0  0  0  0  0  0  0  0
   26.7331  -16.7161  -15.2544 C   0  0  0  0  0  0  0  0  0  0  0  0
   26.7022  -15.3706  -15.0212 C   0  0  0  0  0  0  0  0  0  0  0  0
   25.5090  -14.6910  -14.9193 C   0  0  0  0  0  0  0  0  0  0  0  0
   24.3160  -15.3961  -15.0579 C   0  0  0  0  0  0  0  0  0  0  0  0
   21.5846  -18.8172  -16.7775 C   0  0  0  0  0  0  0  0  0  0  0  0
   20.6307  -18.1178  -17.1606 O   0  0  0  0  0  0  0  0  0  0  0  0
   21.3547  -20.1455  -16.3961 N   0  0  0  0  0  0  0  0  0  0  0  0
   20.1004  -20.8387  -16.5557 C   0  0  1  0  0  0  0  0  0  0  0  0
   20.2356  -22.2085  -17.1221 C   0  0  0  0  0  0  0  0  0  0  0  0
   20.7632  -22.2628  -18.4850 C   0  0  0  0  0  0  0  0  0  0  0  0
   21.7756  -22.9958  -18.6865 O   0  0  0  0  0  0  0  0  0  0  0  0
   19.3632  -20.7840  -15.2836 C   0  0  0  0  0  0  0  0  0  0  0  0
   19.9425  -20.8560  -14.1680 O   0  0  0  0  0  0  0  0  0  0  0  0
   20.2610  -21.5888  -19.5772 O   0  0  0  0  0  0  0  0  0  0  0  0
   16.5330  -18.2471  -14.1291 O   0  0  0  0  0  0  0  0  0  0  0  0
   16.0735  -19.5751  -14.2084 C   0  0  0  0  0  0  0  0  0  0  0  0
   17.2237  -20.5495  -13.9736 C   0  0  2  0  0  0  0  0  0  0  0  0
   17.9323  -20.6447  -15.2327 N   0  0  0  0  0  0  0  0  0  0  0  0
   16.6859  -21.8737  -13.6271 C   0  0  0  0  0  0  0  0  0  0  0  0
   16.4229  -22.2446  -12.3203 O   0  0  0  0  0  0  0  0  0  0  0  0
   16.4539  -22.7025  -14.5373 O   0  0  0  0  0  0  0  0  0  0  0  0
  2  1  1  6
  2 10  1  0
  3  2  1  0
  4  5  2  0
  4  3  1  0
  6  5  1  0
  7  6  2  0
  8  7  1  0
  8  9  2  0
  9  4  1  0
 10 11  2  0
 10 12  1  0
 12 13  1  0
 13 14  1  1
 14 15  1  0
 15 16  2  0
 15 19  1  0
 17 13  1  0
 17 18  2  0
 20 21  1  0
 22 21  1  6
 22 24  1  0
 22 23  1  0
 23 17  1  0
 24 25  1  0
 26 24  2  0
M  END
$$$$
