FDS.pdb
     RDKit          3D

 26 26  0  0  1  0  0  0  0  0999 V2000
   22.7299  -20.0554  -16.4870 N   0  0  0  0  0  0  0  0  0  0  0  0
   21.4160  -19.5211  -16.2443 C   0  0  1  0  0  0  0  0  0  0  0  0
   20.5358  -19.5952  -17.4719 C   0  0  0  0  0  0  0  0  0  0  0  0
   20.9225  -18.6606  -18.5306 C   0  0  0  0  0  0  0  0  0  0  0  0
   21.7036  -19.0725  -19.5790 C   0  0  0  0  0  0  0  0  0  0  0  0
   22.0760  -18.1823  -20.5932 C   0  0  0  0  0  0  0  0  0  0  0  0
   21.6463  -16.8876  -20.5224 C   0  0  0  0  0  0  0  0  0  0  0  0
   20.8610  -16.4523  -19.4784 C   0  0  0  0  0  0  0  0  0  0  0  0
   20.5026  -17.3553  -18.4804 C   0  0  0  0  0  0  0  0  0  0  0  0
   20.7591  -20.3153  -15.1886 C   0  0  0  0  0  0  0  0  0  0  0  0
   21.1525  -21.4665  -14.9320 O   0  0  0  0  0  0  0  0  0  0  0  0
   19.6859  -19.7776  -14.4663 N   0  0  0  0  0  0  0  0  0  0  0  0
   19.1029  -20.3809  -13.2935 C   0  0  1  0  0  0  0  0  0  0  0  0
   19.2559  -19.5670  -12.0567 C   0  0  0  0  0  0  0  0  0  0  0  0
   20.5934  -19.5891  -11.4656 C   0  0  0  0  0  0  0  0  0  0  0  0
   20.8029  -18.8281  -10.4759 O   0  0  0  0  0  0  0  0  0  0  0  0
   17.7139  -20.7599  -13.5960 C   0  0  0  0  0  0  0  0  0  0  0  0
   16.8793  -19.9389  -14.0594 O   0  0  0  0  0  0  0  0  0  0  0  0
   21.6535  -20.3634  -11.8852 O   0  0  0  0  0  0  0  0  0  0  0  0
   16.4400  -24.4108  -12.4026 O   0  0  0  0  0  0  0  0  0  0  0  0
   15.7695  -23.9685  -13.5583 C   0  0  0  0  0  0  0  0  0  0  0  0
   15.8451  -22.4486  -13.6667 C   0  0  2  0  0  0  0  0  0  0  0  0
   17.2198  -22.0939  -13.3817 N   0  0  0  0  0  0  0  0  0  0  0  0
   14.9741  -21.8374  -12.6517 C   0  0  0  0  0  0  0  0  0  0  0  0
   13.5939  -21.8834  -12.7391 O   0  0  0  0  0  0  0  0  0  0  0  0
   15.4873  -21.2524  -11.6700 O   0  0  0  0  0  0  0  0  0  0  0  0
  2  1  1  6
  2 10  1  0
  3  2  1  0
  4  5  2  0
  4  3  1  0
  6  5  1  0
  7  6  2  0
  8  7  1  0
  8  9  2  0
  9  4  1  0
 10 11  2  0
 10 12  1  0
 12 13  1  0
 13 14  1  1
 14 15  1  0
 15 16  2  0
 15 19  1  0
 17 13  1  0
 17 18  2  0
 20 21  1  0
 22 21  1  1
 22 24  1  0
 22 23  1  0
 23 17  1  0
 24 25  1  0
 26 24  2  0
M  END
$$$$
