FDS.pdb
     RDKit          3D

 26 26  0  0  1  0  0  0  0  0999 V2000
   24.9535  -10.1584  -18.4498 N   0  0  0  0  0  0  0  0  0  0  0  0
   24.6376   -9.4143  -17.2593 C   0  0  1  0  0  0  0  0  0  0  0  0
   25.8315   -8.6497  -16.7327 C   0  0  0  0  0  0  0  0  0  0  0  0
   27.0064   -9.4884  -16.4884 C   0  0  0  0  0  0  0  0  0  0  0  0
   28.1686   -9.2884  -17.1870 C   0  0  0  0  0  0  0  0  0  0  0  0
   29.2944  -10.0881  -16.9569 C   0  0  0  0  0  0  0  0  0  0  0  0
   29.2172  -11.0781  -16.0191 C   0  0  0  0  0  0  0  0  0  0  0  0
   28.0599  -11.2968  -15.3057 C   0  0  0  0  0  0  0  0  0  0  0  0
   26.9522  -10.4890  -15.5511 C   0  0  0  0  0  0  0  0  0  0  0  0
   23.5897   -8.4241  -17.5725 C   0  0  0  0  0  0  0  0  0  0  0  0
   23.2369   -8.2338  -18.7494 O   0  0  0  0  0  0  0  0  0  0  0  0
   22.9833   -7.6901  -16.5448 N   0  0  0  0  0  0  0  0  0  0  0  0
   21.8948   -6.7631  -16.7318 C   0  0  1  0  0  0  0  0  0  0  0  0
   21.1321   -6.4689  -15.4879 C   0  0  0  0  0  0  0  0  0  0  0  0
   20.3181   -7.5759  -14.9874 C   0  0  0  0  0  0  0  0  0  0  0  0
   19.8965   -8.4158  -15.8357 O   0  0  0  0  0  0  0  0  0  0  0  0
   22.4033   -5.5677  -17.4224 C   0  0  0  0  0  0  0  0  0  0  0  0
   23.5044   -5.0360  -17.1221 O   0  0  0  0  0  0  0  0  0  0  0  0
   19.9640   -7.7936  -13.6734 O   0  0  0  0  0  0  0  0  0  0  0  0
   22.1521   -5.1025  -21.2551 O   0  0  0  0  0  0  0  0  0  0  0  0
   21.6808   -3.9271  -20.6410 C   0  0  0  0  0  0  0  0  0  0  0  0
   22.2300   -3.8128  -19.2222 C   0  0  2  0  0  0  0  0  0  0  0  0
   21.6747   -4.9291  -18.4858 N   0  0  0  0  0  0  0  0  0  0  0  0
   21.7633   -2.5588  -18.6118 C   0  0  0  0  0  0  0  0  0  0  0  0
   22.1751   -1.3187  -19.0666 O   0  0  0  0  0  0  0  0  0  0  0  0
   20.9658   -2.6021  -17.6467 O   0  0  0  0  0  0  0  0  0  0  0  0
  2  1  1  6
  2 10  1  0
  3  2  1  0
  4  5  2  0
  4  3  1  0
  6  5  1  0
  7  6  2  0
  8  7  1  0
  8  9  2  0
  9  4  1  0
 10 11  2  0
 10 12  1  0
 12 13  1  0
 13 14  1  1
 14 15  1  0
 15 16  2  0
 15 19  1  0
 17 13  1  0
 17 18  2  0
 20 21  1  0
 22 21  1  6
 22 24  1  0
 22 23  1  0
 23 17  1  0
 24 25  1  0
 26 24  2  0
M  END
$$$$
