FDS.pdb
     RDKit          3D

 26 26  0  0  1  0  0  0  0  0999 V2000
   20.7770  -11.1247  -17.6721 N   0  0  0  0  0  0  0  0  0  0  0  0
   20.9937   -9.9906  -18.5311 C   0  0  1  0  0  0  0  0  0  0  0  0
   20.2222  -10.1029  -19.8270 C   0  0  0  0  0  0  0  0  0  0  0  0
   20.6198  -11.2457  -20.6515 C   0  0  0  0  0  0  0  0  0  0  0  0
   21.9370  -11.4608  -20.9638 C   0  0  0  0  0  0  0  0  0  0  0  0
   22.3217  -12.5519  -21.7521 C   0  0  0  0  0  0  0  0  0  0  0  0
   21.3580  -13.4054  -22.2089 C   0  0  0  0  0  0  0  0  0  0  0  0
   20.0289  -13.2084  -21.9075 C   0  0  0  0  0  0  0  0  0  0  0  0
   19.6691  -12.1162  -21.1216 C   0  0  0  0  0  0  0  0  0  0  0  0
   20.5230   -8.7706  -17.8481 C   0  0  0  0  0  0  0  0  0  0  0  0
   20.4915   -7.6846  -18.4526 O   0  0  0  0  0  0  0  0  0  0  0  0
   20.1074   -8.8265  -16.5114 N   0  0  0  0  0  0  0  0  0  0  0  0
   19.6190   -7.6989  -15.7569 C   0  0  1  0  0  0  0  0  0  0  0  0
   18.5933   -8.0529  -14.7381 C   0  0  0  0  0  0  0  0  0  0  0  0
   17.3316   -8.5544  -15.2817 C   0  0  0  0  0  0  0  0  0  0  0  0
   16.6765   -7.7784  -16.0376 O   0  0  0  0  0  0  0  0  0  0  0  0
   20.7685   -6.9542  -15.2196 C   0  0  0  0  0  0  0  0  0  0  0  0
   21.7094   -7.5227  -14.6057 O   0  0  0  0  0  0  0  0  0  0  0  0
   16.7846   -9.7976  -15.0486 O   0  0  0  0  0  0  0  0  0  0  0  0
   23.0998   -2.6549  -15.1350 O   0  0  0  0  0  0  0  0  0  0  0  0
   22.0238   -3.4493  -15.5733 C   0  0  0  0  0  0  0  0  0  0  0  0
   22.0668   -4.8184  -14.9016 C   0  0  2  0  0  0  0  0  0  0  0  0
   20.8912   -5.5279  -15.3612 N   0  0  0  0  0  0  0  0  0  0  0  0
   21.9857   -4.6550  -13.4423 C   0  0  0  0  0  0  0  0  0  0  0  0
   23.1135   -4.5472  -12.6480 O   0  0  0  0  0  0  0  0  0  0  0  0
   20.8632   -4.6107  -12.8881 O   0  0  0  0  0  0  0  0  0  0  0  0
  2  1  1  1
  2 10  1  0
  3  2  1  0
  4  5  2  0
  4  3  1  0
  6  5  1  0
  7  6  2  0
  8  7  1  0
  8  9  2  0
  9  4  1  0
 10 11  2  0
 10 12  1  0
 12 13  1  0
 13 14  1  1
 14 15  1  0
 15 16  2  0
 15 19  1  0
 17 13  1  0
 17 18  2  0
 20 21  1  0
 22 21  1  6
 22 24  1  0
 22 23  1  0
 23 17  1  0
 24 25  1  0
 26 24  2  0
M  END
$$$$
