FDS.pdb
     RDKit          3D

 26 26  0  0  1  0  0  0  0  0999 V2000
   24.2775  -11.8569  -18.3650 N   0  0  0  0  0  0  0  0  0  0  0  0
   23.7550  -11.5320  -17.0642 C   0  0  1  0  0  0  0  0  0  0  0  0
   24.8491  -11.3993  -16.0285 C   0  0  0  0  0  0  0  0  0  0  0  0
   25.5937  -12.6385  -15.7969 C   0  0  0  0  0  0  0  0  0  0  0  0
   26.8815  -12.7772  -16.2453 C   0  0  0  0  0  0  0  0  0  0  0  0
   27.5971  -13.9604  -16.0263 C   0  0  0  0  0  0  0  0  0  0  0  0
   26.9887  -14.9821  -15.3543 C   0  0  0  0  0  0  0  0  0  0  0  0
   25.6960  -14.8644  -14.8950 C   0  0  0  0  0  0  0  0  0  0  0  0
   25.0029  -13.6783  -15.1241 C   0  0  0  0  0  0  0  0  0  0  0  0
   23.0607  -10.2321  -17.1336 C   0  0  0  0  0  0  0  0  0  0  0  0
   23.4967   -9.3252  -17.8637 O   0  0  0  0  0  0  0  0  0  0  0  0
   21.9032  -10.0095  -16.3762 N   0  0  0  0  0  0  0  0  0  0  0  0
   21.0788   -8.8300  -16.4665 C   0  0  1  0  0  0  0  0  0  0  0  0
   19.6195   -9.1168  -16.5279 C   0  0  0  0  0  0  0  0  0  0  0  0
   19.2329  -10.1421  -17.4963 C   0  0  0  0  0  0  0  0  0  0  0  0
   19.3679   -9.8614  -18.7234 O   0  0  0  0  0  0  0  0  0  0  0  0
   21.4642   -7.8989  -15.3945 C   0  0  0  0  0  0  0  0  0  0  0  0
   22.1465   -8.2637  -14.4012 O   0  0  0  0  0  0  0  0  0  0  0  0
   18.7328  -11.3915  -17.1995 O   0  0  0  0  0  0  0  0  0  0  0  0
   23.1817   -4.7328  -15.9851 O   0  0  0  0  0  0  0  0  0  0  0  0
   23.0409   -5.3466  -14.7265 C   0  0  0  0  0  0  0  0  0  0  0  0
   21.5665   -5.5809  -14.4122 C   0  0  2  0  0  0  0  0  0  0  0  0
   21.0859   -6.5111  -15.4124 N   0  0  0  0  0  0  0  0  0  0  0  0
   20.8271   -4.3162  -14.5421 C   0  0  0  0  0  0  0  0  0  0  0  0
   20.9107   -3.3118  -13.5941 O   0  0  0  0  0  0  0  0  0  0  0  0
   20.0935   -4.1304  -15.5403 O   0  0  0  0  0  0  0  0  0  0  0  0
  2  1  1  6
  2 10  1  0
  3  2  1  0
  4  5  2  0
  4  3  1  0
  6  5  1  0
  7  6  2  0
  8  7  1  0
  8  9  2  0
  9  4  1  0
 10 11  2  0
 10 12  1  0
 12 13  1  0
 13 14  1  1
 14 15  1  0
 15 16  2  0
 15 19  1  0
 17 13  1  0
 17 18  2  0
 20 21  1  0
 22 21  1  6
 22 24  1  0
 22 23  1  0
 23 17  1  0
 24 25  1  0
 26 24  2  0
M  END
$$$$
