FDS.pdb
     RDKit          3D

 26 26  0  0  1  0  0  0  0  0999 V2000
   28.4671  -20.8831   -9.7331 N   0  0  0  0  0  0  0  0  0  0  0  0
   27.0596  -20.9105   -9.4347 C   0  0  1  0  0  0  0  0  0  0  0  0
   26.6870  -19.9173   -8.3568 C   0  0  0  0  0  0  0  0  0  0  0  0
   27.5378  -19.9926   -7.1676 C   0  0  0  0  0  0  0  0  0  0  0  0
   28.4841  -20.9764   -7.0433 C   0  0  0  0  0  0  0  0  0  0  0  0
   29.2995  -21.0523   -5.9078 C   0  0  0  0  0  0  0  0  0  0  0  0
   29.1371  -20.1248   -4.9183 C   0  0  0  0  0  0  0  0  0  0  0  0
   28.1928  -19.1281   -5.0223 C   0  0  0  0  0  0  0  0  0  0  0  0
   27.3926  -19.0717   -6.1608 C   0  0  0  0  0  0  0  0  0  0  0  0
   26.3020  -20.5434  -10.6463 C   0  0  0  0  0  0  0  0  0  0  0  0
   26.6055  -19.5258  -11.2928 O   0  0  0  0  0  0  0  0  0  0  0  0
   25.2333  -21.3399  -11.0780 N   0  0  0  0  0  0  0  0  0  0  0  0
   24.4396  -21.0796  -12.2533 C   0  0  1  0  0  0  0  0  0  0  0  0
   24.7481  -21.9760  -13.4008 C   0  0  0  0  0  0  0  0  0  0  0  0
   25.9835  -21.6587  -14.1163 C   0  0  0  0  0  0  0  0  0  0  0  0
   26.9086  -22.5225  -14.0878 O   0  0  0  0  0  0  0  0  0  0  0  0
   23.0190  -21.0592  -11.8711 C   0  0  0  0  0  0  0  0  0  0  0  0
   22.5631  -21.7762  -10.9419 O   0  0  0  0  0  0  0  0  0  0  0  0
   26.2384  -20.5030  -14.8224 O   0  0  0  0  0  0  0  0  0  0  0  0
   20.3491  -17.8512  -12.1149 O   0  0  0  0  0  0  0  0  0  0  0  0
   20.0321  -19.0152  -12.8397 C   0  0  0  0  0  0  0  0  0  0  0  0
   20.6561  -20.2394  -12.1769 C   0  0  2  0  0  0  0  0  0  0  0  0
   22.0590  -20.2182  -12.5349 N   0  0  0  0  0  0  0  0  0  0  0  0
   20.0432  -21.4610  -12.7201 C   0  0  0  0  0  0  0  0  0  0  0  0
   18.8962  -22.0145  -12.1793 O   0  0  0  0  0  0  0  0  0  0  0  0
   20.5682  -22.0287  -13.7056 O   0  0  0  0  0  0  0  0  0  0  0  0
  2  1  1  6
  2 10  1  0
  3  2  1  0
  4  5  2  0
  4  3  1  0
  6  5  1  0
  7  6  2  0
  8  7  1  0
  8  9  2  0
  9  4  1  0
 10 11  2  0
 10 12  1  0
 12 13  1  0
 13 14  1  6
 14 15  1  0
 15 16  2  0
 15 19  1  0
 17 13  1  0
 17 18  2  0
 20 21  1  0
 22 21  1  6
 22 24  1  0
 22 23  1  0
 23 17  1  0
 24 25  1  0
 26 24  2  0
M  END
$$$$
