FDS.pdb
     RDKit          3D

 26 26  0  0  1  0  0  0  0  0999 V2000
   25.0444  -10.6055  -18.2459 N   0  0  0  0  0  0  0  0  0  0  0  0
   24.6531  -10.3455  -16.8857 C   0  0  1  0  0  0  0  0  0  0  0  0
   25.7594   -9.6881  -16.0912 C   0  0  0  0  0  0  0  0  0  0  0  0
   26.9680  -10.5065  -15.9765 C   0  0  0  0  0  0  0  0  0  0  0  0
   28.0896  -10.2073  -16.7054 C   0  0  0  0  0  0  0  0  0  0  0  0
   29.2472  -10.9873  -16.5991 C   0  0  0  0  0  0  0  0  0  0  0  0
   29.2428  -12.0588  -15.7520 C   0  0  0  0  0  0  0  0  0  0  0  0
   28.1274  -12.3776  -15.0103 C   0  0  0  0  0  0  0  0  0  0  0  0
   26.9867  -11.5878  -15.1319 C   0  0  0  0  0  0  0  0  0  0  0  0
   23.5046   -9.4195  -16.8822 C   0  0  0  0  0  0  0  0  0  0  0  0
   23.2945   -8.6755  -17.8559 O   0  0  0  0  0  0  0  0  0  0  0  0
   22.6408   -9.3715  -15.7802 N   0  0  0  0  0  0  0  0  0  0  0  0
   21.3604   -8.7085  -15.7706 C   0  0  1  0  0  0  0  0  0  0  0  0
   20.3607   -9.3396  -14.8663 C   0  0  0  0  0  0  0  0  0  0  0  0
   19.0636   -8.6660  -14.8154 C   0  0  0  0  0  0  0  0  0  0  0  0
   18.3889   -8.6248  -15.8859 O   0  0  0  0  0  0  0  0  0  0  0  0
   21.5714   -7.2732  -15.5257 C   0  0  0  0  0  0  0  0  0  0  0  0
   22.1828   -6.8479  -14.5105 O   0  0  0  0  0  0  0  0  0  0  0  0
   18.5022   -8.0686  -13.7077 O   0  0  0  0  0  0  0  0  0  0  0  0
   20.6158   -4.5408  -18.4633 O   0  0  0  0  0  0  0  0  0  0  0  0
   21.6211   -4.2236  -17.5309 C   0  0  0  0  0  0  0  0  0  0  0  0
   21.3074   -4.8536  -16.1773 C   0  0  2  0  0  0  0  0  0  0  0  0
   21.0924   -6.2629  -16.4309 N   0  0  0  0  0  0  0  0  0  0  0  0
   20.0696   -4.2716  -15.6369 C   0  0  0  0  0  0  0  0  0  0  0  0
   18.8885   -4.9884  -15.5620 O   0  0  0  0  0  0  0  0  0  0  0  0
   20.0723   -3.0878  -15.2275 O   0  0  0  0  0  0  0  0  0  0  0  0
  2  1  1  6
  2 10  1  0
  3  2  1  0
  4  5  2  0
  4  3  1  0
  6  5  1  0
  7  6  2  0
  8  7  1  0
  8  9  2  0
  9  4  1  0
 10 11  2  0
 10 12  1  0
 12 13  1  0
 13 14  1  1
 14 15  1  0
 15 16  2  0
 15 19  1  0
 17 13  1  0
 17 18  2  0
 20 21  1  0
 22 21  1  6
 22 24  1  0
 22 23  1  0
 23 17  1  0
 24 25  1  0
 26 24  2  0
M  END
$$$$
