FDS.pdb
     RDKit          3D

 26 26  0  0  1  0  0  0  0  0999 V2000
   24.4978  -11.1258  -17.5300 N   0  0  0  0  0  0  0  0  0  0  0  0
   24.2784  -10.2301  -16.4253 C   0  0  1  0  0  0  0  0  0  0  0  0
   25.5527   -9.5429  -15.9882 C   0  0  0  0  0  0  0  0  0  0  0  0
   26.6940  -10.4500  -15.8530 C   0  0  0  0  0  0  0  0  0  0  0  0
   26.6765  -11.4674  -14.9346 C   0  0  0  0  0  0  0  0  0  0  0  0
   27.7656  -12.3369  -14.8017 C   0  0  0  0  0  0  0  0  0  0  0  0
   28.8541  -12.1553  -15.6067 C   0  0  0  0  0  0  0  0  0  0  0  0
   28.8931  -11.1401  -16.5361 C   0  0  0  0  0  0  0  0  0  0  0  0
   27.7982  -10.2869  -16.6510 C   0  0  0  0  0  0  0  0  0  0  0  0
   23.3342   -9.1748  -16.8395 C   0  0  0  0  0  0  0  0  0  0  0  0
   23.1380   -8.9455  -18.0456 O   0  0  0  0  0  0  0  0  0  0  0  0
   22.6507   -8.4221  -15.8757 N   0  0  0  0  0  0  0  0  0  0  0  0
   21.6322   -7.4447  -16.1697 C   0  0  1  0  0  0  0  0  0  0  0  0
   20.4783   -7.4739  -15.2300 C   0  0  0  0  0  0  0  0  0  0  0  0
   19.3998   -6.5390  -15.5487 C   0  0  0  0  0  0  0  0  0  0  0  0
   18.9204   -5.8592  -14.5943 O   0  0  0  0  0  0  0  0  0  0  0  0
   22.2667   -6.1239  -16.3022 C   0  0  0  0  0  0  0  0  0  0  0  0
   22.8751   -5.5723  -15.3478 O   0  0  0  0  0  0  0  0  0  0  0  0
   18.8524   -6.3258  -16.7954 O   0  0  0  0  0  0  0  0  0  0  0  0
   24.3048   -4.8278  -19.4627 O   0  0  0  0  0  0  0  0  0  0  0  0
   23.2568   -3.9488  -19.1311 C   0  0  0  0  0  0  0  0  0  0  0  0
   22.8894   -4.0930  -17.6574 C   0  0  2  0  0  0  0  0  0  0  0  0
   22.2327   -5.3774  -17.5314 N   0  0  0  0  0  0  0  0  0  0  0  0
   21.9425   -3.0335  -17.2787 C   0  0  0  0  0  0  0  0  0  0  0  0
   22.3303   -1.7127  -17.1385 O   0  0  0  0  0  0  0  0  0  0  0  0
   20.7414   -3.3242  -17.0736 O   0  0  0  0  0  0  0  0  0  0  0  0
  2  1  1  6
  2 10  1  0
  3  2  1  0
  4  5  2  0
  4  3  1  0
  6  5  1  0
  7  6  2  0
  8  7  1  0
  8  9  2  0
  9  4  1  0
 10 11  2  0
 10 12  1  0
 12 13  1  0
 13 14  1  1
 14 15  1  0
 15 16  2  0
 15 19  1  0
 17 13  1  0
 17 18  2  0
 20 21  1  0
 22 21  1  6
 22 24  1  0
 22 23  1  0
 23 17  1  0
 24 25  1  0
 26 24  2  0
M  END
$$$$
