INQ.pdb
     RDKit          3D

 26 25  0  0  1  0  0  0  0  0999 V2000
   29.2379  -20.9744  -12.8934 C   0  0  0  0  0  0  0  0  0  0  0  0
   28.0794  -21.2398  -11.9953 C   0  0  0  0  0  0  0  0  0  0  0  0
   26.8203  -20.4976  -12.3918 C   0  0  2  0  0  0  0  0  0  0  0  0
   27.1576  -19.0514  -12.5214 C   0  0  0  0  0  0  0  0  0  0  0  0
   25.6711  -20.8097  -11.4776 C   0  0  2  0  0  0  0  0  0  0  0  0
   25.5081  -22.2752  -11.5618 N   0  0  0  0  0  0  0  0  0  0  0  0
   24.4177  -20.2168  -11.9821 C   0  0  0  0  0  0  0  0  0  0  0  0
   24.1699  -18.9835  -11.9548 O   0  0  0  0  0  0  0  0  0  0  0  0
   23.1690  -18.7537  -16.8837 N   0  0  0  0  0  0  0  0  0  0  0  0
   22.6180  -19.6473  -15.9396 C   0  0  0  0  0  0  0  0  0  0  0  0
   21.4319  -20.0141  -16.0679 O   0  0  0  0  0  0  0  0  0  0  0  0
   23.4190  -20.1439  -14.8198 C   0  0  0  0  0  0  0  0  0  0  0  0
   22.5281  -20.4770  -13.6475 C   0  0  2  0  0  0  0  0  0  0  0  0
   23.3725  -21.0213  -12.5510 N   0  0  0  0  0  0  0  0  0  0  0  0
   21.6286  -21.5707  -14.0327 C   0  0  0  0  0  0  0  0  0  0  0  0
   22.1538  -22.6891  -14.3757 O   0  0  0  0  0  0  0  0  0  0  0  0
   20.5633  -22.9969   -9.3294 N   0  0  0  0  0  0  0  0  0  0  0  0
   19.5018  -23.8053   -9.7825 C   0  0  0  0  0  0  0  0  0  0  0  0
   18.9882  -24.6452   -9.0250 O   0  0  0  0  0  0  0  0  0  0  0  0
   18.9976  -23.6483  -11.1759 C   0  0  0  0  0  0  0  0  0  0  0  0
   19.8225  -22.6698  -11.9541 C   0  0  0  0  0  0  0  0  0  0  0  0
   19.4218  -22.5861  -13.4078 C   0  0  2  0  0  0  0  0  0  0  0  0
   20.2220  -21.5482  -14.0679 N   0  0  0  0  0  0  0  0  0  0  0  0
   17.9898  -22.3037  -13.5378 C   0  0  0  0  0  0  0  0  0  0  0  0
   17.1581  -23.2122  -13.1961 O   0  0  0  0  0  0  0  0  0  0  0  0
   17.4496  -21.1222  -14.0013 O   0  0  0  0  0  0  0  0  0  0  0  0
  2  1  1  0
  3  5  1  0
  3  2  1  0
  3  4  1  1
  5  6  1  6
  7  5  1  0
  7  8  2  0
  9 10  1  0
 10 12  1  0
 10 11  2  0
 13 12  1  6
 13 14  1  0
 14  7  1  0
 15 23  1  0
 15 13  1  0
 16 15  2  0
 18 17  1  0
 18 19  2  0
 20 21  1  0
 20 18  1  0
 22 21  1  1
 22 23  1  0
 22 24  1  0
 24 25  2  0
 24 26  1  0
M  END
$$$$
