INQ.pdb
     RDKit          3D

 26 25  0  0  1  0  0  0  0  0999 V2000
   29.5335  -21.4926  -17.1028 C   0  0  0  0  0  0  0  0  0  0  0  0
   28.4685  -20.5275  -16.7112 C   0  0  0  0  0  0  0  0  0  0  0  0
   27.3648  -21.1452  -15.8781 C   0  0  2  0  0  0  0  0  0  0  0  0
   26.8712  -22.3577  -16.5909 C   0  0  0  0  0  0  0  0  0  0  0  0
   26.3099  -20.1429  -15.5089 C   0  0  2  0  0  0  0  0  0  0  0  0
   27.0336  -19.0847  -14.7756 N   0  0  0  0  0  0  0  0  0  0  0  0
   25.3380  -20.7224  -14.5620 C   0  0  0  0  0  0  0  0  0  0  0  0
   24.5628  -21.6702  -14.8519 O   0  0  0  0  0  0  0  0  0  0  0  0
   26.7666  -20.6854   -9.7403 N   0  0  0  0  0  0  0  0  0  0  0  0
   25.7130  -21.2776  -10.4701 C   0  0  0  0  0  0  0  0  0  0  0  0
   25.7788  -22.4897  -10.7601 O   0  0  0  0  0  0  0  0  0  0  0  0
   24.5527  -20.4888  -10.8868 C   0  0  0  0  0  0  0  0  0  0  0  0
   24.1806  -20.8200  -12.3119 C   0  0  2  0  0  0  0  0  0  0  0  0
   25.2062  -20.2360  -13.2168 N   0  0  0  0  0  0  0  0  0  0  0  0
   22.9258  -20.1355  -12.6445 C   0  0  0  0  0  0  0  0  0  0  0  0
   22.9467  -18.8576  -12.7481 O   0  0  0  0  0  0  0  0  0  0  0  0
   22.4049  -19.7966  -17.8456 N   0  0  0  0  0  0  0  0  0  0  0  0
   21.2187  -19.1303  -17.4789 C   0  0  0  0  0  0  0  0  0  0  0  0
   20.7995  -18.1798  -18.1598 O   0  0  0  0  0  0  0  0  0  0  0  0
   20.4686  -19.5712  -16.2692 C   0  0  0  0  0  0  0  0  0  0  0  0
   21.3920  -20.0515  -15.1921 C   0  0  0  0  0  0  0  0  0  0  0  0
   20.7220  -20.1505  -13.8423 C   0  0  2  0  0  0  0  0  0  0  0  0
   21.6679  -20.7220  -12.8769 N   0  0  0  0  0  0  0  0  0  0  0  0
   19.5042  -20.9615  -13.9236 C   0  0  0  0  0  0  0  0  0  0  0  0
   19.6039  -22.2251  -13.7584 O   0  0  0  0  0  0  0  0  0  0  0  0
   18.2366  -20.4735  -14.1633 O   0  0  0  0  0  0  0  0  0  0  0  0
  2  1  1  0
  3  5  1  0
  3  2  1  0
  3  4  1  6
  5  6  1  1
  7  5  1  0
  7  8  2  0
  9 10  1  0
 10 12  1  0
 10 11  2  0
 13 12  1  1
 13 14  1  0
 14  7  1  0
 15 23  1  0
 15 13  1  0
 16 15  2  0
 18 17  1  0
 18 19  2  0
 20 21  1  0
 20 18  1  0
 22 21  1  6
 22 23  1  0
 22 24  1  0
 24 25  2  0
 24 26  1  0
M  END
$$$$
