INQ.pdb
     RDKit          3D

 26 25  0  0  1  0  0  0  0  0999 V2000
   30.0143  -17.5792  -18.4903 C   0  0  0  0  0  0  0  0  0  0  0  0
   28.7070  -17.2662  -17.8484 C   0  0  0  0  0  0  0  0  0  0  0  0
   28.1647  -18.3922  -16.9930 C   0  0  2  0  0  0  0  0  0  0  0  0
   28.1485  -19.6332  -17.8186 C   0  0  0  0  0  0  0  0  0  0  0  0
   26.8571  -18.0313  -16.3500 C   0  0  2  0  0  0  0  0  0  0  0  0
   27.1553  -16.8408  -15.5284 N   0  0  0  0  0  0  0  0  0  0  0  0
   26.4168  -19.0869  -15.4178 C   0  0  0  0  0  0  0  0  0  0  0  0
   25.9082  -20.1763  -15.7888 O   0  0  0  0  0  0  0  0  0  0  0  0
   25.2631  -21.8558  -11.2546 N   0  0  0  0  0  0  0  0  0  0  0  0
   26.0419  -20.7774  -10.7813 C   0  0  0  0  0  0  0  0  0  0  0  0
   26.3367  -20.7244   -9.5697 O   0  0  0  0  0  0  0  0  0  0  0  0
   26.5033  -19.7285  -11.6918 C   0  0  0  0  0  0  0  0  0  0  0  0
   25.9979  -19.9910  -13.0899 C   0  0  2  0  0  0  0  0  0  0  0  0
   26.5406  -18.9423  -13.9940 N   0  0  0  0  0  0  0  0  0  0  0  0
   24.5414  -19.8118  -13.1079 C   0  0  0  0  0  0  0  0  0  0  0  0
   24.0831  -18.6265  -13.2785 O   0  0  0  0  0  0  0  0  0  0  0  0
   19.6973  -17.8339  -16.4653 N   0  0  0  0  0  0  0  0  0  0  0  0
   20.5435  -18.9533  -16.3383 C   0  0  0  0  0  0  0  0  0  0  0  0
   21.2346  -19.3270  -17.3005 O   0  0  0  0  0  0  0  0  0  0  0  0
   20.6059  -19.6879  -15.0433 C   0  0  0  0  0  0  0  0  0  0  0  0
   22.0161  -20.0254  -14.6679 C   0  0  0  0  0  0  0  0  0  0  0  0
   22.1434  -20.5333  -13.2514 C   0  0  2  0  0  0  0  0  0  0  0  0
   23.5563  -20.8062  -12.9637 N   0  0  0  0  0  0  0  0  0  0  0  0
   21.3282  -21.7347  -13.0537 C   0  0  0  0  0  0  0  0  0  0  0  0
   21.9079  -22.8736  -13.0826 O   0  0  0  0  0  0  0  0  0  0  0  0
   19.9669  -21.7461  -12.8316 O   0  0  0  0  0  0  0  0  0  0  0  0
  2  1  1  0
  3  5  1  0
  3  2  1  0
  3  4  1  6
  5  6  1  1
  7  5  1  0
  7  8  2  0
  9 10  1  0
 10 12  1  0
 10 11  2  0
 13 12  1  1
 13 14  1  0
 14  7  1  0
 15 23  1  0
 15 13  1  0
 16 15  2  0
 18 17  1  0
 18 19  2  0
 20 21  1  0
 20 18  1  0
 22 21  1  6
 22 23  1  0
 22 24  1  0
 24 25  2  0
 24 26  1  0
M  END
$$$$
