INQ.pdb
     RDKit          3D

 26 25  0  0  1  0  0  0  0  0999 V2000
   23.4434  -27.0693  -17.6145 C   0  0  0  0  0  0  0  0  0  0  0  0
   22.4400  -25.9746  -17.4961 C   0  0  0  0  0  0  0  0  0  0  0  0
   22.3143  -25.4142  -16.0949 C   0  0  2  0  0  0  0  0  0  0  0  0
   21.9941  -26.5411  -15.1733 C   0  0  0  0  0  0  0  0  0  0  0  0
   21.3696  -24.2488  -16.0372 C   0  0  2  0  0  0  0  0  0  0  0  0
   21.9697  -23.2311  -16.9235 N   0  0  0  0  0  0  0  0  0  0  0  0
   21.3360  -23.6617  -14.6839 C   0  0  0  0  0  0  0  0  0  0  0  0
   22.0461  -24.0707  -13.7290 O   0  0  0  0  0  0  0  0  0  0  0  0
   22.2080  -20.1606  -13.4784 N   0  0  0  0  0  0  0  0  0  0  0  0
   20.8887  -19.7243  -13.2280 C   0  0  0  0  0  0  0  0  0  0  0  0
   20.6376  -18.5019  -13.2459 O   0  0  0  0  0  0  0  0  0  0  0  0
   19.8206  -20.6854  -12.9496 C   0  0  0  0  0  0  0  0  0  0  0  0
   20.3703  -22.0914  -12.9480 C   0  0  2  0  0  0  0  0  0  0  0  0
   20.4738  -22.5608  -14.3553 N   0  0  0  0  0  0  0  0  0  0  0  0
   19.3945  -22.9802  -12.3066 C   0  0  0  0  0  0  0  0  0  0  0  0
   18.5709  -23.6124  -13.0591 O   0  0  0  0  0  0  0  0  0  0  0  0
   18.7229  -24.8813   -6.2735 N   0  0  0  0  0  0  0  0  0  0  0  0
   17.6975  -25.5931   -6.9273 C   0  0  0  0  0  0  0  0  0  0  0  0
   16.9614  -26.3603   -6.2850 O   0  0  0  0  0  0  0  0  0  0  0  0
   17.4999  -25.4215   -8.3942 C   0  0  0  0  0  0  0  0  0  0  0  0
   18.4451  -24.4086   -8.9635 C   0  0  0  0  0  0  0  0  0  0  0  0
   18.1924  -24.1225  -10.4246 C   0  0  2  0  0  0  0  0  0  0  0  0
   19.2485  -23.2384  -10.9310 N   0  0  0  0  0  0  0  0  0  0  0  0
   16.8703  -23.5204  -10.6164 C   0  0  0  0  0  0  0  0  0  0  0  0
   16.7465  -22.2596  -10.4460 O   0  0  0  0  0  0  0  0  0  0  0  0
   15.7275  -24.2048  -10.9742 O   0  0  0  0  0  0  0  0  0  0  0  0
  2  1  1  0
  3  5  1  0
  3  2  1  0
  3  4  1  1
  5  6  1  6
  7  5  1  0
  7  8  2  0
  9 10  1  0
 10 12  1  0
 10 11  2  0
 13 12  1  6
 13 14  1  0
 14  7  1  0
 15 23  1  0
 15 13  1  0
 16 15  2  0
 18 17  1  0
 18 19  2  0
 20 21  1  0
 20 18  1  0
 22 21  1  1
 22 23  1  0
 22 24  1  0
 24 25  2  0
 24 26  1  0
M  END
$$$$
