INQ.pdb
     RDKit          3D

 26 25  0  0  1  0  0  0  0  0999 V2000
   18.6063  -23.3112   -8.8140 C   0  0  0  0  0  0  0  0  0  0  0  0
   17.5128  -24.3155   -8.9365 C   0  0  0  0  0  0  0  0  0  0  0  0
   17.2199  -25.0553   -7.6479 C   0  0  2  0  0  0  0  0  0  0  0  0
   16.6282  -24.0858   -6.6825 C   0  0  0  0  0  0  0  0  0  0  0  0
   18.4169  -25.8106   -7.1477 C   0  0  2  0  0  0  0  0  0  0  0  0
   18.7686  -26.7330   -8.2464 N   0  0  0  0  0  0  0  0  0  0  0  0
   18.0648  -26.6520   -5.9878 C   0  0  0  0  0  0  0  0  0  0  0  0
   17.0873  -27.4442   -5.9729 O   0  0  0  0  0  0  0  0  0  0  0  0
   18.8364  -28.0911   -0.5824 N   0  0  0  0  0  0  0  0  0  0  0  0
   19.1333  -28.8109   -1.7602 C   0  0  0  0  0  0  0  0  0  0  0  0
   19.0483  -30.0560   -1.7511 O   0  0  0  0  0  0  0  0  0  0  0  0
   19.5370  -28.1153   -2.9831 C   0  0  0  0  0  0  0  0  0  0  0  0
   18.3589  -27.3859   -3.5823 C   0  0  2  0  0  0  0  0  0  0  0  0
   18.8279  -26.6254   -4.7711 N   0  0  0  0  0  0  0  0  0  0  0  0
   17.8924  -26.3749   -2.6263 C   0  0  0  0  0  0  0  0  0  0  0  0
   18.5557  -25.2813   -2.5356 O   0  0  0  0  0  0  0  0  0  0  0  0
   13.5180  -22.8116   -2.6572 N   0  0  0  0  0  0  0  0  0  0  0  0
   13.9174  -22.5005   -1.3422 C   0  0  0  0  0  0  0  0  0  0  0  0
   13.4537  -21.5015   -0.7678 O   0  0  0  0  0  0  0  0  0  0  0  0
   14.8997  -23.3759   -0.6429 C   0  0  0  0  0  0  0  0  0  0  0  0
   15.3983  -24.4696   -1.5367 C   0  0  0  0  0  0  0  0  0  0  0  0
   16.4214  -25.3567   -0.8681 C   0  0  2  0  0  0  0  0  0  0  0  0
   16.7733  -26.4540   -1.7768 N   0  0  0  0  0  0  0  0  0  0  0  0
   15.9099  -25.8749    0.4035 C   0  0  0  0  0  0  0  0  0  0  0  0
   15.3068  -27.0020    0.4015 O   0  0  0  0  0  0  0  0  0  0  0  0
   16.0264  -25.2450    1.6251 O   0  0  0  0  0  0  0  0  0  0  0  0
  2  1  1  0
  3  5  1  0
  3  2  1  0
  3  4  1  1
  5  6  1  6
  7  5  1  0
  7  8  2  0
  9 10  1  0
 10 12  1  0
 10 11  2  0
 13 12  1  1
 13 14  1  0
 14  7  1  0
 15 23  1  0
 15 13  1  0
 16 15  2  0
 18 17  1  0
 18 19  2  0
 20 21  1  0
 20 18  1  0
 22 21  1  6
 22 23  1  0
 22 24  1  0
 24 25  2  0
 24 26  1  0
M  END
$$$$
