INQ.pdb
     RDKit          3D

 26 25  0  0  1  0  0  0  0  0999 V2000
   25.0922  -13.3970  -18.6883 C   0  0  0  0  0  0  0  0  0  0  0  0
   26.0829  -14.0141  -17.7625 C   0  0  0  0  0  0  0  0  0  0  0  0
   25.4589  -14.6325  -16.5289 C   0  0  2  0  0  0  0  0  0  0  0  0
   25.9689  -13.8988  -15.3357 C   0  0  0  0  0  0  0  0  0  0  0  0
   25.6400  -16.1223  -16.4929 C   0  0  2  0  0  0  0  0  0  0  0  0
   25.1947  -16.5897  -17.8213 N   0  0  0  0  0  0  0  0  0  0  0  0
   24.7367  -16.7412  -15.5039 C   0  0  0  0  0  0  0  0  0  0  0  0
   24.8120  -16.5330  -14.2653 O   0  0  0  0  0  0  0  0  0  0  0  0
   19.9120  -19.0726  -13.6912 N   0  0  0  0  0  0  0  0  0  0  0  0
   20.8415  -19.6587  -14.5778 C   0  0  0  0  0  0  0  0  0  0  0  0
   21.0125  -20.8947  -14.5516 O   0  0  0  0  0  0  0  0  0  0  0  0
   21.6008  -18.8360  -15.5205 C   0  0  0  0  0  0  0  0  0  0  0  0
   22.8427  -18.2921  -14.8565 C   0  0  2  0  0  0  0  0  0  0  0  0
   23.6877  -17.6419  -15.8933 N   0  0  0  0  0  0  0  0  0  0  0  0
   23.6378  -19.4158  -14.3475 C   0  0  0  0  0  0  0  0  0  0  0  0
   24.3105  -20.1078  -15.1917 O   0  0  0  0  0  0  0  0  0  0  0  0
   25.1360  -20.7117   -8.3189 N   0  0  0  0  0  0  0  0  0  0  0  0
   26.1932  -21.3184   -9.0259 C   0  0  0  0  0  0  0  0  0  0  0  0
   27.1510  -21.8169   -8.4118 O   0  0  0  0  0  0  0  0  0  0  0  0
   26.1573  -21.3595  -10.5150 C   0  0  0  0  0  0  0  0  0  0  0  0
   24.9795  -20.6112  -11.0593 C   0  0  0  0  0  0  0  0  0  0  0  0
   24.9026  -20.6493  -12.5670 C   0  0  2  0  0  0  0  0  0  0  0  0
   23.7636  -19.8375  -13.0109 N   0  0  0  0  0  0  0  0  0  0  0  0
   24.7806  -22.0282  -13.0476 C   0  0  0  0  0  0  0  0  0  0  0  0
   23.6098  -22.5240  -13.1795 O   0  0  0  0  0  0  0  0  0  0  0  0
   25.8355  -22.8524  -13.3797 O   0  0  0  0  0  0  0  0  0  0  0  0
  2  1  1  0
  3  5  1  0
  3  2  1  0
  3  4  1  1
  5  6  1  6
  7  5  1  0
  7  8  2  0
  9 10  1  0
 10 12  1  0
 10 11  2  0
 13 12  1  6
 13 14  1  0
 14  7  1  0
 15 23  1  0
 15 13  1  0
 16 15  2  0
 18 17  1  0
 18 19  2  0
 20 21  1  0
 20 18  1  0
 22 21  1  1
 22 23  1  0
 22 24  1  0
 24 25  2  0
 24 26  1  0
M  END
$$$$
