INQ.pdb
     RDKit          3D

 26 25  0  0  1  0  0  0  0  0999 V2000
   25.9846  -15.6491  -18.3878 C   0  0  0  0  0  0  0  0  0  0  0  0
   26.0542  -14.4504  -17.5060 C   0  0  0  0  0  0  0  0  0  0  0  0
   24.9082  -13.4809  -17.7065 C   0  0  2  0  0  0  0  0  0  0  0  0
   24.8148  -13.1702  -19.1614 C   0  0  0  0  0  0  0  0  0  0  0  0
   25.0142  -12.2886  -16.8005 C   0  0  2  0  0  0  0  0  0  0  0  0
   24.9941  -12.8489  -15.4341 N   0  0  0  0  0  0  0  0  0  0  0  0
   23.8230  -11.4261  -16.9197 C   0  0  0  0  0  0  0  0  0  0  0  0
   23.5647  -10.7313  -17.9364 O   0  0  0  0  0  0  0  0  0  0  0  0
   18.3778  -11.2787  -16.5804 N   0  0  0  0  0  0  0  0  0  0  0  0
   19.5935  -11.8611  -16.1605 C   0  0  0  0  0  0  0  0  0  0  0  0
   19.8896  -13.0066  -16.5580 O   0  0  0  0  0  0  0  0  0  0  0  0
   20.5031  -11.1392  -15.2697 C   0  0  0  0  0  0  0  0  0  0  0  0
   21.6226  -10.5108  -16.0640 C   0  0  2  0  0  0  0  0  0  0  0  0
   22.8560  -11.3170  -15.8631 N   0  0  0  0  0  0  0  0  0  0  0  0
   21.9192   -9.1890  -15.4994 C   0  0  0  0  0  0  0  0  0  0  0  0
   22.6266   -9.1361  -14.4312 O   0  0  0  0  0  0  0  0  0  0  0  0
   23.1298   -1.9930  -16.7018 N   0  0  0  0  0  0  0  0  0  0  0  0
   22.8229   -3.3296  -17.0257 C   0  0  0  0  0  0  0  0  0  0  0  0
   22.6932   -3.6711  -18.2129 O   0  0  0  0  0  0  0  0  0  0  0  0
   22.6543   -4.3326  -15.9367 C   0  0  0  0  0  0  0  0  0  0  0  0
   22.2038   -5.6571  -16.4715 C   0  0  0  0  0  0  0  0  0  0  0  0
   21.9765   -6.6839  -15.3876 C   0  0  2  0  0  0  0  0  0  0  0  0
   21.5190   -7.9364  -16.0003 N   0  0  0  0  0  0  0  0  0  0  0  0
   21.0046   -6.1973  -14.4048 C   0  0  0  0  0  0  0  0  0  0  0  0
   19.7777   -6.5253  -14.5501 O   0  0  0  0  0  0  0  0  0  0  0  0
   21.3018   -5.4055  -13.3152 O   0  0  0  0  0  0  0  0  0  0  0  0
  2  1  1  0
  3  5  1  0
  3  2  1  0
  3  4  1  6
  5  6  1  1
  7  5  1  0
  7  8  2  0
  9 10  1  0
 10 12  1  0
 10 11  2  0
 13 12  1  1
 13 14  1  0
 14  7  1  0
 15 23  1  0
 15 13  1  0
 16 15  2  0
 18 17  1  0
 18 19  2  0
 20 21  1  0
 20 18  1  0
 22 21  1  6
 22 23  1  0
 22 24  1  0
 24 25  2  0
 24 26  1  0
M  END
$$$$
