PPN.pdb
     RDKit          3D

 23 24  0  0  1  0  0  0  0  0999 V2000
    8.3980  -13.7499   20.8266 N   0  0  0  0  0  0  0  0  0  0  0  0
    7.4238  -14.1579   19.8001 C   0  0  0  0  0  0  0  0  0  0  0  0
    6.6614  -15.2047   20.5784 C   0  0  0  0  0  0  0  0  0  0  0  0
    6.4345  -14.5187   21.9038 C   0  0  0  0  0  0  0  0  0  0  0  0
    7.5996  -13.5886   22.0281 C   0  0  1  0  0  0  0  0  0  0  0  0
    8.3551  -13.9170   23.2611 C   0  0  0  0  0  0  0  0  0  0  0  0
    9.5479  -14.3323   23.1287 O   0  0  0  0  0  0  0  0  0  0  0  0
    7.7589  -13.7681   24.5382 N   0  0  0  0  0  0  0  0  0  0  0  0
    6.3828  -13.4336   24.7788 C   0  0  0  0  0  0  0  0  0  0  0  0
    6.3286  -12.8488   26.1782 C   0  0  0  0  0  0  0  0  0  0  0  0
    7.7269  -12.9952   26.7602 C   0  0  0  0  0  0  0  0  0  0  0  0
    8.4449  -13.9234   25.7998 C   0  0  1  0  0  0  0  0  0  0  0  0
    8.4039  -15.3300   26.2698 C   0  0  0  0  0  0  0  0  0  0  0  0
    7.2773  -15.8971   26.3442 O   0  0  0  0  0  0  0  0  0  0  0  0
   11.3329  -17.3590   24.0126 N   0  0  0  0  0  0  0  0  0  0  0  0
   10.2481  -17.9196   24.7236 C   0  0  0  0  0  0  0  0  0  0  0  0
    9.1741  -18.0613   24.0866 O   0  0  0  0  0  0  0  0  0  0  0  0
   10.3296  -18.3306   26.1419 C   0  0  0  0  0  0  0  0  0  0  0  0
    9.4295  -17.4745   26.9821 C   0  0  2  0  0  0  0  0  0  0  0  0
    9.5324  -16.0719   26.6369 N   0  0  0  0  0  0  0  0  0  0  0  0
    9.7472  -17.6083   28.4068 C   0  0  0  0  0  0  0  0  0  0  0  0
    9.6788  -18.7176   28.9617 O   0  0  0  0  0  0  0  0  0  0  0  0
   10.1239  -16.5125   29.1481 O   0  0  0  0  0  0  0  0  0  0  0  0
  1  5  1  0
  1  2  1  0
  2  3  1  0
  4  3  1  0
  5  4  1  0
  5  6  1  1
  7  6  2  0
  8  6  1  0
  8 12  1  0
  9 10  1  0
  9  8  1  0
 10 11  1  0
 11 12  1  0
 12 13  1  1
 13 14  2  0
 16 15  1  0
 17 16  2  0
 18 16  1  0
 19 18  1  6
 20 13  1  0
 20 19  1  0
 21 19  1  0
 21 23  1  0
 22 21  2  0
M  END
$$$$
