PPN.pdb
     RDKit          3D

 23 24  0  0  1  0  0  0  0  0999 V2000
    6.6445  -14.1348   21.4353 N   0  0  0  0  0  0  0  0  0  0  0  0
    6.2820  -13.4485   20.1835 C   0  0  0  0  0  0  0  0  0  0  0  0
    7.2962  -12.3288   20.2075 C   0  0  0  0  0  0  0  0  0  0  0  0
    8.5679  -13.0541   20.5755 C   0  0  0  0  0  0  0  0  0  0  0  0
    8.0929  -14.2177   21.3870 C   0  0  1  0  0  0  0  0  0  0  0  0
    8.7110  -14.1568   22.7334 C   0  0  0  0  0  0  0  0  0  0  0  0
    9.9643  -14.3448   22.8158 O   0  0  0  0  0  0  0  0  0  0  0  0
    7.9229  -13.8961   23.8821 N   0  0  0  0  0  0  0  0  0  0  0  0
    6.5170  -13.6016   23.8758 C   0  0  0  0  0  0  0  0  0  0  0  0
    6.2328  -12.8695   25.1743 C   0  0  0  0  0  0  0  0  0  0  0  0
    7.5296  -12.8856   25.9701 C   0  0  0  0  0  0  0  0  0  0  0  0
    8.4127  -13.8794   25.2409 C   0  0  1  0  0  0  0  0  0  0  0  0
    8.3419  -15.2261   25.8593 C   0  0  0  0  0  0  0  0  0  0  0  0
    7.3227  -15.9341   25.6222 O   0  0  0  0  0  0  0  0  0  0  0  0
    9.8238  -18.4230   23.9872 N   0  0  0  0  0  0  0  0  0  0  0  0
   10.9780  -17.6705   24.3002 C   0  0  0  0  0  0  0  0  0  0  0  0
   11.8766  -17.6318   23.4224 O   0  0  0  0  0  0  0  0  0  0  0  0
   11.1593  -16.9522   25.5801 C   0  0  0  0  0  0  0  0  0  0  0  0
    9.9184  -17.0603   26.4152 C   0  0  2  0  0  0  0  0  0  0  0  0
    9.3310  -15.7654   26.6898 N   0  0  0  0  0  0  0  0  0  0  0  0
   10.1981  -17.7055   27.7014 C   0  0  0  0  0  0  0  0  0  0  0  0
   10.4719  -17.0187   28.6996 O   0  0  0  0  0  0  0  0  0  0  0  0
   10.1622  -19.0753   27.8221 O   0  0  0  0  0  0  0  0  0  0  0  0
  1  5  1  0
  1  2  1  0
  2  3  1  0
  4  3  1  0
  5  4  1  0
  5  6  1  1
  7  6  2  0
  8  6  1  0
  8 12  1  0
  9 10  1  0
  9  8  1  0
 10 11  1  0
 11 12  1  0
 12 13  1  1
 13 14  2  0
 16 15  1  0
 17 16  2  0
 18 16  1  0
 19 18  1  1
 20 13  1  0
 20 19  1  0
 21 19  1  0
 21 23  1  0
 22 21  2  0
M  END
$$$$
