PPN.pdb
     RDKit          3D

 23 24  0  0  1  0  0  0  0  0999 V2000
    9.3791  -16.9743   17.4293 N   0  0  0  0  0  0  0  0  0  0  0  0
    8.6199  -18.1208   16.9016 C   0  0  0  0  0  0  0  0  0  0  0  0
    7.9379  -18.5766   18.1704 C   0  0  0  0  0  0  0  0  0  0  0  0
    7.4390  -17.2764   18.7528 C   0  0  0  0  0  0  0  0  0  0  0  0
    8.4185  -16.2624   18.2525 C   0  0  1  0  0  0  0  0  0  0  0  0
    9.0525  -15.5858   19.4097 C   0  0  0  0  0  0  0  0  0  0  0  0
   10.3085  -15.7111   19.5503 O   0  0  0  0  0  0  0  0  0  0  0  0
    8.2761  -14.8269   20.3206 N   0  0  0  0  0  0  0  0  0  0  0  0
    6.8477  -14.6824   20.2754 C   0  0  0  0  0  0  0  0  0  0  0  0
    6.5278  -13.4071   21.0332 C   0  0  0  0  0  0  0  0  0  0  0  0
    7.8424  -12.9136   21.6194 C   0  0  0  0  0  0  0  0  0  0  0  0
    8.8018  -14.0734   21.4352 C   0  0  1  0  0  0  0  0  0  0  0  0
    8.8895  -14.9064   22.6597 C   0  0  0  0  0  0  0  0  0  0  0  0
    9.2662  -14.3496   23.7294 O   0  0  0  0  0  0  0  0  0  0  0  0
    6.1258  -16.1476   25.1136 N   0  0  0  0  0  0  0  0  0  0  0  0
    6.2063  -17.4550   24.5838 C   0  0  0  0  0  0  0  0  0  0  0  0
    5.1602  -18.1489   24.6432 O   0  0  0  0  0  0  0  0  0  0  0  0
    7.4358  -18.0158   23.9831 C   0  0  0  0  0  0  0  0  0  0  0  0
    8.5229  -16.9828   23.9684 C   0  0  2  0  0  0  0  0  0  0  0  0
    8.5821  -16.2709   22.7087 N   0  0  0  0  0  0  0  0  0  0  0  0
    9.8365  -17.5909   24.1999 C   0  0  0  0  0  0  0  0  0  0  0  0
   10.6747  -17.6374   23.2843 O   0  0  0  0  0  0  0  0  0  0  0  0
   10.1597  -18.1172   25.4291 O   0  0  0  0  0  0  0  0  0  0  0  0
  1  5  1  0
  1  2  1  0
  2  3  1  0
  4  3  1  0
  5  4  1  0
  5  6  1  1
  7  6  2  0
  8  6  1  0
  8 12  1  0
  9 10  1  0
  9  8  1  0
 10 11  1  0
 11 12  1  0
 12 13  1  1
 13 14  2  0
 16 15  1  0
 17 16  2  0
 18 16  1  0
 19 18  1  6
 20 13  1  0
 20 19  1  0
 21 19  1  0
 21 23  1  0
 22 21  2  0
M  END
$$$$
