PPN.pdb
     RDKit          3D

 23 24  0  0  1  0  0  0  0  0999 V2000
    8.9398  -13.6219   20.9701 N   0  0  0  0  0  0  0  0  0  0  0  0
    8.1851  -13.2508   19.7610 C   0  0  0  0  0  0  0  0  0  0  0  0
    6.8003  -13.6795   20.1869 C   0  0  0  0  0  0  0  0  0  0  0  0
    6.7085  -13.1255   21.5881 C   0  0  0  0  0  0  0  0  0  0  0  0
    8.1272  -13.1190   22.0628 C   0  0  1  0  0  0  0  0  0  0  0  0
    8.2358  -13.9541   23.2833 C   0  0  0  0  0  0  0  0  0  0  0  0
    9.0885  -14.8953   23.2796 O   0  0  0  0  0  0  0  0  0  0  0  0
    7.4137  -13.7022   24.4098 N   0  0  0  0  0  0  0  0  0  0  0  0
    6.3098  -12.7837   24.4441 C   0  0  0  0  0  0  0  0  0  0  0  0
    6.1012  -12.4282   25.9047 C   0  0  0  0  0  0  0  0  0  0  0  0
    7.0621  -13.2988   26.7010 C   0  0  0  0  0  0  0  0  0  0  0  0
    7.5618  -14.3263   25.7041 C   0  0  1  0  0  0  0  0  0  0  0  0
    6.7869  -15.5885   25.7892 C   0  0  0  0  0  0  0  0  0  0  0  0
    5.7351  -15.5919   26.4893 O   0  0  0  0  0  0  0  0  0  0  0  0
   10.0287  -19.0164   24.2240 N   0  0  0  0  0  0  0  0  0  0  0  0
   10.4122  -17.8803   24.9716 C   0  0  0  0  0  0  0  0  0  0  0  0
   11.6198  -17.5409   24.8951 O   0  0  0  0  0  0  0  0  0  0  0  0
    9.4748  -17.1041   25.8116 C   0  0  0  0  0  0  0  0  0  0  0  0
    8.0984  -17.6945   25.7335 C   0  0  2  0  0  0  0  0  0  0  0  0
    7.1442  -16.7782   25.1445 N   0  0  0  0  0  0  0  0  0  0  0  0
    7.6022  -18.0626   27.0628 C   0  0  0  0  0  0  0  0  0  0  0  0
    7.4775  -19.2585   27.3752 O   0  0  0  0  0  0  0  0  0  0  0  0
    7.2682  -17.0939   27.9806 O   0  0  0  0  0  0  0  0  0  0  0  0
  1  5  1  0
  1  2  1  0
  2  3  1  0
  4  3  1  0
  5  4  1  0
  5  6  1  1
  7  6  2  0
  8  6  1  0
  8 12  1  0
  9 10  1  0
  9  8  1  0
 10 11  1  0
 11 12  1  0
 12 13  1  6
 13 14  2  0
 16 15  1  0
 17 16  2  0
 18 16  1  0
 19 18  1  1
 20 13  1  0
 20 19  1  0
 21 19  1  0
 21 23  1  0
 22 21  2  0
M  END
$$$$
