PPN.pdb
     RDKit          3D

 23 24  0  0  1  0  0  0  0  0999 V2000
    8.5319  -14.2678   20.8725 N   0  0  0  0  0  0  0  0  0  0  0  0
    7.5457  -14.6996   19.8674 C   0  0  0  0  0  0  0  0  0  0  0  0
    6.6647  -15.5672   20.7356 C   0  0  0  0  0  0  0  0  0  0  0  0
    6.4770  -14.7090   21.9632 C   0  0  0  0  0  0  0  0  0  0  0  0
    7.7262  -13.8876   22.0186 C   0  0  1  0  0  0  0  0  0  0  0  0
    8.4164  -14.1377   23.3069 C   0  0  0  0  0  0  0  0  0  0  0  0
    9.5837  -14.6360   23.2634 O   0  0  0  0  0  0  0  0  0  0  0  0
    7.7879  -13.8269   24.5386 N   0  0  0  0  0  0  0  0  0  0  0  0
    6.4303  -13.3829   24.6898 C   0  0  0  0  0  0  0  0  0  0  0  0
    6.3675  -12.6621   26.0239 C   0  0  0  0  0  0  0  0  0  0  0  0
    7.7317  -12.8405   26.6739 C   0  0  0  0  0  0  0  0  0  0  0  0
    8.4178  -13.9021   25.8363 C   0  0  1  0  0  0  0  0  0  0  0  0
    8.2652  -15.2506   26.4357 C   0  0  0  0  0  0  0  0  0  0  0  0
    7.2144  -15.9007   26.1721 O   0  0  0  0  0  0  0  0  0  0  0  0
   11.2616  -19.4540   26.4520 N   0  0  0  0  0  0  0  0  0  0  0  0
   11.7732  -18.2321   25.9603 C   0  0  0  0  0  0  0  0  0  0  0  0
   12.8427  -18.2964   25.3035 O   0  0  0  0  0  0  0  0  0  0  0  0
   11.1168  -16.9259   26.1840 C   0  0  0  0  0  0  0  0  0  0  0  0
    9.8285  -17.1140   26.9281 C   0  0  2  0  0  0  0  0  0  0  0  0
    9.2097  -15.8516   27.2756 N   0  0  0  0  0  0  0  0  0  0  0  0
   10.0368  -17.8659   28.1691 C   0  0  0  0  0  0  0  0  0  0  0  0
   10.0981  -17.2714   29.2582 O   0  0  0  0  0  0  0  0  0  0  0  0
   10.1672  -19.2351   28.1470 O   0  0  0  0  0  0  0  0  0  0  0  0
  1  5  1  0
  1  2  1  0
  2  3  1  0
  4  3  1  0
  5  4  1  0
  5  6  1  1
  7  6  2  0
  8  6  1  0
  8 12  1  0
  9 10  1  0
  9  8  1  0
 10 11  1  0
 11 12  1  0
 12 13  1  1
 13 14  2  0
 16 15  1  0
 17 16  2  0
 18 16  1  0
 19 18  1  1
 20 13  1  0
 20 19  1  0
 21 19  1  0
 21 23  1  0
 22 21  2  0
M  END
$$$$
