PPN.pdb
     RDKit          3D

 23 24  0  0  1  0  0  0  0  0999 V2000
    8.2728  -17.4137   16.6806 N   0  0  0  0  0  0  0  0  0  0  0  0
    7.2787  -18.4706   16.4275 C   0  0  0  0  0  0  0  0  0  0  0  0
    6.8544  -18.7626   17.8479 C   0  0  0  0  0  0  0  0  0  0  0  0
    6.6648  -17.3780   18.4185 C   0  0  0  0  0  0  0  0  0  0  0  0
    7.6204  -16.5352   17.6345 C   0  0  1  0  0  0  0  0  0  0  0  0
    8.5801  -15.8936   18.5651 C   0  0  0  0  0  0  0  0  0  0  0  0
    9.7860  -16.2908   18.5348 O   0  0  0  0  0  0  0  0  0  0  0  0
    8.1574  -14.8728   19.4528 N   0  0  0  0  0  0  0  0  0  0  0  0
    6.8468  -14.2854   19.4797 C   0  0  0  0  0  0  0  0  0  0  0  0
    7.0047  -12.9303   20.1444 C   0  0  0  0  0  0  0  0  0  0  0  0
    8.4514  -12.8445   20.6083 C   0  0  0  0  0  0  0  0  0  0  0  0
    8.9821  -14.2579   20.4667 C   0  0  1  0  0  0  0  0  0  0  0  0
    8.9062  -14.9985   21.7500 C   0  0  0  0  0  0  0  0  0  0  0  0
    7.8122  -15.5553   22.0489 O   0  0  0  0  0  0  0  0  0  0  0  0
   11.9798  -19.4941   22.6051 N   0  0  0  0  0  0  0  0  0  0  0  0
   10.8366  -18.7445   22.9625 C   0  0  0  0  0  0  0  0  0  0  0  0
   10.1459  -19.1941   23.9112 O   0  0  0  0  0  0  0  0  0  0  0  0
   10.4385  -17.4930   22.2825 C   0  0  0  0  0  0  0  0  0  0  0  0
   10.2750  -16.3886   23.2838 C   0  0  2  0  0  0  0  0  0  0  0  0
    9.9681  -15.1215   22.6534 N   0  0  0  0  0  0  0  0  0  0  0  0
   11.4929  -16.2083   24.0793 C   0  0  0  0  0  0  0  0  0  0  0  0
   11.4854  -16.4477   25.2983 O   0  0  0  0  0  0  0  0  0  0  0  0
   12.6576  -15.7728   23.4911 O   0  0  0  0  0  0  0  0  0  0  0  0
  1  5  1  0
  1  2  1  0
  2  3  1  0
  4  3  1  0
  5  4  1  0
  5  6  1  1
  7  6  2  0
  8  6  1  0
  8 12  1  0
  9 10  1  0
  9  8  1  0
 10 11  1  0
 11 12  1  0
 12 13  1  1
 13 14  2  0
 16 15  1  0
 17 16  2  0
 18 16  1  0
 19 18  1  6
 20 13  1  0
 20 19  1  0
 21 19  1  0
 21 23  1  0
 22 21  2  0
M  END
$$$$
