PPN.pdb
     RDKit          3D

 23 24  0  0  1  0  0  0  0  0999 V2000
    8.6116  -13.9191   20.6171 N   0  0  0  0  0  0  0  0  0  0  0  0
    7.6358  -14.2804   19.5747 C   0  0  0  0  0  0  0  0  0  0  0  0
    6.7499  -15.2104   20.3706 C   0  0  0  0  0  0  0  0  0  0  0  0
    6.5486  -14.4428   21.6547 C   0  0  0  0  0  0  0  0  0  0  0  0
    7.7945  -13.6242   21.7800 C   0  0  1  0  0  0  0  0  0  0  0  0
    8.4740  -13.9640   23.0534 C   0  0  0  0  0  0  0  0  0  0  0  0
    9.6525  -14.4326   22.9860 O   0  0  0  0  0  0  0  0  0  0  0  0
    7.8237  -13.7679   24.2973 N   0  0  0  0  0  0  0  0  0  0  0  0
    6.4564  -13.3607   24.4649 C   0  0  0  0  0  0  0  0  0  0  0  0
    6.3630  -12.7554   25.8534 C   0  0  0  0  0  0  0  0  0  0  0  0
    7.7214  -12.9649   26.5064 C   0  0  0  0  0  0  0  0  0  0  0  0
    8.4374  -13.9411   25.5934 C   0  0  1  0  0  0  0  0  0  0  0  0
    8.3008  -15.3373   26.0758 C   0  0  0  0  0  0  0  0  0  0  0  0
    7.2716  -15.9848   25.7324 O   0  0  0  0  0  0  0  0  0  0  0  0
   11.0167  -19.4754   24.3362 N   0  0  0  0  0  0  0  0  0  0  0  0
   11.4340  -18.5945   25.3592 C   0  0  0  0  0  0  0  0  0  0  0  0
   12.3429  -19.0109   26.1207 O   0  0  0  0  0  0  0  0  0  0  0  0
   10.8585  -17.2468   25.5580 C   0  0  0  0  0  0  0  0  0  0  0  0
    9.7377  -17.3037   26.5528 C   0  0  2  0  0  0  0  0  0  0  0  0
    9.2380  -15.9863   26.8876 N   0  0  0  0  0  0  0  0  0  0  0  0
   10.1645  -17.9493   27.7977 C   0  0  0  0  0  0  0  0  0  0  0  0
   10.7085  -17.2826   28.6937 O   0  0  0  0  0  0  0  0  0  0  0  0
    9.9705  -19.2972   27.9919 O   0  0  0  0  0  0  0  0  0  0  0  0
  1  5  1  0
  1  2  1  0
  2  3  1  0
  4  3  1  0
  5  4  1  0
  5  6  1  1
  7  6  2  0
  8  6  1  0
  8 12  1  0
  9 10  1  0
  9  8  1  0
 10 11  1  0
 11 12  1  0
 12 13  1  1
 13 14  2  0
 16 15  1  0
 17 16  2  0
 18 16  1  0
 19 18  1  6
 20 13  1  0
 20 19  1  0
 21 19  1  0
 21 23  1  0
 22 21  2  0
M  END
$$$$
