PPN.pdb
     RDKit          3D

 23 24  0  0  1  0  0  0  0  0999 V2000
    8.5466  -14.1750   20.9245 N   0  0  0  0  0  0  0  0  0  0  0  0
    7.5962  -14.6025   19.8837 C   0  0  0  0  0  0  0  0  0  0  0  0
    6.7211  -15.5213   20.7039 C   0  0  0  0  0  0  0  0  0  0  0  0
    6.4811  -14.7076   21.9524 C   0  0  0  0  0  0  0  0  0  0  0  0
    7.7046  -13.8537   22.0623 C   0  0  1  0  0  0  0  0  0  0  0  0
    8.3723  -14.1245   23.3583 C   0  0  0  0  0  0  0  0  0  0  0  0
    9.5159  -14.6761   23.3283 O   0  0  0  0  0  0  0  0  0  0  0  0
    7.7490  -13.7753   24.5822 N   0  0  0  0  0  0  0  0  0  0  0  0
    6.4181  -13.2521   24.7172 C   0  0  0  0  0  0  0  0  0  0  0  0
    6.3824  -12.5266   26.0497 C   0  0  0  0  0  0  0  0  0  0  0  0
    7.7261  -12.7838   26.7158 C   0  0  0  0  0  0  0  0  0  0  0  0
    8.3583  -13.8852   25.8873 C   0  0  1  0  0  0  0  0  0  0  0  0
    8.1199  -15.2214   26.4862 C   0  0  0  0  0  0  0  0  0  0  0  0
    7.0595  -15.8315   26.1704 O   0  0  0  0  0  0  0  0  0  0  0  0
   11.2552  -19.3331   26.6089 N   0  0  0  0  0  0  0  0  0  0  0  0
   11.5321  -18.1501   25.8875 C   0  0  0  0  0  0  0  0  0  0  0  0
   12.4701  -18.2092   25.0533 O   0  0  0  0  0  0  0  0  0  0  0  0
   10.7828  -16.8887   26.0738 C   0  0  0  0  0  0  0  0  0  0  0  0
    9.6509  -17.0956   27.0355 C   0  0  2  0  0  0  0  0  0  0  0  0
    8.9931  -15.8522   27.3797 N   0  0  0  0  0  0  0  0  0  0  0  0
   10.1176  -17.7134   28.2803 C   0  0  0  0  0  0  0  0  0  0  0  0
   10.6563  -18.8326   28.2598 O   0  0  0  0  0  0  0  0  0  0  0  0
    9.9668  -17.0663   29.4848 O   0  0  0  0  0  0  0  0  0  0  0  0
  1  5  1  0
  1  2  1  0
  2  3  1  0
  4  3  1  0
  5  4  1  0
  5  6  1  1
  7  6  2  0
  8  6  1  0
  8 12  1  0
  9 10  1  0
  9  8  1  0
 10 11  1  0
 11 12  1  0
 12 13  1  1
 13 14  2  0
 16 15  1  0
 17 16  2  0
 18 16  1  0
 19 18  1  6
 20 13  1  0
 20 19  1  0
 21 19  1  0
 21 23  1  0
 22 21  2  0
M  END
$$$$
