CHE.pdb
     RDKit          3D

 26 26  0  0  1  0  0  0  0  0999 V2000
    7.5569  -13.4754   16.1026 N   0  0  0  0  0  0  0  0  0  0  0  0
    8.0936  -13.7147   17.4043 C   0  0  1  0  0  0  0  0  0  0  0  0
    7.4461  -12.7691   18.4010 C   0  0  0  0  0  0  0  0  0  0  0  0
    8.0445  -13.2154   20.0533 S   0  0  0  0  0  0  0  0  0  0  0  0
    7.8958  -15.1458   17.8505 C   0  0  0  0  0  0  0  0  0  0  0  0
    6.7408  -15.5700   17.7959 O   0  0  0  0  0  0  0  0  0  0  0  0
    8.9860  -15.9233   18.2968 N   0  0  0  0  0  0  0  0  0  0  0  0
    8.9817  -17.2413   18.7633 C   0  0  1  0  0  0  0  0  0  0  0  0
    8.7813  -18.3413   17.7116 C   0  0  0  0  0  0  0  0  0  0  0  0
    8.6334  -19.6918   18.3109 C   0  0  0  0  0  0  0  0  0  0  0  0
    7.6152  -20.0784   19.1988 C   0  0  0  0  0  0  0  0  0  0  0  0
    7.8046  -21.3513   19.5226 N   0  0  0  0  0  0  0  0  0  0  0  0
    8.8935  -21.8214   18.8943 C   0  0  0  0  0  0  0  0  0  0  0  0
    9.3610  -20.8029   18.1809 N   0  0  0  0  0  0  0  0  0  0  0  0
    9.9947  -17.6579   19.7270 C   0  0  0  0  0  0  0  0  0  0  0  0
   11.2054  -17.3046   19.4981 O   0  0  0  0  0  0  0  0  0  0  0  0
    9.7476  -18.4172   20.8889 N   0  0  0  0  0  0  0  0  0  0  0  0
   10.8257  -18.7661   21.8318 C   0  0  1  0  0  0  0  0  0  0  0  0
   11.4685  -17.5341   22.3698 C   0  0  0  0  0  0  0  0  0  0  0  0
   12.8839  -17.3877   21.9064 C   0  0  0  0  0  0  0  0  0  0  0  0
   13.6016  -16.2544   22.5229 C   0  0  0  0  0  0  0  0  0  0  0  0
   13.7078  -15.1192   22.0524 O   0  0  0  0  0  0  0  0  0  0  0  0
   10.3192  -19.6227   22.9033 C   0  0  0  0  0  0  0  0  0  0  0  0
   11.2457  -20.3161   23.7296 O   0  0  0  0  0  0  0  0  0  0  0  0
   14.2211  -16.4918   23.7604 O   0  0  0  0  0  0  0  0  0  0  0  0
    9.1338  -19.8198   23.1847 O   0  0  0  0  0  0  0  0  0  0  0  0
  2  5  1  0
  2  1  1  6
  3  2  1  0
  4  3  1  0
  5  6  2  0
  7  8  1  0
  7  5  1  0
  9 10  1  0
  8  9  1  6
 10 11  2  0
 11 12  1  0
 13 12  1  0
 14 10  1  0
 14 13  2  0
 15  8  1  0
 15 16  2  0
 17 15  1  0
 18 17  1  0
 18 23  1  0
 18 19  1  1
 20 21  1  0
 20 19  1  0
 21 25  1  0
 22 21  2  0
 23 26  2  0
 23 24  1  0
M  END
$$$$
