CHE.pdb
     RDKit          3D

 26 26  0  0  1  0  0  0  0  0999 V2000
    8.2007  -14.2047   17.4059 N   0  0  0  0  0  0  0  0  0  0  0  0
    9.1706  -13.5131   18.1936 C   0  0  1  0  0  0  0  0  0  0  0  0
    8.5001  -12.9286   19.4247 C   0  0  0  0  0  0  0  0  0  0  0  0
    7.4131  -11.5854   18.8752 S   0  0  0  0  0  0  0  0  0  0  0  0
   10.3152  -14.4096   18.6088 C   0  0  0  0  0  0  0  0  0  0  0  0
   10.0017  -15.5378   18.9908 O   0  0  0  0  0  0  0  0  0  0  0  0
   11.6501  -13.9547   18.5512 N   0  0  0  0  0  0  0  0  0  0  0  0
   12.8188  -14.6404   18.8960 C   0  0  1  0  0  0  0  0  0  0  0  0
   14.0696  -14.3275   18.0631 C   0  0  0  0  0  0  0  0  0  0  0  0
   15.2180  -15.2086   18.3943 C   0  0  0  0  0  0  0  0  0  0  0  0
   15.3047  -16.5775   18.0893 C   0  0  0  0  0  0  0  0  0  0  0  0
   16.4686  -17.0320   18.5363 N   0  0  0  0  0  0  0  0  0  0  0  0
   17.1511  -16.0339   19.1188 C   0  0  0  0  0  0  0  0  0  0  0  0
   16.3734  -14.9619   19.0148 N   0  0  0  0  0  0  0  0  0  0  0  0
   13.1811  -14.7651   20.3037 C   0  0  0  0  0  0  0  0  0  0  0  0
   13.3547  -13.6808   20.9650 O   0  0  0  0  0  0  0  0  0  0  0  0
   13.3550  -15.9823   20.9934 N   0  0  0  0  0  0  0  0  0  0  0  0
   13.6784  -16.0202   22.4312 C   0  0  1  0  0  0  0  0  0  0  0  0
   12.8231  -17.0182   23.1332 C   0  0  0  0  0  0  0  0  0  0  0  0
   13.2001  -17.1709   24.5734 C   0  0  0  0  0  0  0  0  0  0  0  0
   12.4062  -18.1843   25.2960 C   0  0  0  0  0  0  0  0  0  0  0  0
   12.1289  -19.3153   24.8896 O   0  0  0  0  0  0  0  0  0  0  0  0
   15.1011  -16.2902   22.6348 C   0  0  0  0  0  0  0  0  0  0  0  0
   15.7129  -15.8883   23.8539 O   0  0  0  0  0  0  0  0  0  0  0  0
   11.9220  -17.8264   26.5645 O   0  0  0  0  0  0  0  0  0  0  0  0
   15.8613  -16.8497   21.8396 O   0  0  0  0  0  0  0  0  0  0  0  0
  2  5  1  0
  2  1  1  1
  3  2  1  0
  4  3  1  0
  5  6  2  0
  7  8  1  0
  7  5  1  0
  9 10  1  0
  8  9  1  6
 10 11  2  0
 11 12  1  0
 13 12  1  0
 14 10  1  0
 14 13  2  0
 15  8  1  0
 15 16  2  0
 17 15  1  0
 18 17  1  0
 18 23  1  0
 18 19  1  1
 20 21  1  0
 20 19  1  0
 21 25  1  0
 22 21  2  0
 23 26  2  0
 23 24  1  0
M  END
$$$$
