CHE.pdb
     RDKit          3D

 26 26  0  0  1  0  0  0  0  0999 V2000
    4.9050  -13.3880   26.8077 N   0  0  0  0  0  0  0  0  0  0  0  0
    5.8985  -12.7431   26.0097 C   0  0  1  0  0  0  0  0  0  0  0  0
    6.9747  -12.1633   26.9111 C   0  0  0  0  0  0  0  0  0  0  0  0
    6.6644  -10.3837   27.0659 S   0  0  0  0  0  0  0  0  0  0  0  0
    6.5227  -13.6830   25.0031 C   0  0  0  0  0  0  0  0  0  0  0  0
    6.7944  -14.8102   25.4184 O   0  0  0  0  0  0  0  0  0  0  0  0
    6.7668  -13.2667   23.6767 N   0  0  0  0  0  0  0  0  0  0  0  0
    7.4653  -13.9379   22.6686 C   0  0  1  0  0  0  0  0  0  0  0  0
    7.4497  -13.2927   21.2759 C   0  0  0  0  0  0  0  0  0  0  0  0
    8.1319  -14.1206   20.2493 C   0  0  0  0  0  0  0  0  0  0  0  0
    9.2105  -13.6997   19.4531 C   0  0  0  0  0  0  0  0  0  0  0  0
    9.5559  -14.7016   18.6544 N   0  0  0  0  0  0  0  0  0  0  0  0
    8.7612  -15.7585   18.8839 C   0  0  0  0  0  0  0  0  0  0  0  0
    7.9244  -15.3743   19.8415 N   0  0  0  0  0  0  0  0  0  0  0  0
    8.7958  -14.4639   22.9544 C   0  0  0  0  0  0  0  0  0  0  0  0
    9.6140  -13.6926   23.5698 O   0  0  0  0  0  0  0  0  0  0  0  0
    9.2521  -15.7520   22.6079 N   0  0  0  0  0  0  0  0  0  0  0  0
   10.5117  -16.2993   23.1438 C   0  0  1  0  0  0  0  0  0  0  0  0
   10.2469  -17.1399   24.3453 C   0  0  0  0  0  0  0  0  0  0  0  0
   11.4937  -17.7760   24.8749 C   0  0  0  0  0  0  0  0  0  0  0  0
   11.2956  -18.5289   26.1292 C   0  0  0  0  0  0  0  0  0  0  0  0
   10.4545  -19.4101   26.3225 O   0  0  0  0  0  0  0  0  0  0  0  0
   11.2329  -17.0438   22.1124 C   0  0  0  0  0  0  0  0  0  0  0  0
   10.4966  -17.8436   21.1956 O   0  0  0  0  0  0  0  0  0  0  0  0
   12.1444  -18.2117   27.2018 O   0  0  0  0  0  0  0  0  0  0  0  0
   12.4547  -17.0576   21.9384 O   0  0  0  0  0  0  0  0  0  0  0  0
  2  5  1  0
  2  1  1  1
  3  2  1  0
  4  3  1  0
  5  6  2  0
  7  8  1  0
  7  5  1  0
  9 10  1  0
  8  9  1  6
 10 11  2  0
 11 12  1  0
 13 12  1  0
 14 10  1  0
 14 13  2  0
 15  8  1  0
 15 16  2  0
 17 15  1  0
 18 17  1  0
 18 23  1  0
 18 19  1  1
 20 21  1  0
 20 19  1  0
 21 25  1  0
 22 21  2  0
 23 26  2  0
 23 24  1  0
M  END
$$$$
