CHE.pdb
     RDKit          3D

 26 26  0  0  1  0  0  0  0  0999 V2000
    8.1598  -13.4129   19.3986 N   0  0  0  0  0  0  0  0  0  0  0  0
    7.6407  -14.5315   20.1189 C   0  0  1  0  0  0  0  0  0  0  0  0
    7.6473  -15.7582   19.2234 C   0  0  0  0  0  0  0  0  0  0  0  0
    6.8920  -17.1214   20.1501 S   0  0  0  0  0  0  0  0  0  0  0  0
    8.4240  -14.8126   21.3813 C   0  0  0  0  0  0  0  0  0  0  0  0
    9.6497  -14.7539   21.2764 O   0  0  0  0  0  0  0  0  0  0  0  0
    7.7641  -15.1200   22.5906 N   0  0  0  0  0  0  0  0  0  0  0  0
    8.3245  -15.4601   23.8256 C   0  0  1  0  0  0  0  0  0  0  0  0
    7.3983  -15.3745   25.0467 C   0  0  0  0  0  0  0  0  0  0  0  0
    7.0177  -13.9798   25.3850 C   0  0  0  0  0  0  0  0  0  0  0  0
    7.4996  -12.8281   24.7401 C   0  0  0  0  0  0  0  0  0  0  0  0
    6.9420  -11.7667   25.3090 N   0  0  0  0  0  0  0  0  0  0  0  0
    6.1191  -12.1603   26.2935 C   0  0  0  0  0  0  0  0  0  0  0  0
    6.1904  -13.4868   26.3089 N   0  0  0  0  0  0  0  0  0  0  0  0
    9.1616  -16.6509   23.9230 C   0  0  0  0  0  0  0  0  0  0  0  0
    8.7447  -17.7128   23.3385 O   0  0  0  0  0  0  0  0  0  0  0  0
   10.3915  -16.7259   24.6080 N   0  0  0  0  0  0  0  0  0  0  0  0
   11.1703  -17.9761   24.6700 C   0  0  1  0  0  0  0  0  0  0  0  0
   12.5463  -17.7614   24.1399 C   0  0  0  0  0  0  0  0  0  0  0  0
   12.5941  -17.8388   22.6461 C   0  0  0  0  0  0  0  0  0  0  0  0
   13.9525  -17.7092   22.0830 C   0  0  0  0  0  0  0  0  0  0  0  0
   14.9508  -18.3385   22.4415 O   0  0  0  0  0  0  0  0  0  0  0  0
   11.1932  -18.5046   26.0332 C   0  0  0  0  0  0  0  0  0  0  0  0
   11.8651  -19.7319   26.2869 O   0  0  0  0  0  0  0  0  0  0  0  0
   14.1233  -16.7826   21.0418 O   0  0  0  0  0  0  0  0  0  0  0  0
   10.6775  -17.9872   27.0280 O   0  0  0  0  0  0  0  0  0  0  0  0
  2  5  1  0
  2  1  1  6
  3  2  1  0
  4  3  1  0
  5  6  2  0
  7  8  1  0
  7  5  1  0
  9 10  1  0
  8  9  1  1
 10 11  2  0
 11 12  1  0
 13 12  1  0
 14 10  1  0
 14 13  2  0
 15  8  1  0
 15 16  2  0
 17 15  1  0
 18 17  1  0
 18 23  1  0
 18 19  1  1
 20 21  1  0
 20 19  1  0
 21 25  1  0
 22 21  2  0
 23 26  2  0
 23 24  1  0
M  END
$$$$
