CHE.pdb
     RDKit          3D

 26 26  0  0  1  0  0  0  0  0999 V2000
    4.9116  -19.3742   19.3558 N   0  0  0  0  0  0  0  0  0  0  0  0
    4.6870  -18.5099   20.4704 C   0  0  1  0  0  0  0  0  0  0  0  0
    3.9083  -19.2551   21.5406 C   0  0  0  0  0  0  0  0  0  0  0  0
    3.6704  -18.1239   22.9375 S   0  0  0  0  0  0  0  0  0  0  0  0
    5.9777  -17.9776   21.0509 C   0  0  0  0  0  0  0  0  0  0  0  0
    6.8586  -18.8136   21.2561 O   0  0  0  0  0  0  0  0  0  0  0  0
    6.1347  -16.6029   21.3296 N   0  0  0  0  0  0  0  0  0  0  0  0
    7.1937  -15.9621   21.9797 C   0  0  1  0  0  0  0  0  0  0  0  0
    7.2515  -14.4333   21.8554 C   0  0  0  0  0  0  0  0  0  0  0  0
    7.7137  -13.9806   20.5189 C   0  0  0  0  0  0  0  0  0  0  0  0
    8.1219  -14.8251   19.4726 C   0  0  0  0  0  0  0  0  0  0  0  0
    8.4648  -14.0703   18.4364 N   0  0  0  0  0  0  0  0  0  0  0  0
    8.3034  -12.7745   18.7466 C   0  0  0  0  0  0  0  0  0  0  0  0
    7.8540  -12.7605   19.9967 N   0  0  0  0  0  0  0  0  0  0  0  0
    7.5386  -16.3606   23.3401 C   0  0  0  0  0  0  0  0  0  0  0  0
    6.6766  -16.1242   24.2590 O   0  0  0  0  0  0  0  0  0  0  0  0
    8.7433  -16.9844   23.7236 N   0  0  0  0  0  0  0  0  0  0  0  0
    8.9887  -17.4098   25.1135 C   0  0  1  0  0  0  0  0  0  0  0  0
    9.1275  -18.8915   25.1898 C   0  0  0  0  0  0  0  0  0  0  0  0
    9.3762  -19.3638   26.5879 C   0  0  0  0  0  0  0  0  0  0  0  0
    9.6235  -20.8153   26.6946 C   0  0  0  0  0  0  0  0  0  0  0  0
    9.6517  -21.6183   25.7587 O   0  0  0  0  0  0  0  0  0  0  0  0
   10.1597  -16.7289   25.6642 C   0  0  0  0  0  0  0  0  0  0  0  0
   10.3614  -16.7307   27.0719 O   0  0  0  0  0  0  0  0  0  0  0  0
    9.8474  -21.3290   27.9820 O   0  0  0  0  0  0  0  0  0  0  0  0
   11.0277  -16.1303   25.0228 O   0  0  0  0  0  0  0  0  0  0  0  0
  2  5  1  0
  2  1  1  6
  3  2  1  0
  4  3  1  0
  5  6  2  0
  7  8  1  0
  7  5  1  0
  9 10  1  0
  8  9  1  1
 10 11  2  0
 11 12  1  0
 13 12  1  0
 14 10  1  0
 14 13  2  0
 15  8  1  0
 15 16  2  0
 17 15  1  0
 18 17  1  0
 18 23  1  0
 18 19  1  6
 20 21  1  0
 20 19  1  0
 21 25  1  0
 22 21  2  0
 23 26  2  0
 23 24  1  0
M  END
$$$$
