CHE.pdb
     RDKit          3D

 26 26  0  0  1  0  0  0  0  0999 V2000
   10.1091  -17.4225   16.3185 N   0  0  0  0  0  0  0  0  0  0  0  0
    9.8858  -17.9561   17.6243 C   0  0  1  0  0  0  0  0  0  0  0  0
   10.5538  -19.3155   17.7372 C   0  0  0  0  0  0  0  0  0  0  0  0
   10.1446  -19.9972   19.3667 S   0  0  0  0  0  0  0  0  0  0  0  0
   10.3986  -17.0397   18.7122 C   0  0  0  0  0  0  0  0  0  0  0  0
   11.4422  -16.4370   18.4583 O   0  0  0  0  0  0  0  0  0  0  0  0
    9.7029  -16.9032   19.9328 N   0  0  0  0  0  0  0  0  0  0  0  0
   10.0158  -16.0908   21.0267 C   0  0  1  0  0  0  0  0  0  0  0  0
    8.8777  -15.2278   21.5889 C   0  0  0  0  0  0  0  0  0  0  0  0
    8.2515  -14.3585   20.5609 C   0  0  0  0  0  0  0  0  0  0  0  0
    6.9306  -14.4744   20.0956 C   0  0  0  0  0  0  0  0  0  0  0  0
    6.7249  -13.5323   19.1839 N   0  0  0  0  0  0  0  0  0  0  0  0
    7.8408  -12.8035   19.0258 C   0  0  0  0  0  0  0  0  0  0  0  0
    8.7296  -13.3259   19.8636 N   0  0  0  0  0  0  0  0  0  0  0  0
   10.8027  -16.6458   22.1227 C   0  0  0  0  0  0  0  0  0  0  0  0
   10.3884  -17.7378   22.6506 O   0  0  0  0  0  0  0  0  0  0  0  0
   11.9815  -16.0767   22.6463 N   0  0  0  0  0  0  0  0  0  0  0  0
   12.6782  -16.6637   23.8053 C   0  0  1  0  0  0  0  0  0  0  0  0
   14.0337  -16.0642   23.9589 C   0  0  0  0  0  0  0  0  0  0  0  0
   14.9209  -16.3686   22.7928 C   0  0  0  0  0  0  0  0  0  0  0  0
   16.2780  -15.7994   22.9081 C   0  0  0  0  0  0  0  0  0  0  0  0
   17.1446  -16.1446   23.7151 O   0  0  0  0  0  0  0  0  0  0  0  0
   11.8796  -16.5114   25.0208 C   0  0  0  0  0  0  0  0  0  0  0  0
   12.3165  -17.1425   26.2178 O   0  0  0  0  0  0  0  0  0  0  0  0
   16.6130  -14.7686   22.0155 O   0  0  0  0  0  0  0  0  0  0  0  0
   10.8297  -15.8723   25.1319 O   0  0  0  0  0  0  0  0  0  0  0  0
  2  5  1  0
  2  1  1  6
  3  2  1  0
  4  3  1  0
  5  6  2  0
  7  8  1  0
  7  5  1  0
  9 10  1  0
  8  9  1  1
 10 11  2  0
 11 12  1  0
 13 12  1  0
 14 10  1  0
 14 13  2  0
 15  8  1  0
 15 16  2  0
 17 15  1  0
 18 17  1  0
 18 23  1  0
 18 19  1  1
 20 21  1  0
 20 19  1  0
 21 25  1  0
 22 21  2  0
 23 26  2  0
 23 24  1  0
M  END
$$$$
