CHE.pdb
     RDKit          3D

 26 26  0  0  1  0  0  0  0  0999 V2000
    7.1668  -19.6945   18.8024 N   0  0  0  0  0  0  0  0  0  0  0  0
    7.1600  -19.0264   20.0646 C   0  0  1  0  0  0  0  0  0  0  0  0
    7.2575  -20.0514   21.1811 C   0  0  0  0  0  0  0  0  0  0  0  0
    7.1560  -19.1611   22.7573 S   0  0  0  0  0  0  0  0  0  0  0  0
    8.2854  -18.0241   20.1875 C   0  0  0  0  0  0  0  0  0  0  0  0
    9.3885  -18.4052   19.7937 O   0  0  0  0  0  0  0  0  0  0  0  0
    8.0563  -16.7388   20.7239 N   0  0  0  0  0  0  0  0  0  0  0  0
    8.9849  -15.7272   20.9865 C   0  0  1  0  0  0  0  0  0  0  0  0
    8.4993  -14.2834   20.7976 C   0  0  0  0  0  0  0  0  0  0  0  0
    8.2488  -13.9410   19.3747 C   0  0  0  0  0  0  0  0  0  0  0  0
    8.5179  -14.7786   18.2790 C   0  0  0  0  0  0  0  0  0  0  0  0
    8.1671  -14.1406   17.1696 N   0  0  0  0  0  0  0  0  0  0  0  0
    7.6818  -12.9281   17.4784 C   0  0  0  0  0  0  0  0  0  0  0  0
    7.7462  -12.8449   18.8027 N   0  0  0  0  0  0  0  0  0  0  0  0
    9.8147  -15.8167   22.1831 C   0  0  0  0  0  0  0  0  0  0  0  0
    9.2195  -16.0356   23.2971 O   0  0  0  0  0  0  0  0  0  0  0  0
   11.2178  -15.6819   22.2111 N   0  0  0  0  0  0  0  0  0  0  0  0
   12.0418  -16.3537   23.2323 C   0  0  1  0  0  0  0  0  0  0  0  0
   11.8728  -17.8320   23.1504 C   0  0  0  0  0  0  0  0  0  0  0  0
   12.7482  -18.5549   24.1255 C   0  0  0  0  0  0  0  0  0  0  0  0
   12.6372  -20.0253   24.0540 C   0  0  0  0  0  0  0  0  0  0  0  0
   13.1652  -20.7536   23.2101 O   0  0  0  0  0  0  0  0  0  0  0  0
   13.4450  -15.9629   23.1045 C   0  0  0  0  0  0  0  0  0  0  0  0
   14.2768  -15.9879   24.2576 O   0  0  0  0  0  0  0  0  0  0  0  0
   11.8577  -20.6525   25.0391 O   0  0  0  0  0  0  0  0  0  0  0  0
   14.0131  -15.6008   22.0704 O   0  0  0  0  0  0  0  0  0  0  0  0
  2  5  1  0
  2  1  1  6
  3  2  1  0
  4  3  1  0
  5  6  2  0
  7  8  1  0
  7  5  1  0
  9 10  1  0
  8  9  1  1
 10 11  2  0
 11 12  1  0
 13 12  1  0
 14 10  1  0
 14 13  2  0
 15  8  1  0
 15 16  2  0
 17 15  1  0
 18 17  1  0
 18 23  1  0
 18 19  1  6
 20 21  1  0
 20 19  1  0
 21 25  1  0
 22 21  2  0
 23 26  2  0
 23 24  1  0
M  END
$$$$
