CHE.pdb
     RDKit          3D

 26 26  0  0  1  0  0  0  0  0999 V2000
   11.1415  -16.1188   14.9538 N   0  0  0  0  0  0  0  0  0  0  0  0
   11.3360  -16.3236   16.3538 C   0  0  1  0  0  0  0  0  0  0  0  0
   12.7647  -16.7730   16.6064 C   0  0  0  0  0  0  0  0  0  0  0  0
   13.7985  -15.2877   16.7172 S   0  0  0  0  0  0  0  0  0  0  0  0
   11.0383  -15.0801   17.1608 C   0  0  0  0  0  0  0  0  0  0  0  0
   10.1745  -14.3341   16.6977 O   0  0  0  0  0  0  0  0  0  0  0  0
   11.7233  -14.8170   18.3665 N   0  0  0  0  0  0  0  0  0  0  0  0
   11.2586  -14.9501   19.6783 C   0  0  1  0  0  0  0  0  0  0  0  0
    9.8018  -15.4033   19.8480 C   0  0  0  0  0  0  0  0  0  0  0  0
    8.8241  -14.3873   19.3827 C   0  0  0  0  0  0  0  0  0  0  0  0
    8.2974  -13.3484   20.1687 C   0  0  0  0  0  0  0  0  0  0  0  0
    7.4587  -12.6428   19.4205 N   0  0  0  0  0  0  0  0  0  0  0  0
    7.4066  -13.1633   18.1845 C   0  0  0  0  0  0  0  0  0  0  0  0
    8.2342  -14.2024   18.2000 N   0  0  0  0  0  0  0  0  0  0  0  0
   12.1009  -15.6140   20.6673 C   0  0  0  0  0  0  0  0  0  0  0  0
   12.0227  -16.8911   20.7448 O   0  0  0  0  0  0  0  0  0  0  0  0
   12.9931  -14.9629   21.5434 N   0  0  0  0  0  0  0  0  0  0  0  0
   14.1449  -15.6636   22.1399 C   0  0  1  0  0  0  0  0  0  0  0  0
   15.3230  -14.7551   22.2236 C   0  0  0  0  0  0  0  0  0  0  0  0
   16.5468  -15.4619   22.7158 C   0  0  0  0  0  0  0  0  0  0  0  0
   17.7582  -14.6183   22.7362 C   0  0  0  0  0  0  0  0  0  0  0  0
   18.2018  -13.9610   21.7915 O   0  0  0  0  0  0  0  0  0  0  0  0
   13.7945  -16.2150   23.4481 C   0  0  0  0  0  0  0  0  0  0  0  0
   12.5416  -15.8746   24.0281 O   0  0  0  0  0  0  0  0  0  0  0  0
   18.4715  -14.5593   23.9442 O   0  0  0  0  0  0  0  0  0  0  0  0
   14.4876  -16.9725   24.1329 O   0  0  0  0  0  0  0  0  0  0  0  0
  2  5  1  0
  2  1  1  6
  3  2  1  0
  4  3  1  0
  5  6  2  0
  7  8  1  0
  7  5  1  0
  9 10  1  0
  8  9  1  6
 10 11  2  0
 11 12  1  0
 13 12  1  0
 14 10  1  0
 14 13  2  0
 15  8  1  0
 15 16  2  0
 17 15  1  0
 18 17  1  0
 18 23  1  0
 18 19  1  1
 20 21  1  0
 20 19  1  0
 21 25  1  0
 22 21  2  0
 23 26  2  0
 23 24  1  0
M  END
$$$$
