CHE.pdb
     RDKit          3D

 26 26  0  0  1  0  0  0  0  0999 V2000
   10.1581  -18.7365   14.6997 N   0  0  0  0  0  0  0  0  0  0  0  0
    9.1054  -18.5845   15.6528 C   0  0  1  0  0  0  0  0  0  0  0  0
    8.7777  -19.9352   16.2654 C   0  0  0  0  0  0  0  0  0  0  0  0
   10.0223  -20.2800   17.5380 S   0  0  0  0  0  0  0  0  0  0  0  0
    9.4585  -17.5980   16.7429 C   0  0  0  0  0  0  0  0  0  0  0  0
   10.6614  -17.4001   16.9184 O   0  0  0  0  0  0  0  0  0  0  0  0
    8.4506  -16.9584   17.4961 N   0  0  0  0  0  0  0  0  0  0  0  0
    8.5909  -15.9720   18.4770 C   0  0  1  0  0  0  0  0  0  0  0  0
    7.3402  -15.1431   18.8010 C   0  0  0  0  0  0  0  0  0  0  0  0
    7.6459  -13.9226   19.5895 C   0  0  0  0  0  0  0  0  0  0  0  0
    8.3217  -12.7906   19.1033 C   0  0  0  0  0  0  0  0  0  0  0  0
    8.4118  -11.9038   20.0864 N   0  0  0  0  0  0  0  0  0  0  0  0
    7.8310  -12.3935   21.1929 C   0  0  0  0  0  0  0  0  0  0  0  0
    7.3857  -13.5994   20.8579 N   0  0  0  0  0  0  0  0  0  0  0  0
    9.3053  -16.2902   19.7085 C   0  0  0  0  0  0  0  0  0  0  0  0
    9.0443  -17.4142   20.2667 O   0  0  0  0  0  0  0  0  0  0  0  0
   10.2591  -15.4604   20.3324 N   0  0  0  0  0  0  0  0  0  0  0  0
   10.9766  -15.8816   21.5493 C   0  0  1  0  0  0  0  0  0  0  0  0
   12.2102  -15.0671   21.7369 C   0  0  0  0  0  0  0  0  0  0  0  0
   13.4034  -15.6915   21.0842 C   0  0  0  0  0  0  0  0  0  0  0  0
   14.6574  -14.9383   21.2831 C   0  0  0  0  0  0  0  0  0  0  0  0
   15.4611  -15.0956   22.2053 O   0  0  0  0  0  0  0  0  0  0  0  0
   10.1001  -15.8109   22.7176 C   0  0  0  0  0  0  0  0  0  0  0  0
   10.5555  -16.3413   23.9559 O   0  0  0  0  0  0  0  0  0  0  0  0
   14.9630  -13.9505   20.3330 O   0  0  0  0  0  0  0  0  0  0  0  0
    8.9667  -15.3237   22.7544 O   0  0  0  0  0  0  0  0  0  0  0  0
  2  5  1  0
  2  1  1  6
  3  2  1  0
  4  3  1  0
  5  6  2  0
  7  8  1  0
  7  5  1  0
  9 10  1  0
  8  9  1  1
 10 11  2  0
 11 12  1  0
 13 12  1  0
 14 10  1  0
 14 13  2  0
 15  8  1  0
 15 16  2  0
 17 15  1  0
 18 17  1  0
 18 23  1  0
 18 19  1  1
 20 21  1  0
 20 19  1  0
 21 25  1  0
 22 21  2  0
 23 26  2  0
 23 24  1  0
M  END
$$$$
