KFY.pdb
     RDKit          3D

 33 34  0  0  1  0  0  0  0  0999 V2000
   28.8373  -21.1181  -17.0588 N   0  0  0  0  0  0  0  0  0  0  0  0
   27.6093  -21.8541  -17.2144 C   0  0  1  0  0  0  0  0  0  0  0  0
   27.8094  -23.1187  -18.0380 C   0  0  0  0  0  0  0  0  0  0  0  0
   28.3600  -22.7776  -19.3656 C   0  0  0  0  0  0  0  0  0  0  0  0
   28.1252  -21.3977  -19.8568 C   0  0  0  0  0  0  0  0  0  0  0  0
   28.5848  -21.1010  -21.2410 C   0  0  0  0  0  0  0  0  0  0  0  0
   27.7788  -21.7436  -22.2618 N   0  0  0  0  0  0  0  0  0  0  0  0
   27.0306  -22.1385  -15.8924 C   0  0  0  0  0  0  0  0  0  0  0  0
   26.3538  -23.1878  -15.7066 O   0  0  0  0  0  0  0  0  0  0  0  0
   27.1909  -21.2813  -14.7814 N   0  0  0  0  0  0  0  0  0  0  0  0
   26.5556  -21.5662  -13.4756 C   0  0  1  0  0  0  0  0  0  0  0  0
   27.3080  -20.7503  -12.4955 C   0  0  0  0  0  0  0  0  0  0  0  0
   26.8656  -20.7182  -11.1184 C   0  0  0  0  0  0  0  0  0  0  0  0
   27.4443  -21.4556  -10.0938 C   0  0  0  0  0  0  0  0  0  0  0  0
   27.0251  -21.3985   -8.8010 C   0  0  0  0  0  0  0  0  0  0  0  0
   25.9883  -20.5895   -8.4521 C   0  0  0  0  0  0  0  0  0  0  0  0
   25.3750  -19.8335   -9.4292 C   0  0  0  0  0  0  0  0  0  0  0  0
   25.8150  -19.9004  -10.7563 C   0  0  0  0  0  0  0  0  0  0  0  0
   25.1253  -21.2566  -13.6256 C   0  0  0  0  0  0  0  0  0  0  0  0
   24.7860  -20.1154  -14.0645 O   0  0  0  0  0  0  0  0  0  0  0  0
   16.3051  -22.0019  -13.4401 O   0  0  0  0  0  0  0  0  0  0  0  0
   17.6858  -22.2576  -13.4440 C   0  0  0  0  0  0  0  0  0  0  0  0
   18.3188  -22.5680  -12.2716 C   0  0  0  0  0  0  0  0  0  0  0  0
   19.6886  -22.8196  -12.2887 C   0  0  0  0  0  0  0  0  0  0  0  0
   20.4070  -22.7596  -13.4642 C   0  0  0  0  0  0  0  0  0  0  0  0
   21.8488  -23.0315  -13.4423 C   0  0  0  0  0  0  0  0  0  0  0  0
   22.6660  -21.7340  -13.3582 C   0  0  2  0  0  0  0  0  0  0  0  0
   24.0552  -22.1479  -13.3168 N   0  0  0  0  0  0  0  0  0  0  0  0
   22.2440  -20.9553  -12.1763 C   0  0  0  0  0  0  0  0  0  0  0  0
   21.3615  -19.9060  -12.3671 O   0  0  0  0  0  0  0  0  0  0  0  0
   19.7790  -22.4479  -14.6506 C   0  0  0  0  0  0  0  0  0  0  0  0
   18.4183  -22.2021  -14.6086 C   0  0  0  0  0  0  0  0  0  0  0  0
   22.6471  -21.2009  -11.0156 O   0  0  0  0  0  0  0  0  0  0  0  0
  2  1  1  1
  3  2  1  0
  3  4  1  0
  5  4  1  0
  5  6  1  0
  7  6  1  0
  8  2  1  0
  8  9  2  0
 10  8  1  0
 11 10  1  0
 11 12  1  1
 13 12  1  0
 13 14  2  0
 15 14  1  0
 16 15  2  0
 17 18  2  0
 17 16  1  0
 18 13  1  0
 19 11  1  0
 20 19  2  0
 21 22  1  0
 22 23  2  0
 23 24  1  0
 25 24  2  0
 25 26  1  0
 27 28  1  0
 27 26  1  1
 28 19  1  0
 29 27  1  0
 30 29  1  0
 31 25  1  0
 32 22  1  0
 32 31  2  0
 33 29  2  0
M  END
$$$$
