KFY.pdb
     RDKit          3D

 33 34  0  0  1  0  0  0  0  0999 V2000
   28.3616  -23.0359  -18.3558 N   0  0  0  0  0  0  0  0  0  0  0  0
   28.1873  -23.5345  -17.0161 C   0  0  1  0  0  0  0  0  0  0  0  0
   29.5049  -23.9970  -16.4098 C   0  0  0  0  0  0  0  0  0  0  0  0
   30.4193  -24.4572  -17.4747 C   0  0  0  0  0  0  0  0  0  0  0  0
   31.7420  -24.9758  -17.0480 C   0  0  0  0  0  0  0  0  0  0  0  0
   32.6960  -25.3292  -18.1343 C   0  0  0  0  0  0  0  0  0  0  0  0
   34.0025  -25.7243  -17.6427 N   0  0  0  0  0  0  0  0  0  0  0  0
   27.5239  -22.5145  -16.1897 C   0  0  0  0  0  0  0  0  0  0  0  0
   27.7697  -21.2897  -16.3718 O   0  0  0  0  0  0  0  0  0  0  0  0
   26.5981  -22.8317  -15.1713 N   0  0  0  0  0  0  0  0  0  0  0  0
   25.8767  -21.7835  -14.4159 C   0  0  1  0  0  0  0  0  0  0  0  0
   24.4501  -21.9693  -14.7668 C   0  0  0  0  0  0  0  0  0  0  0  0
   23.4445  -21.2156  -14.0501 C   0  0  0  0  0  0  0  0  0  0  0  0
   22.7150  -21.7089  -12.9764 C   0  0  0  0  0  0  0  0  0  0  0  0
   21.7855  -20.9783  -12.3037 C   0  0  0  0  0  0  0  0  0  0  0  0
   21.5273  -19.6938  -12.6703 C   0  0  0  0  0  0  0  0  0  0  0  0
   22.2225  -19.1510  -13.7308 C   0  0  0  0  0  0  0  0  0  0  0  0
   23.1767  -19.9124  -14.4156 C   0  0  0  0  0  0  0  0  0  0  0  0
   26.2322  -21.9634  -12.9999 C   0  0  0  0  0  0  0  0  0  0  0  0
   26.2385  -23.1345  -12.5115 O   0  0  0  0  0  0  0  0  0  0  0  0
   28.0069  -20.0875   -4.5274 O   0  0  0  0  0  0  0  0  0  0  0  0
   27.9016  -20.0633   -5.9274 C   0  0  0  0  0  0  0  0  0  0  0  0
   26.9662  -19.2605   -6.5209 C   0  0  0  0  0  0  0  0  0  0  0  0
   26.8717  -19.2453   -7.9104 C   0  0  0  0  0  0  0  0  0  0  0  0
   27.7034  -20.0240   -8.6872 C   0  0  0  0  0  0  0  0  0  0  0  0
   27.5742  -19.9807  -10.1482 C   0  0  0  0  0  0  0  0  0  0  0  0
   26.6857  -21.1197  -10.6696 C   0  0  2  0  0  0  0  0  0  0  0  0
   26.5830  -20.9126  -12.1012 N   0  0  0  0  0  0  0  0  0  0  0  0
   25.3840  -21.0951   -9.9722 C   0  0  0  0  0  0  0  0  0  0  0  0
   25.1531  -22.0403   -8.9876 O   0  0  0  0  0  0  0  0  0  0  0  0
   28.6490  -20.8361   -8.0994 C   0  0  0  0  0  0  0  0  0  0  0  0
   28.7239  -20.8343   -6.7181 C   0  0  0  0  0  0  0  0  0  0  0  0
   24.4849  -20.2615  -10.2308 O   0  0  0  0  0  0  0  0  0  0  0  0
  2  1  1  6
  3  2  1  0
  3  4  1  0
  5  4  1  0
  5  6  1  0
  7  6  1  0
  8  2  1  0
  8  9  2  0
 10  8  1  0
 11 10  1  0
 11 12  1  1
 13 12  1  0
 13 14  2  0
 15 14  1  0
 16 15  2  0
 17 18  2  0
 17 16  1  0
 18 13  1  0
 19 11  1  0
 20 19  2  0
 21 22  1  0
 22 23  2  0
 23 24  1  0
 25 24  2  0
 25 26  1  0
 27 28  1  0
 27 26  1  1
 28 19  1  0
 29 27  1  0
 30 29  1  0
 31 25  1  0
 32 22  1  0
 32 31  2  0
 33 29  2  0
M  END
$$$$
