KFY.pdb
     RDKit          3D

 33 34  0  0  1  0  0  0  0  0999 V2000
   29.1658  -22.3232  -16.0304 N   0  0  0  0  0  0  0  0  0  0  0  0
   29.0934  -21.0889  -15.2922 C   0  0  1  0  0  0  0  0  0  0  0  0
   28.3825  -19.9992  -16.0826 C   0  0  0  0  0  0  0  0  0  0  0  0
   27.6976  -20.5859  -17.2525 C   0  0  0  0  0  0  0  0  0  0  0  0
   26.3917  -21.2452  -17.0067 C   0  0  0  0  0  0  0  0  0  0  0  0
   25.6347  -21.6835  -18.2108 C   0  0  0  0  0  0  0  0  0  0  0  0
   25.5217  -20.6506  -19.2233 N   0  0  0  0  0  0  0  0  0  0  0  0
   28.4619  -21.3286  -13.9857 C   0  0  0  0  0  0  0  0  0  0  0  0
   27.5237  -22.1662  -13.8766 O   0  0  0  0  0  0  0  0  0  0  0  0
   28.8535  -20.6569  -12.8066 N   0  0  0  0  0  0  0  0  0  0  0  0
   28.1705  -20.8837  -11.5135 C   0  0  1  0  0  0  0  0  0  0  0  0
   29.0487  -20.2570  -10.4994 C   0  0  0  0  0  0  0  0  0  0  0  0
   28.5885  -20.1620   -9.1311 C   0  0  0  0  0  0  0  0  0  0  0  0
   28.8673  -21.0997   -8.1454 C   0  0  0  0  0  0  0  0  0  0  0  0
   28.4401  -20.9838   -6.8593 C   0  0  0  0  0  0  0  0  0  0  0  0
   27.6987  -19.9086   -6.4779 C   0  0  0  0  0  0  0  0  0  0  0  0
   27.3911  -18.9450   -7.4156 C   0  0  0  0  0  0  0  0  0  0  0  0
   27.8363  -19.0749   -8.7362 C   0  0  0  0  0  0  0  0  0  0  0  0
   26.8176  -20.3215  -11.6465 C   0  0  0  0  0  0  0  0  0  0  0  0
   26.6485  -19.2895  -12.3652 O   0  0  0  0  0  0  0  0  0  0  0  0
   18.7493  -19.2039  -14.1554 O   0  0  0  0  0  0  0  0  0  0  0  0
   20.0249  -19.6472  -13.7704 C   0  0  0  0  0  0  0  0  0  0  0  0
   21.1198  -18.8730  -14.0419 C   0  0  0  0  0  0  0  0  0  0  0  0
   22.3794  -19.3237  -13.6549 C   0  0  0  0  0  0  0  0  0  0  0  0
   22.5335  -20.5311  -13.0068 C   0  0  0  0  0  0  0  0  0  0  0  0
   23.8768  -20.9721  -12.6141 C   0  0  0  0  0  0  0  0  0  0  0  0
   24.3224  -20.3185  -11.2978 C   0  0  2  0  0  0  0  0  0  0  0  0
   25.6453  -20.8467  -11.0262 N   0  0  0  0  0  0  0  0  0  0  0  0
   23.3375  -20.6125  -10.2372 C   0  0  0  0  0  0  0  0  0  0  0  0
   23.5798  -21.6894   -9.4018 O   0  0  0  0  0  0  0  0  0  0  0  0
   21.4372  -21.3185  -12.7285 C   0  0  0  0  0  0  0  0  0  0  0  0
   20.1967  -20.8499  -13.1225 C   0  0  0  0  0  0  0  0  0  0  0  0
   22.2986  -19.9345  -10.0612 O   0  0  0  0  0  0  0  0  0  0  0  0
  2  1  1  6
  3  2  1  0
  3  4  1  0
  5  4  1  0
  5  6  1  0
  7  6  1  0
  8  2  1  0
  8  9  2  0
 10  8  1  0
 11 10  1  0
 11 12  1  1
 13 12  1  0
 13 14  2  0
 15 14  1  0
 16 15  2  0
 17 18  2  0
 17 16  1  0
 18 13  1  0
 19 11  1  0
 20 19  2  0
 21 22  1  0
 22 23  2  0
 23 24  1  0
 25 24  2  0
 25 26  1  0
 27 28  1  0
 27 26  1  6
 28 19  1  0
 29 27  1  0
 30 29  1  0
 31 25  1  0
 32 22  1  0
 32 31  2  0
 33 29  2  0
M  END
$$$$
