KFY.pdb
     RDKit          3D

 33 34  0  0  1  0  0  0  0  0999 V2000
   28.7337  -22.6731  -17.3325 N   0  0  0  0  0  0  0  0  0  0  0  0
   28.0575  -21.4787  -16.8966 C   0  0  1  0  0  0  0  0  0  0  0  0
   27.1542  -20.9126  -17.9835 C   0  0  0  0  0  0  0  0  0  0  0  0
   27.8711  -19.8711  -18.7472 C   0  0  0  0  0  0  0  0  0  0  0  0
   28.6721  -18.8963  -17.9671 C   0  0  0  0  0  0  0  0  0  0  0  0
   28.7007  -17.5004  -18.4825 C   0  0  0  0  0  0  0  0  0  0  0  0
   29.1438  -17.4081  -19.8609 N   0  0  0  0  0  0  0  0  0  0  0  0
   27.3239  -21.7505  -15.6511 C   0  0  0  0  0  0  0  0  0  0  0  0
   26.5137  -22.7165  -15.5879 O   0  0  0  0  0  0  0  0  0  0  0  0
   27.4753  -20.9714  -14.4828 N   0  0  0  0  0  0  0  0  0  0  0  0
   26.7177  -21.2620  -13.2453 C   0  0  1  0  0  0  0  0  0  0  0  0
   27.4139  -20.5036  -12.1810 C   0  0  0  0  0  0  0  0  0  0  0  0
   26.8369  -20.4594  -10.8550 C   0  0  0  0  0  0  0  0  0  0  0  0
   27.0944  -21.3920   -9.8587 C   0  0  0  0  0  0  0  0  0  0  0  0
   26.5556  -21.3235   -8.6116 C   0  0  0  0  0  0  0  0  0  0  0  0
   25.7161  -20.3045   -8.2830 C   0  0  0  0  0  0  0  0  0  0  0  0
   25.4244  -19.3487   -9.2336 C   0  0  0  0  0  0  0  0  0  0  0  0
   25.9847  -19.4294  -10.5137 C   0  0  0  0  0  0  0  0  0  0  0  0
   25.3195  -20.8884  -13.5088 C   0  0  0  0  0  0  0  0  0  0  0  0
   25.0784  -19.8130  -14.1378 O   0  0  0  0  0  0  0  0  0  0  0  0
   16.8699  -20.4151  -15.3826 O   0  0  0  0  0  0  0  0  0  0  0  0
   18.1897  -20.8169  -15.1214 C   0  0  0  0  0  0  0  0  0  0  0  0
   19.2185  -20.2611  -15.8318 C   0  0  0  0  0  0  0  0  0  0  0  0
   20.5231  -20.6680  -15.5633 C   0  0  0  0  0  0  0  0  0  0  0  0
   20.7866  -21.6166  -14.5977 C   0  0  0  0  0  0  0  0  0  0  0  0
   22.1744  -22.0193  -14.3429 C   0  0  0  0  0  0  0  0  0  0  0  0
   22.8254  -21.1454  -13.2608 C   0  0  2  0  0  0  0  0  0  0  0  0
   24.1780  -21.6471  -13.1133 N   0  0  0  0  0  0  0  0  0  0  0  0
   22.0289  -21.2145  -12.0189 C   0  0  0  0  0  0  0  0  0  0  0  0
   21.0786  -20.2326  -11.7976 O   0  0  0  0  0  0  0  0  0  0  0  0
   19.7577  -22.1826  -13.8764 C   0  0  0  0  0  0  0  0  0  0  0  0
   18.4707  -21.7626  -14.1609 C   0  0  0  0  0  0  0  0  0  0  0  0
   22.1745  -22.1170  -11.1621 O   0  0  0  0  0  0  0  0  0  0  0  0
  2  1  1  6
  3  2  1  0
  3  4  1  0
  5  4  1  0
  5  6  1  0
  7  6  1  0
  8  2  1  0
  8  9  2  0
 10  8  1  0
 11 10  1  0
 11 12  1  1
 13 12  1  0
 13 14  2  0
 15 14  1  0
 16 15  2  0
 17 18  2  0
 17 16  1  0
 18 13  1  0
 19 11  1  0
 20 19  2  0
 21 22  1  0
 22 23  2  0
 23 24  1  0
 25 24  2  0
 25 26  1  0
 27 28  1  0
 27 26  1  6
 28 19  1  0
 29 27  1  0
 30 29  1  0
 31 25  1  0
 32 22  1  0
 32 31  2  0
 33 29  2  0
M  END
$$$$
