NNW.pdb
     RDKit          3D

 31 32  0  0  1  0  0  0  0  0999 V2000
   29.2651  -17.0228  -19.9491 N   0  0  0  0  0  0  0  0  0  0  0  0
   29.9100  -16.8486  -18.7033 C   0  0  0  0  0  0  0  0  0  0  0  0
   31.1539  -16.7786  -18.6620 O   0  0  0  0  0  0  0  0  0  0  0  0
   29.1049  -16.7519  -17.4775 C   0  0  0  0  0  0  0  0  0  0  0  0
   27.6066  -16.7333  -17.7814 C   0  0  2  0  0  0  0  0  0  0  0  0
   27.2014  -15.4527  -18.3103 N   0  0  0  0  0  0  0  0  0  0  0  0
   26.9006  -17.0816  -16.5374 C   0  0  0  0  0  0  0  0  0  0  0  0
   27.1390  -16.4090  -15.5020 O   0  0  0  0  0  0  0  0  0  0  0  0
   22.4900  -18.1080  -13.5048 N   0  0  0  0  0  0  0  0  0  0  0  0
   22.9963  -19.0356  -14.4446 C   0  0  0  0  0  0  0  0  0  0  0  0
   22.7876  -20.2647  -14.2609 O   0  0  0  0  0  0  0  0  0  0  0  0
   23.7671  -18.5861  -15.6414 C   0  0  0  0  0  0  0  0  0  0  0  0
   25.2322  -18.4155  -15.3133 C   0  0  2  0  0  0  0  0  0  0  0  0
   25.9735  -18.1539  -16.5145 N   0  0  0  0  0  0  0  0  0  0  0  0
   25.7001  -19.6660  -14.6429 C   0  0  0  0  0  0  0  0  0  0  0  0
   25.7748  -20.7208  -15.3139 O   0  0  0  0  0  0  0  0  0  0  0  0
   26.0610  -19.7097  -13.2813 N   0  0  0  0  0  0  0  0  0  0  0  0
   26.4890  -20.9087  -12.5632 C   0  0  1  0  0  0  0  0  0  0  0  0
   27.2201  -20.5560  -11.3220 C   0  0  0  0  0  0  0  0  0  0  0  0
   26.4486  -20.5066  -10.0837 C   0  0  0  0  0  0  0  0  0  0  0  0
   25.0818  -20.7323  -10.0022 C   0  0  0  0  0  0  0  0  0  0  0  0
   24.6808  -20.5836   -8.7166 N   0  0  0  0  0  0  0  0  0  0  0  0
   25.7513  -20.2660   -7.9479 C   0  0  0  0  0  0  0  0  0  0  0  0
   25.9220  -20.0232   -6.6041 C   0  0  0  0  0  0  0  0  0  0  0  0
   27.1477  -19.7302   -6.0386 C   0  0  0  0  0  0  0  0  0  0  0  0
   28.2362  -19.6845   -6.8814 C   0  0  0  0  0  0  0  0  0  0  0  0
   28.0868  -19.9237   -8.2292 C   0  0  0  0  0  0  0  0  0  0  0  0
   26.8571  -20.2182   -8.8038 C   0  0  0  0  0  0  0  0  0  0  0  0
   25.3148  -21.7708  -12.3901 C   0  0  0  0  0  0  0  0  0  0  0  0
   25.3219  -23.1525  -12.3057 O   0  0  0  0  0  0  0  0  0  0  0  0
   24.1496  -21.2418  -12.3106 O   0  0  0  0  0  0  0  0  0  0  0  0
  2  1  1  0
  2  4  1  0
  3  2  2  0
  4  5  1  0
  5  6  1  1
  7  8  2  0
  7  5  1  0
 10  9  1  0
 10 11  2  0
 13 12  1  6
 12 10  1  0
 13 14  1  0
 14  7  1  0
 15 13  1  0
 16 15  2  0
 17 15  1  0
 18 17  1  0
 18 19  1  1
 19 20  1  0
 20 28  1  0
 21 20  2  0
 21 22  1  0
 22 23  1  0
 23 24  1  0
 24 25  2  0
 26 25  1  0
 27 26  2  0
 28 23  2  0
 28 27  1  0
 29 30  1  0
 29 18  1  0
 31 29  2  0
M  END
$$$$
