NNW.pdb
     RDKit          3D

 31 32  0  0  1  0  0  0  0  0999 V2000
   30.3323  -22.4480  -18.3513 N   0  0  0  0  0  0  0  0  0  0  0  0
   30.5540  -22.9844  -17.0624 C   0  0  0  0  0  0  0  0  0  0  0  0
   31.4279  -23.8593  -16.9051 O   0  0  0  0  0  0  0  0  0  0  0  0
   29.7522  -22.5024  -15.9288 C   0  0  0  0  0  0  0  0  0  0  0  0
   28.6593  -21.5319  -16.3775 C   0  0  2  0  0  0  0  0  0  0  0  0
   29.0896  -20.7589  -17.5182 N   0  0  0  0  0  0  0  0  0  0  0  0
   28.3154  -20.6902  -15.2197 C   0  0  0  0  0  0  0  0  0  0  0  0
   28.4800  -19.4468  -15.3100 O   0  0  0  0  0  0  0  0  0  0  0  0
   24.7588  -18.0067  -13.0677 N   0  0  0  0  0  0  0  0  0  0  0  0
   24.7093  -19.4200  -13.0847 C   0  0  0  0  0  0  0  0  0  0  0  0
   23.8551  -20.0085  -12.3693 O   0  0  0  0  0  0  0  0  0  0  0  0
   25.6445  -20.2195  -13.9301 C   0  0  0  0  0  0  0  0  0  0  0  0
   26.9300  -20.5133  -13.1923 C   0  0  2  0  0  0  0  0  0  0  0  0
   27.8104  -21.2758  -14.0315 N   0  0  0  0  0  0  0  0  0  0  0  0
   26.5821  -21.2579  -11.9447 C   0  0  0  0  0  0  0  0  0  0  0  0
   26.7054  -22.5042  -11.9294 O   0  0  0  0  0  0  0  0  0  0  0  0
   26.1176  -20.6151  -10.7797 N   0  0  0  0  0  0  0  0  0  0  0  0
   26.1778  -21.1740   -9.4304 C   0  0  1  0  0  0  0  0  0  0  0  0
   27.4877  -20.8938   -8.7939 C   0  0  0  0  0  0  0  0  0  0  0  0
   27.4843  -20.0504   -7.6023 C   0  0  0  0  0  0  0  0  0  0  0  0
   26.6534  -18.9539   -7.4205 C   0  0  0  0  0  0  0  0  0  0  0  0
   26.9255  -18.3816   -6.2229 N   0  0  0  0  0  0  0  0  0  0  0  0
   27.9158  -19.0754   -5.6101 C   0  0  0  0  0  0  0  0  0  0  0  0
   28.5599  -18.9508   -4.4004 C   0  0  0  0  0  0  0  0  0  0  0  0
   29.5510  -19.8158   -3.9790 C   0  0  0  0  0  0  0  0  0  0  0  0
   29.8934  -20.8443   -4.8289 C   0  0  0  0  0  0  0  0  0  0  0  0
   29.2617  -20.9862   -6.0441 C   0  0  0  0  0  0  0  0  0  0  0  0
   28.2648  -20.1196   -6.4736 C   0  0  0  0  0  0  0  0  0  0  0  0
   24.9974  -20.7039   -8.6973 C   0  0  0  0  0  0  0  0  0  0  0  0
   24.4672  -21.2736   -7.5525 O   0  0  0  0  0  0  0  0  0  0  0  0
   24.3593  -19.6758   -9.1211 O   0  0  0  0  0  0  0  0  0  0  0  0
  2  1  1  0
  2  4  1  0
  3  2  2  0
  4  5  1  0
  5  6  1  6
  7  8  2  0
  7  5  1  0
 10  9  1  0
 10 11  2  0
 13 12  1  6
 12 10  1  0
 13 14  1  0
 14  7  1  0
 15 13  1  0
 16 15  2  0
 17 15  1  0
 18 17  1  0
 18 19  1  1
 19 20  1  0
 20 28  1  0
 21 20  2  0
 21 22  1  0
 22 23  1  0
 23 24  1  0
 24 25  2  0
 26 25  1  0
 27 26  2  0
 28 23  2  0
 28 27  1  0
 29 30  1  0
 29 18  1  0
 31 29  2  0
M  END
$$$$
