NNW.pdb
     RDKit          3D

 31 32  0  0  1  0  0  0  0  0999 V2000
   30.0398  -31.6951  -15.7287 N   0  0  0  0  0  0  0  0  0  0  0  0
   30.5343  -30.9122  -16.7968 C   0  0  0  0  0  0  0  0  0  0  0  0
   31.7626  -30.7288  -16.9043 O   0  0  0  0  0  0  0  0  0  0  0  0
   29.5938  -30.3279  -17.7633 C   0  0  0  0  0  0  0  0  0  0  0  0
   29.4428  -28.8189  -17.5687 C   0  0  2  0  0  0  0  0  0  0  0  0
   28.9219  -28.5157  -16.2570 N   0  0  0  0  0  0  0  0  0  0  0  0
   28.5786  -28.3196  -18.6510 C   0  0  0  0  0  0  0  0  0  0  0  0
   28.9589  -28.4665  -19.8405 O   0  0  0  0  0  0  0  0  0  0  0  0
   26.0640  -27.1735  -22.8245 N   0  0  0  0  0  0  0  0  0  0  0  0
   25.4884  -27.5517  -21.5894 C   0  0  0  0  0  0  0  0  0  0  0  0
   24.2487  -27.3991  -21.4226 O   0  0  0  0  0  0  0  0  0  0  0  0
   26.3186  -28.1247  -20.4889 C   0  0  0  0  0  0  0  0  0  0  0  0
   26.5830  -27.0964  -19.4138 C   0  0  2  0  0  0  0  0  0  0  0  0
   27.3458  -27.6874  -18.3510 N   0  0  0  0  0  0  0  0  0  0  0  0
   25.2632  -26.5938  -18.9263 C   0  0  0  0  0  0  0  0  0  0  0  0
   24.5848  -27.3177  -18.1620 O   0  0  0  0  0  0  0  0  0  0  0  0
   24.7462  -25.3349  -19.2927 N   0  0  0  0  0  0  0  0  0  0  0  0
   23.5343  -24.7313  -18.7419 C   0  0  1  0  0  0  0  0  0  0  0  0
   23.5188  -23.2651  -18.9646 C   0  0  0  0  0  0  0  0  0  0  0  0
   23.2707  -22.7990  -20.3255 C   0  0  0  0  0  0  0  0  0  0  0  0
   22.0111  -22.5464  -20.8501 C   0  0  0  0  0  0  0  0  0  0  0  0
   22.1356  -22.1552  -22.1413 N   0  0  0  0  0  0  0  0  0  0  0  0
   23.4480  -22.1430  -22.4805 C   0  0  0  0  0  0  0  0  0  0  0  0
   24.1330  -21.8198  -23.6295 C   0  0  0  0  0  0  0  0  0  0  0  0
   25.5100  -21.8692  -23.7278 C   0  0  0  0  0  0  0  0  0  0  0  0
   26.2083  -22.2645  -22.6082 C   0  0  0  0  0  0  0  0  0  0  0  0
   25.5419  -22.5928  -21.4489 C   0  0  0  0  0  0  0  0  0  0  0  0
   24.1577  -22.5456  -21.3439 C   0  0  0  0  0  0  0  0  0  0  0  0
   22.3840  -25.4705  -19.2729 C   0  0  0  0  0  0  0  0  0  0  0  0
   21.1057  -25.4826  -18.7418 O   0  0  0  0  0  0  0  0  0  0  0  0
   22.5277  -26.1925  -20.3226 O   0  0  0  0  0  0  0  0  0  0  0  0
  2  1  1  0
  2  4  1  0
  3  2  2  0
  4  5  1  0
  5  6  1  1
  7  8  2  0
  7  5  1  0
 10  9  1  0
 10 11  2  0
 13 12  1  6
 12 10  1  0
 13 14  1  0
 14  7  1  0
 15 13  1  0
 16 15  2  0
 17 15  1  0
 18 17  1  0
 18 19  1  6
 19 20  1  0
 20 28  1  0
 21 20  2  0
 21 22  1  0
 22 23  1  0
 23 24  1  0
 24 25  2  0
 26 25  1  0
 27 26  2  0
 28 23  2  0
 28 27  1  0
 29 30  1  0
 29 18  1  0
 31 29  2  0
M  END
$$$$
