NNW.pdb
     RDKit          3D

 31 32  0  0  1  0  0  0  0  0999 V2000
   18.1076  -13.4218  -16.7866 N   0  0  0  0  0  0  0  0  0  0  0  0
   19.0249  -12.8216  -15.8942 C   0  0  0  0  0  0  0  0  0  0  0  0
   19.2727  -13.3762  -14.8057 O   0  0  0  0  0  0  0  0  0  0  0  0
   19.6722  -11.5548  -16.2633 C   0  0  0  0  0  0  0  0  0  0  0  0
   19.1631  -11.0259  -17.6045 C   0  0  2  0  0  0  0  0  0  0  0  0
   19.6726  -11.8163  -18.6998 N   0  0  0  0  0  0  0  0  0  0  0  0
   19.5554   -9.6099  -17.6971 C   0  0  0  0  0  0  0  0  0  0  0  0
   20.6608   -9.3253  -18.2244 O   0  0  0  0  0  0  0  0  0  0  0  0
   17.5020   -4.0016  -18.4829 N   0  0  0  0  0  0  0  0  0  0  0  0
   18.3498   -4.9318  -17.8381 C   0  0  0  0  0  0  0  0  0  0  0  0
   19.4802   -4.5483  -17.4345 O   0  0  0  0  0  0  0  0  0  0  0  0
   17.9306   -6.3493  -17.6288 C   0  0  0  0  0  0  0  0  0  0  0  0
   19.1150   -7.2228  -17.2862 C   0  0  2  0  0  0  0  0  0  0  0  0
   18.7003   -8.5945  -17.1998 N   0  0  0  0  0  0  0  0  0  0  0  0
   19.6811   -6.7396  -15.9909 C   0  0  0  0  0  0  0  0  0  0  0  0
   18.9717   -6.7996  -14.9605 O   0  0  0  0  0  0  0  0  0  0  0  0
   20.9844   -6.2154  -15.8788 N   0  0  0  0  0  0  0  0  0  0  0  0
   21.6491   -5.8768  -14.6217 C   0  0  1  0  0  0  0  0  0  0  0  0
   23.0152   -6.4515  -14.5678 C   0  0  0  0  0  0  0  0  0  0  0  0
   23.1266   -7.9065  -14.5274 C   0  0  0  0  0  0  0  0  0  0  0  0
   22.1381   -8.7552  -14.0496 C   0  0  0  0  0  0  0  0  0  0  0  0
   22.5727  -10.0360  -14.1296 N   0  0  0  0  0  0  0  0  0  0  0  0
   23.8245  -10.0521  -14.6497 C   0  0  0  0  0  0  0  0  0  0  0  0
   24.7161  -11.0539  -14.9583 C   0  0  0  0  0  0  0  0  0  0  0  0
   25.9586  -10.8156  -15.5128 C   0  0  0  0  0  0  0  0  0  0  0  0
   26.2982   -9.5035  -15.7588 C   0  0  0  0  0  0  0  0  0  0  0  0
   25.4207   -8.4863  -15.4566 C   0  0  0  0  0  0  0  0  0  0  0  0
   24.1703   -8.7194  -14.8986 C   0  0  0  0  0  0  0  0  0  0  0  0
   21.5597   -4.4234  -14.4445 C   0  0  0  0  0  0  0  0  0  0  0  0
   22.0028   -3.7063  -13.3465 O   0  0  0  0  0  0  0  0  0  0  0  0
   21.0233   -3.7074  -15.3629 O   0  0  0  0  0  0  0  0  0  0  0  0
  2  1  1  0
  2  4  1  0
  3  2  2  0
  4  5  1  0
  5  6  1  6
  7  8  2  0
  7  5  1  0
 10  9  1  0
 10 11  2  0
 13 12  1  1
 12 10  1  0
 13 14  1  0
 14  7  1  0
 15 13  1  0
 16 15  2  0
 17 15  1  0
 18 17  1  0
 18 19  1  6
 19 20  1  0
 20 28  1  0
 21 20  2  0
 21 22  1  0
 22 23  1  0
 23 24  1  0
 24 25  2  0
 26 25  1  0
 27 26  2  0
 28 23  2  0
 28 27  1  0
 29 30  1  0
 29 18  1  0
 31 29  2  0
M  END
$$$$
