NNW.pdb
     RDKit          3D

 31 32  0  0  1  0  0  0  0  0999 V2000
   29.9929  -20.3467  -18.3794 N   0  0  0  0  0  0  0  0  0  0  0  0
   30.3498  -20.9233  -17.1391 C   0  0  0  0  0  0  0  0  0  0  0  0
   31.2302  -21.8051  -17.1043 O   0  0  0  0  0  0  0  0  0  0  0  0
   29.6787  -20.4743  -15.9110 C   0  0  0  0  0  0  0  0  0  0  0  0
   28.7090  -19.3235  -16.1813 C   0  0  2  0  0  0  0  0  0  0  0  0
   29.4221  -18.0928  -16.4281 N   0  0  0  0  0  0  0  0  0  0  0  0
   27.8022  -19.2309  -15.0253 C   0  0  0  0  0  0  0  0  0  0  0  0
   27.9956  -18.3197  -14.1806 O   0  0  0  0  0  0  0  0  0  0  0  0
   23.9133  -18.2692  -12.7667 N   0  0  0  0  0  0  0  0  0  0  0  0
   23.4685  -19.2993  -13.6275 C   0  0  0  0  0  0  0  0  0  0  0  0
   22.2414  -19.3754  -13.9036 O   0  0  0  0  0  0  0  0  0  0  0  0
   24.4215  -20.2897  -14.2104 C   0  0  0  0  0  0  0  0  0  0  0  0
   25.8377  -20.0113  -13.7632 C   0  0  2  0  0  0  0  0  0  0  0  0
   26.7363  -20.1532  -14.8737 N   0  0  0  0  0  0  0  0  0  0  0  0
   26.1683  -20.9697  -12.6659 C   0  0  0  0  0  0  0  0  0  0  0  0
   26.5202  -22.1339  -12.9647 O   0  0  0  0  0  0  0  0  0  0  0  0
   26.0993  -20.6185  -11.3027 N   0  0  0  0  0  0  0  0  0  0  0  0
   25.7087  -21.5206  -10.2210 C   0  0  1  0  0  0  0  0  0  0  0  0
   26.8054  -21.6794   -9.2354 C   0  0  0  0  0  0  0  0  0  0  0  0
   27.0429  -20.5705   -8.3161 C   0  0  0  0  0  0  0  0  0  0  0  0
   26.2870  -19.4074   -8.2792 C   0  0  0  0  0  0  0  0  0  0  0  0
   26.7895  -18.5784   -7.3327 N   0  0  0  0  0  0  0  0  0  0  0  0
   27.8588  -19.1678   -6.7438 C   0  0  0  0  0  0  0  0  0  0  0  0
   28.7182  -18.7948   -5.7357 C   0  0  0  0  0  0  0  0  0  0  0  0
   29.7486  -19.5969   -5.2853 C   0  0  0  0  0  0  0  0  0  0  0  0
   29.9029  -20.8245   -5.8909 C   0  0  0  0  0  0  0  0  0  0  0  0
   29.0542  -21.2165   -6.9019 C   0  0  0  0  0  0  0  0  0  0  0  0
   28.0166  -20.4143   -7.3593 C   0  0  0  0  0  0  0  0  0  0  0  0
   24.4290  -21.0473   -9.6824 C   0  0  0  0  0  0  0  0  0  0  0  0
   23.8334  -19.8261   -9.9478 O   0  0  0  0  0  0  0  0  0  0  0  0
   23.7654  -21.7967   -8.8814 O   0  0  0  0  0  0  0  0  0  0  0  0
  2  1  1  0
  2  4  1  0
  3  2  2  0
  4  5  1  0
  5  6  1  1
  7  8  2  0
  7  5  1  0
 10  9  1  0
 10 11  2  0
 13 12  1  6
 12 10  1  0
 13 14  1  0
 14  7  1  0
 15 13  1  0
 16 15  2  0
 17 15  1  0
 18 17  1  0
 18 19  1  1
 19 20  1  0
 20 28  1  0
 21 20  2  0
 21 22  1  0
 22 23  1  0
 23 24  1  0
 24 25  2  0
 26 25  1  0
 27 26  2  0
 28 23  2  0
 28 27  1  0
 29 30  1  0
 29 18  1  0
 31 29  2  0
M  END
$$$$
