NNW.pdb
     RDKit          3D

 31 32  0  0  1  0  0  0  0  0999 V2000
   16.2883  -23.8212  -12.9023 N   0  0  0  0  0  0  0  0  0  0  0  0
   17.1506  -24.8706  -13.2939 C   0  0  0  0  0  0  0  0  0  0  0  0
   16.6713  -25.9897  -13.5616 O   0  0  0  0  0  0  0  0  0  0  0  0
   18.5973  -24.6260  -13.3802 C   0  0  0  0  0  0  0  0  0  0  0  0
   18.9434  -23.1613  -13.1109 C   0  0  2  0  0  0  0  0  0  0  0  0
   18.3109  -22.2940  -14.0761 N   0  0  0  0  0  0  0  0  0  0  0  0
   20.4110  -23.0463  -13.1218 C   0  0  0  0  0  0  0  0  0  0  0  0
   21.0699  -23.6746  -12.2545 O   0  0  0  0  0  0  0  0  0  0  0  0
   22.7807  -25.7422  -13.8800 N   0  0  0  0  0  0  0  0  0  0  0  0
   23.4758  -24.5218  -14.0454 C   0  0  0  0  0  0  0  0  0  0  0  0
   24.5502  -24.3417  -13.4121 O   0  0  0  0  0  0  0  0  0  0  0  0
   22.9619  -23.4522  -14.9512 C   0  0  0  0  0  0  0  0  0  0  0  0
   22.4943  -22.2500  -14.1642 C   0  0  2  0  0  0  0  0  0  0  0  0
   21.0606  -22.2423  -14.0920 N   0  0  0  0  0  0  0  0  0  0  0  0
   23.0145  -21.0262  -14.8451 C   0  0  0  0  0  0  0  0  0  0  0  0
   22.4028  -20.5833  -15.8442 O   0  0  0  0  0  0  0  0  0  0  0  0
   24.1702  -20.3469  -14.4103 N   0  0  0  0  0  0  0  0  0  0  0  0
   24.6669  -19.0906  -14.9684 C   0  0  1  0  0  0  0  0  0  0  0  0
   25.9291  -18.6752  -14.3099 C   0  0  0  0  0  0  0  0  0  0  0  0
   26.6502  -17.5502  -14.8977 C   0  0  0  0  0  0  0  0  0  0  0  0
   26.4711  -16.2249  -14.5276 C   0  0  0  0  0  0  0  0  0  0  0  0
   27.2727  -15.4377  -15.2849 N   0  0  0  0  0  0  0  0  0  0  0  0
   27.9771  -16.2130  -16.1454 C   0  0  0  0  0  0  0  0  0  0  0  0
   28.9252  -15.9507  -17.1079 C   0  0  0  0  0  0  0  0  0  0  0  0
   29.5285  -16.9374  -17.8632 C   0  0  0  0  0  0  0  0  0  0  0  0
   29.1453  -18.2385  -17.6229 C   0  0  0  0  0  0  0  0  0  0  0  0
   28.1979  -18.5222  -16.6648 C   0  0  0  0  0  0  0  0  0  0  0  0
   27.5873  -17.5346  -15.9025 C   0  0  0  0  0  0  0  0  0  0  0  0
   24.7260  -19.2402  -16.4265 C   0  0  0  0  0  0  0  0  0  0  0  0
   24.4999  -18.2426  -17.3592 O   0  0  0  0  0  0  0  0  0  0  0  0
   25.0033  -20.3849  -16.9329 O   0  0  0  0  0  0  0  0  0  0  0  0
  2  1  1  0
  2  4  1  0
  3  2  2  0
  4  5  1  0
  5  6  1  6
  7  8  2  0
  7  5  1  0
 10  9  1  0
 10 11  2  0
 13 12  1  6
 12 10  1  0
 13 14  1  0
 14  7  1  0
 15 13  1  0
 16 15  2  0
 17 15  1  0
 18 17  1  0
 18 19  1  1
 19 20  1  0
 20 28  1  0
 21 20  2  0
 21 22  1  0
 22 23  1  0
 23 24  1  0
 24 25  2  0
 26 25  1  0
 27 26  2  0
 28 23  2  0
 28 27  1  0
 29 30  1  0
 29 18  1  0
 31 29  2  0
M  END
$$$$
