NNW.pdb
     RDKit          3D

 31 32  0  0  1  0  0  0  0  0999 V2000
   21.7695  -16.5006  -21.0807 N   0  0  0  0  0  0  0  0  0  0  0  0
   22.5620  -16.2241  -19.9432 C   0  0  0  0  0  0  0  0  0  0  0  0
   22.5888  -17.0410  -19.0021 O   0  0  0  0  0  0  0  0  0  0  0  0
   23.3418  -14.9795  -19.8883 C   0  0  0  0  0  0  0  0  0  0  0  0
   23.2835  -14.2132  -21.2101 C   0  0  2  0  0  0  0  0  0  0  0  0
   24.2835  -14.6954  -22.1327 N   0  0  0  0  0  0  0  0  0  0  0  0
   23.4432  -12.7835  -20.8976 C   0  0  0  0  0  0  0  0  0  0  0  0
   24.4328  -12.4251  -20.2096 O   0  0  0  0  0  0  0  0  0  0  0  0
   23.2434   -7.4334  -22.2894 N   0  0  0  0  0  0  0  0  0  0  0  0
   22.1397   -8.1388  -21.7564 C   0  0  0  0  0  0  0  0  0  0  0  0
   21.3161   -7.5223  -21.0289 O   0  0  0  0  0  0  0  0  0  0  0  0
   21.9356   -9.5903  -22.0399 C   0  0  0  0  0  0  0  0  0  0  0  0
   22.6719  -10.4498  -21.0388 C   0  0  2  0  0  0  0  0  0  0  0  0
   22.4973  -11.8367  -21.3653 N   0  0  0  0  0  0  0  0  0  0  0  0
   22.1334  -10.1351  -19.6812 C   0  0  0  0  0  0  0  0  0  0  0  0
   21.0734  -10.6876  -19.3077 O   0  0  0  0  0  0  0  0  0  0  0  0
   22.7693   -9.2379  -18.7998 N   0  0  0  0  0  0  0  0  0  0  0  0
   22.2716   -8.8639  -17.4774 C   0  0  1  0  0  0  0  0  0  0  0  0
   23.3891   -8.6575  -16.5245 C   0  0  0  0  0  0  0  0  0  0  0  0
   23.0638   -8.0596  -15.2331 C   0  0  0  0  0  0  0  0  0  0  0  0
   22.8863   -8.7779  -14.0592 C   0  0  0  0  0  0  0  0  0  0  0  0
   22.5694   -7.9234  -13.0566 N   0  0  0  0  0  0  0  0  0  0  0  0
   22.5345   -6.6580  -13.5416 C   0  0  0  0  0  0  0  0  0  0  0  0
   22.2876   -5.4271  -12.9778 C   0  0  0  0  0  0  0  0  0  0  0  0
   22.3301   -4.2460  -13.6927 C   0  0  0  0  0  0  0  0  0  0  0  0
   22.6362   -4.3309  -15.0331 C   0  0  0  0  0  0  0  0  0  0  0  0
   22.8858   -5.5528  -15.6167 C   0  0  0  0  0  0  0  0  0  0  0  0
   22.8442   -6.7439  -14.9034 C   0  0  0  0  0  0  0  0  0  0  0  0
   21.3582   -7.7287  -17.6466 C   0  0  0  0  0  0  0  0  0  0  0  0
   21.6187   -6.5706  -18.3589 O   0  0  0  0  0  0  0  0  0  0  0  0
   20.2004   -7.7627  -17.0970 O   0  0  0  0  0  0  0  0  0  0  0  0
  2  1  1  0
  2  4  1  0
  3  2  2  0
  4  5  1  0
  5  6  1  6
  7  8  2  0
  7  5  1  0
 10  9  1  0
 10 11  2  0
 13 12  1  6
 12 10  1  0
 13 14  1  0
 14  7  1  0
 15 13  1  0
 16 15  2  0
 17 15  1  0
 18 17  1  0
 18 19  1  1
 19 20  1  0
 20 28  1  0
 21 20  2  0
 21 22  1  0
 22 23  1  0
 23 24  1  0
 24 25  2  0
 26 25  1  0
 27 26  2  0
 28 23  2  0
 28 27  1  0
 29 30  1  0
 29 18  1  0
 31 29  2  0
M  END
$$$$
