NNW.pdb
     RDKit          3D

 31 32  0  0  1  0  0  0  0  0999 V2000
   29.0504  -18.9178  -16.5455 N   0  0  0  0  0  0  0  0  0  0  0  0
   28.1093  -17.8630  -16.5489 C   0  0  0  0  0  0  0  0  0  0  0  0
   27.9568  -17.1815  -17.5815 O   0  0  0  0  0  0  0  0  0  0  0  0
   27.3256  -17.5869  -15.3366 C   0  0  0  0  0  0  0  0  0  0  0  0
   27.7274  -18.5016  -14.1793 C   0  0  2  0  0  0  0  0  0  0  0  0
   28.7346  -19.4490  -14.5938 N   0  0  0  0  0  0  0  0  0  0  0  0
   26.5027  -19.1549  -13.6888 C   0  0  0  0  0  0  0  0  0  0  0  0
   25.5054  -18.4381  -13.4189 O   0  0  0  0  0  0  0  0  0  0  0  0
   22.8534  -22.4471  -12.4288 N   0  0  0  0  0  0  0  0  0  0  0  0
   23.5067  -22.8529  -13.6156 C   0  0  0  0  0  0  0  0  0  0  0  0
   22.9759  -23.7461  -14.3286 O   0  0  0  0  0  0  0  0  0  0  0  0
   24.8041  -22.2447  -14.0345 C   0  0  0  0  0  0  0  0  0  0  0  0
   25.2441  -21.1757  -13.0615 C   0  0  2  0  0  0  0  0  0  0  0  0
   26.4560  -20.5625  -13.5262 N   0  0  0  0  0  0  0  0  0  0  0  0
   25.4339  -21.8208  -11.7273 C   0  0  0  0  0  0  0  0  0  0  0  0
   24.4903  -22.4804  -11.2343 O   0  0  0  0  0  0  0  0  0  0  0  0
   26.6342  -21.7168  -10.9960 N   0  0  0  0  0  0  0  0  0  0  0  0
   26.7309  -21.3288   -9.5901 C   0  0  1  0  0  0  0  0  0  0  0  0
   27.7451  -20.2640   -9.3981 C   0  0  0  0  0  0  0  0  0  0  0  0
   27.8248  -19.6479   -8.0770 C   0  0  0  0  0  0  0  0  0  0  0  0
   27.0850  -18.5423   -7.6819 C   0  0  0  0  0  0  0  0  0  0  0  0
   27.4180  -18.2138   -6.4103 N   0  0  0  0  0  0  0  0  0  0  0  0
   28.3596  -19.0774   -5.9571 C   0  0  0  0  0  0  0  0  0  0  0  0
   29.0285  -19.2181   -4.7627 C   0  0  0  0  0  0  0  0  0  0  0  0
   29.9546  -20.2157   -4.5280 C   0  0  0  0  0  0  0  0  0  0  0  0
   30.2034  -21.0995   -5.5549 C   0  0  0  0  0  0  0  0  0  0  0  0
   29.5453  -20.9756   -6.7581 C   0  0  0  0  0  0  0  0  0  0  0  0
   28.6134  -19.9746   -7.0003 C   0  0  0  0  0  0  0  0  0  0  0  0
   25.3781  -21.0156   -9.1173 C   0  0  0  0  0  0  0  0  0  0  0  0
   24.7485  -21.5724   -8.0174 O   0  0  0  0  0  0  0  0  0  0  0  0
   24.6705  -20.1560   -9.7531 O   0  0  0  0  0  0  0  0  0  0  0  0
  2  1  1  0
  2  4  1  0
  3  2  2  0
  4  5  1  0
  5  6  1  6
  7  8  2  0
  7  5  1  0
 10  9  1  0
 10 11  2  0
 13 12  1  6
 12 10  1  0
 13 14  1  0
 14  7  1  0
 15 13  1  0
 16 15  2  0
 17 15  1  0
 18 17  1  0
 18 19  1  6
 19 20  1  0
 20 28  1  0
 21 20  2  0
 21 22  1  0
 22 23  1  0
 23 24  1  0
 24 25  2  0
 26 25  1  0
 27 26  2  0
 28 23  2  0
 28 27  1  0
 29 30  1  0
 29 18  1  0
 31 29  2  0
M  END
$$$$
