FPY.pdb
     RDKit          3D

 31 33  0  0  1  0  0  0  0  0999 V2000
    8.5697  -17.8536   17.7569 N   0  0  0  0  0  0  0  0  0  0  0  0
    7.6055  -17.4400   18.7706 C   0  0  1  0  0  0  0  0  0  0  0  0
    6.8661  -18.6598   19.2990 C   0  0  0  0  0  0  0  0  0  0  0  0
    5.8345  -18.2936   20.2823 C   0  0  0  0  0  0  0  0  0  0  0  0
    4.6146  -17.7829   19.9010 C   0  0  0  0  0  0  0  0  0  0  0  0
    3.6659  -17.4469   20.8496 C   0  0  0  0  0  0  0  0  0  0  0  0
    3.9279  -17.6190   22.2034 C   0  0  0  0  0  0  0  0  0  0  0  0
    5.1473  -18.1301   22.5963 C   0  0  0  0  0  0  0  0  0  0  0  0
    6.0731  -18.4558   21.6257 C   0  0  0  0  0  0  0  0  0  0  0  0
    8.2564  -16.7336   19.8811 C   0  0  0  0  0  0  0  0  0  0  0  0
    9.0593  -17.3330   20.6380 O   0  0  0  0  0  0  0  0  0  0  0  0
    8.0295  -15.3303   20.1786 N   0  0  0  0  0  0  0  0  0  0  0  0
    7.2792  -14.4109   19.3468 C   0  0  0  0  0  0  0  0  0  0  0  0
    6.5058  -13.6289   20.4188 C   0  0  0  0  0  0  0  0  0  0  0  0
    7.6862  -13.3424   21.3661 C   0  0  0  0  0  0  0  0  0  0  0  0
    8.5426  -14.5837   21.2871 C   0  0  1  0  0  0  0  0  0  0  0  0
    8.5285  -15.3070   22.5848 C   0  0  0  0  0  0  0  0  0  0  0  0
    7.5021  -15.5732   23.2148 O   0  0  0  0  0  0  0  0  0  0  0  0
   10.6139  -20.6908   29.0707 O   0  0  0  0  0  0  0  0  0  0  0  0
   10.4106  -20.0098   27.8995 C   0  0  0  0  0  0  0  0  0  0  0  0
   10.3618  -18.6416   27.9028 C   0  0  0  0  0  0  0  0  0  0  0  0
   10.1579  -17.9308   26.7366 C   0  0  0  0  0  0  0  0  0  0  0  0
    9.9955  -18.5568   25.5270 C   0  0  0  0  0  0  0  0  0  0  0  0
    9.7742  -17.8218   24.2623 C   0  0  0  0  0  0  0  0  0  0  0  0
    9.8682  -16.3074   24.4682 C   0  0  2  0  0  0  0  0  0  0  0  0
    9.7718  -15.7206   23.1392 N   0  0  0  0  0  0  0  0  0  0  0  0
   11.2344  -16.0237   24.9775 C   0  0  0  0  0  0  0  0  0  0  0  0
   11.5148  -16.2225   26.1962 O   0  0  0  0  0  0  0  0  0  0  0  0
   10.0457  -19.9499   25.5270 C   0  0  0  0  0  0  0  0  0  0  0  0
   10.2495  -20.6578   26.6925 C   0  0  0  0  0  0  0  0  0  0  0  0
   12.2586  -15.5382   24.1767 O   0  0  0  0  0  0  0  0  0  0  0  0
  2 10  1  0
  2  1  1  6
  3  2  1  0
  4  3  1  0
  4  5  2  0
  6  5  1  0
  7  6  2  0
  8  9  2  0
  8  7  1  0
  9  4  1  0
 10 12  1  0
 11 10  2  0
 12 16  1  0
 12 13  1  0
 13 14  1  0
 15 14  1  0
 16 15  1  0
 16 17  1  1
 18 17  2  0
 20 21  2  0
 20 19  1  0
 22 21  1  0
 23 22  2  0
 24 23  1  0
 25 24  1  6
 25 27  1  0
 25 26  1  0
 26 17  1  0
 27 31  1  0
 28 27  2  0
 29 23  1  0
 29 30  2  0
 30 20  1  0
M  END
$$$$
