FPY.pdb
     RDKit          3D

 31 33  0  0  1  0  0  0  0  0999 V2000
    6.2444  -15.9217   22.9805 N   0  0  0  0  0  0  0  0  0  0  0  0
    7.6545  -16.2739   22.8547 C   0  0  1  0  0  0  0  0  0  0  0  0
    8.0889  -16.1288   21.4041 C   0  0  0  0  0  0  0  0  0  0  0  0
    7.9332  -14.7482   20.9195 C   0  0  0  0  0  0  0  0  0  0  0  0
    9.0059  -13.8944   20.7983 C   0  0  0  0  0  0  0  0  0  0  0  0
    8.8269  -12.6016   20.3408 C   0  0  0  0  0  0  0  0  0  0  0  0
    7.5615  -12.1425   19.9958 C   0  0  0  0  0  0  0  0  0  0  0  0
    6.4797  -12.9900   20.1134 C   0  0  0  0  0  0  0  0  0  0  0  0
    6.6909  -14.2744   20.5729 C   0  0  0  0  0  0  0  0  0  0  0  0
    8.5010  -15.4358   23.7132 C   0  0  0  0  0  0  0  0  0  0  0  0
    9.7445  -15.6064   23.7482 O   0  0  0  0  0  0  0  0  0  0  0  0
    7.9805  -14.3767   24.5599 N   0  0  0  0  0  0  0  0  0  0  0  0
    6.8932  -13.4852   24.2091 C   0  0  0  0  0  0  0  0  0  0  0  0
    6.1395  -13.4213   25.5459 C   0  0  0  0  0  0  0  0  0  0  0  0
    7.3516  -13.1648   26.4613 C   0  0  0  0  0  0  0  0  0  0  0  0
    8.4677  -13.9735   25.8442 C   0  0  1  0  0  0  0  0  0  0  0  0
    8.8556  -15.0917   26.7422 C   0  0  0  0  0  0  0  0  0  0  0  0
    8.1607  -16.0916   26.9383 O   0  0  0  0  0  0  0  0  0  0  0  0
   12.3469  -18.3164   22.6250 O   0  0  0  0  0  0  0  0  0  0  0  0
   12.2690  -17.8255   23.9016 C   0  0  0  0  0  0  0  0  0  0  0  0
   12.0204  -18.6738   24.9471 C   0  0  0  0  0  0  0  0  0  0  0  0
   11.9367  -18.2052   26.2434 C   0  0  0  0  0  0  0  0  0  0  0  0
   12.0973  -16.8766   26.5440 C   0  0  0  0  0  0  0  0  0  0  0  0
   12.0115  -16.3460   27.9223 C   0  0  0  0  0  0  0  0  0  0  0  0
   10.5627  -16.0549   28.3236 C   0  0  2  0  0  0  0  0  0  0  0  0
   10.1041  -15.0098   27.4196 N   0  0  0  0  0  0  0  0  0  0  0  0
   10.6007  -15.4715   29.6892 C   0  0  0  0  0  0  0  0  0  0  0  0
   10.9310  -16.1877   30.6797 O   0  0  0  0  0  0  0  0  0  0  0  0
   12.3503  -16.0156   25.4773 C   0  0  0  0  0  0  0  0  0  0  0  0
   12.4336  -16.4854   24.1837 C   0  0  0  0  0  0  0  0  0  0  0  0
   10.2866  -14.1469   29.9588 O   0  0  0  0  0  0  0  0  0  0  0  0
  2 10  1  0
  2  1  1  6
  3  2  1  0
  4  3  1  0
  4  5  2  0
  6  5  1  0
  7  6  2  0
  8  9  2  0
  8  7  1  0
  9  4  1  0
 10 12  1  0
 11 10  2  0
 12 16  1  0
 12 13  1  0
 13 14  1  0
 15 14  1  0
 16 15  1  0
 16 17  1  1
 18 17  2  0
 20 21  2  0
 20 19  1  0
 22 21  1  0
 23 22  2  0
 24 23  1  0
 25 24  1  6
 25 27  1  0
 25 26  1  0
 26 17  1  0
 27 31  1  0
 28 27  2  0
 29 23  1  0
 29 30  2  0
 30 20  1  0
M  END
$$$$
