FPY.pdb
     RDKit          3D

 31 33  0  0  1  0  0  0  0  0999 V2000
    6.1806  -17.6369   26.2401 N   0  0  0  0  0  0  0  0  0  0  0  0
    6.6400  -16.3657   25.6912 C   0  0  1  0  0  0  0  0  0  0  0  0
    7.1428  -15.4757   26.8177 C   0  0  0  0  0  0  0  0  0  0  0  0
    7.2787  -14.0739   26.3913 C   0  0  0  0  0  0  0  0  0  0  0  0
    6.2058  -13.2122   26.3716 C   0  0  0  0  0  0  0  0  0  0  0  0
    6.3656  -11.9002   25.9643 C   0  0  0  0  0  0  0  0  0  0  0  0
    7.6116  -11.4296   25.5682 C   0  0  0  0  0  0  0  0  0  0  0  0
    8.6936  -12.2849   25.5842 C   0  0  0  0  0  0  0  0  0  0  0  0
    8.5018  -13.5884   25.9959 C   0  0  0  0  0  0  0  0  0  0  0  0
    7.7034  -16.5575   24.6970 C   0  0  0  0  0  0  0  0  0  0  0  0
    8.7950  -17.0867   25.0215 O   0  0  0  0  0  0  0  0  0  0  0  0
    7.5768  -16.1637   23.3049 N   0  0  0  0  0  0  0  0  0  0  0  0
    6.3316  -15.8378   22.6389 C   0  0  0  0  0  0  0  0  0  0  0  0
    6.7704  -14.6303   21.7973 C   0  0  0  0  0  0  0  0  0  0  0  0
    8.0584  -15.2374   21.2097 C   0  0  0  0  0  0  0  0  0  0  0  0
    8.6190  -16.0851   22.3266 C   0  0  1  0  0  0  0  0  0  0  0  0
    9.8964  -15.5110   22.8224 C   0  0  0  0  0  0  0  0  0  0  0  0
   10.1380  -14.3023   22.8670 O   0  0  0  0  0  0  0  0  0  0  0  0
    8.5533  -15.7147   29.2198 O   0  0  0  0  0  0  0  0  0  0  0  0
    9.4650  -15.9758   28.2312 C   0  0  0  0  0  0  0  0  0  0  0  0
    9.7536  -17.2701   27.8906 C   0  0  0  0  0  0  0  0  0  0  0  0
   10.6685  -17.5609   26.8980 C   0  0  0  0  0  0  0  0  0  0  0  0
   11.3279  -16.5742   26.2104 C   0  0  0  0  0  0  0  0  0  0  0  0
   12.3137  -16.8558   25.1438 C   0  0  0  0  0  0  0  0  0  0  0  0
   12.1148  -15.9348   23.9368 C   0  0  2  0  0  0  0  0  0  0  0  0
   10.9063  -16.4052   23.2750 N   0  0  0  0  0  0  0  0  0  0  0  0
   13.2497  -16.1831   23.0111 C   0  0  0  0  0  0  0  0  0  0  0  0
   14.3702  -15.6289   23.2129 O   0  0  0  0  0  0  0  0  0  0  0  0
   11.0318  -15.2575   26.5595 C   0  0  0  0  0  0  0  0  0  0  0  0
   10.1179  -14.9691   27.5508 C   0  0  0  0  0  0  0  0  0  0  0  0
   13.1583  -17.0113   21.9014 O   0  0  0  0  0  0  0  0  0  0  0  0
  2 10  1  0
  2  1  1  1
  3  2  1  0
  4  3  1  0
  4  5  2  0
  6  5  1  0
  7  6  2  0
  8  9  2  0
  8  7  1  0
  9  4  1  0
 10 12  1  0
 11 10  2  0
 12 16  1  0
 12 13  1  0
 13 14  1  0
 15 14  1  0
 16 15  1  0
 16 17  1  1
 18 17  2  0
 20 21  2  0
 20 19  1  0
 22 21  1  0
 23 22  2  0
 24 23  1  0
 25 24  1  1
 25 27  1  0
 25 26  1  0
 26 17  1  0
 27 31  1  0
 28 27  2  0
 29 23  1  0
 29 30  2  0
 30 20  1  0
M  END
$$$$
