FPY.pdb
     RDKit          3D

 31 33  0  0  1  0  0  0  0  0999 V2000
    6.3454  -16.0346   26.3885 N   0  0  0  0  0  0  0  0  0  0  0  0
    6.2054  -15.9772   24.9376 C   0  0  1  0  0  0  0  0  0  0  0  0
    5.6167  -14.6337   24.5348 C   0  0  0  0  0  0  0  0  0  0  0  0
    6.2149  -13.5226   25.2918 C   0  0  0  0  0  0  0  0  0  0  0  0
    7.4894  -13.0707   25.0355 C   0  0  0  0  0  0  0  0  0  0  0  0
    8.0242  -12.0248   25.7656 C   0  0  0  0  0  0  0  0  0  0  0  0
    7.2843  -11.4126   26.7699 C   0  0  0  0  0  0  0  0  0  0  0  0
    6.0060  -11.8577   27.0349 C   0  0  0  0  0  0  0  0  0  0  0  0
    5.5005  -12.9034   26.2889 C   0  0  0  0  0  0  0  0  0  0  0  0
    7.4927  -16.1788   24.2606 C   0  0  0  0  0  0  0  0  0  0  0  0
    8.4826  -16.6288   24.8888 O   0  0  0  0  0  0  0  0  0  0  0  0
    7.7120  -15.8839   22.8555 N   0  0  0  0  0  0  0  0  0  0  0  0
    6.6967  -15.4203   21.9311 C   0  0  0  0  0  0  0  0  0  0  0  0
    7.4928  -14.3696   21.1430 C   0  0  0  0  0  0  0  0  0  0  0  0
    8.7478  -15.2182   20.8647 C   0  0  0  0  0  0  0  0  0  0  0  0
    8.9240  -16.0507   22.1122 C   0  0  1  0  0  0  0  0  0  0  0  0
   10.1580  -15.6475   22.8348 C   0  0  0  0  0  0  0  0  0  0  0  0
   10.3485  -14.5207   23.2988 O   0  0  0  0  0  0  0  0  0  0  0  0
    9.4522  -15.3888   29.2786 O   0  0  0  0  0  0  0  0  0  0  0  0
   10.1982  -15.8383   28.2211 C   0  0  0  0  0  0  0  0  0  0  0  0
    9.6355  -16.6710   27.2913 C   0  0  0  0  0  0  0  0  0  0  0  0
   10.3650  -17.1386   26.2161 C   0  0  0  0  0  0  0  0  0  0  0  0
   11.6794  -16.7942   26.0291 C   0  0  0  0  0  0  0  0  0  0  0  0
   12.4857  -17.2808   24.8882 C   0  0  0  0  0  0  0  0  0  0  0  0
   12.4265  -16.3118   23.7040 C   0  0  2  0  0  0  0  0  0  0  0  0
   11.1860  -16.6163   23.0052 N   0  0  0  0  0  0  0  0  0  0  0  0
   13.5446  -16.6709   22.7944 C   0  0  0  0  0  0  0  0  0  0  0  0
   13.3325  -17.3968   21.7788 O   0  0  0  0  0  0  0  0  0  0  0  0
   12.2493  -15.9463   26.9775 C   0  0  0  0  0  0  0  0  0  0  0  0
   11.5194  -15.4803   28.0503 C   0  0  0  0  0  0  0  0  0  0  0  0
   14.8514  -16.2481   22.9925 O   0  0  0  0  0  0  0  0  0  0  0  0
  2 10  1  0
  2  1  1  1
  3  2  1  0
  4  3  1  0
  4  5  2  0
  6  5  1  0
  7  6  2  0
  8  9  2  0
  8  7  1  0
  9  4  1  0
 10 12  1  0
 11 10  2  0
 12 16  1  0
 12 13  1  0
 13 14  1  0
 15 14  1  0
 16 15  1  0
 16 17  1  1
 18 17  2  0
 20 21  2  0
 20 19  1  0
 22 21  1  0
 23 22  2  0
 24 23  1  0
 25 24  1  1
 25 27  1  0
 25 26  1  0
 26 17  1  0
 27 31  1  0
 28 27  2  0
 29 23  1  0
 29 30  2  0
 30 20  1  0
M  END
$$$$
