FPY.pdb
     RDKit          3D

 31 33  0  0  1  0  0  0  0  0999 V2000
    5.9833  -17.9192   25.2706 N   0  0  0  0  0  0  0  0  0  0  0  0
    6.5039  -16.5761   25.0397 C   0  0  1  0  0  0  0  0  0  0  0  0
    6.9658  -15.9745   26.3582 C   0  0  0  0  0  0  0  0  0  0  0  0
    6.8578  -14.5070   26.3602 C   0  0  0  0  0  0  0  0  0  0  0  0
    7.9644  -13.6959   26.2508 C   0  0  0  0  0  0  0  0  0  0  0  0
    7.8301  -12.3194   26.2571 C   0  0  0  0  0  0  0  0  0  0  0  0
    6.5764  -11.7318   26.3739 C   0  0  0  0  0  0  0  0  0  0  0  0
    5.4608  -12.5354   26.4841 C   0  0  0  0  0  0  0  0  0  0  0  0
    5.6276  -13.9057   26.4746 C   0  0  0  0  0  0  0  0  0  0  0  0
    7.6154  -16.5834   24.0802 C   0  0  0  0  0  0  0  0  0  0  0  0
    8.5741  -17.3827   24.2176 O   0  0  0  0  0  0  0  0  0  0  0  0
    7.6874  -15.6953   22.9334 N   0  0  0  0  0  0  0  0  0  0  0  0
    6.7347  -14.6469   22.6277 C   0  0  0  0  0  0  0  0  0  0  0  0
    7.6832  -13.5319   22.1628 C   0  0  0  0  0  0  0  0  0  0  0  0
    8.5459  -14.3729   21.2031 C   0  0  0  0  0  0  0  0  0  0  0  0
    8.6496  -15.7220   21.8737 C   0  0  1  0  0  0  0  0  0  0  0  0
   10.0469  -15.9794   22.3078 C   0  0  0  0  0  0  0  0  0  0  0  0
   10.9111  -16.4843   21.5871 O   0  0  0  0  0  0  0  0  0  0  0  0
   10.2549  -17.2914   29.9856 O   0  0  0  0  0  0  0  0  0  0  0  0
   10.6214  -16.6235   28.8470 C   0  0  0  0  0  0  0  0  0  0  0  0
   11.4738  -17.2128   27.9522 C   0  0  0  0  0  0  0  0  0  0  0  0
   11.8593  -16.5617   26.7970 C   0  0  0  0  0  0  0  0  0  0  0  0
   11.4101  -15.3020   26.4925 C   0  0  0  0  0  0  0  0  0  0  0  0
   11.8071  -14.5798   25.2638 C   0  0  0  0  0  0  0  0  0  0  0  0
   11.8090  -15.5050   24.0436 C   0  0  2  0  0  0  0  0  0  0  0  0
   10.4166  -15.6236   23.6349 N   0  0  0  0  0  0  0  0  0  0  0  0
   12.2454  -16.8439   24.5162 C   0  0  0  0  0  0  0  0  0  0  0  0
   13.4671  -17.0657   24.7641 O   0  0  0  0  0  0  0  0  0  0  0  0
   10.5424  -14.7049   27.4055 C   0  0  0  0  0  0  0  0  0  0  0  0
   10.1585  -15.3566   28.5583 C   0  0  0  0  0  0  0  0  0  0  0  0
   11.3709  -17.9038   24.7102 O   0  0  0  0  0  0  0  0  0  0  0  0
  2 10  1  0
  2  1  1  1
  3  2  1  0
  4  3  1  0
  4  5  2  0
  6  5  1  0
  7  6  2  0
  8  9  2  0
  8  7  1  0
  9  4  1  0
 10 12  1  0
 11 10  2  0
 12 16  1  0
 12 13  1  0
 13 14  1  0
 15 14  1  0
 16 15  1  0
 16 17  1  1
 18 17  2  0
 20 21  2  0
 20 19  1  0
 22 21  1  0
 23 22  2  0
 24 23  1  0
 25 24  1  1
 25 27  1  0
 25 26  1  0
 26 17  1  0
 27 31  1  0
 28 27  2  0
 29 23  1  0
 29 30  2  0
 30 20  1  0
M  END
$$$$
