FPY.pdb
     RDKit          3D

 31 33  0  0  1  0  0  0  0  0999 V2000
    6.4436  -16.5671   21.7532 N   0  0  0  0  0  0  0  0  0  0  0  0
    7.7643  -16.1460   22.2078 C   0  0  1  0  0  0  0  0  0  0  0  0
    7.7169  -14.6849   22.6283 C   0  0  0  0  0  0  0  0  0  0  0  0
    7.8405  -13.7775   21.4766 C   0  0  0  0  0  0  0  0  0  0  0  0
    9.0603  -13.4788   20.9133 C   0  0  0  0  0  0  0  0  0  0  0  0
    9.1436  -12.6209   19.8317 C   0  0  0  0  0  0  0  0  0  0  0  0
    7.9979  -12.0459   19.2953 C   0  0  0  0  0  0  0  0  0  0  0  0
    6.7705  -12.3385   19.8523 C   0  0  0  0  0  0  0  0  0  0  0  0
    6.7203  -13.1983   20.9310 C   0  0  0  0  0  0  0  0  0  0  0  0
    8.2406  -16.9699   23.3260 C   0  0  0  0  0  0  0  0  0  0  0  0
    7.6010  -17.0149   24.4056 O   0  0  0  0  0  0  0  0  0  0  0  0
    9.4497  -17.7724   23.2694 N   0  0  0  0  0  0  0  0  0  0  0  0
   10.0017  -18.3677   22.0689 C   0  0  0  0  0  0  0  0  0  0  0  0
   11.4996  -18.1100   22.2904 C   0  0  0  0  0  0  0  0  0  0  0  0
   11.5864  -18.6001   23.7482 C   0  0  0  0  0  0  0  0  0  0  0  0
   10.2754  -18.1770   24.3667 C   0  0  1  0  0  0  0  0  0  0  0  0
   10.5014  -17.1290   25.3953 C   0  0  0  0  0  0  0  0  0  0  0  0
   10.9083  -15.9921   25.1437 O   0  0  0  0  0  0  0  0  0  0  0  0
    6.4641  -12.2058   25.7304 O   0  0  0  0  0  0  0  0  0  0  0  0
    7.1442  -13.1809   26.4110 C   0  0  0  0  0  0  0  0  0  0  0  0
    8.2839  -12.8659   27.1012 C   0  0  0  0  0  0  0  0  0  0  0  0
    8.9885  -13.8296   27.7953 C   0  0  0  0  0  0  0  0  0  0  0  0
    8.5836  -15.1396   27.8266 C   0  0  0  0  0  0  0  0  0  0  0  0
    9.3188  -16.1933   28.5602 C   0  0  0  0  0  0  0  0  0  0  0  0
   10.6209  -16.5700   27.8480 C   0  0  2  0  0  0  0  0  0  0  0  0
   10.2337  -17.4506   26.7551 N   0  0  0  0  0  0  0  0  0  0  0  0
   11.4191  -17.3791   28.8046 C   0  0  0  0  0  0  0  0  0  0  0  0
   11.3922  -18.6437   28.7476 O   0  0  0  0  0  0  0  0  0  0  0  0
    7.4228  -15.4571   27.1230 C   0  0  0  0  0  0  0  0  0  0  0  0
    6.7206  -14.4936   26.4306 C   0  0  0  0  0  0  0  0  0  0  0  0
   12.2195  -16.8195   29.7904 O   0  0  0  0  0  0  0  0  0  0  0  0
  2 10  1  0
  2  1  1  1
  3  2  1  0
  4  3  1  0
  4  5  2  0
  6  5  1  0
  7  6  2  0
  8  9  2  0
  8  7  1  0
  9  4  1  0
 10 12  1  0
 11 10  2  0
 12 16  1  0
 12 13  1  0
 13 14  1  0
 15 14  1  0
 16 15  1  0
 16 17  1  1
 18 17  2  0
 20 21  2  0
 20 19  1  0
 22 21  1  0
 23 22  2  0
 24 23  1  0
 25 24  1  1
 25 27  1  0
 25 26  1  0
 26 17  1  0
 27 31  1  0
 28 27  2  0
 29 23  1  0
 29 30  2  0
 30 20  1  0
M  END
$$$$
