FPY.pdb
     RDKit          3D

 31 33  0  0  1  0  0  0  0  0999 V2000
    5.9490  -17.8496   25.1460 N   0  0  0  0  0  0  0  0  0  0  0  0
    6.4404  -16.4802   25.0388 C   0  0  1  0  0  0  0  0  0  0  0  0
    6.6385  -15.8991   26.4306 C   0  0  0  0  0  0  0  0  0  0  0  0
    6.5246  -14.4321   26.4347 C   0  0  0  0  0  0  0  0  0  0  0  0
    7.6268  -13.6171   26.5582 C   0  0  0  0  0  0  0  0  0  0  0  0
    7.4869  -12.2412   26.5599 C   0  0  0  0  0  0  0  0  0  0  0  0
    6.2315  -11.6581   26.4371 C   0  0  0  0  0  0  0  0  0  0  0  0
    5.1203  -12.4656   26.3127 C   0  0  0  0  0  0  0  0  0  0  0  0
    5.2928  -13.8351   26.3144 C   0  0  0  0  0  0  0  0  0  0  0  0
    7.7008  -16.4140   24.2885 C   0  0  0  0  0  0  0  0  0  0  0  0
    8.6852  -17.1158   24.6279 O   0  0  0  0  0  0  0  0  0  0  0  0
    7.8983  -15.5593   23.1310 N   0  0  0  0  0  0  0  0  0  0  0  0
    6.8561  -14.8092   22.4591 C   0  0  0  0  0  0  0  0  0  0  0  0
    7.5922  -13.4896   22.1839 C   0  0  0  0  0  0  0  0  0  0  0  0
    8.8891  -14.0863   21.6052 C   0  0  0  0  0  0  0  0  0  0  0  0
    9.1143  -15.3465   22.4062 C   0  0  1  0  0  0  0  0  0  0  0  0
   10.3283  -15.2135   23.2522 C   0  0  0  0  0  0  0  0  0  0  0  0
   10.5944  -14.2140   23.9241 O   0  0  0  0  0  0  0  0  0  0  0  0
    9.9893  -14.5664   29.5401 O   0  0  0  0  0  0  0  0  0  0  0  0
   10.6047  -15.1707   28.4758 C   0  0  0  0  0  0  0  0  0  0  0  0
   10.2097  -16.4188   28.0749 C   0  0  0  0  0  0  0  0  0  0  0  0
   10.8133  -17.0504   27.0055 C   0  0  0  0  0  0  0  0  0  0  0  0
   11.8307  -16.4622   26.2983 C   0  0  0  0  0  0  0  0  0  0  0  0
   12.4967  -17.1151   25.1499 C   0  0  0  0  0  0  0  0  0  0  0  0
   12.5481  -16.1911   23.9300 C   0  0  2  0  0  0  0  0  0  0  0  0
   11.2431  -16.3023   23.2940 N   0  0  0  0  0  0  0  0  0  0  0  0
   13.5461  -16.7670   22.9925 C   0  0  0  0  0  0  0  0  0  0  0  0
   14.7847  -16.6422   23.2239 O   0  0  0  0  0  0  0  0  0  0  0  0
   12.2305  -15.1914   26.7089 C   0  0  0  0  0  0  0  0  0  0  0  0
   11.6266  -14.5623   27.7769 C   0  0  0  0  0  0  0  0  0  0  0  0
   13.1969  -17.4564   21.8398 O   0  0  0  0  0  0  0  0  0  0  0  0
  2 10  1  0
  2  1  1  1
  3  2  1  0
  4  3  1  0
  4  5  2  0
  6  5  1  0
  7  6  2  0
  8  9  2  0
  8  7  1  0
  9  4  1  0
 10 12  1  0
 11 10  2  0
 12 16  1  0
 12 13  1  0
 13 14  1  0
 15 14  1  0
 16 15  1  0
 16 17  1  1
 18 17  2  0
 20 21  2  0
 20 19  1  0
 22 21  1  0
 23 22  2  0
 24 23  1  0
 25 24  1  1
 25 27  1  0
 25 26  1  0
 26 17  1  0
 27 31  1  0
 28 27  2  0
 29 23  1  0
 29 30  2  0
 30 20  1  0
M  END
$$$$
