FPY.pdb
     RDKit          3D

 31 33  0  0  1  0  0  0  0  0999 V2000
    7.3842  -17.2891   26.0428 N   0  0  0  0  0  0  0  0  0  0  0  0
    7.0146  -16.2698   25.0667 C   0  0  1  0  0  0  0  0  0  0  0  0
    7.0123  -14.9025   25.7332 C   0  0  0  0  0  0  0  0  0  0  0  0
    8.1573  -14.7322   26.6416 C   0  0  0  0  0  0  0  0  0  0  0  0
    8.3205  -15.5158   27.7613 C   0  0  0  0  0  0  0  0  0  0  0  0
    9.4071  -15.3303   28.5966 C   0  0  0  0  0  0  0  0  0  0  0  0
   10.3523  -14.3501   28.3199 C   0  0  0  0  0  0  0  0  0  0  0  0
   10.1983  -13.5592   27.2004 C   0  0  0  0  0  0  0  0  0  0  0  0
    9.1033  -13.7689   26.3865 C   0  0  0  0  0  0  0  0  0  0  0  0
    7.9301  -16.2617   23.9188 C   0  0  0  0  0  0  0  0  0  0  0  0
    8.9446  -17.0014   23.9040 O   0  0  0  0  0  0  0  0  0  0  0  0
    7.7367  -15.4245   22.7479 N   0  0  0  0  0  0  0  0  0  0  0  0
    6.6345  -14.5041   22.5519 C   0  0  0  0  0  0  0  0  0  0  0  0
    7.3716  -13.3126   21.9228 C   0  0  0  0  0  0  0  0  0  0  0  0
    8.1842  -14.0950   20.8739 C   0  0  0  0  0  0  0  0  0  0  0  0
    8.5378  -15.3919   21.5619 C   0  0  1  0  0  0  0  0  0  0  0  0
   10.0025  -15.4715   21.7976 C   0  0  0  0  0  0  0  0  0  0  0  0
   10.6382  -14.6558   22.4696 O   0  0  0  0  0  0  0  0  0  0  0  0
   17.3586  -13.6070   18.4244 O   0  0  0  0  0  0  0  0  0  0  0  0
   16.1441  -13.9134   18.9793 C   0  0  0  0  0  0  0  0  0  0  0  0
   15.0359  -14.0239   18.1829 C   0  0  0  0  0  0  0  0  0  0  0  0
   13.8000  -14.3315   18.7166 C   0  0  0  0  0  0  0  0  0  0  0  0
   13.6241  -14.5395   20.0608 C   0  0  0  0  0  0  0  0  0  0  0  0
   12.3124  -14.8687   20.6606 C   0  0  0  0  0  0  0  0  0  0  0  0
   12.0397  -16.3751   20.6245 C   0  0  2  0  0  0  0  0  0  0  0  0
   10.7209  -16.5528   21.2153 N   0  0  0  0  0  0  0  0  0  0  0  0
   13.0217  -17.0148   21.5372 C   0  0  0  0  0  0  0  0  0  0  0  0
   12.7137  -17.2477   22.7431 O   0  0  0  0  0  0  0  0  0  0  0  0
   14.7543  -14.4263   20.8689 C   0  0  0  0  0  0  0  0  0  0  0  0
   15.9875  -14.1192   20.3343 C   0  0  0  0  0  0  0  0  0  0  0  0
   14.2985  -17.3863   21.1402 O   0  0  0  0  0  0  0  0  0  0  0  0
  2 10  1  0
  2  1  1  1
  3  2  1  0
  4  3  1  0
  4  5  2  0
  6  5  1  0
  7  6  2  0
  8  9  2  0
  8  7  1  0
  9  4  1  0
 10 12  1  0
 11 10  2  0
 12 16  1  0
 12 13  1  0
 13 14  1  0
 15 14  1  0
 16 15  1  0
 16 17  1  1
 18 17  2  0
 20 21  2  0
 20 19  1  0
 22 21  1  0
 23 22  2  0
 24 23  1  0
 25 24  1  1
 25 27  1  0
 25 26  1  0
 26 17  1  0
 27 31  1  0
 28 27  2  0
 29 23  1  0
 29 30  2  0
 30 20  1  0
M  END
$$$$
