FPY.pdb
     RDKit          3D

 31 33  0  0  1  0  0  0  0  0999 V2000
    5.7415  -16.7005   23.0090 N   0  0  0  0  0  0  0  0  0  0  0  0
    7.1472  -16.3207   22.9197 C   0  0  1  0  0  0  0  0  0  0  0  0
    7.2989  -14.8446   23.2544 C   0  0  0  0  0  0  0  0  0  0  0  0
    7.6002  -14.0388   22.0606 C   0  0  0  0  0  0  0  0  0  0  0  0
    6.9826  -14.2694   20.8524 C   0  0  0  0  0  0  0  0  0  0  0  0
    7.2884  -13.4952   19.7479 C   0  0  0  0  0  0  0  0  0  0  0  0
    8.2240  -12.4718   19.8388 C   0  0  0  0  0  0  0  0  0  0  0  0
    8.8488  -12.2324   21.0450 C   0  0  0  0  0  0  0  0  0  0  0  0
    8.5220  -13.0222   22.1289 C   0  0  0  0  0  0  0  0  0  0  0  0
    7.9835  -17.1233   23.8211 C   0  0  0  0  0  0  0  0  0  0  0  0
    7.6572  -17.2845   25.0229 O   0  0  0  0  0  0  0  0  0  0  0  0
    9.2133  -17.7735   23.4036 N   0  0  0  0  0  0  0  0  0  0  0  0
    9.5412  -18.1443   22.0415 C   0  0  0  0  0  0  0  0  0  0  0  0
   11.0258  -17.7536   21.9934 C   0  0  0  0  0  0  0  0  0  0  0  0
   11.4627  -18.4151   23.3141 C   0  0  0  0  0  0  0  0  0  0  0  0
   10.2851  -18.2226   24.2397 C   0  0  1  0  0  0  0  0  0  0  0  0
   10.6409  -17.2976   25.3464 C   0  0  0  0  0  0  0  0  0  0  0  0
   11.0811  -16.1578   25.1780 O   0  0  0  0  0  0  0  0  0  0  0  0
    7.6397  -11.9952   25.8688 O   0  0  0  0  0  0  0  0  0  0  0  0
    8.1837  -13.0636   26.5314 C   0  0  0  0  0  0  0  0  0  0  0  0
    7.6575  -14.3158   26.3596 C   0  0  0  0  0  0  0  0  0  0  0  0
    8.1866  -15.4097   27.0156 C   0  0  0  0  0  0  0  0  0  0  0  0
    9.2574  -15.2955   27.8651 C   0  0  0  0  0  0  0  0  0  0  0  0
    9.8441  -16.4488   28.5821 C   0  0  0  0  0  0  0  0  0  0  0  0
   11.0346  -17.0380   27.8204 C   0  0  2  0  0  0  0  0  0  0  0  0
   10.4651  -17.7485   26.6843 N   0  0  0  0  0  0  0  0  0  0  0  0
   11.6572  -18.0531   28.7084 C   0  0  0  0  0  0  0  0  0  0  0  0
   11.4210  -19.2846   28.5328 O   0  0  0  0  0  0  0  0  0  0  0  0
    9.7909  -14.0192   28.0378 C   0  0  0  0  0  0  0  0  0  0  0  0
    9.2613  -12.9282   27.3819 C   0  0  0  0  0  0  0  0  0  0  0  0
   12.5100  -17.7280   29.7537 O   0  0  0  0  0  0  0  0  0  0  0  0
  2 10  1  0
  2  1  1  1
  3  2  1  0
  4  3  1  0
  4  5  2  0
  6  5  1  0
  7  6  2  0
  8  9  2  0
  8  7  1  0
  9  4  1  0
 10 12  1  0
 11 10  2  0
 12 16  1  0
 12 13  1  0
 13 14  1  0
 15 14  1  0
 16 15  1  0
 16 17  1  1
 18 17  2  0
 20 21  2  0
 20 19  1  0
 22 21  1  0
 23 22  2  0
 24 23  1  0
 25 24  1  1
 25 27  1  0
 25 26  1  0
 26 17  1  0
 27 31  1  0
 28 27  2  0
 29 23  1  0
 29 30  2  0
 30 20  1  0
M  END
$$$$
