FPY.pdb
     RDKit          3D

 31 33  0  0  1  0  0  0  0  0999 V2000
    5.6095  -17.9644   25.0802 N   0  0  0  0  0  0  0  0  0  0  0  0
    6.1426  -16.6197   24.8912 C   0  0  1  0  0  0  0  0  0  0  0  0
    6.3812  -15.9706   26.2461 C   0  0  0  0  0  0  0  0  0  0  0  0
    6.4324  -14.5031   26.1508 C   0  0  0  0  0  0  0  0  0  0  0  0
    7.6121  -13.8063   26.2816 C   0  0  0  0  0  0  0  0  0  0  0  0
    7.6272  -12.4265   26.1883 C   0  0  0  0  0  0  0  0  0  0  0  0
    6.4523  -11.7202   25.9611 C   0  0  0  0  0  0  0  0  0  0  0  0
    5.2645  -12.4088   25.8284 C   0  0  0  0  0  0  0  0  0  0  0  0
    5.2823  -13.7856   25.9264 C   0  0  0  0  0  0  0  0  0  0  0  0
    7.3925  -16.6357   24.1207 C   0  0  0  0  0  0  0  0  0  0  0  0
    8.3921  -17.2722   24.5359 O   0  0  0  0  0  0  0  0  0  0  0  0
    7.5619  -15.9394   22.8575 N   0  0  0  0  0  0  0  0  0  0  0  0
    6.4865  -15.3937   22.0537 C   0  0  0  0  0  0  0  0  0  0  0  0
    7.1134  -14.0633   21.6111 C   0  0  0  0  0  0  0  0  0  0  0  0
    8.4815  -14.6114   21.1632 C   0  0  0  0  0  0  0  0  0  0  0  0
    8.7838  -15.7183   22.1450 C   0  0  1  0  0  0  0  0  0  0  0  0
    9.9442  -15.3527   22.9977 C   0  0  0  0  0  0  0  0  0  0  0  0
    9.9289  -14.4428   23.8300 O   0  0  0  0  0  0  0  0  0  0  0  0
   10.4609  -14.6853   29.9173 O   0  0  0  0  0  0  0  0  0  0  0  0
   10.7102  -15.3032   28.7204 C   0  0  0  0  0  0  0  0  0  0  0  0
   10.2729  -14.7366   27.5533 C   0  0  0  0  0  0  0  0  0  0  0  0
   10.5107  -15.3385   26.3334 C   0  0  0  0  0  0  0  0  0  0  0  0
   11.1915  -16.5250   26.2328 C   0  0  0  0  0  0  0  0  0  0  0  0
   11.4595  -17.1934   24.9405 C   0  0  0  0  0  0  0  0  0  0  0  0
   12.1078  -16.2364   23.9362 C   0  0  2  0  0  0  0  0  0  0  0  0
   11.1493  -16.0944   22.8494 N   0  0  0  0  0  0  0  0  0  0  0  0
   13.3001  -16.9300   23.3849 C   0  0  0  0  0  0  0  0  0  0  0  0
   14.4627  -16.4932   23.6314 O   0  0  0  0  0  0  0  0  0  0  0  0
   11.6354  -17.0993   27.4229 C   0  0  0  0  0  0  0  0  0  0  0  0
   11.3972  -16.4967   28.6399 C   0  0  0  0  0  0  0  0  0  0  0  0
   13.2194  -18.0646   22.5899 O   0  0  0  0  0  0  0  0  0  0  0  0
  2 10  1  0
  2  1  1  1
  3  2  1  0
  4  3  1  0
  4  5  2  0
  6  5  1  0
  7  6  2  0
  8  9  2  0
  8  7  1  0
  9  4  1  0
 10 12  1  0
 11 10  2  0
 12 16  1  0
 12 13  1  0
 13 14  1  0
 15 14  1  0
 16 15  1  0
 16 17  1  1
 18 17  2  0
 20 21  2  0
 20 19  1  0
 22 21  1  0
 23 22  2  0
 24 23  1  0
 25 24  1  1
 25 27  1  0
 25 26  1  0
 26 17  1  0
 27 31  1  0
 28 27  2  0
 29 23  1  0
 29 30  2  0
 30 20  1  0
M  END
$$$$
