TLM.pdb
     RDKit          3D

 24 23  0  0  1  0  0  0  0  0999 V2000
   27.6472  -16.5974  -15.7898 C   0  0  0  0  0  0  0  0  0  0  0  0
   26.7217  -17.7273  -15.3458 C   0  0  1  0  0  0  0  0  0  0  0  0
   25.6388  -17.8148  -16.2369 O   0  0  0  0  0  0  0  0  0  0  0  0
   27.4665  -19.0428  -15.3247 C   0  0  2  0  0  0  0  0  0  0  0  0
   27.7561  -19.3839  -16.7222 N   0  0  0  0  0  0  0  0  0  0  0  0
   26.5392  -20.0726  -14.7446 C   0  0  0  0  0  0  0  0  0  0  0  0
   25.9701  -20.9196  -15.4754 O   0  0  0  0  0  0  0  0  0  0  0  0
   25.3644  -21.4008   -8.9252 C   0  0  0  0  0  0  0  0  0  0  0  0
   25.1727  -20.8185  -10.2998 C   0  0  1  0  0  0  0  0  0  0  0  0
   25.8490  -19.4380  -10.2649 C   0  0  0  0  0  0  0  0  0  0  0  0
   25.7960  -21.5686  -11.4111 C   0  0  0  0  0  0  0  0  0  0  0  0
   25.4410  -21.1787  -12.7980 C   0  0  2  0  0  0  0  0  0  0  0  0
   26.2610  -20.1401  -13.3522 N   0  0  0  0  0  0  0  0  0  0  0  0
   23.9865  -20.9545  -12.9161 C   0  0  0  0  0  0  0  0  0  0  0  0
   23.5807  -19.7726  -12.7694 O   0  0  0  0  0  0  0  0  0  0  0  0
   20.7102  -18.1252  -11.2583 C   0  0  0  0  0  0  0  0  0  0  0  0
   19.3301  -18.5308  -12.3600 S   0  0  0  0  0  0  0  0  0  0  0  0
   19.7479  -20.1000  -13.2197 C   0  0  0  0  0  0  0  0  0  0  0  0
   21.1605  -20.4046  -12.8865 C   0  0  0  0  0  0  0  0  0  0  0  0
   21.6364  -21.6750  -13.5358 C   0  0  2  0  0  0  0  0  0  0  0  0
   23.0278  -21.9438  -13.1752 N   0  0  0  0  0  0  0  0  0  0  0  0
   21.4236  -21.6690  -14.9672 C   0  0  0  0  0  0  0  0  0  0  0  0
   20.3509  -22.2254  -15.6093 O   0  0  0  0  0  0  0  0  0  0  0  0
   22.2962  -21.1060  -15.7149 O   0  0  0  0  0  0  0  0  0  0  0  0
  2  1  1  6
  2  3  1  0
  2  4  1  0
  4  5  1  6
  6  4  1  0
  6  7  2  0
  9  8  1  1
  9 10  1  0
  9 11  1  0
 12 11  1  1
 12 13  1  0
 12 14  1  0
 13  6  1  0
 14 15  2  0
 14 21  1  0
 16 17  1  0
 17 18  1  0
 19 18  1  0
 20 19  1  6
 20 22  1  0
 21 20  1  0
 22 24  2  0
 22 23  1  0
M  END
$$$$
