TLM.pdb
     RDKit          3D

 24 23  0  0  1  0  0  0  0  0999 V2000
   28.1197  -17.9127  -16.5988 C   0  0  0  0  0  0  0  0  0  0  0  0
   26.9440  -18.6394  -15.9506 C   0  0  1  0  0  0  0  0  0  0  0  0
   25.9968  -18.9586  -16.9381 O   0  0  0  0  0  0  0  0  0  0  0  0
   27.4148  -19.9065  -15.2733 C   0  0  2  0  0  0  0  0  0  0  0  0
   27.7891  -20.8398  -16.3419 N   0  0  0  0  0  0  0  0  0  0  0  0
   26.2473  -20.4668  -14.5117 C   0  0  0  0  0  0  0  0  0  0  0  0
   25.5946  -21.4450  -14.9502 O   0  0  0  0  0  0  0  0  0  0  0  0
   26.8778  -21.5742  -10.6257 C   0  0  0  0  0  0  0  0  0  0  0  0
   25.4720  -21.2252  -10.2170 C   0  0  1  0  0  0  0  0  0  0  0  0
   25.5891  -20.5974   -8.8183 C   0  0  0  0  0  0  0  0  0  0  0  0
   24.7788  -20.2360  -11.0697 C   0  0  0  0  0  0  0  0  0  0  0  0
   24.7325  -20.4892  -12.5309 C   0  0  2  0  0  0  0  0  0  0  0  0
   25.8258  -19.9234  -13.2675 N   0  0  0  0  0  0  0  0  0  0  0  0
   23.3924  -20.1790  -13.0674 C   0  0  0  0  0  0  0  0  0  0  0  0
   23.0341  -18.9733  -13.0372 O   0  0  0  0  0  0  0  0  0  0  0  0
   20.2261  -22.3182  -18.3748 C   0  0  0  0  0  0  0  0  0  0  0  0
   21.8430  -22.7162  -17.6606 S   0  0  0  0  0  0  0  0  0  0  0  0
   22.1646  -21.5140  -16.3088 C   0  0  0  0  0  0  0  0  0  0  0  0
   20.9545  -21.5039  -15.4516 C   0  0  0  0  0  0  0  0  0  0  0  0
   21.1819  -20.7749  -14.1558 C   0  0  2  0  0  0  0  0  0  0  0  0
   22.4929  -21.1115  -13.6026 N   0  0  0  0  0  0  0  0  0  0  0  0
   20.1069  -20.9922  -13.2118 C   0  0  0  0  0  0  0  0  0  0  0  0
   20.2393  -21.5847  -11.9854 O   0  0  0  0  0  0  0  0  0  0  0  0
   18.9269  -20.6102  -13.5270 O   0  0  0  0  0  0  0  0  0  0  0  0
  2  1  1  6
  2  3  1  0
  2  4  1  0
  4  5  1  6
  6  4  1  0
  6  7  2  0
  9  8  1  6
  9 10  1  0
  9 11  1  0
 12 11  1  1
 12 13  1  0
 12 14  1  0
 13  6  1  0
 14 15  2  0
 14 21  1  0
 16 17  1  0
 17 18  1  0
 19 18  1  0
 20 19  1  6
 20 22  1  0
 21 20  1  0
 22 24  2  0
 22 23  1  0
M  END
$$$$
