TLM.pdb
     RDKit          3D

 24 23  0  0  1  0  0  0  0  0999 V2000
   15.0997  -18.3593    5.8793 C   0  0  0  0  0  0  0  0  0  0  0  0
   15.8214  -19.1930    4.8236 C   0  0  1  0  0  0  0  0  0  0  0  0
   14.9418  -20.1684    4.3244 O   0  0  0  0  0  0  0  0  0  0  0  0
   16.2966  -18.3131    3.6897 C   0  0  2  0  0  0  0  0  0  0  0  0
   16.8376  -19.2090    2.6612 N   0  0  0  0  0  0  0  0  0  0  0  0
   17.4024  -17.4495    4.2269 C   0  0  0  0  0  0  0  0  0  0  0  0
   18.5699  -17.8926    4.3530 O   0  0  0  0  0  0  0  0  0  0  0  0
   20.4465  -13.0697    5.4165 C   0  0  0  0  0  0  0  0  0  0  0  0
   18.9876  -12.9553    5.7685 C   0  0  1  0  0  0  0  0  0  0  0  0
   18.5854  -11.5147    5.4120 C   0  0  0  0  0  0  0  0  0  0  0  0
   18.0726  -13.8479    5.0255 C   0  0  0  0  0  0  0  0  0  0  0  0
   18.2262  -15.3118    5.2120 C   0  0  2  0  0  0  0  0  0  0  0  0
   17.1856  -16.0997    4.6165 N   0  0  0  0  0  0  0  0  0  0  0  0
   18.5144  -15.6258    6.6255 C   0  0  0  0  0  0  0  0  0  0  0  0
   17.5362  -15.6309    7.4167 O   0  0  0  0  0  0  0  0  0  0  0  0
   23.1578  -19.4762    8.8622 C   0  0  0  0  0  0  0  0  0  0  0  0
   23.2728  -18.1632   10.1054 S   0  0  0  0  0  0  0  0  0  0  0  0
   21.6701  -17.2648   10.1149 C   0  0  0  0  0  0  0  0  0  0  0  0
   21.3835  -16.8911    8.7087 C   0  0  0  0  0  0  0  0  0  0  0  0
   20.0381  -16.2359    8.5575 C   0  0  2  0  0  0  0  0  0  0  0  0
   19.7800  -15.9152    7.1544 N   0  0  0  0  0  0  0  0  0  0  0  0
   19.8891  -15.0890    9.4272 C   0  0  0  0  0  0  0  0  0  0  0  0
   19.3647  -15.1177   10.6908 O   0  0  0  0  0  0  0  0  0  0  0  0
   20.2691  -13.9432    9.0022 O   0  0  0  0  0  0  0  0  0  0  0  0
  2  1  1  1
  2  3  1  0
  2  4  1  0
  4  5  1  6
  6  4  1  0
  6  7  2  0
  9  8  1  6
  9 10  1  0
  9 11  1  0
 12 11  1  1
 12 13  1  0
 12 14  1  0
 13  6  1  0
 14 15  2  0
 14 21  1  0
 16 17  1  0
 17 18  1  0
 19 18  1  0
 20 19  1  6
 20 22  1  0
 21 20  1  0
 22 24  2  0
 22 23  1  0
M  END
$$$$
