TLM.pdb
     RDKit          3D

 24 23  0  0  1  0  0  0  0  0999 V2000
   19.7455   -8.4672  -20.3836 C   0  0  0  0  0  0  0  0  0  0  0  0
   18.7476   -9.4942  -19.8548 C   0  0  1  0  0  0  0  0  0  0  0  0
   18.0833  -10.0935  -20.9383 O   0  0  0  0  0  0  0  0  0  0  0  0
   19.4599  -10.5564  -19.0485 C   0  0  2  0  0  0  0  0  0  0  0  0
   18.4453  -11.5459  -18.6681 N   0  0  0  0  0  0  0  0  0  0  0  0
   19.9958   -9.8944  -17.8110 C   0  0  0  0  0  0  0  0  0  0  0  0
   19.2428   -9.2496  -17.0411 O   0  0  0  0  0  0  0  0  0  0  0  0
   24.4613  -11.9417  -15.0688 C   0  0  0  0  0  0  0  0  0  0  0  0
   23.1380  -11.3646  -15.4943 C   0  0  1  0  0  0  0  0  0  0  0  0
   22.1707  -11.6403  -14.3313 C   0  0  0  0  0  0  0  0  0  0  0  0
   23.1159   -9.9048  -15.7280 C   0  0  0  0  0  0  0  0  0  0  0  0
   21.8745   -9.3080  -16.2795 C   0  0  2  0  0  0  0  0  0  0  0  0
   21.3694   -9.9631  -17.4517 N   0  0  0  0  0  0  0  0  0  0  0  0
   22.0120   -7.8425  -16.3948 C   0  0  0  0  0  0  0  0  0  0  0  0
   22.6731   -7.4098  -17.3740 O   0  0  0  0  0  0  0  0  0  0  0  0
   17.7925   -2.8779  -14.9368 C   0  0  0  0  0  0  0  0  0  0  0  0
   18.7174   -2.7243  -16.4872 S   0  0  0  0  0  0  0  0  0  0  0  0
   20.4169   -3.3540  -16.1852 C   0  0  0  0  0  0  0  0  0  0  0  0
   20.2945   -4.8130  -15.9497 C   0  0  0  0  0  0  0  0  0  0  0  0
   21.6210   -5.4529  -15.6446 C   0  0  2  0  0  0  0  0  0  0  0  0
   21.4712   -6.9010  -15.5082 N   0  0  0  0  0  0  0  0  0  0  0  0
   22.2669   -4.8496  -14.4987 C   0  0  0  0  0  0  0  0  0  0  0  0
   23.0258   -3.7113  -14.5273 O   0  0  0  0  0  0  0  0  0  0  0  0
   22.1347   -5.4085  -13.3552 O   0  0  0  0  0  0  0  0  0  0  0  0
  2  1  1  6
  2  3  1  0
  2  4  1  0
  4  5  1  1
  6  4  1  0
  6  7  2  0
  9  8  1  1
  9 10  1  0
  9 11  1  0
 12 11  1  6
 12 13  1  0
 12 14  1  0
 13  6  1  0
 14 15  2  0
 14 21  1  0
 16 17  1  0
 17 18  1  0
 19 18  1  0
 20 19  1  1
 20 22  1  0
 21 20  1  0
 22 24  2  0
 22 23  1  0
M  END
$$$$
