TLM.pdb
     RDKit          3D

 24 23  0  0  1  0  0  0  0  0999 V2000
   28.3482  -17.9820  -15.7779 C   0  0  0  0  0  0  0  0  0  0  0  0
   27.1822  -18.7484  -15.1588 C   0  0  1  0  0  0  0  0  0  0  0  0
   26.2466  -19.0552  -16.1612 O   0  0  0  0  0  0  0  0  0  0  0  0
   27.6717  -20.0263  -14.5161 C   0  0  2  0  0  0  0  0  0  0  0  0
   28.0635  -20.9230  -15.6095 N   0  0  0  0  0  0  0  0  0  0  0  0
   26.5118  -20.6265  -13.7737 C   0  0  0  0  0  0  0  0  0  0  0  0
   25.9094  -21.6351  -14.2154 O   0  0  0  0  0  0  0  0  0  0  0  0
   25.9809  -20.0525   -8.1527 C   0  0  0  0  0  0  0  0  0  0  0  0
   26.0578  -20.5533   -9.5699 C   0  0  1  0  0  0  0  0  0  0  0  0
   26.2249  -22.0781   -9.4639 C   0  0  0  0  0  0  0  0  0  0  0  0
   24.8610  -20.3144  -10.4046 C   0  0  0  0  0  0  0  0  0  0  0  0
   24.9342  -20.6715  -11.8429 C   0  0  2  0  0  0  0  0  0  0  0  0
   26.0411  -20.0884  -12.5449 N   0  0  0  0  0  0  0  0  0  0  0  0
   23.6195  -20.4876  -12.4890 C   0  0  0  0  0  0  0  0  0  0  0  0
   23.2297  -19.3030  -12.6557 O   0  0  0  0  0  0  0  0  0  0  0  0
   17.8571  -23.7040  -16.8130 C   0  0  0  0  0  0  0  0  0  0  0  0
   19.4489  -23.8923  -15.9682 S   0  0  0  0  0  0  0  0  0  0  0  0
   19.7885  -22.3274  -15.0674 C   0  0  0  0  0  0  0  0  0  0  0  0
   21.1223  -22.4799  -14.4374 C   0  0  0  0  0  0  0  0  0  0  0  0
   21.4743  -21.3094  -13.5609 C   0  0  2  0  0  0  0  0  0  0  0  0
   22.7757  -21.5176  -12.9276 N   0  0  0  0  0  0  0  0  0  0  0  0
   20.4307  -21.0116  -12.6036 C   0  0  0  0  0  0  0  0  0  0  0  0
   19.4295  -20.0965  -12.7846 O   0  0  0  0  0  0  0  0  0  0  0  0
   20.4230  -21.6400  -11.4888 O   0  0  0  0  0  0  0  0  0  0  0  0
  2  1  1  6
  2  3  1  0
  2  4  1  0
  4  5  1  6
  6  4  1  0
  6  7  2  0
  9  8  1  1
  9 10  1  0
  9 11  1  0
 12 11  1  1
 12 13  1  0
 12 14  1  0
 13  6  1  0
 14 15  2  0
 14 21  1  0
 16 17  1  0
 17 18  1  0
 19 18  1  0
 20 19  1  1
 20 22  1  0
 21 20  1  0
 22 24  2  0
 22 23  1  0
M  END
$$$$
