TLM.pdb
     RDKit          3D

 24 23  0  0  1  0  0  0  0  0999 V2000
   22.6270  -19.8165  -10.5620 C   0  0  0  0  0  0  0  0  0  0  0  0
   23.1303  -20.3434  -11.9034 C   0  0  1  0  0  0  0  0  0  0  0  0
   22.2155  -19.9921  -12.9104 O   0  0  0  0  0  0  0  0  0  0  0  0
   24.4864  -19.7579  -12.2258 C   0  0  2  0  0  0  0  0  0  0  0  0
   24.8606  -20.2691  -13.5493 N   0  0  0  0  0  0  0  0  0  0  0  0
   25.4536  -20.2789  -11.2011 C   0  0  0  0  0  0  0  0  0  0  0  0
   25.8385  -21.4734  -11.2190 O   0  0  0  0  0  0  0  0  0  0  0  0
   29.5049  -20.0632   -7.4271 C   0  0  0  0  0  0  0  0  0  0  0  0
   28.1753  -19.4617   -7.0588 C   0  0  1  0  0  0  0  0  0  0  0  0
   28.5001  -18.2303   -6.1972 C   0  0  0  0  0  0  0  0  0  0  0  0
   27.3484  -18.9839   -8.1876 C   0  0  0  0  0  0  0  0  0  0  0  0
   26.7500  -19.9989   -9.0893 C   0  0  2  0  0  0  0  0  0  0  0  0
   25.9774  -19.4542  -10.1684 N   0  0  0  0  0  0  0  0  0  0  0  0
   26.0720  -21.0509   -8.3061 C   0  0  0  0  0  0  0  0  0  0  0  0
   26.3617  -22.2428   -8.5863 O   0  0  0  0  0  0  0  0  0  0  0  0
   27.5019  -20.2191   -2.8714 C   0  0  0  0  0  0  0  0  0  0  0  0
   26.7272  -21.8568   -2.8514 S   0  0  0  0  0  0  0  0  0  0  0  0
   25.0674  -21.6960   -3.6228 C   0  0  0  0  0  0  0  0  0  0  0  0
   25.2456  -20.8828   -4.8501 C   0  0  0  0  0  0  0  0  0  0  0  0
   24.9903  -21.6781   -6.1010 C   0  0  2  0  0  0  0  0  0  0  0  0
   25.1377  -20.8318   -7.2843 N   0  0  0  0  0  0  0  0  0  0  0  0
   23.7159  -22.3627   -6.0615 C   0  0  0  0  0  0  0  0  0  0  0  0
   23.4748  -23.5481   -5.4218 O   0  0  0  0  0  0  0  0  0  0  0  0
   22.7187  -21.8384   -6.6683 O   0  0  0  0  0  0  0  0  0  0  0  0
  2  1  1  1
  2  3  1  0
  2  4  1  0
  4  5  1  6
  6  4  1  0
  6  7  2  0
  9  8  1  6
  9 10  1  0
  9 11  1  0
 12 11  1  1
 12 13  1  0
 12 14  1  0
 13  6  1  0
 14 15  2  0
 14 21  1  0
 16 17  1  0
 17 18  1  0
 19 18  1  0
 20 19  1  1
 20 22  1  0
 21 20  1  0
 22 24  2  0
 22 23  1  0
M  END
$$$$
