TLM.pdb
     RDKit          3D

 24 23  0  0  1  0  0  0  0  0999 V2000
   25.6491  -10.6480  -20.0666 C   0  0  0  0  0  0  0  0  0  0  0  0
   24.6852   -9.8853  -19.1613 C   0  0  1  0  0  0  0  0  0  0  0  0
   24.0785   -8.8536  -19.8973 O   0  0  0  0  0  0  0  0  0  0  0  0
   23.6214  -10.8138  -18.6209 C   0  0  2  0  0  0  0  0  0  0  0  0
   22.8192  -11.2476  -19.7704 N   0  0  0  0  0  0  0  0  0  0  0  0
   22.7590  -10.0113  -17.6886 C   0  0  0  0  0  0  0  0  0  0  0  0
   21.6561   -9.5442  -18.0638 O   0  0  0  0  0  0  0  0  0  0  0  0
   19.8332   -9.2804  -13.0494 C   0  0  0  0  0  0  0  0  0  0  0  0
   21.3086   -8.9869  -13.0995 C   0  0  1  0  0  0  0  0  0  0  0  0
   21.8691   -9.4397  -11.7412 C   0  0  0  0  0  0  0  0  0  0  0  0
   22.0753   -9.7090  -14.1372 C   0  0  0  0  0  0  0  0  0  0  0  0
   22.2807   -9.0364  -15.4437 C   0  0  2  0  0  0  0  0  0  0  0  0
   23.1436   -9.7422  -16.3468 N   0  0  0  0  0  0  0  0  0  0  0  0
   22.6165   -7.6125  -15.2452 C   0  0  0  0  0  0  0  0  0  0  0  0
   23.7588   -7.3577  -14.7833 O   0  0  0  0  0  0  0  0  0  0  0  0
   21.2561   -2.7966  -19.0990 C   0  0  0  0  0  0  0  0  0  0  0  0
   20.8862   -1.9373  -17.5473 S   0  0  0  0  0  0  0  0  0  0  0  0
   21.7595   -2.8269  -16.1975 C   0  0  0  0  0  0  0  0  0  0  0  0
   21.3918   -4.2580  -16.3236 C   0  0  0  0  0  0  0  0  0  0  0  0
   22.1390   -5.1250  -15.3478 C   0  0  2  0  0  0  0  0  0  0  0  0
   21.7723   -6.5293  -15.5262 N   0  0  0  0  0  0  0  0  0  0  0  0
   21.9745   -4.6759  -13.9820 C   0  0  0  0  0  0  0  0  0  0  0  0
   22.7827   -3.7753  -13.3431 O   0  0  0  0  0  0  0  0  0  0  0  0
   21.0032   -5.1462  -13.2943 O   0  0  0  0  0  0  0  0  0  0  0  0
  2  1  1  6
  2  3  1  0
  2  4  1  0
  4  5  1  6
  6  4  1  0
  6  7  2  0
  9  8  1  1
  9 10  1  0
  9 11  1  0
 12 11  1  1
 12 13  1  0
 12 14  1  0
 13  6  1  0
 14 15  2  0
 14 21  1  0
 16 17  1  0
 17 18  1  0
 19 18  1  0
 20 19  1  6
 20 22  1  0
 21 20  1  0
 22 24  2  0
 22 23  1  0
M  END
$$$$
