YSG.pdb
     RDKit          3D

 23 23  0  0  1  0  0  0  0  0999 V2000
   16.6289  -16.7854  -16.8205 O   0  0  0  0  0  0  0  0  0  0  0  0
   17.3542  -15.5953  -16.6685 C   0  0  0  0  0  0  0  0  0  0  0  0
   17.6167  -15.0842  -15.4154 C   0  0  0  0  0  0  0  0  0  0  0  0
   18.3322  -13.9137  -15.3168 C   0  0  0  0  0  0  0  0  0  0  0  0
   18.8046  -13.2192  -16.4205 C   0  0  0  0  0  0  0  0  0  0  0  0
   19.5727  -11.9582  -16.2485 C   0  0  0  0  0  0  0  0  0  0  0  0
   20.9235  -12.0363  -16.9356 C   0  0  2  0  0  0  0  0  0  0  0  0
   21.7319  -13.1047  -16.4371 N   0  0  0  0  0  0  0  0  0  0  0  0
   21.6120  -10.7518  -16.6891 C   0  0  0  0  0  0  0  0  0  0  0  0
   22.3920  -10.6052  -15.7234 O   0  0  0  0  0  0  0  0  0  0  0  0
   18.5417  -13.7310  -17.6741 C   0  0  0  0  0  0  0  0  0  0  0  0
   17.8190  -14.9137  -17.7799 C   0  0  0  0  0  0  0  0  0  0  0  0
   23.9071   -8.7296  -18.9563 O   0  0  0  0  0  0  0  0  0  0  0  0
   22.8379   -7.9465  -18.5964 C   0  0  0  0  0  0  0  0  0  0  0  0
   22.1096   -8.4173  -17.3729 C   0  0  2  0  0  0  0  0  0  0  0  0
   21.4157   -9.6484  -17.5305 N   0  0  0  0  0  0  0  0  0  0  0  0
   21.1060   -7.3806  -16.9407 C   0  0  0  0  0  0  0  0  0  0  0  0
   19.9662   -7.2995  -17.4689 O   0  0  0  0  0  0  0  0  0  0  0  0
   21.3996   -6.4405  -15.9113 N   0  0  0  0  0  0  0  0  0  0  0  0
   20.4522   -5.4488  -15.4592 C   0  0  0  0  0  0  0  0  0  0  0  0
   21.0267   -4.5819  -14.3955 C   0  0  0  0  0  0  0  0  0  0  0  0
   20.3350   -3.5095  -13.9054 O   0  0  0  0  0  0  0  0  0  0  0  0
   22.1675   -4.8501  -13.9481 O   0  0  0  0  0  0  0  0  0  0  0  0
  1  2  1  0
  2 12  2  0
  2  3  1  0
  3  4  2  0
  4  5  1  0
  5  6  1  0
  6  7  1  0
  7  9  1  0
  7  8  1  1
  9 16  1  0
 10  9  2  0
 11  5  2  0
 12 11  1  0
 15 14  1  6
 14 13  1  0
 15 17  1  0
 16 15  1  0
 17 18  2  0
 17 19  1  0
 19 20  1  0
 20 21  1  0
 21 22  1  0
 23 21  2  0
M  END
$$$$
