YSG.pdb
     RDKit          3D

 23 23  0  0  1  0  0  0  0  0999 V2000
   24.4001  -17.3016  -20.1407 O   0  0  0  0  0  0  0  0  0  0  0  0
   23.8181  -17.9530  -19.0441 C   0  0  0  0  0  0  0  0  0  0  0  0
   22.9244  -17.2956  -18.2259 C   0  0  0  0  0  0  0  0  0  0  0  0
   22.3795  -17.9764  -17.1623 C   0  0  0  0  0  0  0  0  0  0  0  0
   22.6860  -19.2974  -16.8710 C   0  0  0  0  0  0  0  0  0  0  0  0
   22.0633  -19.9789  -15.7059 C   0  0  0  0  0  0  0  0  0  0  0  0
   22.8097  -19.6693  -14.4214 C   0  0  2  0  0  0  0  0  0  0  0  0
   24.1564  -20.1487  -14.4400 N   0  0  0  0  0  0  0  0  0  0  0  0
   22.0754  -20.3295  -13.3215 C   0  0  0  0  0  0  0  0  0  0  0  0
   22.3789  -21.4779  -12.9323 O   0  0  0  0  0  0  0  0  0  0  0  0
   23.5803  -19.9547  -17.6900 C   0  0  0  0  0  0  0  0  0  0  0  0
   24.1342  -19.2717  -18.7665 C   0  0  0  0  0  0  0  0  0  0  0  0
   19.2381  -18.1221  -11.1742 O   0  0  0  0  0  0  0  0  0  0  0  0
   19.8193  -19.2118  -10.5733 C   0  0  0  0  0  0  0  0  0  0  0  0
   20.3584  -20.2325  -11.5305 C   0  0  2  0  0  0  0  0  0  0  0  0
   21.0097  -19.6912  -12.6729 N   0  0  0  0  0  0  0  0  0  0  0  0
   19.2432  -21.1193  -12.0193 C   0  0  0  0  0  0  0  0  0  0  0  0
   18.6748  -20.9222  -13.1250 O   0  0  0  0  0  0  0  0  0  0  0  0
   18.7778  -22.2254  -11.2516 N   0  0  0  0  0  0  0  0  0  0  0  0
   17.8060  -23.1721  -11.7466 C   0  0  0  0  0  0  0  0  0  0  0  0
   16.4542  -22.5627  -11.8668 C   0  0  0  0  0  0  0  0  0  0  0  0
   16.2542  -21.2311  -11.6316 O   0  0  0  0  0  0  0  0  0  0  0  0
   15.4883  -23.2945  -12.1906 O   0  0  0  0  0  0  0  0  0  0  0  0
  1  2  1  0
  2 12  2  0
  2  3  1  0
  3  4  2  0
  4  5  1  0
  5  6  1  0
  6  7  1  0
  7  9  1  0
  7  8  1  6
  9 16  1  0
 10  9  2  0
 11  5  2  0
 12 11  1  0
 15 14  1  1
 14 13  1  0
 15 17  1  0
 16 15  1  0
 17 18  2  0
 17 19  1  0
 19 20  1  0
 20 21  1  0
 21 22  1  0
 23 21  2  0
M  END
$$$$
