YSG.pdb
     RDKit          3D

 23 23  0  0  1  0  0  0  0  0999 V2000
   22.2246  -14.1165  -22.5952 O   0  0  0  0  0  0  0  0  0  0  0  0
   22.4148  -12.9746  -21.8044 C   0  0  0  0  0  0  0  0  0  0  0  0
   22.3919  -13.0574  -20.4285 C   0  0  0  0  0  0  0  0  0  0  0  0
   22.5835  -11.9098  -19.6950 C   0  0  0  0  0  0  0  0  0  0  0  0
   22.7994  -10.6680  -20.2738 C   0  0  0  0  0  0  0  0  0  0  0  0
   23.0000   -9.4634  -19.4263 C   0  0  0  0  0  0  0  0  0  0  0  0
   24.3487   -8.8201  -19.6912 C   0  0  2  0  0  0  0  0  0  0  0  0
   25.4415   -9.6821  -19.3650 N   0  0  0  0  0  0  0  0  0  0  0  0
   24.4233   -7.6047  -18.8533 C   0  0  0  0  0  0  0  0  0  0  0  0
   25.1959   -7.5352  -17.8732 O   0  0  0  0  0  0  0  0  0  0  0  0
   22.8223  -10.5856  -21.6505 C   0  0  0  0  0  0  0  0  0  0  0  0
   22.6293  -11.7422  -22.3970 C   0  0  0  0  0  0  0  0  0  0  0  0
   24.2507   -4.0450  -20.4338 O   0  0  0  0  0  0  0  0  0  0  0  0
   23.5645   -4.0260  -19.2443 C   0  0  0  0  0  0  0  0  0  0  0  0
   23.7374   -5.2599  -18.4099 C   0  0  2  0  0  0  0  0  0  0  0  0
   23.6290   -6.4830  -19.1271 N   0  0  0  0  0  0  0  0  0  0  0  0
   22.7098   -5.2847  -17.3088 C   0  0  0  0  0  0  0  0  0  0  0  0
   22.5759   -4.3258  -16.5043 O   0  0  0  0  0  0  0  0  0  0  0  0
   21.8388   -6.3970  -17.1252 N   0  0  0  0  0  0  0  0  0  0  0  0
   20.8411   -6.4500  -16.0825 C   0  0  0  0  0  0  0  0  0  0  0  0
   21.2729   -7.3119  -14.9494 C   0  0  0  0  0  0  0  0  0  0  0  0
   20.4361   -7.5753  -13.9011 O   0  0  0  0  0  0  0  0  0  0  0  0
   22.4283   -7.8000  -14.9678 O   0  0  0  0  0  0  0  0  0  0  0  0
  1  2  1  0
  2 12  2  0
  2  3  1  0
  3  4  2  0
  4  5  1  0
  5  6  1  0
  6  7  1  0
  7  9  1  0
  7  8  1  1
  9 16  1  0
 10  9  2  0
 11  5  2  0
 12 11  1  0
 15 14  1  6
 14 13  1  0
 15 17  1  0
 16 15  1  0
 17 18  2  0
 17 19  1  0
 19 20  1  0
 20 21  1  0
 21 22  1  0
 23 21  2  0
M  END
$$$$
