YSG.pdb
     RDKit          3D

 23 23  0  0  1  0  0  0  0  0999 V2000
   17.7997  -16.6905  -16.0490 O   0  0  0  0  0  0  0  0  0  0  0  0
   18.3126  -15.4031  -16.2614 C   0  0  0  0  0  0  0  0  0  0  0  0
   19.1721  -15.1499  -17.3090 C   0  0  0  0  0  0  0  0  0  0  0  0
   19.6491  -13.8709  -17.4769 C   0  0  0  0  0  0  0  0  0  0  0  0
   19.3067  -12.8187  -16.6407 C   0  0  0  0  0  0  0  0  0  0  0  0
   19.8560  -11.4574  -16.8745 C   0  0  0  0  0  0  0  0  0  0  0  0
   18.8122  -10.5372  -17.4799 C   0  0  2  0  0  0  0  0  0  0  0  0
   18.4649  -10.9056  -18.8169 N   0  0  0  0  0  0  0  0  0  0  0  0
   19.3843   -9.1743  -17.4859 C   0  0  0  0  0  0  0  0  0  0  0  0
   20.1350   -8.7866  -18.4071 O   0  0  0  0  0  0  0  0  0  0  0  0
   18.4467  -13.0725  -15.5926 C   0  0  0  0  0  0  0  0  0  0  0  0
   17.9614  -14.3633  -15.4179 C   0  0  0  0  0  0  0  0  0  0  0  0
   17.5816   -6.0927  -15.2738 O   0  0  0  0  0  0  0  0  0  0  0  0
   18.3751   -5.9160  -16.3807 C   0  0  0  0  0  0  0  0  0  0  0  0
   19.5014   -6.8991  -16.4985 C   0  0  2  0  0  0  0  0  0  0  0  0
   19.1060   -8.2644  -16.4570 N   0  0  0  0  0  0  0  0  0  0  0  0
   20.4953   -6.6785  -15.3884 C   0  0  0  0  0  0  0  0  0  0  0  0
   20.4158   -7.2956  -14.2941 O   0  0  0  0  0  0  0  0  0  0  0  0
   21.5748   -5.7589  -15.5244 N   0  0  0  0  0  0  0  0  0  0  0  0
   22.6048   -5.6028  -14.5244 C   0  0  0  0  0  0  0  0  0  0  0  0
   22.1027   -4.8827  -13.3233 C   0  0  0  0  0  0  0  0  0  0  0  0
   22.4086   -5.3108  -12.0616 O   0  0  0  0  0  0  0  0  0  0  0  0
   21.3866   -3.8656  -13.4842 O   0  0  0  0  0  0  0  0  0  0  0  0
  1  2  1  0
  2 12  2  0
  2  3  1  0
  3  4  2  0
  4  5  1  0
  5  6  1  0
  6  7  1  0
  7  9  1  0
  7  8  1  6
  9 16  1  0
 10  9  2  0
 11  5  2  0
 12 11  1  0
 15 14  1  1
 14 13  1  0
 15 17  1  0
 16 15  1  0
 17 18  2  0
 17 19  1  0
 19 20  1  0
 20 21  1  0
 21 22  1  0
 23 21  2  0
M  END
$$$$
