YSG.pdb
     RDKit          3D

 23 23  0  0  1  0  0  0  0  0999 V2000
   28.6251  -19.9869   -3.6409 O   0  0  0  0  0  0  0  0  0  0  0  0
   28.2287  -19.9405   -4.9848 C   0  0  0  0  0  0  0  0  0  0  0  0
   27.0632  -20.5497   -5.3981 C   0  0  0  0  0  0  0  0  0  0  0  0
   26.7159  -20.4772   -6.7270 C   0  0  0  0  0  0  0  0  0  0  0  0
   27.4839  -19.8187   -7.6759 C   0  0  0  0  0  0  0  0  0  0  0  0
   27.0547  -19.7754   -9.0984 C   0  0  0  0  0  0  0  0  0  0  0  0
   27.2630  -21.1157   -9.7790 C   0  0  2  0  0  0  0  0  0  0  0  0
   28.6451  -21.4594   -9.9028 N   0  0  0  0  0  0  0  0  0  0  0  0
   26.6655  -21.0165  -11.1273 C   0  0  0  0  0  0  0  0  0  0  0  0
   27.2975  -20.5216  -12.0855 O   0  0  0  0  0  0  0  0  0  0  0  0
   28.6500  -19.2094   -7.2619 C   0  0  0  0  0  0  0  0  0  0  0  0
   29.0060  -19.2793   -5.9200 C   0  0  0  0  0  0  0  0  0  0  0  0
   22.9956  -23.0362  -12.2236 O   0  0  0  0  0  0  0  0  0  0  0  0
   24.0582  -22.7375  -13.0406 C   0  0  0  0  0  0  0  0  0  0  0  0
   24.7818  -21.4748  -12.6786 C   0  0  2  0  0  0  0  0  0  0  0  0
   25.3658  -21.4746  -11.3821 N   0  0  0  0  0  0  0  0  0  0  0  0
   23.8395  -20.3021  -12.7541 C   0  0  0  0  0  0  0  0  0  0  0  0
   23.3174  -19.8028  -11.7232 O   0  0  0  0  0  0  0  0  0  0  0  0
   23.4936  -19.7009  -13.9985 N   0  0  0  0  0  0  0  0  0  0  0  0
   22.6098  -18.5637  -14.1030 C   0  0  0  0  0  0  0  0  0  0  0  0
   21.2094  -18.9779  -14.3868 C   0  0  0  0  0  0  0  0  0  0  0  0
   20.1941  -18.0633  -14.4241 O   0  0  0  0  0  0  0  0  0  0  0  0
   20.9685  -20.1913  -14.5938 O   0  0  0  0  0  0  0  0  0  0  0  0
  1  2  1  0
  2 12  2  0
  2  3  1  0
  3  4  2  0
  4  5  1  0
  5  6  1  0
  6  7  1  0
  7  9  1  0
  7  8  1  6
  9 16  1  0
 10  9  2  0
 11  5  2  0
 12 11  1  0
 15 14  1  1
 14 13  1  0
 15 17  1  0
 16 15  1  0
 17 18  2  0
 17 19  1  0
 19 20  1  0
 20 21  1  0
 21 22  1  0
 23 21  2  0
M  END
$$$$
