YSG.pdb
     RDKit          3D

 23 23  0  0  1  0  0  0  0  0999 V2000
   17.3912  -14.3792  -16.9313 O   0  0  0  0  0  0  0  0  0  0  0  0
   17.6372  -13.0674  -16.5022 C   0  0  0  0  0  0  0  0  0  0  0  0
   17.1983  -11.9894  -17.2409 C   0  0  0  0  0  0  0  0  0  0  0  0
   17.4635  -10.7212  -16.7793 C   0  0  0  0  0  0  0  0  0  0  0  0
   18.1536  -10.4723  -15.6023 C   0  0  0  0  0  0  0  0  0  0  0  0
   18.4092   -9.0776  -15.1561 C   0  0  0  0  0  0  0  0  0  0  0  0
   19.6736   -8.5201  -15.7833 C   0  0  2  0  0  0  0  0  0  0  0  0
   20.8514   -9.1977  -15.3391 N   0  0  0  0  0  0  0  0  0  0  0  0
   19.7593   -7.0958  -15.3975 C   0  0  0  0  0  0  0  0  0  0  0  0
   18.8075   -6.3093  -15.5925 O   0  0  0  0  0  0  0  0  0  0  0  0
   18.5925  -11.5512  -14.8635 C   0  0  0  0  0  0  0  0  0  0  0  0
   18.3274  -12.8353  -15.3251 C   0  0  0  0  0  0  0  0  0  0  0  0
   22.7840   -5.4259  -12.7749 O   0  0  0  0  0  0  0  0  0  0  0  0
   21.5196   -4.9605  -13.0408 C   0  0  0  0  0  0  0  0  0  0  0  0
   21.0532   -5.2026  -14.4453 C   0  0  2  0  0  0  0  0  0  0  0  0
   20.9129   -6.5731  -14.7975 N   0  0  0  0  0  0  0  0  0  0  0  0
   22.0146   -4.5772  -15.4218 C   0  0  0  0  0  0  0  0  0  0  0  0
   22.3059   -3.3535  -15.3748 O   0  0  0  0  0  0  0  0  0  0  0  0
   22.6411   -5.3426  -16.4470 N   0  0  0  0  0  0  0  0  0  0  0  0
   23.5031   -4.7589  -17.4479 C   0  0  0  0  0  0  0  0  0  0  0  0
   22.7565   -4.4207  -18.6893 C   0  0  0  0  0  0  0  0  0  0  0  0
   21.8625   -3.3870  -18.7187 O   0  0  0  0  0  0  0  0  0  0  0  0
   22.9597   -5.1038  -19.7216 O   0  0  0  0  0  0  0  0  0  0  0  0
  1  2  1  0
  2 12  2  0
  2  3  1  0
  3  4  2  0
  4  5  1  0
  5  6  1  0
  6  7  1  0
  7  9  1  0
  7  8  1  1
  9 16  1  0
 10  9  2  0
 11  5  2  0
 12 11  1  0
 15 14  1  1
 14 13  1  0
 15 17  1  0
 16 15  1  0
 17 18  2  0
 17 19  1  0
 19 20  1  0
 20 21  1  0
 21 22  1  0
 23 21  2  0
M  END
$$$$
