YSG.pdb
     RDKit          3D

 23 23  0  0  1  0  0  0  0  0999 V2000
   23.8253  -20.6988   -7.6581 O   0  0  0  0  0  0  0  0  0  0  0  0
   24.1983  -20.9224   -8.9909 C   0  0  0  0  0  0  0  0  0  0  0  0
   23.2649  -21.3069   -9.9297 C   0  0  0  0  0  0  0  0  0  0  0  0
   23.6786  -21.5145  -11.2249 C   0  0  0  0  0  0  0  0  0  0  0  0
   24.9940  -21.3555  -11.6348 C   0  0  0  0  0  0  0  0  0  0  0  0
   25.3791  -21.5951  -13.0504 C   0  0  0  0  0  0  0  0  0  0  0  0
   25.5177  -20.2906  -13.8133 C   0  0  2  0  0  0  0  0  0  0  0  0
   24.2687  -19.6144  -13.9756 N   0  0  0  0  0  0  0  0  0  0  0  0
   26.0663  -20.6217  -15.1454 C   0  0  0  0  0  0  0  0  0  0  0  0
   25.3177  -20.8533  -16.1193 O   0  0  0  0  0  0  0  0  0  0  0  0
   25.9275  -20.9708  -10.6951 C   0  0  0  0  0  0  0  0  0  0  0  0
   25.5153  -20.7595   -9.3845 C   0  0  0  0  0  0  0  0  0  0  0  0
   28.5225  -18.7207  -17.3997 O   0  0  0  0  0  0  0  0  0  0  0  0
   29.0389  -19.9564  -17.0954 C   0  0  0  0  0  0  0  0  0  0  0  0
   28.0201  -20.9582  -16.6401 C   0  0  2  0  0  0  0  0  0  0  0  0
   27.4485  -20.6885  -15.3663 N   0  0  0  0  0  0  0  0  0  0  0  0
   28.6385  -22.3304  -16.5809 C   0  0  0  0  0  0  0  0  0  0  0  0
   29.1640  -22.7765  -15.5276 O   0  0  0  0  0  0  0  0  0  0  0  0
   28.6579  -23.1903  -17.7165 N   0  0  0  0  0  0  0  0  0  0  0  0
   29.2162  -24.5218  -17.6844 C   0  0  0  0  0  0  0  0  0  0  0  0
   29.1699  -25.1715  -19.0218 C   0  0  0  0  0  0  0  0  0  0  0  0
   29.9578  -26.2501  -19.3128 O   0  0  0  0  0  0  0  0  0  0  0  0
   28.3898  -24.7121  -19.8900 O   0  0  0  0  0  0  0  0  0  0  0  0
  1  2  1  0
  2 12  2  0
  2  3  1  0
  3  4  2  0
  4  5  1  0
  5  6  1  0
  6  7  1  0
  7  9  1  0
  7  8  1  6
  9 16  1  0
 10  9  2  0
 11  5  2  0
 12 11  1  0
 15 14  1  1
 14 13  1  0
 15 17  1  0
 16 15  1  0
 17 18  2  0
 17 19  1  0
 19 20  1  0
 20 21  1  0
 21 22  1  0
 23 21  2  0
M  END
$$$$
