YSG.pdb
     RDKit          3D

 23 23  0  0  1  0  0  0  0  0999 V2000
   19.6742  -18.4511  -16.5376 O   0  0  0  0  0  0  0  0  0  0  0  0
   20.1326  -17.1271  -16.5848 C   0  0  0  0  0  0  0  0  0  0  0  0
   21.2534  -16.7940  -17.3150 C   0  0  0  0  0  0  0  0  0  0  0  0
   21.6647  -15.4816  -17.3309 C   0  0  0  0  0  0  0  0  0  0  0  0
   21.0046  -14.4724  -16.6457 C   0  0  0  0  0  0  0  0  0  0  0  0
   21.4988  -13.0716  -16.7022 C   0  0  0  0  0  0  0  0  0  0  0  0
   20.9026  -12.3228  -17.8798 C   0  0  2  0  0  0  0  0  0  0  0  0
   21.4195  -12.7722  -19.1346 N   0  0  0  0  0  0  0  0  0  0  0  0
   21.2371  -10.8941  -17.7015 C   0  0  0  0  0  0  0  0  0  0  0  0
   22.2754  -10.4015  -18.1932 O   0  0  0  0  0  0  0  0  0  0  0  0
   19.8832  -14.8061  -15.9152 C   0  0  0  0  0  0  0  0  0  0  0  0
   19.4628  -16.1310  -15.8954 C   0  0  0  0  0  0  0  0  0  0  0  0
   18.2533   -8.0253  -16.8308 O   0  0  0  0  0  0  0  0  0  0  0  0
   19.4537   -7.8201  -17.4657 C   0  0  0  0  0  0  0  0  0  0  0  0
   20.5908   -8.6289  -16.9165 C   0  0  2  0  0  0  0  0  0  0  0  0
   20.4011  -10.0371  -16.9731 N   0  0  0  0  0  0  0  0  0  0  0  0
   20.8368   -8.2598  -15.4770 C   0  0  0  0  0  0  0  0  0  0  0  0
   20.4396   -8.9858  -14.5285 O   0  0  0  0  0  0  0  0  0  0  0  0
   21.5322   -7.0688  -15.1199 N   0  0  0  0  0  0  0  0  0  0  0  0
   21.7605   -6.6729  -13.7500 C   0  0  0  0  0  0  0  0  0  0  0  0
   22.5798   -5.4342  -13.6631 C   0  0  0  0  0  0  0  0  0  0  0  0
   22.7899   -4.8065  -12.4671 O   0  0  0  0  0  0  0  0  0  0  0  0
   23.0815   -4.9669  -14.7135 O   0  0  0  0  0  0  0  0  0  0  0  0
  1  2  1  0
  2 12  2  0
  2  3  1  0
  3  4  2  0
  4  5  1  0
  5  6  1  0
  6  7  1  0
  7  9  1  0
  7  8  1  6
  9 16  1  0
 10  9  2  0
 11  5  2  0
 12 11  1  0
 15 14  1  1
 14 13  1  0
 15 17  1  0
 16 15  1  0
 17 18  2  0
 17 19  1  0
 19 20  1  0
 20 21  1  0
 21 22  1  0
 23 21  2  0
M  END
$$$$
