VEK.pdb
     RDKit          3D

 26 25  0  0  1  0  0  0  0  0999 V2000
   14.1187   -9.1327  -12.7434 C   0  0  0  0  0  0  0  0  0  0  0  0
   14.7240  -10.4084  -12.2016 C   0  0  1  0  0  0  0  0  0  0  0  0
   14.1906  -11.5645  -12.9762 C   0  0  0  0  0  0  0  0  0  0  0  0
   16.2244  -10.3144  -12.1804 C   0  0  2  0  0  0  0  0  0  0  0  0
   16.7514  -11.5022  -11.5504 N   0  0  0  0  0  0  0  0  0  0  0  0
   16.7073   -9.1297  -11.4149 C   0  0  0  0  0  0  0  0  0  0  0  0
   16.5636   -9.1123  -10.1799 O   0  0  0  0  0  0  0  0  0  0  0  0
   17.3265   -8.0200  -12.0529 N   0  0  0  0  0  0  0  0  0  0  0  0
   17.6926   -6.7725  -11.4896 C   0  0  1  0  0  0  0  0  0  0  0  0
   18.8006   -6.0421  -12.1369 C   0  0  0  0  0  0  0  0  0  0  0  0
   20.1299   -6.5768  -11.6679 C   0  0  0  0  0  0  0  0  0  0  0  0
   21.2483   -5.8679  -12.3163 C   0  0  0  0  0  0  0  0  0  0  0  0
   21.2509   -5.6648  -13.5493 O   0  0  0  0  0  0  0  0  0  0  0  0
   16.5026   -5.9214  -11.1624 C   0  0  0  0  0  0  0  0  0  0  0  0
   15.5122   -5.9186  -11.9272 O   0  0  0  0  0  0  0  0  0  0  0  0
   22.3170   -5.4145  -11.5662 O   0  0  0  0  0  0  0  0  0  0  0  0
   16.4325   -5.1130  -10.0283 N   0  0  0  0  0  0  0  0  0  0  0  0
   15.2443   -4.2081   -9.7693 C   0  0  1  0  0  0  0  0  0  0  0  0
   14.4838   -4.9994   -8.7593 C   0  0  0  0  0  0  0  0  0  0  0  0
   13.1899   -4.5971   -8.2432 C   0  0  0  0  0  0  0  0  0  0  0  0
   12.8492   -4.6222   -6.8162 C   0  0  0  0  0  0  0  0  0  0  0  0
   11.4346   -4.2066   -6.4775 C   0  0  0  0  0  0  0  0  0  0  0  0
   11.1512   -4.2476   -5.0756 N   0  0  0  0  0  0  0  0  0  0  0  0
   15.7716   -2.9105   -9.3467 C   0  0  0  0  0  0  0  0  0  0  0  0
   17.1754   -2.8164   -9.1480 O   0  0  0  0  0  0  0  0  0  0  0  0
   15.0925   -1.8828   -9.1467 O   0  0  0  0  0  0  0  0  0  0  0  0
  2  4  1  0
  2  1  1  6
  3  2  1  0
  4  6  1  0
  4  5  1  1
  6  7  2  0
  8  9  1  0
  8  6  1  0
  9 10  1  6
 11 10  1  0
 12 11  1  0
 12 13  2  0
 14 15  2  0
 14  9  1  0
 16 12  1  0
 17 14  1  0
 18 17  1  0
 18 24  1  0
 18 19  1  1
 20 19  1  0
 21 20  1  0
 22 21  1  0
 23 22  1  0
 24 25  1  0
 26 24  2  0
M  END
$$$$
