VEK.pdb
     RDKit          3D

 26 25  0  0  1  0  0  0  0  0999 V2000
   20.4175  -13.2063  -16.6303 C   0  0  0  0  0  0  0  0  0  0  0  0
   19.8602  -11.8559  -16.2388 C   0  0  1  0  0  0  0  0  0  0  0  0
   20.3358  -11.5148  -14.8681 C   0  0  0  0  0  0  0  0  0  0  0  0
   20.1874  -10.8256  -17.2838 C   0  0  2  0  0  0  0  0  0  0  0  0
   21.6214  -10.7739  -17.4464 N   0  0  0  0  0  0  0  0  0  0  0  0
   19.7137   -9.4638  -16.9049 C   0  0  0  0  0  0  0  0  0  0  0  0
   18.4921   -9.2623  -16.7902 O   0  0  0  0  0  0  0  0  0  0  0  0
   20.6150   -8.3891  -16.6710 N   0  0  0  0  0  0  0  0  0  0  0  0
   20.3162   -7.0547  -16.2997 C   0  0  1  0  0  0  0  0  0  0  0  0
   21.3345   -6.3326  -15.5112 C   0  0  0  0  0  0  0  0  0  0  0  0
   21.0219   -6.4209  -14.0390 C   0  0  0  0  0  0  0  0  0  0  0  0
   22.0659   -5.7633  -13.2320 C   0  0  0  0  0  0  0  0  0  0  0  0
   23.0673   -5.2487  -13.7742 O   0  0  0  0  0  0  0  0  0  0  0  0
   19.7389   -6.2613  -17.4331 C   0  0  0  0  0  0  0  0  0  0  0  0
   20.2980   -6.2803  -18.5524 O   0  0  0  0  0  0  0  0  0  0  0  0
   21.9526   -5.7053  -11.8557 O   0  0  0  0  0  0  0  0  0  0  0  0
   18.5873   -5.4844  -17.3107 N   0  0  0  0  0  0  0  0  0  0  0  0
   18.1044   -4.5953  -18.4395 C   0  0  1  0  0  0  0  0  0  0  0  0
   16.6986   -5.0649  -18.6059 C   0  0  0  0  0  0  0  0  0  0  0  0
   15.7386   -4.4109  -19.4736 C   0  0  0  0  0  0  0  0  0  0  0  0
   14.4660   -5.0232  -19.8723 C   0  0  0  0  0  0  0  0  0  0  0  0
   13.5680   -4.1583  -20.7291 C   0  0  0  0  0  0  0  0  0  0  0  0
   12.2465   -4.6860  -20.8790 N   0  0  0  0  0  0  0  0  0  0  0  0
   18.3034   -3.2095  -18.0152 C   0  0  0  0  0  0  0  0  0  0  0  0
   18.6939   -2.2770  -19.0137 O   0  0  0  0  0  0  0  0  0  0  0  0
   18.1593   -2.7799  -16.8523 O   0  0  0  0  0  0  0  0  0  0  0  0
  2  4  1  0
  2  1  1  6
  3  2  1  0
  4  6  1  0
  4  5  1  1
  6  7  2  0
  8  9  1  0
  8  6  1  0
  9 10  1  6
 11 10  1  0
 12 11  1  0
 12 13  2  0
 14 15  2  0
 14  9  1  0
 16 12  1  0
 17 14  1  0
 18 17  1  0
 18 24  1  0
 18 19  1  1
 20 19  1  0
 21 20  1  0
 22 21  1  0
 23 22  1  0
 24 25  1  0
 26 24  2  0
M  END
$$$$
