VEK.pdb
     RDKit          3D

 26 25  0  0  1  0  0  0  0  0999 V2000
   28.0021  -17.8964  -18.0330 C   0  0  0  0  0  0  0  0  0  0  0  0
   27.1937  -18.9429  -17.2990 C   0  0  1  0  0  0  0  0  0  0  0  0
   28.0120  -20.1813  -17.1659 C   0  0  0  0  0  0  0  0  0  0  0  0
   26.6788  -18.3959  -15.9966 C   0  0  2  0  0  0  0  0  0  0  0  0
   27.8068  -18.0167  -15.1784 N   0  0  0  0  0  0  0  0  0  0  0  0
   25.8726  -19.3965  -15.2408 C   0  0  0  0  0  0  0  0  0  0  0  0
   24.9654  -20.0079  -15.8319 O   0  0  0  0  0  0  0  0  0  0  0  0
   26.1086  -19.6731  -13.8661 N   0  0  0  0  0  0  0  0  0  0  0  0
   25.2958  -20.4014  -12.9625 C   0  0  1  0  0  0  0  0  0  0  0  0
   25.7415  -20.4612  -11.5561 C   0  0  0  0  0  0  0  0  0  0  0  0
   24.8842  -21.4215  -10.7715 C   0  0  0  0  0  0  0  0  0  0  0  0
   25.2911  -21.4643   -9.3551 C   0  0  0  0  0  0  0  0  0  0  0  0
   24.4387  -21.5388   -8.4443 O   0  0  0  0  0  0  0  0  0  0  0  0
   23.8375  -20.0988  -13.1336 C   0  0  0  0  0  0  0  0  0  0  0  0
   23.4086  -18.9496  -12.8859 O   0  0  0  0  0  0  0  0  0  0  0  0
   26.6291  -21.4223   -9.0108 O   0  0  0  0  0  0  0  0  0  0  0  0
   22.9081  -21.0455  -13.5632 N   0  0  0  0  0  0  0  0  0  0  0  0
   21.4368  -20.7085  -13.7031 C   0  0  1  0  0  0  0  0  0  0  0  0
   21.1322  -21.2655  -15.0528 C   0  0  0  0  0  0  0  0  0  0  0  0
   20.3123  -20.5778  -16.0310 C   0  0  0  0  0  0  0  0  0  0  0  0
   20.0125  -21.1264  -17.3586 C   0  0  0  0  0  0  0  0  0  0  0  0
   19.3353  -20.1735  -18.3187 C   0  0  0  0  0  0  0  0  0  0  0  0
   19.0406  -20.7619  -19.5892 N   0  0  0  0  0  0  0  0  0  0  0  0
   20.7451  -21.3038  -12.5597 C   0  0  0  0  0  0  0  0  0  0  0  0
   19.4199  -20.8600  -12.3027 O   0  0  0  0  0  0  0  0  0  0  0  0
   21.2212  -22.1662  -11.7935 O   0  0  0  0  0  0  0  0  0  0  0  0
  2  4  1  0
  2  1  1  1
  3  2  1  0
  4  6  1  0
  4  5  1  1
  6  7  2  0
  8  9  1  0
  8  6  1  0
  9 10  1  1
 11 10  1  0
 12 11  1  0
 12 13  2  0
 14 15  2  0
 14  9  1  0
 16 12  1  0
 17 14  1  0
 18 17  1  0
 18 24  1  0
 18 19  1  6
 20 19  1  0
 21 20  1  0
 22 21  1  0
 23 22  1  0
 24 25  1  0
 26 24  2  0
M  END
$$$$
