YWV.pdb
     RDKit          3D

 34 36  0  0  1  0  0  0  0  0999 V2000
    7.6506  -13.3392   16.3581 O   0  0  0  0  0  0  0  0  0  0  0  0
    7.7859  -13.5510   17.7129 C   0  0  0  0  0  0  0  0  0  0  0  0
    8.8760  -13.0107   18.3720 C   0  0  0  0  0  0  0  0  0  0  0  0
    9.0361  -13.2067   19.7318 C   0  0  0  0  0  0  0  0  0  0  0  0
    8.0742  -13.9612   20.4245 C   0  0  0  0  0  0  0  0  0  0  0  0
    8.2147  -14.1905   21.8676 C   0  0  0  0  0  0  0  0  0  0  0  0
    9.2664  -15.2766   22.1494 C   0  0  2  0  0  0  0  0  0  0  0  0
    8.7222  -16.5542   21.6355 N   0  0  0  0  0  0  0  0  0  0  0  0
    9.4249  -15.4450   23.5982 C   0  0  0  0  0  0  0  0  0  0  0  0
   10.0185  -14.5828   24.3292 O   0  0  0  0  0  0  0  0  0  0  0  0
    6.9932  -14.4963   19.7672 C   0  0  0  0  0  0  0  0  0  0  0  0
    6.8280  -14.3049   18.4081 C   0  0  0  0  0  0  0  0  0  0  0  0
    8.9138  -16.5877   24.2487 N   0  0  0  0  0  0  0  0  0  0  0  0
    9.1460  -16.8105   25.6921 C   0  0  1  0  0  0  0  0  0  0  0  0
    7.7391  -16.7644   26.2903 C   0  0  0  0  0  0  0  0  0  0  0  0
    7.0380  -15.4930   26.0618 C   0  0  0  0  0  0  0  0  0  0  0  0
    5.9169  -15.3126   25.3103 C   0  0  0  0  0  0  0  0  0  0  0  0
    5.6128  -14.0087   25.3421 N   0  0  0  0  0  0  0  0  0  0  0  0
    6.5186  -13.3487   26.1016 C   0  0  0  0  0  0  0  0  0  0  0  0
    6.6297  -12.0134   26.4407 C   0  0  0  0  0  0  0  0  0  0  0  0
    7.6526  -11.5462   27.2567 C   0  0  0  0  0  0  0  0  0  0  0  0
    8.5482  -12.4759   27.7090 C   0  0  0  0  0  0  0  0  0  0  0  0
    8.4499  -13.8061   27.3787 C   0  0  0  0  0  0  0  0  0  0  0  0
    7.4222  -14.2624   26.5622 C   0  0  0  0  0  0  0  0  0  0  0  0
    9.8392  -18.0674   25.8399 C   0  0  0  0  0  0  0  0  0  0  0  0
    9.2667  -19.1129   26.2593 O   0  0  0  0  0  0  0  0  0  0  0  0
   14.1637  -18.4612   25.2944 C   0  0  0  0  0  0  0  0  0  0  0  0
   13.1802  -19.5464   24.8890 C   0  0  2  0  0  0  0  0  0  0  0  0
   12.8213  -19.2706   23.4445 C   0  0  0  0  0  0  0  0  0  0  0  0
   11.9085  -19.4693   25.6935 C   0  0  2  0  0  0  0  0  0  0  0  0
   11.2190  -18.2065   25.5148 N   0  0  0  0  0  0  0  0  0  0  0  0
   12.1790  -19.7101   27.0930 C   0  0  0  0  0  0  0  0  0  0  0  0
   12.6803  -20.8093   27.4660 O   0  0  0  0  0  0  0  0  0  0  0  0
   11.9230  -18.7948   28.1156 O   0  0  0  0  0  0  0  0  0  0  0  0
  2 12  2  0
  2  1  1  0
  3  2  1  0
  4  5  1  0
  4  3  2  0
  5 11  2  0
  6  5  1  0
  7  9  1  0
  7  6  1  0
  7  8  1  6
  9 13  1  0
  9 10  2  0
 11 12  1  0
 13 14  1  0
 14 25  1  0
 14 15  1  1
 16 24  1  0
 16 15  1  0
 17 16  2  0
 18 17  1  0
 18 19  1  0
 19 24  2  0
 20 19  1  0
 20 21  2  0
 21 22  1  0
 22 23  2  0
 24 23  1  0
 25 26  2  0
 25 31  1  0
 28 27  1  1
 28 29  1  0
 30 32  1  0
 30 28  1  0
 30 31  1  1
 32 34  1  0
 33 32  2  0
M  END
$$$$
