YWV.pdb
     RDKit          3D

 34 36  0  0  1  0  0  0  0  0999 V2000
   12.7233  -21.5724   17.1829 O   0  0  0  0  0  0  0  0  0  0  0  0
   12.5005  -20.6824   18.2109 C   0  0  0  0  0  0  0  0  0  0  0  0
   13.4208  -20.6014   19.2410 C   0  0  0  0  0  0  0  0  0  0  0  0
   13.2227  -19.7159   20.2849 C   0  0  0  0  0  0  0  0  0  0  0  0
   12.0745  -18.9061   20.2765 C   0  0  0  0  0  0  0  0  0  0  0  0
   11.8322  -17.9571   21.3701 C   0  0  0  0  0  0  0  0  0  0  0  0
   10.4644  -17.2730   21.2081 C   0  0  2  0  0  0  0  0  0  0  0  0
   10.5808  -16.3289   20.0732 N   0  0  0  0  0  0  0  0  0  0  0  0
   10.1754  -16.4617   22.3959 C   0  0  0  0  0  0  0  0  0  0  0  0
   10.4388  -15.2138   22.4561 O   0  0  0  0  0  0  0  0  0  0  0  0
   11.1628  -18.9890   19.2524 C   0  0  0  0  0  0  0  0  0  0  0  0
   11.3544  -19.8726   18.2067 C   0  0  0  0  0  0  0  0  0  0  0  0
    9.5815  -17.0430   23.5357 N   0  0  0  0  0  0  0  0  0  0  0  0
    9.1968  -16.2162   24.6999 C   0  0  1  0  0  0  0  0  0  0  0  0
    7.7719  -16.6780   25.0094 C   0  0  0  0  0  0  0  0  0  0  0  0
    6.7582  -15.6264   24.8465 C   0  0  0  0  0  0  0  0  0  0  0  0
    5.5612  -15.7502   24.2093 C   0  0  0  0  0  0  0  0  0  0  0  0
    4.9468  -14.5615   24.2658 N   0  0  0  0  0  0  0  0  0  0  0  0
    5.7281  -13.6766   24.9288 C   0  0  0  0  0  0  0  0  0  0  0  0
    5.5354  -12.3461   25.2498 C   0  0  0  0  0  0  0  0  0  0  0  0
    6.4828  -11.6174   25.9582 C   0  0  0  0  0  0  0  0  0  0  0  0
    7.6203  -12.2837   26.3231 C   0  0  0  0  0  0  0  0  0  0  0  0
    7.8249  -13.6059   26.0096 C   0  0  0  0  0  0  0  0  0  0  0  0
    6.8701  -14.3252   25.3012 C   0  0  0  0  0  0  0  0  0  0  0  0
   10.1626  -16.4490   25.7464 C   0  0  0  0  0  0  0  0  0  0  0  0
   10.9302  -17.4526   25.7504 O   0  0  0  0  0  0  0  0  0  0  0  0
   12.1156  -15.0796   30.1391 C   0  0  0  0  0  0  0  0  0  0  0  0
   11.3655  -14.6745   28.8811 C   0  0  2  0  0  0  0  0  0  0  0  0
    9.9609  -14.3238   29.3234 C   0  0  0  0  0  0  0  0  0  0  0  0
   11.2600  -15.8193   27.9070 C   0  0  2  0  0  0  0  0  0  0  0  0
   10.3124  -15.5521   26.8428 N   0  0  0  0  0  0  0  0  0  0  0  0
   10.9205  -17.0429   28.5980 C   0  0  0  0  0  0  0  0  0  0  0  0
    9.7156  -17.4180   28.6765 O   0  0  0  0  0  0  0  0  0  0  0  0
   11.8477  -17.8845   29.2153 O   0  0  0  0  0  0  0  0  0  0  0  0
  2 12  2  0
  2  1  1  0
  3  2  1  0
  4  5  1  0
  4  3  2  0
  5 11  2  0
  6  5  1  0
  7  9  1  0
  7  6  1  0
  7  8  1  6
  9 13  1  0
  9 10  2  0
 11 12  1  0
 13 14  1  0
 14 25  1  0
 14 15  1  1
 16 24  1  0
 16 15  1  0
 17 16  2  0
 18 17  1  0
 18 19  1  0
 19 24  2  0
 20 19  1  0
 20 21  2  0
 21 22  1  0
 22 23  2  0
 24 23  1  0
 25 26  2  0
 25 31  1  0
 28 27  1  1
 28 29  1  0
 30 32  1  0
 30 28  1  0
 30 31  1  6
 32 34  1  0
 33 32  2  0
M  END
$$$$
