YWV.pdb
     RDKit          3D

 34 36  0  0  1  0  0  0  0  0999 V2000
   14.7282  -20.2868   25.0982 O   0  0  0  0  0  0  0  0  0  0  0  0
   14.2209  -19.4770   24.1055 C   0  0  0  0  0  0  0  0  0  0  0  0
   14.5996  -18.1467   24.0643 C   0  0  0  0  0  0  0  0  0  0  0  0
   14.1065  -17.3117   23.0780 C   0  0  0  0  0  0  0  0  0  0  0  0
   13.2190  -17.8400   22.1254 C   0  0  0  0  0  0  0  0  0  0  0  0
   12.6751  -16.9809   21.0666 C   0  0  0  0  0  0  0  0  0  0  0  0
   11.1379  -17.0288   21.0587 C   0  0  2  0  0  0  0  0  0  0  0  0
   10.6838  -16.2563   19.8798 N   0  0  0  0  0  0  0  0  0  0  0  0
   10.6171  -16.3304   22.2392 C   0  0  0  0  0  0  0  0  0  0  0  0
   10.6608  -15.0602   22.3608 O   0  0  0  0  0  0  0  0  0  0  0  0
   12.8450  -19.1610   22.1692 C   0  0  0  0  0  0  0  0  0  0  0  0
   13.3333  -20.0006   23.1529 C   0  0  0  0  0  0  0  0  0  0  0  0
   10.0349  -17.0523   23.3022 N   0  0  0  0  0  0  0  0  0  0  0  0
    9.4986  -16.3567   24.4919 C   0  0  1  0  0  0  0  0  0  0  0  0
    8.0687  -16.8886   24.6009 C   0  0  0  0  0  0  0  0  0  0  0  0
    7.0451  -15.8350   24.6477 C   0  0  0  0  0  0  0  0  0  0  0  0
    5.7470  -15.9520   24.2536 C   0  0  0  0  0  0  0  0  0  0  0  0
    5.1580  -14.7637   24.4395 N   0  0  0  0  0  0  0  0  0  0  0  0
    6.0551  -13.8857   24.9468 C   0  0  0  0  0  0  0  0  0  0  0  0
    5.9314  -12.5583   25.3117 C   0  0  0  0  0  0  0  0  0  0  0  0
    7.0000  -11.8370   25.8299 C   0  0  0  0  0  0  0  0  0  0  0  0
    8.1851  -12.5073   25.9609 C   0  0  0  0  0  0  0  0  0  0  0  0
    8.3219  -13.8265   25.6011 C   0  0  0  0  0  0  0  0  0  0  0  0
    7.2462  -14.5383   25.0845 C   0  0  0  0  0  0  0  0  0  0  0  0
   10.3588  -16.6638   25.6091 C   0  0  0  0  0  0  0  0  0  0  0  0
   11.1205  -17.6718   25.6220 O   0  0  0  0  0  0  0  0  0  0  0  0
    9.7265  -14.9892   29.5367 C   0  0  0  0  0  0  0  0  0  0  0  0
   11.1422  -15.1774   29.0174 C   0  0  2  0  0  0  0  0  0  0  0  0
   11.5461  -13.8521   28.4075 C   0  0  0  0  0  0  0  0  0  0  0  0
   11.1977  -16.2135   27.9247 C   0  0  2  0  0  0  0  0  0  0  0  0
   10.4040  -15.8402   26.7703 N   0  0  0  0  0  0  0  0  0  0  0  0
   10.7887  -17.5048   28.4298 C   0  0  0  0  0  0  0  0  0  0  0  0
   11.5118  -18.1220   29.2634 O   0  0  0  0  0  0  0  0  0  0  0  0
    9.6130  -18.1608   28.0609 O   0  0  0  0  0  0  0  0  0  0  0  0
  2 12  2  0
  2  1  1  0
  3  2  1  0
  4  5  1  0
  4  3  2  0
  5 11  2  0
  6  5  1  0
  7  9  1  0
  7  6  1  0
  7  8  1  6
  9 13  1  0
  9 10  2  0
 11 12  1  0
 13 14  1  0
 14 25  1  0
 14 15  1  1
 16 24  1  0
 16 15  1  0
 17 16  2  0
 18 17  1  0
 18 19  1  0
 19 24  2  0
 20 19  1  0
 20 21  2  0
 21 22  1  0
 22 23  2  0
 24 23  1  0
 25 26  2  0
 25 31  1  0
 28 27  1  6
 28 29  1  0
 30 32  1  0
 30 28  1  0
 30 31  1  6
 32 34  1  0
 33 32  2  0
M  END
$$$$
