YWV.pdb
     RDKit          3D

 34 36  0  0  1  0  0  0  0  0999 V2000
    7.6817  -14.4327   15.6161 O   0  0  0  0  0  0  0  0  0  0  0  0
    7.9939  -14.3204   16.9534 C   0  0  0  0  0  0  0  0  0  0  0  0
    7.8325  -13.0978   17.5808 C   0  0  0  0  0  0  0  0  0  0  0  0
    8.1371  -12.9571   18.9227 C   0  0  0  0  0  0  0  0  0  0  0  0
    8.6106  -14.0751   19.6299 C   0  0  0  0  0  0  0  0  0  0  0  0
    8.9456  -13.9602   21.0545 C   0  0  0  0  0  0  0  0  0  0  0  0
    9.6188  -15.2457   21.5638 C   0  0  2  0  0  0  0  0  0  0  0  0
    8.6890  -16.3642   21.2862 N   0  0  0  0  0  0  0  0  0  0  0  0
    9.7665  -15.1801   23.0221 C   0  0  0  0  0  0  0  0  0  0  0  0
   10.4930  -14.3036   23.6002 O   0  0  0  0  0  0  0  0  0  0  0  0
    8.7698  -15.2875   19.0039 C   0  0  0  0  0  0  0  0  0  0  0  0
    8.4681  -15.4345   17.6629 C   0  0  0  0  0  0  0  0  0  0  0  0
    9.0949  -16.1002   23.8542 N   0  0  0  0  0  0  0  0  0  0  0  0
    9.0710  -15.9231   25.3222 C   0  0  1  0  0  0  0  0  0  0  0  0
    7.6888  -16.4427   25.7210 C   0  0  0  0  0  0  0  0  0  0  0  0
    6.6544  -15.3999   25.7719 C   0  0  0  0  0  0  0  0  0  0  0  0
    5.3142  -15.5834   25.6161 C   0  0  0  0  0  0  0  0  0  0  0  0
    4.7267  -14.3837   25.7116 N   0  0  0  0  0  0  0  0  0  0  0  0
    5.6662  -13.4329   25.9268 C   0  0  0  0  0  0  0  0  0  0  0  0
    5.5622  -12.0656   26.1002 C   0  0  0  0  0  0  0  0  0  0  0  0
    6.6774  -11.2671   26.3220 C   0  0  0  0  0  0  0  0  0  0  0  0
    7.8879  -11.9027   26.3597 C   0  0  0  0  0  0  0  0  0  0  0  0
    8.0055  -13.2610   26.1880 C   0  0  0  0  0  0  0  0  0  0  0  0
    6.8832  -14.0501   25.9674 C   0  0  0  0  0  0  0  0  0  0  0  0
   10.1876  -16.6518   25.8740 C   0  0  0  0  0  0  0  0  0  0  0  0
   10.7143  -17.6364   25.2827 O   0  0  0  0  0  0  0  0  0  0  0  0
   13.0985  -17.5919   29.8324 C   0  0  0  0  0  0  0  0  0  0  0  0
   12.2173  -16.6041   29.0861 C   0  0  2  0  0  0  0  0  0  0  0  0
   11.0392  -16.3222   29.9938 C   0  0  0  0  0  0  0  0  0  0  0  0
   11.6745  -17.1993   27.8126 C   0  0  2  0  0  0  0  0  0  0  0  0
   10.7699  -16.2988   27.1251 N   0  0  0  0  0  0  0  0  0  0  0  0
   11.0300  -18.4654   28.0796 C   0  0  0  0  0  0  0  0  0  0  0  0
    9.7856  -18.5144   28.2977 O   0  0  0  0  0  0  0  0  0  0  0  0
   11.6906  -19.6946   28.1207 O   0  0  0  0  0  0  0  0  0  0  0  0
  2 12  2  0
  2  1  1  0
  3  2  1  0
  4  5  1  0
  4  3  2  0
  5 11  2  0
  6  5  1  0
  7  9  1  0
  7  6  1  0
  7  8  1  1
  9 13  1  0
  9 10  2  0
 11 12  1  0
 13 14  1  0
 14 25  1  0
 14 15  1  1
 16 24  1  0
 16 15  1  0
 17 16  2  0
 18 17  1  0
 18 19  1  0
 19 24  2  0
 20 19  1  0
 20 21  2  0
 21 22  1  0
 22 23  2  0
 24 23  1  0
 25 26  2  0
 25 31  1  0
 28 27  1  1
 28 29  1  0
 30 32  1  0
 30 28  1  0
 30 31  1  1
 32 34  1  0
 33 32  2  0
M  END
$$$$
