YYA.pdb
     RDKit          3D

 30 31  0  0  1  0  0  0  0  0999 V2000
   17.2974    4.1970  -12.9458 O   0  0  0  0  0  0  0  0  0  0  0  0
   17.5392    2.8941  -13.3540 C   0  0  0  0  0  0  0  0  0  0  0  0
   16.9923    2.4426  -14.5230 C   0  0  0  0  0  0  0  0  0  0  0  0
   17.2161    1.1576  -14.9496 C   0  0  0  0  0  0  0  0  0  0  0  0
   17.9987    0.2601  -14.2270 C   0  0  0  0  0  0  0  0  0  0  0  0
   18.2221   -1.1242  -14.6934 C   0  0  0  0  0  0  0  0  0  0  0  0
   19.5798   -1.3617  -15.2596 C   0  0  2  0  0  0  0  0  0  0  0  0
   19.8085   -0.6116  -16.4803 N   0  0  0  0  0  0  0  0  0  0  0  0
   19.8791   -2.7881  -15.5292 C   0  0  0  0  0  0  0  0  0  0  0  0
   19.6089   -3.2471  -16.6939 O   0  0  0  0  0  0  0  0  0  0  0  0
   18.5319    0.7563  -13.0525 C   0  0  0  0  0  0  0  0  0  0  0  0
   18.3100    2.0459  -12.6202 C   0  0  0  0  0  0  0  0  0  0  0  0
   23.3166  -10.8726  -14.6130 O   0  0  0  0  0  0  0  0  0  0  0  0
   22.9706   -9.5494  -14.4609 C   0  0  0  0  0  0  0  0  0  0  0  0
   22.2351   -9.1480  -13.3674 C   0  0  0  0  0  0  0  0  0  0  0  0
   21.9053   -7.8059  -13.2481 C   0  0  0  0  0  0  0  0  0  0  0  0
   22.2898   -6.8723  -14.1848 C   0  0  0  0  0  0  0  0  0  0  0  0
   21.9150   -5.4893  -14.0005 C   0  0  0  0  0  0  0  0  0  0  0  0
   20.7159   -5.0184  -14.7677 C   0  0  2  0  0  0  0  0  0  0  0  0
   20.4453   -3.6116  -14.5275 N   0  0  0  0  0  0  0  0  0  0  0  0
   19.4951   -5.8322  -14.5460 C   0  0  0  0  0  0  0  0  0  0  0  0
   18.8650   -5.6585  -13.4734 O   0  0  0  0  0  0  0  0  0  0  0  0
   23.0338   -7.3000  -15.2839 C   0  0  0  0  0  0  0  0  0  0  0  0
   23.3678   -8.6160  -15.4186 C   0  0  0  0  0  0  0  0  0  0  0  0
   17.1440   -7.6341  -16.6103 C   0  0  0  0  0  0  0  0  0  0  0  0
   17.8470   -7.6103  -15.2329 C   0  0  2  0  0  0  0  0  0  0  0  0
   19.0273   -6.7670  -15.4731 N   0  0  0  0  0  0  0  0  0  0  0  0
   18.2474   -8.9940  -14.9772 C   0  0  0  0  0  0  0  0  0  0  0  0
   19.3295   -9.4613  -15.4090 O   0  0  0  0  0  0  0  0  0  0  0  0
   17.4338   -9.8352  -14.2420 O   0  0  0  0  0  0  0  0  0  0  0  0
  2 12  2  0
  2  1  1  0
  3  2  1  0
  4  5  1  0
  4  3  2  0
  5 11  2  0
  6  7  1  0
  6  5  1  0
  7  8  1  6
  9  7  1  0
  9 20  1  0
 10  9  2  0
 11 12  1  0
 14 13  1  0
 15 14  2  0
 16 15  1  0
 17 23  1  0
 17 16  2  0
 18 17  1  0
 19 21  1  0
 19 20  1  0
 19 18  1  1
 21 22  2  0
 23 24  2  0
 24 14  1  0
 26 25  1  6
 26 28  1  0
 27 26  1  0
 27 21  1  0
 28 29  2  0
 28 30  1  0
M  END
$$$$
