YYA.pdb
     RDKit          3D

 30 31  0  0  1  0  0  0  0  0999 V2000
   28.8069   -1.1885  -18.2181 O   0  0  0  0  0  0  0  0  0  0  0  0
   27.6513   -1.9085  -17.9555 C   0  0  0  0  0  0  0  0  0  0  0  0
   27.6631   -2.8685  -16.9820 C   0  0  0  0  0  0  0  0  0  0  0  0
   26.5330   -3.5952  -16.7024 C   0  0  0  0  0  0  0  0  0  0  0  0
   25.3343   -3.3971  -17.3835 C   0  0  0  0  0  0  0  0  0  0  0  0
   24.1282   -4.1947  -17.0789 C   0  0  0  0  0  0  0  0  0  0  0  0
   24.2404   -5.6319  -17.4562 C   0  0  2  0  0  0  0  0  0  0  0  0
   24.5576   -5.8115  -18.8606 N   0  0  0  0  0  0  0  0  0  0  0  0
   23.0312   -6.4318  -17.1483 C   0  0  0  0  0  0  0  0  0  0  0  0
   22.3480   -6.8874  -18.1311 O   0  0  0  0  0  0  0  0  0  0  0  0
   25.3656   -2.4183  -18.3587 C   0  0  0  0  0  0  0  0  0  0  0  0
   26.4981   -1.6861  -18.6429 C   0  0  0  0  0  0  0  0  0  0  0  0
   24.8194  -12.9118  -16.5340 O   0  0  0  0  0  0  0  0  0  0  0  0
   24.0954  -11.8522  -16.0374 C   0  0  0  0  0  0  0  0  0  0  0  0
   24.6248  -11.0574  -15.0445 C   0  0  0  0  0  0  0  0  0  0  0  0
   23.8653   -9.9985  -14.5689 C   0  0  0  0  0  0  0  0  0  0  0  0
   22.6078   -9.7228  -15.0581 C   0  0  0  0  0  0  0  0  0  0  0  0
   21.8693   -8.6034  -14.5206 C   0  0  0  0  0  0  0  0  0  0  0  0
   21.5063   -7.5197  -15.4914 C   0  0  2  0  0  0  0  0  0  0  0  0
   22.6488   -6.6808  -15.8089 N   0  0  0  0  0  0  0  0  0  0  0  0
   20.3485   -6.6918  -15.0722 C   0  0  0  0  0  0  0  0  0  0  0  0
   20.4300   -6.0885  -13.9735 O   0  0  0  0  0  0  0  0  0  0  0  0
   22.0908  -10.5398  -16.0629 C   0  0  0  0  0  0  0  0  0  0  0  0
   22.8228  -11.5861  -16.5435 C   0  0  0  0  0  0  0  0  0  0  0  0
   17.2058   -5.6545  -16.7559 C   0  0  0  0  0  0  0  0  0  0  0  0
   18.0937   -5.6471  -15.4896 C   0  0  2  0  0  0  0  0  0  0  0  0
   19.1914   -6.5589  -15.8440 N   0  0  0  0  0  0  0  0  0  0  0  0
   17.2659   -6.2260  -14.4312 C   0  0  0  0  0  0  0  0  0  0  0  0
   17.1580   -7.4673  -14.2788 O   0  0  0  0  0  0  0  0  0  0  0  0
   16.5717   -5.4100  -13.5582 O   0  0  0  0  0  0  0  0  0  0  0  0
  2 12  2  0
  2  1  1  0
  3  2  1  0
  4  5  1  0
  4  3  2  0
  5 11  2  0
  6  7  1  0
  6  5  1  0
  7  8  1  6
  9  7  1  0
  9 20  1  0
 10  9  2  0
 11 12  1  0
 14 13  1  0
 15 14  2  0
 16 15  1  0
 17 23  1  0
 17 16  2  0
 18 17  1  0
 19 21  1  0
 19 20  1  0
 19 18  1  1
 21 22  2  0
 23 24  2  0
 24 14  1  0
 26 25  1  6
 26 28  1  0
 27 26  1  0
 27 21  1  0
 28 29  2  0
 28 30  1  0
M  END
$$$$
