YYA.pdb
     RDKit          3D

 30 31  0  0  1  0  0  0  0  0999 V2000
   33.2896   -7.9532  -18.1603 O   0  0  0  0  0  0  0  0  0  0  0  0
   32.0708   -8.5384  -18.4681 C   0  0  0  0  0  0  0  0  0  0  0  0
   31.1767   -8.7976  -17.4667 C   0  0  0  0  0  0  0  0  0  0  0  0
   29.9636   -9.3760  -17.7444 C   0  0  0  0  0  0  0  0  0  0  0  0
   29.5849   -9.7240  -19.0389 C   0  0  0  0  0  0  0  0  0  0  0  0
   28.2795  -10.3563  -19.3216 C   0  0  0  0  0  0  0  0  0  0  0  0
   28.2563  -11.8284  -19.0919 C   0  0  2  0  0  0  0  0  0  0  0  0
   29.1979  -12.5350  -19.9401 N   0  0  0  0  0  0  0  0  0  0  0  0
   26.9201  -12.4448  -19.2692 C   0  0  0  0  0  0  0  0  0  0  0  0
   26.6759  -13.0371  -20.3781 O   0  0  0  0  0  0  0  0  0  0  0  0
   30.5170   -9.4453  -20.0205 C   0  0  0  0  0  0  0  0  0  0  0  0
   31.7364   -8.8645  -19.7463 C   0  0  0  0  0  0  0  0  0  0  0  0
   19.2683  -16.3464  -17.5767 O   0  0  0  0  0  0  0  0  0  0  0  0
   20.5014  -15.7401  -17.5033 C   0  0  0  0  0  0  0  0  0  0  0  0
   21.5263  -16.1549  -18.3252 C   0  0  0  0  0  0  0  0  0  0  0  0
   22.7552  -15.5199  -18.2225 C   0  0  0  0  0  0  0  0  0  0  0  0
   22.9766  -14.4952  -17.3294 C   0  0  0  0  0  0  0  0  0  0  0  0
   24.2799  -13.8744  -17.2736 C   0  0  0  0  0  0  0  0  0  0  0  0
   24.6288  -12.9596  -18.4093 C   0  0  2  0  0  0  0  0  0  0  0  0
   25.9492  -12.3779  -18.2420 N   0  0  0  0  0  0  0  0  0  0  0  0
   23.6200  -11.9032  -18.6701 C   0  0  0  0  0  0  0  0  0  0  0  0
   23.5996  -10.9126  -17.8981 O   0  0  0  0  0  0  0  0  0  0  0  0
   21.9257  -14.0909  -16.5068 C   0  0  0  0  0  0  0  0  0  0  0  0
   20.7096  -14.7035  -16.5931 C   0  0  0  0  0  0  0  0  0  0  0  0
   21.1787  -11.2817  -21.3947 C   0  0  0  0  0  0  0  0  0  0  0  0
   21.7082  -10.9224  -19.9866 C   0  0  2  0  0  0  0  0  0  0  0  0
   22.7089  -11.9681  -19.7275 N   0  0  0  0  0  0  0  0  0  0  0  0
   20.5621  -11.0742  -19.0901 C   0  0  0  0  0  0  0  0  0  0  0  0
   20.0633  -12.1980  -18.8368 O   0  0  0  0  0  0  0  0  0  0  0  0
   19.9905   -9.9688  -18.4890 O   0  0  0  0  0  0  0  0  0  0  0  0
  2 12  2  0
  2  1  1  0
  3  2  1  0
  4  5  1  0
  4  3  2  0
  5 11  2  0
  6  7  1  0
  6  5  1  0
  7  8  1  6
  9  7  1  0
  9 20  1  0
 10  9  2  0
 11 12  1  0
 14 13  1  0
 15 14  2  0
 16 15  1  0
 17 23  1  0
 17 16  2  0
 18 17  1  0
 19 21  1  0
 19 20  1  0
 19 18  1  1
 21 22  2  0
 23 24  2  0
 24 14  1  0
 26 25  1  6
 26 28  1  0
 27 26  1  0
 27 21  1  0
 28 29  2  0
 28 30  1  0
M  END
$$$$
