YYA.pdb
     RDKit          3D

 30 31  0  0  1  0  0  0  0  0999 V2000
   16.8202  -21.1665  -16.3494 O   0  0  0  0  0  0  0  0  0  0  0  0
   18.1312  -20.8044  -16.0792 C   0  0  0  0  0  0  0  0  0  0  0  0
   18.3802  -19.7630  -15.2290 C   0  0  0  0  0  0  0  0  0  0  0  0
   19.6683  -19.3845  -14.9449 C   0  0  0  0  0  0  0  0  0  0  0  0
   20.7719  -20.0299  -15.4978 C   0  0  0  0  0  0  0  0  0  0  0  0
   22.1534  -19.6043  -15.1911 C   0  0  0  0  0  0  0  0  0  0  0  0
   22.9288  -20.5931  -14.3901 C   0  0  2  0  0  0  0  0  0  0  0  0
   22.1096  -21.2659  -13.3995 N   0  0  0  0  0  0  0  0  0  0  0  0
   24.1091  -20.0181  -13.7022 C   0  0  0  0  0  0  0  0  0  0  0  0
   23.9893  -19.7073  -12.4656 O   0  0  0  0  0  0  0  0  0  0  0  0
   20.4762  -21.0761  -16.3510 C   0  0  0  0  0  0  0  0  0  0  0  0
   19.1842  -21.4597  -16.6393 C   0  0  0  0  0  0  0  0  0  0  0  0
   25.0201  -19.7764   -7.9637 O   0  0  0  0  0  0  0  0  0  0  0  0
   25.3125  -20.2445   -9.2242 C   0  0  0  0  0  0  0  0  0  0  0  0
   26.1429  -19.5240  -10.0543 C   0  0  0  0  0  0  0  0  0  0  0  0
   26.4146  -20.0276  -11.3179 C   0  0  0  0  0  0  0  0  0  0  0  0
   25.8816  -21.2177  -11.7610 C   0  0  0  0  0  0  0  0  0  0  0  0
   26.2058  -21.6876  -13.0881 C   0  0  0  0  0  0  0  0  0  0  0  0
   26.4982  -20.6328  -14.1130 C   0  0  2  0  0  0  0  0  0  0  0  0
   25.3270  -19.8213  -14.3951 N   0  0  0  0  0  0  0  0  0  0  0  0
   27.0894  -21.1547  -15.3699 C   0  0  0  0  0  0  0  0  0  0  0  0
   27.9068  -22.1042  -15.2800 O   0  0  0  0  0  0  0  0  0  0  0  0
   25.0435  -21.9311  -10.9048 C   0  0  0  0  0  0  0  0  0  0  0  0
   24.7644  -21.4518   -9.6582 C   0  0  0  0  0  0  0  0  0  0  0  0
   26.4485  -22.3379  -18.2415 C   0  0  0  0  0  0  0  0  0  0  0  0
   27.3657  -21.1479  -17.8747 C   0  0  2  0  0  0  0  0  0  0  0  0
   26.7727  -20.6387  -16.6292 N   0  0  0  0  0  0  0  0  0  0  0  0
   27.1972  -20.1790  -18.9578 C   0  0  0  0  0  0  0  0  0  0  0  0
   26.5890  -19.0941  -18.7878 O   0  0  0  0  0  0  0  0  0  0  0  0
   27.7112  -20.4357  -20.2148 O   0  0  0  0  0  0  0  0  0  0  0  0
  2 12  2  0
  2  1  1  0
  3  2  1  0
  4  5  1  0
  4  3  2  0
  5 11  2  0
  6  7  1  0
  6  5  1  0
  7  8  1  1
  9  7  1  0
  9 20  1  0
 10  9  2  0
 11 12  1  0
 14 13  1  0
 15 14  2  0
 16 15  1  0
 17 23  1  0
 17 16  2  0
 18 17  1  0
 19 21  1  0
 19 20  1  0
 19 18  1  1
 21 22  2  0
 23 24  2  0
 24 14  1  0
 26 25  1  6
 26 28  1  0
 27 26  1  0
 27 21  1  0
 28 29  2  0
 28 30  1  0
M  END
$$$$
