YYA.pdb
     RDKit          3D

 30 31  0  0  1  0  0  0  0  0999 V2000
   26.6425  -17.1802  -15.5548 O   0  0  0  0  0  0  0  0  0  0  0  0
   26.1711  -15.8905  -15.7477 C   0  0  0  0  0  0  0  0  0  0  0  0
   27.0402  -14.8378  -15.6709 C   0  0  0  0  0  0  0  0  0  0  0  0
   26.5995  -13.5517  -15.8577 C   0  0  0  0  0  0  0  0  0  0  0  0
   25.2662  -13.2551  -16.1309 C   0  0  0  0  0  0  0  0  0  0  0  0
   24.8040  -11.8642  -16.3191 C   0  0  0  0  0  0  0  0  0  0  0  0
   24.0889  -11.6316  -17.6056 C   0  0  2  0  0  0  0  0  0  0  0  0
   24.9197  -11.9200  -18.7596 N   0  0  0  0  0  0  0  0  0  0  0  0
   23.5484  -10.2596  -17.7550 C   0  0  0  0  0  0  0  0  0  0  0  0
   24.2487   -9.4074  -18.4059 O   0  0  0  0  0  0  0  0  0  0  0  0
   24.4219  -14.3470  -16.1998 C   0  0  0  0  0  0  0  0  0  0  0  0
   24.8601  -15.6403  -16.0129 C   0  0  0  0  0  0  0  0  0  0  0  0
   17.8654   -3.7101  -18.8684 O   0  0  0  0  0  0  0  0  0  0  0  0
   18.4905   -4.9200  -18.6713 C   0  0  0  0  0  0  0  0  0  0  0  0
   19.4637   -5.3468  -19.5480 C   0  0  0  0  0  0  0  0  0  0  0  0
   20.0717   -6.5719  -19.3167 C   0  0  0  0  0  0  0  0  0  0  0  0
   19.7318   -7.3661  -18.2441 C   0  0  0  0  0  0  0  0  0  0  0  0
   20.4047   -8.6310  -18.0590 C   0  0  0  0  0  0  0  0  0  0  0  0
   21.7354   -8.5807  -17.3697 C   0  0  2  0  0  0  0  0  0  0  0  0
   22.2978   -9.9084  -17.1940 N   0  0  0  0  0  0  0  0  0  0  0  0
   21.7253   -7.8414  -16.0832 C   0  0  0  0  0  0  0  0  0  0  0  0
   21.3891   -8.4722  -15.0504 O   0  0  0  0  0  0  0  0  0  0  0  0
   18.7442   -6.9153  -17.3689 C   0  0  0  0  0  0  0  0  0  0  0  0
   18.1348   -5.7129  -17.5799 C   0  0  0  0  0  0  0  0  0  0  0  0
   22.4503   -4.3194  -15.1266 C   0  0  0  0  0  0  0  0  0  0  0  0
   22.0293   -5.7488  -14.7126 C   0  0  2  0  0  0  0  0  0  0  0  0
   22.0734   -6.4921  -15.9805 N   0  0  0  0  0  0  0  0  0  0  0  0
   20.6514   -5.6255  -14.2366 C   0  0  0  0  0  0  0  0  0  0  0  0
   19.6701   -5.7398  -15.0111 O   0  0  0  0  0  0  0  0  0  0  0  0
   20.3897   -5.3775  -12.9025 O   0  0  0  0  0  0  0  0  0  0  0  0
  2 12  2  0
  2  1  1  0
  3  2  1  0
  4  5  1  0
  4  3  2  0
  5 11  2  0
  6  7  1  0
  6  5  1  0
  7  8  1  6
  9  7  1  0
  9 20  1  0
 10  9  2  0
 11 12  1  0
 14 13  1  0
 15 14  2  0
 16 15  1  0
 17 23  1  0
 17 16  2  0
 18 17  1  0
 19 21  1  0
 19 20  1  0
 19 18  1  1
 21 22  2  0
 23 24  2  0
 24 14  1  0
 26 25  1  6
 26 28  1  0
 27 26  1  0
 27 21  1  0
 28 29  2  0
 28 30  1  0
M  END
$$$$
