YYA.pdb
     RDKit          3D

 30 31  0  0  1  0  0  0  0  0999 V2000
   28.4505  -13.7947  -22.0867 O   0  0  0  0  0  0  0  0  0  0  0  0
   27.1696  -14.2566  -21.8249 C   0  0  0  0  0  0  0  0  0  0  0  0
   26.5445  -13.8869  -20.6665 C   0  0  0  0  0  0  0  0  0  0  0  0
   25.2769  -14.3300  -20.3833 C   0  0  0  0  0  0  0  0  0  0  0  0
   24.5716  -15.1657  -21.2460 C   0  0  0  0  0  0  0  0  0  0  0  0
   23.2111  -15.6437  -20.9228 C   0  0  0  0  0  0  0  0  0  0  0  0
   23.1836  -16.8349  -20.0278 C   0  0  2  0  0  0  0  0  0  0  0  0
   23.8757  -17.9735  -20.6019 N   0  0  0  0  0  0  0  0  0  0  0  0
   21.8194  -17.2677  -19.6428 C   0  0  0  0  0  0  0  0  0  0  0  0
   21.2902  -18.2333  -20.2969 O   0  0  0  0  0  0  0  0  0  0  0  0
   25.2391  -15.5152  -22.4045 C   0  0  0  0  0  0  0  0  0  0  0  0
   26.5120  -15.0726  -22.6931 C   0  0  0  0  0  0  0  0  0  0  0  0
   20.6453  -22.9848  -16.0619 O   0  0  0  0  0  0  0  0  0  0  0  0
   20.4155  -21.6405  -16.2454 C   0  0  0  0  0  0  0  0  0  0  0  0
   21.4177  -20.7276  -16.0002 C   0  0  0  0  0  0  0  0  0  0  0  0
   21.1488  -19.3810  -16.1963 C   0  0  0  0  0  0  0  0  0  0  0  0
   19.9182  -18.9360  -16.6258 C   0  0  0  0  0  0  0  0  0  0  0  0
   19.7036  -17.5195  -16.8121 C   0  0  0  0  0  0  0  0  0  0  0  0
   19.7759  -17.0169  -18.2230 C   0  0  2  0  0  0  0  0  0  0  0  0
   21.1285  -16.6305  -18.5850 N   0  0  0  0  0  0  0  0  0  0  0  0
   18.8193  -15.9245  -18.5283 C   0  0  0  0  0  0  0  0  0  0  0  0
   19.1110  -14.7672  -18.1367 O   0  0  0  0  0  0  0  0  0  0  0  0
   18.9179  -19.8768  -16.8680 C   0  0  0  0  0  0  0  0  0  0  0  0
   19.1634  -21.2058  -16.6808 C   0  0  0  0  0  0  0  0  0  0  0  0
   15.5688  -15.7629  -20.3305 C   0  0  0  0  0  0  0  0  0  0  0  0
   16.6330  -15.0717  -19.4465 C   0  0  2  0  0  0  0  0  0  0  0  0
   17.6270  -16.1327  -19.2264 N   0  0  0  0  0  0  0  0  0  0  0  0
   15.9466  -14.7433  -18.1969 C   0  0  0  0  0  0  0  0  0  0  0  0
   15.8971  -15.5500  -17.2363 O   0  0  0  0  0  0  0  0  0  0  0  0
   15.3264  -13.5185  -18.0383 O   0  0  0  0  0  0  0  0  0  0  0  0
  2 12  2  0
  2  1  1  0
  3  2  1  0
  4  5  1  0
  4  3  2  0
  5 11  2  0
  6  7  1  0
  6  5  1  0
  7  8  1  6
  9  7  1  0
  9 20  1  0
 10  9  2  0
 11 12  1  0
 14 13  1  0
 15 14  2  0
 16 15  1  0
 17 23  1  0
 17 16  2  0
 18 17  1  0
 19 21  1  0
 19 20  1  0
 19 18  1  1
 21 22  2  0
 23 24  2  0
 24 14  1  0
 26 25  1  6
 26 28  1  0
 27 26  1  0
 27 21  1  0
 28 29  2  0
 28 30  1  0
M  END
$$$$
