YYA.pdb
     RDKit          3D

 30 31  0  0  1  0  0  0  0  0999 V2000
   26.9686  -17.1187  -21.5970 O   0  0  0  0  0  0  0  0  0  0  0  0
   26.6614  -15.9726  -20.8795 C   0  0  0  0  0  0  0  0  0  0  0  0
   25.3891  -15.7916  -20.4126 C   0  0  0  0  0  0  0  0  0  0  0  0
   25.0588  -14.6663  -19.6999 C   0  0  0  0  0  0  0  0  0  0  0  0
   25.9861  -13.6657  -19.4188 C   0  0  0  0  0  0  0  0  0  0  0  0
   25.6134  -12.4541  -18.6593 C   0  0  0  0  0  0  0  0  0  0  0  0
   25.2603  -11.2865  -19.5152 C   0  0  2  0  0  0  0  0  0  0  0  0
   26.4061  -10.7619  -20.2344 N   0  0  0  0  0  0  0  0  0  0  0  0
   24.6249  -10.1690  -18.7775 C   0  0  0  0  0  0  0  0  0  0  0  0
   25.3878   -9.3606  -18.1413 O   0  0  0  0  0  0  0  0  0  0  0  0
   27.2592  -13.8877  -19.9085 C   0  0  0  0  0  0  0  0  0  0  0  0
   27.5954  -15.0162  -20.6247 C   0  0  0  0  0  0  0  0  0  0  0  0
   18.4280   -4.3456  -16.3688 O   0  0  0  0  0  0  0  0  0  0  0  0
   19.2254   -5.2746  -16.9969 C   0  0  0  0  0  0  0  0  0  0  0  0
   18.7203   -6.5153  -17.3186 C   0  0  0  0  0  0  0  0  0  0  0  0
   19.5541   -7.4256  -17.9513 C   0  0  0  0  0  0  0  0  0  0  0  0
   20.8614   -7.1253  -18.2638 C   0  0  0  0  0  0  0  0  0  0  0  0
   21.6768   -8.1180  -18.9248 C   0  0  0  0  0  0  0  0  0  0  0  0
   22.5814   -8.9275  -18.0446 C   0  0  2  0  0  0  0  0  0  0  0  0
   23.2194  -10.0056  -18.7798 N   0  0  0  0  0  0  0  0  0  0  0  0
   21.9297   -9.4447  -16.8160 C   0  0  0  0  0  0  0  0  0  0  0  0
   21.0810  -10.3614  -16.9475 O   0  0  0  0  0  0  0  0  0  0  0  0
   21.3526   -5.8639  -17.9293 C   0  0  0  0  0  0  0  0  0  0  0  0
   20.5476   -4.9550  -17.3067 C   0  0  0  0  0  0  0  0  0  0  0  0
   22.7314   -9.5641  -13.3103 C   0  0  0  0  0  0  0  0  0  0  0  0
   21.5667   -9.4597  -14.3224 C   0  0  2  0  0  0  0  0  0  0  0  0
   22.2232   -8.9591  -15.5392 N   0  0  0  0  0  0  0  0  0  0  0  0
   20.6635   -8.4486  -13.7726 C   0  0  0  0  0  0  0  0  0  0  0  0
   20.7174   -7.2468  -14.1312 O   0  0  0  0  0  0  0  0  0  0  0  0
   19.7130   -8.7947  -12.8310 O   0  0  0  0  0  0  0  0  0  0  0  0
  2 12  2  0
  2  1  1  0
  3  2  1  0
  4  5  1  0
  4  3  2  0
  5 11  2  0
  6  7  1  0
  6  5  1  0
  7  8  1  1
  9  7  1  0
  9 20  1  0
 10  9  2  0
 11 12  1  0
 14 13  1  0
 15 14  2  0
 16 15  1  0
 17 23  1  0
 17 16  2  0
 18 17  1  0
 19 21  1  0
 19 20  1  0
 19 18  1  6
 21 22  2  0
 23 24  2  0
 24 14  1  0
 26 25  1  1
 26 28  1  0
 27 26  1  0
 27 21  1  0
 28 29  2  0
 28 30  1  0
M  END
$$$$
