YYA.pdb
     RDKit          3D

 30 31  0  0  1  0  0  0  0  0999 V2000
   30.9729  -17.9775  -20.9238 O   0  0  0  0  0  0  0  0  0  0  0  0
   30.0143  -17.8308  -19.9329 C   0  0  0  0  0  0  0  0  0  0  0  0
   29.7964  -18.8524  -19.0506 C   0  0  0  0  0  0  0  0  0  0  0  0
   28.8536  -18.7328  -18.0606 C   0  0  0  0  0  0  0  0  0  0  0  0
   28.0815  -17.5840  -17.9043 C   0  0  0  0  0  0  0  0  0  0  0  0
   27.0621  -17.4736  -16.8401 C   0  0  0  0  0  0  0  0  0  0  0  0
   25.7706  -18.1417  -17.1658 C   0  0  2  0  0  0  0  0  0  0  0  0
   25.0306  -17.4406  -18.1983 N   0  0  0  0  0  0  0  0  0  0  0  0
   24.8762  -18.3254  -15.9983 C   0  0  0  0  0  0  0  0  0  0  0  0
   24.2508  -17.2992  -15.5554 O   0  0  0  0  0  0  0  0  0  0  0  0
   28.3331  -16.5765  -18.8162 C   0  0  0  0  0  0  0  0  0  0  0  0
   29.2789  -16.6922  -19.8119 C   0  0  0  0  0  0  0  0  0  0  0  0
   19.0157  -20.8538  -10.2338 O   0  0  0  0  0  0  0  0  0  0  0  0
   19.9070  -20.7640  -11.2783 C   0  0  0  0  0  0  0  0  0  0  0  0
   19.8888  -19.6665  -12.1109 C   0  0  0  0  0  0  0  0  0  0  0  0
   20.8024  -19.6112  -13.1531 C   0  0  0  0  0  0  0  0  0  0  0  0
   21.7191  -20.6146  -13.3761 C   0  0  0  0  0  0  0  0  0  0  0  0
   22.6449  -20.4949  -14.4786 C   0  0  0  0  0  0  0  0  0  0  0  0
   23.9279  -19.7733  -14.1930 C   0  0  2  0  0  0  0  0  0  0  0  0
   24.7221  -19.5967  -15.3964 N   0  0  0  0  0  0  0  0  0  0  0  0
   24.7413  -20.3850  -13.1133 C   0  0  0  0  0  0  0  0  0  0  0  0
   25.3421  -21.4574  -13.3717 O   0  0  0  0  0  0  0  0  0  0  0  0
   21.7204  -21.7165  -12.5216 C   0  0  0  0  0  0  0  0  0  0  0  0
   20.8293  -21.7889  -11.4909 C   0  0  0  0  0  0  0  0  0  0  0  0
   25.3461  -19.5157   -9.5466 C   0  0  0  0  0  0  0  0  0  0  0  0
   25.5437  -20.4952  -10.7270 C   0  0  2  0  0  0  0  0  0  0  0  0
   24.8635  -19.8191  -11.8416 N   0  0  0  0  0  0  0  0  0  0  0  0
   24.8242  -21.7113  -10.3476 C   0  0  0  0  0  0  0  0  0  0  0  0
   23.6529  -21.9374  -10.7384 O   0  0  0  0  0  0  0  0  0  0  0  0
   25.4238  -22.6573   -9.5380 O   0  0  0  0  0  0  0  0  0  0  0  0
  2 12  2  0
  2  1  1  0
  3  2  1  0
  4  5  1  0
  4  3  2  0
  5 11  2  0
  6  7  1  0
  6  5  1  0
  7  8  1  6
  9  7  1  0
  9 20  1  0
 10  9  2  0
 11 12  1  0
 14 13  1  0
 15 14  2  0
 16 15  1  0
 17 23  1  0
 17 16  2  0
 18 17  1  0
 19 21  1  0
 19 20  1  0
 19 18  1  6
 21 22  2  0
 23 24  2  0
 24 14  1  0
 26 25  1  1
 26 28  1  0
 27 26  1  0
 27 21  1  0
 28 29  2  0
 28 30  1  0
M  END
$$$$
