YYA.pdb
     RDKit          3D

 30 31  0  0  1  0  0  0  0  0999 V2000
   20.6887  -12.9759  -23.8483 O   0  0  0  0  0  0  0  0  0  0  0  0
   21.4115  -12.3832  -22.8242 C   0  0  0  0  0  0  0  0  0  0  0  0
   20.7916  -12.1012  -21.6386 C   0  0  0  0  0  0  0  0  0  0  0  0
   21.4841  -11.5150  -20.6091 C   0  0  0  0  0  0  0  0  0  0  0  0
   22.8324  -11.1815  -20.7150 C   0  0  0  0  0  0  0  0  0  0  0  0
   23.5626  -10.5406  -19.6016 C   0  0  0  0  0  0  0  0  0  0  0  0
   23.6520   -9.0570  -19.7095 C   0  0  2  0  0  0  0  0  0  0  0  0
   24.9356   -8.6166  -20.2229 N   0  0  0  0  0  0  0  0  0  0  0  0
   23.3927   -8.3437  -18.4363 C   0  0  0  0  0  0  0  0  0  0  0  0
   24.3971   -8.0556  -17.6957 O   0  0  0  0  0  0  0  0  0  0  0  0
   23.4202  -11.4831  -21.9289 C   0  0  0  0  0  0  0  0  0  0  0  0
   22.7287  -12.0719  -22.9655 C   0  0  0  0  0  0  0  0  0  0  0  0
   23.4836   -1.9999  -20.1728 O   0  0  0  0  0  0  0  0  0  0  0  0
   22.8694   -2.9841  -19.4328 C   0  0  0  0  0  0  0  0  0  0  0  0
   22.1192   -3.9547  -20.0599 C   0  0  0  0  0  0  0  0  0  0  0  0
   21.5151   -4.9305  -19.2809 C   0  0  0  0  0  0  0  0  0  0  0  0
   21.6439   -4.9552  -17.9099 C   0  0  0  0  0  0  0  0  0  0  0  0
   20.9903   -6.0005  -17.1566 C   0  0  0  0  0  0  0  0  0  0  0  0
   21.8135   -7.2176  -16.8576 C   0  0  2  0  0  0  0  0  0  0  0  0
   22.0751   -7.9948  -18.0566 N   0  0  0  0  0  0  0  0  0  0  0  0
   21.2565   -8.0792  -15.7857 C   0  0  0  0  0  0  0  0  0  0  0  0
   20.1368   -8.6113  -15.9876 O   0  0  0  0  0  0  0  0  0  0  0  0
   22.4076   -3.9636  -17.2953 C   0  0  0  0  0  0  0  0  0  0  0  0
   23.0095   -2.9953  -18.0448 C   0  0  0  0  0  0  0  0  0  0  0  0
   22.5391   -9.2575  -12.5001 C   0  0  0  0  0  0  0  0  0  0  0  0
   21.3906   -9.2036  -13.5345 C   0  0  2  0  0  0  0  0  0  0  0  0
   21.9229   -8.3184  -14.5811 N   0  0  0  0  0  0  0  0  0  0  0  0
   20.2724   -8.5646  -12.8405 C   0  0  0  0  0  0  0  0  0  0  0  0
   20.0402   -7.3357  -12.9494 O   0  0  0  0  0  0  0  0  0  0  0  0
   19.4295   -9.3076  -12.0359 O   0  0  0  0  0  0  0  0  0  0  0  0
  2 12  2  0
  2  1  1  0
  3  2  1  0
  4  5  1  0
  4  3  2  0
  5 11  2  0
  6  7  1  0
  6  5  1  0
  7  8  1  1
  9  7  1  0
  9 20  1  0
 10  9  2  0
 11 12  1  0
 14 13  1  0
 15 14  2  0
 16 15  1  0
 17 23  1  0
 17 16  2  0
 18 17  1  0
 19 21  1  0
 19 20  1  0
 19 18  1  6
 21 22  2  0
 23 24  2  0
 24 14  1  0
 26 25  1  1
 26 28  1  0
 27 26  1  0
 27 21  1  0
 28 29  2  0
 28 30  1  0
M  END
$$$$
