YYA.pdb
     RDKit          3D

 30 31  0  0  1  0  0  0  0  0999 V2000
   26.9989   -9.4268  -23.6632 O   0  0  0  0  0  0  0  0  0  0  0  0
   26.2487   -8.6763  -22.7707 C   0  0  0  0  0  0  0  0  0  0  0  0
   24.8927   -8.6000  -22.9291 C   0  0  0  0  0  0  0  0  0  0  0  0
   24.1272   -7.8641  -22.0597 C   0  0  0  0  0  0  0  0  0  0  0  0
   24.6810   -7.1676  -20.9881 C   0  0  0  0  0  0  0  0  0  0  0  0
   23.8453   -6.3704  -20.0663 C   0  0  0  0  0  0  0  0  0  0  0  0
   23.6217   -7.0134  -18.7408 C   0  0  2  0  0  0  0  0  0  0  0  0
   22.9686   -8.3039  -18.8557 N   0  0  0  0  0  0  0  0  0  0  0  0
   22.8428   -6.1828  -17.7920 C   0  0  0  0  0  0  0  0  0  0  0  0
   21.5676   -6.3023  -17.7982 O   0  0  0  0  0  0  0  0  0  0  0  0
   26.0535   -7.2711  -20.8643 C   0  0  0  0  0  0  0  0  0  0  0  0
   26.8263   -8.0090  -21.7349 C   0  0  0  0  0  0  0  0  0  0  0  0
   20.0197   -9.1945  -12.5828 O   0  0  0  0  0  0  0  0  0  0  0  0
   20.7575   -8.1378  -13.0650 C   0  0  0  0  0  0  0  0  0  0  0  0
   20.2257   -6.8670  -13.0682 C   0  0  0  0  0  0  0  0  0  0  0  0
   20.9993   -5.8270  -13.5620 C   0  0  0  0  0  0  0  0  0  0  0  0
   22.2733   -6.0286  -14.0448 C   0  0  0  0  0  0  0  0  0  0  0  0
   23.0274   -4.9018  -14.5437 C   0  0  0  0  0  0  0  0  0  0  0  0
   22.7447   -4.4869  -15.9566 C   0  0  2  0  0  0  0  0  0  0  0  0
   23.4930   -5.2878  -16.9097 N   0  0  0  0  0  0  0  0  0  0  0  0
   22.9456   -3.0398  -16.2163 C   0  0  0  0  0  0  0  0  0  0  0  0
   24.1223   -2.6009  -16.1942 O   0  0  0  0  0  0  0  0  0  0  0  0
   22.7925   -7.3227  -14.0325 C   0  0  0  0  0  0  0  0  0  0  0  0
   22.0466   -8.3586  -13.5507 C   0  0  0  0  0  0  0  0  0  0  0  0
   20.6835   -0.2402  -17.1443 C   0  0  0  0  0  0  0  0  0  0  0  0
   22.0840   -0.7213  -16.6982 C   0  0  2  0  0  0  0  0  0  0  0  0
   21.8909   -2.1630  -16.4829 N   0  0  0  0  0  0  0  0  0  0  0  0
   22.3420   -0.0419  -15.4284 C   0  0  0  0  0  0  0  0  0  0  0  0
   22.1309   -0.5996  -14.3238 O   0  0  0  0  0  0  0  0  0  0  0  0
   22.8328    1.2499  -15.4111 O   0  0  0  0  0  0  0  0  0  0  0  0
  2 12  2  0
  2  1  1  0
  3  2  1  0
  4  5  1  0
  4  3  2  0
  5 11  2  0
  6  7  1  0
  6  5  1  0
  7  8  1  6
  9  7  1  0
  9 20  1  0
 10  9  2  0
 11 12  1  0
 14 13  1  0
 15 14  2  0
 16 15  1  0
 17 23  1  0
 17 16  2  0
 18 17  1  0
 19 21  1  0
 19 20  1  0
 19 18  1  1
 21 22  2  0
 23 24  2  0
 24 14  1  0
 26 25  1  1
 26 28  1  0
 27 26  1  0
 27 21  1  0
 28 29  2  0
 28 30  1  0
M  END
$$$$
