CTY.pdb
     RDKit          3D

 26 26  0  0  1  0  0  0  0  0999 V2000
   13.1605  -10.0987   -9.4195 N   0  0  0  0  0  0  0  0  0  0  0  0
   14.5739  -10.0196   -9.6104 C   0  0  1  0  0  0  0  0  0  0  0  0
   15.0357  -11.0965  -10.6021 C   0  0  0  0  0  0  0  0  0  0  0  0
   14.9961  -12.7334   -9.8051 S   0  0  0  0  0  0  0  0  0  0  0  0
   15.0266   -8.7227  -10.1445 C   0  0  0  0  0  0  0  0  0  0  0  0
   14.2917   -8.1417  -10.9842 O   0  0  0  0  0  0  0  0  0  0  0  0
   17.5174   -4.6149   -9.5647 C   0  0  0  0  0  0  0  0  0  0  0  0
   16.9624   -5.9252   -9.0550 C   0  0  1  0  0  0  0  0  0  0  0  0
   15.8477   -5.7668   -8.2661 O   0  0  0  0  0  0  0  0  0  0  0  0
   16.6631   -6.8105  -10.2719 C   0  0  2  0  0  0  0  0  0  0  0  0
   16.2361   -8.0803   -9.7782 N   0  0  0  0  0  0  0  0  0  0  0  0
   17.9034   -6.8685  -11.0730 C   0  0  0  0  0  0  0  0  0  0  0  0
   18.8606   -7.5281  -10.5758 O   0  0  0  0  0  0  0  0  0  0  0  0
   24.2321   -7.0318  -17.0553 O   0  0  0  0  0  0  0  0  0  0  0  0
   22.9869   -6.9862  -16.3998 C   0  0  0  0  0  0  0  0  0  0  0  0
   22.4552   -8.1133  -15.8042 C   0  0  0  0  0  0  0  0  0  0  0  0
   21.2293   -8.0618  -15.1606 C   0  0  0  0  0  0  0  0  0  0  0  0
   20.5316   -6.8736  -15.1133 C   0  0  0  0  0  0  0  0  0  0  0  0
   19.2204   -6.8434  -14.4177 C   0  0  0  0  0  0  0  0  0  0  0  0
   19.3704   -6.3351  -12.9992 C   0  0  2  0  0  0  0  0  0  0  0  0
   18.0959   -6.2595  -12.3186 N   0  0  0  0  0  0  0  0  0  0  0  0
   20.1111   -5.0598  -12.9419 C   0  0  0  0  0  0  0  0  0  0  0  0
   21.4917   -5.0617  -12.8659 O   0  0  0  0  0  0  0  0  0  0  0  0
   21.0295   -5.7287  -15.6955 C   0  0  0  0  0  0  0  0  0  0  0  0
   22.2593   -5.8180  -16.3308 C   0  0  0  0  0  0  0  0  0  0  0  0
   19.5199   -3.9548  -12.9602 O   0  0  0  0  0  0  0  0  0  0  0  0
  2  5  1  0
  2  1  1  6
  3  2  1  0
  4  3  1  0
  5  6  2  0
  8  9  1  0
  8 10  1  0
  8  7  1  6
 11  5  1  0
 10 11  1  1
 12 10  1  0
 12 21  1  0
 13 12  2  0
 15 14  1  0
 16 15  2  0
 17 16  1  0
 18 24  1  0
 18 17  2  0
 19 18  1  0
 20 21  1  0
 20 19  1  6
 22 20  1  0
 23 22  1  0
 24 25  2  0
 25 15  1  0
 26 22  2  0
M  END
$$$$
