CTY.pdb
     RDKit          3D

 26 26  0  0  1  0  0  0  0  0999 V2000
   28.0496  -21.7272  -10.0987 N   0  0  0  0  0  0  0  0  0  0  0  0
   26.6550  -21.4266  -10.1709 C   0  0  1  0  0  0  0  0  0  0  0  0
   26.2783  -20.3982   -9.0954 C   0  0  0  0  0  0  0  0  0  0  0  0
   25.7653  -21.2524   -7.5712 S   0  0  0  0  0  0  0  0  0  0  0  0
   26.2383  -20.8630  -11.4674 C   0  0  0  0  0  0  0  0  0  0  0  0
   26.8560  -19.8554  -11.8985 O   0  0  0  0  0  0  0  0  0  0  0  0
   26.2353  -22.3767  -14.7108 C   0  0  0  0  0  0  0  0  0  0  0  0
   24.7968  -21.9402  -14.5530 C   0  0  1  0  0  0  0  0  0  0  0  0
   23.9567  -22.9714  -14.2055 O   0  0  0  0  0  0  0  0  0  0  0  0
   24.7617  -20.8163  -13.5091 C   0  0  2  0  0  0  0  0  0  0  0  0
   25.1866  -21.3774  -12.2669 N   0  0  0  0  0  0  0  0  0  0  0  0
   23.3785  -20.2972  -13.4870 C   0  0  0  0  0  0  0  0  0  0  0  0
   22.6420  -20.7064  -12.5443 O   0  0  0  0  0  0  0  0  0  0  0  0
   16.0379  -15.6300  -13.8969 O   0  0  0  0  0  0  0  0  0  0  0  0
   17.3696  -16.0734  -14.0066 C   0  0  0  0  0  0  0  0  0  0  0  0
   18.1304  -16.3242  -12.8814 C   0  0  0  0  0  0  0  0  0  0  0  0
   19.4405  -16.7604  -12.9961 C   0  0  0  0  0  0  0  0  0  0  0  0
   19.9919  -16.9464  -14.2459 C   0  0  0  0  0  0  0  0  0  0  0  0
   21.3975  -17.4146  -14.3431 C   0  0  0  0  0  0  0  0  0  0  0  0
   21.4715  -18.9257  -14.2803 C   0  0  2  0  0  0  0  0  0  0  0  0
   22.8309  -19.4025  -14.4139 N   0  0  0  0  0  0  0  0  0  0  0  0
   20.5570  -19.5668  -15.2452 C   0  0  0  0  0  0  0  0  0  0  0  0
   19.2633  -19.8812  -14.8720 O   0  0  0  0  0  0  0  0  0  0  0  0
   19.2646  -16.7068  -15.3909 C   0  0  0  0  0  0  0  0  0  0  0  0
   17.9566  -16.2712  -15.2374 C   0  0  0  0  0  0  0  0  0  0  0  0
   20.9203  -19.8409  -16.4130 O   0  0  0  0  0  0  0  0  0  0  0  0
  2  5  1  0
  2  1  1  6
  3  2  1  0
  4  3  1  0
  5  6  2  0
  8  9  1  0
  8 10  1  0
  8  7  1  1
 11  5  1  0
 10 11  1  1
 12 10  1  0
 12 21  1  0
 13 12  2  0
 15 14  1  0
 16 15  2  0
 17 16  1  0
 18 24  1  0
 18 17  2  0
 19 18  1  0
 20 21  1  0
 20 19  1  6
 22 20  1  0
 23 22  1  0
 24 25  2  0
 25 15  1  0
 26 22  2  0
M  END
$$$$
