CTY.pdb
     RDKit          3D

 26 26  0  0  1  0  0  0  0  0999 V2000
   28.1421  -24.7046  -20.2841 N   0  0  0  0  0  0  0  0  0  0  0  0
   27.5892  -24.7134  -18.9670 C   0  0  1  0  0  0  0  0  0  0  0  0
   28.0185  -25.9843  -18.2207 C   0  0  0  0  0  0  0  0  0  0  0  0
   27.3384  -25.9726  -16.5314 S   0  0  0  0  0  0  0  0  0  0  0  0
   28.0113  -23.5682  -18.1411 C   0  0  0  0  0  0  0  0  0  0  0  0
   29.2429  -23.3280  -18.0511 O   0  0  0  0  0  0  0  0  0  0  0  0
   27.8355  -20.1235  -18.5391 C   0  0  0  0  0  0  0  0  0  0  0  0
   27.0294  -20.3349  -17.2780 C   0  0  1  0  0  0  0  0  0  0  0  0
   25.6750  -20.3874  -17.5077 O   0  0  0  0  0  0  0  0  0  0  0  0
   27.5325  -21.6226  -16.6125 C   0  0  2  0  0  0  0  0  0  0  0  0
   27.1250  -22.7140  -17.4377 N   0  0  0  0  0  0  0  0  0  0  0  0
   26.9545  -21.6545  -15.2530 C   0  0  0  0  0  0  0  0  0  0  0  0
   25.8842  -22.3132  -15.1151 O   0  0  0  0  0  0  0  0  0  0  0  0
   24.6438  -20.1686   -6.9316 O   0  0  0  0  0  0  0  0  0  0  0  0
   25.3693  -20.2000   -8.1378 C   0  0  0  0  0  0  0  0  0  0  0  0
   25.9250  -21.3759   -8.6028 C   0  0  0  0  0  0  0  0  0  0  0  0
   26.6380  -21.4002   -9.7906 C   0  0  0  0  0  0  0  0  0  0  0  0
   26.7952  -20.2391  -10.5172 C   0  0  0  0  0  0  0  0  0  0  0  0
   27.5630  -20.2904  -11.7868 C   0  0  0  0  0  0  0  0  0  0  0  0
   26.7639  -20.9735  -12.8767 C   0  0  2  0  0  0  0  0  0  0  0  0
   27.4923  -21.0221  -14.1259 N   0  0  0  0  0  0  0  0  0  0  0  0
   25.4216  -20.3808  -13.0352 C   0  0  0  0  0  0  0  0  0  0  0  0
   24.3190  -20.9996  -12.4756 O   0  0  0  0  0  0  0  0  0  0  0  0
   26.2557  -19.0473  -10.0857 C   0  0  0  0  0  0  0  0  0  0  0  0
   25.5485  -19.0611   -8.8924 C   0  0  0  0  0  0  0  0  0  0  0  0
   25.2441  -19.3158  -13.6718 O   0  0  0  0  0  0  0  0  0  0  0  0
  2  5  1  0
  2  1  1  6
  3  2  1  0
  4  3  1  0
  5  6  2  0
  8  9  1  0
  8 10  1  0
  8  7  1  6
 11  5  1  0
 10 11  1  6
 12 10  1  0
 12 21  1  0
 13 12  2  0
 15 14  1  0
 16 15  2  0
 17 16  1  0
 18 24  1  0
 18 17  2  0
 19 18  1  0
 20 21  1  0
 20 19  1  1
 22 20  1  0
 23 22  1  0
 24 25  2  0
 25 15  1  0
 26 22  2  0
M  END
$$$$
