CTY.pdb
     RDKit          3D

 26 26  0  0  1  0  0  0  0  0999 V2000
   25.6055  -15.0293  -16.7729 N   0  0  0  0  0  0  0  0  0  0  0  0
   24.6635  -14.0410  -17.1927 C   0  0  1  0  0  0  0  0  0  0  0  0
   23.2314  -14.5627  -17.0102 C   0  0  0  0  0  0  0  0  0  0  0  0
   22.9655  -16.0281  -18.0582 S   0  0  0  0  0  0  0  0  0  0  0  0
   24.7582  -12.7771  -16.4407 C   0  0  0  0  0  0  0  0  0  0  0  0
   24.9345  -12.8426  -15.1968 O   0  0  0  0  0  0  0  0  0  0  0  0
   27.1549  -10.5769  -15.8822 C   0  0  0  0  0  0  0  0  0  0  0  0
   26.1446   -9.6748  -16.5532 C   0  0  1  0  0  0  0  0  0  0  0  0
   26.3772   -9.5135  -17.8985 O   0  0  0  0  0  0  0  0  0  0  0  0
   24.7506  -10.2612  -16.2945 C   0  0  2  0  0  0  0  0  0  0  0  0
   24.6643  -11.4871  -17.0212 N   0  0  0  0  0  0  0  0  0  0  0  0
   23.7718   -9.2419  -16.7263 C   0  0  0  0  0  0  0  0  0  0  0  0
   23.4066   -9.2933  -17.9356 O   0  0  0  0  0  0  0  0  0  0  0  0
   17.8644  -11.5985  -14.9189 O   0  0  0  0  0  0  0  0  0  0  0  0
   18.6810  -10.4600  -15.0569 C   0  0  0  0  0  0  0  0  0  0  0  0
   19.6615  -10.1715  -14.1279 C   0  0  0  0  0  0  0  0  0  0  0  0
   20.4620   -9.0494  -14.2694 C   0  0  0  0  0  0  0  0  0  0  0  0
   20.2790   -8.2111  -15.3485 C   0  0  0  0  0  0  0  0  0  0  0  0
   21.1492   -7.0152  -15.4786 C   0  0  0  0  0  0  0  0  0  0  0  0
   22.2887   -7.2757  -16.4411 C   0  0  2  0  0  0  0  0  0  0  0  0
   23.2277   -8.2412  -15.9126 N   0  0  0  0  0  0  0  0  0  0  0  0
   22.9511   -6.0276  -16.8678 C   0  0  0  0  0  0  0  0  0  0  0  0
   24.2856   -5.8148  -16.5749 O   0  0  0  0  0  0  0  0  0  0  0  0
   19.3117   -8.4658  -16.2956 C   0  0  0  0  0  0  0  0  0  0  0  0
   18.5294   -9.5979  -16.1211 C   0  0  0  0  0  0  0  0  0  0  0  0
   22.3334   -5.1378  -17.4982 O   0  0  0  0  0  0  0  0  0  0  0  0
  2  5  1  0
  2  1  1  1
  3  2  1  0
  4  3  1  0
  5  6  2  0
  8  9  1  0
  8 10  1  0
  8  7  1  6
 11  5  1  0
 10 11  1  6
 12 10  1  0
 12 21  1  0
 13 12  2  0
 15 14  1  0
 16 15  2  0
 17 16  1  0
 18 24  1  0
 18 17  2  0
 19 18  1  0
 20 21  1  0
 20 19  1  1
 22 20  1  0
 23 22  1  0
 24 25  2  0
 25 15  1  0
 26 22  2  0
M  END
$$$$
