CTY.pdb
     RDKit          3D

 26 26  0  0  1  0  0  0  0  0999 V2000
   28.2263  -20.0282  -18.2608 N   0  0  0  0  0  0  0  0  0  0  0  0
   27.2889  -20.8008  -17.5093 C   0  0  1  0  0  0  0  0  0  0  0  0
   28.0273  -21.7245  -16.5306 C   0  0  0  0  0  0  0  0  0  0  0  0
   28.3900  -23.3183  -17.3336 S   0  0  0  0  0  0  0  0  0  0  0  0
   26.3576  -19.9855  -16.7093 C   0  0  0  0  0  0  0  0  0  0  0  0
   26.6703  -18.7891  -16.4780 O   0  0  0  0  0  0  0  0  0  0  0  0
   24.1129  -17.9169  -17.2059 C   0  0  0  0  0  0  0  0  0  0  0  0
   23.2898  -18.9687  -16.4981 C   0  0  1  0  0  0  0  0  0  0  0  0
   22.7353  -19.8868  -17.3582 O   0  0  0  0  0  0  0  0  0  0  0  0
   24.1936  -19.6499  -15.4622 C   0  0  2  0  0  0  0  0  0  0  0  0
   25.1294  -20.4551  -16.1794 N   0  0  0  0  0  0  0  0  0  0  0  0
   23.3084  -20.4208  -14.5646 C   0  0  0  0  0  0  0  0  0  0  0  0
   22.9736  -21.5730  -14.9628 O   0  0  0  0  0  0  0  0  0  0  0  0
   27.8546  -21.2724   -9.8641 O   0  0  0  0  0  0  0  0  0  0  0  0
   26.4860  -21.1020  -10.1472 C   0  0  0  0  0  0  0  0  0  0  0  0
   25.8610  -21.8601  -11.1179 C   0  0  0  0  0  0  0  0  0  0  0  0
   24.5137  -21.6875  -11.3917 C   0  0  0  0  0  0  0  0  0  0  0  0
   23.7881  -20.7495  -10.6887 C   0  0  0  0  0  0  0  0  0  0  0  0
   22.3461  -20.5831  -10.9999 C   0  0  0  0  0  0  0  0  0  0  0  0
   22.0709  -20.8635  -12.4623 C   0  0  2  0  0  0  0  0  0  0  0  0
   22.8209  -19.9801  -13.3286 N   0  0  0  0  0  0  0  0  0  0  0  0
   20.6269  -20.8521  -12.7675 C   0  0  0  0  0  0  0  0  0  0  0  0
   20.0769  -19.8045  -13.4830 O   0  0  0  0  0  0  0  0  0  0  0  0
   24.3765  -19.9748   -9.7135 C   0  0  0  0  0  0  0  0  0  0  0  0
   25.7267  -20.1752   -9.4666 C   0  0  0  0  0  0  0  0  0  0  0  0
   19.8684  -21.7770  -12.3931 O   0  0  0  0  0  0  0  0  0  0  0  0
  2  5  1  0
  2  1  1  1
  3  2  1  0
  4  3  1  0
  5  6  2  0
  8  9  1  0
  8 10  1  0
  8  7  1  6
 11  5  1  0
 10 11  1  6
 12 10  1  0
 12 21  1  0
 13 12  2  0
 15 14  1  0
 16 15  2  0
 17 16  1  0
 18 24  1  0
 18 17  2  0
 19 18  1  0
 20 21  1  0
 20 19  1  1
 22 20  1  0
 23 22  1  0
 24 25  2  0
 25 15  1  0
 26 22  2  0
M  END
$$$$
