CTY.pdb
     RDKit          3D

 26 26  0  0  1  0  0  0  0  0999 V2000
   24.0065  -11.7649  -20.0105 N   0  0  0  0  0  0  0  0  0  0  0  0
   23.8131  -11.5979  -18.6051 C   0  0  1  0  0  0  0  0  0  0  0  0
   24.9383  -12.2962  -17.8288 C   0  0  0  0  0  0  0  0  0  0  0  0
   24.7288  -12.0134  -16.0420 S   0  0  0  0  0  0  0  0  0  0  0  0
   23.8048  -10.1889  -18.1730 C   0  0  0  0  0  0  0  0  0  0  0  0
   24.8556   -9.5163  -18.3339 O   0  0  0  0  0  0  0  0  0  0  0  0
   22.6152   -7.5307  -19.6739 C   0  0  0  0  0  0  0  0  0  0  0  0
   21.8075   -7.4719  -18.3976 C   0  0  1  0  0  0  0  0  0  0  0  0
   20.5690   -8.0564  -18.5173 O   0  0  0  0  0  0  0  0  0  0  0  0
   22.6344   -8.1389  -17.2905 C   0  0  2  0  0  0  0  0  0  0  0  0
   22.6924   -9.5344  -17.5864 N   0  0  0  0  0  0  0  0  0  0  0  0
   21.9642   -7.8278  -16.0109 C   0  0  0  0  0  0  0  0  0  0  0  0
   21.2647   -8.7522  -15.5062 O   0  0  0  0  0  0  0  0  0  0  0  0
   18.7597   -4.2324   -8.6795 O   0  0  0  0  0  0  0  0  0  0  0  0
   19.5513   -4.5065   -9.8110 C   0  0  0  0  0  0  0  0  0  0  0  0
   20.4946   -5.5153   -9.7913 C   0  0  0  0  0  0  0  0  0  0  0  0
   21.2706   -5.7801  -10.9083 C   0  0  0  0  0  0  0  0  0  0  0  0
   21.1005   -5.0295  -12.0521 C   0  0  0  0  0  0  0  0  0  0  0  0
   21.9435   -5.3323  -13.2361 C   0  0  0  0  0  0  0  0  0  0  0  0
   21.2935   -6.3841  -14.1102 C   0  0  2  0  0  0  0  0  0  0  0  0
   22.0434   -6.6091  -15.3269 N   0  0  0  0  0  0  0  0  0  0  0  0
   19.8731   -6.0840  -14.3765 C   0  0  0  0  0  0  0  0  0  0  0  0
   18.8890   -6.5941  -13.5500 O   0  0  0  0  0  0  0  0  0  0  0  0
   20.1700   -4.0154  -12.1098 C   0  0  0  0  0  0  0  0  0  0  0  0
   19.4115   -3.7790  -10.9728 C   0  0  0  0  0  0  0  0  0  0  0  0
   19.5225   -5.3692  -15.3445 O   0  0  0  0  0  0  0  0  0  0  0  0
  2  5  1  0
  2  1  1  6
  3  2  1  0
  4  3  1  0
  5  6  2  0
  8  9  1  0
  8 10  1  0
  8  7  1  6
 11  5  1  0
 10 11  1  6
 12 10  1  0
 12 21  1  0
 13 12  2  0
 15 14  1  0
 16 15  2  0
 17 16  1  0
 18 24  1  0
 18 17  2  0
 19 18  1  0
 20 21  1  0
 20 19  1  6
 22 20  1  0
 23 22  1  0
 24 25  2  0
 25 15  1  0
 26 22  2  0
M  END
$$$$
