CTY.pdb
     RDKit          3D

 26 26  0  0  1  0  0  0  0  0999 V2000
   27.7518  -14.8400  -20.7020 N   0  0  0  0  0  0  0  0  0  0  0  0
   26.5126  -15.0801  -21.3708 C   0  0  1  0  0  0  0  0  0  0  0  0
   26.1142  -16.5562  -21.2342 C   0  0  0  0  0  0  0  0  0  0  0  0
   27.2415  -17.5976  -22.2145 S   0  0  0  0  0  0  0  0  0  0  0  0
   25.3915  -14.2829  -20.8420 C   0  0  0  0  0  0  0  0  0  0  0  0
   25.2757  -14.1836  -19.5933 O   0  0  0  0  0  0  0  0  0  0  0  0
   24.6644  -10.7808  -21.0119 C   0  0  0  0  0  0  0  0  0  0  0  0
   23.4810  -11.4281  -21.6938 C   0  0  1  0  0  0  0  0  0  0  0  0
   23.5897  -11.4394  -23.0643 O   0  0  0  0  0  0  0  0  0  0  0  0
   23.3393  -12.8496  -21.1338 C   0  0  2  0  0  0  0  0  0  0  0  0
   24.4301  -13.6171  -21.6434 N   0  0  0  0  0  0  0  0  0  0  0  0
   22.0128  -13.3447  -21.5564 C   0  0  0  0  0  0  0  0  0  0  0  0
   21.9637  -13.9262  -22.6780 O   0  0  0  0  0  0  0  0  0  0  0  0
   19.5127  -18.2012  -16.7907 O   0  0  0  0  0  0  0  0  0  0  0  0
   19.5483  -17.4612  -17.9879 C   0  0  0  0  0  0  0  0  0  0  0  0
   20.7492  -17.0667  -18.5445 C   0  0  0  0  0  0  0  0  0  0  0  0
   20.7774  -16.3386  -19.7230 C   0  0  0  0  0  0  0  0  0  0  0  0
   19.5950  -16.0036  -20.3479 C   0  0  0  0  0  0  0  0  0  0  0  0
   19.6510  -15.2233  -21.6096 C   0  0  0  0  0  0  0  0  0  0  0  0
   19.5750  -13.7367  -21.3319 C   0  0  2  0  0  0  0  0  0  0  0  0
   20.8273  -13.2212  -20.8225 N   0  0  0  0  0  0  0  0  0  0  0  0
   18.4336  -13.3922  -20.4619 C   0  0  0  0  0  0  0  0  0  0  0  0
   17.1390  -13.6045  -20.8986 O   0  0  0  0  0  0  0  0  0  0  0  0
   18.3780  -16.3792  -19.8232 C   0  0  0  0  0  0  0  0  0  0  0  0
   18.3886  -17.1070  -18.6424 C   0  0  0  0  0  0  0  0  0  0  0  0
   18.6014  -12.9046  -19.3195 O   0  0  0  0  0  0  0  0  0  0  0  0
  2  5  1  0
  2  1  1  1
  3  2  1  0
  4  3  1  0
  5  6  2  0
  8  9  1  0
  8 10  1  0
  8  7  1  1
 11  5  1  0
 10 11  1  6
 12 10  1  0
 12 21  1  0
 13 12  2  0
 15 14  1  0
 16 15  2  0
 17 16  1  0
 18 24  1  0
 18 17  2  0
 19 18  1  0
 20 21  1  0
 20 19  1  1
 22 20  1  0
 23 22  1  0
 24 25  2  0
 25 15  1  0
 26 22  2  0
M  END
$$$$
