CTY.pdb
     RDKit          3D

 26 26  0  0  1  0  0  0  0  0999 V2000
   19.8251  -11.6675  -16.2951 N   0  0  0  0  0  0  0  0  0  0  0  0
   18.7451  -10.8450  -15.8507 C   0  0  1  0  0  0  0  0  0  0  0  0
   17.4660  -11.6816  -15.7077 C   0  0  0  0  0  0  0  0  0  0  0  0
   16.8320  -12.1342  -17.3537 S   0  0  0  0  0  0  0  0  0  0  0  0
   18.9873  -10.2059  -14.5450 C   0  0  0  0  0  0  0  0  0  0  0  0
   19.6231  -10.8587  -13.6777 O   0  0  0  0  0  0  0  0  0  0  0  0
   21.0035   -7.4184  -13.9139 C   0  0  0  0  0  0  0  0  0  0  0  0
   19.6755   -6.9763  -13.3432 C   0  0  1  0  0  0  0  0  0  0  0  0
   18.9635   -6.1701  -14.1995 O   0  0  0  0  0  0  0  0  0  0  0  0
   18.8823   -8.2371  -12.9753 C   0  0  2  0  0  0  0  0  0  0  0  0
   18.5533   -8.9025  -14.1949 N   0  0  0  0  0  0  0  0  0  0  0  0
   17.7044   -7.7903  -12.2031 C   0  0  0  0  0  0  0  0  0  0  0  0
   16.5756   -8.1443  -12.6490 O   0  0  0  0  0  0  0  0  0  0  0  0
   11.0576   -7.2232   -7.0547 O   0  0  0  0  0  0  0  0  0  0  0  0
   12.2657   -7.4462   -7.7424 C   0  0  0  0  0  0  0  0  0  0  0  0
   12.3182   -7.3971   -9.1217 C   0  0  0  0  0  0  0  0  0  0  0  0
   13.5103   -7.6175   -9.7926 C   0  0  0  0  0  0  0  0  0  0  0  0
   14.6571   -7.8887   -9.0771 C   0  0  0  0  0  0  0  0  0  0  0  0
   15.9223   -8.1211   -9.8183 C   0  0  0  0  0  0  0  0  0  0  0  0
   16.5539   -6.8103  -10.2377 C   0  0  2  0  0  0  0  0  0  0  0  0
   17.7425   -7.0184  -11.0359 N   0  0  0  0  0  0  0  0  0  0  0  0
   16.8024   -5.9206   -9.0866 C   0  0  0  0  0  0  0  0  0  0  0  0
   15.9512   -4.8612   -8.8316 O   0  0  0  0  0  0  0  0  0  0  0  0
   14.6442   -7.9459   -7.7008 C   0  0  0  0  0  0  0  0  0  0  0  0
   13.4330   -7.7201   -7.0634 C   0  0  0  0  0  0  0  0  0  0  0  0
   17.7770   -6.0961   -8.3184 O   0  0  0  0  0  0  0  0  0  0  0  0
  2  5  1  0
  2  1  1  1
  3  2  1  0
  4  3  1  0
  5  6  2  0
  8  9  1  0
  8 10  1  0
  8  7  1  6
 11  5  1  0
 10 11  1  6
 12 10  1  0
 12 21  1  0
 13 12  2  0
 15 14  1  0
 16 15  2  0
 17 16  1  0
 18 24  1  0
 18 17  2  0
 19 18  1  0
 20 21  1  0
 20 19  1  1
 22 20  1  0
 23 22  1  0
 24 25  2  0
 25 15  1  0
 26 22  2  0
M  END
$$$$
