CTY.pdb
     RDKit          3D

 26 26  0  0  1  0  0  0  0  0999 V2000
   26.4272  -19.3186  -15.8172 N   0  0  0  0  0  0  0  0  0  0  0  0
   25.2082  -18.6840  -16.2066 C   0  0  1  0  0  0  0  0  0  0  0  0
   24.0131  -19.5954  -15.8945 C   0  0  0  0  0  0  0  0  0  0  0  0
   24.0883  -21.0941  -16.9263 S   0  0  0  0  0  0  0  0  0  0  0  0
   24.9622  -17.4041  -15.5185 C   0  0  0  0  0  0  0  0  0  0  0  0
   25.5500  -17.1996  -14.4252 O   0  0  0  0  0  0  0  0  0  0  0  0
   26.3932  -15.2521  -14.8186 C   0  0  0  0  0  0  0  0  0  0  0  0
   25.4093  -14.4215  -15.6104 C   0  0  1  0  0  0  0  0  0  0  0  0
   25.7568  -14.2927  -16.9342 O   0  0  0  0  0  0  0  0  0  0  0  0
   24.0250  -15.0655  -15.4572 C   0  0  2  0  0  0  0  0  0  0  0  0
   24.1069  -16.3823  -16.0027 N   0  0  0  0  0  0  0  0  0  0  0  0
   23.0659  -14.1877  -16.1593 C   0  0  0  0  0  0  0  0  0  0  0  0
   22.3335  -14.7411  -17.0287 O   0  0  0  0  0  0  0  0  0  0  0  0
   16.3578  -15.7721  -16.3761 O   0  0  0  0  0  0  0  0  0  0  0  0
   17.4686  -15.0212  -15.9469 C   0  0  0  0  0  0  0  0  0  0  0  0
   18.1470  -14.1929  -16.8195 C   0  0  0  0  0  0  0  0  0  0  0  0
   19.2396  -13.4564  -16.3908 C   0  0  0  0  0  0  0  0  0  0  0  0
   19.6551  -13.5503  -15.0796 C   0  0  0  0  0  0  0  0  0  0  0  0
   20.8280  -12.7513  -14.6439 C   0  0  0  0  0  0  0  0  0  0  0  0
   21.5945  -12.2185  -15.8361 C   0  0  2  0  0  0  0  0  0  0  0  0
   22.9090  -12.8142  -15.9389 N   0  0  0  0  0  0  0  0  0  0  0  0
   21.6470  -10.7435  -15.8483 C   0  0  0  0  0  0  0  0  0  0  0  0
   22.8344  -10.0888  -15.5777 O   0  0  0  0  0  0  0  0  0  0  0  0
   19.0040  -14.3655  -14.1801 C   0  0  0  0  0  0  0  0  0  0  0  0
   17.9146  -15.0877  -14.6448 C   0  0  0  0  0  0  0  0  0  0  0  0
   20.6327  -10.0517  -16.1002 O   0  0  0  0  0  0  0  0  0  0  0  0
  2  5  1  0
  2  1  1  1
  3  2  1  0
  4  3  1  0
  5  6  2  0
  8  9  1  0
  8 10  1  0
  8  7  1  1
 11  5  1  0
 10 11  1  6
 12 10  1  0
 12 21  1  0
 13 12  2  0
 15 14  1  0
 16 15  2  0
 17 16  1  0
 18 24  1  0
 18 17  2  0
 19 18  1  0
 20 21  1  0
 20 19  1  1
 22 20  1  0
 23 22  1  0
 24 25  2  0
 25 15  1  0
 26 22  2  0
M  END
$$$$
