KRD.pdb
     RDKit          3D

 29 28  0  0  1  0  0  0  0  0999 V2000
   12.1701  -18.0295   16.0981 N   0  0  0  0  0  0  0  0  0  0  0  0
   11.0425  -18.3874   16.9422 C   0  0  1  0  0  0  0  0  0  0  0  0
   11.0451  -19.8899   17.0372 C   0  0  0  0  0  0  0  0  0  0  0  0
    9.8128  -20.4485   16.3995 C   0  0  0  0  0  0  0  0  0  0  0  0
    9.7874  -21.9465   16.5218 C   0  0  0  0  0  0  0  0  0  0  0  0
    8.3519  -22.4370   16.7600 C   0  0  0  0  0  0  0  0  0  0  0  0
    8.4078  -23.8740   16.9220 N   0  0  0  0  0  0  0  0  0  0  0  0
   11.2025  -17.7739   18.3052 C   0  0  0  0  0  0  0  0  0  0  0  0
   12.3373  -17.4234   18.6869 O   0  0  0  0  0  0  0  0  0  0  0  0
    8.0338  -12.7972   18.0393 N   0  0  0  0  0  0  0  0  0  0  0  0
    7.6927  -12.3751   19.3758 C   0  0  0  0  0  0  0  0  0  0  0  0
    8.1279  -11.2619   19.8362 N   0  0  0  0  0  0  0  0  0  0  0  0
    6.8747  -13.1789   20.2099 N   0  0  0  0  0  0  0  0  0  0  0  0
    7.1931  -14.5103   20.5909 C   0  0  0  0  0  0  0  0  0  0  0  0
    8.6171  -14.9354   20.3600 C   0  0  0  0  0  0  0  0  0  0  0  0
    8.8691  -16.3456   20.7449 C   0  0  0  0  0  0  0  0  0  0  0  0
   10.2581  -16.8710   20.4625 C   0  0  2  0  0  0  0  0  0  0  0  0
   10.1135  -17.5789   19.1737 N   0  0  0  0  0  0  0  0  0  0  0  0
   10.7444  -17.8721   21.4122 C   0  0  0  0  0  0  0  0  0  0  0  0
   10.3954  -19.1051   21.2697 O   0  0  0  0  0  0  0  0  0  0  0  0
    7.9294  -11.0176   20.8290 N   0  0  0  0  0  0  0  0  0  0  0  0
   11.5898  -17.6656   22.5204 C   0  0  2  0  0  0  0  0  0  0  0  0
   12.5837  -18.6390   22.9584 C   0  0  0  0  0  0  0  0  0  0  0  0
   13.6029  -18.9173   21.9125 C   0  0  0  0  0  0  0  0  0  0  0  0
   14.5722  -19.9159   22.4049 O   0  0  0  0  0  0  0  0  0  0  0  0
   15.5918  -19.5697   23.1038 C   0  0  0  0  0  0  0  0  0  0  0  0
   13.2716  -18.0959   24.1733 O   0  0  0  0  0  0  0  0  0  0  0  0
   13.6641  -16.9150   24.2477 O   0  0  0  0  0  0  0  0  0  0  0  0
   14.4736  -21.2741   22.1617 O   0  0  0  0  0  0  0  0  0  0  0  0
  2  1  1  6
  3  2  1  0
  4  5  1  0
  4  3  1  0
  5  6  1  0
  7  6  1  0
  8  9  2  0
  8  2  1  0
 10 11  1  0
 11 12  2  0
 13 11  1  0
 13 14  1  0
 14 15  1  0
 16 15  1  0
 17 16  1  1
 17 18  1  0
 18  8  1  0
 19 21  1  0
 19 17  1  0
 20 19  2  0
 22 21  1  0
 22 26  1  0
 23 24  1  0
 22 23  1  6
 24 25  2  0
 26 29  1  0
 27 26  2  0
 28 24  1  0
M  END
$$$$
