KRD.pdb
     RDKit          3D

 29 28  0  0  1  0  0  0  0  0999 V2000
    6.9965  -19.4041   24.8274 N   0  0  0  0  0  0  0  0  0  0  0  0
    8.0305  -20.4015   24.6077 C   0  0  1  0  0  0  0  0  0  0  0  0
    7.3308  -21.6291   24.0882 C   0  0  0  0  0  0  0  0  0  0  0  0
    6.3718  -22.1477   25.1124 C   0  0  0  0  0  0  0  0  0  0  0  0
    5.6995  -23.3991   24.6207 C   0  0  0  0  0  0  0  0  0  0  0  0
    4.7459  -23.9472   25.6922 C   0  0  0  0  0  0  0  0  0  0  0  0
    4.2042  -25.1925   25.1920 N   0  0  0  0  0  0  0  0  0  0  0  0
    9.0276  -19.8988   23.6014 C   0  0  0  0  0  0  0  0  0  0  0  0
    9.8636  -20.6915   23.1226 O   0  0  0  0  0  0  0  0  0  0  0  0
    7.1915  -13.5221   18.3355 N   0  0  0  0  0  0  0  0  0  0  0  0
    7.7548  -13.3031   19.6453 C   0  0  0  0  0  0  0  0  0  0  0  0
    7.4994  -12.2264   20.2904 N   0  0  0  0  0  0  0  0  0  0  0  0
    8.6032  -14.2672   20.2467 N   0  0  0  0  0  0  0  0  0  0  0  0
    9.1786  -15.3644   19.5508 C   0  0  0  0  0  0  0  0  0  0  0  0
   10.0369  -16.2851   20.3738 C   0  0  0  0  0  0  0  0  0  0  0  0
    9.2732  -17.0035   21.4230 C   0  0  0  0  0  0  0  0  0  0  0  0
   10.0286  -18.0753   22.1752 C   0  0  2  0  0  0  0  0  0  0  0  0
    9.0549  -18.5585   23.1760 N   0  0  0  0  0  0  0  0  0  0  0  0
   11.1799  -17.5972   22.9410 C   0  0  0  0  0  0  0  0  0  0  0  0
   10.9998  -16.7506   23.8966 O   0  0  0  0  0  0  0  0  0  0  0  0
    7.9751  -12.0631   21.2024 N   0  0  0  0  0  0  0  0  0  0  0  0
   12.5324  -17.9546   22.7721 C   0  0  2  0  0  0  0  0  0  0  0  0
   13.6081  -17.4222   23.6008 C   0  0  0  0  0  0  0  0  0  0  0  0
   14.6551  -18.4372   23.8903 C   0  0  0  0  0  0  0  0  0  0  0  0
   15.7542  -17.8231   24.6610 O   0  0  0  0  0  0  0  0  0  0  0  0
   16.8825  -17.5488   24.1136 C   0  0  0  0  0  0  0  0  0  0  0  0
   14.2357  -16.2713   22.8758 O   0  0  0  0  0  0  0  0  0  0  0  0
   14.0686  -16.0785   21.6556 O   0  0  0  0  0  0  0  0  0  0  0  0
   15.6707  -17.5008   26.0036 O   0  0  0  0  0  0  0  0  0  0  0  0
  2  1  1  6
  3  2  1  0
  4  5  1  0
  4  3  1  0
  5  6  1  0
  7  6  1  0
  8  9  2  0
  8  2  1  0
 10 11  1  0
 11 12  2  0
 13 11  1  0
 13 14  1  0
 14 15  1  0
 16 15  1  0
 17 16  1  1
 17 18  1  0
 18  8  1  0
 19 21  1  0
 19 17  1  0
 20 19  2  0
 22 21  1  0
 22 26  1  0
 23 24  1  0
 22 23  1  6
 24 25  2  0
 26 29  1  0
 27 26  2  0
 28 24  1  0
M  END
$$$$
