KRD.pdb
     RDKit          3D

 29 28  0  0  1  0  0  0  0  0999 V2000
   12.3925  -15.8390   18.2061 N   0  0  0  0  0  0  0  0  0  0  0  0
   11.5600  -16.8623   18.8159 C   0  0  1  0  0  0  0  0  0  0  0  0
   12.3917  -18.1166   18.8549 C   0  0  0  0  0  0  0  0  0  0  0  0
   12.8073  -18.5024   17.4708 C   0  0  0  0  0  0  0  0  0  0  0  0
   11.6586  -19.1275   16.7294 C   0  0  0  0  0  0  0  0  0  0  0  0
   12.0993  -19.5441   15.3186 C   0  0  0  0  0  0  0  0  0  0  0  0
   10.9686  -20.1889   14.6859 N   0  0  0  0  0  0  0  0  0  0  0  0
   11.1675  -16.4479   20.2065 C   0  0  0  0  0  0  0  0  0  0  0  0
   12.0150  -15.9040   20.9429 O   0  0  0  0  0  0  0  0  0  0  0  0
    8.4469  -13.3776   18.0865 N   0  0  0  0  0  0  0  0  0  0  0  0
    8.5604  -12.4632   19.1964 C   0  0  0  0  0  0  0  0  0  0  0  0
    9.3803  -11.4805   19.1470 N   0  0  0  0  0  0  0  0  0  0  0  0
    7.7740  -12.6304   20.3646 N   0  0  0  0  0  0  0  0  0  0  0  0
    8.0211  -13.6195   21.3545 C   0  0  0  0  0  0  0  0  0  0  0  0
    7.5711  -15.0137   21.0147 C   0  0  0  0  0  0  0  0  0  0  0  0
    8.0112  -16.0219   22.0099 C   0  0  0  0  0  0  0  0  0  0  0  0
    9.5008  -16.2662   22.0907 C   0  0  2  0  0  0  0  0  0  0  0  0
    9.8715  -16.6518   20.7134 N   0  0  0  0  0  0  0  0  0  0  0  0
    9.8968  -17.3916   22.9376 C   0  0  0  0  0  0  0  0  0  0  0  0
    9.8836  -18.5864   22.4533 O   0  0  0  0  0  0  0  0  0  0  0  0
    9.4737  -10.8626   19.9802 N   0  0  0  0  0  0  0  0  0  0  0  0
   10.3162  -17.3489   24.2821 C   0  0  2  0  0  0  0  0  0  0  0  0
   11.5513  -17.9656   24.7528 C   0  0  0  0  0  0  0  0  0  0  0  0
   12.7513  -17.4344   24.0544 C   0  0  0  0  0  0  0  0  0  0  0  0
   13.9745  -18.0264   24.6310 O   0  0  0  0  0  0  0  0  0  0  0  0
   14.0968  -19.2956   24.7797 C   0  0  0  0  0  0  0  0  0  0  0  0
   11.6842  -17.6937   26.2200 O   0  0  0  0  0  0  0  0  0  0  0  0
   11.1602  -16.7034   26.7666 O   0  0  0  0  0  0  0  0  0  0  0  0
   15.0653  -17.2881   25.0536 O   0  0  0  0  0  0  0  0  0  0  0  0
  2  1  1  1
  3  2  1  0
  4  5  1  0
  4  3  1  0
  5  6  1  0
  7  6  1  0
  8  9  2  0
  8  2  1  0
 10 11  1  0
 11 12  2  0
 13 11  1  0
 13 14  1  0
 14 15  1  0
 16 15  1  0
 17 16  1  6
 17 18  1  0
 18  8  1  0
 19 21  1  0
 19 17  1  0
 20 19  2  0
 22 21  1  0
 22 26  1  0
 23 24  1  0
 22 23  1  6
 24 25  2  0
 26 29  1  0
 27 26  2  0
 28 24  1  0
M  END
$$$$
