KRD.pdb
     RDKit          3D

 29 28  0  0  1  0  0  0  0  0999 V2000
   10.0243  -17.2204   18.0721 N   0  0  0  0  0  0  0  0  0  0  0  0
    9.0189  -17.4132   19.1036 C   0  0  1  0  0  0  0  0  0  0  0  0
    8.9353  -18.8975   19.3409 C   0  0  0  0  0  0  0  0  0  0  0  0
    9.3173  -19.6398   18.0998 C   0  0  0  0  0  0  0  0  0  0  0  0
    9.2481  -21.1238   18.3297 C   0  0  0  0  0  0  0  0  0  0  0  0
    9.7506  -21.8785   17.0902 C   0  0  0  0  0  0  0  0  0  0  0  0
    9.7495  -23.2891   17.4136 N   0  0  0  0  0  0  0  0  0  0  0  0
    9.4278  -16.7013   20.3628 C   0  0  0  0  0  0  0  0  0  0  0  0
   10.6287  -16.4119   20.5373 O   0  0  0  0  0  0  0  0  0  0  0  0
    7.0659  -11.5788   27.8794 N   0  0  0  0  0  0  0  0  0  0  0  0
    7.0758  -12.1051   26.5363 C   0  0  0  0  0  0  0  0  0  0  0  0
    7.7403  -11.5164   25.6131 N   0  0  0  0  0  0  0  0  0  0  0  0
    6.3516  -13.2786   26.2057 N   0  0  0  0  0  0  0  0  0  0  0  0
    6.3588  -13.8812   24.9188 C   0  0  0  0  0  0  0  0  0  0  0  0
    7.6780  -14.4434   24.4657 C   0  0  0  0  0  0  0  0  0  0  0  0
    7.6110  -15.0615   23.1189 C   0  0  0  0  0  0  0  0  0  0  0  0
    8.9075  -15.6257   22.5840 C   0  0  2  0  0  0  0  0  0  0  0  0
    8.5014  -16.3469   21.3601 N   0  0  0  0  0  0  0  0  0  0  0  0
    9.5453  -16.6259   23.4402 C   0  0  0  0  0  0  0  0  0  0  0  0
    8.9667  -17.7625   23.6288 O   0  0  0  0  0  0  0  0  0  0  0  0
    7.7279  -11.9178   24.6522 N   0  0  0  0  0  0  0  0  0  0  0  0
   10.7729  -16.5150   24.1231 C   0  0  2  0  0  0  0  0  0  0  0  0
   11.3432  -17.5952   24.9202 C   0  0  0  0  0  0  0  0  0  0  0  0
   12.8207  -17.4880   25.0446 C   0  0  0  0  0  0  0  0  0  0  0  0
   13.3385  -18.5900   25.8792 O   0  0  0  0  0  0  0  0  0  0  0  0
   12.8106  -19.7596   25.8446 C   0  0  0  0  0  0  0  0  0  0  0  0
   10.7363  -17.5416   26.2888 O   0  0  0  0  0  0  0  0  0  0  0  0
   10.8582  -18.4706   27.1111 O   0  0  0  0  0  0  0  0  0  0  0  0
   14.4056  -18.4642   26.7504 O   0  0  0  0  0  0  0  0  0  0  0  0
  2  1  1  6
  3  2  1  0
  4  5  1  0
  4  3  1  0
  5  6  1  0
  7  6  1  0
  8  9  2  0
  8  2  1  0
 10 11  1  0
 11 12  2  0
 13 11  1  0
 13 14  1  0
 14 15  1  0
 16 15  1  0
 17 16  1  1
 17 18  1  0
 18  8  1  0
 19 21  1  0
 19 17  1  0
 20 19  2  0
 22 21  1  0
 22 26  1  0
 23 24  1  0
 22 23  1  1
 24 25  2  0
 26 29  1  0
 27 26  2  0
 28 24  1  0
M  END
$$$$
