KRD.pdb
     RDKit          3D

 29 28  0  0  1  0  0  0  0  0999 V2000
    6.9364  -16.9428   26.6140 N   0  0  0  0  0  0  0  0  0  0  0  0
    7.0672  -16.3069   25.3138 C   0  0  1  0  0  0  0  0  0  0  0  0
    7.5778  -14.9146   25.5731 C   0  0  0  0  0  0  0  0  0  0  0  0
    6.5169  -14.0912   26.2320 C   0  0  0  0  0  0  0  0  0  0  0  0
    6.9952  -12.6812   26.4390 C   0  0  0  0  0  0  0  0  0  0  0  0
    5.8849  -11.8301   27.0724 C   0  0  0  0  0  0  0  0  0  0  0  0
    6.4768  -10.5678   27.4606 N   0  0  0  0  0  0  0  0  0  0  0  0
    8.0384  -17.0728   24.4597 C   0  0  0  0  0  0  0  0  0  0  0  0
    8.8026  -17.8999   24.9968 O   0  0  0  0  0  0  0  0  0  0  0  0
    7.9262  -14.5152   17.1958 N   0  0  0  0  0  0  0  0  0  0  0  0
    7.9756  -13.5423   18.2596 C   0  0  0  0  0  0  0  0  0  0  0  0
    7.4564  -12.3819   18.1031 N   0  0  0  0  0  0  0  0  0  0  0  0
    8.5996  -13.8431   19.4970 N   0  0  0  0  0  0  0  0  0  0  0  0
    9.0889  -15.1300   19.8486 C   0  0  0  0  0  0  0  0  0  0  0  0
    8.0958  -16.0538   20.4984 C   0  0  0  0  0  0  0  0  0  0  0  0
    8.6718  -17.3794   20.8323 C   0  0  0  0  0  0  0  0  0  0  0  0
    9.1614  -17.5499   22.2523 C   0  0  2  0  0  0  0  0  0  0  0  0
    8.1200  -16.8910   23.0674 N   0  0  0  0  0  0  0  0  0  0  0  0
   10.4089  -16.8516   22.5632 C   0  0  0  0  0  0  0  0  0  0  0  0
   10.9391  -16.0751   21.6810 O   0  0  0  0  0  0  0  0  0  0  0  0
    7.4784  -11.7108   18.8992 N   0  0  0  0  0  0  0  0  0  0  0  0
   11.1513  -16.9107   23.7594 C   0  0  1  0  0  0  0  0  0  0  0  0
   12.4223  -17.6166   23.8759 C   0  0  0  0  0  0  0  0  0  0  0  0
   13.5787  -16.7692   23.4824 C   0  0  0  0  0  0  0  0  0  0  0  0
   13.3249  -16.1473   22.1679 O   0  0  0  0  0  0  0  0  0  0  0  0
   12.7535  -15.0020   22.0695 C   0  0  0  0  0  0  0  0  0  0  0  0
   12.5959  -18.0420   25.3018 O   0  0  0  0  0  0  0  0  0  0  0  0
   13.5797  -18.7035   25.6871 O   0  0  0  0  0  0  0  0  0  0  0  0
   13.6667  -16.7273   20.9595 O   0  0  0  0  0  0  0  0  0  0  0  0
  2  1  1  1
  3  2  1  0
  4  5  1  0
  4  3  1  0
  5  6  1  0
  7  6  1  0
  8  9  2  0
  8  2  1  0
 10 11  1  0
 11 12  2  0
 13 11  1  0
 13 14  1  0
 14 15  1  0
 16 15  1  0
 17 16  1  6
 17 18  1  0
 18  8  1  0
 19 21  1  0
 19 17  1  0
 20 19  2  0
 22 21  1  0
 22 26  1  0
 23 24  1  0
 22 23  1  6
 24 25  2  0
 26 29  1  0
 27 26  2  0
 28 24  1  0
M  END
$$$$
