KRD.pdb
     RDKit          3D

 29 28  0  0  1  0  0  0  0  0999 V2000
   11.5451  -19.1764   16.5110 N   0  0  0  0  0  0  0  0  0  0  0  0
   11.1252  -19.7788   17.7651 C   0  0  1  0  0  0  0  0  0  0  0  0
   12.0927  -20.8986   18.0416 C   0  0  0  0  0  0  0  0  0  0  0  0
   11.7222  -22.1083   17.2436 C   0  0  0  0  0  0  0  0  0  0  0  0
   10.6679  -22.9085   17.9564 C   0  0  0  0  0  0  0  0  0  0  0  0
   10.3038  -24.1567   17.1392 C   0  0  0  0  0  0  0  0  0  0  0  0
    9.2765  -24.8670   17.8704 N   0  0  0  0  0  0  0  0  0  0  0  0
   11.1712  -18.7593   18.8688 C   0  0  0  0  0  0  0  0  0  0  0  0
   12.2664  -18.2531   19.1863 O   0  0  0  0  0  0  0  0  0  0  0  0
    8.7816  -11.6508   20.9005 N   0  0  0  0  0  0  0  0  0  0  0  0
    8.1736  -12.7657   20.2163 C   0  0  0  0  0  0  0  0  0  0  0  0
    8.6287  -13.1606   19.0860 N   0  0  0  0  0  0  0  0  0  0  0  0
    7.0612  -13.4465   20.7731 N   0  0  0  0  0  0  0  0  0  0  0  0
    7.0240  -14.8468   21.0118 C   0  0  0  0  0  0  0  0  0  0  0  0
    8.3487  -15.4979   21.3003 C   0  0  0  0  0  0  0  0  0  0  0  0
    8.6964  -16.5587   20.3234 C   0  0  0  0  0  0  0  0  0  0  0  0
   10.0386  -17.2257   20.5201 C   0  0  2  0  0  0  0  0  0  0  0  0
   10.0181  -18.3513   19.5631 N   0  0  0  0  0  0  0  0  0  0  0  0
   10.2411  -17.8291   21.8374 C   0  0  0  0  0  0  0  0  0  0  0  0
    9.7420  -18.9914   22.0872 O   0  0  0  0  0  0  0  0  0  0  0  0
    8.1459  -13.9427   18.5963 N   0  0  0  0  0  0  0  0  0  0  0  0
   10.9466  -17.2883   22.9307 C   0  0  1  0  0  0  0  0  0  0  0  0
   11.4767  -18.1014   24.0194 C   0  0  0  0  0  0  0  0  0  0  0  0
   12.9014  -18.4702   23.8089 C   0  0  0  0  0  0  0  0  0  0  0  0
   13.4140  -19.1978   24.9866 O   0  0  0  0  0  0  0  0  0  0  0  0
   13.0768  -20.4143   25.2196 C   0  0  0  0  0  0  0  0  0  0  0  0
   11.3614  -17.3184   25.2914 O   0  0  0  0  0  0  0  0  0  0  0  0
   11.2986  -16.0734   25.3068 O   0  0  0  0  0  0  0  0  0  0  0  0
   14.2757  -18.6491   25.9192 O   0  0  0  0  0  0  0  0  0  0  0  0
  2  1  1  6
  3  2  1  0
  4  5  1  0
  4  3  1  0
  5  6  1  0
  7  6  1  0
  8  9  2  0
  8  2  1  0
 10 11  1  0
 11 12  2  0
 13 11  1  0
 13 14  1  0
 14 15  1  0
 16 15  1  0
 17 16  1  1
 17 18  1  0
 18  8  1  0
 19 21  1  0
 19 17  1  0
 20 19  2  0
 22 21  1  0
 22 26  1  0
 23 24  1  0
 22 23  1  1
 24 25  2  0
 26 29  1  0
 27 26  2  0
 28 24  1  0
M  END
$$$$
