KRD.pdb
     RDKit          3D

 29 28  0  0  1  0  0  0  0  0999 V2000
    7.2948  -15.6728   26.4049 N   0  0  0  0  0  0  0  0  0  0  0  0
    8.5714  -15.2798   25.8322 C   0  0  1  0  0  0  0  0  0  0  0  0
    9.6278  -15.7239   26.8087 C   0  0  0  0  0  0  0  0  0  0  0  0
    9.5412  -14.9154   28.0641 C   0  0  0  0  0  0  0  0  0  0  0  0
   10.7157  -15.2006   28.9580 C   0  0  0  0  0  0  0  0  0  0  0  0
   10.6674  -14.3032   30.2032 C   0  0  0  0  0  0  0  0  0  0  0  0
   11.7786  -14.6799   31.0504 N   0  0  0  0  0  0  0  0  0  0  0  0
    8.7692  -15.9511   24.5019 C   0  0  0  0  0  0  0  0  0  0  0  0
    8.3214  -17.1023   24.3270 O   0  0  0  0  0  0  0  0  0  0  0  0
    7.2654  -12.1198   18.0131 N   0  0  0  0  0  0  0  0  0  0  0  0
    8.1357  -13.2461   18.2476 C   0  0  0  0  0  0  0  0  0  0  0  0
    9.3677  -13.1981   17.9006 N   0  0  0  0  0  0  0  0  0  0  0  0
    7.6511  -14.4290   18.8614 N   0  0  0  0  0  0  0  0  0  0  0  0
    7.1276  -14.4828   20.1813 C   0  0  0  0  0  0  0  0  0  0  0  0
    8.1114  -14.2196   21.2879 C   0  0  0  0  0  0  0  0  0  0  0  0
    9.3868  -14.9571   21.1151 C   0  0  0  0  0  0  0  0  0  0  0  0
    9.6863  -16.0144   22.1532 C   0  0  2  0  0  0  0  0  0  0  0  0
    9.4456  -15.3266   23.4385 N   0  0  0  0  0  0  0  0  0  0  0  0
   11.0792  -16.4597   22.1967 C   0  0  0  0  0  0  0  0  0  0  0  0
   11.4434  -17.4761   21.4921 O   0  0  0  0  0  0  0  0  0  0  0  0
    9.9344  -14.0709   17.9400 N   0  0  0  0  0  0  0  0  0  0  0  0
   12.1372  -15.9001   22.9404 C   0  0  1  0  0  0  0  0  0  0  0  0
   13.5117  -16.3812   22.8593 C   0  0  0  0  0  0  0  0  0  0  0  0
   14.4833  -15.2818   22.6198 C   0  0  0  0  0  0  0  0  0  0  0  0
   14.2087  -14.6396   21.3193 O   0  0  0  0  0  0  0  0  0  0  0  0
   14.0495  -13.3695   21.2214 C   0  0  0  0  0  0  0  0  0  0  0  0
   13.8518  -17.0557   24.1530 O   0  0  0  0  0  0  0  0  0  0  0  0
   14.9845  -17.5205   24.3871 O   0  0  0  0  0  0  0  0  0  0  0  0
   14.0980  -15.3288   20.1251 O   0  0  0  0  0  0  0  0  0  0  0  0
  2  1  1  1
  3  2  1  0
  4  5  1  0
  4  3  1  0
  5  6  1  0
  7  6  1  0
  8  9  2  0
  8  2  1  0
 10 11  1  0
 11 12  2  0
 13 11  1  0
 13 14  1  0
 14 15  1  0
 16 15  1  0
 17 16  1  6
 17 18  1  0
 18  8  1  0
 19 21  1  0
 19 17  1  0
 20 19  2  0
 22 21  1  0
 22 26  1  0
 23 24  1  0
 22 23  1  6
 24 25  2  0
 26 29  1  0
 27 26  2  0
 28 24  1  0
M  END
$$$$
