DYD.pdb
     RDKit          3D

 29 29  0  0  1  0  0  0  0  0999 V2000
    7.1763  -16.1668   20.8603 N   0  0  0  0  0  0  0  0  0  0  0  0
    8.5556  -15.7800   20.7846 C   0  0  1  0  0  0  0  0  0  0  0  0
    8.6788  -14.4766   19.9999 C   0  0  0  0  0  0  0  0  0  0  0  0
    8.2822  -14.6916   18.5873 C   0  0  0  0  0  0  0  0  0  0  0  0
    7.9008  -15.8161   18.2120 O   0  0  0  0  0  0  0  0  0  0  0  0
    9.1229  -15.5223   22.1364 C   0  0  0  0  0  0  0  0  0  0  0  0
   10.2243  -14.9212   22.2247 O   0  0  0  0  0  0  0  0  0  0  0  0
    8.3517  -13.6127   17.7195 O   0  0  0  0  0  0  0  0  0  0  0  0
    6.2427  -10.2227   26.2487 O   0  0  0  0  0  0  0  0  0  0  0  0
    6.6460  -11.5440   26.0810 C   0  0  0  0  0  0  0  0  0  0  0  0
    7.9425  -11.9325   26.3453 C   0  0  0  0  0  0  0  0  0  0  0  0
    8.2829  -13.2632   26.1590 C   0  0  0  0  0  0  0  0  0  0  0  0
    7.3575  -14.1754   25.7225 C   0  0  0  0  0  0  0  0  0  0  0  0
    7.7463  -15.5703   25.5301 C   0  0  0  0  0  0  0  0  0  0  0  0
    8.9571  -15.7467   24.6294 C   0  0  2  0  0  0  0  0  0  0  0  0
    8.4155  -15.9566   23.2896 N   0  0  0  0  0  0  0  0  0  0  0  0
    9.7255  -16.9335   25.0319 C   0  0  0  0  0  0  0  0  0  0  0  0
    9.2157  -18.0930   24.8988 O   0  0  0  0  0  0  0  0  0  0  0  0
    6.0596  -13.7843   25.4585 C   0  0  0  0  0  0  0  0  0  0  0  0
    5.7199  -12.4737   25.6409 C   0  0  0  0  0  0  0  0  0  0  0  0
   11.0356  -16.8767   25.5745 N   0  0  0  0  0  0  0  0  0  0  0  0
   11.7007  -18.1086   26.0206 C   0  0  1  0  0  0  0  0  0  0  0  0
   13.1676  -17.8458   25.9733 C   0  0  0  0  0  0  0  0  0  0  0  0
   13.7583  -17.6738   24.6502 C   0  0  0  0  0  0  0  0  0  0  0  0
   13.1154  -17.7311   23.6036 O   0  0  0  0  0  0  0  0  0  0  0  0
   11.2054  -18.4597   27.3790 C   0  0  0  0  0  0  0  0  0  0  0  0
   11.5483  -19.5573   27.9362 O   0  0  0  0  0  0  0  0  0  0  0  0
   15.1411  -17.4266   24.5313 O   0  0  0  0  0  0  0  0  0  0  0  0
   10.3716  -17.6584   28.1138 O   0  0  0  0  0  0  0  0  0  0  0  0
  2  1  1  1
  2  3  1  0
  4  3  1  0
  4  8  1  0
  5  4  2  0
  6  2  1  0
  6  7  2  0
  9 10  1  0
 10 20  2  0
 10 11  1  0
 11 12  2  0
 12 13  1  0
 13 14  1  0
 15 14  1  1
 15 16  1  0
 16  6  1  0
 17 15  1  0
 18 17  2  0
 19 13  2  0
 20 19  1  0
 21 17  1  0
 22 21  1  0
 22 23  1  1
 23 24  1  0
 24 28  1  0
 24 25  2  0
 26 22  1  0
 27 26  2  0
 29 26  1  0
M  END
$$$$
