DYD.pdb
     RDKit          3D

 29 29  0  0  1  0  0  0  0  0999 V2000
    9.6538  -17.8821   20.4717 N   0  0  0  0  0  0  0  0  0  0  0  0
   10.8844  -17.2817   20.8994 C   0  0  1  0  0  0  0  0  0  0  0  0
   11.5500  -16.5820   19.7174 C   0  0  0  0  0  0  0  0  0  0  0  0
   11.6653  -17.5151   18.5706 C   0  0  0  0  0  0  0  0  0  0  0  0
   11.1712  -18.6559   18.6441 O   0  0  0  0  0  0  0  0  0  0  0  0
   10.6496  -16.2410   21.9374 C   0  0  0  0  0  0  0  0  0  0  0  0
   11.6108  -15.5088   22.2868 O   0  0  0  0  0  0  0  0  0  0  0  0
   12.3312  -17.0752   17.4371 O   0  0  0  0  0  0  0  0  0  0  0  0
    5.8435  -11.4481   27.6011 O   0  0  0  0  0  0  0  0  0  0  0  0
    6.2756  -12.2909   26.5816 C   0  0  0  0  0  0  0  0  0  0  0  0
    5.8884  -13.6138   26.5383 C   0  0  0  0  0  0  0  0  0  0  0  0
    6.3523  -14.4027   25.4973 C   0  0  0  0  0  0  0  0  0  0  0  0
    7.1765  -13.8860   24.5314 C   0  0  0  0  0  0  0  0  0  0  0  0
    7.6541  -14.7426   23.4489 C   0  0  0  0  0  0  0  0  0  0  0  0
    9.1115  -15.1481   23.5905 C   0  0  2  0  0  0  0  0  0  0  0  0
    9.3562  -16.0969   22.5077 N   0  0  0  0  0  0  0  0  0  0  0  0
    9.3331  -15.8182   24.8801 C   0  0  0  0  0  0  0  0  0  0  0  0
    9.2059  -15.1624   25.9644 O   0  0  0  0  0  0  0  0  0  0  0  0
    7.5631  -12.5610   24.5767 C   0  0  0  0  0  0  0  0  0  0  0  0
    7.1080  -11.7799   25.6010 C   0  0  0  0  0  0  0  0  0  0  0  0
    9.6893  -17.1861   25.0058 N   0  0  0  0  0  0  0  0  0  0  0  0
    9.8898  -17.7743   26.3373 C   0  0  1  0  0  0  0  0  0  0  0  0
    9.3170  -19.1501   26.2895 C   0  0  0  0  0  0  0  0  0  0  0  0
    9.9229  -20.0776   25.3400 C   0  0  0  0  0  0  0  0  0  0  0  0
   10.8387  -19.7725   24.5782 O   0  0  0  0  0  0  0  0  0  0  0  0
   11.3413  -17.7481   26.6628 C   0  0  0  0  0  0  0  0  0  0  0  0
   12.1978  -17.3557   25.7995 O   0  0  0  0  0  0  0  0  0  0  0  0
    9.4546  -21.4054   25.2674 O   0  0  0  0  0  0  0  0  0  0  0  0
   11.8548  -18.1293   27.8745 O   0  0  0  0  0  0  0  0  0  0  0  0
  2  1  1  6
  2  3  1  0
  4  3  1  0
  4  8  1  0
  5  4  2  0
  6  2  1  0
  6  7  2  0
  9 10  1  0
 10 20  2  0
 10 11  1  0
 11 12  2  0
 12 13  1  0
 13 14  1  0
 15 14  1  1
 15 16  1  0
 16  6  1  0
 17 15  1  0
 18 17  2  0
 19 13  2  0
 20 19  1  0
 21 17  1  0
 22 21  1  0
 22 23  1  6
 23 24  1  0
 24 28  1  0
 24 25  2  0
 26 22  1  0
 27 26  2  0
 29 26  1  0
M  END
$$$$
