DYD.pdb
     RDKit          3D

 29 29  0  0  1  0  0  0  0  0999 V2000
    7.7308  -13.5019   17.3111 N   0  0  0  0  0  0  0  0  0  0  0  0
    7.7572  -14.6996   18.1001 C   0  0  1  0  0  0  0  0  0  0  0  0
    8.7263  -15.7010   17.4773 C   0  0  0  0  0  0  0  0  0  0  0  0
    8.3305  -15.9920   16.0781 C   0  0  0  0  0  0  0  0  0  0  0  0
    7.1430  -16.2526   15.8084 O   0  0  0  0  0  0  0  0  0  0  0  0
    8.2460  -14.4308   19.4802 C   0  0  0  0  0  0  0  0  0  0  0  0
    9.4224  -14.0127   19.6335 O   0  0  0  0  0  0  0  0  0  0  0  0
    9.3153  -15.9627   15.1028 O   0  0  0  0  0  0  0  0  0  0  0  0
    7.5341  -13.2707   28.2030 O   0  0  0  0  0  0  0  0  0  0  0  0
    7.2817  -13.5754   26.8689 C   0  0  0  0  0  0  0  0  0  0  0  0
    6.7016  -14.7736   26.5089 C   0  0  0  0  0  0  0  0  0  0  0  0
    6.4756  -15.0186   25.1635 C   0  0  0  0  0  0  0  0  0  0  0  0
    6.8185  -14.0961   24.2093 C   0  0  0  0  0  0  0  0  0  0  0  0
    6.5732  -14.3839   22.7984 C   0  0  0  0  0  0  0  0  0  0  0  0
    7.8364  -14.4189   21.9550 C   0  0  2  0  0  0  0  0  0  0  0  0
    7.3819  -14.6499   20.5866 N   0  0  0  0  0  0  0  0  0  0  0  0
    8.6996  -15.5333   22.3726 C   0  0  0  0  0  0  0  0  0  0  0  0
    9.2121  -16.3004   21.4946 O   0  0  0  0  0  0  0  0  0  0  0  0
    7.3992  -12.8967   24.5720 C   0  0  0  0  0  0  0  0  0  0  0  0
    7.6237  -12.6512   25.8970 C   0  0  0  0  0  0  0  0  0  0  0  0
    9.0118  -15.8231   23.7262 N   0  0  0  0  0  0  0  0  0  0  0  0
   10.1611  -16.6800   24.0484 C   0  0  1  0  0  0  0  0  0  0  0  0
   11.3356  -16.1123   23.3262 C   0  0  0  0  0  0  0  0  0  0  0  0
   12.6142  -16.7862   23.5265 C   0  0  0  0  0  0  0  0  0  0  0  0
   13.6361  -16.2131   23.8998 O   0  0  0  0  0  0  0  0  0  0  0  0
   10.3358  -16.7177   25.5255 C   0  0  0  0  0  0  0  0  0  0  0  0
    9.8121  -15.8199   26.2688 O   0  0  0  0  0  0  0  0  0  0  0  0
   12.7165  -18.1717   23.2874 O   0  0  0  0  0  0  0  0  0  0  0  0
   11.0478  -17.6873   26.1814 O   0  0  0  0  0  0  0  0  0  0  0  0
  2  1  1  6
  2  3  1  0
  4  3  1  0
  4  8  1  0
  5  4  2  0
  6  2  1  0
  6  7  2  0
  9 10  1  0
 10 20  2  0
 10 11  1  0
 11 12  2  0
 12 13  1  0
 13 14  1  0
 15 14  1  1
 15 16  1  0
 16  6  1  0
 17 15  1  0
 18 17  2  0
 19 13  2  0
 20 19  1  0
 21 17  1  0
 22 21  1  0
 22 23  1  6
 23 24  1  0
 24 28  1  0
 24 25  2  0
 26 22  1  0
 27 26  2  0
 29 26  1  0
M  END
$$$$
