DYD.pdb
     RDKit          3D

 29 29  0  0  1  0  0  0  0  0999 V2000
   10.6733  -16.8260   18.7642 N   0  0  0  0  0  0  0  0  0  0  0  0
    9.6133  -17.1472   19.6757 C   0  0  1  0  0  0  0  0  0  0  0  0
    9.6903  -18.6253   20.0492 C   0  0  0  0  0  0  0  0  0  0  0  0
    9.7304  -19.4600   18.8241 C   0  0  0  0  0  0  0  0  0  0  0  0
   10.2074  -20.6094   18.8693 O   0  0  0  0  0  0  0  0  0  0  0  0
    9.7348  -16.3773   20.9439 C   0  0  0  0  0  0  0  0  0  0  0  0
   10.8824  -16.1572   21.4092 O   0  0  0  0  0  0  0  0  0  0  0  0
    9.2259  -18.9202   17.6511 O   0  0  0  0  0  0  0  0  0  0  0  0
    6.8096  -11.5172   27.7279 O   0  0  0  0  0  0  0  0  0  0  0  0
    6.9073  -12.2906   26.5752 C   0  0  0  0  0  0  0  0  0  0  0  0
    6.3783  -13.5631   26.5238 C   0  0  0  0  0  0  0  0  0  0  0  0
    6.5079  -14.2838   25.3468 C   0  0  0  0  0  0  0  0  0  0  0  0
    7.1457  -13.7498   24.2573 C   0  0  0  0  0  0  0  0  0  0  0  0
    7.2719  -14.5347   23.0318 C   0  0  0  0  0  0  0  0  0  0  0  0
    8.6449  -15.1581   22.8461 C   0  0  2  0  0  0  0  0  0  0  0  0
    8.5625  -15.9108   21.5974 N   0  0  0  0  0  0  0  0  0  0  0  0
    8.9403  -16.0830   23.9499 C   0  0  0  0  0  0  0  0  0  0  0  0
    8.2740  -17.1620   24.0672 O   0  0  0  0  0  0  0  0  0  0  0  0
    7.6747  -12.4752   24.3109 C   0  0  0  0  0  0  0  0  0  0  0  0
    7.5491  -11.7615   25.4690 C   0  0  0  0  0  0  0  0  0  0  0  0
    9.9467  -15.8515   24.9233 N   0  0  0  0  0  0  0  0  0  0  0  0
   10.2001  -16.8504   25.9707 C   0  0  1  0  0  0  0  0  0  0  0  0
   11.5933  -17.3414   25.7677 C   0  0  0  0  0  0  0  0  0  0  0  0
   11.8321  -18.1582   24.5824 C   0  0  0  0  0  0  0  0  0  0  0  0
   11.1081  -19.0913   24.2400 O   0  0  0  0  0  0  0  0  0  0  0  0
    9.9820  -16.2207   27.3010 C   0  0  0  0  0  0  0  0  0  0  0  0
   10.1002  -16.9035   28.3746 O   0  0  0  0  0  0  0  0  0  0  0  0
   12.9468  -17.8878   23.7629 O   0  0  0  0  0  0  0  0  0  0  0  0
    9.6496  -14.9025   27.4718 O   0  0  0  0  0  0  0  0  0  0  0  0
  2  1  1  6
  2  3  1  0
  4  3  1  0
  4  8  1  0
  5  4  2  0
  6  2  1  0
  6  7  2  0
  9 10  1  0
 10 20  2  0
 10 11  1  0
 11 12  2  0
 12 13  1  0
 13 14  1  0
 15 14  1  1
 15 16  1  0
 16  6  1  0
 17 15  1  0
 18 17  2  0
 19 13  2  0
 20 19  1  0
 21 17  1  0
 22 21  1  0
 22 23  1  1
 23 24  1  0
 24 28  1  0
 24 25  2  0
 26 22  1  0
 27 26  2  0
 29 26  1  0
M  END
$$$$
