DYD.pdb
     RDKit          3D

 29 29  0  0  1  0  0  0  0  0999 V2000
    8.9900  -15.8733   19.3378 N   0  0  0  0  0  0  0  0  0  0  0  0
    8.7826  -16.6782   20.5069 C   0  0  1  0  0  0  0  0  0  0  0  0
    9.2692  -18.1005   20.2416 C   0  0  0  0  0  0  0  0  0  0  0  0
    8.4781  -18.7151   19.1482 C   0  0  0  0  0  0  0  0  0  0  0  0
    9.0166  -18.9613   18.0526 O   0  0  0  0  0  0  0  0  0  0  0  0
    9.5647  -16.1662   21.6652 C   0  0  0  0  0  0  0  0  0  0  0  0
   10.7446  -15.7754   21.4719 O   0  0  0  0  0  0  0  0  0  0  0  0
    7.1427  -18.9986   19.3899 O   0  0  0  0  0  0  0  0  0  0  0  0
   10.8732  -14.5329   30.2720 O   0  0  0  0  0  0  0  0  0  0  0  0
   10.3252  -14.7759   29.0161 C   0  0  0  0  0  0  0  0  0  0  0  0
    9.9324  -16.0442   28.6432 C   0  0  0  0  0  0  0  0  0  0  0  0
    9.3934  -16.2221   27.3786 C   0  0  0  0  0  0  0  0  0  0  0  0
    9.2520  -15.1668   26.5152 C   0  0  0  0  0  0  0  0  0  0  0  0
    8.6854  -15.3853   25.1867 C   0  0  0  0  0  0  0  0  0  0  0  0
    9.7264  -15.6912   24.1231 C   0  0  2  0  0  0  0  0  0  0  0  0
    8.9684  -16.1294   22.9544 N   0  0  0  0  0  0  0  0  0  0  0  0
   10.6054  -16.7829   24.5667 C   0  0  0  0  0  0  0  0  0  0  0  0
   10.1432  -17.9649   24.6719 O   0  0  0  0  0  0  0  0  0  0  0  0
    9.6459  -13.8975   26.8908 C   0  0  0  0  0  0  0  0  0  0  0  0
   10.1775  -13.7177   28.1363 C   0  0  0  0  0  0  0  0  0  0  0  0
   11.9747  -16.6072   24.8955 N   0  0  0  0  0  0  0  0  0  0  0  0
   12.8098  -17.7734   25.2140 C   0  0  1  0  0  0  0  0  0  0  0  0
   13.9794  -17.7291   24.2901 C   0  0  0  0  0  0  0  0  0  0  0  0
   14.7157  -16.4709   24.2280 C   0  0  0  0  0  0  0  0  0  0  0  0
   14.4152  -15.4719   24.8790 O   0  0  0  0  0  0  0  0  0  0  0  0
   13.1884  -17.7176   26.6518 C   0  0  0  0  0  0  0  0  0  0  0  0
   13.8714  -18.6570   27.1848 O   0  0  0  0  0  0  0  0  0  0  0  0
   15.8395  -16.3622   23.3838 O   0  0  0  0  0  0  0  0  0  0  0  0
   12.8460  -16.6875   27.4878 O   0  0  0  0  0  0  0  0  0  0  0  0
  2  1  1  6
  2  3  1  0
  4  3  1  0
  4  8  1  0
  5  4  2  0
  6  2  1  0
  6  7  2  0
  9 10  1  0
 10 20  2  0
 10 11  1  0
 11 12  2  0
 12 13  1  0
 13 14  1  0
 15 14  1  1
 15 16  1  0
 16  6  1  0
 17 15  1  0
 18 17  2  0
 19 13  2  0
 20 19  1  0
 21 17  1  0
 22 21  1  0
 22 23  1  6
 23 24  1  0
 24 28  1  0
 24 25  2  0
 26 22  1  0
 27 26  2  0
 29 26  1  0
M  END
$$$$
