FKT.pdb
     RDKit          3D

 28 28  0  0  1  0  0  0  0  0999 V2000
    6.7014  -16.7912   22.1679 N   0  0  0  0  0  0  0  0  0  0  0  0
    7.9829  -16.7126   21.4718 C   0  0  1  0  0  0  0  0  0  0  0  0
    8.6434  -15.4460   22.0296 C   0  0  0  0  0  0  0  0  0  0  0  0
    8.2969  -14.3012   21.1742 C   0  0  0  0  0  0  0  0  0  0  0  0
    8.5379  -14.2095   19.8262 C   0  0  0  0  0  0  0  0  0  0  0  0
    8.1885  -13.1215   19.0575 C   0  0  0  0  0  0  0  0  0  0  0  0
    7.5609  -12.0481   19.6405 C   0  0  0  0  0  0  0  0  0  0  0  0
    7.2984  -12.1015   21.0071 C   0  0  0  0  0  0  0  0  0  0  0  0
    7.6561  -13.2005   21.7590 C   0  0  0  0  0  0  0  0  0  0  0  0
    8.8018  -17.8918   21.8259 C   0  0  0  0  0  0  0  0  0  0  0  0
    8.6507  -18.5183   22.9219 O   0  0  0  0  0  0  0  0  0  0  0  0
    9.8074  -18.4029   20.9685 N   0  0  0  0  0  0  0  0  0  0  0  0
   10.6033  -19.5510   21.2332 C   0  0  1  0  0  0  0  0  0  0  0  0
   11.3037  -20.1156   20.0234 C   0  0  0  0  0  0  0  0  0  0  0  0
   12.0012  -21.4291   20.3551 C   0  0  0  0  0  0  0  0  0  0  0  0
   12.5782  -21.9869   19.0907 C   0  0  0  0  0  0  0  0  0  0  0  0
   13.5623  -23.1065   19.3574 C   0  0  0  0  0  0  0  0  0  0  0  0
   12.9557  -24.4070   19.2094 N   0  0  0  0  0  0  0  0  0  0  0  0
   11.6386  -19.2316   22.2326 C   0  0  0  0  0  0  0  0  0  0  0  0
   12.3166  -18.1592   22.0339 O   0  0  0  0  0  0  0  0  0  0  0  0
   11.6275  -18.4497   26.0009 C   0  0  0  0  0  0  0  0  0  0  0  0
   12.4579  -19.6792   25.7621 C   0  0  1  0  0  0  0  0  0  0  0  0
   11.8136  -20.8565   26.0520 O   0  0  0  0  0  0  0  0  0  0  0  0
   12.9962  -19.6150   24.3414 C   0  0  2  0  0  0  0  0  0  0  0  0
   11.9697  -19.9600   23.3777 N   0  0  0  0  0  0  0  0  0  0  0  0
   14.1585  -20.4929   24.1323 C   0  0  0  0  0  0  0  0  0  0  0  0
   14.1326  -21.4523   23.3023 O   0  0  0  0  0  0  0  0  0  0  0  0
   15.3183  -20.2928   24.8409 O   0  0  0  0  0  0  0  0  0  0  0  0
  2  1  1  1
  2 10  1  0
  2  3  1  0
  3  4  1  0
  4  5  2  0
  4  9  1  0
  5  6  1  0
  6  7  2  0
  7  8  1  0
  9  8  2  0
 10 11  2  0
 12 13  1  0
 12 10  1  0
 13 14  1  6
 15 14  1  0
 16 15  1  0
 17 18  1  0
 17 16  1  0
 19 13  1  0
 20 19  2  0
 22 23  1  0
 22 21  1  6
 24 22  1  0
 24 25  1  6
 25 19  1  0
 26 28  1  0
 26 24  1  0
 27 26  2  0
M  END
$$$$
