FKT.pdb
     RDKit          3D

 28 28  0  0  1  0  0  0  0  0999 V2000
    6.4123  -17.4608   25.9711 N   0  0  0  0  0  0  0  0  0  0  0  0
    6.6737  -16.1452   25.3934 C   0  0  1  0  0  0  0  0  0  0  0  0
    7.7255  -15.5233   26.3200 C   0  0  0  0  0  0  0  0  0  0  0  0
    7.3479  -14.1339   26.6189 C   0  0  0  0  0  0  0  0  0  0  0  0
    6.3451  -13.4284   26.0023 C   0  0  0  0  0  0  0  0  0  0  0  0
    6.0159  -12.1291   26.3186 C   0  0  0  0  0  0  0  0  0  0  0  0
    6.7102  -11.4702   27.3033 C   0  0  0  0  0  0  0  0  0  0  0  0
    7.7362  -12.1511   27.9536 C   0  0  0  0  0  0  0  0  0  0  0  0
    8.0500  -13.4522   27.6222 C   0  0  0  0  0  0  0  0  0  0  0  0
    7.2469  -16.3134   24.0407 C   0  0  0  0  0  0  0  0  0  0  0  0
    7.7910  -17.3992   23.6646 O   0  0  0  0  0  0  0  0  0  0  0  0
    7.2272  -15.2778   23.0738 N   0  0  0  0  0  0  0  0  0  0  0  0
    7.7981  -15.3601   21.7741 C   0  0  1  0  0  0  0  0  0  0  0  0
    7.6046  -14.1262   20.9298 C   0  0  0  0  0  0  0  0  0  0  0  0
    8.1032  -14.3497   19.5073 C   0  0  0  0  0  0  0  0  0  0  0  0
    7.8217  -13.1129   18.7112 C   0  0  0  0  0  0  0  0  0  0  0  0
    8.0557  -13.3219   17.2297 C   0  0  0  0  0  0  0  0  0  0  0  0
    9.2950  -14.0130   16.9697 N   0  0  0  0  0  0  0  0  0  0  0  0
    9.2484  -15.6046   21.8712 C   0  0  0  0  0  0  0  0  0  0  0  0
    9.9179  -14.7982   22.6133 O   0  0  0  0  0  0  0  0  0  0  0  0
   11.4933  -18.4607   23.1912 C   0  0  0  0  0  0  0  0  0  0  0  0
   11.7250  -18.2762   21.7179 C   0  0  1  0  0  0  0  0  0  0  0  0
   11.0650  -19.1847   20.9280 O   0  0  0  0  0  0  0  0  0  0  0  0
   11.4134  -16.8290   21.3701 C   0  0  2  0  0  0  0  0  0  0  0  0
    9.9843  -16.6167   21.2502 N   0  0  0  0  0  0  0  0  0  0  0  0
   12.0650  -16.3890   20.1263 C   0  0  0  0  0  0  0  0  0  0  0  0
   11.4028  -16.1551   19.0695 O   0  0  0  0  0  0  0  0  0  0  0  0
   13.4272  -16.2175   20.0773 O   0  0  0  0  0  0  0  0  0  0  0  0
  2  1  1  1
  2 10  1  0
  2  3  1  0
  3  4  1  0
  4  5  2  0
  4  9  1  0
  5  6  1  0
  6  7  2  0
  7  8  1  0
  9  8  2  0
 10 11  2  0
 12 13  1  0
 12 10  1  0
 13 14  1  1
 15 14  1  0
 16 15  1  0
 17 18  1  0
 17 16  1  0
 19 13  1  0
 20 19  2  0
 22 23  1  0
 22 21  1  1
 24 22  1  0
 24 25  1  6
 25 19  1  0
 26 28  1  0
 26 24  1  0
 27 26  2  0
M  END
$$$$
