FKT.pdb
     RDKit          3D

 28 28  0  0  1  0  0  0  0  0999 V2000
    6.3220  -17.1334   25.9023 N   0  0  0  0  0  0  0  0  0  0  0  0
    6.6985  -15.8739   25.2660 C   0  0  1  0  0  0  0  0  0  0  0  0
    7.7615  -15.2784   26.1972 C   0  0  0  0  0  0  0  0  0  0  0  0
    7.3436  -13.9306   26.6111 C   0  0  0  0  0  0  0  0  0  0  0  0
    7.3158  -13.4640   27.9015 C   0  0  0  0  0  0  0  0  0  0  0  0
    6.9261  -12.1892   28.2472 C   0  0  0  0  0  0  0  0  0  0  0  0
    6.5365  -11.3067   27.2698 C   0  0  0  0  0  0  0  0  0  0  0  0
    6.5502  -11.7413   25.9469 C   0  0  0  0  0  0  0  0  0  0  0  0
    6.9442  -13.0220   25.6217 C   0  0  0  0  0  0  0  0  0  0  0  0
    7.3028  -16.1574   23.9465 C   0  0  0  0  0  0  0  0  0  0  0  0
    7.7405  -17.3095   23.6342 O   0  0  0  0  0  0  0  0  0  0  0  0
    7.4332  -15.1660   22.9425 N   0  0  0  0  0  0  0  0  0  0  0  0
    8.1029  -15.3415   21.7006 C   0  0  1  0  0  0  0  0  0  0  0  0
    8.0754  -14.1314   20.8019 C   0  0  0  0  0  0  0  0  0  0  0  0
    8.8224  -14.3962   19.5004 C   0  0  0  0  0  0  0  0  0  0  0  0
    8.0940  -13.7020   18.3912 C   0  0  0  0  0  0  0  0  0  0  0  0
    8.7394  -13.9466   17.0433 C   0  0  0  0  0  0  0  0  0  0  0  0
    7.9971  -13.3339   15.9687 N   0  0  0  0  0  0  0  0  0  0  0  0
    9.5171  -15.6875   21.9308 C   0  0  0  0  0  0  0  0  0  0  0  0
   10.1522  -14.9682   22.7842 O   0  0  0  0  0  0  0  0  0  0  0  0
   11.4464  -18.3831   23.6135 C   0  0  0  0  0  0  0  0  0  0  0  0
   11.7896  -18.4329   22.1514 C   0  0  1  0  0  0  0  0  0  0  0  0
   11.0970  -19.3847   21.4445 O   0  0  0  0  0  0  0  0  0  0  0  0
   11.6426  -17.0292   21.5854 C   0  0  2  0  0  0  0  0  0  0  0  0
   10.2514  -16.7122   21.3290 N   0  0  0  0  0  0  0  0  0  0  0  0
   12.4111  -16.8312   20.3462 C   0  0  0  0  0  0  0  0  0  0  0  0
   11.8497  -16.7909   19.2090 O   0  0  0  0  0  0  0  0  0  0  0  0
   13.7761  -16.6825   20.3900 O   0  0  0  0  0  0  0  0  0  0  0  0
  2  1  1  1
  2 10  1  0
  2  3  1  0
  3  4  1  0
  4  5  2  0
  4  9  1  0
  5  6  1  0
  6  7  2  0
  7  8  1  0
  9  8  2  0
 10 11  2  0
 12 13  1  0
 12 10  1  0
 13 14  1  6
 15 14  1  0
 16 15  1  0
 17 18  1  0
 17 16  1  0
 19 13  1  0
 20 19  2  0
 22 23  1  0
 22 21  1  1
 24 22  1  0
 24 25  1  6
 25 19  1  0
 26 28  1  0
 26 24  1  0
 27 26  2  0
M  END
$$$$
