FKT.pdb
     RDKit          3D

 28 28  0  0  1  0  0  0  0  0999 V2000
    8.5711  -15.9609   26.1378 N   0  0  0  0  0  0  0  0  0  0  0  0
    7.3047  -16.5513   25.7130 C   0  0  1  0  0  0  0  0  0  0  0  0
    6.2372  -15.7480   26.4660 C   0  0  0  0  0  0  0  0  0  0  0  0
    6.7131  -14.3700   26.6586 C   0  0  0  0  0  0  0  0  0  0  0  0
    7.9753  -14.0095   27.0590 C   0  0  0  0  0  0  0  0  0  0  0  0
    8.3853  -12.7045   27.2188 C   0  0  0  0  0  0  0  0  0  0  0  0
    7.5063  -11.6787   26.9716 C   0  0  0  0  0  0  0  0  0  0  0  0
    6.2148  -12.0022   26.5633 C   0  0  0  0  0  0  0  0  0  0  0  0
    5.8243  -13.3156   26.4090 C   0  0  0  0  0  0  0  0  0  0  0  0
    7.1378  -16.3491   24.2577 C   0  0  0  0  0  0  0  0  0  0  0  0
    6.2410  -16.9515   23.5875 O   0  0  0  0  0  0  0  0  0  0  0  0
    7.9641  -15.4707   23.5137 N   0  0  0  0  0  0  0  0  0  0  0  0
    8.2726  -15.6098   22.1327 C   0  0  1  0  0  0  0  0  0  0  0  0
    8.2098  -14.3240   21.3481 C   0  0  0  0  0  0  0  0  0  0  0  0
    8.3594  -14.5838   19.8541 C   0  0  0  0  0  0  0  0  0  0  0  0
    8.1657  -13.2873   19.1301 C   0  0  0  0  0  0  0  0  0  0  0  0
    8.0650  -13.4796   17.6314 C   0  0  0  0  0  0  0  0  0  0  0  0
    7.7018  -12.2597   16.9524 N   0  0  0  0  0  0  0  0  0  0  0  0
    9.6301  -16.1602   21.9687 C   0  0  0  0  0  0  0  0  0  0  0  0
   10.5416  -15.6766   22.7331 O   0  0  0  0  0  0  0  0  0  0  0  0
   11.2031  -19.4187   22.7640 C   0  0  0  0  0  0  0  0  0  0  0  0
   11.3341  -19.2259   21.2794 C   0  0  1  0  0  0  0  0  0  0  0  0
   10.3923  -19.8988   20.5409 O   0  0  0  0  0  0  0  0  0  0  0  0
   11.3710  -17.7315   21.0004 C   0  0  2  0  0  0  0  0  0  0  0  0
   10.0441  -17.1528   21.0771 N   0  0  0  0  0  0  0  0  0  0  0  0
   11.9538  -17.4113   19.6877 C   0  0  0  0  0  0  0  0  0  0  0  0
   13.1961  -17.5316   19.4589 O   0  0  0  0  0  0  0  0  0  0  0  0
   11.1556  -16.9675   18.6614 O   0  0  0  0  0  0  0  0  0  0  0  0
  2  1  1  1
  2 10  1  0
  2  3  1  0
  3  4  1  0
  4  5  2  0
  4  9  1  0
  5  6  1  0
  6  7  2  0
  7  8  1  0
  9  8  2  0
 10 11  2  0
 12 13  1  0
 12 10  1  0
 13 14  1  6
 15 14  1  0
 16 15  1  0
 17 18  1  0
 17 16  1  0
 19 13  1  0
 20 19  2  0
 22 23  1  0
 22 21  1  1
 24 22  1  0
 24 25  1  6
 25 19  1  0
 26 28  1  0
 26 24  1  0
 27 26  2  0
M  END
$$$$
