FKT.pdb
     RDKit          3D

 28 28  0  0  1  0  0  0  0  0999 V2000
    5.3973  -17.4542   25.4140 N   0  0  0  0  0  0  0  0  0  0  0  0
    6.1028  -16.1845   25.2618 C   0  0  1  0  0  0  0  0  0  0  0  0
    6.7912  -15.9655   26.6146 C   0  0  0  0  0  0  0  0  0  0  0  0
    7.1617  -14.5486   26.7466 C   0  0  0  0  0  0  0  0  0  0  0  0
    8.4399  -14.0659   26.8757 C   0  0  0  0  0  0  0  0  0  0  0  0
    8.7462  -12.7279   26.9875 C   0  0  0  0  0  0  0  0  0  0  0  0
    7.7392  -11.7943   26.9724 C   0  0  0  0  0  0  0  0  0  0  0  0
    6.4273  -12.2432   26.8433 C   0  0  0  0  0  0  0  0  0  0  0  0
    6.1417  -13.5876   26.7324 C   0  0  0  0  0  0  0  0  0  0  0  0
    7.1274  -16.3213   24.2044 C   0  0  0  0  0  0  0  0  0  0  0  0
    7.7393  -17.4150   23.9901 O   0  0  0  0  0  0  0  0  0  0  0  0
    7.4946  -15.2448   23.3594 N   0  0  0  0  0  0  0  0  0  0  0  0
    8.4724  -15.3093   22.3290 C   0  0  1  0  0  0  0  0  0  0  0  0
    8.4987  -14.1074   21.4194 C   0  0  0  0  0  0  0  0  0  0  0  0
    7.5608  -14.2950   20.2333 C   0  0  0  0  0  0  0  0  0  0  0  0
    7.6336  -13.0676   19.3782 C   0  0  0  0  0  0  0  0  0  0  0  0
    8.5509  -13.2546   18.1879 C   0  0  0  0  0  0  0  0  0  0  0  0
    8.4532  -14.5824   17.6326 N   0  0  0  0  0  0  0  0  0  0  0  0
    9.8181  -15.4488   22.9141 C   0  0  0  0  0  0  0  0  0  0  0  0
   10.1504  -14.5824   23.8019 O   0  0  0  0  0  0  0  0  0  0  0  0
   11.6190  -17.9663   25.1143 C   0  0  0  0  0  0  0  0  0  0  0  0
   12.3366  -17.8975   23.7958 C   0  0  1  0  0  0  0  0  0  0  0  0
   12.0300  -18.9231   22.9359 O   0  0  0  0  0  0  0  0  0  0  0  0
   12.1012  -16.5169   23.2034 C   0  0  2  0  0  0  0  0  0  0  0  0
   10.7789  -16.4184   22.6174 N   0  0  0  0  0  0  0  0  0  0  0  0
   13.1002  -16.1560   22.1850 C   0  0  0  0  0  0  0  0  0  0  0  0
   12.7861  -15.9938   20.9664 O   0  0  0  0  0  0  0  0  0  0  0  0
   14.4178  -15.9828   22.5332 O   0  0  0  0  0  0  0  0  0  0  0  0
  2  1  1  1
  2 10  1  0
  2  3  1  0
  3  4  1  0
  4  5  2  0
  4  9  1  0
  5  6  1  0
  6  7  2  0
  7  8  1  0
  9  8  2  0
 10 11  2  0
 12 13  1  0
 12 10  1  0
 13 14  1  1
 15 14  1  0
 16 15  1  0
 17 18  1  0
 17 16  1  0
 19 13  1  0
 20 19  2  0
 22 23  1  0
 22 21  1  1
 24 22  1  0
 24 25  1  6
 25 19  1  0
 26 28  1  0
 26 24  1  0
 27 26  2  0
M  END
$$$$
