FKT.pdb
     RDKit          3D

 28 28  0  0  1  0  0  0  0  0999 V2000
    5.7548  -17.8797   25.3616 N   0  0  0  0  0  0  0  0  0  0  0  0
    6.0851  -16.4627   25.2349 C   0  0  1  0  0  0  0  0  0  0  0  0
    6.7436  -16.1030   26.5724 C   0  0  0  0  0  0  0  0  0  0  0  0
    6.9082  -14.6440   26.6551 C   0  0  0  0  0  0  0  0  0  0  0  0
    5.8901  -13.7302   26.7635 C   0  0  0  0  0  0  0  0  0  0  0  0
    6.0870  -12.3698   26.8481 C   0  0  0  0  0  0  0  0  0  0  0  0
    7.3632  -11.8630   26.8259 C   0  0  0  0  0  0  0  0  0  0  0  0
    8.4249  -12.7574   26.7165 C   0  0  0  0  0  0  0  0  0  0  0  0
    8.2063  -14.1163   26.6333 C   0  0  0  0  0  0  0  0  0  0  0  0
    7.0645  -16.2877   24.1410 C   0  0  0  0  0  0  0  0  0  0  0  0
    7.9967  -17.1248   23.9246 O   0  0  0  0  0  0  0  0  0  0  0  0
    7.0293  -15.1778   23.2610 N   0  0  0  0  0  0  0  0  0  0  0  0
    7.8791  -14.9981   22.1351 C   0  0  1  0  0  0  0  0  0  0  0  0
    7.7545  -13.6511   21.4696 C   0  0  0  0  0  0  0  0  0  0  0  0
    8.7573  -13.5054   20.3315 C   0  0  0  0  0  0  0  0  0  0  0  0
    8.0383  -13.7405   19.0390 C   0  0  0  0  0  0  0  0  0  0  0  0
    8.9789  -13.7297   17.8522 C   0  0  0  0  0  0  0  0  0  0  0  0
    8.2813  -13.9384   16.6069 N   0  0  0  0  0  0  0  0  0  0  0  0
    9.2890  -15.1652   22.5314 C   0  0  0  0  0  0  0  0  0  0  0  0
    9.7449  -14.3312   23.3950 O   0  0  0  0  0  0  0  0  0  0  0  0
   11.4682  -17.7101   24.3721 C   0  0  0  0  0  0  0  0  0  0  0  0
   11.9396  -17.6100   22.9487 C   0  0  1  0  0  0  0  0  0  0  0  0
   11.4914  -18.6224   22.1367 O   0  0  0  0  0  0  0  0  0  0  0  0
   11.5940  -16.2210   22.4351 C   0  0  2  0  0  0  0  0  0  0  0  0
   10.1919  -16.1299   22.0781 N   0  0  0  0  0  0  0  0  0  0  0  0
   12.4065  -15.8244   21.2741 C   0  0  0  0  0  0  0  0  0  0  0  0
   11.9152  -15.7498   20.1066 O   0  0  0  0  0  0  0  0  0  0  0  0
   13.7374  -15.5201   21.4273 O   0  0  0  0  0  0  0  0  0  0  0  0
  2  1  1  1
  2 10  1  0
  2  3  1  0
  3  4  1  0
  4  5  2  0
  4  9  1  0
  5  6  1  0
  6  7  2  0
  7  8  1  0
  9  8  2  0
 10 11  2  0
 12 13  1  0
 12 10  1  0
 13 14  1  1
 15 14  1  0
 16 15  1  0
 17 18  1  0
 17 16  1  0
 19 13  1  0
 20 19  2  0
 22 23  1  0
 22 21  1  1
 24 22  1  0
 24 25  1  6
 25 19  1  0
 26 28  1  0
 26 24  1  0
 27 26  2  0
M  END
$$$$
