FKT.pdb
     RDKit          3D

 28 28  0  0  1  0  0  0  0  0999 V2000
    5.8310  -17.9765   24.6721 N   0  0  0  0  0  0  0  0  0  0  0  0
    6.0595  -16.5357   24.6018 C   0  0  1  0  0  0  0  0  0  0  0  0
    6.6497  -16.1754   25.9706 C   0  0  0  0  0  0  0  0  0  0  0  0
    6.5015  -14.7300   26.1975 C   0  0  0  0  0  0  0  0  0  0  0  0
    5.3497  -14.0976   26.5935 C   0  0  0  0  0  0  0  0  0  0  0  0
    5.2545  -12.7401   26.8046 C   0  0  0  0  0  0  0  0  0  0  0  0
    6.3565  -11.9421   26.6178 C   0  0  0  0  0  0  0  0  0  0  0  0
    7.5454  -12.5452   26.2155 C   0  0  0  0  0  0  0  0  0  0  0  0
    7.6199  -13.9066   26.0097 C   0  0  0  0  0  0  0  0  0  0  0  0
    7.0553  -16.2522   23.5461 C   0  0  0  0  0  0  0  0  0  0  0  0
    7.9356  -17.1011   23.1983 O   0  0  0  0  0  0  0  0  0  0  0  0
    7.0946  -15.0179   22.8513 N   0  0  0  0  0  0  0  0  0  0  0  0
    7.8587  -14.7616   21.6799 C   0  0  1  0  0  0  0  0  0  0  0  0
    7.7075  -13.3658   21.1309 C   0  0  0  0  0  0  0  0  0  0  0  0
    8.5583  -13.1712   19.8817 C   0  0  0  0  0  0  0  0  0  0  0  0
    7.7970  -13.7040   18.7073 C   0  0  0  0  0  0  0  0  0  0  0  0
    8.5963  -13.6218   17.4237 C   0  0  0  0  0  0  0  0  0  0  0  0
    7.8787  -14.1780   16.3027 N   0  0  0  0  0  0  0  0  0  0  0  0
    9.2916  -14.9756   21.9515 C   0  0  0  0  0  0  0  0  0  0  0  0
   10.1089  -14.6365   21.0208 O   0  0  0  0  0  0  0  0  0  0  0  0
   11.2401  -15.2515   25.6719 C   0  0  0  0  0  0  0  0  0  0  0  0
   11.5316  -16.3549   24.6942 C   0  0  1  0  0  0  0  0  0  0  0  0
   10.8783  -17.5318   24.9651 O   0  0  0  0  0  0  0  0  0  0  0  0
   11.2708  -15.8236   23.2935 C   0  0  2  0  0  0  0  0  0  0  0  0
    9.8689  -15.5041   23.1086 N   0  0  0  0  0  0  0  0  0  0  0  0
   11.6865  -16.7640   22.2408 C   0  0  0  0  0  0  0  0  0  0  0  0
   10.8584  -17.2493   21.4109 O   0  0  0  0  0  0  0  0  0  0  0  0
   13.0014  -17.1458   22.1283 O   0  0  0  0  0  0  0  0  0  0  0  0
  2  1  1  1
  2 10  1  0
  2  3  1  0
  3  4  1  0
  4  5  2  0
  4  9  1  0
  5  6  1  0
  6  7  2  0
  7  8  1  0
  9  8  2  0
 10 11  2  0
 12 13  1  0
 12 10  1  0
 13 14  1  1
 15 14  1  0
 16 15  1  0
 17 18  1  0
 17 16  1  0
 19 13  1  0
 20 19  2  0
 22 23  1  0
 22 21  1  1
 24 22  1  0
 24 25  1  1
 25 19  1  0
 26 28  1  0
 26 24  1  0
 27 26  2  0
M  END
$$$$
