FKT.pdb
     RDKit          3D

 28 28  0  0  1  0  0  0  0  0999 V2000
    5.8300  -17.6129   25.2390 N   0  0  0  0  0  0  0  0  0  0  0  0
    6.2065  -16.2183   25.0242 C   0  0  1  0  0  0  0  0  0  0  0  0
    7.0101  -15.8426   26.2751 C   0  0  0  0  0  0  0  0  0  0  0  0
    6.9256  -14.3900   26.4878 C   0  0  0  0  0  0  0  0  0  0  0  0
    7.9924  -13.5293   26.5564 C   0  0  0  0  0  0  0  0  0  0  0  0
    7.8702  -12.1710   26.7478 C   0  0  0  0  0  0  0  0  0  0  0  0
    6.6235  -11.6107   26.8816 C   0  0  0  0  0  0  0  0  0  0  0  0
    5.5142  -12.4502   26.8182 C   0  0  0  0  0  0  0  0  0  0  0  0
    5.6582  -13.8079   26.6255 C   0  0  0  0  0  0  0  0  0  0  0  0
    7.0783  -16.1279   23.8332 C   0  0  0  0  0  0  0  0  0  0  0  0
    7.8253  -17.0885   23.4648 O   0  0  0  0  0  0  0  0  0  0  0  0
    7.1387  -14.9670   23.0231 N   0  0  0  0  0  0  0  0  0  0  0  0
    7.8467  -14.8618   21.7945 C   0  0  1  0  0  0  0  0  0  0  0  0
    7.8006  -13.4930   21.1643 C   0  0  0  0  0  0  0  0  0  0  0  0
    8.6606  -13.4370   19.9077 C   0  0  0  0  0  0  0  0  0  0  0  0
    7.7914  -13.7506   18.7292 C   0  0  0  0  0  0  0  0  0  0  0  0
    8.5511  -13.6696   17.4217 C   0  0  0  0  0  0  0  0  0  0  0  0
    7.7008  -13.9262   16.2850 N   0  0  0  0  0  0  0  0  0  0  0  0
    9.2657  -15.2070   21.9950 C   0  0  0  0  0  0  0  0  0  0  0  0
    9.8976  -14.5387   22.8912 O   0  0  0  0  0  0  0  0  0  0  0  0
   11.1982  -18.1880   23.3174 C   0  0  0  0  0  0  0  0  0  0  0  0
   11.5782  -17.9785   21.8787 C   0  0  1  0  0  0  0  0  0  0  0  0
   10.9325  -18.8134   21.0005 O   0  0  0  0  0  0  0  0  0  0  0  0
   11.4021  -16.5030   21.5555 C   0  0  2  0  0  0  0  0  0  0  0  0
   10.0076  -16.1818   21.3237 N   0  0  0  0  0  0  0  0  0  0  0  0
   12.1881  -16.0781   20.3864 C   0  0  0  0  0  0  0  0  0  0  0  0
   11.6535  -15.8952   19.2503 O   0  0  0  0  0  0  0  0  0  0  0  0
   13.5408  -15.8654   20.4972 O   0  0  0  0  0  0  0  0  0  0  0  0
  2  1  1  1
  2 10  1  0
  2  3  1  0
  3  4  1  0
  4  5  2  0
  4  9  1  0
  5  6  1  0
  6  7  2  0
  7  8  1  0
  9  8  2  0
 10 11  2  0
 12 13  1  0
 12 10  1  0
 13 14  1  1
 15 14  1  0
 16 15  1  0
 17 18  1  0
 17 16  1  0
 19 13  1  0
 20 19  2  0
 22 23  1  0
 22 21  1  1
 24 22  1  0
 24 25  1  6
 25 19  1  0
 26 28  1  0
 26 24  1  0
 27 26  2  0
M  END
$$$$
