FKT.pdb
     RDKit          3D

 28 28  0  0  1  0  0  0  0  0999 V2000
    5.4087  -13.7503   25.5548 N   0  0  0  0  0  0  0  0  0  0  0  0
    6.3355  -14.2643   24.5499 C   0  0  1  0  0  0  0  0  0  0  0  0
    7.1693  -13.0443   24.1397 C   0  0  0  0  0  0  0  0  0  0  0  0
    7.3266  -13.0336   22.6777 C   0  0  0  0  0  0  0  0  0  0  0  0
    6.7602  -13.9304   21.8068 C   0  0  0  0  0  0  0  0  0  0  0  0
    6.9246  -13.8803   20.4404 C   0  0  0  0  0  0  0  0  0  0  0  0
    7.6933  -12.8885   19.8822 C   0  0  0  0  0  0  0  0  0  0  0  0
    8.2863  -11.9582   20.7319 C   0  0  0  0  0  0  0  0  0  0  0  0
    8.1089  -12.0259   22.0976 C   0  0  0  0  0  0  0  0  0  0  0  0
    7.2162  -15.2757   25.1729 C   0  0  0  0  0  0  0  0  0  0  0  0
    7.6268  -15.1716   26.3717 O   0  0  0  0  0  0  0  0  0  0  0  0
    7.6600  -16.4276   24.4773 N   0  0  0  0  0  0  0  0  0  0  0  0
    8.4488  -17.4695   25.0378 C   0  0  1  0  0  0  0  0  0  0  0  0
    8.9016  -18.5103   24.0456 C   0  0  0  0  0  0  0  0  0  0  0  0
    9.7310  -19.5932   24.7248 C   0  0  0  0  0  0  0  0  0  0  0  0
    8.7939  -20.5732   25.3606 C   0  0  0  0  0  0  0  0  0  0  0  0
    9.5306  -21.6907   26.0689 C   0  0  0  0  0  0  0  0  0  0  0  0
    8.6274  -22.5982   26.7335 N   0  0  0  0  0  0  0  0  0  0  0  0
    9.6564  -16.9081   25.6696 C   0  0  0  0  0  0  0  0  0  0  0  0
   10.5261  -16.3861   24.8821 O   0  0  0  0  0  0  0  0  0  0  0  0
   10.6520  -14.0084   27.5315 C   0  0  0  0  0  0  0  0  0  0  0  0
   10.9633  -15.1497   28.4581 C   0  0  1  0  0  0  0  0  0  0  0  0
   10.0342  -15.3350   29.4520 O   0  0  0  0  0  0  0  0  0  0  0  0
   11.2040  -16.3904   27.6124 C   0  0  2  0  0  0  0  0  0  0  0  0
    9.9673  -16.8744   27.0312 N   0  0  0  0  0  0  0  0  0  0  0  0
   11.8323  -17.4838   28.3707 C   0  0  0  0  0  0  0  0  0  0  0  0
   11.2758  -18.6169   28.4980 O   0  0  0  0  0  0  0  0  0  0  0  0
   13.0558  -17.3025   28.9687 O   0  0  0  0  0  0  0  0  0  0  0  0
  2  1  1  1
  2 10  1  0
  2  3  1  0
  3  4  1  0
  4  5  2  0
  4  9  1  0
  5  6  1  0
  6  7  2  0
  7  8  1  0
  9  8  2  0
 10 11  2  0
 12 13  1  0
 12 10  1  0
 13 14  1  6
 15 14  1  0
 16 15  1  0
 17 18  1  0
 17 16  1  0
 19 13  1  0
 20 19  2  0
 22 23  1  0
 22 21  1  6
 24 22  1  0
 24 25  1  1
 25 19  1  0
 26 28  1  0
 26 24  1  0
 27 26  2  0
M  END
$$$$
