FKT.pdb
     RDKit          3D

 28 28  0  0  1  0  0  0  0  0999 V2000
    6.6164  -17.2797   25.9195 N   0  0  0  0  0  0  0  0  0  0  0  0
    6.8262  -15.9885   25.2702 C   0  0  1  0  0  0  0  0  0  0  0  0
    7.8883  -15.2955   26.1324 C   0  0  0  0  0  0  0  0  0  0  0  0
    7.3590  -14.0112   26.6150 C   0  0  0  0  0  0  0  0  0  0  0  0
    7.8190  -13.3169   27.7057 C   0  0  0  0  0  0  0  0  0  0  0  0
    7.3012  -12.1099   28.1201 C   0  0  0  0  0  0  0  0  0  0  0  0
    6.2638  -11.5384   27.4250 C   0  0  0  0  0  0  0  0  0  0  0  0
    5.7675  -12.2116   26.3115 C   0  0  0  0  0  0  0  0  0  0  0  0
    6.3004  -13.4192   25.9129 C   0  0  0  0  0  0  0  0  0  0  0  0
    7.3636  -16.2097   23.9104 C   0  0  0  0  0  0  0  0  0  0  0  0
    7.9754  -17.2765   23.5880 O   0  0  0  0  0  0  0  0  0  0  0  0
    7.2317  -15.2497   22.8766 N   0  0  0  0  0  0  0  0  0  0  0  0
    7.8375  -15.3397   21.5934 C   0  0  1  0  0  0  0  0  0  0  0  0
    7.7078  -14.0937   20.7547 C   0  0  0  0  0  0  0  0  0  0  0  0
    8.3590  -14.2796   19.3896 C   0  0  0  0  0  0  0  0  0  0  0  0
    8.1459  -13.0292   18.5935 C   0  0  0  0  0  0  0  0  0  0  0  0
    7.9434  -13.3176   17.1207 C   0  0  0  0  0  0  0  0  0  0  0  0
    9.0336  -14.0808   16.5637 N   0  0  0  0  0  0  0  0  0  0  0  0
    9.2760  -15.6309   21.7304 C   0  0  0  0  0  0  0  0  0  0  0  0
    9.9351  -14.8940   22.5499 O   0  0  0  0  0  0  0  0  0  0  0  0
   11.4587  -18.2139   23.2804 C   0  0  0  0  0  0  0  0  0  0  0  0
   11.6727  -18.2695   21.7940 C   0  0  1  0  0  0  0  0  0  0  0  0
   10.9534  -19.2521   21.1599 O   0  0  0  0  0  0  0  0  0  0  0  0
   11.4282  -16.8782   21.2310 C   0  0  2  0  0  0  0  0  0  0  0  0
   10.0105  -16.6204   21.0725 N   0  0  0  0  0  0  0  0  0  0  0  0
   12.0980  -16.6606   19.9389 C   0  0  0  0  0  0  0  0  0  0  0  0
   11.4434  -16.4836   18.8665 O   0  0  0  0  0  0  0  0  0  0  0  0
   13.4694  -16.6432   19.8601 O   0  0  0  0  0  0  0  0  0  0  0  0
  2  1  1  1
  2 10  1  0
  2  3  1  0
  3  4  1  0
  4  5  2  0
  4  9  1  0
  5  6  1  0
  6  7  2  0
  7  8  1  0
  9  8  2  0
 10 11  2  0
 12 13  1  0
 12 10  1  0
 13 14  1  1
 15 14  1  0
 16 15  1  0
 17 18  1  0
 17 16  1  0
 19 13  1  0
 20 19  2  0
 22 23  1  0
 22 21  1  1
 24 22  1  0
 24 25  1  6
 25 19  1  0
 26 28  1  0
 26 24  1  0
 27 26  2  0
M  END
$$$$
