FKT.pdb
     RDKit          3D

 28 28  0  0  1  0  0  0  0  0999 V2000
    5.5630  -17.8035   25.4326 N   0  0  0  0  0  0  0  0  0  0  0  0
    6.0624  -16.4435   25.2482 C   0  0  1  0  0  0  0  0  0  0  0  0
    6.6394  -16.0597   26.6162 C   0  0  0  0  0  0  0  0  0  0  0  0
    6.9344  -14.6191   26.6313 C   0  0  0  0  0  0  0  0  0  0  0  0
    6.0212  -13.6191   26.8536 C   0  0  0  0  0  0  0  0  0  0  0  0
    6.3401  -12.2795   26.8690 C   0  0  0  0  0  0  0  0  0  0  0  0
    7.6378  -11.8851   26.6535 C   0  0  0  0  0  0  0  0  0  0  0  0
    8.5956  -12.8695   26.4237 C   0  0  0  0  0  0  0  0  0  0  0  0
    8.2555  -14.2057   26.4126 C   0  0  0  0  0  0  0  0  0  0  0  0
    7.1463  -16.4557   24.2424 C   0  0  0  0  0  0  0  0  0  0  0  0
    7.9780  -17.4132   24.1530 O   0  0  0  0  0  0  0  0  0  0  0  0
    7.3298  -15.4036   23.3113 N   0  0  0  0  0  0  0  0  0  0  0  0
    8.3224  -15.3745   22.2936 C   0  0  1  0  0  0  0  0  0  0  0  0
    8.2158  -14.2012   21.3531 C   0  0  0  0  0  0  0  0  0  0  0  0
    7.8792  -14.6587   19.9391 C   0  0  0  0  0  0  0  0  0  0  0  0
    8.2299  -13.5532   18.9917 C   0  0  0  0  0  0  0  0  0  0  0  0
    7.8342  -13.8759   17.5661 C   0  0  0  0  0  0  0  0  0  0  0  0
    8.1596  -12.8032   16.6580 N   0  0  0  0  0  0  0  0  0  0  0  0
    9.6668  -15.3353   22.8966 C   0  0  0  0  0  0  0  0  0  0  0  0
    9.9091  -14.3596   23.6956 O   0  0  0  0  0  0  0  0  0  0  0  0
   11.4588  -17.4020   25.4290 C   0  0  0  0  0  0  0  0  0  0  0  0
   12.2467  -17.4855   24.1521 C   0  0  1  0  0  0  0  0  0  0  0  0
   12.0202  -18.6291   23.4267 O   0  0  0  0  0  0  0  0  0  0  0  0
   12.0029  -16.2079   23.3642 C   0  0  2  0  0  0  0  0  0  0  0  0
   10.7133  -16.2401   22.7027 N   0  0  0  0  0  0  0  0  0  0  0  0
   13.0462  -15.9506   22.3589 C   0  0  0  0  0  0  0  0  0  0  0  0
   14.2512  -15.7257   22.6865 O   0  0  0  0  0  0  0  0  0  0  0  0
   12.7371  -15.9475   21.0203 O   0  0  0  0  0  0  0  0  0  0  0  0
  2  1  1  1
  2 10  1  0
  2  3  1  0
  3  4  1  0
  4  5  2  0
  4  9  1  0
  5  6  1  0
  6  7  2  0
  7  8  1  0
  9  8  2  0
 10 11  2  0
 12 13  1  0
 12 10  1  0
 13 14  1  6
 15 14  1  0
 16 15  1  0
 17 18  1  0
 17 16  1  0
 19 13  1  0
 20 19  2  0
 22 23  1  0
 22 21  1  1
 24 22  1  0
 24 25  1  6
 25 19  1  0
 26 28  1  0
 26 24  1  0
 27 26  2  0
M  END
$$$$
