CRW.pdb
     RDKit          3D

 32 33  0  0  1  0  0  0  0  0999 V2000
    6.3674  -19.5976   22.9996 N   0  0  0  0  0  0  0  0  0  0  0  0
    7.4656  -20.0249   22.1644 C   0  0  1  0  0  0  0  0  0  0  0  0
    7.0195  -20.9443   21.0772 C   0  0  0  0  0  0  0  0  0  0  0  0
    5.2485  -20.9677   20.8111 S   0  0  0  0  0  0  0  0  0  0  0  0
    8.2500  -18.8623   21.6734 C   0  0  0  0  0  0  0  0  0  0  0  0
    9.2760  -18.9811   20.9681 O   0  0  0  0  0  0  0  0  0  0  0  0
    9.7759  -13.3997   18.5655 N   0  0  0  0  0  0  0  0  0  0  0  0
    8.5347  -13.2505   17.8797 C   0  0  0  0  0  0  0  0  0  0  0  0
    8.5901  -13.1690   16.5955 N   0  0  0  0  0  0  0  0  0  0  0  0
    7.2824  -13.1908   18.5450 N   0  0  0  0  0  0  0  0  0  0  0  0
    7.1421  -13.2704   19.9623 C   0  0  0  0  0  0  0  0  0  0  0  0
    8.2358  -14.0803   20.6240 C   0  0  0  0  0  0  0  0  0  0  0  0
    7.6099  -15.2555   21.3086 C   0  0  0  0  0  0  0  0  0  0  0  0
    8.5493  -16.3513   21.6853 C   0  0  2  0  0  0  0  0  0  0  0  0
    7.8285  -17.5611   22.0113 N   0  0  0  0  0  0  0  0  0  0  0  0
    9.3073  -15.8544   22.8913 C   0  0  0  0  0  0  0  0  0  0  0  0
   10.0582  -14.8514   22.8133 O   0  0  0  0  0  0  0  0  0  0  0  0
    7.7878  -13.0379   15.9775 N   0  0  0  0  0  0  0  0  0  0  0  0
    9.1698  -16.5253   24.1192 C   0  0  1  0  0  0  0  0  0  0  0  0
   10.0102  -16.1961   25.2730 C   0  0  0  0  0  0  0  0  0  0  0  0
    9.0999  -16.1870   26.5089 C   0  0  0  0  0  0  0  0  0  0  0  0
    7.8807  -15.3595   26.2214 C   0  0  0  0  0  0  0  0  0  0  0  0
    6.6082  -15.7811   25.9037 N   0  0  0  0  0  0  0  0  0  0  0  0
    5.8333  -14.7043   25.7278 C   0  0  0  0  0  0  0  0  0  0  0  0
    6.5368  -13.5786   25.9151 C   0  0  0  0  0  0  0  0  0  0  0  0
    6.1997  -12.2417   25.8494 C   0  0  0  0  0  0  0  0  0  0  0  0
    7.2052  -11.3267   26.1074 C   0  0  0  0  0  0  0  0  0  0  0  0
    8.4812  -11.6988   26.4154 C   0  0  0  0  0  0  0  0  0  0  0  0
    8.7939  -13.0279   26.4752 C   0  0  0  0  0  0  0  0  0  0  0  0
    7.8213  -13.9724   26.2250 C   0  0  0  0  0  0  0  0  0  0  0  0
   11.0666  -17.2161   25.4519 O   0  0  0  0  0  0  0  0  0  0  0  0
   11.1051  -18.2681   24.7461 O   0  0  0  0  0  0  0  0  0  0  0  0
  2  1  1  6
  3  2  1  0
  4  3  1  0
  5  6  2  0
  5  2  1  0
  7  8  1  0
  8  9  2  0
 10 11  1  0
 10  8  1  0
 11 12  1  0
 12 13  1  0
 14 13  1  1
 14 15  1  0
 15  5  1  0
 16 14  1  0
 17 16  2  0
 18 16  1  0
 19 30  1  0
 19 18  1  0
 19 20  1  1
 21 22  2  0
 21 20  1  0
 23 22  1  0
 24 29  2  0
 24 23  1  0
 25 24  1  0
 26 27  1  0
 26 25  2  0
 27 28  2  0
 28 29  1  0
 29 21  1  0
 30 32  1  0
 31 30  2  0
M  END
$$$$
