CRW.pdb
     RDKit          3D

 32 33  0  0  1  0  0  0  0  0999 V2000
    8.2530  -14.9894   16.2009 N   0  0  0  0  0  0  0  0  0  0  0  0
    8.4468  -14.6257   17.5853 C   0  0  1  0  0  0  0  0  0  0  0  0
    7.6797  -13.4010   17.9568 C   0  0  0  0  0  0  0  0  0  0  0  0
    8.4956  -11.8633   17.5356 S   0  0  0  0  0  0  0  0  0  0  0  0
    8.1913  -15.7810   18.4841 C   0  0  0  0  0  0  0  0  0  0  0  0
    7.0967  -16.3849   18.5238 O   0  0  0  0  0  0  0  0  0  0  0  0
    8.3605  -21.8086   19.1639 N   0  0  0  0  0  0  0  0  0  0  0  0
    9.3000  -22.0363   18.1158 C   0  0  0  0  0  0  0  0  0  0  0  0
    9.0559  -23.0234   17.3252 N   0  0  0  0  0  0  0  0  0  0  0  0
   10.4568  -21.2369   17.9228 N   0  0  0  0  0  0  0  0  0  0  0  0
   10.8407  -20.1856   18.8071 C   0  0  0  0  0  0  0  0  0  0  0  0
    9.8345  -19.0566   18.8614 C   0  0  0  0  0  0  0  0  0  0  0  0
    9.9629  -18.3678   20.1845 C   0  0  0  0  0  0  0  0  0  0  0  0
    9.0555  -17.2016   20.3893 C   0  0  2  0  0  0  0  0  0  0  0  0
    9.2216  -16.2259   19.3359 N   0  0  0  0  0  0  0  0  0  0  0  0
    9.4395  -16.6033   21.7200 C   0  0  0  0  0  0  0  0  0  0  0  0
   10.5899  -16.1383   21.9106 O   0  0  0  0  0  0  0  0  0  0  0  0
    9.6246  -23.2887   16.5196 N   0  0  0  0  0  0  0  0  0  0  0  0
    8.4944  -16.5669   22.7604 C   0  0  2  0  0  0  0  0  0  0  0  0
    8.7930  -15.9350   24.0478 C   0  0  0  0  0  0  0  0  0  0  0  0
    7.5025  -15.2584   24.5306 C   0  0  0  0  0  0  0  0  0  0  0  0
    7.7173  -14.7076   25.9107 C   0  0  0  0  0  0  0  0  0  0  0  0
    8.3089  -15.3128   26.9977 N   0  0  0  0  0  0  0  0  0  0  0  0
    8.2873  -14.4573   28.0266 C   0  0  0  0  0  0  0  0  0  0  0  0
    7.7047  -13.3034   27.6713 C   0  0  0  0  0  0  0  0  0  0  0  0
    7.4463  -12.1343   28.3580 C   0  0  0  0  0  0  0  0  0  0  0  0
    6.8117  -11.1222   27.6594 C   0  0  0  0  0  0  0  0  0  0  0  0
    6.4460  -11.2450   26.3507 C   0  0  0  0  0  0  0  0  0  0  0  0
    6.7113  -12.4112   25.6892 C   0  0  0  0  0  0  0  0  0  0  0  0
    7.3421  -13.4446   26.3485 C   0  0  0  0  0  0  0  0  0  0  0  0
    9.2120  -16.9507   25.0383 O   0  0  0  0  0  0  0  0  0  0  0  0
    8.6011  -18.0543   25.1619 O   0  0  0  0  0  0  0  0  0  0  0  0
  2  1  1  6
  3  2  1  0
  4  3  1  0
  5  6  2  0
  5  2  1  0
  7  8  1  0
  8  9  2  0
 10 11  1  0
 10  8  1  0
 11 12  1  0
 12 13  1  0
 14 13  1  6
 14 15  1  0
 15  5  1  0
 16 14  1  0
 17 16  2  0
 18 16  1  0
 19 30  1  0
 19 18  1  0
 19 20  1  6
 21 22  2  0
 21 20  1  0
 23 22  1  0
 24 29  2  0
 24 23  1  0
 25 24  1  0
 26 27  1  0
 26 25  2  0
 27 28  2  0
 28 29  1  0
 29 21  1  0
 30 32  1  0
 31 30  2  0
M  END
$$$$
