CRW.pdb
     RDKit          3D

 32 33  0  0  1  0  0  0  0  0999 V2000
    7.9987  -13.8993   17.5868 N   0  0  0  0  0  0  0  0  0  0  0  0
    8.4468  -13.6947   18.9446 C   0  0  1  0  0  0  0  0  0  0  0  0
    7.5848  -12.7241   19.6802 C   0  0  0  0  0  0  0  0  0  0  0  0
    7.9184  -12.6250   21.4371 S   0  0  0  0  0  0  0  0  0  0  0  0
    8.6201  -14.9893   19.6531 C   0  0  0  0  0  0  0  0  0  0  0  0
    8.0890  -16.0540   19.2674 O   0  0  0  0  0  0  0  0  0  0  0  0
   15.3851  -15.6976   20.8674 N   0  0  0  0  0  0  0  0  0  0  0  0
   14.7350  -15.4578   19.6211 C   0  0  0  0  0  0  0  0  0  0  0  0
   14.8669  -14.2797   19.1177 N   0  0  0  0  0  0  0  0  0  0  0  0
   13.9727  -16.4431   18.9410 N   0  0  0  0  0  0  0  0  0  0  0  0
   12.8645  -17.1220   19.5289 C   0  0  0  0  0  0  0  0  0  0  0  0
   11.9210  -16.1953   20.2644 C   0  0  0  0  0  0  0  0  0  0  0  0
   10.8092  -17.0118   20.8463 C   0  0  0  0  0  0  0  0  0  0  0  0
    9.7435  -16.2360   21.5448 C   0  0  2  0  0  0  0  0  0  0  0  0
    9.4171  -15.0322   20.8141 N   0  0  0  0  0  0  0  0  0  0  0  0
   10.3033  -15.8872   22.9017 C   0  0  0  0  0  0  0  0  0  0  0  0
   11.2094  -15.0270   23.0242 O   0  0  0  0  0  0  0  0  0  0  0  0
   14.4270  -13.9537   18.2557 N   0  0  0  0  0  0  0  0  0  0  0  0
    9.8021  -16.5357   24.0440 C   0  0  1  0  0  0  0  0  0  0  0  0
   10.2863  -16.2092   25.3874 C   0  0  0  0  0  0  0  0  0  0  0  0
    9.8628  -14.7637   25.6830 C   0  0  0  0  0  0  0  0  0  0  0  0
    8.3655  -14.6654   25.6347 C   0  0  0  0  0  0  0  0  0  0  0  0
    7.4434  -15.6620   25.4011 N   0  0  0  0  0  0  0  0  0  0  0  0
    6.2171  -15.1283   25.4482 C   0  0  0  0  0  0  0  0  0  0  0  0
    6.2818  -13.8140   25.7040 C   0  0  0  0  0  0  0  0  0  0  0  0
    5.3152  -12.8390   25.8472 C   0  0  0  0  0  0  0  0  0  0  0  0
    5.7537  -11.5538   26.1137 C   0  0  0  0  0  0  0  0  0  0  0  0
    7.0745  -11.2343   26.2350 C   0  0  0  0  0  0  0  0  0  0  0  0
    8.0155  -12.2148   26.0896 C   0  0  0  0  0  0  0  0  0  0  0  0
    7.6211  -13.5087   25.8234 C   0  0  0  0  0  0  0  0  0  0  0  0
    9.6783  -17.1110   26.3902 O   0  0  0  0  0  0  0  0  0  0  0  0
    9.8793  -16.9602   27.6324 O   0  0  0  0  0  0  0  0  0  0  0  0
  2  1  1  6
  3  2  1  0
  4  3  1  0
  5  6  2  0
  5  2  1  0
  7  8  1  0
  8  9  2  0
 10 11  1  0
 10  8  1  0
 11 12  1  0
 12 13  1  0
 14 13  1  6
 14 15  1  0
 15  5  1  0
 16 14  1  0
 17 16  2  0
 18 16  1  0
 19 30  1  0
 19 18  1  0
 19 20  1  1
 21 22  2  0
 21 20  1  0
 23 22  1  0
 24 29  2  0
 24 23  1  0
 25 24  1  0
 26 27  1  0
 26 25  2  0
 27 28  2  0
 28 29  1  0
 29 21  1  0
 30 32  1  0
 31 30  2  0
M  END
$$$$
