QKM.pdb
     RDKit          3D

 27 26  0  0  1  0  0  0  0  0999 V2000
    8.5079  -12.3523   18.5473 N   0  0  0  0  0  0  0  0  0  0  0  0
    8.4362  -13.2044   17.4276 C   0  0  0  0  0  0  0  0  0  0  0  0
    8.4477  -12.7250   16.2772 O   0  0  0  0  0  0  0  0  0  0  0  0
    8.3476  -14.6635   17.6265 C   0  0  0  0  0  0  0  0  0  0  0  0
    8.2991  -15.0220   19.1083 C   0  0  0  0  0  0  0  0  0  0  0  0
    8.1200  -16.5126   19.2743 C   0  0  2  0  0  0  0  0  0  0  0  0
    7.1545  -17.0516   18.3596 N   0  0  0  0  0  0  0  0  0  0  0  0
    7.6620  -16.8160   20.6509 C   0  0  0  0  0  0  0  0  0  0  0  0
    6.5670  -16.3607   21.1132 O   0  0  0  0  0  0  0  0  0  0  0  0
    8.4190  -17.6286   21.5242 N   0  0  0  0  0  0  0  0  0  0  0  0
    7.9890  -17.8896   22.8780 C   0  0  1  0  0  0  0  0  0  0  0  0
    8.4814  -19.2850   23.2323 C   0  0  0  0  0  0  0  0  0  0  0  0
    7.9181  -20.3107   22.2762 C   0  0  0  0  0  0  0  0  0  0  0  0
    8.4282  -21.6669   22.6922 C   0  0  0  0  0  0  0  0  0  0  0  0
    7.9880  -22.7056   21.6767 C   0  0  0  0  0  0  0  0  0  0  0  0
    8.5593  -23.9871   22.0741 N   0  0  0  0  0  0  0  0  0  0  0  0
    8.4965  -16.8798   23.8315 C   0  0  0  0  0  0  0  0  0  0  0  0
    9.6272  -16.3846   23.6023 O   0  0  0  0  0  0  0  0  0  0  0  0
    6.7439  -10.3071   26.3553 C   0  0  0  0  0  0  0  0  0  0  0  0
    6.1274  -11.9249   26.8064 S   0  0  0  0  0  0  0  0  0  0  0  0
    7.4202  -13.1753   26.8358 C   0  0  0  0  0  0  0  0  0  0  0  0
    7.1331  -14.3612   26.0048 C   0  0  0  0  0  0  0  0  0  0  0  0
    8.2175  -15.3338   25.8362 C   0  0  2  0  0  0  0  0  0  0  0  0
    7.7996  -16.4439   24.9670 N   0  0  0  0  0  0  0  0  0  0  0  0
    8.8914  -15.9198   26.9662 C   0  0  0  0  0  0  0  0  0  0  0  0
    9.8265  -15.3597   27.8157 O   0  0  0  0  0  0  0  0  0  0  0  0
    8.6201  -17.1463   27.2658 O   0  0  0  0  0  0  0  0  0  0  0  0
  2  3  2  0
  2  1  1  0
  4  2  1  0
  5  4  1  0
  6  5  1  0
  6  7  1  6
  8  6  1  0
  8  9  2  0
 10  8  1  0
 11 10  1  0
 11 12  1  1
 13 14  1  0
 13 12  1  0
 15 14  1  0
 16 15  1  0
 17 11  1  0
 18 17  2  0
 19 20  1  0
 20 21  1  0
 22 21  1  0
 23 22  1  1
 23 24  1  0
 24 17  1  0
 25 26  1  0
 25 23  1  0
 27 25  2  0
M  END
$$$$
