QKM.pdb
     RDKit          3D

 27 26  0  0  1  0  0  0  0  0999 V2000
   12.6944  -20.1940   16.7673 N   0  0  0  0  0  0  0  0  0  0  0  0
   11.3394  -20.5642   16.8767 C   0  0  0  0  0  0  0  0  0  0  0  0
   10.7453  -21.0531   15.8961 O   0  0  0  0  0  0  0  0  0  0  0  0
   10.6314  -20.3694   18.1562 C   0  0  0  0  0  0  0  0  0  0  0  0
   11.5445  -19.7502   19.2096 C   0  0  0  0  0  0  0  0  0  0  0  0
   10.8018  -19.6047   20.5168 C   0  0  2  0  0  0  0  0  0  0  0  0
    9.4902  -20.1850   20.4671 N   0  0  0  0  0  0  0  0  0  0  0  0
   10.6522  -18.1696   20.8556 C   0  0  0  0  0  0  0  0  0  0  0  0
   11.6460  -17.3746   20.8775 O   0  0  0  0  0  0  0  0  0  0  0  0
    9.3954  -17.6075   21.1728 N   0  0  0  0  0  0  0  0  0  0  0  0
    9.2661  -16.2316   21.5919 C   0  0  1  0  0  0  0  0  0  0  0  0
    8.2091  -15.5994   20.6985 C   0  0  0  0  0  0  0  0  0  0  0  0
    8.1117  -14.1130   20.9530 C   0  0  0  0  0  0  0  0  0  0  0  0
    7.8479  -13.4297   19.6354 C   0  0  0  0  0  0  0  0  0  0  0  0
    7.6849  -11.9380   19.8636 C   0  0  0  0  0  0  0  0  0  0  0  0
    7.4392  -11.3136   18.5689 N   0  0  0  0  0  0  0  0  0  0  0  0
    8.9062  -16.1127   23.0211 C   0  0  0  0  0  0  0  0  0  0  0  0
    7.9095  -16.7621   23.4226 O   0  0  0  0  0  0  0  0  0  0  0  0
    5.5899  -11.5819   27.7461 C   0  0  0  0  0  0  0  0  0  0  0  0
    6.2167  -12.1647   26.1751 S   0  0  0  0  0  0  0  0  0  0  0  0
    7.1611  -13.6879   26.3284 C   0  0  0  0  0  0  0  0  0  0  0  0
    7.8674  -14.0879   25.0951 C   0  0  0  0  0  0  0  0  0  0  0  0
    9.0768  -14.9016   25.2551 C   0  0  2  0  0  0  0  0  0  0  0  0
    9.6028  -15.3263   23.9493 N   0  0  0  0  0  0  0  0  0  0  0  0
    9.1026  -16.0591   26.1117 C   0  0  0  0  0  0  0  0  0  0  0  0
    8.6293  -17.3355   25.8742 O   0  0  0  0  0  0  0  0  0  0  0  0
    9.6294  -15.9351   27.2843 O   0  0  0  0  0  0  0  0  0  0  0  0
  2  3  2  0
  2  1  1  0
  4  2  1  0
  5  4  1  0
  6  5  1  0
  6  7  1  6
  8  6  1  0
  8  9  2  0
 10  8  1  0
 11 10  1  0
 11 12  1  6
 13 14  1  0
 13 12  1  0
 15 14  1  0
 16 15  1  0
 17 11  1  0
 18 17  2  0
 19 20  1  0
 20 21  1  0
 22 21  1  0
 23 22  1  6
 23 24  1  0
 24 17  1  0
 25 26  1  0
 25 23  1  0
 27 25  2  0
M  END
$$$$
