QKM.pdb
     RDKit          3D

 27 26  0  0  1  0  0  0  0  0999 V2000
    8.1275  -12.7100   16.1360 N   0  0  0  0  0  0  0  0  0  0  0  0
    8.1748  -13.9891   16.7248 C   0  0  0  0  0  0  0  0  0  0  0  0
    9.0469  -14.8065   16.3714 O   0  0  0  0  0  0  0  0  0  0  0  0
    7.1878  -14.3524   17.7592 C   0  0  0  0  0  0  0  0  0  0  0  0
    7.5870  -13.8066   19.1265 C   0  0  0  0  0  0  0  0  0  0  0  0
    8.6131  -14.7123   19.7656 C   0  0  2  0  0  0  0  0  0  0  0  0
    8.9320  -15.8430   18.9413 N   0  0  0  0  0  0  0  0  0  0  0  0
    8.1006  -15.2222   21.0595 C   0  0  0  0  0  0  0  0  0  0  0  0
    7.6322  -14.4457   21.9525 O   0  0  0  0  0  0  0  0  0  0  0  0
    8.1053  -16.6005   21.3700 N   0  0  0  0  0  0  0  0  0  0  0  0
    7.5873  -17.0952   22.6240 C   0  0  1  0  0  0  0  0  0  0  0  0
    7.6958  -18.6121   22.5744 C   0  0  0  0  0  0  0  0  0  0  0  0
    7.1430  -19.2304   23.8376 C   0  0  0  0  0  0  0  0  0  0  0  0
    7.3286  -20.7236   23.7469 C   0  0  0  0  0  0  0  0  0  0  0  0
    6.6625  -21.3888   24.9374 C   0  0  0  0  0  0  0  0  0  0  0  0
    6.7164  -22.8312   24.7296 N   0  0  0  0  0  0  0  0  0  0  0  0
    8.3115  -16.5400   23.7874 C   0  0  0  0  0  0  0  0  0  0  0  0
    9.5631  -16.6386   23.7906 O   0  0  0  0  0  0  0  0  0  0  0  0
    6.8496  -10.6868   25.5499 C   0  0  0  0  0  0  0  0  0  0  0  0
    7.2775  -11.3072   27.1725 S   0  0  0  0  0  0  0  0  0  0  0  0
    8.1285  -12.8906   27.1063 C   0  0  0  0  0  0  0  0  0  0  0  0
    7.6423  -13.7943   26.0449 C   0  0  0  0  0  0  0  0  0  0  0  0
    8.3767  -15.0486   25.8510 C   0  0  2  0  0  0  0  0  0  0  0  0
    7.6930  -15.9149   24.8791 N   0  0  0  0  0  0  0  0  0  0  0  0
    8.7540  -15.8844   26.9616 C   0  0  0  0  0  0  0  0  0  0  0  0
    8.4094  -17.1959   27.2278 O   0  0  0  0  0  0  0  0  0  0  0  0
    9.5203  -15.3783   27.8695 O   0  0  0  0  0  0  0  0  0  0  0  0
  2  3  2  0
  2  1  1  0
  4  2  1  0
  5  4  1  0
  6  5  1  0
  6  7  1  6
  8  6  1  0
  8  9  2  0
 10  8  1  0
 11 10  1  0
 11 12  1  6
 13 14  1  0
 13 12  1  0
 15 14  1  0
 16 15  1  0
 17 11  1  0
 18 17  2  0
 19 20  1  0
 20 21  1  0
 22 21  1  0
 23 22  1  1
 23 24  1  0
 24 17  1  0
 25 26  1  0
 25 23  1  0
 27 25  2  0
M  END
$$$$
