QKM.pdb
     RDKit          3D

 27 26  0  0  1  0  0  0  0  0999 V2000
   13.9234  -13.6050   19.0888 N   0  0  0  0  0  0  0  0  0  0  0  0
   13.9520  -14.5936   18.0854 C   0  0  0  0  0  0  0  0  0  0  0  0
   15.0266  -14.8801   17.5227 O   0  0  0  0  0  0  0  0  0  0  0  0
   12.7048  -15.2847   17.7072 C   0  0  0  0  0  0  0  0  0  0  0  0
   11.5799  -14.9832   18.6923 C   0  0  0  0  0  0  0  0  0  0  0  0
   11.4457  -16.1130   19.6858 C   0  0  2  0  0  0  0  0  0  0  0  0
   11.0767  -17.3502   19.0592 N   0  0  0  0  0  0  0  0  0  0  0  0
   10.4056  -15.7827   20.6888 C   0  0  0  0  0  0  0  0  0  0  0  0
   10.3714  -14.6554   21.2787 O   0  0  0  0  0  0  0  0  0  0  0  0
    9.3951  -16.7043   21.0433 N   0  0  0  0  0  0  0  0  0  0  0  0
    8.4371  -16.4132   22.0840 C   0  0  1  0  0  0  0  0  0  0  0  0
    7.3440  -17.4666   21.9797 C   0  0  0  0  0  0  0  0  0  0  0  0
    7.0261  -17.7675   20.5334 C   0  0  0  0  0  0  0  0  0  0  0  0
    6.0144  -18.8845   20.5000 C   0  0  0  0  0  0  0  0  0  0  0  0
    5.6350  -19.1796   19.0603 C   0  0  0  0  0  0  0  0  0  0  0  0
    4.6335  -20.2396   19.0719 N   0  0  0  0  0  0  0  0  0  0  0  0
    9.0540  -16.4067   23.4277 C   0  0  0  0  0  0  0  0  0  0  0  0
    9.2545  -17.5174   23.9776 O   0  0  0  0  0  0  0  0  0  0  0  0
    6.2535  -10.9352   27.0817 C   0  0  0  0  0  0  0  0  0  0  0  0
    5.7418  -12.5648   26.5498 S   0  0  0  0  0  0  0  0  0  0  0  0
    7.0604  -13.7815   26.6792 C   0  0  0  0  0  0  0  0  0  0  0  0
    7.7405  -14.0739   25.4019 C   0  0  0  0  0  0  0  0  0  0  0  0
    8.9601  -14.8853   25.4681 C   0  0  2  0  0  0  0  0  0  0  0  0
    9.4265  -15.2467   24.1212 N   0  0  0  0  0  0  0  0  0  0  0  0
    9.0319  -16.0803   26.2689 C   0  0  0  0  0  0  0  0  0  0  0  0
    9.6496  -17.2850   25.9916 O   0  0  0  0  0  0  0  0  0  0  0  0
    8.4448  -16.0765   27.4191 O   0  0  0  0  0  0  0  0  0  0  0  0
  2  3  2  0
  2  1  1  0
  4  2  1  0
  5  4  1  0
  6  5  1  0
  6  7  1  6
  8  6  1  0
  8  9  2  0
 10  8  1  0
 11 10  1  0
 11 12  1  1
 13 14  1  0
 13 12  1  0
 15 14  1  0
 16 15  1  0
 17 11  1  0
 18 17  2  0
 19 20  1  0
 20 21  1  0
 22 21  1  0
 23 22  1  6
 23 24  1  0
 24 17  1  0
 25 26  1  0
 25 23  1  0
 27 25  2  0
M  END
$$$$
