QKM.pdb
     RDKit          3D

 27 26  0  0  1  0  0  0  0  0999 V2000
   13.1848  -19.3220   17.2444 N   0  0  0  0  0  0  0  0  0  0  0  0
   12.3717  -18.1784   17.1173 C   0  0  0  0  0  0  0  0  0  0  0  0
   12.2240  -17.6389   16.0035 O   0  0  0  0  0  0  0  0  0  0  0  0
   11.6989  -17.6264   18.3084 C   0  0  0  0  0  0  0  0  0  0  0  0
   12.0710  -18.4018   19.5682 C   0  0  0  0  0  0  0  0  0  0  0  0
   10.9339  -18.3519   20.5611 C   0  0  2  0  0  0  0  0  0  0  0  0
    9.7277  -18.9284   20.0393 N   0  0  0  0  0  0  0  0  0  0  0  0
   10.6447  -16.9452   20.9276 C   0  0  0  0  0  0  0  0  0  0  0  0
   11.5695  -16.1199   21.2170 O   0  0  0  0  0  0  0  0  0  0  0  0
    9.3240  -16.4455   20.9749 N   0  0  0  0  0  0  0  0  0  0  0  0
    9.0387  -15.1032   21.4247 C   0  0  1  0  0  0  0  0  0  0  0  0
    8.0835  -14.4949   20.4086 C   0  0  0  0  0  0  0  0  0  0  0  0
    8.7304  -14.4161   19.0452 C   0  0  0  0  0  0  0  0  0  0  0  0
    7.7535  -13.7621   18.1016 C   0  0  0  0  0  0  0  0  0  0  0  0
    8.3285  -13.7655   16.6969 C   0  0  0  0  0  0  0  0  0  0  0  0
    7.3527  -13.1361   15.8147 N   0  0  0  0  0  0  0  0  0  0  0  0
    8.4648  -15.0789   22.7871 C   0  0  0  0  0  0  0  0  0  0  0  0
    7.2414  -15.3360   22.9041 O   0  0  0  0  0  0  0  0  0  0  0  0
    6.3394  -10.8356   28.1022 C   0  0  0  0  0  0  0  0  0  0  0  0
    6.2289  -11.5356   26.4596 S   0  0  0  0  0  0  0  0  0  0  0  0
    6.7579  -13.2540   26.4020 C   0  0  0  0  0  0  0  0  0  0  0  0
    7.4390  -13.6350   25.1489 C   0  0  0  0  0  0  0  0  0  0  0  0
    8.6056  -14.5157   25.2670 C   0  0  2  0  0  0  0  0  0  0  0  0
    9.1953  -14.7891   23.9480 N   0  0  0  0  0  0  0  0  0  0  0  0
    8.5360  -15.7753   25.9619 C   0  0  0  0  0  0  0  0  0  0  0  0
    8.7412  -17.0542   25.4802 O   0  0  0  0  0  0  0  0  0  0  0  0
    8.2364  -15.7600   27.2180 O   0  0  0  0  0  0  0  0  0  0  0  0
  2  3  2  0
  2  1  1  0
  4  2  1  0
  5  4  1  0
  6  5  1  0
  6  7  1  6
  8  6  1  0
  8  9  2  0
 10  8  1  0
 11 10  1  0
 11 12  1  6
 13 14  1  0
 13 12  1  0
 15 14  1  0
 16 15  1  0
 17 11  1  0
 18 17  2  0
 19 20  1  0
 20 21  1  0
 22 21  1  0
 23 22  1  6
 23 24  1  0
 24 17  1  0
 25 26  1  0
 25 23  1  0
 27 25  2  0
M  END
$$$$
