QKM.pdb
     RDKit          3D

 27 26  0  0  1  0  0  0  0  0999 V2000
    5.5916  -18.6252   19.5597 N   0  0  0  0  0  0  0  0  0  0  0  0
    6.3474  -18.2857   18.4202 C   0  0  0  0  0  0  0  0  0  0  0  0
    6.3046  -19.0081   17.4054 O   0  0  0  0  0  0  0  0  0  0  0  0
    7.1870  -17.0728   18.4372 C   0  0  0  0  0  0  0  0  0  0  0  0
    6.9362  -16.2389   19.6895 C   0  0  0  0  0  0  0  0  0  0  0  0
    8.2340  -15.6453   20.1842 C   0  0  2  0  0  0  0  0  0  0  0  0
    9.3477  -15.9954   19.3495 N   0  0  0  0  0  0  0  0  0  0  0  0
    8.5217  -16.1312   21.5546 C   0  0  0  0  0  0  0  0  0  0  0  0
    7.7015  -15.9680   22.5141 O   0  0  0  0  0  0  0  0  0  0  0  0
    9.7245  -16.8027   21.8683 N   0  0  0  0  0  0  0  0  0  0  0  0
    9.9715  -17.3357   23.1876 C   0  0  1  0  0  0  0  0  0  0  0  0
   11.2546  -18.1485   23.0981 C   0  0  0  0  0  0  0  0  0  0  0  0
   10.9768  -19.6157   23.3300 C   0  0  0  0  0  0  0  0  0  0  0  0
   12.2853  -20.3589   23.2406 C   0  0  0  0  0  0  0  0  0  0  0  0
   12.0453  -21.8364   23.4915 C   0  0  0  0  0  0  0  0  0  0  0  0
   13.3448  -22.4958   23.5463 N   0  0  0  0  0  0  0  0  0  0  0  0
   10.0758  -16.2732   24.2105 C   0  0  0  0  0  0  0  0  0  0  0  0
   10.8482  -15.3130   23.9706 O   0  0  0  0  0  0  0  0  0  0  0  0
    5.8044  -12.0479   26.2571 C   0  0  0  0  0  0  0  0  0  0  0  0
    7.4294  -11.7447   26.9412 S   0  0  0  0  0  0  0  0  0  0  0  0
    8.2714  -13.2594   27.4236 C   0  0  0  0  0  0  0  0  0  0  0  0
    8.4003  -14.2514   26.3378 C   0  0  0  0  0  0  0  0  0  0  0  0
    9.4831  -15.2328   26.4584 C   0  0  2  0  0  0  0  0  0  0  0  0
    9.3716  -16.2707   25.4227 N   0  0  0  0  0  0  0  0  0  0  0  0
    9.7562  -15.9101   27.6999 C   0  0  0  0  0  0  0  0  0  0  0  0
    9.8567  -17.2645   27.9553 O   0  0  0  0  0  0  0  0  0  0  0  0
    9.9351  -15.1908   28.7574 O   0  0  0  0  0  0  0  0  0  0  0  0
  2  3  2  0
  2  1  1  0
  4  2  1  0
  5  4  1  0
  6  5  1  0
  6  7  1  6
  8  6  1  0
  8  9  2  0
 10  8  1  0
 11 10  1  0
 11 12  1  6
 13 14  1  0
 13 12  1  0
 15 14  1  0
 16 15  1  0
 17 11  1  0
 18 17  2  0
 19 20  1  0
 20 21  1  0
 22 21  1  0
 23 22  1  1
 23 24  1  0
 24 17  1  0
 25 26  1  0
 25 23  1  0
 27 25  2  0
M  END
$$$$
