QKM.pdb
     RDKit          3D

 27 26  0  0  1  0  0  0  0  0999 V2000
    8.4633  -12.4378   18.3504 N   0  0  0  0  0  0  0  0  0  0  0  0
    8.6143  -13.2745   17.2269 C   0  0  0  0  0  0  0  0  0  0  0  0
    8.8047  -12.7772   16.1000 O   0  0  0  0  0  0  0  0  0  0  0  0
    8.5454  -14.7386   17.3939 C   0  0  0  0  0  0  0  0  0  0  0  0
    8.1791  -15.1197   18.8247 C   0  0  0  0  0  0  0  0  0  0  0  0
    8.2212  -16.6208   18.9871 C   0  0  2  0  0  0  0  0  0  0  0  0
    7.3067  -17.2910   18.1072 N   0  0  0  0  0  0  0  0  0  0  0  0
    7.8664  -16.9884   20.3784 C   0  0  0  0  0  0  0  0  0  0  0  0
    6.6609  -17.0001   20.7864 O   0  0  0  0  0  0  0  0  0  0  0  0
    8.8505  -17.3461   21.3270 N   0  0  0  0  0  0  0  0  0  0  0  0
    8.5005  -17.7067   22.6809 C   0  0  1  0  0  0  0  0  0  0  0  0
    9.2564  -18.9876   23.0020 C   0  0  0  0  0  0  0  0  0  0  0  0
    8.6361  -20.1682   22.2915 C   0  0  0  0  0  0  0  0  0  0  0  0
    9.5186  -21.3685   22.5219 C   0  0  0  0  0  0  0  0  0  0  0  0
    8.9361  -22.5698   21.8000 C   0  0  0  0  0  0  0  0  0  0  0  0
    9.8992  -23.6601   21.9008 N   0  0  0  0  0  0  0  0  0  0  0  0
    8.8209  -16.6341   23.6469 C   0  0  0  0  0  0  0  0  0  0  0  0
    9.9310  -16.0601   23.5268 O   0  0  0  0  0  0  0  0  0  0  0  0
    6.9801  -10.5653   25.6374 C   0  0  0  0  0  0  0  0  0  0  0  0
    6.2509  -11.8170   26.6872 S   0  0  0  0  0  0  0  0  0  0  0  0
    7.3279  -13.2388   26.9203 C   0  0  0  0  0  0  0  0  0  0  0  0
    7.1560  -14.2997   25.9081 C   0  0  0  0  0  0  0  0  0  0  0  0
    8.2965  -15.1929   25.6803 C   0  0  2  0  0  0  0  0  0  0  0  0
    7.9694  -16.2209   24.6811 N   0  0  0  0  0  0  0  0  0  0  0  0
    8.9611  -15.8644   26.7673 C   0  0  0  0  0  0  0  0  0  0  0  0
    9.8679  -15.3645   27.6826 O   0  0  0  0  0  0  0  0  0  0  0  0
    8.7103  -17.1179   26.9509 O   0  0  0  0  0  0  0  0  0  0  0  0
  2  3  2  0
  2  1  1  0
  4  2  1  0
  5  4  1  0
  6  5  1  0
  6  7  1  6
  8  6  1  0
  8  9  2  0
 10  8  1  0
 11 10  1  0
 11 12  1  1
 13 14  1  0
 13 12  1  0
 15 14  1  0
 16 15  1  0
 17 11  1  0
 18 17  2  0
 19 20  1  0
 20 21  1  0
 22 21  1  0
 23 22  1  1
 23 24  1  0
 24 17  1  0
 25 26  1  0
 25 23  1  0
 27 25  2  0
M  END
$$$$
