QKM.pdb
     RDKit          3D

 27 26  0  0  1  0  0  0  0  0999 V2000
    8.6522  -11.9678   18.5296 N   0  0  0  0  0  0  0  0  0  0  0  0
    8.0796  -12.9944   17.7530 C   0  0  0  0  0  0  0  0  0  0  0  0
    7.1113  -12.7467   17.0081 O   0  0  0  0  0  0  0  0  0  0  0  0
    8.6327  -14.3599   17.8277 C   0  0  0  0  0  0  0  0  0  0  0  0
    8.3934  -14.9838   19.1989 C   0  0  0  0  0  0  0  0  0  0  0  0
    9.0855  -16.3235   19.2856 C   0  0  2  0  0  0  0  0  0  0  0  0
    8.4643  -17.3138   18.4531 N   0  0  0  0  0  0  0  0  0  0  0  0
    9.0548  -16.8185   20.6823 C   0  0  0  0  0  0  0  0  0  0  0  0
    7.9759  -17.2012   21.2386 O   0  0  0  0  0  0  0  0  0  0  0  0
   10.2245  -16.8915   21.4713 N   0  0  0  0  0  0  0  0  0  0  0  0
   10.1993  -17.4219   22.8143 C   0  0  1  0  0  0  0  0  0  0  0  0
   11.3573  -18.4033   22.9191 C   0  0  0  0  0  0  0  0  0  0  0  0
   11.1545  -19.5732   21.9844 C   0  0  0  0  0  0  0  0  0  0  0  0
   12.3104  -20.5234   22.1674 C   0  0  0  0  0  0  0  0  0  0  0  0
   12.0875  -21.7600   21.3161 C   0  0  0  0  0  0  0  0  0  0  0  0
   13.2284  -22.6470   21.5117 N   0  0  0  0  0  0  0  0  0  0  0  0
   10.2976  -16.3596   23.8381 C   0  0  0  0  0  0  0  0  0  0  0  0
   10.5166  -15.1897   23.4386 O   0  0  0  0  0  0  0  0  0  0  0  0
    6.0226  -11.7401   27.3535 C   0  0  0  0  0  0  0  0  0  0  0  0
    6.5784  -12.9972   26.2084 S   0  0  0  0  0  0  0  0  0  0  0  0
    8.0754  -13.8262   26.7630 C   0  0  0  0  0  0  0  0  0  0  0  0
    8.6094  -14.8144   25.8049 C   0  0  0  0  0  0  0  0  0  0  0  0
    9.8222  -15.5372   26.2012 C   0  0  2  0  0  0  0  0  0  0  0  0
   10.1627  -16.5750   25.2167 N   0  0  0  0  0  0  0  0  0  0  0  0
    9.9539  -16.1383   27.5034 C   0  0  0  0  0  0  0  0  0  0  0  0
   10.4289  -15.5877   28.6785 O   0  0  0  0  0  0  0  0  0  0  0  0
    9.5942  -17.3708   27.6424 O   0  0  0  0  0  0  0  0  0  0  0  0
  2  3  2  0
  2  1  1  0
  4  2  1  0
  5  4  1  0
  6  5  1  0
  6  7  1  6
  8  6  1  0
  8  9  2  0
 10  8  1  0
 11 10  1  0
 11 12  1  6
 13 14  1  0
 13 12  1  0
 15 14  1  0
 16 15  1  0
 17 11  1  0
 18 17  2  0
 19 20  1  0
 20 21  1  0
 22 21  1  0
 23 22  1  6
 23 24  1  0
 24 17  1  0
 25 26  1  0
 25 23  1  0
 27 25  2  0
M  END
$$$$
