QKM.pdb
     RDKit          3D

 27 26  0  0  1  0  0  0  0  0999 V2000
    8.7253  -12.5553   19.0282 N   0  0  0  0  0  0  0  0  0  0  0  0
    8.1993  -13.3569   17.9959 C   0  0  0  0  0  0  0  0  0  0  0  0
    8.6358  -13.2431   16.8340 O   0  0  0  0  0  0  0  0  0  0  0  0
    7.1318  -14.3287   18.2995 C   0  0  0  0  0  0  0  0  0  0  0  0
    6.7983  -14.3432   19.7879 C   0  0  0  0  0  0  0  0  0  0  0  0
    7.9021  -15.0282   20.5587 C   0  0  2  0  0  0  0  0  0  0  0  0
    8.4335  -16.1629   19.8591 N   0  0  0  0  0  0  0  0  0  0  0  0
    7.3877  -15.4994   21.8663 C   0  0  0  0  0  0  0  0  0  0  0  0
    6.1423  -15.6330   22.0928 O   0  0  0  0  0  0  0  0  0  0  0  0
    8.2551  -15.8260   22.9327 N   0  0  0  0  0  0  0  0  0  0  0  0
    8.0233  -16.9793   23.7704 C   0  0  1  0  0  0  0  0  0  0  0  0
    7.8633  -18.1717   22.8390 C   0  0  0  0  0  0  0  0  0  0  0  0
    6.4327  -18.6585   22.8327 C   0  0  0  0  0  0  0  0  0  0  0  0
    6.4091  -20.0474   23.4182 C   0  0  0  0  0  0  0  0  0  0  0  0
    5.0201  -20.6386   23.2607 C   0  0  0  0  0  0  0  0  0  0  0  0
    5.0276  -21.9626   23.8717 N   0  0  0  0  0  0  0  0  0  0  0  0
    9.1174  -17.1955   24.7412 C   0  0  0  0  0  0  0  0  0  0  0  0
   10.2779  -17.3356   24.2831 O   0  0  0  0  0  0  0  0  0  0  0  0
    6.9540  -11.5498   26.3638 C   0  0  0  0  0  0  0  0  0  0  0  0
    6.6236  -12.8604   27.5359 S   0  0  0  0  0  0  0  0  0  0  0  0
    8.0287  -13.9614   27.7580 C   0  0  0  0  0  0  0  0  0  0  0  0
    8.0050  -15.1545   26.8889 C   0  0  0  0  0  0  0  0  0  0  0  0
    9.1016  -16.1151   27.0475 C   0  0  2  0  0  0  0  0  0  0  0  0
    8.9417  -17.2537   26.1308 N   0  0  0  0  0  0  0  0  0  0  0  0
    9.4495  -16.6611   28.3340 C   0  0  0  0  0  0  0  0  0  0  0  0
    9.3852  -17.9684   28.7774 O   0  0  0  0  0  0  0  0  0  0  0  0
    9.8847  -15.8504   29.2402 O   0  0  0  0  0  0  0  0  0  0  0  0
  2  3  2  0
  2  1  1  0
  4  2  1  0
  5  4  1  0
  6  5  1  0
  6  7  1  6
  8  6  1  0
  8  9  2  0
 10  8  1  0
 11 10  1  0
 11 12  1  6
 13 14  1  0
 13 12  1  0
 15 14  1  0
 16 15  1  0
 17 11  1  0
 18 17  2  0
 19 20  1  0
 20 21  1  0
 22 21  1  0
 23 22  1  1
 23 24  1  0
 24 17  1  0
 25 26  1  0
 25 23  1  0
 27 25  2  0
M  END
$$$$
