QKM.pdb
     RDKit          3D

 27 26  0  0  1  0  0  0  0  0999 V2000
    5.7855  -19.3142   26.9187 N   0  0  0  0  0  0  0  0  0  0  0  0
    6.7937  -20.0764   26.2960 C   0  0  0  0  0  0  0  0  0  0  0  0
    7.4635  -20.8885   26.9634 O   0  0  0  0  0  0  0  0  0  0  0  0
    7.0496  -19.9066   24.8531 C   0  0  0  0  0  0  0  0  0  0  0  0
    6.1556  -18.8268   24.2519 C   0  0  0  0  0  0  0  0  0  0  0  0
    6.3872  -18.7337   22.7622 C   0  0  2  0  0  0  0  0  0  0  0  0
    6.7185  -20.0033   22.1808 N   0  0  0  0  0  0  0  0  0  0  0  0
    7.5032  -17.7996   22.4820 C   0  0  0  0  0  0  0  0  0  0  0  0
    8.6685  -18.2124   22.1791 O   0  0  0  0  0  0  0  0  0  0  0  0
    7.3315  -16.3982   22.5366 N   0  0  0  0  0  0  0  0  0  0  0  0
    8.3785  -15.4913   22.1282 C   0  0  1  0  0  0  0  0  0  0  0  0
    7.6938  -14.2893   21.4944 C   0  0  0  0  0  0  0  0  0  0  0  0
    7.3129  -14.5833   20.0619 C   0  0  0  0  0  0  0  0  0  0  0  0
    7.9473  -13.5340   19.1851 C   0  0  0  0  0  0  0  0  0  0  0  0
    7.5014  -13.7388   17.7488 C   0  0  0  0  0  0  0  0  0  0  0  0
    7.9665  -12.5965   16.9708 N   0  0  0  0  0  0  0  0  0  0  0  0
    9.2419  -15.0869   23.2584 C   0  0  0  0  0  0  0  0  0  0  0  0
    9.8926  -14.0201   23.1363 O   0  0  0  0  0  0  0  0  0  0  0  0
    6.6218  -11.6704   25.9288 C   0  0  0  0  0  0  0  0  0  0  0  0
    7.7441  -11.8596   27.3091 S   0  0  0  0  0  0  0  0  0  0  0  0
    8.6029  -13.4401   27.2918 C   0  0  0  0  0  0  0  0  0  0  0  0
    8.5637  -14.1351   25.9898 C   0  0  0  0  0  0  0  0  0  0  0  0
    9.5287  -15.2202   25.7856 C   0  0  2  0  0  0  0  0  0  0  0  0
    9.3786  -15.8144   24.4489 N   0  0  0  0  0  0  0  0  0  0  0  0
    9.6479  -16.3126   26.7166 C   0  0  0  0  0  0  0  0  0  0  0  0
   10.1236  -16.3100   28.0141 O   0  0  0  0  0  0  0  0  0  0  0  0
    9.2739  -17.4857   26.3273 O   0  0  0  0  0  0  0  0  0  0  0  0
  2  3  2  0
  2  1  1  0
  4  2  1  0
  5  4  1  0
  6  5  1  0
  6  7  1  1
  8  6  1  0
  8  9  2  0
 10  8  1  0
 11 10  1  0
 11 12  1  1
 13 14  1  0
 13 12  1  0
 15 14  1  0
 16 15  1  0
 17 11  1  0
 18 17  2  0
 19 20  1  0
 20 21  1  0
 22 21  1  0
 23 22  1  1
 23 24  1  0
 24 17  1  0
 25 26  1  0
 25 23  1  0
 27 25  2  0
M  END
$$$$
