QKM.pdb
     RDKit          3D

 27 26  0  0  1  0  0  0  0  0999 V2000
    9.4288  -12.9545   18.6609 N   0  0  0  0  0  0  0  0  0  0  0  0
    8.6842  -13.3806   17.5433 C   0  0  0  0  0  0  0  0  0  0  0  0
    9.1375  -13.2192   16.3936 O   0  0  0  0  0  0  0  0  0  0  0  0
    7.3685  -14.0170   17.7436 C   0  0  0  0  0  0  0  0  0  0  0  0
    7.0377  -14.1584   19.2259 C   0  0  0  0  0  0  0  0  0  0  0  0
    7.9751  -15.1506   19.8728 C   0  0  2  0  0  0  0  0  0  0  0  0
    8.1799  -16.3169   19.0620 N   0  0  0  0  0  0  0  0  0  0  0  0
    7.4223  -15.5926   21.1750 C   0  0  0  0  0  0  0  0  0  0  0  0
    6.7720  -14.8047   21.9341 O   0  0  0  0  0  0  0  0  0  0  0  0
    7.5889  -16.9153   21.6430 N   0  0  0  0  0  0  0  0  0  0  0  0
    7.1646  -17.3086   22.9662 C   0  0  1  0  0  0  0  0  0  0  0  0
    7.3282  -18.8192   23.0474 C   0  0  0  0  0  0  0  0  0  0  0  0
    6.0724  -19.5199   22.5832 C   0  0  0  0  0  0  0  0  0  0  0  0
    6.3447  -21.0024   22.5633 C   0  0  0  0  0  0  0  0  0  0  0  0
    5.1039  -21.7377   22.0908 C   0  0  0  0  0  0  0  0  0  0  0  0
    5.4451  -23.1495   21.9609 N   0  0  0  0  0  0  0  0  0  0  0  0
    7.9338  -16.6245   24.0277 C   0  0  0  0  0  0  0  0  0  0  0  0
    9.1715  -16.5013   23.8571 O   0  0  0  0  0  0  0  0  0  0  0  0
    6.6082  -10.5032   28.8199 C   0  0  0  0  0  0  0  0  0  0  0  0
    6.0529  -11.7992   27.7187 S   0  0  0  0  0  0  0  0  0  0  0  0
    7.3638  -12.9551   27.2929 C   0  0  0  0  0  0  0  0  0  0  0  0
    6.9409  -14.0417   26.3874 C   0  0  0  0  0  0  0  0  0  0  0  0
    7.9578  -15.0299   26.0134 C   0  0  2  0  0  0  0  0  0  0  0  0
    7.3720  -16.1086   25.2039 N   0  0  0  0  0  0  0  0  0  0  0  0
    8.8012  -15.6579   26.9977 C   0  0  0  0  0  0  0  0  0  0  0  0
    9.9035  -15.1505   27.6589 O   0  0  0  0  0  0  0  0  0  0  0  0
    8.5320  -16.8733   27.3413 O   0  0  0  0  0  0  0  0  0  0  0  0
  2  3  2  0
  2  1  1  0
  4  2  1  0
  5  4  1  0
  6  5  1  0
  6  7  1  6
  8  6  1  0
  8  9  2  0
 10  8  1  0
 11 10  1  0
 11 12  1  6
 13 14  1  0
 13 12  1  0
 15 14  1  0
 16 15  1  0
 17 11  1  0
 18 17  2  0
 19 20  1  0
 20 21  1  0
 22 21  1  0
 23 22  1  1
 23 24  1  0
 24 17  1  0
 25 26  1  0
 25 23  1  0
 27 25  2  0
M  END
$$$$
