QKM.pdb
     RDKit          3D

 27 26  0  0  1  0  0  0  0  0999 V2000
   14.5843  -14.6679   17.0055 N   0  0  0  0  0  0  0  0  0  0  0  0
   14.8684  -14.3554   18.3496 C   0  0  0  0  0  0  0  0  0  0  0  0
   15.8186  -13.5977   18.6263 O   0  0  0  0  0  0  0  0  0  0  0  0
   14.0357  -14.9298   19.4233 C   0  0  0  0  0  0  0  0  0  0  0  0
   12.9216  -15.8042   18.8570 C   0  0  0  0  0  0  0  0  0  0  0  0
   12.1964  -16.5092   19.9789 C   0  0  2  0  0  0  0  0  0  0  0  0
   11.2030  -17.4255   19.4961 N   0  0  0  0  0  0  0  0  0  0  0  0
   11.5174  -15.5158   20.8442 C   0  0  0  0  0  0  0  0  0  0  0  0
   12.1668  -14.6584   21.5248 O   0  0  0  0  0  0  0  0  0  0  0  0
   10.1100  -15.4685   20.9592 N   0  0  0  0  0  0  0  0  0  0  0  0
    9.4563  -14.5726   21.8841 C   0  0  1  0  0  0  0  0  0  0  0  0
    8.1351  -14.1712   21.2449 C   0  0  0  0  0  0  0  0  0  0  0  0
    8.3488  -13.1009   20.1998 C   0  0  0  0  0  0  0  0  0  0  0  0
    8.0998  -13.7140   18.8454 C   0  0  0  0  0  0  0  0  0  0  0  0
    8.4617  -12.7130   17.7634 C   0  0  0  0  0  0  0  0  0  0  0  0
    8.1990  -13.3380   16.4723 N   0  0  0  0  0  0  0  0  0  0  0  0
    9.2481  -15.1911   23.2109 C   0  0  0  0  0  0  0  0  0  0  0  0
    8.7140  -16.3269   23.2423 O   0  0  0  0  0  0  0  0  0  0  0  0
    6.1082  -11.1294   26.1312 C   0  0  0  0  0  0  0  0  0  0  0  0
    5.9560  -12.4453   27.3336 S   0  0  0  0  0  0  0  0  0  0  0  0
    6.7197  -13.9781   26.7834 C   0  0  0  0  0  0  0  0  0  0  0  0
    7.6983  -13.8077   25.6912 C   0  0  0  0  0  0  0  0  0  0  0  0
    8.8491  -14.7166   25.6812 C   0  0  2  0  0  0  0  0  0  0  0  0
    9.6071  -14.5935   24.4271 N   0  0  0  0  0  0  0  0  0  0  0  0
    8.7037  -16.1251   25.9441 C   0  0  0  0  0  0  0  0  0  0  0  0
    8.5746  -17.1739   25.0535 O   0  0  0  0  0  0  0  0  0  0  0  0
    8.6794  -16.5136   27.1755 O   0  0  0  0  0  0  0  0  0  0  0  0
  2  3  2  0
  2  1  1  0
  4  2  1  0
  5  4  1  0
  6  5  1  0
  6  7  1  6
  8  6  1  0
  8  9  2  0
 10  8  1  0
 11 10  1  0
 11 12  1  6
 13 14  1  0
 13 12  1  0
 15 14  1  0
 16 15  1  0
 17 11  1  0
 18 17  2  0
 19 20  1  0
 20 21  1  0
 22 21  1  0
 23 22  1  6
 23 24  1  0
 24 17  1  0
 25 26  1  0
 25 23  1  0
 27 25  2  0
M  END
$$$$
