CMI.pdb
     RDKit          3D

 23 22  0  0  1  0  0  0  0  0999 V2000
   28.8504  -21.0985  -15.6132 N   0  0  0  0  0  0  0  0  0  0  0  0
   28.2810  -20.1284  -14.7385 C   0  0  1  0  0  0  0  0  0  0  0  0
   27.6106  -19.0380  -15.5616 C   0  0  0  0  0  0  0  0  0  0  0  0
   28.0526  -17.4158  -14.8773 S   0  0  0  0  0  0  0  0  0  0  0  0
   27.2967  -20.6570  -13.7906 C   0  0  0  0  0  0  0  0  0  0  0  0
   26.6076  -21.6504  -14.1399 O   0  0  0  0  0  0  0  0  0  0  0  0
   27.1727  -20.0779   -7.2727 C   0  0  0  0  0  0  0  0  0  0  0  0
   25.4531  -20.6448   -7.5582 S   0  0  0  0  0  0  0  0  0  0  0  0
   25.3098  -21.1047   -9.3033 C   0  0  0  0  0  0  0  0  0  0  0  0
   26.3107  -20.3316  -10.1588 C   0  0  0  0  0  0  0  0  0  0  0  0
   26.0909  -20.7268  -11.5842 C   0  0  2  0  0  0  0  0  0  0  0  0
   27.0486  -20.1373  -12.4904 N   0  0  0  0  0  0  0  0  0  0  0  0
   24.7353  -20.4797  -12.0837 C   0  0  0  0  0  0  0  0  0  0  0  0
   24.4437  -19.3076  -12.4259 O   0  0  0  0  0  0  0  0  0  0  0  0
   22.7405  -22.6997  -16.2611 C   0  0  0  0  0  0  0  0  0  0  0  0
   23.1201  -21.8427  -15.0748 C   0  0  0  0  0  0  0  0  0  0  0  0
   22.0784  -21.9197  -13.9788 C   0  0  2  0  0  0  0  0  0  0  0  0
   20.7686  -21.4678  -14.5820 C   0  0  0  0  0  0  0  0  0  0  0  0
   22.4641  -21.1263  -12.7765 C   0  0  2  0  0  0  0  0  0  0  0  0
   23.7349  -21.4748  -12.2057 N   0  0  0  0  0  0  0  0  0  0  0  0
   21.3815  -21.0252  -11.7580 C   0  0  0  0  0  0  0  0  0  0  0  0
   21.2620  -21.8384  -10.8110 O   0  0  0  0  0  0  0  0  0  0  0  0
   20.4303  -20.0075  -11.8036 O   0  0  0  0  0  0  0  0  0  0  0  0
  2  1  1  6
  3  2  1  0
  4  3  1  0
  5  2  1  0
  6  5  2  0
  8  7  1  0
  9  8  1  0
 10  9  1  0
 11 10  1  1
 11 12  1  0
 12  5  1  0
 13 20  1  0
 13 11  1  0
 14 13  2  0
 15 16  1  0
 16 17  1  0
 17 18  1  6
 19 17  1  0
 19 20  1  1
 21 23  1  0
 21 19  1  0
 22 21  2  0
M  END
$$$$
