CMI.pdb
     RDKit          3D

 23 22  0  0  1  0  0  0  0  0999 V2000
   19.9521  -12.8765  -15.9826 N   0  0  0  0  0  0  0  0  0  0  0  0
   20.4509  -11.7640  -16.7200 C   0  0  1  0  0  0  0  0  0  0  0  0
   19.2831  -10.9634  -17.2778 C   0  0  0  0  0  0  0  0  0  0  0  0
   18.3435  -12.0024  -18.4322 S   0  0  0  0  0  0  0  0  0  0  0  0
   21.3070  -10.8531  -15.9557 C   0  0  0  0  0  0  0  0  0  0  0  0
   20.9319  -10.5087  -14.8048 O   0  0  0  0  0  0  0  0  0  0  0  0
   27.5276  -12.7635  -15.1475 C   0  0  0  0  0  0  0  0  0  0  0  0
   27.0096  -11.1679  -15.8861 S   0  0  0  0  0  0  0  0  0  0  0  0
   25.2923  -10.8690  -15.3972 C   0  0  0  0  0  0  0  0  0  0  0  0
   24.8058   -9.5127  -15.9023 C   0  0  0  0  0  0  0  0  0  0  0  0
   23.3425   -9.4167  -15.6090 C   0  0  2  0  0  0  0  0  0  0  0  0
   22.5436  -10.3161  -16.4081 N   0  0  0  0  0  0  0  0  0  0  0  0
   22.7890   -8.0628  -15.7033 C   0  0  0  0  0  0  0  0  0  0  0  0
   22.4196   -7.6605  -16.8336 O   0  0  0  0  0  0  0  0  0  0  0  0
   18.6584   -4.6236  -16.1041 C   0  0  0  0  0  0  0  0  0  0  0  0
   20.0616   -4.5578  -15.5450 C   0  0  0  0  0  0  0  0  0  0  0  0
   20.6309   -5.9409  -15.3105 C   0  0  2  0  0  0  0  0  0  0  0  0
   19.6945   -6.6483  -14.3583 C   0  0  0  0  0  0  0  0  0  0  0  0
   22.0355   -5.8963  -14.8119 C   0  0  2  0  0  0  0  0  0  0  0  0
   22.6435   -7.1806  -14.6049 N   0  0  0  0  0  0  0  0  0  0  0  0
   22.2284   -4.9732  -13.6585 C   0  0  0  0  0  0  0  0  0  0  0  0
   21.9370   -3.7545  -13.7079 O   0  0  0  0  0  0  0  0  0  0  0  0
   22.7502   -5.4204  -12.4461 O   0  0  0  0  0  0  0  0  0  0  0  0
  2  1  1  1
  3  2  1  0
  4  3  1  0
  5  2  1  0
  6  5  2  0
  8  7  1  0
  9  8  1  0
 10  9  1  0
 11 10  1  6
 11 12  1  0
 12  5  1  0
 13 20  1  0
 13 11  1  0
 14 13  2  0
 15 16  1  0
 16 17  1  0
 17 18  1  1
 19 17  1  0
 19 20  1  1
 21 23  1  0
 21 19  1  0
 22 21  2  0
M  END
$$$$
