CMI.pdb
     RDKit          3D

 23 22  0  0  1  0  0  0  0  0999 V2000
   28.5386  -21.3419  -15.3130 N   0  0  0  0  0  0  0  0  0  0  0  0
   28.0183  -20.3803  -14.3993 C   0  0  1  0  0  0  0  0  0  0  0  0
   27.5005  -19.1767  -15.1733 C   0  0  0  0  0  0  0  0  0  0  0  0
   28.9090  -18.2032  -15.7764 S   0  0  0  0  0  0  0  0  0  0  0  0
   26.9384  -20.8705  -13.5388 C   0  0  0  0  0  0  0  0  0  0  0  0
   26.1402  -21.7210  -14.0113 O   0  0  0  0  0  0  0  0  0  0  0  0
   26.3191  -19.4922   -7.2633 C   0  0  0  0  0  0  0  0  0  0  0  0
   27.2380  -21.0267   -7.6641 S   0  0  0  0  0  0  0  0  0  0  0  0
   26.9705  -21.3836   -9.4187 C   0  0  0  0  0  0  0  0  0  0  0  0
   25.7436  -20.6450   -9.9484 C   0  0  0  0  0  0  0  0  0  0  0  0
   25.6130  -20.9658  -11.4031 C   0  0  2  0  0  0  0  0  0  0  0  0
   26.7103  -20.4624  -12.1958 N   0  0  0  0  0  0  0  0  0  0  0  0
   24.3456  -20.5473  -12.0087 C   0  0  0  0  0  0  0  0  0  0  0  0
   24.3014  -19.4135  -12.5458 O   0  0  0  0  0  0  0  0  0  0  0  0
   21.2570  -21.3987  -16.6107 C   0  0  0  0  0  0  0  0  0  0  0  0
   21.0542  -21.0038  -15.1654 C   0  0  0  0  0  0  0  0  0  0  0  0
   22.2237  -21.4311  -14.3042 C   0  0  2  0  0  0  0  0  0  0  0  0
   22.3268  -22.9348  -14.4138 C   0  0  0  0  0  0  0  0  0  0  0  0
   22.0877  -20.9633  -12.8948 C   0  0  2  0  0  0  0  0  0  0  0  0
   23.1699  -21.3367  -12.0279 N   0  0  0  0  0  0  0  0  0  0  0  0
   20.7497  -21.2424  -12.3018 C   0  0  0  0  0  0  0  0  0  0  0  0
   19.6775  -20.8946  -12.8512 O   0  0  0  0  0  0  0  0  0  0  0  0
   20.6160  -21.9142  -11.0880 O   0  0  0  0  0  0  0  0  0  0  0  0
  2  1  1  6
  3  2  1  0
  4  3  1  0
  5  2  1  0
  6  5  2  0
  8  7  1  0
  9  8  1  0
 10  9  1  0
 11 10  1  1
 11 12  1  0
 12  5  1  0
 13 20  1  0
 13 11  1  0
 14 13  2  0
 15 16  1  0
 16 17  1  0
 17 18  1  1
 19 17  1  0
 19 20  1  1
 21 23  1  0
 21 19  1  0
 22 21  2  0
M  END
$$$$
