CMI.pdb
     RDKit          3D

 23 22  0  0  1  0  0  0  0  0999 V2000
   21.8799  -28.4210  -13.2001 N   0  0  0  0  0  0  0  0  0  0  0  0
   20.7014  -27.6824  -13.5098 C   0  0  1  0  0  0  0  0  0  0  0  0
   19.4947  -28.6076  -13.4477 C   0  0  0  0  0  0  0  0  0  0  0  0
   19.5322  -29.7345  -14.8703 S   0  0  0  0  0  0  0  0  0  0  0  0
   20.4453  -26.5365  -12.6333 C   0  0  0  0  0  0  0  0  0  0  0  0
   20.8235  -26.6073  -11.4351 O   0  0  0  0  0  0  0  0  0  0  0  0
   21.3290  -19.9723  -13.4089 C   0  0  0  0  0  0  0  0  0  0  0  0
   19.6452  -20.1404  -12.7045 S   0  0  0  0  0  0  0  0  0  0  0  0
   19.5463  -21.7591  -11.8999 C   0  0  0  0  0  0  0  0  0  0  0  0
   19.8349  -22.8837  -12.8916 C   0  0  0  0  0  0  0  0  0  0  0  0
   19.7020  -24.1807  -12.1593 C   0  0  2  0  0  0  0  0  0  0  0  0
   19.7968  -25.3330  -13.0248 N   0  0  0  0  0  0  0  0  0  0  0  0
   18.4973  -24.2936  -11.3322 C   0  0  0  0  0  0  0  0  0  0  0  0
   17.4609  -24.7549  -11.8698 O   0  0  0  0  0  0  0  0  0  0  0  0
   18.3677  -25.5976   -5.9386 C   0  0  0  0  0  0  0  0  0  0  0  0
   18.1318  -25.4990   -7.4287 C   0  0  0  0  0  0  0  0  0  0  0  0
   17.3342  -24.2621   -7.7836 C   0  0  2  0  0  0  0  0  0  0  0  0
   16.0039  -24.3762   -7.0755 C   0  0  0  0  0  0  0  0  0  0  0  0
   17.1901  -24.0866   -9.2574 C   0  0  2  0  0  0  0  0  0  0  0  0
   18.4261  -23.9175   -9.9686 N   0  0  0  0  0  0  0  0  0  0  0  0
   16.1614  -23.0788   -9.6389 C   0  0  0  0  0  0  0  0  0  0  0  0
   16.4547  -21.9291  -10.0446 O   0  0  0  0  0  0  0  0  0  0  0  0
   14.7991  -23.3634   -9.5642 O   0  0  0  0  0  0  0  0  0  0  0  0
  2  1  1  1
  3  2  1  0
  4  3  1  0
  5  2  1  0
  6  5  2  0
  8  7  1  0
  9  8  1  0
 10  9  1  0
 11 10  1  6
 11 12  1  0
 12  5  1  0
 13 20  1  0
 13 11  1  0
 14 13  2  0
 15 16  1  0
 16 17  1  0
 17 18  1  1
 19 17  1  0
 19 20  1  1
 21 23  1  0
 21 19  1  0
 22 21  2  0
M  END
$$$$
