CMI.pdb
     RDKit          3D

 23 22  0  0  1  0  0  0  0  0999 V2000
   15.5486  -12.3836  -15.2229 N   0  0  0  0  0  0  0  0  0  0  0  0
   16.3510  -12.0040  -14.1083 C   0  0  1  0  0  0  0  0  0  0  0  0
   17.7638  -11.6981  -14.5841 C   0  0  0  0  0  0  0  0  0  0  0  0
   18.6284  -13.2563  -14.9297 S   0  0  0  0  0  0  0  0  0  0  0  0
   15.8579  -10.8436  -13.3618 C   0  0  0  0  0  0  0  0  0  0  0  0
   15.4356   -9.8527  -14.0126 O   0  0  0  0  0  0  0  0  0  0  0  0
   11.8517   -7.4433   -7.6906 C   0  0  0  0  0  0  0  0  0  0  0  0
   12.3362   -9.0333   -8.4631 S   0  0  0  0  0  0  0  0  0  0  0  0
   13.6488   -8.6840   -9.6600 C   0  0  0  0  0  0  0  0  0  0  0  0
   14.1302   -9.9654  -10.3365 C   0  0  0  0  0  0  0  0  0  0  0  0
   15.2444   -9.5988  -11.2640 C   0  0  2  0  0  0  0  0  0  0  0  0
   15.8143  -10.7382  -11.9444 N   0  0  0  0  0  0  0  0  0  0  0  0
   16.3187   -8.8153  -10.6473 C   0  0  0  0  0  0  0  0  0  0  0  0
   17.0734   -9.3997   -9.8319 O   0  0  0  0  0  0  0  0  0  0  0  0
   21.1692   -5.8063  -11.7783 C   0  0  0  0  0  0  0  0  0  0  0  0
   20.0424   -5.9329  -10.7783 C   0  0  0  0  0  0  0  0  0  0  0  0
   18.8545   -6.6613  -11.3703 C   0  0  2  0  0  0  0  0  0  0  0  0
   18.4326   -5.8914  -12.6003 C   0  0  0  0  0  0  0  0  0  0  0  0
   17.7467   -6.8282  -10.3860 C   0  0  2  0  0  0  0  0  0  0  0  0
   16.5610   -7.4450  -10.9109 N   0  0  0  0  0  0  0  0  0  0  0  0
   17.4576   -5.5954   -9.6009 C   0  0  0  0  0  0  0  0  0  0  0  0
   18.3322   -4.9959   -8.9315 O   0  0  0  0  0  0  0  0  0  0  0  0
   16.1821   -5.0346   -9.5677 O   0  0  0  0  0  0  0  0  0  0  0  0
  2  1  1  6
  3  2  1  0
  4  3  1  0
  5  2  1  0
  6  5  2  0
  8  7  1  0
  9  8  1  0
 10  9  1  0
 11 10  1  1
 11 12  1  0
 12  5  1  0
 13 20  1  0
 13 11  1  0
 14 13  2  0
 15 16  1  0
 16 17  1  0
 17 18  1  6
 19 17  1  0
 19 20  1  6
 21 23  1  0
 21 19  1  0
 22 21  2  0
M  END
$$$$
