CMI.pdb
     RDKit          3D

 23 22  0  0  1  0  0  0  0  0999 V2000
   21.0435  -23.4468  -14.6266 N   0  0  0  0  0  0  0  0  0  0  0  0
   19.8568  -23.9930  -14.0577 C   0  0  1  0  0  0  0  0  0  0  0  0
   19.2089  -24.9421  -15.0554 C   0  0  0  0  0  0  0  0  0  0  0  0
   18.4024  -23.9751  -16.3629 S   0  0  0  0  0  0  0  0  0  0  0  0
   20.0545  -24.7167  -12.7991 C   0  0  0  0  0  0  0  0  0  0  0  0
   21.1628  -25.2802  -12.6042 O   0  0  0  0  0  0  0  0  0  0  0  0
   16.9162  -23.8139   -7.1508 C   0  0  0  0  0  0  0  0  0  0  0  0
   18.4210  -24.7041   -6.6004 S   0  0  0  0  0  0  0  0  0  0  0  0
   19.1689  -25.4713   -8.0597 C   0  0  0  0  0  0  0  0  0  0  0  0
   18.6997  -24.7867   -9.3413 C   0  0  0  0  0  0  0  0  0  0  0  0
   19.3829  -25.4563  -10.4907 C   0  0  2  0  0  0  0  0  0  0  0  0
   19.0883  -24.8397  -11.7630 N   0  0  0  0  0  0  0  0  0  0  0  0
   19.1453  -26.8995  -10.5848 C   0  0  0  0  0  0  0  0  0  0  0  0
   18.1707  -27.2870  -11.2746 O   0  0  0  0  0  0  0  0  0  0  0  0
   23.1501  -30.7239  -10.3828 C   0  0  0  0  0  0  0  0  0  0  0  0
   21.9638  -29.8542  -10.7322 C   0  0  0  0  0  0  0  0  0  0  0  0
   20.7487  -30.2144   -9.9040 C   0  0  2  0  0  0  0  0  0  0  0  0
   20.3932  -31.6443  -10.2401 C   0  0  0  0  0  0  0  0  0  0  0  0
   19.6151  -29.2710  -10.1246 C   0  0  2  0  0  0  0  0  0  0  0  0
   19.9420  -27.8836   -9.9501 N   0  0  0  0  0  0  0  0  0  0  0  0
   18.3665  -29.6643   -9.4131 C   0  0  0  0  0  0  0  0  0  0  0  0
   18.1356  -29.3485   -8.2218 O   0  0  0  0  0  0  0  0  0  0  0  0
   17.3746  -30.4146  -10.0420 O   0  0  0  0  0  0  0  0  0  0  0  0
  2  1  1  6
  3  2  1  0
  4  3  1  0
  5  2  1  0
  6  5  2  0
  8  7  1  0
  9  8  1  0
 10  9  1  0
 11 10  1  1
 11 12  1  0
 12  5  1  0
 13 20  1  0
 13 11  1  0
 14 13  2  0
 15 16  1  0
 16 17  1  0
 17 18  1  6
 19 17  1  0
 19 20  1  1
 21 23  1  0
 21 19  1  0
 22 21  2  0
M  END
$$$$
