CMI.pdb
     RDKit          3D

 23 22  0  0  1  0  0  0  0  0999 V2000
   28.8355  -20.0941  -17.1475 N   0  0  0  0  0  0  0  0  0  0  0  0
   28.7474  -19.3714  -15.9227 C   0  0  1  0  0  0  0  0  0  0  0  0
   27.7118  -18.2651  -16.0626 C   0  0  0  0  0  0  0  0  0  0  0  0
   28.3820  -16.9494  -17.1186 S   0  0  0  0  0  0  0  0  0  0  0  0
   28.3963  -20.1820  -14.7538 C   0  0  0  0  0  0  0  0  0  0  0  0
   27.4764  -21.0323  -14.8735 O   0  0  0  0  0  0  0  0  0  0  0  0
   33.2748  -23.0983  -11.0181 C   0  0  0  0  0  0  0  0  0  0  0  0
   32.0117  -21.9084  -10.4278 S   0  0  0  0  0  0  0  0  0  0  0  0
   30.6780  -21.8724  -11.6514 C   0  0  0  0  0  0  0  0  0  0  0  0
   29.5732  -20.9058  -11.2311 C   0  0  0  0  0  0  0  0  0  0  0  0
   28.5674  -20.8566  -12.3366 C   0  0  2  0  0  0  0  0  0  0  0  0
   29.0141  -20.0901  -13.4762 N   0  0  0  0  0  0  0  0  0  0  0  0
   27.2376  -20.3924  -11.9313 C   0  0  0  0  0  0  0  0  0  0  0  0
   27.0506  -19.1536  -11.8524 O   0  0  0  0  0  0  0  0  0  0  0  0
   22.5587  -21.2908  -14.0095 C   0  0  0  0  0  0  0  0  0  0  0  0
   23.7498  -20.7289  -13.2669 C   0  0  0  0  0  0  0  0  0  0  0  0
   23.6970  -21.0719  -11.7932 C   0  0  2  0  0  0  0  0  0  0  0  0
   22.4687  -20.3981  -11.2266 C   0  0  0  0  0  0  0  0  0  0  0  0
   24.9479  -20.6865  -11.0787 C   0  0  2  0  0  0  0  0  0  0  0  0
   26.1517  -21.2482  -11.6239 N   0  0  0  0  0  0  0  0  0  0  0  0
   24.8584  -20.8372   -9.5991 C   0  0  0  0  0  0  0  0  0  0  0  0
   25.3633  -21.8059   -8.9835 O   0  0  0  0  0  0  0  0  0  0  0  0
   24.1998  -19.8968   -8.8091 O   0  0  0  0  0  0  0  0  0  0  0  0
  2  1  1  6
  3  2  1  0
  4  3  1  0
  5  2  1  0
  6  5  2  0
  8  7  1  0
  9  8  1  0
 10  9  1  0
 11 10  1  1
 11 12  1  0
 12  5  1  0
 13 20  1  0
 13 11  1  0
 14 13  2  0
 15 16  1  0
 16 17  1  0
 17 18  1  1
 19 17  1  0
 19 20  1  6
 21 23  1  0
 21 19  1  0
 22 21  2  0
M  END
$$$$
