RKW.pdb
     RDKit          3D

 35 36  0  0  1  0  0  0  0  0999 V2000
   26.6140  -32.8034  -12.6318 N   0  0  0  0  0  0  0  0  0  0  0  0
   25.1830  -32.8139  -12.6425 C   0  0  0  0  0  0  0  0  0  0  0  0
   24.5948  -32.4477  -13.7318 N   0  0  0  0  0  0  0  0  0  0  0  0
   24.4508  -33.2158  -11.4858 N   0  0  0  0  0  0  0  0  0  0  0  0
   25.1973  -34.0283  -10.5215 C   0  0  0  0  0  0  0  0  0  0  0  0
   24.2660  -34.3982   -9.4191 C   0  0  0  0  0  0  0  0  0  0  0  0
   24.8575  -35.1317   -8.2724 C   0  0  0  0  0  0  0  0  0  0  0  0
   24.9847  -36.6136   -8.4280 C   0  0  2  0  0  0  0  0  0  0  0  0
   23.7276  -37.2906   -8.4165 N   0  0  0  0  0  0  0  0  0  0  0  0
   25.8522  -37.0927   -7.2866 C   0  0  0  0  0  0  0  0  0  0  0  0
   25.2397  -37.5596   -6.2932 O   0  0  0  0  0  0  0  0  0  0  0  0
   23.5737  -32.4350  -13.8333 N   0  0  0  0  0  0  0  0  0  0  0  0
   27.2604  -36.9902   -7.4026 C   0  0  2  0  0  0  0  0  0  0  0  0
   28.0841  -37.4243   -6.2580 C   0  0  0  0  0  0  0  0  0  0  0  0
   29.3443  -37.9269   -6.8109 C   0  0  0  0  0  0  0  0  0  0  0  0
   30.3670  -38.5174   -5.9388 C   0  0  0  0  0  0  0  0  0  0  0  0
   31.6266  -38.9649   -6.6104 C   0  0  0  0  0  0  0  0  0  0  0  0
   32.5026  -39.7894   -5.6503 N   0  0  0  0  0  0  0  0  0  0  0  0
   33.7077  -40.2299   -6.3285 C   0  0  0  0  0  0  0  0  0  0  0  0
   28.1132  -36.3120   -5.3172 O   0  0  0  0  0  0  0  0  0  0  0  0
   28.7211  -36.4665   -4.2013 N   0  0  0  0  0  0  0  0  0  0  0  0
   27.5276  -35.0293   -5.4973 C   0  0  1  0  0  0  0  0  0  0  0  0
   27.7669  -33.9281   -4.5853 C   0  0  0  0  0  0  0  0  0  0  0  0
   27.7973  -32.5915   -5.3374 C   0  0  0  0  0  0  0  0  0  0  0  0
   26.5068  -32.4468   -6.0470 C   0  0  0  0  0  0  0  0  0  0  0  0
   25.2616  -32.3574   -5.4669 N   0  0  0  0  0  0  0  0  0  0  0  0
   24.3447  -32.2360   -6.4474 C   0  0  0  0  0  0  0  0  0  0  0  0
   24.9615  -32.2449   -7.6325 C   0  0  0  0  0  0  0  0  0  0  0  0
   24.4669  -32.1502   -8.9202 C   0  0  0  0  0  0  0  0  0  0  0  0
   25.3734  -32.1918   -9.9570 C   0  0  0  0  0  0  0  0  0  0  0  0
   26.7398  -32.3228   -9.7625 C   0  0  0  0  0  0  0  0  0  0  0  0
   27.2040  -32.4145   -8.4804 C   0  0  0  0  0  0  0  0  0  0  0  0
   26.3269  -32.3762   -7.4263 C   0  0  0  0  0  0  0  0  0  0  0  0
   26.8363  -33.9200   -3.4562 O   0  0  0  0  0  0  0  0  0  0  0  0
   25.6881  -34.6558   -3.3631 O   0  0  0  0  0  0  0  0  0  0  0  0
  2  3  2  0
  2  1  1  0
  4  2  1  0
  5  4  1  0
  6  5  1  0
  7  6  1  0
  8  7  1  0
  8  9  1  1
 10 12  1  0
 10  8  1  0
 11 10  2  0
 13 12  1  0
 13 19  1  0
 14 15  1  0
 13 14  1  6
 15 16  1  0
 16 17  1  0
 17 18  1  0
 19 21  1  0
 20 19  2  0
 21 22  1  0
 22 23  1  1
 22 33  1  0
 23 24  1  0
 24 25  2  0
 25 26  1  0
 27 28  2  0
 27 26  1  0
 29 28  1  0
 30 29  2  0
 31 30  1  0
 31 32  2  0
 32 24  1  0
 32 27  1  0
 33 34  1  0
 35 33  2  0
M  END
$$$$
