RKW.pdb
     RDKit          3D

 35 36  0  0  1  0  0  0  0  0999 V2000
   33.1988  -24.8986  -15.1454 N   0  0  0  0  0  0  0  0  0  0  0  0
   33.9281  -25.6737  -16.1022 C   0  0  0  0  0  0  0  0  0  0  0  0
   34.6632  -26.6345  -15.6515 N   0  0  0  0  0  0  0  0  0  0  0  0
   33.8352  -25.3822  -17.4958 N   0  0  0  0  0  0  0  0  0  0  0  0
   32.5039  -24.9921  -17.9679 C   0  0  0  0  0  0  0  0  0  0  0  0
   32.1964  -23.6475  -17.4052 C   0  0  0  0  0  0  0  0  0  0  0  0
   30.9160  -23.0297  -17.8317 C   0  0  0  0  0  0  0  0  0  0  0  0
   29.6823  -23.5179  -17.1418 C   0  0  2  0  0  0  0  0  0  0  0  0
   28.6825  -23.9912  -18.0446 N   0  0  0  0  0  0  0  0  0  0  0  0
   29.1541  -22.3557  -16.3322 C   0  0  0  0  0  0  0  0  0  0  0  0
   29.8616  -21.3169  -16.3415 O   0  0  0  0  0  0  0  0  0  0  0  0
   35.2338  -27.2297  -16.2625 N   0  0  0  0  0  0  0  0  0  0  0  0
   27.9302  -22.5032  -15.6340 C   0  0  1  0  0  0  0  0  0  0  0  0
   27.3141  -21.2958  -15.0515 C   0  0  0  0  0  0  0  0  0  0  0  0
   26.6858  -20.5672  -16.1564 C   0  0  0  0  0  0  0  0  0  0  0  0
   25.8758  -19.3690  -15.9042 C   0  0  0  0  0  0  0  0  0  0  0  0
   24.6352  -19.2275  -16.7281 C   0  0  0  0  0  0  0  0  0  0  0  0
   23.9697  -17.8594  -16.4956 N   0  0  0  0  0  0  0  0  0  0  0  0
   22.7986  -17.7240  -17.3422 C   0  0  0  0  0  0  0  0  0  0  0  0
   26.4915  -21.7426  -13.9347 O   0  0  0  0  0  0  0  0  0  0  0  0
   25.7802  -22.7971  -14.0785 N   0  0  0  0  0  0  0  0  0  0  0  0
   26.3815  -21.1262  -12.6586 C   0  0  1  0  0  0  0  0  0  0  0  0
   25.5125  -21.6388  -11.6176 C   0  0  0  0  0  0  0  0  0  0  0  0
   26.3292  -22.1302  -10.4158 C   0  0  0  0  0  0  0  0  0  0  0  0
   26.4794  -20.9933   -9.4807 C   0  0  0  0  0  0  0  0  0  0  0  0
   25.5669  -19.9847   -9.2683 N   0  0  0  0  0  0  0  0  0  0  0  0
   26.0721  -19.1433   -8.3443 C   0  0  0  0  0  0  0  0  0  0  0  0
   27.2748  -19.5799   -7.9600 C   0  0  0  0  0  0  0  0  0  0  0  0
   28.1822  -19.0726   -7.0484 C   0  0  0  0  0  0  0  0  0  0  0  0
   29.3607  -19.7634   -6.8684 C   0  0  0  0  0  0  0  0  0  0  0  0
   29.6672  -20.9283   -7.5548 C   0  0  0  0  0  0  0  0  0  0  0  0
   28.7540  -21.4097   -8.4504 C   0  0  0  0  0  0  0  0  0  0  0  0
   27.5711  -20.7450   -8.6522 C   0  0  0  0  0  0  0  0  0  0  0  0
   24.4662  -20.6884  -11.2391 O   0  0  0  0  0  0  0  0  0  0  0  0
   23.3217  -20.9918  -10.5562 O   0  0  0  0  0  0  0  0  0  0  0  0
  2  3  2  0
  2  1  1  0
  4  2  1  0
  5  4  1  0
  6  5  1  0
  7  6  1  0
  8  7  1  0
  8  9  1  6
 10 12  1  0
 10  8  1  0
 11 10  2  0
 13 12  1  0
 13 19  1  0
 14 15  1  0
 13 14  1  1
 15 16  1  0
 16 17  1  0
 17 18  1  0
 19 21  1  0
 20 19  2  0
 21 22  1  0
 22 23  1  1
 22 33  1  0
 23 24  1  0
 24 25  2  0
 25 26  1  0
 27 28  2  0
 27 26  1  0
 29 28  1  0
 30 29  2  0
 31 30  1  0
 31 32  2  0
 32 24  1  0
 32 27  1  0
 33 34  1  0
 35 33  2  0
M  END
$$$$
