RKW.pdb
     RDKit          3D

 35 36  0  0  1  0  0  0  0  0999 V2000
   21.4168  -20.1068  -22.3350 N   0  0  0  0  0  0  0  0  0  0  0  0
   21.1893  -21.1125  -23.3274 C   0  0  0  0  0  0  0  0  0  0  0  0
   20.8707  -20.7146  -24.5135 N   0  0  0  0  0  0  0  0  0  0  0  0
   21.3134  -22.4959  -23.0014 N   0  0  0  0  0  0  0  0  0  0  0  0
   21.7264  -22.7817  -21.6248 C   0  0  0  0  0  0  0  0  0  0  0  0
   21.7437  -24.2612  -21.4516 C   0  0  0  0  0  0  0  0  0  0  0  0
   22.1531  -24.7657  -20.1172 C   0  0  0  0  0  0  0  0  0  0  0  0
   23.1585  -25.8727  -20.1070 C   0  0  2  0  0  0  0  0  0  0  0  0
   22.5661  -27.1704  -20.0463 N   0  0  0  0  0  0  0  0  0  0  0  0
   24.0421  -25.6396  -18.9029 C   0  0  0  0  0  0  0  0  0  0  0  0
   23.6227  -26.1140  -17.8171 O   0  0  0  0  0  0  0  0  0  0  0  0
   20.6626  -21.3653  -25.2793 N   0  0  0  0  0  0  0  0  0  0  0  0
   25.2532  -24.9228  -19.0665 C   0  0  2  0  0  0  0  0  0  0  0  0
   26.0603  -24.6410  -17.8641 C   0  0  0  0  0  0  0  0  0  0  0  0
   27.4409  -24.4528  -18.3165 C   0  0  0  0  0  0  0  0  0  0  0  0
   28.4596  -23.8986  -17.4162 C   0  0  0  0  0  0  0  0  0  0  0  0
   29.4884  -24.8614  -16.9138 C   0  0  0  0  0  0  0  0  0  0  0  0
   30.5388  -24.1457  -16.0460 N   0  0  0  0  0  0  0  0  0  0  0  0
   31.5538  -25.0882  -15.6126 C   0  0  0  0  0  0  0  0  0  0  0  0
   25.3903  -23.5591  -17.1540 O   0  0  0  0  0  0  0  0  0  0  0  0
   24.8403  -22.6250  -17.8349 N   0  0  0  0  0  0  0  0  0  0  0  0
   25.2690  -23.4124  -15.7454 C   0  0  2  0  0  0  0  0  0  0  0  0
   24.5021  -22.3436  -15.1362 C   0  0  0  0  0  0  0  0  0  0  0  0
   23.8818  -22.8022  -13.8103 C   0  0  0  0  0  0  0  0  0  0  0  0
   23.9163  -21.6536  -12.8781 C   0  0  0  0  0  0  0  0  0  0  0  0
   22.9817  -20.6470  -12.7875 N   0  0  0  0  0  0  0  0  0  0  0  0
   23.3710  -19.7924  -11.8207 C   0  0  0  0  0  0  0  0  0  0  0  0
   24.5213  -20.2187  -11.2914 C   0  0  0  0  0  0  0  0  0  0  0  0
   25.3126  -19.6962  -10.2851 C   0  0  0  0  0  0  0  0  0  0  0  0
   26.4639  -20.3791   -9.9585 C   0  0  0  0  0  0  0  0  0  0  0  0
   26.8534  -21.5506  -10.5894 C   0  0  0  0  0  0  0  0  0  0  0  0
   26.0544  -22.0469  -11.5809 C   0  0  0  0  0  0  0  0  0  0  0  0
   24.9014  -21.3903  -11.9293 C   0  0  0  0  0  0  0  0  0  0  0  0
   25.2701  -21.1053  -15.0022 O   0  0  0  0  0  0  0  0  0  0  0  0
   24.7660  -19.8389  -15.1031 O   0  0  0  0  0  0  0  0  0  0  0  0
  2  3  2  0
  2  1  1  0
  4  2  1  0
  5  4  1  0
  6  5  1  0
  7  6  1  0
  8  7  1  0
  8  9  1  1
 10 12  1  0
 10  8  1  0
 11 10  2  0
 13 12  1  0
 13 19  1  0
 14 15  1  0
 13 14  1  6
 15 16  1  0
 16 17  1  0
 17 18  1  0
 19 21  1  0
 20 19  2  0
 21 22  1  0
 22 23  1  6
 22 33  1  0
 23 24  1  0
 24 25  2  0
 25 26  1  0
 27 28  2  0
 27 26  1  0
 29 28  1  0
 30 29  2  0
 31 30  1  0
 31 32  2  0
 32 24  1  0
 32 27  1  0
 33 34  1  0
 35 33  2  0
M  END
$$$$
