RKW.pdb
     RDKit          3D

 35 36  0  0  1  0  0  0  0  0999 V2000
   23.3371  -21.5152  -19.6682 N   0  0  0  0  0  0  0  0  0  0  0  0
   22.0589  -22.1251  -19.8738 C   0  0  0  0  0  0  0  0  0  0  0  0
   21.4262  -21.8263  -20.9588 N   0  0  0  0  0  0  0  0  0  0  0  0
   21.5197  -23.0256  -18.9073 N   0  0  0  0  0  0  0  0  0  0  0  0
   22.1450  -22.9728  -17.5831 C   0  0  0  0  0  0  0  0  0  0  0  0
   23.4752  -23.6365  -17.6801 C   0  0  0  0  0  0  0  0  0  0  0  0
   24.2133  -23.8267  -16.4065 C   0  0  0  0  0  0  0  0  0  0  0  0
   23.7408  -23.0197  -15.2396 C   0  0  2  0  0  0  0  0  0  0  0  0
   23.0011  -21.8593  -15.6204 N   0  0  0  0  0  0  0  0  0  0  0  0
   24.9754  -22.6261  -14.4613 C   0  0  0  0  0  0  0  0  0  0  0  0
   25.7133  -23.5739  -14.0910 O   0  0  0  0  0  0  0  0  0  0  0  0
   20.5043  -22.2148  -21.1879 N   0  0  0  0  0  0  0  0  0  0  0  0
   25.2190  -21.2542  -14.2048 C   0  0  1  0  0  0  0  0  0  0  0  0
   26.3579  -20.9026  -13.3353 C   0  0  0  0  0  0  0  0  0  0  0  0
   26.9599  -19.6908  -13.8970 C   0  0  0  0  0  0  0  0  0  0  0  0
   27.4259  -19.6570  -15.2888 C   0  0  0  0  0  0  0  0  0  0  0  0
   28.8401  -20.0863  -15.5203 C   0  0  0  0  0  0  0  0  0  0  0  0
   29.2163  -19.9725  -17.0083 N   0  0  0  0  0  0  0  0  0  0  0  0
   29.3916  -18.5788  -17.3734 C   0  0  0  0  0  0  0  0  0  0  0  0
   25.8502  -20.8777  -11.9696 O   0  0  0  0  0  0  0  0  0  0  0  0
   24.6828  -20.3975  -11.7566 N   0  0  0  0  0  0  0  0  0  0  0  0
   26.5194  -21.3406  -10.8042 C   0  0  2  0  0  0  0  0  0  0  0  0
   26.0616  -21.0255   -9.4653 C   0  0  0  0  0  0  0  0  0  0  0  0
   26.8848  -21.7801   -8.4137 C   0  0  0  0  0  0  0  0  0  0  0  0
   26.7763  -21.0348   -7.1400 C   0  0  0  0  0  0  0  0  0  0  0  0
   25.6196  -20.7821   -6.4378 N   0  0  0  0  0  0  0  0  0  0  0  0
   25.9387  -20.0766   -5.3345 C   0  0  0  0  0  0  0  0  0  0  0  0
   27.2585  -19.8705   -5.3084 C   0  0  0  0  0  0  0  0  0  0  0  0
   28.0618  -19.2094   -4.3976 C   0  0  0  0  0  0  0  0  0  0  0  0
   29.4150  -19.1660   -4.6533 C   0  0  0  0  0  0  0  0  0  0  0  0
   29.9931  -19.7499   -5.7700 C   0  0  0  0  0  0  0  0  0  0  0  0
   29.1779  -20.3976   -6.6554 C   0  0  0  0  0  0  0  0  0  0  0  0
   27.8263  -20.4584   -6.4291 C   0  0  0  0  0  0  0  0  0  0  0  0
   26.0072  -19.5851   -9.2134 O   0  0  0  0  0  0  0  0  0  0  0  0
   24.9905  -18.9229   -8.5841 O   0  0  0  0  0  0  0  0  0  0  0  0
  2  3  2  0
  2  1  1  0
  4  2  1  0
  5  4  1  0
  6  5  1  0
  7  6  1  0
  8  7  1  0
  8  9  1  6
 10 12  1  0
 10  8  1  0
 11 10  2  0
 13 12  1  0
 13 19  1  0
 14 15  1  0
 13 14  1  6
 15 16  1  0
 16 17  1  0
 17 18  1  0
 19 21  1  0
 20 19  2  0
 21 22  1  0
 22 23  1  6
 22 33  1  0
 23 24  1  0
 24 25  2  0
 25 26  1  0
 27 28  2  0
 27 26  1  0
 29 28  1  0
 30 29  2  0
 31 30  1  0
 31 32  2  0
 32 24  1  0
 32 27  1  0
 33 34  1  0
 35 33  2  0
M  END
$$$$
