RKW.pdb
     RDKit          3D

 35 36  0  0  1  0  0  0  0  0999 V2000
   24.0641  -24.6094  -13.2169 N   0  0  0  0  0  0  0  0  0  0  0  0
   23.3396  -24.7300  -14.4452 C   0  0  0  0  0  0  0  0  0  0  0  0
   22.1064  -24.3481  -14.4469 N   0  0  0  0  0  0  0  0  0  0  0  0
   23.9708  -25.2543  -15.6124 N   0  0  0  0  0  0  0  0  0  0  0  0
   25.3769  -25.6329  -15.4490 C   0  0  0  0  0  0  0  0  0  0  0  0
   26.0983  -25.2577  -16.6973 C   0  0  0  0  0  0  0  0  0  0  0  0
   26.2468  -23.8051  -16.9636 C   0  0  0  0  0  0  0  0  0  0  0  0
   27.6438  -23.2716  -16.9684 C   0  0  2  0  0  0  0  0  0  0  0  0
   28.6377  -24.2960  -16.9294 N   0  0  0  0  0  0  0  0  0  0  0  0
   27.7649  -22.3731  -15.7588 C   0  0  0  0  0  0  0  0  0  0  0  0
   28.6998  -22.6481  -14.9650 O   0  0  0  0  0  0  0  0  0  0  0  0
   21.5044  -24.4216  -15.2748 N   0  0  0  0  0  0  0  0  0  0  0  0
   26.8454  -21.3072  -15.5986 C   0  0  2  0  0  0  0  0  0  0  0  0
   27.1611  -20.2621  -14.6062 C   0  0  0  0  0  0  0  0  0  0  0  0
   26.6025  -19.0090  -15.1200 C   0  0  0  0  0  0  0  0  0  0  0  0
   26.5273  -17.8138  -14.2708 C   0  0  0  0  0  0  0  0  0  0  0  0
   25.9673  -16.5841  -14.9128 C   0  0  0  0  0  0  0  0  0  0  0  0
   26.0490  -15.3772  -13.9612 N   0  0  0  0  0  0  0  0  0  0  0  0
   25.6357  -14.1690  -14.6512 C   0  0  0  0  0  0  0  0  0  0  0  0
   26.7135  -20.7635  -13.3132 O   0  0  0  0  0  0  0  0  0  0  0  0
   25.6206  -21.4276  -13.2563 N   0  0  0  0  0  0  0  0  0  0  0  0
   27.3694  -20.5986  -12.0630 C   0  0  2  0  0  0  0  0  0  0  0  0
   26.8253  -21.1163  -10.8230 C   0  0  0  0  0  0  0  0  0  0  0  0
   27.8890  -21.1193   -9.7178 C   0  0  0  0  0  0  0  0  0  0  0  0
   27.2043  -20.8420   -8.4356 C   0  0  0  0  0  0  0  0  0  0  0  0
   25.9103  -21.1816   -8.1109 N   0  0  0  0  0  0  0  0  0  0  0  0
   25.6621  -20.7556   -6.8564 C   0  0  0  0  0  0  0  0  0  0  0  0
   26.7524  -20.1562   -6.3696 C   0  0  0  0  0  0  0  0  0  0  0  0
   26.9982  -19.5614   -5.1459 C   0  0  0  0  0  0  0  0  0  0  0  0
   28.2476  -19.0184   -4.9393 C   0  0  0  0  0  0  0  0  0  0  0  0
   29.2515  -19.0448   -5.8951 C   0  0  0  0  0  0  0  0  0  0  0  0
   28.9840  -19.6384   -7.0968 C   0  0  0  0  0  0  0  0  0  0  0  0
   27.7497  -20.1884   -7.3333 C   0  0  0  0  0  0  0  0  0  0  0  0
   25.5944  -20.4350  -10.4206 O   0  0  0  0  0  0  0  0  0  0  0  0
   24.5190  -21.0221   -9.8147 O   0  0  0  0  0  0  0  0  0  0  0  0
  2  3  2  0
  2  1  1  0
  4  2  1  0
  5  4  1  0
  6  5  1  0
  7  6  1  0
  8  7  1  0
  8  9  1  1
 10 12  1  0
 10  8  1  0
 11 10  2  0
 13 12  1  0
 13 19  1  0
 14 15  1  0
 13 14  1  6
 15 16  1  0
 16 17  1  0
 17 18  1  0
 19 21  1  0
 20 19  2  0
 21 22  1  0
 22 23  1  6
 22 33  1  0
 23 24  1  0
 24 25  2  0
 25 26  1  0
 27 28  2  0
 27 26  1  0
 29 28  1  0
 30 29  2  0
 31 30  1  0
 31 32  2  0
 32 24  1  0
 32 27  1  0
 33 34  1  0
 35 33  2  0
M  END
$$$$
