RKW.pdb
     RDKit          3D

 35 36  0  0  1  0  0  0  0  0999 V2000
   33.0129  -24.7569  -16.0589 N   0  0  0  0  0  0  0  0  0  0  0  0
   33.0105  -24.5295  -14.6460 C   0  0  0  0  0  0  0  0  0  0  0  0
   34.0727  -24.8584  -13.9900 N   0  0  0  0  0  0  0  0  0  0  0  0
   31.8703  -23.9612  -14.0036 N   0  0  0  0  0  0  0  0  0  0  0  0
   30.7080  -23.7406  -14.8682 C   0  0  0  0  0  0  0  0  0  0  0  0
   30.7835  -22.3460  -15.3867 C   0  0  0  0  0  0  0  0  0  0  0  0
   29.6708  -21.4393  -15.0089 C   0  0  0  0  0  0  0  0  0  0  0  0
   28.3583  -21.6842  -15.6824 C   0  0  2  0  0  0  0  0  0  0  0  0
   28.3406  -21.2692  -17.0485 N   0  0  0  0  0  0  0  0  0  0  0  0
   27.3195  -20.9266  -14.8876 C   0  0  0  0  0  0  0  0  0  0  0  0
   27.1337  -19.7316  -15.2301 O   0  0  0  0  0  0  0  0  0  0  0  0
   34.1796  -24.6838  -12.9844 N   0  0  0  0  0  0  0  0  0  0  0  0
   26.6383  -21.5896  -13.8371 C   0  0  2  0  0  0  0  0  0  0  0  0
   25.5865  -20.8481  -13.1156 C   0  0  0  0  0  0  0  0  0  0  0  0
   24.3160  -21.1749  -13.7680 C   0  0  0  0  0  0  0  0  0  0  0  0
   23.0366  -20.7825  -13.1643 C   0  0  0  0  0  0  0  0  0  0  0  0
   21.8044  -21.2048  -13.9000 C   0  0  0  0  0  0  0  0  0  0  0  0
   20.5366  -20.6808  -13.2022 N   0  0  0  0  0  0  0  0  0  0  0  0
   20.5188  -19.2297  -13.2239 C   0  0  0  0  0  0  0  0  0  0  0  0
   25.7577  -21.1491  -11.7001 O   0  0  0  0  0  0  0  0  0  0  0  0
   25.7922  -22.3747  -11.3322 N   0  0  0  0  0  0  0  0  0  0  0  0
   25.8974  -20.2110  -10.6414 C   0  0  1  0  0  0  0  0  0  0  0  0
   25.7781  -20.5867   -9.2463 C   0  0  0  0  0  0  0  0  0  0  0  0
   26.4476  -19.5456   -8.3401 C   0  0  0  0  0  0  0  0  0  0  0  0
   27.7328  -20.1144   -7.8772 C   0  0  0  0  0  0  0  0  0  0  0  0
   28.5107  -21.0290   -8.5506 N   0  0  0  0  0  0  0  0  0  0  0  0
   29.5978  -21.2956   -7.7997 C   0  0  0  0  0  0  0  0  0  0  0  0
   29.5405  -20.5831   -6.6709 C   0  0  0  0  0  0  0  0  0  0  0  0
   30.4038  -20.5081   -5.5934 C   0  0  0  0  0  0  0  0  0  0  0  0
   30.0617  -19.6653   -4.5586 C   0  0  0  0  0  0  0  0  0  0  0  0
   28.9043  -18.9019   -4.5556 C   0  0  0  0  0  0  0  0  0  0  0  0
   28.0672  -18.9935   -5.6321 C   0  0  0  0  0  0  0  0  0  0  0  0
   28.3798  -19.8237   -6.6785 C   0  0  0  0  0  0  0  0  0  0  0  0
   24.3968  -20.8707   -8.8559 O   0  0  0  0  0  0  0  0  0  0  0  0
   23.2960  -20.7226   -9.6524 O   0  0  0  0  0  0  0  0  0  0  0  0
  2  3  2  0
  2  1  1  0
  4  2  1  0
  5  4  1  0
  6  5  1  0
  7  6  1  0
  8  7  1  0
  8  9  1  6
 10 12  1  0
 10  8  1  0
 11 10  2  0
 13 12  1  0
 13 19  1  0
 14 15  1  0
 13 14  1  6
 15 16  1  0
 16 17  1  0
 17 18  1  0
 19 21  1  0
 20 19  2  0
 21 22  1  0
 22 23  1  1
 22 33  1  0
 23 24  1  0
 24 25  2  0
 25 26  1  0
 27 28  2  0
 27 26  1  0
 29 28  1  0
 30 29  2  0
 31 30  1  0
 31 32  2  0
 32 24  1  0
 32 27  1  0
 33 34  1  0
 35 33  2  0
M  END
$$$$
