RKW.pdb
     RDKit          3D

 35 36  0  0  1  0  0  0  0  0999 V2000
   16.8175  -22.4790  -13.7457 N   0  0  0  0  0  0  0  0  0  0  0  0
   16.4233  -21.1431  -14.0744 C   0  0  0  0  0  0  0  0  0  0  0  0
   15.1772  -20.8390  -13.9286 N   0  0  0  0  0  0  0  0  0  0  0  0
   17.3829  -20.1973  -14.5438 N   0  0  0  0  0  0  0  0  0  0  0  0
   18.7827  -20.6168  -14.4349 C   0  0  0  0  0  0  0  0  0  0  0  0
   19.2076  -20.4248  -13.0200 C   0  0  0  0  0  0  0  0  0  0  0  0
   20.5947  -20.8332  -12.6853 C   0  0  0  0  0  0  0  0  0  0  0  0
   21.6040  -20.7130  -13.7822 C   0  0  2  0  0  0  0  0  0  0  0  0
   21.2007  -21.3569  -14.9911 N   0  0  0  0  0  0  0  0  0  0  0  0
   22.8824  -21.3269  -13.2590 C   0  0  0  0  0  0  0  0  0  0  0  0
   22.8885  -22.5803  -13.1652 O   0  0  0  0  0  0  0  0  0  0  0  0
   14.7947  -19.9248  -14.1953 N   0  0  0  0  0  0  0  0  0  0  0  0
   23.9638  -20.4778  -12.9171 C   0  0  1  0  0  0  0  0  0  0  0  0
   25.2645  -21.1017  -12.6074 C   0  0  0  0  0  0  0  0  0  0  0  0
   26.0869  -20.9853  -13.8142 C   0  0  0  0  0  0  0  0  0  0  0  0
   26.8451  -22.1350  -14.3227 C   0  0  0  0  0  0  0  0  0  0  0  0
   27.6768  -21.8884  -15.5415 C   0  0  0  0  0  0  0  0  0  0  0  0
   28.3275  -23.1909  -16.0401 N   0  0  0  0  0  0  0  0  0  0  0  0
   29.0690  -22.9420  -17.2627 C   0  0  0  0  0  0  0  0  0  0  0  0
   25.7330  -20.4992  -11.3661 O   0  0  0  0  0  0  0  0  0  0  0  0
   25.4285  -19.2802  -11.1213 N   0  0  0  0  0  0  0  0  0  0  0  0
   26.5145  -21.1261  -10.3577 C   0  0  1  0  0  0  0  0  0  0  0  0
   27.2597  -20.3729   -9.3682 C   0  0  0  0  0  0  0  0  0  0  0  0
   26.6455  -20.5449   -7.9731 C   0  0  0  0  0  0  0  0  0  0  0  0
   27.3815  -19.6564   -7.0466 C   0  0  0  0  0  0  0  0  0  0  0  0
   27.5177  -18.2912   -7.1597 N   0  0  0  0  0  0  0  0  0  0  0  0
   28.2571  -17.8512   -6.1223 C   0  0  0  0  0  0  0  0  0  0  0  0
   28.5974  -18.8880   -5.3513 C   0  0  0  0  0  0  0  0  0  0  0  0
   29.3414  -18.9555   -4.1878 C   0  0  0  0  0  0  0  0  0  0  0  0
   29.5220  -20.1962   -3.6164 C   0  0  0  0  0  0  0  0  0  0  0  0
   28.9953  -21.3606   -4.1540 C   0  0  0  0  0  0  0  0  0  0  0  0
   28.2635  -21.2676   -5.3046 C   0  0  0  0  0  0  0  0  0  0  0  0
   28.0656  -20.0467   -5.8978 C   0  0  0  0  0  0  0  0  0  0  0  0
   28.6920  -20.6706   -9.3956 O   0  0  0  0  0  0  0  0  0  0  0  0
   29.6957  -19.7905   -9.1018 O   0  0  0  0  0  0  0  0  0  0  0  0
  2  3  2  0
  2  1  1  0
  4  2  1  0
  5  4  1  0
  6  5  1  0
  7  6  1  0
  8  7  1  0
  8  9  1  6
 10 12  1  0
 10  8  1  0
 11 10  2  0
 13 12  1  0
 13 19  1  0
 14 15  1  0
 13 14  1  1
 15 16  1  0
 16 17  1  0
 17 18  1  0
 19 21  1  0
 20 19  2  0
 21 22  1  0
 22 23  1  6
 22 33  1  0
 23 24  1  0
 24 25  2  0
 25 26  1  0
 27 28  2  0
 27 26  1  0
 29 28  1  0
 30 29  2  0
 31 30  1  0
 31 32  2  0
 32 24  1  0
 32 27  1  0
 33 34  1  0
 35 33  2  0
M  END
$$$$
