NNP.pdb
     RDKit          3D

 24 24  0  0  1  0  0  0  0  0999 V2000
   18.8354  -20.4238  -11.6288 N   0  0  0  0  0  0  0  0  0  0  0  0
   19.9073  -20.5507  -10.6790 C   0  0  0  0  0  0  0  0  0  0  0  0
   19.6102  -20.6984   -9.4916 O   0  0  0  0  0  0  0  0  0  0  0  0
   21.2583  -20.4976  -11.1723 C   0  0  0  0  0  0  0  0  0  0  0  0
   21.4659  -20.1308  -12.6140 C   0  0  2  0  0  0  0  0  0  0  0  0
   20.6922  -21.2564  -13.3060 N   0  0  0  0  0  0  0  0  0  0  0  0
   22.8637  -20.3581  -13.0322 C   0  0  0  0  0  0  0  0  0  0  0  0
   23.7844  -19.5523  -12.5888 O   0  0  0  0  0  0  0  0  0  0  0  0
   25.5137  -24.4636  -14.1211 N   0  0  0  0  0  0  0  0  0  0  0  0
   25.8666  -23.3369  -14.9372 C   0  0  0  0  0  0  0  0  0  0  0  0
   27.0668  -23.0779  -15.2155 O   0  0  0  0  0  0  0  0  0  0  0  0
   24.7479  -22.4957  -15.4347 C   0  0  0  0  0  0  0  0  0  0  0  0
   24.6533  -21.2363  -14.5375 C   0  0  2  0  0  0  0  0  0  0  0  0
   23.4009  -21.3634  -13.8694 N   0  0  0  0  0  0  0  0  0  0  0  0
   24.9960  -20.0553  -15.2904 C   0  0  0  0  0  0  0  0  0  0  0  0
   23.9821  -19.3940  -15.8197 O   0  0  0  0  0  0  0  0  0  0  0  0
   26.2322  -19.4585  -15.5763 N   0  0  0  0  0  0  0  0  0  0  0  0
   27.5450  -19.9378  -15.2032 C   0  0  0  0  0  0  0  0  0  0  0  0
   28.3209  -18.6802  -14.9415 C   0  0  0  0  0  0  0  0  0  0  0  0
   27.4549  -17.5275  -15.3534 C   0  0  0  0  0  0  0  0  0  0  0  0
   26.4449  -18.2278  -16.2792 C   0  0  1  0  0  0  0  0  0  0  0  0
   27.1311  -18.4116  -17.5684 C   0  0  0  0  0  0  0  0  0  0  0  0
   27.4362  -19.5401  -18.0063 O   0  0  0  0  0  0  0  0  0  0  0  0
   27.4844  -17.3229  -18.3835 O   0  0  0  0  0  0  0  0  0  0  0  0
  1  2  1  0
  2  3  2  0
  4  2  1  0
  5  4  1  0
  5  6  1  6
  7  8  2  0
  7  5  1  0
  9 10  1  0
 10 11  2  0
 10 12  1  0
 13 12  1  6
 13 15  1  0
 13 14  1  0
 14  7  1  0
 15 17  1  0
 16 15  2  0
 17 18  1  0
 19 18  1  0
 20 21  1  0
 20 19  1  0
 21 17  1  0
 21 22  1  6
 22 23  2  0
 22 24  1  0
M  END
$$$$
