NNP.pdb
     RDKit          3D

 24 24  0  0  1  0  0  0  0  0999 V2000
   15.8325  -13.3911  -15.4876 N   0  0  0  0  0  0  0  0  0  0  0  0
   16.9588  -13.0468  -14.6631 C   0  0  0  0  0  0  0  0  0  0  0  0
   17.1226  -13.6802  -13.6180 O   0  0  0  0  0  0  0  0  0  0  0  0
   17.8238  -11.9860  -15.1078 C   0  0  0  0  0  0  0  0  0  0  0  0
   17.4266  -11.2260  -16.3411 C   0  0  2  0  0  0  0  0  0  0  0  0
   17.9783  -12.1488  -17.4313 N   0  0  0  0  0  0  0  0  0  0  0  0
   18.2215   -9.9908  -16.4924 C   0  0  0  0  0  0  0  0  0  0  0  0
   19.4620  -10.0922  -16.8725 O   0  0  0  0  0  0  0  0  0  0  0  0
   18.3345   -4.0540  -16.9871 N   0  0  0  0  0  0  0  0  0  0  0  0
   18.7456   -5.3176  -17.5296 C   0  0  0  0  0  0  0  0  0  0  0  0
   19.7926   -5.4264  -18.2203 O   0  0  0  0  0  0  0  0  0  0  0  0
   17.8762   -6.4856  -17.2356 C   0  0  0  0  0  0  0  0  0  0  0  0
   18.7243   -7.5439  -16.4870 C   0  0  2  0  0  0  0  0  0  0  0  0
   17.8388   -8.6439  -16.2938 N   0  0  0  0  0  0  0  0  0  0  0  0
   19.4312   -6.9359  -15.3871 C   0  0  0  0  0  0  0  0  0  0  0  0
   18.7468   -6.8010  -14.2652 O   0  0  0  0  0  0  0  0  0  0  0  0
   20.7409   -6.4471  -15.2775 N   0  0  0  0  0  0  0  0  0  0  0  0
   21.7337   -6.3553  -16.3255 C   0  0  0  0  0  0  0  0  0  0  0  0
   23.0262   -6.6329  -15.6153 C   0  0  0  0  0  0  0  0  0  0  0  0
   22.7246   -6.6961  -14.1478 C   0  0  0  0  0  0  0  0  0  0  0  0
   21.3746   -5.9602  -14.0879 C   0  0  1  0  0  0  0  0  0  0  0  0
   21.6889   -4.5235  -14.1490 C   0  0  0  0  0  0  0  0  0  0  0  0
   22.2758   -3.9294  -13.2210 O   0  0  0  0  0  0  0  0  0  0  0  0
   21.3447   -3.7345  -15.2596 O   0  0  0  0  0  0  0  0  0  0  0  0
  1  2  1  0
  2  3  2  0
  4  2  1  0
  5  4  1  0
  5  6  1  6
  7  8  2  0
  7  5  1  0
  9 10  1  0
 10 11  2  0
 10 12  1  0
 13 12  1  1
 13 15  1  0
 13 14  1  0
 14  7  1  0
 15 17  1  0
 16 15  2  0
 17 18  1  0
 19 18  1  0
 20 21  1  0
 20 19  1  0
 21 17  1  0
 21 22  1  6
 22 23  2  0
 22 24  1  0
M  END
$$$$
