NNP.pdb
     RDKit          3D

 24 24  0  0  1  0  0  0  0  0999 V2000
   20.3826  -20.8940  -13.4598 N   0  0  0  0  0  0  0  0  0  0  0  0
   21.2929  -21.2511  -14.5138 C   0  0  0  0  0  0  0  0  0  0  0  0
   21.4679  -22.4500  -14.7422 O   0  0  0  0  0  0  0  0  0  0  0  0
   21.9423  -20.1888  -15.2357 C   0  0  0  0  0  0  0  0  0  0  0  0
   21.8629  -18.8013  -14.6660 C   0  0  2  0  0  0  0  0  0  0  0  0
   20.4459  -18.4034  -15.0879 N   0  0  0  0  0  0  0  0  0  0  0  0
   22.7264  -17.8627  -15.4103 C   0  0  0  0  0  0  0  0  0  0  0  0
   22.4968  -17.6782  -16.6779 O   0  0  0  0  0  0  0  0  0  0  0  0
   25.7018  -13.2398  -16.1092 N   0  0  0  0  0  0  0  0  0  0  0  0
   26.2833  -14.4703  -15.6533 C   0  0  0  0  0  0  0  0  0  0  0  0
   27.4720  -14.7777  -15.9318 O   0  0  0  0  0  0  0  0  0  0  0  0
   25.4145  -15.3587  -14.8394 C   0  0  0  0  0  0  0  0  0  0  0  0
   24.5869  -16.2432  -15.8052 C   0  0  2  0  0  0  0  0  0  0  0  0
   23.8119  -17.0809  -14.9514 N   0  0  0  0  0  0  0  0  0  0  0  0
   25.4325  -16.7869  -16.8389 C   0  0  0  0  0  0  0  0  0  0  0  0
   26.0948  -17.8858  -16.5240 O   0  0  0  0  0  0  0  0  0  0  0  0
   25.6935  -16.3613  -18.1491 N   0  0  0  0  0  0  0  0  0  0  0  0
   25.1651  -15.1896  -18.8126 C   0  0  0  0  0  0  0  0  0  0  0  0
   25.0005  -15.6322  -20.2370 C   0  0  0  0  0  0  0  0  0  0  0  0
   25.6154  -16.9947  -20.3550 C   0  0  0  0  0  0  0  0  0  0  0  0
   26.5233  -17.0218  -19.1130 C   0  0  1  0  0  0  0  0  0  0  0  0
   27.7239  -16.2473  -19.4672 C   0  0  0  0  0  0  0  0  0  0  0  0
   27.9239  -15.0931  -19.0357 O   0  0  0  0  0  0  0  0  0  0  0  0
   28.7178  -16.7644  -20.3152 O   0  0  0  0  0  0  0  0  0  0  0  0
  1  2  1  0
  2  3  2  0
  4  2  1  0
  5  4  1  0
  5  6  1  6
  7  8  2  0
  7  5  1  0
  9 10  1  0
 10 11  2  0
 10 12  1  0
 13 12  1  1
 13 15  1  0
 13 14  1  0
 14  7  1  0
 15 17  1  0
 16 15  2  0
 17 18  1  0
 19 18  1  0
 20 21  1  0
 20 19  1  0
 21 17  1  0
 21 22  1  6
 22 23  2  0
 22 24  1  0
M  END
$$$$
