NNP.pdb
     RDKit          3D

 24 24  0  0  1  0  0  0  0  0999 V2000
   27.9106  -27.3408  -16.1573 N   0  0  0  0  0  0  0  0  0  0  0  0
   26.5337  -27.2703  -16.5648 C   0  0  0  0  0  0  0  0  0  0  0  0
   26.1742  -27.9814  -17.5056 O   0  0  0  0  0  0  0  0  0  0  0  0
   25.6617  -26.3755  -15.8504 C   0  0  0  0  0  0  0  0  0  0  0  0
   24.6309  -25.6199  -16.6397 C   0  0  2  0  0  0  0  0  0  0  0  0
   25.5182  -24.6021  -17.3616 N   0  0  0  0  0  0  0  0  0  0  0  0
   23.7845  -24.7866  -15.7624 C   0  0  0  0  0  0  0  0  0  0  0  0
   22.9075  -25.3755  -15.0022 O   0  0  0  0  0  0  0  0  0  0  0  0
   21.4043  -21.2591  -13.1149 N   0  0  0  0  0  0  0  0  0  0  0  0
   22.5296  -20.5464  -13.6494 C   0  0  0  0  0  0  0  0  0  0  0  0
   22.7959  -19.3711  -13.2851 O   0  0  0  0  0  0  0  0  0  0  0  0
   23.3606  -21.2637  -14.6503 C   0  0  0  0  0  0  0  0  0  0  0  0
   22.8008  -22.7000  -14.8039 C   0  0  2  0  0  0  0  0  0  0  0  0
   23.7725  -23.3827  -15.5919 N   0  0  0  0  0  0  0  0  0  0  0  0
   21.4095  -22.6602  -15.1805 C   0  0  0  0  0  0  0  0  0  0  0  0
   21.1569  -22.2633  -16.4150 O   0  0  0  0  0  0  0  0  0  0  0  0
   20.2421  -22.9702  -14.4683 N   0  0  0  0  0  0  0  0  0  0  0  0
   20.1386  -23.3518  -13.0769 C   0  0  0  0  0  0  0  0  0  0  0  0
   19.0089  -24.3396  -13.0628 C   0  0  0  0  0  0  0  0  0  0  0  0
   18.4002  -24.3411  -14.4331 C   0  0  0  0  0  0  0  0  0  0  0  0
   18.9065  -22.9978  -14.9870 C   0  0  1  0  0  0  0  0  0  0  0  0
   18.0396  -21.9617  -14.4022 C   0  0  0  0  0  0  0  0  0  0  0  0
   18.4650  -21.1206  -13.5836 O   0  0  0  0  0  0  0  0  0  0  0  0
   16.6777  -21.8596  -14.7326 O   0  0  0  0  0  0  0  0  0  0  0  0
  1  2  1  0
  2  3  2  0
  4  2  1  0
  5  4  1  0
  5  6  1  6
  7  8  2  0
  7  5  1  0
  9 10  1  0
 10 11  2  0
 10 12  1  0
 13 12  1  6
 13 15  1  0
 13 14  1  0
 14  7  1  0
 15 17  1  0
 16 15  2  0
 17 18  1  0
 19 18  1  0
 20 21  1  0
 20 19  1  0
 21 17  1  0
 21 22  1  1
 22 23  2  0
 22 24  1  0
M  END
$$$$
