NNP.pdb
     RDKit          3D

 24 24  0  0  1  0  0  0  0  0999 V2000
   20.1315  -15.7601  -19.9730 N   0  0  0  0  0  0  0  0  0  0  0  0
   20.1084  -15.7063  -18.5365 C   0  0  0  0  0  0  0  0  0  0  0  0
   19.2716  -16.3943  -17.9477 O   0  0  0  0  0  0  0  0  0  0  0  0
   21.0617  -14.8542  -17.8758 C   0  0  0  0  0  0  0  0  0  0  0  0
   21.9012  -13.9460  -18.7282 C   0  0  2  0  0  0  0  0  0  0  0  0
   22.8591  -14.9587  -19.3616 N   0  0  0  0  0  0  0  0  0  0  0  0
   22.7843  -13.0970  -17.9037 C   0  0  0  0  0  0  0  0  0  0  0  0
   22.2432  -12.1841  -17.1503 O   0  0  0  0  0  0  0  0  0  0  0  0
   26.4347  -10.6751  -15.4861 N   0  0  0  0  0  0  0  0  0  0  0  0
   27.0822  -11.8827  -15.9131 C   0  0  0  0  0  0  0  0  0  0  0  0
   28.2334  -12.1899  -15.5063 O   0  0  0  0  0  0  0  0  0  0  0  0
   26.3276  -12.7481  -16.8556 C   0  0  0  0  0  0  0  0  0  0  0  0
   24.9288  -12.1197  -17.0753 C   0  0  2  0  0  0  0  0  0  0  0  0
   24.1930  -13.1164  -17.7800 N   0  0  0  0  0  0  0  0  0  0  0  0
   25.0550  -10.7733  -17.5756 C   0  0  0  0  0  0  0  0  0  0  0  0
   25.4515  -10.6588  -18.8306 O   0  0  0  0  0  0  0  0  0  0  0  0
   24.8318   -9.5290  -16.9690 N   0  0  0  0  0  0  0  0  0  0  0  0
   24.5156   -9.2740  -15.5807 C   0  0  0  0  0  0  0  0  0  0  0  0
   23.5843   -8.0987  -15.6389 C   0  0  0  0  0  0  0  0  0  0  0  0
   23.5530   -7.6238  -17.0608 C   0  0  0  0  0  0  0  0  0  0  0  0
   24.8458   -8.2491  -17.6136 C   0  0  1  0  0  0  0  0  0  0  0  0
   25.9461   -7.3851  -17.1557 C   0  0  0  0  0  0  0  0  0  0  0  0
   26.7898   -7.7674  -16.3188 O   0  0  0  0  0  0  0  0  0  0  0  0
   26.1106   -6.0748  -17.6357 O   0  0  0  0  0  0  0  0  0  0  0  0
  1  2  1  0
  2  3  2  0
  4  2  1  0
  5  4  1  0
  5  6  1  6
  7  8  2  0
  7  5  1  0
  9 10  1  0
 10 11  2  0
 10 12  1  0
 13 12  1  6
 13 15  1  0
 13 14  1  0
 14  7  1  0
 15 17  1  0
 16 15  2  0
 17 18  1  0
 19 18  1  0
 20 21  1  0
 20 19  1  0
 21 17  1  0
 21 22  1  1
 22 23  2  0
 22 24  1  0
M  END
$$$$
