NNP.pdb
     RDKit          3D

 24 24  0  0  1  0  0  0  0  0999 V2000
   20.5681  -15.7197  -17.2234 N   0  0  0  0  0  0  0  0  0  0  0  0
   19.8263  -15.0232  -18.2391 C   0  0  0  0  0  0  0  0  0  0  0  0
   19.2677  -15.6963  -19.1080 O   0  0  0  0  0  0  0  0  0  0  0  0
   19.7819  -13.5859  -18.1789 C   0  0  0  0  0  0  0  0  0  0  0  0
   20.5192  -12.9065  -17.0604 C   0  0  2  0  0  0  0  0  0  0  0  0
   19.6519  -13.3094  -15.8647 N   0  0  0  0  0  0  0  0  0  0  0  0
   20.3652  -11.4394  -17.1262 C   0  0  0  0  0  0  0  0  0  0  0  0
   20.9255  -10.7987  -18.1108 O   0  0  0  0  0  0  0  0  0  0  0  0
   17.8863   -6.4486  -15.4703 N   0  0  0  0  0  0  0  0  0  0  0  0
   18.1680   -7.2462  -16.6298 C   0  0  0  0  0  0  0  0  0  0  0  0
   18.3624   -6.7205  -17.7572 O   0  0  0  0  0  0  0  0  0  0  0  0
   18.2185   -8.7176  -16.4324 C   0  0  0  0  0  0  0  0  0  0  0  0
   19.7057   -9.1482  -16.3807 C   0  0  2  0  0  0  0  0  0  0  0  0
   19.6656  -10.5677  -16.2597 N   0  0  0  0  0  0  0  0  0  0  0  0
   20.4352   -8.3268  -15.4467 C   0  0  0  0  0  0  0  0  0  0  0  0
   20.3477   -8.6801  -14.1767 O   0  0  0  0  0  0  0  0  0  0  0  0
   21.2409   -7.1945  -15.6332 N   0  0  0  0  0  0  0  0  0  0  0  0
   21.4630   -6.4690  -16.8647 C   0  0  0  0  0  0  0  0  0  0  0  0
   22.8931   -6.0259  -16.7627 C   0  0  0  0  0  0  0  0  0  0  0  0
   23.3706   -6.3726  -15.3843 C   0  0  0  0  0  0  0  0  0  0  0  0
   22.0353   -6.5375  -14.6377 C   0  0  1  0  0  0  0  0  0  0  0  0
   21.5666   -5.1759  -14.3326 C   0  0  0  0  0  0  0  0  0  0  0  0
   22.1742   -4.4227  -13.5439 O   0  0  0  0  0  0  0  0  0  0  0  0
   20.4032   -4.6433  -14.9135 O   0  0  0  0  0  0  0  0  0  0  0  0
  1  2  1  0
  2  3  2  0
  4  2  1  0
  5  4  1  0
  5  6  1  1
  7  8  2  0
  7  5  1  0
  9 10  1  0
 10 11  2  0
 10 12  1  0
 13 12  1  1
 13 15  1  0
 13 14  1  0
 14  7  1  0
 15 17  1  0
 16 15  2  0
 17 18  1  0
 19 18  1  0
 20 21  1  0
 20 19  1  0
 21 17  1  0
 21 22  1  6
 22 23  2  0
 22 24  1  0
M  END
$$$$
