NNP.pdb
     RDKit          3D

 24 24  0  0  1  0  0  0  0  0999 V2000
   29.7755  -20.6233  -18.2926 N   0  0  0  0  0  0  0  0  0  0  0  0
   28.9182  -19.4697  -18.2588 C   0  0  0  0  0  0  0  0  0  0  0  0
   28.8863  -18.7463  -19.2568 O   0  0  0  0  0  0  0  0  0  0  0  0
   28.1518  -19.2309  -17.0643 C   0  0  0  0  0  0  0  0  0  0  0  0
   28.3164  -20.1905  -15.9205 C   0  0  2  0  0  0  0  0  0  0  0  0
   27.7420  -21.4681  -16.5388 N   0  0  0  0  0  0  0  0  0  0  0  0
   27.3812  -19.8829  -14.8199 C   0  0  0  0  0  0  0  0  0  0  0  0
   26.6881  -18.7832  -14.8818 O   0  0  0  0  0  0  0  0  0  0  0  0
   22.6783  -21.4263  -12.6684 N   0  0  0  0  0  0  0  0  0  0  0  0
   23.5105  -20.2896  -12.9433 C   0  0  0  0  0  0  0  0  0  0  0  0
   23.2124  -19.1406  -12.5238 O   0  0  0  0  0  0  0  0  0  0  0  0
   24.7364  -20.5374  -13.7447 C   0  0  0  0  0  0  0  0  0  0  0  0
   25.9648  -20.3583  -12.8179 C   0  0  2  0  0  0  0  0  0  0  0  0
   27.0881  -20.6264  -13.6531 N   0  0  0  0  0  0  0  0  0  0  0  0
   25.7611  -21.0553  -11.5722 C   0  0  0  0  0  0  0  0  0  0  0  0
   25.8331  -22.3732  -11.6299 O   0  0  0  0  0  0  0  0  0  0  0  0
   25.4939  -20.5899  -10.2768 N   0  0  0  0  0  0  0  0  0  0  0  0
   25.2608  -19.2225   -9.8666 C   0  0  0  0  0  0  0  0  0  0  0  0
   25.8817  -19.1504   -8.5023 C   0  0  0  0  0  0  0  0  0  0  0  0
   26.2881  -20.5429   -8.1226 C   0  0  0  0  0  0  0  0  0  0  0  0
   25.4238  -21.3791   -9.0826 C   0  0  1  0  0  0  0  0  0  0  0  0
   24.0754  -21.4142   -8.4934 C   0  0  0  0  0  0  0  0  0  0  0  0
   23.8473  -21.9326   -7.3808 O   0  0  0  0  0  0  0  0  0  0  0  0
   22.9625  -20.8646   -9.1520 O   0  0  0  0  0  0  0  0  0  0  0  0
  1  2  1  0
  2  3  2  0
  4  2  1  0
  5  4  1  0
  5  6  1  6
  7  8  2  0
  7  5  1  0
  9 10  1  0
 10 11  2  0
 10 12  1  0
 13 12  1  6
 13 15  1  0
 13 14  1  0
 14  7  1  0
 15 17  1  0
 16 15  2  0
 17 18  1  0
 19 18  1  0
 20 21  1  0
 20 19  1  0
 21 17  1  0
 21 22  1  1
 22 23  2  0
 22 24  1  0
M  END
$$$$
