NNP.pdb
     RDKit          3D

 24 24  0  0  1  0  0  0  0  0999 V2000
   24.1243  -12.9109  -18.9517 N   0  0  0  0  0  0  0  0  0  0  0  0
   22.6918  -12.8135  -19.0248 C   0  0  0  0  0  0  0  0  0  0  0  0
   22.0975  -13.6037  -19.7614 O   0  0  0  0  0  0  0  0  0  0  0  0
   22.0412  -11.8013  -18.2350 C   0  0  0  0  0  0  0  0  0  0  0  0
   22.9069  -10.8689  -17.4366 C   0  0  2  0  0  0  0  0  0  0  0  0
   23.2070  -11.7399  -16.2136 N   0  0  0  0  0  0  0  0  0  0  0  0
   22.1231   -9.7465  -16.8833 C   0  0  0  0  0  0  0  0  0  0  0  0
   21.7083   -8.8177  -17.6952 O   0  0  0  0  0  0  0  0  0  0  0  0
   18.5421   -9.0863  -15.4230 N   0  0  0  0  0  0  0  0  0  0  0  0
   18.9983   -9.1663  -14.0645 C   0  0  0  0  0  0  0  0  0  0  0  0
   18.2622   -9.6218  -13.1503 O   0  0  0  0  0  0  0  0  0  0  0  0
   20.3777   -8.6863  -13.7936 C   0  0  0  0  0  0  0  0  0  0  0  0
   21.0361   -8.3175  -15.1465 C   0  0  2  0  0  0  0  0  0  0  0  0
   21.7163   -9.5028  -15.5509 N   0  0  0  0  0  0  0  0  0  0  0  0
   21.7148   -7.0491  -15.0465 C   0  0  0  0  0  0  0  0  0  0  0  0
   22.9657   -7.0957  -14.6242 O   0  0  0  0  0  0  0  0  0  0  0  0
   21.2898   -5.7409  -15.3188 N   0  0  0  0  0  0  0  0  0  0  0  0
   20.0273   -5.3302  -15.8929 C   0  0  0  0  0  0  0  0  0  0  0  0
   20.3886   -4.1369  -16.7281 C   0  0  0  0  0  0  0  0  0  0  0  0
   21.8257   -3.8141  -16.4473 C   0  0  0  0  0  0  0  0  0  0  0  0
   22.0384   -4.5375  -15.1060 C   0  0  1  0  0  0  0  0  0  0  0  0
   21.4500   -3.6676  -14.0746 C   0  0  0  0  0  0  0  0  0  0  0  0
   21.9695   -2.5821  -13.7423 O   0  0  0  0  0  0  0  0  0  0  0  0
   20.2652   -4.0103  -13.4014 O   0  0  0  0  0  0  0  0  0  0  0  0
  1  2  1  0
  2  3  2  0
  4  2  1  0
  5  4  1  0
  5  6  1  1
  7  8  2  0
  7  5  1  0
  9 10  1  0
 10 11  2  0
 10 12  1  0
 13 12  1  1
 13 15  1  0
 13 14  1  0
 14  7  1  0
 15 17  1  0
 16 15  2  0
 17 18  1  0
 19 18  1  0
 20 21  1  0
 20 19  1  0
 21 17  1  0
 21 22  1  1
 22 23  2  0
 22 24  1  0
M  END
$$$$
