NNP.pdb
     RDKit          3D

 24 24  0  0  1  0  0  0  0  0999 V2000
   18.1696  -21.3577  -14.1767 N   0  0  0  0  0  0  0  0  0  0  0  0
   18.4837  -20.0788  -13.5999 C   0  0  0  0  0  0  0  0  0  0  0  0
   17.5754  -19.2504  -13.5064 O   0  0  0  0  0  0  0  0  0  0  0  0
   19.8366  -19.8452  -13.1681 C   0  0  0  0  0  0  0  0  0  0  0  0
   20.8524  -20.9210  -13.4270 C   0  0  2  0  0  0  0  0  0  0  0  0
   20.8754  -21.6213  -12.0656 N   0  0  0  0  0  0  0  0  0  0  0  0
   22.2120  -20.3591  -13.5548 C   0  0  0  0  0  0  0  0  0  0  0  0
   22.8775  -20.0881  -12.4698 O   0  0  0  0  0  0  0  0  0  0  0  0
   25.3978  -21.6331  -12.0844 N   0  0  0  0  0  0  0  0  0  0  0  0
   25.8129  -20.7197  -13.1108 C   0  0  0  0  0  0  0  0  0  0  0  0
   26.6927  -19.8453  -12.8952 O   0  0  0  0  0  0  0  0  0  0  0  0
   25.1540  -20.8583  -14.4349 C   0  0  0  0  0  0  0  0  0  0  0  0
   24.3017  -19.5894  -14.6865 C   0  0  2  0  0  0  0  0  0  0  0  0
   22.9567  -20.0598  -14.7192 N   0  0  0  0  0  0  0  0  0  0  0  0
   24.8612  -18.8133  -15.7652 C   0  0  0  0  0  0  0  0  0  0  0  0
   24.3136  -18.9976  -16.9533 O   0  0  0  0  0  0  0  0  0  0  0  0
   25.9032  -17.8755  -15.7957 N   0  0  0  0  0  0  0  0  0  0  0  0
   26.8301  -17.5591  -14.7312 C   0  0  0  0  0  0  0  0  0  0  0  0
   27.0692  -16.0867  -14.8946 C   0  0  0  0  0  0  0  0  0  0  0  0
   26.3973  -15.6638  -16.1666 C   0  0  0  0  0  0  0  0  0  0  0  0
   26.2463  -17.0142  -16.8885 C   0  0  1  0  0  0  0  0  0  0  0  0
   27.5645  -17.3171  -17.4692 C   0  0  0  0  0  0  0  0  0  0  0  0
   28.0929  -16.5925  -18.3376 O   0  0  0  0  0  0  0  0  0  0  0  0
   28.3070  -18.4442  -17.0783 O   0  0  0  0  0  0  0  0  0  0  0  0
  1  2  1  0
  2  3  2  0
  4  2  1  0
  5  4  1  0
  5  6  1  1
  7  8  2  0
  7  5  1  0
  9 10  1  0
 10 11  2  0
 10 12  1  0
 13 12  1  6
 13 15  1  0
 13 14  1  0
 14  7  1  0
 15 17  1  0
 16 15  2  0
 17 18  1  0
 19 18  1  0
 20 21  1  0
 20 19  1  0
 21 17  1  0
 21 22  1  1
 22 23  2  0
 22 24  1  0
M  END
$$$$
