CKI.pdb
     RDKit          3D

 24 23  0  0  1  0  0  0  0  0999 V2000
   16.2227  -14.1015  -17.1677 N   0  0  0  0  0  0  0  0  0  0  0  0
   16.7542  -13.6146  -15.9035 C   0  0  1  0  0  0  0  0  0  0  0  0
   18.0187  -14.4239  -15.6370 C   0  0  0  0  0  0  0  0  0  0  0  0
   17.6081  -16.0529  -14.9515 S   0  0  0  0  0  0  0  0  0  0  0  0
   17.1631  -12.1948  -16.0919 C   0  0  0  0  0  0  0  0  0  0  0  0
   17.9425  -11.8560  -17.0462 O   0  0  0  0  0  0  0  0  0  0  0  0
   16.7288  -11.1484  -15.2496 N   0  0  0  0  0  0  0  0  0  0  0  0
   17.0128   -9.7507  -15.5153 C   0  0  1  0  0  0  0  0  0  0  0  0
   15.8713   -8.8689  -14.9922 C   0  0  0  0  0  0  0  0  0  0  0  0
   14.6247   -9.0475  -15.8238 C   0  0  0  0  0  0  0  0  0  0  0  0
   13.4483   -8.7139  -14.9237 C   0  0  0  0  0  0  0  0  0  0  0  0
   12.1335   -8.8525  -15.6607 C   0  0  0  0  0  0  0  0  0  0  0  0
   11.0269   -8.3746  -14.8678 N   0  0  0  0  0  0  0  0  0  0  0  0
   18.3002   -9.3146  -14.9218 C   0  0  0  0  0  0  0  0  0  0  0  0
   18.5700   -9.6729  -13.7711 O   0  0  0  0  0  0  0  0  0  0  0  0
   22.8958  -10.5425  -16.8516 C   0  0  0  0  0  0  0  0  0  0  0  0
   21.7076  -10.0511  -16.1107 C   0  0  0  0  0  0  0  0  0  0  0  0
   21.6598   -8.5773  -15.8361 C   0  0  2  0  0  0  0  0  0  0  0  0
   23.0280   -8.1702  -15.3662 C   0  0  0  0  0  0  0  0  0  0  0  0
   20.5006   -8.0490  -15.1100 C   0  0  2  0  0  0  0  0  0  0  0  0
   19.2226   -8.5111  -15.6173 N   0  0  0  0  0  0  0  0  0  0  0  0
   20.4168   -6.6400  -14.7795 C   0  0  0  0  0  0  0  0  0  0  0  0
   20.9698   -5.9629  -13.7161 O   0  0  0  0  0  0  0  0  0  0  0  0
   19.7344   -5.8805  -15.5652 O   0  0  0  0  0  0  0  0  0  0  0  0
  2  5  1  0
  2  1  1  6
  3  2  1  0
  4  3  1  0
  5  6  2  0
  7  5  1  0
  7  8  1  0
  8  9  1  1
  9 10  1  0
 10 11  1  0
 11 12  1  0
 13 12  1  0
 14  8  1  0
 14 15  2  0
 16 17  1  0
 17 18  1  0
 18 19  1  1
 18 20  1  0
 20 21  1  6
 20 22  1  0
 21 14  1  0
 22 24  2  0
 22 23  1  0
M  END
$$$$
