CKI.pdb
     RDKit          3D

 24 23  0  0  1  0  0  0  0  0999 V2000
   15.7753  -12.2460  -14.6932 N   0  0  0  0  0  0  0  0  0  0  0  0
   16.6999  -11.8260  -13.6509 C   0  0  1  0  0  0  0  0  0  0  0  0
   17.9483  -11.3264  -14.3698 C   0  0  0  0  0  0  0  0  0  0  0  0
   18.9241  -12.7168  -15.0073 S   0  0  0  0  0  0  0  0  0  0  0  0
   16.0970  -10.6635  -12.9412 C   0  0  0  0  0  0  0  0  0  0  0  0
   15.5804   -9.6920  -13.5912 O   0  0  0  0  0  0  0  0  0  0  0  0
   16.0548  -10.5556  -11.5342 N   0  0  0  0  0  0  0  0  0  0  0  0
   15.3572   -9.4868  -10.8443 C   0  0  1  0  0  0  0  0  0  0  0  0
   14.3229  -10.0695   -9.8722 C   0  0  0  0  0  0  0  0  0  0  0  0
   13.1882  -10.7267  -10.6192 C   0  0  0  0  0  0  0  0  0  0  0  0
   12.1417  -11.0985   -9.5839 C   0  0  0  0  0  0  0  0  0  0  0  0
   10.8900  -11.6448  -10.2366 C   0  0  0  0  0  0  0  0  0  0  0  0
   10.8952  -11.4253  -11.6625 N   0  0  0  0  0  0  0  0  0  0  0  0
   16.2843   -8.5872  -10.1155 C   0  0  0  0  0  0  0  0  0  0  0  0
   17.0111   -9.0720   -9.2426 O   0  0  0  0  0  0  0  0  0  0  0  0
   20.4517   -6.5707  -11.7924 C   0  0  0  0  0  0  0  0  0  0  0  0
   19.2702   -6.9907  -10.9989 C   0  0  0  0  0  0  0  0  0  0  0  0
   18.4283   -5.8882  -10.4284 C   0  0  2  0  0  0  0  0  0  0  0  0
   19.3651   -4.8992   -9.7938 C   0  0  0  0  0  0  0  0  0  0  0  0
   17.2181   -6.2583   -9.6879 C   0  0  2  0  0  0  0  0  0  0  0  0
   16.3669   -7.2076  -10.3797 N   0  0  0  0  0  0  0  0  0  0  0  0
   16.4033   -5.2422   -9.0511 C   0  0  0  0  0  0  0  0  0  0  0  0
   16.5625   -4.6467   -7.8203 O   0  0  0  0  0  0  0  0  0  0  0  0
   15.3731   -4.8116   -9.6938 O   0  0  0  0  0  0  0  0  0  0  0  0
  2  5  1  0
  2  1  1  6
  3  2  1  0
  4  3  1  0
  5  6  2  0
  7  5  1  0
  7  8  1  0
  8  9  1  1
  9 10  1  0
 10 11  1  0
 11 12  1  0
 13 12  1  0
 14  8  1  0
 14 15  2  0
 16 17  1  0
 17 18  1  0
 18 19  1  1
 18 20  1  0
 20 21  1  6
 20 22  1  0
 21 14  1  0
 22 24  2  0
 22 23  1  0
M  END
$$$$
