CKI.pdb
     RDKit          3D

 24 23  0  0  1  0  0  0  0  0999 V2000
   25.3798  -16.4203  -16.9690 N   0  0  0  0  0  0  0  0  0  0  0  0
   26.0802  -16.5888  -15.7047 C   0  0  1  0  0  0  0  0  0  0  0  0
   25.3305  -15.7334  -14.6891 C   0  0  0  0  0  0  0  0  0  0  0  0
   26.4299  -14.4878  -13.9599 S   0  0  0  0  0  0  0  0  0  0  0  0
   25.9369  -18.0106  -15.2846 C   0  0  0  0  0  0  0  0  0  0  0  0
   24.8093  -18.6073  -15.3570 O   0  0  0  0  0  0  0  0  0  0  0  0
   27.0112  -18.7806  -14.7886 N   0  0  0  0  0  0  0  0  0  0  0  0
   26.8662  -20.1624  -14.3707 C   0  0  1  0  0  0  0  0  0  0  0  0
   27.8581  -21.0531  -15.1303 C   0  0  0  0  0  0  0  0  0  0  0  0
   27.5086  -21.1240  -16.5967 C   0  0  0  0  0  0  0  0  0  0  0  0
   28.5591  -22.0016  -17.2536 C   0  0  0  0  0  0  0  0  0  0  0  0
   28.3654  -22.0648  -18.7535 C   0  0  0  0  0  0  0  0  0  0  0  0
   29.3958  -22.8490  -19.3898 N   0  0  0  0  0  0  0  0  0  0  0  0
   27.0527  -20.3315  -12.9090 C   0  0  0  0  0  0  0  0  0  0  0  0
   28.1414  -20.0225  -12.4143 O   0  0  0  0  0  0  0  0  0  0  0  0
   27.4895  -18.9733   -7.6784 C   0  0  0  0  0  0  0  0  0  0  0  0
   26.9660  -20.1495   -8.4165 C   0  0  0  0  0  0  0  0  0  0  0  0
   26.7557  -19.9679   -9.8905 C   0  0  2  0  0  0  0  0  0  0  0  0
   26.1756  -18.5958  -10.0889 C   0  0  0  0  0  0  0  0  0  0  0  0
   26.1635  -21.0777  -10.6438 C   0  0  2  0  0  0  0  0  0  0  0  0
   26.0405  -20.8288  -12.0676 N   0  0  0  0  0  0  0  0  0  0  0  0
   24.9724  -21.7463  -10.1580 C   0  0  0  0  0  0  0  0  0  0  0  0
   24.8379  -22.6280   -9.1094 O   0  0  0  0  0  0  0  0  0  0  0  0
   23.8629  -21.5117  -10.7693 O   0  0  0  0  0  0  0  0  0  0  0  0
  2  5  1  0
  2  1  1  6
  3  2  1  0
  4  3  1  0
  5  6  2  0
  7  5  1  0
  7  8  1  0
  8  9  1  6
  9 10  1  0
 10 11  1  0
 11 12  1  0
 13 12  1  0
 14  8  1  0
 14 15  2  0
 16 17  1  0
 17 18  1  0
 18 19  1  1
 18 20  1  0
 20 21  1  6
 20 22  1  0
 21 14  1  0
 22 24  2  0
 22 23  1  0
M  END
$$$$
