CKI.pdb
     RDKit          3D

 24 23  0  0  1  0  0  0  0  0999 V2000
   18.8712  -15.4005  -17.3785 N   0  0  0  0  0  0  0  0  0  0  0  0
   18.1046  -14.1639  -17.4069 C   0  0  1  0  0  0  0  0  0  0  0  0
   17.4612  -14.0339  -16.0306 C   0  0  0  0  0  0  0  0  0  0  0  0
   16.0796  -15.1966  -15.8533 S   0  0  0  0  0  0  0  0  0  0  0  0
   19.0608  -13.0325  -17.5624 C   0  0  0  0  0  0  0  0  0  0  0  0
   20.2198  -13.0725  -17.0256 O   0  0  0  0  0  0  0  0  0  0  0  0
   18.7611  -11.8643  -18.2962 N   0  0  0  0  0  0  0  0  0  0  0  0
   19.6939  -10.7629  -18.4436 C   0  0  1  0  0  0  0  0  0  0  0  0
   19.2844   -9.8758  -19.6266 C   0  0  0  0  0  0  0  0  0  0  0  0
   20.3235   -8.8141  -19.8922 C   0  0  0  0  0  0  0  0  0  0  0  0
   19.8933   -8.0887  -21.1547 C   0  0  0  0  0  0  0  0  0  0  0  0
   20.9185   -7.0571  -21.5744 C   0  0  0  0  0  0  0  0  0  0  0  0
   20.6179   -6.5076  -22.8741 N   0  0  0  0  0  0  0  0  0  0  0  0
   19.7985   -9.9442  -17.2112 C   0  0  0  0  0  0  0  0  0  0  0  0
   18.7778   -9.7526  -16.5427 O   0  0  0  0  0  0  0  0  0  0  0  0
   22.9266   -9.9493  -12.2202 C   0  0  0  0  0  0  0  0  0  0  0  0
   22.3022   -9.0169  -13.1912 C   0  0  0  0  0  0  0  0  0  0  0  0
   22.0417   -9.5644  -14.5632 C   0  0  2  0  0  0  0  0  0  0  0  0
   23.3383  -10.1343  -15.0657 C   0  0  0  0  0  0  0  0  0  0  0  0
   21.2453   -8.7528  -15.4890 C   0  0  2  0  0  0  0  0  0  0  0  0
   21.0117   -9.3795  -16.7762 N   0  0  0  0  0  0  0  0  0  0  0  0
   21.5378   -7.3450  -15.6747 C   0  0  0  0  0  0  0  0  0  0  0  0
   21.3805   -6.3014  -14.7910 O   0  0  0  0  0  0  0  0  0  0  0  0
   22.0098   -6.9773  -16.8156 O   0  0  0  0  0  0  0  0  0  0  0  0
  2  5  1  0
  2  1  1  1
  3  2  1  0
  4  3  1  0
  5  6  2  0
  7  5  1  0
  7  8  1  0
  8  9  1  6
  9 10  1  0
 10 11  1  0
 11 12  1  0
 13 12  1  0
 14  8  1  0
 14 15  2  0
 16 17  1  0
 17 18  1  0
 18 19  1  6
 18 20  1  0
 20 21  1  6
 20 22  1  0
 21 14  1  0
 22 24  2  0
 22 23  1  0
M  END
$$$$
