CKI.pdb
     RDKit          3D

 24 23  0  0  1  0  0  0  0  0999 V2000
   14.6668  -13.2621  -11.5295 N   0  0  0  0  0  0  0  0  0  0  0  0
   15.7950  -12.5197  -10.9874 C   0  0  1  0  0  0  0  0  0  0  0  0
   16.9570  -12.7579  -11.9456 C   0  0  0  0  0  0  0  0  0  0  0  0
   17.6655  -14.4101  -11.7004 S   0  0  0  0  0  0  0  0  0  0  0  0
   15.4607  -11.0692  -11.0413 C   0  0  0  0  0  0  0  0  0  0  0  0
   14.9779  -10.5446  -12.1018 O   0  0  0  0  0  0  0  0  0  0  0  0
   15.6494  -10.1929   -9.9507 N   0  0  0  0  0  0  0  0  0  0  0  0
   15.3302   -8.7788  -10.0091 C   0  0  1  0  0  0  0  0  0  0  0  0
   14.3071   -8.4208   -8.9231 C   0  0  0  0  0  0  0  0  0  0  0  0
   12.9204   -8.2975   -9.5055 C   0  0  0  0  0  0  0  0  0  0  0  0
   12.0032   -7.8904   -8.3661 C   0  0  0  0  0  0  0  0  0  0  0  0
   11.1021   -9.0328   -7.9485 C   0  0  0  0  0  0  0  0  0  0  0  0
   10.1426   -9.3557   -8.9764 N   0  0  0  0  0  0  0  0  0  0  0  0
   16.5338   -7.9233   -9.8704 C   0  0  0  0  0  0  0  0  0  0  0  0
   17.2453   -8.0647   -8.8708 O   0  0  0  0  0  0  0  0  0  0  0  0
   20.8059   -8.3838  -12.3758 C   0  0  0  0  0  0  0  0  0  0  0  0
   19.6895   -7.9765  -11.4872 C   0  0  0  0  0  0  0  0  0  0  0  0
   19.1591   -6.5871  -11.6826 C   0  0  2  0  0  0  0  0  0  0  0  0
   20.3449   -5.6835  -11.8722 C   0  0  0  0  0  0  0  0  0  0  0  0
   18.0835   -6.1294  -10.7975 C   0  0  2  0  0  0  0  0  0  0  0  0
   16.8948   -6.9602  -10.8306 N   0  0  0  0  0  0  0  0  0  0  0  0
   17.7036   -4.7308  -10.7604 C   0  0  0  0  0  0  0  0  0  0  0  0
   18.2547   -3.7002  -10.0331 O   0  0  0  0  0  0  0  0  0  0  0  0
   16.7123   -4.3602  -11.4951 O   0  0  0  0  0  0  0  0  0  0  0  0
  2  5  1  0
  2  1  1  6
  3  2  1  0
  4  3  1  0
  5  6  2  0
  7  5  1  0
  7  8  1  0
  8  9  1  1
  9 10  1  0
 10 11  1  0
 11 12  1  0
 13 12  1  0
 14  8  1  0
 14 15  2  0
 16 17  1  0
 17 18  1  0
 18 19  1  1
 18 20  1  0
 20 21  1  6
 20 22  1  0
 21 14  1  0
 22 24  2  0
 22 23  1  0
M  END
$$$$
