CKI.pdb
     RDKit          3D

 24 23  0  0  1  0  0  0  0  0999 V2000
   25.3820  -16.4735  -16.3891 N   0  0  0  0  0  0  0  0  0  0  0  0
   26.4748  -16.9001  -15.5281 C   0  0  1  0  0  0  0  0  0  0  0  0
   26.6297  -15.8118  -14.4713 C   0  0  0  0  0  0  0  0  0  0  0  0
   27.2991  -14.2931  -15.2044 S   0  0  0  0  0  0  0  0  0  0  0  0
   26.0515  -18.1454  -14.8291 C   0  0  0  0  0  0  0  0  0  0  0  0
   24.8398  -18.3125  -14.4594 O   0  0  0  0  0  0  0  0  0  0  0  0
   26.9380  -19.2035  -14.5330 N   0  0  0  0  0  0  0  0  0  0  0  0
   26.5014  -20.4637  -13.9620 C   0  0  1  0  0  0  0  0  0  0  0  0
   27.1988  -21.6349  -14.6662 C   0  0  0  0  0  0  0  0  0  0  0  0
   26.4285  -22.0669  -15.8899 C   0  0  0  0  0  0  0  0  0  0  0  0
   27.2318  -23.1785  -16.5413 C   0  0  0  0  0  0  0  0  0  0  0  0
   26.6036  -23.6215  -17.8453 C   0  0  0  0  0  0  0  0  0  0  0  0
   27.4211  -24.5972  -18.5244 N   0  0  0  0  0  0  0  0  0  0  0  0
   26.7461  -20.5352  -12.5008 C   0  0  0  0  0  0  0  0  0  0  0  0
   27.8811  -20.2886  -12.0807 O   0  0  0  0  0  0  0  0  0  0  0  0
   27.6514  -18.9630   -7.3947 C   0  0  0  0  0  0  0  0  0  0  0  0
   26.9699  -20.1152   -8.0349 C   0  0  0  0  0  0  0  0  0  0  0  0
   26.6752  -19.9815   -9.4995 C   0  0  2  0  0  0  0  0  0  0  0  0
   26.2286  -18.5658   -9.7335 C   0  0  0  0  0  0  0  0  0  0  0  0
   25.9183  -21.0553  -10.1507 C   0  0  2  0  0  0  0  0  0  0  0  0
   25.7383  -20.8719  -11.5784 N   0  0  0  0  0  0  0  0  0  0  0  0
   24.6914  -21.5549   -9.5618 C   0  0  0  0  0  0  0  0  0  0  0  0
   23.4303  -21.6237  -10.1093 O   0  0  0  0  0  0  0  0  0  0  0  0
   24.7460  -22.0034   -8.3553 O   0  0  0  0  0  0  0  0  0  0  0  0
  2  5  1  0
  2  1  1  6
  3  2  1  0
  4  3  1  0
  5  6  2  0
  7  5  1  0
  7  8  1  0
  8  9  1  6
  9 10  1  0
 10 11  1  0
 11 12  1  0
 13 12  1  0
 14  8  1  0
 14 15  2  0
 16 17  1  0
 17 18  1  0
 18 19  1  1
 18 20  1  0
 20 21  1  6
 20 22  1  0
 21 14  1  0
 22 24  2  0
 22 23  1  0
M  END
$$$$
