CKI.pdb
     RDKit          3D

 24 23  0  0  1  0  0  0  0  0999 V2000
   15.9565  -14.1779  -17.1565 N   0  0  0  0  0  0  0  0  0  0  0  0
   16.0376  -13.3987  -15.9301 C   0  0  1  0  0  0  0  0  0  0  0  0
   16.8206  -14.2521  -14.9383 C   0  0  0  0  0  0  0  0  0  0  0  0
   15.7425  -15.4859  -14.1589 S   0  0  0  0  0  0  0  0  0  0  0  0
   16.8486  -12.1813  -16.2106 C   0  0  0  0  0  0  0  0  0  0  0  0
   17.8138  -12.2125  -17.0475 O   0  0  0  0  0  0  0  0  0  0  0  0
   16.6136  -10.9370  -15.5864 N   0  0  0  0  0  0  0  0  0  0  0  0
   17.2728   -9.7109  -15.9954 C   0  0  1  0  0  0  0  0  0  0  0  0
   16.2613   -8.5587  -16.0527 C   0  0  0  0  0  0  0  0  0  0  0  0
   16.9426   -7.2572  -16.3985 C   0  0  0  0  0  0  0  0  0  0  0  0
   16.0514   -6.5523  -17.4056 C   0  0  0  0  0  0  0  0  0  0  0  0
   16.6595   -5.2420  -17.8579 C   0  0  0  0  0  0  0  0  0  0  0  0
   15.9283   -4.6702  -18.9624 N   0  0  0  0  0  0  0  0  0  0  0  0
   18.3985   -9.3504  -15.0993 C   0  0  0  0  0  0  0  0  0  0  0  0
   18.2813   -9.5682  -13.8893 O   0  0  0  0  0  0  0  0  0  0  0  0
   22.9503  -11.5563  -15.1624 C   0  0  0  0  0  0  0  0  0  0  0  0
   21.7391  -10.7377  -14.9076 C   0  0  0  0  0  0  0  0  0  0  0  0
   21.9165   -9.2500  -14.9798 C   0  0  2  0  0  0  0  0  0  0  0  0
   23.1680   -8.9162  -14.2178 C   0  0  0  0  0  0  0  0  0  0  0  0
   20.7379   -8.4045  -14.7659 C   0  0  2  0  0  0  0  0  0  0  0  0
   19.5903   -8.7719  -15.5735 N   0  0  0  0  0  0  0  0  0  0  0  0
   20.8641   -6.9609  -14.7208 C   0  0  0  0  0  0  0  0  0  0  0  0
   21.2396   -6.1543  -13.6705 O   0  0  0  0  0  0  0  0  0  0  0  0
   20.5917   -6.3025  -15.7942 O   0  0  0  0  0  0  0  0  0  0  0  0
  2  5  1  0
  2  1  1  6
  3  2  1  0
  4  3  1  0
  5  6  2  0
  7  5  1  0
  7  8  1  0
  8  9  1  1
  9 10  1  0
 10 11  1  0
 11 12  1  0
 13 12  1  0
 14  8  1  0
 14 15  2  0
 16 17  1  0
 17 18  1  0
 18 19  1  1
 18 20  1  0
 20 21  1  6
 20 22  1  0
 21 14  1  0
 22 24  2  0
 22 23  1  0
M  END
$$$$
