CKI.pdb
     RDKit          3D

 24 23  0  0  1  0  0  0  0  0999 V2000
   27.9316  -12.4534  -17.6582 N   0  0  0  0  0  0  0  0  0  0  0  0
   27.7657  -11.3347  -16.7423 C   0  0  1  0  0  0  0  0  0  0  0  0
   28.8751  -10.3445  -17.0797 C   0  0  0  0  0  0  0  0  0  0  0  0
   30.4817  -10.9546  -16.4980 S   0  0  0  0  0  0  0  0  0  0  0  0
   26.4671  -10.6743  -17.0521 C   0  0  0  0  0  0  0  0  0  0  0  0
   26.0389  -10.5968  -18.2536 O   0  0  0  0  0  0  0  0  0  0  0  0
   25.6377  -10.1013  -16.0638 N   0  0  0  0  0  0  0  0  0  0  0  0
   24.3987   -9.4131  -16.3739 C   0  0  1  0  0  0  0  0  0  0  0  0
   23.4334   -9.4970  -15.1843 C   0  0  0  0  0  0  0  0  0  0  0  0
   22.1289   -8.8052  -15.4961 C   0  0  0  0  0  0  0  0  0  0  0  0
   21.2797   -8.8887  -14.2402 C   0  0  0  0  0  0  0  0  0  0  0  0
   19.9030   -8.3011  -14.4654 C   0  0  0  0  0  0  0  0  0  0  0  0
   19.0857   -8.3930  -13.2800 N   0  0  0  0  0  0  0  0  0  0  0  0
   24.6199   -7.9943  -16.7455 C   0  0  0  0  0  0  0  0  0  0  0  0
   25.4869   -7.3552  -16.1411 O   0  0  0  0  0  0  0  0  0  0  0  0
   26.5498   -4.5642  -20.9072 C   0  0  0  0  0  0  0  0  0  0  0  0
   25.4857   -4.5944  -19.8734 C   0  0  0  0  0  0  0  0  0  0  0  0
   25.1633   -5.9390  -19.2921 C   0  0  2  0  0  0  0  0  0  0  0  0
   25.0906   -6.9100  -20.4369 C   0  0  0  0  0  0  0  0  0  0  0  0
   24.1210   -6.0130  -18.2635 C   0  0  2  0  0  0  0  0  0  0  0  0
   23.8825   -7.3510  -17.7566 N   0  0  0  0  0  0  0  0  0  0  0  0
   22.8582   -5.3236  -18.4421 C   0  0  0  0  0  0  0  0  0  0  0  0
   22.5960   -3.9725  -18.4224 O   0  0  0  0  0  0  0  0  0  0  0  0
   21.8083   -6.0415  -18.6470 O   0  0  0  0  0  0  0  0  0  0  0  0
  2  5  1  0
  2  1  1  6
  3  2  1  0
  4  3  1  0
  5  6  2  0
  7  5  1  0
  7  8  1  0
  8  9  1  1
  9 10  1  0
 10 11  1  0
 11 12  1  0
 13 12  1  0
 14  8  1  0
 14 15  2  0
 16 17  1  0
 17 18  1  0
 18 19  1  6
 18 20  1  0
 20 21  1  6
 20 22  1  0
 21 14  1  0
 22 24  2  0
 22 23  1  0
M  END
$$$$
