CKI.pdb
     RDKit          3D

 24 23  0  0  1  0  0  0  0  0999 V2000
   20.3585  -13.7061  -19.4658 N   0  0  0  0  0  0  0  0  0  0  0  0
   20.7624  -13.5021  -18.0827 C   0  0  1  0  0  0  0  0  0  0  0  0
   22.2864  -13.5518  -18.0759 C   0  0  0  0  0  0  0  0  0  0  0  0
   22.8749  -15.2678  -18.1041 S   0  0  0  0  0  0  0  0  0  0  0  0
   20.3578  -12.1256  -17.6828 C   0  0  0  0  0  0  0  0  0  0  0  0
   20.5645  -11.1289  -18.4553 O   0  0  0  0  0  0  0  0  0  0  0  0
   19.7325  -11.8322  -16.4515 N   0  0  0  0  0  0  0  0  0  0  0  0
   19.2718  -10.5031  -16.0964 C   0  0  1  0  0  0  0  0  0  0  0  0
   18.0513  -10.5945  -15.1710 C   0  0  0  0  0  0  0  0  0  0  0  0
   16.9107  -11.3133  -15.8491 C   0  0  0  0  0  0  0  0  0  0  0  0
   15.7804  -11.3893  -14.8383 C   0  0  0  0  0  0  0  0  0  0  0  0
   14.5595  -12.0642  -15.4259 C   0  0  0  0  0  0  0  0  0  0  0  0
   13.4455  -12.0386  -14.5094 N   0  0  0  0  0  0  0  0  0  0  0  0
   20.3337   -9.6919  -15.4527 C   0  0  0  0  0  0  0  0  0  0  0  0
   21.0584  -10.2314  -14.6106 O   0  0  0  0  0  0  0  0  0  0  0  0
   24.6091   -5.7554  -17.0333 C   0  0  0  0  0  0  0  0  0  0  0  0
   23.6878   -6.1608  -15.9430 C   0  0  0  0  0  0  0  0  0  0  0  0
   22.5943   -7.1162  -16.3193 C   0  0  2  0  0  0  0  0  0  0  0  0
   22.0449   -6.6610  -17.6420 C   0  0  0  0  0  0  0  0  0  0  0  0
   21.6388   -7.5134  -15.2805 C   0  0  2  0  0  0  0  0  0  0  0  0
   20.5461   -8.3361  -15.7636 N   0  0  0  0  0  0  0  0  0  0  0  0
   21.1375   -6.5414  -14.3288 C   0  0  0  0  0  0  0  0  0  0  0  0
   21.8091   -5.8854  -13.3221 O   0  0  0  0  0  0  0  0  0  0  0  0
   19.8914   -6.2221  -14.3997 O   0  0  0  0  0  0  0  0  0  0  0  0
  2  5  1  0
  2  1  1  6
  3  2  1  0
  4  3  1  0
  5  6  2  0
  7  5  1  0
  7  8  1  0
  8  9  1  1
  9 10  1  0
 10 11  1  0
 11 12  1  0
 13 12  1  0
 14  8  1  0
 14 15  2  0
 16 17  1  0
 17 18  1  0
 18 19  1  6
 18 20  1  0
 20 21  1  6
 20 22  1  0
 21 14  1  0
 22 24  2  0
 22 23  1  0
M  END
$$$$
