FMH.pdb
     RDKit          3D

 30 31  0  0  1  0  0  0  0  0999 V2000
   27.9022  -21.2052  -15.4145 N   0  0  0  0  0  0  0  0  0  0  0  0
   27.3863  -20.1847  -14.4818 C   0  0  1  0  0  0  0  0  0  0  0  0
   26.5851  -19.1901  -15.2975 C   0  0  0  0  0  0  0  0  0  0  0  0
   27.3925  -18.3387  -16.1815 C   0  0  0  0  0  0  0  0  0  0  0  0
   27.2997  -18.5382  -17.5448 C   0  0  0  0  0  0  0  0  0  0  0  0
   28.0174  -17.7739  -18.4583 C   0  0  0  0  0  0  0  0  0  0  0  0
   28.8329  -16.7998  -17.9443 C   0  0  0  0  0  0  0  0  0  0  0  0
   28.9524  -16.5700  -16.5790 C   0  0  0  0  0  0  0  0  0  0  0  0
   28.2274  -17.3450  -15.6979 C   0  0  0  0  0  0  0  0  0  0  0  0
   26.5484  -20.8374  -13.4466 C   0  0  0  0  0  0  0  0  0  0  0  0
   25.8812  -21.8583  -13.8068 O   0  0  0  0  0  0  0  0  0  0  0  0
   25.9955  -19.9263   -7.0116 C   0  0  0  0  0  0  0  0  0  0  0  0
   27.5152  -20.6083   -7.7489 S   0  0  0  0  0  0  0  0  0  0  0  0
   27.0773  -21.1593   -9.4383 C   0  0  0  0  0  0  0  0  0  0  0  0
   25.7730  -20.5186   -9.7899 C   0  0  0  0  0  0  0  0  0  0  0  0
   25.3665  -20.8796  -11.1962 C   0  0  2  0  0  0  0  0  0  0  0  0
   26.4343  -20.4263  -12.1156 N   0  0  0  0  0  0  0  0  0  0  0  0
   24.0920  -20.3369  -11.6531 C   0  0  0  0  0  0  0  0  0  0  0  0
   24.0719  -19.2752  -12.3911 O   0  0  0  0  0  0  0  0  0  0  0  0
   22.8070  -20.8715  -11.3712 N   0  0  0  0  0  0  0  0  0  0  0  0
   21.7047  -20.7384  -12.3240 C   0  0  1  0  0  0  0  0  0  0  0  0
   22.0633  -21.3258  -13.6569 C   0  0  0  0  0  0  0  0  0  0  0  0
   20.8999  -21.2357  -14.5664 C   0  0  0  0  0  0  0  0  0  0  0  0
   19.6136  -20.8030  -14.2589 C   0  0  0  0  0  0  0  0  0  0  0  0
   18.8322  -20.8680  -15.3542 N   0  0  0  0  0  0  0  0  0  0  0  0
   19.5992  -21.3394  -16.3684 C   0  0  0  0  0  0  0  0  0  0  0  0
   20.8231  -21.5492  -15.8755 N   0  0  0  0  0  0  0  0  0  0  0  0
   20.5279  -21.4180  -11.7693 C   0  0  0  0  0  0  0  0  0  0  0  0
   20.6921  -22.3151  -10.9019 O   0  0  0  0  0  0  0  0  0  0  0  0
   19.2090  -21.1619  -12.1141 O   0  0  0  0  0  0  0  0  0  0  0  0
  2  1  1  6
  3  4  1  0
  3  2  1  0
  4  5  2  0
  5  6  1  0
  7  6  2  0
  8  7  1  0
  9  4  1  0
  9  8  2  0
 10  2  1  0
 10 17  1  0
 11 10  2  0
 13 12  1  0
 14 13  1  0
 15 14  1  0
 16 15  1  1
 16 17  1  0
 18 16  1  0
 19 18  2  0
 20 18  1  0
 21 20  1  0
 21 28  1  0
 22 23  1  0
 21 22  1  6
 23 27  1  0
 24 23  2  0
 24 25  1  0
 25 26  1  0
 27 26  2  0
 28 30  1  0
 29 28  2  0
M  END
$$$$
