FMH.pdb
     RDKit          3D

 30 31  0  0  1  0  0  0  0  0999 V2000
   32.1609  -27.7856  -25.7243 N   0  0  0  0  0  0  0  0  0  0  0  0
   32.2463  -28.6846  -24.5573 C   0  0  1  0  0  0  0  0  0  0  0  0
   33.4099  -28.2140  -23.7080 C   0  0  0  0  0  0  0  0  0  0  0  0
   34.7334  -28.5405  -24.2559 C   0  0  0  0  0  0  0  0  0  0  0  0
   35.3629  -27.6008  -25.0480 C   0  0  0  0  0  0  0  0  0  0  0  0
   36.6204  -27.8170  -25.6008 C   0  0  0  0  0  0  0  0  0  0  0  0
   37.2196  -29.0181  -25.3241 C   0  0  0  0  0  0  0  0  0  0  0  0
   36.6171  -29.9878  -24.5318 C   0  0  0  0  0  0  0  0  0  0  0  0
   35.3690  -29.7437  -23.9978 C   0  0  0  0  0  0  0  0  0  0  0  0
   30.9705  -28.6397  -23.8024 C   0  0  0  0  0  0  0  0  0  0  0  0
   30.1297  -27.7501  -24.1469 O   0  0  0  0  0  0  0  0  0  0  0  0
   25.8140  -29.9094  -25.3311 C   0  0  0  0  0  0  0  0  0  0  0  0
   25.7874  -30.6588  -23.6711 S   0  0  0  0  0  0  0  0  0  0  0  0
   26.8695  -29.6295  -22.6131 C   0  0  0  0  0  0  0  0  0  0  0  0
   28.2473  -29.6963  -23.1898 C   0  0  0  0  0  0  0  0  0  0  0  0
   29.2836  -29.5093  -22.1108 C   0  0  2  0  0  0  0  0  0  0  0  0
   30.6180  -29.4910  -22.7513 N   0  0  0  0  0  0  0  0  0  0  0  0
   29.2871  -30.5075  -21.0472 C   0  0  0  0  0  0  0  0  0  0  0  0
   29.5376  -31.7451  -21.3266 O   0  0  0  0  0  0  0  0  0  0  0  0
   29.0408  -30.2623  -19.6704 N   0  0  0  0  0  0  0  0  0  0  0  0
   28.8685  -31.3639  -18.7230 C   0  0  1  0  0  0  0  0  0  0  0  0
   27.4895  -31.3635  -18.1327 C   0  0  0  0  0  0  0  0  0  0  0  0
   27.5590  -31.7736  -16.7129 C   0  0  0  0  0  0  0  0  0  0  0  0
   28.6929  -32.1166  -15.9830 C   0  0  0  0  0  0  0  0  0  0  0  0
   28.3483  -32.4351  -14.7203 N   0  0  0  0  0  0  0  0  0  0  0  0
   27.0021  -32.3025  -14.6248 C   0  0  0  0  0  0  0  0  0  0  0  0
   26.5568  -31.9078  -15.8210 N   0  0  0  0  0  0  0  0  0  0  0  0
   29.1185  -32.6261  -19.4293 C   0  0  0  0  0  0  0  0  0  0  0  0
   28.6171  -32.7978  -20.5709 O   0  0  0  0  0  0  0  0  0  0  0  0
   29.8785  -33.6834  -18.9511 O   0  0  0  0  0  0  0  0  0  0  0  0
  2  1  1  6
  3  4  1  0
  3  2  1  0
  4  5  2  0
  5  6  1  0
  7  6  2  0
  8  7  1  0
  9  4  1  0
  9  8  2  0
 10  2  1  0
 10 17  1  0
 11 10  2  0
 13 12  1  0
 14 13  1  0
 15 14  1  0
 16 15  1  6
 16 17  1  0
 18 16  1  0
 19 18  2  0
 20 18  1  0
 21 20  1  0
 21 28  1  0
 22 23  1  0
 21 22  1  6
 23 27  1  0
 24 23  2  0
 24 25  1  0
 25 26  1  0
 27 26  2  0
 28 30  1  0
 29 28  2  0
M  END
$$$$
