FMH.pdb
     RDKit          3D

 30 31  0  0  1  0  0  0  0  0999 V2000
   28.4272  -20.0176   -8.4111 N   0  0  0  0  0  0  0  0  0  0  0  0
   27.0557  -20.5372   -8.2483 C   0  0  1  0  0  0  0  0  0  0  0  0
   26.5335  -20.0271   -6.9203 C   0  0  0  0  0  0  0  0  0  0  0  0
   27.5335  -19.9989   -5.8443 C   0  0  0  0  0  0  0  0  0  0  0  0
   27.7555  -21.1583   -5.1277 C   0  0  0  0  0  0  0  0  0  0  0  0
   28.6893  -21.2292   -4.0998 C   0  0  0  0  0  0  0  0  0  0  0  0
   29.3913  -20.0856   -3.8216 C   0  0  0  0  0  0  0  0  0  0  0  0
   29.1951  -18.9007   -4.5206 C   0  0  0  0  0  0  0  0  0  0  0  0
   28.2614  -18.8619   -5.5352 C   0  0  0  0  0  0  0  0  0  0  0  0
   26.2125  -20.0738   -9.3770 C   0  0  0  0  0  0  0  0  0  0  0  0
   26.1699  -18.8200   -9.5857 O   0  0  0  0  0  0  0  0  0  0  0  0
   29.6772  -20.4515  -12.6788 C   0  0  0  0  0  0  0  0  0  0  0  0
   28.6847  -20.7666  -14.1734 S   0  0  0  0  0  0  0  0  0  0  0  0
   26.9287  -20.6408  -13.6734 C   0  0  0  0  0  0  0  0  0  0  0  0
   26.8700  -20.8708  -12.1973 C   0  0  0  0  0  0  0  0  0  0  0  0
   25.4502  -20.7689  -11.7005 C   0  0  2  0  0  0  0  0  0  0  0  0
   25.4673  -20.8969  -10.2258 N   0  0  0  0  0  0  0  0  0  0  0  0
   24.5103  -21.7424  -12.2452 C   0  0  0  0  0  0  0  0  0  0  0  0
   24.5387  -22.9668  -11.8302 O   0  0  0  0  0  0  0  0  0  0  0  0
   23.5138  -21.4848  -13.2235 N   0  0  0  0  0  0  0  0  0  0  0  0
   22.0991  -21.3980  -12.8603 C   0  0  1  0  0  0  0  0  0  0  0  0
   21.8741  -20.3727  -11.7888 C   0  0  0  0  0  0  0  0  0  0  0  0
   21.4863  -21.0484  -10.5310 C   0  0  0  0  0  0  0  0  0  0  0  0
   21.4832  -22.4147  -10.2676 C   0  0  0  0  0  0  0  0  0  0  0  0
   21.0632  -22.6393   -9.0075 N   0  0  0  0  0  0  0  0  0  0  0  0
   20.7934  -21.4320   -8.4520 C   0  0  0  0  0  0  0  0  0  0  0  0
   21.0535  -20.5031   -9.3764 N   0  0  0  0  0  0  0  0  0  0  0  0
   21.3320  -21.0527  -14.0632 C   0  0  0  0  0  0  0  0  0  0  0  0
   20.5058  -21.8844  -14.5212 O   0  0  0  0  0  0  0  0  0  0  0  0
   21.4270  -19.8623  -14.7686 O   0  0  0  0  0  0  0  0  0  0  0  0
  2  1  1  6
  3  4  1  0
  3  2  1  0
  4  5  2  0
  5  6  1  0
  7  6  2  0
  8  7  1  0
  9  4  1  0
  9  8  2  0
 10  2  1  0
 10 17  1  0
 11 10  2  0
 13 12  1  0
 14 13  1  0
 15 14  1  0
 16 15  1  6
 16 17  1  0
 18 16  1  0
 19 18  2  0
 20 18  1  0
 21 20  1  0
 21 28  1  0
 22 23  1  0
 21 22  1  1
 23 27  1  0
 24 23  2  0
 24 25  1  0
 25 26  1  0
 27 26  2  0
 28 30  1  0
 29 28  2  0
M  END
$$$$
