FMH.pdb
     RDKit          3D

 30 31  0  0  1  0  0  0  0  0999 V2000
   26.2239  -17.2673  -17.9770 N   0  0  0  0  0  0  0  0  0  0  0  0
   24.8635  -17.7538  -18.2769 C   0  0  1  0  0  0  0  0  0  0  0  0
   25.0056  -18.9917  -19.1394 C   0  0  0  0  0  0  0  0  0  0  0  0
   25.0896  -18.7217  -20.5810 C   0  0  0  0  0  0  0  0  0  0  0  0
   25.1318  -17.4060  -20.9983 C   0  0  0  0  0  0  0  0  0  0  0  0
   25.2223  -17.0547  -22.3407 C   0  0  0  0  0  0  0  0  0  0  0  0
   25.2686  -18.0814  -23.2472 C   0  0  0  0  0  0  0  0  0  0  0  0
   25.2281  -19.4169  -22.8651 C   0  0  0  0  0  0  0  0  0  0  0  0
   25.1381  -19.7335  -21.5256 C   0  0  0  0  0  0  0  0  0  0  0  0
   24.1536  -18.0539  -17.0098 C   0  0  0  0  0  0  0  0  0  0  0  0
   24.8700  -18.3984  -16.0172 O   0  0  0  0  0  0  0  0  0  0  0  0
   19.6401  -14.9863  -13.5661 C   0  0  0  0  0  0  0  0  0  0  0  0
   20.7917  -14.3786  -14.8399 S   0  0  0  0  0  0  0  0  0  0  0  0
   21.9800  -15.7328  -15.1620 C   0  0  0  0  0  0  0  0  0  0  0  0
   21.1912  -16.9978  -15.2750 C   0  0  0  0  0  0  0  0  0  0  0  0
   22.1052  -18.1739  -15.5088 C   0  0  2  0  0  0  0  0  0  0  0  0
   22.7707  -17.9877  -16.8179 N   0  0  0  0  0  0  0  0  0  0  0  0
   21.4744  -19.4889  -15.4858 C   0  0  0  0  0  0  0  0  0  0  0  0
   20.9477  -19.9693  -16.5648 O   0  0  0  0  0  0  0  0  0  0  0  0
   21.3730  -20.3474  -14.3592 N   0  0  0  0  0  0  0  0  0  0  0  0
   20.0774  -20.6496  -13.7504 C   0  0  1  0  0  0  0  0  0  0  0  0
   19.6371  -19.5481  -12.8323 C   0  0  0  0  0  0  0  0  0  0  0  0
   18.2597  -19.8157  -12.3634 C   0  0  0  0  0  0  0  0  0  0  0  0
   17.4887  -20.9502  -12.5975 C   0  0  0  0  0  0  0  0  0  0  0  0
   16.2853  -20.8187  -12.0066 N   0  0  0  0  0  0  0  0  0  0  0  0
   16.2685  -19.6097  -11.3925 C   0  0  0  0  0  0  0  0  0  0  0  0
   17.4527  -19.0338  -11.6183 N   0  0  0  0  0  0  0  0  0  0  0  0
   19.0941  -20.8402  -14.8234 C   0  0  0  0  0  0  0  0  0  0  0  0
   18.8431  -22.0071  -15.2226 O   0  0  0  0  0  0  0  0  0  0  0  0
   18.3885  -19.8312  -15.4621 O   0  0  0  0  0  0  0  0  0  0  0  0
  2  1  1  1
  3  4  1  0
  3  2  1  0
  4  5  2  0
  5  6  1  0
  7  6  2  0
  8  7  1  0
  9  4  1  0
  9  8  2  0
 10  2  1  0
 10 17  1  0
 11 10  2  0
 13 12  1  0
 14 13  1  0
 15 14  1  0
 16 15  1  6
 16 17  1  0
 18 16  1  0
 19 18  2  0
 20 18  1  0
 21 20  1  0
 21 28  1  0
 22 23  1  0
 21 22  1  1
 23 27  1  0
 24 23  2  0
 24 25  1  0
 25 26  1  0
 27 26  2  0
 28 30  1  0
 29 28  2  0
M  END
$$$$
