FMH.pdb
     RDKit          3D

 30 31  0  0  1  0  0  0  0  0999 V2000
   25.7840  -11.4437  -17.5636 N   0  0  0  0  0  0  0  0  0  0  0  0
   25.7756  -10.1131  -16.9257 C   0  0  1  0  0  0  0  0  0  0  0  0
   26.3106   -9.1221  -17.9397 C   0  0  0  0  0  0  0  0  0  0  0  0
   27.6997   -9.3644  -18.3519 C   0  0  0  0  0  0  0  0  0  0  0  0
   27.9337   -9.7834  -19.6468 C   0  0  0  0  0  0  0  0  0  0  0  0
   29.2150  -10.0270  -20.1290 C   0  0  0  0  0  0  0  0  0  0  0  0
   30.2525   -9.8318  -19.2551 C   0  0  0  0  0  0  0  0  0  0  0  0
   30.0560   -9.4113  -17.9453 C   0  0  0  0  0  0  0  0  0  0  0  0
   28.7728   -9.1780  -17.4963 C   0  0  0  0  0  0  0  0  0  0  0  0
   24.3937   -9.7713  -16.5098 C   0  0  0  0  0  0  0  0  0  0  0  0
   23.4495  -10.1953  -17.2487 O   0  0  0  0  0  0  0  0  0  0  0  0
   18.9061   -9.9064  -11.2917 C   0  0  0  0  0  0  0  0  0  0  0  0
   20.6517  -10.1540  -11.7497 S   0  0  0  0  0  0  0  0  0  0  0  0
   20.9251   -9.2201  -13.2998 C   0  0  0  0  0  0  0  0  0  0  0  0
   22.3214   -9.5072  -13.7505 C   0  0  0  0  0  0  0  0  0  0  0  0
   22.6532   -8.7133  -14.9885 C   0  0  2  0  0  0  0  0  0  0  0  0
   24.0461   -9.0277  -15.3785 N   0  0  0  0  0  0  0  0  0  0  0  0
   22.5124   -7.2657  -14.8770 C   0  0  0  0  0  0  0  0  0  0  0  0
   23.5662   -6.5168  -14.8467 O   0  0  0  0  0  0  0  0  0  0  0  0
   21.2891   -6.5486  -14.8005 N   0  0  0  0  0  0  0  0  0  0  0  0
   21.2593   -5.0885  -14.8882 C   0  0  1  0  0  0  0  0  0  0  0  0
   22.0331   -4.5986  -16.0762 C   0  0  0  0  0  0  0  0  0  0  0  0
   21.9804   -3.1209  -16.1259 C   0  0  0  0  0  0  0  0  0  0  0  0
   22.4766   -2.2218  -15.1869 C   0  0  0  0  0  0  0  0  0  0  0  0
   22.2340   -0.9585  -15.5865 N   0  0  0  0  0  0  0  0  0  0  0  0
   21.5847   -1.0299  -16.7749 C   0  0  0  0  0  0  0  0  0  0  0  0
   21.4469   -2.3247  -17.0742 N   0  0  0  0  0  0  0  0  0  0  0  0
   19.8591   -4.6581  -14.9812 C   0  0  0  0  0  0  0  0  0  0  0  0
   19.0094   -5.4439  -15.4760 O   0  0  0  0  0  0  0  0  0  0  0  0
   19.3602   -3.4332  -14.5633 O   0  0  0  0  0  0  0  0  0  0  0  0
  2  1  1  6
  3  4  1  0
  3  2  1  0
  4  5  2  0
  5  6  1  0
  7  6  2  0
  8  7  1  0
  9  4  1  0
  9  8  2  0
 10  2  1  0
 10 17  1  0
 11 10  2  0
 13 12  1  0
 14 13  1  0
 15 14  1  0
 16 15  1  1
 16 17  1  0
 18 16  1  0
 19 18  2  0
 20 18  1  0
 21 20  1  0
 21 28  1  0
 22 23  1  0
 21 22  1  6
 23 27  1  0
 24 23  2  0
 24 25  1  0
 25 26  1  0
 27 26  2  0
 28 30  1  0
 29 28  2  0
M  END
$$$$
