FMH.pdb
     RDKit          3D

 30 31  0  0  1  0  0  0  0  0999 V2000
   30.1555  -11.9640  -19.1262 N   0  0  0  0  0  0  0  0  0  0  0  0
   28.8288  -11.5271  -18.6503 C   0  0  1  0  0  0  0  0  0  0  0  0
   28.2739  -10.5632  -19.6796 C   0  0  0  0  0  0  0  0  0  0  0  0
   28.9346   -9.2512  -19.7021 C   0  0  0  0  0  0  0  0  0  0  0  0
   28.2219   -8.1528  -19.2635 C   0  0  0  0  0  0  0  0  0  0  0  0
   28.7679   -6.8742  -19.2383 C   0  0  0  0  0  0  0  0  0  0  0  0
   30.0613   -6.7452  -19.6726 C   0  0  0  0  0  0  0  0  0  0  0  0
   30.8094   -7.8269  -20.1212 C   0  0  0  0  0  0  0  0  0  0  0  0
   30.2397   -9.0830  -20.1343 C   0  0  0  0  0  0  0  0  0  0  0  0
   27.9482  -12.7086  -18.4831 C   0  0  0  0  0  0  0  0  0  0  0  0
   28.4731  -13.8497  -18.6822 O   0  0  0  0  0  0  0  0  0  0  0  0
   25.7183  -18.2346  -14.6344 C   0  0  0  0  0  0  0  0  0  0  0  0
   26.6494  -16.7203  -15.0318 S   0  0  0  0  0  0  0  0  0  0  0  0
   25.7261  -15.8710  -16.3644 C   0  0  0  0  0  0  0  0  0  0  0  0
   26.4822  -14.6269  -16.7048 C   0  0  0  0  0  0  0  0  0  0  0  0
   25.7895  -13.8708  -17.8101 C   0  0  2  0  0  0  0  0  0  0  0  0
   26.5976  -12.6712  -18.1250 N   0  0  0  0  0  0  0  0  0  0  0  0
   24.4180  -13.4548  -17.5388 C   0  0  0  0  0  0  0  0  0  0  0  0
   24.1780  -12.6041  -16.5949 O   0  0  0  0  0  0  0  0  0  0  0  0
   23.2590  -13.8946  -18.2314 N   0  0  0  0  0  0  0  0  0  0  0  0
   21.9176  -13.5451  -17.7633 C   0  0  1  0  0  0  0  0  0  0  0  0
   21.2167  -12.6478  -18.7399 C   0  0  0  0  0  0  0  0  0  0  0  0
   22.1557  -11.6104  -19.2205 C   0  0  0  0  0  0  0  0  0  0  0  0
   23.5072  -11.4818  -18.9155 C   0  0  0  0  0  0  0  0  0  0  0  0
   24.0209  -10.4076  -19.5454 N   0  0  0  0  0  0  0  0  0  0  0  0
   23.0153   -9.8383  -20.2552 C   0  0  0  0  0  0  0  0  0  0  0  0
   21.9182  -10.5716  -20.0465 N   0  0  0  0  0  0  0  0  0  0  0  0
   21.1548  -14.7849  -17.5745 C   0  0  0  0  0  0  0  0  0  0  0  0
   21.6787  -15.8812  -17.9029 O   0  0  0  0  0  0  0  0  0  0  0  0
   19.8732  -14.8741  -17.0515 O   0  0  0  0  0  0  0  0  0  0  0  0
  2  1  1  6
  3  4  1  0
  3  2  1  0
  4  5  2  0
  5  6  1  0
  7  6  2  0
  8  7  1  0
  9  4  1  0
  9  8  2  0
 10  2  1  0
 10 17  1  0
 11 10  2  0
 13 12  1  0
 14 13  1  0
 15 14  1  0
 16 15  1  1
 16 17  1  0
 18 16  1  0
 19 18  2  0
 20 18  1  0
 21 20  1  0
 21 28  1  0
 22 23  1  0
 21 22  1  6
 23 27  1  0
 24 23  2  0
 24 25  1  0
 25 26  1  0
 27 26  2  0
 28 30  1  0
 29 28  2  0
M  END
$$$$
