FMH.pdb
     RDKit          3D

 30 31  0  0  1  0  0  0  0  0999 V2000
   19.9734  -10.8911  -15.0081 N   0  0  0  0  0  0  0  0  0  0  0  0
   19.5382   -9.7822  -15.8791 C   0  0  1  0  0  0  0  0  0  0  0  0
   18.0266   -9.7109  -15.7992 C   0  0  0  0  0  0  0  0  0  0  0  0
   17.3258  -10.5999  -16.7357 C   0  0  0  0  0  0  0  0  0  0  0  0
   16.6662  -11.6997  -16.2236 C   0  0  0  0  0  0  0  0  0  0  0  0
   15.9676  -12.5901  -17.0315 C   0  0  0  0  0  0  0  0  0  0  0  0
   15.9593  -12.3290  -18.3769 C   0  0  0  0  0  0  0  0  0  0  0  0
   16.6115  -11.2329  -18.9285 C   0  0  0  0  0  0  0  0  0  0  0  0
   17.2962  -10.3677  -18.1008 C   0  0  0  0  0  0  0  0  0  0  0  0
   20.1659   -8.5181  -15.4235 C   0  0  0  0  0  0  0  0  0  0  0  0
   20.2424   -8.3344  -14.1675 O   0  0  0  0  0  0  0  0  0  0  0  0
   25.7556   -5.9063  -16.7407 C   0  0  0  0  0  0  0  0  0  0  0  0
   24.6805   -4.4973  -17.1613 S   0  0  0  0  0  0  0  0  0  0  0  0
   23.1489   -4.6941  -16.1789 C   0  0  0  0  0  0  0  0  0  0  0  0
   22.5367   -6.0012  -16.5687 C   0  0  0  0  0  0  0  0  0  0  0  0
   21.2878   -6.2626  -15.7656 C   0  0  2  0  0  0  0  0  0  0  0  0
   20.6786   -7.5194  -16.2561 N   0  0  0  0  0  0  0  0  0  0  0  0
   20.2781   -5.2101  -15.7921 C   0  0  0  0  0  0  0  0  0  0  0  0
   19.6775   -4.9220  -16.9004 O   0  0  0  0  0  0  0  0  0  0  0  0
   19.8539   -4.4312  -14.6831 N   0  0  0  0  0  0  0  0  0  0  0  0
   18.8368   -3.3901  -14.8326 C   0  0  1  0  0  0  0  0  0  0  0  0
   17.9485   -3.3197  -13.6259 C   0  0  0  0  0  0  0  0  0  0  0  0
   16.9236   -2.2718  -13.8266 C   0  0  0  0  0  0  0  0  0  0  0  0
   16.7034   -1.5074  -14.9682 C   0  0  0  0  0  0  0  0  0  0  0  0
   15.6795   -0.6567  -14.7619 N   0  0  0  0  0  0  0  0  0  0  0  0
   15.2344   -0.8618  -13.4975 C   0  0  0  0  0  0  0  0  0  0  0  0
   15.9887   -1.8264  -12.9632 N   0  0  0  0  0  0  0  0  0  0  0  0
   19.5155   -2.1052  -15.0396 C   0  0  0  0  0  0  0  0  0  0  0  0
   20.5417   -1.8394  -14.3610 O   0  0  0  0  0  0  0  0  0  0  0  0
   19.1290   -1.1222  -15.9386 O   0  0  0  0  0  0  0  0  0  0  0  0
  2  1  1  1
  3  4  1  0
  3  2  1  0
  4  5  2  0
  5  6  1  0
  7  6  2  0
  8  7  1  0
  9  4  1  0
  9  8  2  0
 10  2  1  0
 10 17  1  0
 11 10  2  0
 13 12  1  0
 14 13  1  0
 15 14  1  0
 16 15  1  6
 16 17  1  0
 18 16  1  0
 19 18  2  0
 20 18  1  0
 21 20  1  0
 21 28  1  0
 22 23  1  0
 21 22  1  1
 23 27  1  0
 24 23  2  0
 24 25  1  0
 25 26  1  0
 27 26  2  0
 28 30  1  0
 29 28  2  0
M  END
$$$$
