FMH.pdb
     RDKit          3D

 30 31  0  0  1  0  0  0  0  0999 V2000
   24.6328  -19.8552  -18.1722 N   0  0  0  0  0  0  0  0  0  0  0  0
   24.0682  -18.9681  -17.1369 C   0  0  1  0  0  0  0  0  0  0  0  0
   22.8604  -18.2800  -17.7405 C   0  0  0  0  0  0  0  0  0  0  0  0
   23.1786  -17.3085  -18.7957 C   0  0  0  0  0  0  0  0  0  0  0  0
   22.8743  -17.6387  -20.1016 C   0  0  0  0  0  0  0  0  0  0  0  0
   23.1288  -16.7787  -21.1642 C   0  0  0  0  0  0  0  0  0  0  0  0
   23.7025  -15.5719  -20.8597 C   0  0  0  0  0  0  0  0  0  0  0  0
   24.0230  -15.2050  -19.5582 C   0  0  0  0  0  0  0  0  0  0  0  0
   23.7583  -16.0801  -18.5254 C   0  0  0  0  0  0  0  0  0  0  0  0
   23.6970  -19.7697  -15.9457 C   0  0  0  0  0  0  0  0  0  0  0  0
   23.2178  -20.9282  -16.1589 O   0  0  0  0  0  0  0  0  0  0  0  0
   24.8411  -21.2513   -8.3473 C   0  0  0  0  0  0  0  0  0  0  0  0
   25.3080  -20.3045   -9.8317 S   0  0  0  0  0  0  0  0  0  0  0  0
   24.0330  -20.6514  -11.0980 C   0  0  0  0  0  0  0  0  0  0  0  0
   24.4325  -19.9232  -12.3412 C   0  0  0  0  0  0  0  0  0  0  0  0
   23.4457  -20.1861  -13.4504 C   0  0  2  0  0  0  0  0  0  0  0  0
   23.8315  -19.3596  -14.6163 N   0  0  0  0  0  0  0  0  0  0  0  0
   22.0451  -19.9282  -13.1351 C   0  0  0  0  0  0  0  0  0  0  0  0
   21.5628  -18.7364  -13.2741 O   0  0  0  0  0  0  0  0  0  0  0  0
   21.1020  -20.8854  -12.6760 N   0  0  0  0  0  0  0  0  0  0  0  0
   19.7016  -20.8321  -13.0963 C   0  0  1  0  0  0  0  0  0  0  0  0
   19.5807  -20.4391  -14.5388 C   0  0  0  0  0  0  0  0  0  0  0  0
   18.1514  -20.3659  -14.9136 C   0  0  0  0  0  0  0  0  0  0  0  0
   17.3062  -19.2641  -14.8259 C   0  0  0  0  0  0  0  0  0  0  0  0
   16.0744  -19.5932  -15.2606 N   0  0  0  0  0  0  0  0  0  0  0  0
   16.1128  -20.8979  -15.6286 C   0  0  0  0  0  0  0  0  0  0  0  0
   17.3573  -21.3340  -15.4138 N   0  0  0  0  0  0  0  0  0  0  0  0
   19.1014  -22.1537  -12.8777 C   0  0  0  0  0  0  0  0  0  0  0  0
   19.7810  -23.1830  -13.1284 O   0  0  0  0  0  0  0  0  0  0  0  0
   17.8191  -22.3912  -12.4052 O   0  0  0  0  0  0  0  0  0  0  0  0
  2  1  1  6
  3  4  1  0
  3  2  1  0
  4  5  2  0
  5  6  1  0
  7  6  2  0
  8  7  1  0
  9  4  1  0
  9  8  2  0
 10  2  1  0
 10 17  1  0
 11 10  2  0
 13 12  1  0
 14 13  1  0
 15 14  1  0
 16 15  1  1
 16 17  1  0
 18 16  1  0
 19 18  2  0
 20 18  1  0
 21 20  1  0
 21 28  1  0
 22 23  1  0
 21 22  1  6
 23 27  1  0
 24 23  2  0
 24 25  1  0
 25 26  1  0
 27 26  2  0
 28 30  1  0
 29 28  2  0
M  END
$$$$
