FMH.pdb
     RDKit          3D

 30 31  0  0  1  0  0  0  0  0999 V2000
   25.1876  -19.6528   -7.7336 N   0  0  0  0  0  0  0  0  0  0  0  0
   26.3794  -19.9580   -8.5484 C   0  0  1  0  0  0  0  0  0  0  0  0
   27.1642  -21.0293   -7.8183 C   0  0  0  0  0  0  0  0  0  0  0  0
   27.7737  -20.5838   -6.5580 C   0  0  0  0  0  0  0  0  0  0  0  0
   28.9509  -19.8645   -6.6196 C   0  0  0  0  0  0  0  0  0  0  0  0
   29.5939  -19.3926   -5.4806 C   0  0  0  0  0  0  0  0  0  0  0  0
   29.0041  -19.6737   -4.2759 C   0  0  0  0  0  0  0  0  0  0  0  0
   27.8204  -20.3945   -4.1745 C   0  0  0  0  0  0  0  0  0  0  0  0
   27.2064  -20.8494   -5.3228 C   0  0  0  0  0  0  0  0  0  0  0  0
   25.9562  -20.4172   -9.8936 C   0  0  0  0  0  0  0  0  0  0  0  0
   24.8224  -20.9871   -9.9760 O   0  0  0  0  0  0  0  0  0  0  0  0
   29.2536  -17.5896  -14.4818 C   0  0  0  0  0  0  0  0  0  0  0  0
   28.1437  -18.4858  -15.6146 S   0  0  0  0  0  0  0  0  0  0  0  0
   26.7133  -19.0415  -14.6173 C   0  0  0  0  0  0  0  0  0  0  0  0
   27.2440  -19.4980  -13.2962 C   0  0  0  0  0  0  0  0  0  0  0  0
   26.1140  -19.8762  -12.3726 C   0  0  2  0  0  0  0  0  0  0  0  0
   26.6958  -20.2741  -11.0709 N   0  0  0  0  0  0  0  0  0  0  0  0
   25.2355  -20.9429  -12.8398 C   0  0  0  0  0  0  0  0  0  0  0  0
   25.3672  -22.1391  -12.3664 O   0  0  0  0  0  0  0  0  0  0  0  0
   24.1963  -20.8099  -13.7983 N   0  0  0  0  0  0  0  0  0  0  0  0
   22.8969  -21.4532  -13.6021 C   0  0  1  0  0  0  0  0  0  0  0  0
   22.3047  -21.0896  -12.2727 C   0  0  0  0  0  0  0  0  0  0  0  0
   20.9842  -21.7404  -12.1248 C   0  0  0  0  0  0  0  0  0  0  0  0
   20.3299  -22.5520  -13.0463 C   0  0  0  0  0  0  0  0  0  0  0  0
   19.1448  -22.9526  -12.5468 N   0  0  0  0  0  0  0  0  0  0  0  0
   19.0243  -22.4079  -11.3107 C   0  0  0  0  0  0  0  0  0  0  0  0
   20.1298  -21.6933  -11.0828 N   0  0  0  0  0  0  0  0  0  0  0  0
   22.0032  -21.0336  -14.6883 C   0  0  0  0  0  0  0  0  0  0  0  0
   20.9389  -21.6755  -14.8869 O   0  0  0  0  0  0  0  0  0  0  0  0
   22.2189  -19.9647  -15.5455 O   0  0  0  0  0  0  0  0  0  0  0  0
  2  1  1  1
  3  4  1  0
  3  2  1  0
  4  5  2  0
  5  6  1  0
  7  6  2  0
  8  7  1  0
  9  4  1  0
  9  8  2  0
 10  2  1  0
 10 17  1  0
 11 10  2  0
 13 12  1  0
 14 13  1  0
 15 14  1  0
 16 15  1  6
 16 17  1  0
 18 16  1  0
 19 18  2  0
 20 18  1  0
 21 20  1  0
 21 28  1  0
 22 23  1  0
 21 22  1  1
 23 27  1  0
 24 23  2  0
 24 25  1  0
 25 26  1  0
 27 26  2  0
 28 30  1  0
 29 28  2  0
M  END
$$$$
