FMH.pdb
     RDKit          3D

 30 31  0  0  1  0  0  0  0  0999 V2000
   31.1681  -29.7560  -18.3886 N   0  0  0  0  0  0  0  0  0  0  0  0
   29.7759  -29.6161  -18.8572 C   0  0  1  0  0  0  0  0  0  0  0  0
   29.2520  -31.0095  -19.1411 C   0  0  0  0  0  0  0  0  0  0  0  0
   29.7278  -31.5923  -20.4030 C   0  0  0  0  0  0  0  0  0  0  0  0
   29.2457  -31.0700  -21.5870 C   0  0  0  0  0  0  0  0  0  0  0  0
   29.6470  -31.5499  -22.8289 C   0  0  0  0  0  0  0  0  0  0  0  0
   30.5538  -32.5776  -22.8315 C   0  0  0  0  0  0  0  0  0  0  0  0
   31.0607  -33.1287  -21.6608 C   0  0  0  0  0  0  0  0  0  0  0  0
   30.6431  -32.6309  -20.4441 C   0  0  0  0  0  0  0  0  0  0  0  0
   28.9685  -28.9346  -17.8164 C   0  0  0  0  0  0  0  0  0  0  0  0
   29.3900  -29.0126  -16.6192 O   0  0  0  0  0  0  0  0  0  0  0  0
   26.6695  -22.3566  -15.9625 C   0  0  0  0  0  0  0  0  0  0  0  0
   26.0104  -23.5162  -17.2031 S   0  0  0  0  0  0  0  0  0  0  0  0
   26.1840  -25.1954  -16.4963 C   0  0  0  0  0  0  0  0  0  0  0  0
   26.9113  -26.0277  -17.5031 C   0  0  0  0  0  0  0  0  0  0  0  0
   27.0807  -27.4394  -17.0017 C   0  0  2  0  0  0  0  0  0  0  0  0
   27.7909  -28.2163  -18.0424 N   0  0  0  0  0  0  0  0  0  0  0  0
   25.8537  -28.1434  -16.6459 C   0  0  0  0  0  0  0  0  0  0  0  0
   25.1032  -27.6892  -15.6958 O   0  0  0  0  0  0  0  0  0  0  0  0
   25.3615  -29.3263  -17.2583 N   0  0  0  0  0  0  0  0  0  0  0  0
   24.0821  -29.9118  -16.8572 C   0  0  1  0  0  0  0  0  0  0  0  0
   24.0797  -30.2692  -15.4004 C   0  0  0  0  0  0  0  0  0  0  0  0
   25.1229  -31.2851  -15.1385 C   0  0  0  0  0  0  0  0  0  0  0  0
   25.9921  -31.8655  -16.0571 C   0  0  0  0  0  0  0  0  0  0  0  0
   26.7955  -32.7499  -15.4350 N   0  0  0  0  0  0  0  0  0  0  0  0
   26.4550  -32.7489  -14.1223 C   0  0  0  0  0  0  0  0  0  0  0  0
   25.4600  -31.8702  -13.9715 N   0  0  0  0  0  0  0  0  0  0  0  0
   23.0183  -28.9420  -17.1442 C   0  0  0  0  0  0  0  0  0  0  0  0
   23.3186  -27.8486  -17.6906 O   0  0  0  0  0  0  0  0  0  0  0  0
   21.6702  -29.1148  -16.8670 O   0  0  0  0  0  0  0  0  0  0  0  0
  2  1  1  1
  3  4  1  0
  3  2  1  0
  4  5  2  0
  5  6  1  0
  7  6  2  0
  8  7  1  0
  9  4  1  0
  9  8  2  0
 10  2  1  0
 10 17  1  0
 11 10  2  0
 13 12  1  0
 14 13  1  0
 15 14  1  0
 16 15  1  6
 16 17  1  0
 18 16  1  0
 19 18  2  0
 20 18  1  0
 21 20  1  0
 21 28  1  0
 22 23  1  0
 21 22  1  1
 23 27  1  0
 24 23  2  0
 24 25  1  0
 25 26  1  0
 27 26  2  0
 28 30  1  0
 29 28  2  0
M  END
$$$$
