FMH.pdb
     RDKit          3D

 30 31  0  0  1  0  0  0  0  0999 V2000
   15.7980  -15.9557    4.5179 N   0  0  0  0  0  0  0  0  0  0  0  0
   16.9638  -16.8457    4.6801 C   0  0  1  0  0  0  0  0  0  0  0  0
   18.0264  -16.0671    5.4291 C   0  0  0  0  0  0  0  0  0  0  0  0
   18.4464  -14.8231    4.7699 C   0  0  0  0  0  0  0  0  0  0  0  0
   18.9876  -14.9055    3.5022 C   0  0  0  0  0  0  0  0  0  0  0  0
   19.4028  -13.7814    2.7968 C   0  0  0  0  0  0  0  0  0  0  0  0
   19.2514  -12.5698    3.4190 C   0  0  0  0  0  0  0  0  0  0  0  0
   18.7115  -12.4475    4.6936 C   0  0  0  0  0  0  0  0  0  0  0  0
   18.3089  -13.5814    5.3680 C   0  0  0  0  0  0  0  0  0  0  0  0
   16.5585  -18.0634    5.4232 C   0  0  0  0  0  0  0  0  0  0  0  0
   15.5517  -18.7001    4.9779 O   0  0  0  0  0  0  0  0  0  0  0  0
   20.2981  -23.7463    3.8419 C   0  0  0  0  0  0  0  0  0  0  0  0
   19.7168  -22.0205    3.7982 S   0  0  0  0  0  0  0  0  0  0  0  0
   18.8965  -21.7023    5.4030 C   0  0  0  0  0  0  0  0  0  0  0  0
   18.3903  -20.2958    5.3715 C   0  0  0  0  0  0  0  0  0  0  0  0
   17.7252  -19.9419    6.6774 C   0  0  2  0  0  0  0  0  0  0  0  0
   17.1895  -18.5666    6.5643 N   0  0  0  0  0  0  0  0  0  0  0  0
   18.5668  -20.0215    7.8662 C   0  0  0  0  0  0  0  0  0  0  0  0
   19.1603  -21.1318    8.1617 O   0  0  0  0  0  0  0  0  0  0  0  0
   18.8268  -18.9645    8.7781 N   0  0  0  0  0  0  0  0  0  0  0  0
   19.6001  -19.1899    9.9995 C   0  0  1  0  0  0  0  0  0  0  0  0
   20.3483  -17.9549   10.4059 C   0  0  0  0  0  0  0  0  0  0  0  0
   21.4194  -17.6795    9.4231 C   0  0  0  0  0  0  0  0  0  0  0  0
   21.8898  -18.5232    8.4216 C   0  0  0  0  0  0  0  0  0  0  0  0
   22.8743  -17.9148    7.7322 N   0  0  0  0  0  0  0  0  0  0  0  0
   23.0471  -16.6853    8.2776 C   0  0  0  0  0  0  0  0  0  0  0  0
   22.1707  -16.5692    9.2794 N   0  0  0  0  0  0  0  0  0  0  0  0
   18.6761  -19.5976   11.0646 C   0  0  0  0  0  0  0  0  0  0  0  0
   17.4692  -19.8117   10.7784 O   0  0  0  0  0  0  0  0  0  0  0  0
   19.0094  -19.7790   12.3988 O   0  0  0  0  0  0  0  0  0  0  0  0
  2  1  1  1
  3  4  1  0
  3  2  1  0
  4  5  2  0
  5  6  1  0
  7  6  2  0
  8  7  1  0
  9  4  1  0
  9  8  2  0
 10  2  1  0
 10 17  1  0
 11 10  2  0
 13 12  1  0
 14 13  1  0
 15 14  1  0
 16 15  1  6
 16 17  1  0
 18 16  1  0
 19 18  2  0
 20 18  1  0
 21 20  1  0
 21 28  1  0
 22 23  1  0
 21 22  1  1
 23 27  1  0
 24 23  2  0
 24 25  1  0
 25 26  1  0
 27 26  2  0
 28 30  1  0
 29 28  2  0
M  END
$$$$
