FMH.pdb
     RDKit          3D

 30 31  0  0  1  0  0  0  0  0999 V2000
   22.1335  -11.8956  -20.9271 N   0  0  0  0  0  0  0  0  0  0  0  0
   22.9416  -10.6656  -20.8198 C   0  0  1  0  0  0  0  0  0  0  0  0
   22.2269   -9.5849  -21.6058 C   0  0  0  0  0  0  0  0  0  0  0  0
   22.1213   -9.8505  -23.0468 C   0  0  0  0  0  0  0  0  0  0  0  0
   23.1586   -9.4460  -23.8638 C   0  0  0  0  0  0  0  0  0  0  0  0
   23.1515   -9.6641  -25.2371 C   0  0  0  0  0  0  0  0  0  0  0  0
   22.0575  -10.3061  -25.7559 C   0  0  0  0  0  0  0  0  0  0  0  0
   20.9949  -10.7273  -24.9656 C   0  0  0  0  0  0  0  0  0  0  0  0
   21.0313  -10.4963  -23.6062 C   0  0  0  0  0  0  0  0  0  0  0  0
   23.0879  -10.2914  -19.3922 C   0  0  0  0  0  0  0  0  0  0  0  0
   22.6492  -11.1199  -18.5329 O   0  0  0  0  0  0  0  0  0  0  0  0
   27.4971  -10.8392  -13.7937 C   0  0  0  0  0  0  0  0  0  0  0  0
   26.8460  -11.1113  -15.4730 S   0  0  0  0  0  0  0  0  0  0  0  0
   25.6390   -9.7728  -15.7911 C   0  0  0  0  0  0  0  0  0  0  0  0
   25.1345   -9.9527  -17.1870 C   0  0  0  0  0  0  0  0  0  0  0  0
   24.1006   -8.9060  -17.5165 C   0  0  2  0  0  0  0  0  0  0  0  0
   23.6665   -9.1113  -18.9168 N   0  0  0  0  0  0  0  0  0  0  0  0
   24.5205   -7.5186  -17.3539 C   0  0  0  0  0  0  0  0  0  0  0  0
   25.3098   -6.9785  -18.2244 O   0  0  0  0  0  0  0  0  0  0  0  0
   24.1374   -6.6477  -16.2997 N   0  0  0  0  0  0  0  0  0  0  0  0
   23.4072   -5.4085  -16.5674 C   0  0  1  0  0  0  0  0  0  0  0  0
   22.1874   -5.6648  -17.4019 C   0  0  0  0  0  0  0  0  0  0  0  0
   21.4579   -4.3953  -17.6147 C   0  0  0  0  0  0  0  0  0  0  0  0
   21.9198   -3.1025  -17.3877 C   0  0  0  0  0  0  0  0  0  0  0  0
   20.9602   -2.2098  -17.6990 N   0  0  0  0  0  0  0  0  0  0  0  0
   19.8806   -2.9114  -18.1248 C   0  0  0  0  0  0  0  0  0  0  0  0
   20.2015   -4.2070  -18.0664 N   0  0  0  0  0  0  0  0  0  0  0  0
   23.0271   -4.8078  -15.2831 C   0  0  0  0  0  0  0  0  0  0  0  0
   22.7434   -5.5612  -14.3157 O   0  0  0  0  0  0  0  0  0  0  0  0
   22.9482   -3.4485  -15.0181 O   0  0  0  0  0  0  0  0  0  0  0  0
  2  1  1  1
  3  4  1  0
  3  2  1  0
  4  5  2  0
  5  6  1  0
  7  6  2  0
  8  7  1  0
  9  4  1  0
  9  8  2  0
 10  2  1  0
 10 17  1  0
 11 10  2  0
 13 12  1  0
 14 13  1  0
 15 14  1  0
 16 15  1  6
 16 17  1  0
 18 16  1  0
 19 18  2  0
 20 18  1  0
 21 20  1  0
 21 28  1  0
 22 23  1  0
 21 22  1  6
 23 27  1  0
 24 23  2  0
 24 25  1  0
 25 26  1  0
 27 26  2  0
 28 30  1  0
 29 28  2  0
M  END
$$$$
