KQS.pdb
     RDKit          3D

 25 24  0  0  1  0  0  0  0  0999 V2000
   25.4700  -32.4326  -17.3014 N   0  0  0  0  0  0  0  0  0  0  0  0
   26.1251  -32.9659  -16.1695 C   0  0  1  0  0  0  0  0  0  0  0  0
   27.4754  -32.3959  -15.8755 C   0  0  0  0  0  0  0  0  0  0  0  0
   28.6108  -33.0078  -16.6153 C   0  0  0  0  0  0  0  0  0  0  0  0
   29.1568  -32.1812  -17.7401 C   0  0  0  0  0  0  0  0  0  0  0  0
   30.1944  -31.2020  -17.2300 C   0  0  0  0  0  0  0  0  0  0  0  0
   30.7423  -30.4482  -18.3414 N   0  0  0  0  0  0  0  0  0  0  0  0
   25.2715  -32.6578  -14.9554 C   0  0  0  0  0  0  0  0  0  0  0  0
   24.5363  -31.6353  -15.0815 O   0  0  0  0  0  0  0  0  0  0  0  0
   21.0802  -32.9658  -11.4492 N   0  0  0  0  0  0  0  0  0  0  0  0
   20.9935  -32.7289  -12.8659 C   0  0  0  0  0  0  0  0  0  0  0  0
   19.9995  -32.1075  -13.2742 O   0  0  0  0  0  0  0  0  0  0  0  0
   22.0691  -33.2282  -13.7419 C   0  0  0  0  0  0  0  0  0  0  0  0
   23.1192  -33.9050  -12.9394 C   0  0  0  0  0  0  0  0  0  0  0  0
   24.3979  -33.1987  -12.6931 C   0  0  2  0  0  0  0  0  0  0  0  0
   25.3266  -33.4643  -13.8168 N   0  0  0  0  0  0  0  0  0  0  0  0
   25.1050  -33.6219  -11.4742 C   0  0  0  0  0  0  0  0  0  0  0  0
   25.9273  -34.6139  -11.4727 O   0  0  0  0  0  0  0  0  0  0  0  0
   26.0391  -31.1838   -8.3688 O   0  0  0  0  0  0  0  0  0  0  0  0
   25.5419  -32.4044   -7.9283 C   0  0  0  0  0  0  0  0  0  0  0  0
   25.6733  -33.4392   -9.0378 C   0  0  2  0  0  0  0  0  0  0  0  0
   24.9533  -32.9907  -10.2308 N   0  0  0  0  0  0  0  0  0  0  0  0
   25.0366  -34.6717   -8.5533 C   0  0  0  0  0  0  0  0  0  0  0  0
   25.6053  -35.4963   -7.6115 O   0  0  0  0  0  0  0  0  0  0  0  0
   23.9053  -34.9590   -9.0509 O   0  0  0  0  0  0  0  0  0  0  0  0
  2  1  1  6
  3  2  1  0
  4  3  1  0
  5  6  1  0
  5  4  1  0
  7  6  1  0
  8  2  1  0
  8  9  2  0
 10 11  1  0
 11 13  1  0
 11 12  2  0
 13 14  1  0
 15 14  1  6
 16 15  1  0
 16  8  1  0
 17 18  2  0
 17 15  1  0
 20 19  1  0
 21 20  1  1
 21 22  1  0
 22 17  1  0
 23 21  1  0
 23 24  1  0
 25 23  2  0
M  END
$$$$
