KQS.pdb
     RDKit          3D

 25 24  0  0  1  0  0  0  0  0999 V2000
   20.6876  -14.3558  -18.8424 N   0  0  0  0  0  0  0  0  0  0  0  0
   19.5847  -13.6511  -18.3118 C   0  0  1  0  0  0  0  0  0  0  0  0
   19.1372  -14.0796  -16.9514 C   0  0  0  0  0  0  0  0  0  0  0  0
   18.4584  -15.4006  -16.8801 C   0  0  0  0  0  0  0  0  0  0  0  0
   17.0032  -15.3885  -17.2391 C   0  0  0  0  0  0  0  0  0  0  0  0
   16.4262  -16.7883  -17.1824 C   0  0  0  0  0  0  0  0  0  0  0  0
   15.0090  -16.7450  -17.4879 N   0  0  0  0  0  0  0  0  0  0  0  0
   19.9892  -12.1966  -18.1764 C   0  0  0  0  0  0  0  0  0  0  0  0
   21.1986  -12.0208  -17.8475 O   0  0  0  0  0  0  0  0  0  0  0  0
   16.7114   -7.5334  -20.4423 N   0  0  0  0  0  0  0  0  0  0  0  0
   17.7004   -6.7408  -19.7609 C   0  0  0  0  0  0  0  0  0  0  0  0
   17.6018   -5.5074  -19.8608 O   0  0  0  0  0  0  0  0  0  0  0  0
   18.7599   -7.4224  -18.9950 C   0  0  0  0  0  0  0  0  0  0  0  0
   18.5481   -8.8919  -19.0117 C   0  0  0  0  0  0  0  0  0  0  0  0
   19.5091   -9.7615  -18.2942 C   0  0  2  0  0  0  0  0  0  0  0  0
   19.0686  -11.1719  -18.4057 N   0  0  0  0  0  0  0  0  0  0  0  0
   19.6252   -9.4858  -16.8536 C   0  0  0  0  0  0  0  0  0  0  0  0
   18.6962   -9.8076  -16.0208 O   0  0  0  0  0  0  0  0  0  0  0  0
   23.1554   -9.1595  -14.9351 O   0  0  0  0  0  0  0  0  0  0  0  0
   21.9843   -9.4475  -14.2445 C   0  0  0  0  0  0  0  0  0  0  0  0
   20.8354   -8.6356  -14.8276 C   0  0  2  0  0  0  0  0  0  0  0  0
   20.7396   -8.8651  -16.2701 N   0  0  0  0  0  0  0  0  0  0  0  0
   21.1562   -7.2185  -14.6082 C   0  0  0  0  0  0  0  0  0  0  0  0
   21.3740   -6.3258  -15.6310 O   0  0  0  0  0  0  0  0  0  0  0  0
   21.2279   -6.8335  -13.4013 O   0  0  0  0  0  0  0  0  0  0  0  0
  2  1  1  1
  3  2  1  0
  4  3  1  0
  5  6  1  0
  5  4  1  0
  7  6  1  0
  8  2  1  0
  8  9  2  0
 10 11  1  0
 11 13  1  0
 11 12  2  0
 13 14  1  0
 15 14  1  1
 16 15  1  0
 16  8  1  0
 17 18  2  0
 17 15  1  0
 20 19  1  0
 21 20  1  6
 21 22  1  0
 22 17  1  0
 23 21  1  0
 23 24  1  0
 25 23  2  0
M  END
$$$$
