KQS.pdb
     RDKit          3D

 25 24  0  0  1  0  0  0  0  0999 V2000
   18.7503  -11.2902  -16.2562 N   0  0  0  0  0  0  0  0  0  0  0  0
   18.7285  -10.2286  -17.1874 C   0  0  1  0  0  0  0  0  0  0  0  0
   17.5212  -10.1642  -18.0666 C   0  0  0  0  0  0  0  0  0  0  0  0
   17.1795  -11.4181  -18.7889 C   0  0  0  0  0  0  0  0  0  0  0  0
   17.6964  -11.5047  -20.1931 C   0  0  0  0  0  0  0  0  0  0  0  0
   17.3306  -12.8360  -20.8171 C   0  0  0  0  0  0  0  0  0  0  0  0
   17.9478  -12.9484  -22.1248 N   0  0  0  0  0  0  0  0  0  0  0  0
   18.7423   -8.9298  -16.4059 C   0  0  0  0  0  0  0  0  0  0  0  0
   17.8274   -8.8353  -15.5366 O   0  0  0  0  0  0  0  0  0  0  0  0
   22.8353   -6.7467  -13.2401 N   0  0  0  0  0  0  0  0  0  0  0  0
   22.1184   -5.4992  -13.2669 C   0  0  0  0  0  0  0  0  0  0  0  0
   22.4938   -4.6157  -12.4798 O   0  0  0  0  0  0  0  0  0  0  0  0
   20.9960   -5.3392  -14.2094 C   0  0  0  0  0  0  0  0  0  0  0  0
   20.7898   -6.5873  -14.9868 C   0  0  0  0  0  0  0  0  0  0  0  0
   19.6451   -6.6657  -15.9238 C   0  0  2  0  0  0  0  0  0  0  0  0
   19.7042   -7.9501  -16.6604 N   0  0  0  0  0  0  0  0  0  0  0  0
   19.6215   -5.6110  -16.9495 C   0  0  0  0  0  0  0  0  0  0  0  0
   20.3105   -5.6997  -18.0347 O   0  0  0  0  0  0  0  0  0  0  0  0
   16.5018   -3.5287  -18.1755 O   0  0  0  0  0  0  0  0  0  0  0  0
   17.5384   -2.6542  -17.8722 C   0  0  0  0  0  0  0  0  0  0  0  0
   18.8611   -3.4088  -17.8793 C   0  0  2  0  0  0  0  0  0  0  0  0
   18.8563   -4.4404  -16.8407 N   0  0  0  0  0  0  0  0  0  0  0  0
   19.9128   -2.4353  -17.5548 C   0  0  0  0  0  0  0  0  0  0  0  0
   20.5106   -1.6275  -18.4932 O   0  0  0  0  0  0  0  0  0  0  0  0
   20.2626   -2.3631  -16.3372 O   0  0  0  0  0  0  0  0  0  0  0  0
  2  1  1  1
  3  2  1  0
  4  3  1  0
  5  6  1  0
  5  4  1  0
  7  6  1  0
  8  2  1  0
  8  9  2  0
 10 11  1  0
 11 13  1  0
 11 12  2  0
 13 14  1  0
 15 14  1  1
 16 15  1  0
 16  8  1  0
 17 18  2  0
 17 15  1  0
 20 19  1  0
 21 20  1  1
 21 22  1  0
 22 17  1  0
 23 21  1  0
 23 24  1  0
 25 23  2  0
M  END
$$$$
