KQS.pdb
     RDKit          3D

 25 24  0  0  1  0  0  0  0  0999 V2000
   20.4834  -21.2233  -12.6337 N   0  0  0  0  0  0  0  0  0  0  0  0
   20.9874  -20.7165  -13.8518 C   0  0  1  0  0  0  0  0  0  0  0  0
   20.1722  -19.6385  -14.4906 C   0  0  0  0  0  0  0  0  0  0  0  0
   18.8451  -20.0562  -15.0153 C   0  0  0  0  0  0  0  0  0  0  0  0
   18.1263  -19.0201  -15.8254 C   0  0  0  0  0  0  0  0  0  0  0  0
   16.8345  -19.5798  -16.3854 C   0  0  0  0  0  0  0  0  0  0  0  0
   16.1932  -18.5839  -17.2223 N   0  0  0  0  0  0  0  0  0  0  0  0
   22.3424  -20.0990  -13.5684 C   0  0  0  0  0  0  0  0  0  0  0  0
   22.3233  -19.1755  -12.7032 O   0  0  0  0  0  0  0  0  0  0  0  0
   26.6466  -21.3323  -11.1961 N   0  0  0  0  0  0  0  0  0  0  0  0
   27.6085  -20.7646  -12.1034 C   0  0  0  0  0  0  0  0  0  0  0  0
   28.7241  -20.4814  -11.6383 O   0  0  0  0  0  0  0  0  0  0  0  0
   27.2254  -20.5518  -13.5111 C   0  0  0  0  0  0  0  0  0  0  0  0
   25.8143  -20.9578  -13.7315 C   0  0  0  0  0  0  0  0  0  0  0  0
   24.7916  -19.9067  -13.9403 C   0  0  2  0  0  0  0  0  0  0  0  0
   23.4870  -20.5459  -14.2319 N   0  0  0  0  0  0  0  0  0  0  0  0
   25.0633  -19.0057  -15.0714 C   0  0  0  0  0  0  0  0  0  0  0  0
   24.7370  -19.3111  -16.2799 O   0  0  0  0  0  0  0  0  0  0  0  0
   25.4879  -14.8905  -14.8505 O   0  0  0  0  0  0  0  0  0  0  0  0
   26.4598  -15.5333  -15.6077 C   0  0  0  0  0  0  0  0  0  0  0  0
   25.9293  -16.8795  -16.0822 C   0  0  2  0  0  0  0  0  0  0  0  0
   25.6845  -17.7555  -14.9352 N   0  0  0  0  0  0  0  0  0  0  0  0
   26.9805  -17.4882  -16.9090 C   0  0  0  0  0  0  0  0  0  0  0  0
   27.3603  -16.9930  -18.1341 O   0  0  0  0  0  0  0  0  0  0  0  0
   27.5451  -18.5222  -16.4377 O   0  0  0  0  0  0  0  0  0  0  0  0
  2  1  1  1
  3  2  1  0
  4  3  1  0
  5  6  1  0
  5  4  1  0
  7  6  1  0
  8  2  1  0
  8  9  2  0
 10 11  1  0
 11 13  1  0
 11 12  2  0
 13 14  1  0
 15 14  1  6
 16 15  1  0
 16  8  1  0
 17 18  2  0
 17 15  1  0
 20 19  1  0
 21 20  1  1
 21 22  1  0
 22 17  1  0
 23 21  1  0
 23 24  1  0
 25 23  2  0
M  END
$$$$
