KQS.pdb
     RDKit          3D

 25 24  0  0  1  0  0  0  0  0999 V2000
   20.0132  -13.8572  -17.4756 N   0  0  0  0  0  0  0  0  0  0  0  0
   20.6178  -13.0222  -18.4410 C   0  0  1  0  0  0  0  0  0  0  0  0
   20.0826  -13.1478  -19.8312 C   0  0  0  0  0  0  0  0  0  0  0  0
   20.2398  -14.4829  -20.4665 C   0  0  0  0  0  0  0  0  0  0  0  0
   21.6554  -14.9485  -20.6270 C   0  0  0  0  0  0  0  0  0  0  0  0
   21.7005  -16.2964  -21.3177 C   0  0  0  0  0  0  0  0  0  0  0  0
   23.0661  -16.7842  -21.3475 N   0  0  0  0  0  0  0  0  0  0  0  0
   20.3680  -11.5852  -18.0286 C   0  0  0  0  0  0  0  0  0  0  0  0
   19.3211  -11.4160  -17.3378 O   0  0  0  0  0  0  0  0  0  0  0  0
   21.3798   -9.5891  -13.7156 N   0  0  0  0  0  0  0  0  0  0  0  0
   21.2777   -8.2294  -14.1756 C   0  0  0  0  0  0  0  0  0  0  0  0
   21.2677   -7.3400  -13.3096 O   0  0  0  0  0  0  0  0  0  0  0  0
   21.1908   -7.9688  -15.6241 C   0  0  0  0  0  0  0  0  0  0  0  0
   21.2136   -9.2449  -16.3828 C   0  0  0  0  0  0  0  0  0  0  0  0
   21.0586   -9.2046  -17.8555 C   0  0  2  0  0  0  0  0  0  0  0  0
   21.2482  -10.5681  -18.4039 N   0  0  0  0  0  0  0  0  0  0  0  0
   22.0341   -8.3494  -18.5496 C   0  0  0  0  0  0  0  0  0  0  0  0
   22.9152   -8.8348  -19.3548 O   0  0  0  0  0  0  0  0  0  0  0  0
   22.4559   -5.4835  -21.7347 O   0  0  0  0  0  0  0  0  0  0  0  0
   21.8707   -6.2564  -20.7389 C   0  0  0  0  0  0  0  0  0  0  0  0
   22.6446   -6.0846  -19.4387 C   0  0  2  0  0  0  0  0  0  0  0  0
   22.0860   -6.9553  -18.4030 N   0  0  0  0  0  0  0  0  0  0  0  0
   22.4645   -4.6899  -19.0126 C   0  0  0  0  0  0  0  0  0  0  0  0
   23.3336   -3.6788  -19.3483 O   0  0  0  0  0  0  0  0  0  0  0  0
   21.4445   -4.4420  -18.2997 O   0  0  0  0  0  0  0  0  0  0  0  0
  2  1  1  1
  3  2  1  0
  4  3  1  0
  5  6  1  0
  5  4  1  0
  7  6  1  0
  8  2  1  0
  8  9  2  0
 10 11  1  0
 11 13  1  0
 11 12  2  0
 13 14  1  0
 15 14  1  1
 16 15  1  0
 16  8  1  0
 17 18  2  0
 17 15  1  0
 20 19  1  0
 21 20  1  6
 21 22  1  0
 22 17  1  0
 23 21  1  0
 23 24  1  0
 25 23  2  0
M  END
$$$$
