KQS.pdb
     RDKit          3D

 25 24  0  0  1  0  0  0  0  0999 V2000
   24.8061  -11.7865  -16.0617 N   0  0  0  0  0  0  0  0  0  0  0  0
   23.7954  -11.1981  -16.8534 C   0  0  1  0  0  0  0  0  0  0  0  0
   22.8683  -12.1535  -17.5336 C   0  0  0  0  0  0  0  0  0  0  0  0
   23.4931  -13.0609  -18.5321 C   0  0  0  0  0  0  0  0  0  0  0  0
   22.5652  -14.0629  -19.1498 C   0  0  0  0  0  0  0  0  0  0  0  0
   23.2963  -14.9120  -20.1696 C   0  0  0  0  0  0  0  0  0  0  0  0
   22.3777  -15.8681  -20.7575 N   0  0  0  0  0  0  0  0  0  0  0  0
   22.9266  -10.3561  -15.9404 C   0  0  0  0  0  0  0  0  0  0  0  0
   22.6666  -10.8956  -14.8254 O   0  0  0  0  0  0  0  0  0  0  0  0
   23.9309   -4.8952  -14.5639 N   0  0  0  0  0  0  0  0  0  0  0  0
   22.5892   -4.8467  -14.0457 C   0  0  0  0  0  0  0  0  0  0  0  0
   22.2671   -3.8317  -13.4078 O   0  0  0  0  0  0  0  0  0  0  0  0
   21.6849   -5.9844  -14.2940 C   0  0  0  0  0  0  0  0  0  0  0  0
   22.3449   -6.9913  -15.1629 C   0  0  0  0  0  0  0  0  0  0  0  0
   21.6637   -8.2845  -15.4043 C   0  0  2  0  0  0  0  0  0  0  0  0
   22.4755   -9.0966  -16.3407 N   0  0  0  0  0  0  0  0  0  0  0  0
   20.3317   -8.1683  -16.0184 C   0  0  0  0  0  0  0  0  0  0  0  0
   20.1789   -7.9369  -17.2768 O   0  0  0  0  0  0  0  0  0  0  0  0
   17.0595   -9.9409  -14.6163 O   0  0  0  0  0  0  0  0  0  0  0  0
   17.0341   -9.4109  -15.9007 C   0  0  0  0  0  0  0  0  0  0  0  0
   17.8254   -8.1101  -15.9315 C   0  0  2  0  0  0  0  0  0  0  0  0
   19.1330   -8.3026  -15.3023 N   0  0  0  0  0  0  0  0  0  0  0  0
   17.0726   -7.1305  -15.1360 C   0  0  0  0  0  0  0  0  0  0  0  0
   15.7872   -6.7433  -15.4330 O   0  0  0  0  0  0  0  0  0  0  0  0
   17.6699   -6.6370  -14.1311 O   0  0  0  0  0  0  0  0  0  0  0  0
  2  1  1  1
  3  2  1  0
  4  3  1  0
  5  6  1  0
  5  4  1  0
  7  6  1  0
  8  2  1  0
  8  9  2  0
 10 11  1  0
 11 13  1  0
 11 12  2  0
 13 14  1  0
 15 14  1  6
 16 15  1  0
 16  8  1  0
 17 18  2  0
 17 15  1  0
 20 19  1  0
 21 20  1  1
 21 22  1  0
 22 17  1  0
 23 21  1  0
 23 24  1  0
 25 23  2  0
M  END
$$$$
