KQS.pdb
     RDKit          3D

 25 24  0  0  1  0  0  0  0  0999 V2000
   18.0856  -23.7276  -14.2307 N   0  0  0  0  0  0  0  0  0  0  0  0
   17.5486  -23.1411  -13.0636 C   0  0  1  0  0  0  0  0  0  0  0  0
   16.2104  -22.4938  -13.2218 C   0  0  0  0  0  0  0  0  0  0  0  0
   16.1720  -21.2944  -14.0998 C   0  0  0  0  0  0  0  0  0  0  0  0
   16.7145  -20.0391  -13.4864 C   0  0  0  0  0  0  0  0  0  0  0  0
   16.5542  -18.8677  -14.4339 C   0  0  0  0  0  0  0  0  0  0  0  0
   17.0330  -17.6557  -13.7972 N   0  0  0  0  0  0  0  0  0  0  0  0
   17.3579  -24.2429  -12.0402 C   0  0  0  0  0  0  0  0  0  0  0  0
   16.1604  -24.6310  -11.9096 O   0  0  0  0  0  0  0  0  0  0  0  0
   21.0555  -28.7653  -11.2152 N   0  0  0  0  0  0  0  0  0  0  0  0
   20.2839  -29.0291  -10.0295 C   0  0  0  0  0  0  0  0  0  0  0  0
   20.5094  -30.0954   -9.4352 O   0  0  0  0  0  0  0  0  0  0  0  0
   19.2838  -28.0383   -9.5916 C   0  0  0  0  0  0  0  0  0  0  0  0
   19.2690  -26.8743  -10.5132 C   0  0  0  0  0  0  0  0  0  0  0  0
   18.2203  -25.8416  -10.3448 C   0  0  2  0  0  0  0  0  0  0  0  0
   18.4437  -24.7543  -11.3264 N   0  0  0  0  0  0  0  0  0  0  0  0
   18.2044  -25.1968   -9.0224 C   0  0  0  0  0  0  0  0  0  0  0  0
   18.7380  -24.0414   -8.8207 O   0  0  0  0  0  0  0  0  0  0  0  0
   16.5492  -23.0204   -6.8827 O   0  0  0  0  0  0  0  0  0  0  0  0
   16.3711  -24.3010   -6.3731 C   0  0  0  0  0  0  0  0  0  0  0  0
   17.6426  -25.1134   -6.5791 C   0  0  2  0  0  0  0  0  0  0  0  0
   17.6126  -25.7699   -7.8871 N   0  0  0  0  0  0  0  0  0  0  0  0
   17.6595  -26.1549   -5.5427 C   0  0  0  0  0  0  0  0  0  0  0  0
   17.8896  -25.8939   -4.2125 O   0  0  0  0  0  0  0  0  0  0  0  0
   17.4472  -27.3443   -5.9304 O   0  0  0  0  0  0  0  0  0  0  0  0
  2  1  1  6
  3  2  1  0
  4  3  1  0
  5  6  1  0
  5  4  1  0
  7  6  1  0
  8  2  1  0
  8  9  2  0
 10 11  1  0
 11 13  1  0
 11 12  2  0
 13 14  1  0
 15 14  1  1
 16 15  1  0
 16  8  1  0
 17 18  2  0
 17 15  1  0
 20 19  1  0
 21 20  1  1
 21 22  1  0
 22 17  1  0
 23 21  1  0
 23 24  1  0
 25 23  2  0
M  END
$$$$
