WEA.pdb
     RDKit          3D

 29 30  0  0  1  0  0  0  0  0999 V2000
   25.4007  -10.3461  -18.7538 N   0  0  0  0  0  0  0  0  0  0  0  0
   25.0706  -10.0384  -17.4188 C   0  0  1  0  0  0  0  0  0  0  0  0
   26.2270   -9.5473  -16.5940 C   0  0  0  0  0  0  0  0  0  0  0  0
   27.4029  -10.4666  -16.5958 C   0  0  0  0  0  0  0  0  0  0  0  0
   28.6913  -10.1164  -16.9600 C   0  0  0  0  0  0  0  0  0  0  0  0
   29.4400  -11.2099  -16.8445 N   0  0  0  0  0  0  0  0  0  0  0  0
   28.7126  -12.2714  -16.4209 C   0  0  0  0  0  0  0  0  0  0  0  0
   29.0883  -13.5744  -16.1667 C   0  0  0  0  0  0  0  0  0  0  0  0
   28.0981  -14.4372  -15.7294 C   0  0  0  0  0  0  0  0  0  0  0  0
   26.8052  -13.9935  -15.5631 C   0  0  0  0  0  0  0  0  0  0  0  0
   26.4613  -12.6949  -15.8235 C   0  0  0  0  0  0  0  0  0  0  0  0
   27.4416  -11.8012  -16.2670 C   0  0  0  0  0  0  0  0  0  0  0  0
   23.8735   -9.1713  -17.2756 C   0  0  0  0  0  0  0  0  0  0  0  0
   23.5182   -8.2956  -18.0686 O   0  0  0  0  0  0  0  0  0  0  0  0
   23.0837   -9.3826  -16.1202 N   0  0  0  0  0  0  0  0  0  0  0  0
   21.7948   -8.6668  -15.8973 C   0  0  1  0  0  0  0  0  0  0  0  0
   20.8941   -9.5177  -15.1335 C   0  0  0  0  0  0  0  0  0  0  0  0
   19.5724   -8.9970  -14.7381 C   0  0  0  0  0  0  0  0  0  0  0  0
   18.4463   -9.9346  -14.7034 C   0  0  0  0  0  0  0  0  0  0  0  0
   18.5171  -11.0393  -15.2850 O   0  0  0  0  0  0  0  0  0  0  0  0
   22.1655   -7.3552  -15.4402 C   0  0  0  0  0  0  0  0  0  0  0  0
   23.0464   -7.2384  -14.5068 O   0  0  0  0  0  0  0  0  0  0  0  0
   17.2541   -9.6457  -14.0313 O   0  0  0  0  0  0  0  0  0  0  0  0
   21.7784   -3.6607  -16.2029 C   0  0  0  0  0  0  0  0  0  0  0  0
   22.2090   -4.8401  -15.3259 C   0  0  2  0  0  0  0  0  0  0  0  0
   21.6884   -6.0826  -15.9026 N   0  0  0  0  0  0  0  0  0  0  0  0
   21.7488   -4.6827  -13.9549 C   0  0  0  0  0  0  0  0  0  0  0  0
   20.7593   -5.2961  -13.5267 O   0  0  0  0  0  0  0  0  0  0  0  0
   22.4091   -3.8362  -13.0848 O   0  0  0  0  0  0  0  0  0  0  0  0
  2  1  1  6
  2 13  1  0
  2  3  1  0
  3  4  1  0
  4 12  1  0
  5  4  2  0
  5  6  1  0
  6  7  1  0
  7  8  1  0
  8  9  2  0
 10  9  1  0
 11 10  2  0
 12  7  2  0
 12 11  1  0
 13 15  1  0
 14 13  2  0
 15 16  1  0
 16 17  1  1
 17 18  1  0
 19 20  2  0
 19 18  1  0
 21 22  2  0
 21 16  1  0
 23 19  1  0
 25 24  1  6
 25 27  1  0
 25 26  1  0
 26 21  1  0
 27 29  1  0
 28 27  2  0
M  END
$$$$
