WEA.pdb
     RDKit          3D

 29 30  0  0  1  0  0  0  0  0999 V2000
   23.1611    0.8577   -2.0821 N   0  0  0  0  0  0  0  0  0  0  0  0
   24.5075    1.1902   -2.3323 C   0  0  1  0  0  0  0  0  0  0  0  0
   25.4675    0.0460   -2.1658 C   0  0  0  0  0  0  0  0  0  0  0  0
   25.3838   -0.6231   -0.8342 C   0  0  0  0  0  0  0  0  0  0  0  0
   24.5218   -1.6564   -0.5111 C   0  0  0  0  0  0  0  0  0  0  0  0
   24.7402   -1.9618    0.7651 N   0  0  0  0  0  0  0  0  0  0  0  0
   25.7061   -1.1820    1.3075 C   0  0  0  0  0  0  0  0  0  0  0  0
   26.2395   -1.1663    2.5799 C   0  0  0  0  0  0  0  0  0  0  0  0
   27.2381   -0.2405    2.8284 C   0  0  0  0  0  0  0  0  0  0  0  0
   27.6634    0.6150    1.8366 C   0  0  0  0  0  0  0  0  0  0  0  0
   27.1156    0.5769    0.5833 C   0  0  0  0  0  0  0  0  0  0  0  0
   26.1045   -0.3484    0.3041 C   0  0  0  0  0  0  0  0  0  0  0  0
   24.7238    1.9209   -3.6069 C   0  0  0  0  0  0  0  0  0  0  0  0
   24.2262    1.6310   -4.6979 O   0  0  0  0  0  0  0  0  0  0  0  0
   25.5807    3.0457   -3.5444 N   0  0  0  0  0  0  0  0  0  0  0  0
   25.8306    3.9205   -4.7259 C   0  0  1  0  0  0  0  0  0  0  0  0
   25.0259    5.1281   -4.6131 C   0  0  0  0  0  0  0  0  0  0  0  0
   25.1475    6.1744   -5.6450 C   0  0  0  0  0  0  0  0  0  0  0  0
   24.2661    7.3415   -5.5480 C   0  0  0  0  0  0  0  0  0  0  0  0
   23.4688    7.4619   -4.5922 O   0  0  0  0  0  0  0  0  0  0  0  0
   27.2608    3.9744   -4.8598 C   0  0  0  0  0  0  0  0  0  0  0  0
   27.9852    4.1739   -3.8127 O   0  0  0  0  0  0  0  0  0  0  0  0
   24.2700    8.3621   -6.5045 O   0  0  0  0  0  0  0  0  0  0  0  0
   30.0840    3.7671   -7.4002 C   0  0  0  0  0  0  0  0  0  0  0  0
   29.4950    4.0641   -6.0180 C   0  0  2  0  0  0  0  0  0  0  0  0
   28.0512    3.8150   -6.0477 N   0  0  0  0  0  0  0  0  0  0  0  0
   29.7677    5.4316   -5.6034 C   0  0  0  0  0  0  0  0  0  0  0  0
   28.9747    6.3545   -5.8445 O   0  0  0  0  0  0  0  0  0  0  0  0
   30.9302    5.7411   -4.9233 O   0  0  0  0  0  0  0  0  0  0  0  0
  2  1  1  6
  2 13  1  0
  2  3  1  0
  3  4  1  0
  4 12  1  0
  5  4  2  0
  5  6  1  0
  6  7  1  0
  7  8  1  0
  8  9  2  0
 10  9  1  0
 11 10  2  0
 12  7  2  0
 12 11  1  0
 13 15  1  0
 14 13  2  0
 15 16  1  0
 16 17  1  1
 17 18  1  0
 19 20  2  0
 19 18  1  0
 21 22  2  0
 21 16  1  0
 23 19  1  0
 25 24  1  6
 25 27  1  0
 25 26  1  0
 26 21  1  0
 27 29  1  0
 28 27  2  0
M  END
$$$$
