WEA.pdb
     RDKit          3D

 29 30  0  0  1  0  0  0  0  0999 V2000
   26.8969  -22.2136  -10.2363 N   0  0  0  0  0  0  0  0  0  0  0  0
   26.3095  -21.0067   -9.8071 C   0  0  1  0  0  0  0  0  0  0  0  0
   27.2964  -19.9577   -9.3781 C   0  0  0  0  0  0  0  0  0  0  0  0
   28.3093  -20.4472   -8.3971 C   0  0  0  0  0  0  0  0  0  0  0  0
   29.3059  -21.3682   -8.6688 C   0  0  0  0  0  0  0  0  0  0  0  0
   29.9846  -21.5528   -7.5397 N   0  0  0  0  0  0  0  0  0  0  0  0
   29.4883  -20.7992   -6.5292 C   0  0  0  0  0  0  0  0  0  0  0  0
   29.8895  -20.6825   -5.2143 C   0  0  0  0  0  0  0  0  0  0  0  0
   29.1727  -19.8073   -4.4166 C   0  0  0  0  0  0  0  0  0  0  0  0
   28.1121  -19.0968   -4.9330 C   0  0  0  0  0  0  0  0  0  0  0  0
   27.7364  -19.2331   -6.2416 C   0  0  0  0  0  0  0  0  0  0  0  0
   28.4428  -20.1108   -7.0706 C   0  0  0  0  0  0  0  0  0  0  0  0
   25.2879  -20.4656  -10.7393 C   0  0  0  0  0  0  0  0  0  0  0  0
   24.7273  -19.3713  -10.6387 O   0  0  0  0  0  0  0  0  0  0  0  0
   24.9390  -21.2937  -11.8329 N   0  0  0  0  0  0  0  0  0  0  0  0
   24.0384  -20.8280  -12.9263 C   0  0  1  0  0  0  0  0  0  0  0  0
   24.3856  -21.5114  -14.1636 C   0  0  0  0  0  0  0  0  0  0  0  0
   25.4284  -20.9391  -15.0352 C   0  0  0  0  0  0  0  0  0  0  0  0
   25.1777  -19.6261  -15.6364 C   0  0  0  0  0  0  0  0  0  0  0  0
   24.1786  -19.4374  -16.3644 O   0  0  0  0  0  0  0  0  0  0  0  0
   22.7123  -20.8892  -12.3749 C   0  0  0  0  0  0  0  0  0  0  0  0
   22.3850  -21.8878  -11.6289 O   0  0  0  0  0  0  0  0  0  0  0  0
   26.0299  -18.5359  -15.4321 O   0  0  0  0  0  0  0  0  0  0  0  0
   19.4703  -18.9472  -12.0179 C   0  0  0  0  0  0  0  0  0  0  0  0
   20.3271  -20.2138  -11.9329 C   0  0  2  0  0  0  0  0  0  0  0  0
   21.6407  -19.9455  -12.5243 N   0  0  0  0  0  0  0  0  0  0  0  0
   19.6877  -21.3374  -12.5999 C   0  0  0  0  0  0  0  0  0  0  0  0
   19.9988  -21.6713  -13.7534 O   0  0  0  0  0  0  0  0  0  0  0  0
   18.7065  -22.0695  -11.9589 O   0  0  0  0  0  0  0  0  0  0  0  0
  2  1  1  6
  2 13  1  0
  2  3  1  0
  3  4  1  0
  4 12  1  0
  5  4  2  0
  5  6  1  0
  6  7  1  0
  7  8  1  0
  8  9  2  0
 10  9  1  0
 11 10  2  0
 12  7  2  0
 12 11  1  0
 13 15  1  0
 14 13  2  0
 15 16  1  0
 16 17  1  6
 17 18  1  0
 19 20  2  0
 19 18  1  0
 21 22  2  0
 21 16  1  0
 23 19  1  0
 25 24  1  6
 25 27  1  0
 25 26  1  0
 26 21  1  0
 27 29  1  0
 28 27  2  0
M  END
$$$$
