WEA.pdb
     RDKit          3D

 29 30  0  0  1  0  0  0  0  0999 V2000
   28.0782  -19.7978  -11.3521 N   0  0  0  0  0  0  0  0  0  0  0  0
   27.0340  -20.7283  -11.1796 C   0  0  1  0  0  0  0  0  0  0  0  0
   26.4483  -20.7500   -9.7957 C   0  0  0  0  0  0  0  0  0  0  0  0
   27.4075  -20.3405   -8.7280 C   0  0  0  0  0  0  0  0  0  0  0  0
   27.1498  -19.4122   -7.7345 C   0  0  0  0  0  0  0  0  0  0  0  0
   28.2526  -19.3142   -6.9969 N   0  0  0  0  0  0  0  0  0  0  0  0
   29.2321  -20.1325   -7.4510 C   0  0  0  0  0  0  0  0  0  0  0  0
   30.5132  -20.3455   -6.9850 C   0  0  0  0  0  0  0  0  0  0  0  0
   31.2836  -21.2679   -7.6717 C   0  0  0  0  0  0  0  0  0  0  0  0
   30.7742  -21.9301   -8.7664 C   0  0  0  0  0  0  0  0  0  0  0  0
   29.4995  -21.6982   -9.2064 C   0  0  0  0  0  0  0  0  0  0  0  0
   28.6986  -20.7710   -8.5317 C   0  0  0  0  0  0  0  0  0  0  0  0
   25.9859  -20.6636  -12.2296 C   0  0  0  0  0  0  0  0  0  0  0  0
   25.6288  -19.6471  -12.8306 O   0  0  0  0  0  0  0  0  0  0  0  0
   25.3512  -21.8862  -12.5549 N   0  0  0  0  0  0  0  0  0  0  0  0
   24.4736  -22.0318  -13.7516 C   0  0  1  0  0  0  0  0  0  0  0  0
   24.6713  -23.3485  -14.3397 C   0  0  0  0  0  0  0  0  0  0  0  0
   23.9075  -23.7221  -15.5445 C   0  0  0  0  0  0  0  0  0  0  0  0
   24.1811  -25.0261  -16.1552 C   0  0  0  0  0  0  0  0  0  0  0  0
   25.0548  -25.7834  -15.6791 O   0  0  0  0  0  0  0  0  0  0  0  0
   23.1768  -21.5807  -13.3259 C   0  0  0  0  0  0  0  0  0  0  0  0
   22.8436  -21.6988  -12.0865 O   0  0  0  0  0  0  0  0  0  0  0  0
   23.4921  -25.4816  -17.2840 O   0  0  0  0  0  0  0  0  0  0  0  0
   20.6512  -19.0957  -13.6364 C   0  0  0  0  0  0  0  0  0  0  0  0
   20.8614  -20.6068  -13.5025 C   0  0  2  0  0  0  0  0  0  0  0  0
   22.1434  -20.9692  -14.1129 N   0  0  0  0  0  0  0  0  0  0  0  0
   19.7750  -21.3541  -14.1171 C   0  0  0  0  0  0  0  0  0  0  0  0
   19.9260  -21.9555  -15.1915 O   0  0  0  0  0  0  0  0  0  0  0  0
   18.5334  -21.4135  -13.5135 O   0  0  0  0  0  0  0  0  0  0  0  0
  2  1  1  1
  2 13  1  0
  2  3  1  0
  3  4  1  0
  4 12  1  0
  5  4  2  0
  5  6  1  0
  6  7  1  0
  7  8  1  0
  8  9  2  0
 10  9  1  0
 11 10  2  0
 12  7  2  0
 12 11  1  0
 13 15  1  0
 14 13  2  0
 15 16  1  0
 16 17  1  1
 17 18  1  0
 19 20  2  0
 19 18  1  0
 21 22  2  0
 21 16  1  0
 23 19  1  0
 25 24  1  6
 25 27  1  0
 25 26  1  0
 26 21  1  0
 27 29  1  0
 28 27  2  0
M  END
$$$$
