WEA.pdb
     RDKit          3D

 29 30  0  0  1  0  0  0  0  0999 V2000
   27.5588  -22.2780  -13.6463 N   0  0  0  0  0  0  0  0  0  0  0  0
   26.4704  -21.7192  -12.9470 C   0  0  1  0  0  0  0  0  0  0  0  0
   26.8175  -20.5049  -12.1322 C   0  0  0  0  0  0  0  0  0  0  0  0
   27.8007  -20.7712  -11.0413 C   0  0  0  0  0  0  0  0  0  0  0  0
   29.1283  -21.1147  -11.2274 C   0  0  0  0  0  0  0  0  0  0  0  0
   29.6604  -21.2832  -10.0199 N   0  0  0  0  0  0  0  0  0  0  0  0
   28.7515  -21.0684   -9.0386 C   0  0  0  0  0  0  0  0  0  0  0  0
   28.8794  -21.1289   -7.6661 C   0  0  0  0  0  0  0  0  0  0  0  0
   27.7496  -20.8430   -6.9191 C   0  0  0  0  0  0  0  0  0  0  0  0
   26.5640  -20.5160   -7.5387 C   0  0  0  0  0  0  0  0  0  0  0  0
   26.4665  -20.4641   -8.9025 C   0  0  0  0  0  0  0  0  0  0  0  0
   27.5923  -20.7486   -9.6823 C   0  0  0  0  0  0  0  0  0  0  0  0
   25.2603  -21.5059  -13.7809 C   0  0  0  0  0  0  0  0  0  0  0  0
   25.2490  -21.0922  -14.9431 O   0  0  0  0  0  0  0  0  0  0  0  0
   24.0196  -21.8085  -13.1705 N   0  0  0  0  0  0  0  0  0  0  0  0
   22.7373  -21.8019  -13.9316 C   0  0  1  0  0  0  0  0  0  0  0  0
   22.0999  -23.1055  -13.8176 C   0  0  0  0  0  0  0  0  0  0  0  0
   21.4430  -23.6926  -15.0001 C   0  0  0  0  0  0  0  0  0  0  0  0
   20.8399  -25.0214  -14.8627 C   0  0  0  0  0  0  0  0  0  0  0  0
   20.9066  -25.6441  -13.7803 O   0  0  0  0  0  0  0  0  0  0  0  0
   22.0671  -20.5948  -13.5314 C   0  0  0  0  0  0  0  0  0  0  0  0
   22.0503  -20.2662  -12.2854 O   0  0  0  0  0  0  0  0  0  0  0  0
   20.1722  -25.6515  -15.9180 O   0  0  0  0  0  0  0  0  0  0  0  0
   20.2945  -17.5116  -14.8588 C   0  0  0  0  0  0  0  0  0  0  0  0
   20.6975  -18.4936  -13.7548 C   0  0  2  0  0  0  0  0  0  0  0  0
   21.3885  -19.6366  -14.3576 N   0  0  0  0  0  0  0  0  0  0  0  0
   19.5438  -18.9410  -12.9900 C   0  0  0  0  0  0  0  0  0  0  0  0
   18.9859  -20.0231  -13.2280 O   0  0  0  0  0  0  0  0  0  0  0  0
   19.0336  -18.1634  -11.9679 O   0  0  0  0  0  0  0  0  0  0  0  0
  2  1  1  6
  2 13  1  0
  2  3  1  0
  3  4  1  0
  4 12  1  0
  5  4  2  0
  5  6  1  0
  6  7  1  0
  7  8  1  0
  8  9  2  0
 10  9  1  0
 11 10  2  0
 12  7  2  0
 12 11  1  0
 13 15  1  0
 14 13  2  0
 15 16  1  0
 16 17  1  1
 17 18  1  0
 19 20  2  0
 19 18  1  0
 21 22  2  0
 21 16  1  0
 23 19  1  0
 25 24  1  6
 25 27  1  0
 25 26  1  0
 26 21  1  0
 27 29  1  0
 28 27  2  0
M  END
$$$$
