EIS.pdb
     RDKit          3D

 24 23  0  0  1  0  0  0  0  0999 V2000
    8.4531  -14.6362   19.9751 N   0  0  0  0  0  0  0  0  0  0  0  0
    7.7754  -15.2311   21.1247 C   0  0  1  0  0  0  0  0  0  0  0  0
    7.7712  -16.7231   20.9494 C   0  0  0  0  0  0  0  0  0  0  0  0
    6.9973  -17.0512   19.6892 C   0  0  0  0  0  0  0  0  0  0  0  0
    6.9140  -18.5069   19.4858 C   0  0  0  0  0  0  0  0  0  0  0  0
    7.8767  -19.2232   19.0871 O   0  0  0  0  0  0  0  0  0  0  0  0
    8.3888  -14.7936   22.3924 C   0  0  0  0  0  0  0  0  0  0  0  0
    9.6307  -14.7587   22.4925 O   0  0  0  0  0  0  0  0  0  0  0  0
    5.7203  -19.1597   19.7386 O   0  0  0  0  0  0  0  0  0  0  0  0
    7.7765  -11.3930   26.9834 C   0  0  0  0  0  0  0  0  0  0  0  0
    7.6486  -12.9090   26.9112 C   0  0  0  0  0  0  0  0  0  0  0  0
    7.1291  -13.2974   25.5422 C   0  0  2  0  0  0  0  0  0  0  0  0
    5.8354  -14.0582   25.7466 C   0  0  0  0  0  0  0  0  0  0  0  0
    8.1079  -14.1389   24.8076 C   0  0  2  0  0  0  0  0  0  0  0  0
    7.5903  -14.4178   23.4826 N   0  0  0  0  0  0  0  0  0  0  0  0
    8.5562  -15.3467   25.4898 C   0  0  0  0  0  0  0  0  0  0  0  0
    7.8027  -16.3539   25.4662 O   0  0  0  0  0  0  0  0  0  0  0  0
   12.4496  -17.8689   26.6180 O   0  0  0  0  0  0  0  0  0  0  0  0
   11.7866  -16.7513   26.1622 C   0  0  0  0  0  0  0  0  0  0  0  0
   10.3482  -16.6707   26.6952 C   0  0  2  0  0  0  0  0  0  0  0  0
    9.7802  -15.4524   26.1718 N   0  0  0  0  0  0  0  0  0  0  0  0
   10.3580  -16.7259   28.1654 C   0  0  0  0  0  0  0  0  0  0  0  0
   10.6741  -17.9046   28.7979 O   0  0  0  0  0  0  0  0  0  0  0  0
   10.0824  -15.7141   28.8338 O   0  0  0  0  0  0  0  0  0  0  0  0
  2  1  1  6
  3  2  1  0
  4  3  1  0
  5  4  1  0
  6  5  2  0
  7  2  1  0
  7  8  2  0
  9  5  1  0
 10 11  1  0
 11 12  1  0
 12 13  1  1
 14 12  1  0
 14 15  1  6
 15  7  1  0
 16 14  1  0
 17 16  2  0
 19 18  1  0
 20 19  1  1
 20 22  1  0
 20 21  1  0
 21 16  1  0
 22 23  1  0
 24 22  2  0
M  END
$$$$
