EIS.pdb
     RDKit          3D

 24 23  0  0  1  0  0  0  0  0999 V2000
    8.7010  -18.2295   16.5092 N   0  0  0  0  0  0  0  0  0  0  0  0
    7.7952  -17.6454   17.4957 C   0  0  1  0  0  0  0  0  0  0  0  0
    6.8372  -18.7115   17.9457 C   0  0  0  0  0  0  0  0  0  0  0  0
    7.4700  -20.0618   17.6795 C   0  0  0  0  0  0  0  0  0  0  0  0
    6.9813  -21.0703   18.6343 C   0  0  0  0  0  0  0  0  0  0  0  0
    7.7154  -21.9418   19.1826 O   0  0  0  0  0  0  0  0  0  0  0  0
    8.5418  -17.0247   18.6057 C   0  0  0  0  0  0  0  0  0  0  0  0
    9.7191  -17.3718   18.8223 O   0  0  0  0  0  0  0  0  0  0  0  0
    5.6396  -21.0901   18.9722 O   0  0  0  0  0  0  0  0  0  0  0  0
    6.9577  -11.9997   20.0949 C   0  0  0  0  0  0  0  0  0  0  0  0
    7.8602  -13.1730   19.7360 C   0  0  0  0  0  0  0  0  0  0  0  0
    7.8627  -14.1642   20.8816 C   0  0  2  0  0  0  0  0  0  0  0  0
    8.5125  -13.4843   22.0689 C   0  0  0  0  0  0  0  0  0  0  0  0
    8.6060  -15.4009   20.5292 C   0  0  2  0  0  0  0  0  0  0  0  0
    7.9413  -16.0507   19.4170 N   0  0  0  0  0  0  0  0  0  0  0  0
    8.8748  -16.3232   21.6257 C   0  0  0  0  0  0  0  0  0  0  0  0
    7.9028  -16.9428   22.1296 O   0  0  0  0  0  0  0  0  0  0  0  0
   11.2792  -19.0247   21.6065 O   0  0  0  0  0  0  0  0  0  0  0  0
   11.5979  -18.3635   22.7717 C   0  0  0  0  0  0  0  0  0  0  0  0
   10.4619  -17.4467   23.2495 C   0  0  2  0  0  0  0  0  0  0  0  0
   10.1555  -16.5610   22.1529 N   0  0  0  0  0  0  0  0  0  0  0  0
   10.8727  -16.7407   24.4731 C   0  0  0  0  0  0  0  0  0  0  0  0
   11.0412  -15.3769   24.4455 O   0  0  0  0  0  0  0  0  0  0  0  0
   11.0670  -17.3716   25.5270 O   0  0  0  0  0  0  0  0  0  0  0  0
  2  1  1  6
  3  2  1  0
  4  3  1  0
  5  4  1  0
  6  5  2  0
  7  2  1  0
  7  8  2  0
  9  5  1  0
 10 11  1  0
 11 12  1  0
 12 13  1  1
 14 12  1  0
 14 15  1  6
 15  7  1  0
 16 14  1  0
 17 16  2  0
 19 18  1  0
 20 19  1  6
 20 22  1  0
 20 21  1  0
 21 16  1  0
 22 23  1  0
 24 22  2  0
M  END
$$$$
