EIS.pdb
     RDKit          3D

 24 23  0  0  1  0  0  0  0  0999 V2000
    8.2199  -14.3229   20.3888 N   0  0  0  0  0  0  0  0  0  0  0  0
    7.7369  -15.1464   21.4948 C   0  0  1  0  0  0  0  0  0  0  0  0
    7.9014  -16.5904   21.1143 C   0  0  0  0  0  0  0  0  0  0  0  0
    7.0983  -16.8444   19.8553 C   0  0  0  0  0  0  0  0  0  0  0  0
    7.0889  -18.2770   19.5162 C   0  0  0  0  0  0  0  0  0  0  0  0
    7.6843  -19.1682   20.1871 O   0  0  0  0  0  0  0  0  0  0  0  0
    8.4118  -14.7945   22.7579 C   0  0  0  0  0  0  0  0  0  0  0  0
    9.6493  -14.6466   22.7712 O   0  0  0  0  0  0  0  0  0  0  0  0
    6.3934  -18.7048   18.3990 O   0  0  0  0  0  0  0  0  0  0  0  0
    6.1555  -11.5062   26.2837 C   0  0  0  0  0  0  0  0  0  0  0  0
    7.1582  -12.2884   25.4455 C   0  0  0  0  0  0  0  0  0  0  0  0
    7.4062  -13.6332   26.0973 C   0  0  2  0  0  0  0  0  0  0  0  0
    8.0678  -13.3744   27.4350 C   0  0  0  0  0  0  0  0  0  0  0  0
    8.2743  -14.4944   25.2543 C   0  0  2  0  0  0  0  0  0  0  0  0
    7.6764  -14.6255   23.9403 N   0  0  0  0  0  0  0  0  0  0  0  0
    8.6449  -15.7848   25.8225 C   0  0  0  0  0  0  0  0  0  0  0  0
    7.7243  -16.5981   26.0939 O   0  0  0  0  0  0  0  0  0  0  0  0
   12.6219  -16.9423   25.8569 O   0  0  0  0  0  0  0  0  0  0  0  0
   11.6177  -17.8838   25.8173 C   0  0  0  0  0  0  0  0  0  0  0  0
   10.3811  -17.4491   26.6181 C   0  0  2  0  0  0  0  0  0  0  0  0
    9.9694  -16.1737   26.0847 N   0  0  0  0  0  0  0  0  0  0  0  0
   10.7066  -17.4048   28.0522 C   0  0  0  0  0  0  0  0  0  0  0  0
   11.1033  -18.5538   28.6937 O   0  0  0  0  0  0  0  0  0  0  0  0
   10.6241  -16.3358   28.6822 O   0  0  0  0  0  0  0  0  0  0  0  0
  2  1  1  6
  3  2  1  0
  4  3  1  0
  5  4  1  0
  6  5  2  0
  7  2  1  0
  7  8  2  0
  9  5  1  0
 10 11  1  0
 11 12  1  0
 12 13  1  1
 14 12  1  0
 14 15  1  6
 15  7  1  0
 16 14  1  0
 17 16  2  0
 19 18  1  0
 20 19  1  6
 20 22  1  0
 20 21  1  0
 21 16  1  0
 22 23  1  0
 24 22  2  0
M  END
$$$$
