EIS.pdb
     RDKit          3D

 24 23  0  0  1  0  0  0  0  0999 V2000
    9.5950  -17.5556   15.9407 N   0  0  0  0  0  0  0  0  0  0  0  0
    8.6147  -17.4974   17.0224 C   0  0  1  0  0  0  0  0  0  0  0  0
    8.1381  -18.8943   17.3026 C   0  0  0  0  0  0  0  0  0  0  0  0
    7.5967  -19.4789   16.0143 C   0  0  0  0  0  0  0  0  0  0  0  0
    7.0242  -20.8160   16.2420 C   0  0  0  0  0  0  0  0  0  0  0  0
    6.9997  -21.3946   17.3660 O   0  0  0  0  0  0  0  0  0  0  0  0
    9.1680  -16.8197   18.2096 C   0  0  0  0  0  0  0  0  0  0  0  0
   10.3859  -16.9137   18.4570 O   0  0  0  0  0  0  0  0  0  0  0  0
    6.4711  -21.5068   15.1782 O   0  0  0  0  0  0  0  0  0  0  0  0
    6.7385  -12.2321   19.8002 C   0  0  0  0  0  0  0  0  0  0  0  0
    7.8236  -13.2523   19.4812 C   0  0  0  0  0  0  0  0  0  0  0  0
    7.8636  -14.2929   20.5813 C   0  0  2  0  0  0  0  0  0  0  0  0
    8.3003  -13.5938   21.8520 C   0  0  0  0  0  0  0  0  0  0  0  0
    8.8039  -15.3949   20.2536 C   0  0  2  0  0  0  0  0  0  0  0  0
    8.3391  -16.0731   19.0599 N   0  0  0  0  0  0  0  0  0  0  0  0
    9.1045  -16.3256   21.3347 C   0  0  0  0  0  0  0  0  0  0  0  0
    8.1996  -17.1191   21.7010 O   0  0  0  0  0  0  0  0  0  0  0  0
   13.1069  -17.2942   22.6731 O   0  0  0  0  0  0  0  0  0  0  0  0
   11.9744  -18.0598   22.5067 C   0  0  0  0  0  0  0  0  0  0  0  0
   10.7105  -17.3450   23.0077 C   0  0  2  0  0  0  0  0  0  0  0  0
   10.3451  -16.3887   21.9915 N   0  0  0  0  0  0  0  0  0  0  0  0
   10.9717  -16.7322   24.3195 C   0  0  0  0  0  0  0  0  0  0  0  0
   11.1935  -17.5363   25.4119 O   0  0  0  0  0  0  0  0  0  0  0  0
   10.9922  -15.4948   24.4417 O   0  0  0  0  0  0  0  0  0  0  0  0
  2  1  1  6
  3  2  1  0
  4  3  1  0
  5  4  1  0
  6  5  2  0
  7  2  1  0
  7  8  2  0
  9  5  1  0
 10 11  1  0
 11 12  1  0
 12 13  1  1
 14 12  1  0
 14 15  1  6
 15  7  1  0
 16 14  1  0
 17 16  2  0
 19 18  1  0
 20 19  1  6
 20 22  1  0
 20 21  1  0
 21 16  1  0
 22 23  1  0
 24 22  2  0
M  END
$$$$
