EIS.pdb
     RDKit          3D

 24 23  0  0  1  0  0  0  0  0999 V2000
    7.8837  -14.4401   20.0529 N   0  0  0  0  0  0  0  0  0  0  0  0
    7.3344  -15.1472   21.2074 C   0  0  1  0  0  0  0  0  0  0  0  0
    7.3838  -16.6218   20.9245 C   0  0  0  0  0  0  0  0  0  0  0  0
    6.6321  -16.8837   19.6357 C   0  0  0  0  0  0  0  0  0  0  0  0
    6.5456  -18.3272   19.3600 C   0  0  0  0  0  0  0  0  0  0  0  0
    7.5329  -19.1164   19.3968 O   0  0  0  0  0  0  0  0  0  0  0  0
    8.0330  -14.7670   22.4493 C   0  0  0  0  0  0  0  0  0  0  0  0
    9.2514  -14.5074   22.4124 O   0  0  0  0  0  0  0  0  0  0  0  0
    5.3203  -18.8837   19.0377 O   0  0  0  0  0  0  0  0  0  0  0  0
    5.8443  -11.4278   25.8598 C   0  0  0  0  0  0  0  0  0  0  0  0
    6.8093  -12.2595   25.0250 C   0  0  0  0  0  0  0  0  0  0  0  0
    7.1054  -13.5542   25.7537 C   0  0  2  0  0  0  0  0  0  0  0  0
    7.7893  -13.1956   27.0567 C   0  0  0  0  0  0  0  0  0  0  0  0
    7.9764  -14.4459   24.9462 C   0  0  2  0  0  0  0  0  0  0  0  0
    7.3411  -14.6951   23.6674 N   0  0  0  0  0  0  0  0  0  0  0  0
    8.4123  -15.6768   25.5943 C   0  0  0  0  0  0  0  0  0  0  0  0
    7.5330  -16.5093   25.9356 O   0  0  0  0  0  0  0  0  0  0  0  0
   11.4088  -17.6314   24.4348 O   0  0  0  0  0  0  0  0  0  0  0  0
   11.5430  -17.5752   25.8042 C   0  0  0  0  0  0  0  0  0  0  0  0
   10.2297  -17.1904   26.5019 C   0  0  2  0  0  0  0  0  0  0  0  0
    9.7565  -15.9883   25.8601 N   0  0  0  0  0  0  0  0  0  0  0  0
   10.4614  -17.0292   27.9458 C   0  0  0  0  0  0  0  0  0  0  0  0
   10.8630  -18.1103   28.6934 O   0  0  0  0  0  0  0  0  0  0  0  0
   10.2956  -15.9227   28.4887 O   0  0  0  0  0  0  0  0  0  0  0  0
  2  1  1  6
  3  2  1  0
  4  3  1  0
  5  4  1  0
  6  5  2  0
  7  2  1  0
  7  8  2  0
  9  5  1  0
 10 11  1  0
 11 12  1  0
 12 13  1  1
 14 12  1  0
 14 15  1  6
 15  7  1  0
 16 14  1  0
 17 16  2  0
 19 18  1  0
 20 19  1  6
 20 22  1  0
 20 21  1  0
 21 16  1  0
 22 23  1  0
 24 22  2  0
M  END
$$$$
