EIS.pdb
     RDKit          3D

 24 23  0  0  1  0  0  0  0  0999 V2000
    8.3482  -14.2047   20.5780 N   0  0  0  0  0  0  0  0  0  0  0  0
    8.0170  -15.2898   21.4986 C   0  0  1  0  0  0  0  0  0  0  0  0
    8.4549  -16.5855   20.8773 C   0  0  0  0  0  0  0  0  0  0  0  0
    7.3104  -17.5725   20.9802 C   0  0  0  0  0  0  0  0  0  0  0  0
    7.7814  -18.9503   20.7630 C   0  0  0  0  0  0  0  0  0  0  0  0
    8.3732  -19.6436   21.6393 O   0  0  0  0  0  0  0  0  0  0  0  0
    8.5996  -15.0555   22.8330 C   0  0  0  0  0  0  0  0  0  0  0  0
    9.8368  -14.9668   22.9547 O   0  0  0  0  0  0  0  0  0  0  0  0
    7.5778  -19.5504   19.5329 O   0  0  0  0  0  0  0  0  0  0  0  0
    6.2096  -11.5869   26.0014 C   0  0  0  0  0  0  0  0  0  0  0  0
    7.2143  -12.4674   25.2697 C   0  0  0  0  0  0  0  0  0  0  0  0
    7.3561  -13.7798   26.0130 C   0  0  2  0  0  0  0  0  0  0  0  0
    7.8939  -13.4640   27.3934 C   0  0  0  0  0  0  0  0  0  0  0  0
    8.2738  -14.7091   25.3057 C   0  0  2  0  0  0  0  0  0  0  0  0
    7.7770  -14.9320   23.9624 N   0  0  0  0  0  0  0  0  0  0  0  0
    8.5804  -15.9569   25.9942 C   0  0  0  0  0  0  0  0  0  0  0  0
    7.6260  -16.7257   26.2787 O   0  0  0  0  0  0  0  0  0  0  0  0
   12.3711  -17.4525   25.9386 O   0  0  0  0  0  0  0  0  0  0  0  0
   11.2946  -18.2707   26.1992 C   0  0  0  0  0  0  0  0  0  0  0  0
   10.2241  -17.5702   27.0492 C   0  0  2  0  0  0  0  0  0  0  0  0
    9.8787  -16.3517   26.3587 N   0  0  0  0  0  0  0  0  0  0  0  0
   10.7369  -17.3452   28.4097 C   0  0  0  0  0  0  0  0  0  0  0  0
   11.0321  -18.4227   29.2104 O   0  0  0  0  0  0  0  0  0  0  0  0
   10.9031  -16.1884   28.8349 O   0  0  0  0  0  0  0  0  0  0  0  0
  2  1  1  6
  3  2  1  0
  4  3  1  0
  5  4  1  0
  6  5  2  0
  7  2  1  0
  7  8  2  0
  9  5  1  0
 10 11  1  0
 11 12  1  0
 12 13  1  1
 14 12  1  0
 14 15  1  6
 15  7  1  0
 16 14  1  0
 17 16  2  0
 19 18  1  0
 20 19  1  6
 20 22  1  0
 20 21  1  0
 21 16  1  0
 22 23  1  0
 24 22  2  0
M  END
$$$$
