EIS.pdb
     RDKit          3D

 24 23  0  0  1  0  0  0  0  0999 V2000
   11.0372  -16.6543   15.9273 N   0  0  0  0  0  0  0  0  0  0  0  0
    9.9918  -16.9958   16.8890 C   0  0  1  0  0  0  0  0  0  0  0  0
    9.8946  -18.4929   16.9681 C   0  0  0  0  0  0  0  0  0  0  0  0
   11.0185  -18.9959   17.8503 C   0  0  0  0  0  0  0  0  0  0  0  0
   10.9870  -20.4638   17.9585 C   0  0  0  0  0  0  0  0  0  0  0  0
   10.9632  -21.0936   19.0547 O   0  0  0  0  0  0  0  0  0  0  0  0
   10.2372  -16.3566   18.1951 C   0  0  0  0  0  0  0  0  0  0  0  0
   11.4067  -16.2374   18.6092 O   0  0  0  0  0  0  0  0  0  0  0  0
   10.9825  -21.2287   16.8053 O   0  0  0  0  0  0  0  0  0  0  0  0
    7.0240  -12.2157   19.6474 C   0  0  0  0  0  0  0  0  0  0  0  0
    8.2502  -13.0971   19.4482 C   0  0  0  0  0  0  0  0  0  0  0  0
    8.1909  -14.2554   20.4226 C   0  0  2  0  0  0  0  0  0  0  0  0
    8.2168  -13.6742   21.8210 C   0  0  0  0  0  0  0  0  0  0  0  0
    9.3337  -15.1849   20.2327 C   0  0  2  0  0  0  0  0  0  0  0  0
    9.1703  -15.8832   18.9730 N   0  0  0  0  0  0  0  0  0  0  0  0
    9.6106  -16.0963   21.3363 C   0  0  0  0  0  0  0  0  0  0  0  0
    8.8837  -17.1159   21.4583 O   0  0  0  0  0  0  0  0  0  0  0  0
   13.2371  -16.9067   22.8100 O   0  0  0  0  0  0  0  0  0  0  0  0
   12.3710  -16.5112   23.8050 C   0  0  0  0  0  0  0  0  0  0  0  0
   10.9012  -16.7366   23.4200 C   0  0  2  0  0  0  0  0  0  0  0  0
   10.6413  -15.9033   22.2715 N   0  0  0  0  0  0  0  0  0  0  0  0
   10.0333  -16.4347   24.5690 C   0  0  0  0  0  0  0  0  0  0  0  0
   10.0449  -17.2647   25.6645 O   0  0  0  0  0  0  0  0  0  0  0  0
    9.2932  -15.4355   24.5515 O   0  0  0  0  0  0  0  0  0  0  0  0
  2  1  1  6
  3  2  1  0
  4  3  1  0
  5  4  1  0
  6  5  2  0
  7  2  1  0
  7  8  2  0
  9  5  1  0
 10 11  1  0
 11 12  1  0
 12 13  1  1
 14 12  1  0
 14 15  1  6
 15  7  1  0
 16 14  1  0
 17 16  2  0
 19 18  1  0
 20 19  1  1
 20 22  1  0
 20 21  1  0
 21 16  1  0
 22 23  1  0
 24 22  2  0
M  END
$$$$
