EIS.pdb
     RDKit          3D

 24 23  0  0  1  0  0  0  0  0999 V2000
    7.5874  -16.8028   22.1657 N   0  0  0  0  0  0  0  0  0  0  0  0
    9.0408  -16.8491   22.3077 C   0  0  1  0  0  0  0  0  0  0  0  0
    9.6557  -16.4133   21.0081 C   0  0  0  0  0  0  0  0  0  0  0  0
    9.2002  -17.3676   19.9235 C   0  0  0  0  0  0  0  0  0  0  0  0
    9.7614  -16.9868   18.6167 C   0  0  0  0  0  0  0  0  0  0  0  0
    9.1012  -16.4185   17.7002 O   0  0  0  0  0  0  0  0  0  0  0  0
    9.4909  -16.0514   23.4634 C   0  0  0  0  0  0  0  0  0  0  0  0
   10.7017  -15.7839   23.5895 O   0  0  0  0  0  0  0  0  0  0  0  0
   11.0916  -17.2550   18.3459 O   0  0  0  0  0  0  0  0  0  0  0  0
    6.3291  -12.2286   25.3774 C   0  0  0  0  0  0  0  0  0  0  0  0
    7.5466  -13.0484   24.9706 C   0  0  0  0  0  0  0  0  0  0  0  0
    7.8819  -14.0217   26.0820 C   0  0  2  0  0  0  0  0  0  0  0  0
    8.3355  -13.2083   27.2765 C   0  0  0  0  0  0  0  0  0  0  0  0
    8.9498  -14.9689   25.6717 C   0  0  2  0  0  0  0  0  0  0  0  0
    8.5721  -15.5925   24.4188 N   0  0  0  0  0  0  0  0  0  0  0  0
    9.3606  -15.9464   26.6722 C   0  0  0  0  0  0  0  0  0  0  0  0
    8.4914  -16.7409   27.1149 O   0  0  0  0  0  0  0  0  0  0  0  0
   13.0985  -18.2749   28.6978 O   0  0  0  0  0  0  0  0  0  0  0  0
   12.5473  -17.3959   27.7923 C   0  0  0  0  0  0  0  0  0  0  0  0
   11.1140  -16.9937   28.1709 C   0  0  2  0  0  0  0  0  0  0  0  0
   10.6698  -16.0536   27.1710 N   0  0  0  0  0  0  0  0  0  0  0  0
   11.0944  -16.4466   29.5365 C   0  0  0  0  0  0  0  0  0  0  0  0
   11.0476  -15.0855   29.7215 O   0  0  0  0  0  0  0  0  0  0  0  0
   11.1201  -17.2088   30.5187 O   0  0  0  0  0  0  0  0  0  0  0  0
  2  1  1  6
  3  2  1  0
  4  3  1  0
  5  4  1  0
  6  5  2  0
  7  2  1  0
  7  8  2  0
  9  5  1  0
 10 11  1  0
 11 12  1  0
 12 13  1  1
 14 12  1  0
 14 15  1  6
 15  7  1  0
 16 14  1  0
 17 16  2  0
 19 18  1  0
 20 19  1  6
 20 22  1  0
 20 21  1  0
 21 16  1  0
 22 23  1  0
 24 22  2  0
M  END
$$$$
