FSD.pdb
     RDKit          3D

 26 26  0  0  1  0  0  0  0  0999 V2000
   23.8361   -9.8274  -18.0914 N   0  0  0  0  0  0  0  0  0  0  0  0
   23.3852   -9.1713  -16.8629 C   0  0  1  0  0  0  0  0  0  0  0  0
   24.5112   -8.3888  -16.2696 C   0  0  0  0  0  0  0  0  0  0  0  0
   25.7163   -9.1572  -15.9574 C   0  0  0  0  0  0  0  0  0  0  0  0
   25.7408  -10.1499  -14.9753 C   0  0  0  0  0  0  0  0  0  0  0  0
   26.9091  -10.8414  -14.7361 C   0  0  0  0  0  0  0  0  0  0  0  0
   28.0473  -10.5788  -15.4382 C   0  0  0  0  0  0  0  0  0  0  0  0
   28.0555   -9.6141  -16.4050 C   0  0  0  0  0  0  0  0  0  0  0  0
   26.8798   -8.9060  -16.6582 C   0  0  0  0  0  0  0  0  0  0  0  0
   22.2383   -8.3098  -17.2288 C   0  0  0  0  0  0  0  0  0  0  0  0
   22.3812   -7.4663  -18.1399 O   0  0  0  0  0  0  0  0  0  0  0  0
   18.5790   -8.8166  -15.4500 O   0  0  0  0  0  0  0  0  0  0  0  0
   18.5932   -8.4266  -16.8032 C   0  0  0  0  0  0  0  0  0  0  0  0
   19.8263   -7.6084  -17.0157 C   0  0  2  0  0  0  0  0  0  0  0  0
   20.9698   -8.3927  -16.5915 N   0  0  0  0  0  0  0  0  0  0  0  0
   19.7877   -6.2871  -16.3673 C   0  0  0  0  0  0  0  0  0  0  0  0
   20.2770   -6.1832  -15.2123 O   0  0  0  0  0  0  0  0  0  0  0  0
   19.2372   -5.1260  -16.9567 N   0  0  0  0  0  0  0  0  0  0  0  0
   19.1443   -3.8525  -16.2858 C   0  0  1  0  0  0  0  0  0  0  0  0
   19.2846   -2.6823  -17.2017 C   0  0  0  0  0  0  0  0  0  0  0  0
   19.0739   -1.3834  -16.5739 C   0  0  0  0  0  0  0  0  0  0  0  0
   19.8666   -0.9620  -15.7017 O   0  0  0  0  0  0  0  0  0  0  0  0
   17.9419   -3.7475  -15.4508 C   0  0  0  0  0  0  0  0  0  0  0  0
   16.8829   -4.2974  -15.8468 O   0  0  0  0  0  0  0  0  0  0  0  0
   17.9985   -0.5858  -16.9229 O   0  0  0  0  0  0  0  0  0  0  0  0
   17.9015   -3.0724  -14.2400 O   0  0  0  0  0  0  0  0  0  0  0  0
  2  1  1  6
  3  2  1  0
  4  9  2  0
  4  3  1  0
  5  4  1  0
  6  7  1  0
  6  5  2  0
  7  8  2  0
  8  9  1  0
 10  2  1  0
 10 11  2  0
 13 12  1  0
 14 15  1  0
 14 13  1  1
 15 10  1  0
 16 14  1  0
 17 16  2  0
 18 16  1  0
 19 23  1  0
 19 18  1  0
 19 20  1  6
 20 21  1  0
 21 22  2  0
 23 26  1  0
 24 23  2  0
 25 21  1  0
M  END
$$$$
