FSD.pdb
     RDKit          3D

 26 26  0  0  1  0  0  0  0  0999 V2000
   22.2706  -13.2969  -18.5639 N   0  0  0  0  0  0  0  0  0  0  0  0
   21.2159  -12.3074  -18.7912 C   0  0  1  0  0  0  0  0  0  0  0  0
   20.0117  -12.6627  -17.9814 C   0  0  0  0  0  0  0  0  0  0  0  0
   19.2855  -13.8537  -18.4217 C   0  0  0  0  0  0  0  0  0  0  0  0
   18.5896  -13.9049  -19.6316 C   0  0  0  0  0  0  0  0  0  0  0  0
   17.9315  -15.0621  -19.9894 C   0  0  0  0  0  0  0  0  0  0  0  0
   17.9431  -16.1638  -19.1873 C   0  0  0  0  0  0  0  0  0  0  0  0
   18.6146  -16.1454  -17.9980 C   0  0  0  0  0  0  0  0  0  0  0  0
   19.2855  -14.9806  -17.6228 C   0  0  0  0  0  0  0  0  0  0  0  0
   21.7724  -10.9882  -18.4154 C   0  0  0  0  0  0  0  0  0  0  0  0
   22.5015  -10.9047  -17.4037 O   0  0  0  0  0  0  0  0  0  0  0  0
   20.5824   -7.3638  -20.1147 O   0  0  0  0  0  0  0  0  0  0  0  0
   21.9639   -7.6182  -20.0126 C   0  0  0  0  0  0  0  0  0  0  0  0
   22.1608   -8.5353  -18.8485 C   0  0  2  0  0  0  0  0  0  0  0  0
   21.5183   -9.7992  -19.1528 N   0  0  0  0  0  0  0  0  0  0  0  0
   21.7084   -7.9775  -17.5632 C   0  0  0  0  0  0  0  0  0  0  0  0
   20.5810   -8.3332  -17.1309 O   0  0  0  0  0  0  0  0  0  0  0  0
   22.4571   -7.0683  -16.7814 N   0  0  0  0  0  0  0  0  0  0  0  0
   21.9988   -6.5213  -15.5279 C   0  0  1  0  0  0  0  0  0  0  0  0
   23.0818   -5.8846  -14.7216 C   0  0  0  0  0  0  0  0  0  0  0  0
   22.6491   -5.3254  -13.4466 C   0  0  0  0  0  0  0  0  0  0  0  0
   22.3857   -6.0751  -12.4794 O   0  0  0  0  0  0  0  0  0  0  0  0
   20.8489   -5.6251  -15.6966 C   0  0  0  0  0  0  0  0  0  0  0  0
   20.1144   -5.3931  -14.7028 O   0  0  0  0  0  0  0  0  0  0  0  0
   22.5184   -3.9591  -13.2716 O   0  0  0  0  0  0  0  0  0  0  0  0
   20.5193   -5.0124  -16.8963 O   0  0  0  0  0  0  0  0  0  0  0  0
  2  1  1  1
  3  2  1  0
  4  9  2  0
  4  3  1  0
  5  4  1  0
  6  7  1  0
  6  5  2  0
  7  8  2  0
  8  9  1  0
 10  2  1  0
 10 11  2  0
 13 12  1  0
 14 15  1  0
 14 13  1  6
 15 10  1  0
 16 14  1  0
 17 16  2  0
 18 16  1  0
 19 23  1  0
 19 18  1  0
 19 20  1  6
 20 21  1  0
 21 22  2  0
 23 26  1  0
 24 23  2  0
 25 21  1  0
M  END
$$$$
