FSD.pdb
     RDKit          3D

 26 26  0  0  1  0  0  0  0  0999 V2000
   18.0226  -12.4502  -15.7234 N   0  0  0  0  0  0  0  0  0  0  0  0
   18.4980  -11.2647  -16.4388 C   0  0  1  0  0  0  0  0  0  0  0  0
   17.3559  -10.6179  -17.1526 C   0  0  0  0  0  0  0  0  0  0  0  0
   16.7849  -11.3894  -18.2564 C   0  0  0  0  0  0  0  0  0  0  0  0
   17.5118  -11.7069  -19.4061 C   0  0  0  0  0  0  0  0  0  0  0  0
   16.9147  -12.4436  -20.4066 C   0  0  0  0  0  0  0  0  0  0  0  0
   15.6253  -12.8723  -20.3012 C   0  0  0  0  0  0  0  0  0  0  0  0
   14.8882  -12.5783  -19.1895 C   0  0  0  0  0  0  0  0  0  0  0  0
   15.4798  -11.8332  -18.1684 C   0  0  0  0  0  0  0  0  0  0  0  0
   19.1074  -10.3672  -15.4316 C   0  0  0  0  0  0  0  0  0  0  0  0
   18.4025   -9.9492  -14.4879 O   0  0  0  0  0  0  0  0  0  0  0  0
   23.1236   -9.5290  -15.4577 O   0  0  0  0  0  0  0  0  0  0  0  0
   22.4382   -9.4657  -14.2289 C   0  0  0  0  0  0  0  0  0  0  0  0
   21.0398   -9.0267  -14.5237 C   0  0  2  0  0  0  0  0  0  0  0  0
   20.4664   -9.9518  -15.4820 N   0  0  0  0  0  0  0  0  0  0  0  0
   20.9324   -7.6277  -14.9696 C   0  0  0  0  0  0  0  0  0  0  0  0
   21.0156   -7.3946  -16.2037 O   0  0  0  0  0  0  0  0  0  0  0  0
   20.7417   -6.5275  -14.1026 N   0  0  0  0  0  0  0  0  0  0  0  0
   20.6976   -5.1554  -14.5452 C   0  0  1  0  0  0  0  0  0  0  0  0
   19.6538   -4.3387  -13.8584 C   0  0  0  0  0  0  0  0  0  0  0  0
   19.5895   -2.9447  -14.2809 C   0  0  0  0  0  0  0  0  0  0  0  0
   20.3054   -2.5308  -15.2205 O   0  0  0  0  0  0  0  0  0  0  0  0
   22.0142   -4.5090  -14.4932 C   0  0  0  0  0  0  0  0  0  0  0  0
   22.1702   -3.4103  -15.0841 O   0  0  0  0  0  0  0  0  0  0  0  0
   18.7405   -2.0467  -13.6586 O   0  0  0  0  0  0  0  0  0  0  0  0
   23.1076   -5.0409  -13.8261 O   0  0  0  0  0  0  0  0  0  0  0  0
  2  1  1  1
  3  2  1  0
  4  9  2  0
  4  3  1  0
  5  4  1  0
  6  7  1  0
  6  5  2  0
  7  8  2  0
  8  9  1  0
 10  2  1  0
 10 11  2  0
 13 12  1  0
 14 15  1  0
 14 13  1  6
 15 10  1  0
 16 14  1  0
 17 16  2  0
 18 16  1  0
 19 23  1  0
 19 18  1  0
 19 20  1  1
 20 21  1  0
 21 22  2  0
 23 26  1  0
 24 23  2  0
 25 21  1  0
M  END
$$$$
