FSD.pdb
     RDKit          3D

 26 26  0  0  1  0  0  0  0  0999 V2000
   27.2143   -9.8756  -15.3495 N   0  0  0  0  0  0  0  0  0  0  0  0
   25.9887  -10.2598  -16.0519 C   0  0  1  0  0  0  0  0  0  0  0  0
   25.6253  -11.6644  -15.6954 C   0  0  0  0  0  0  0  0  0  0  0  0
   26.5574  -12.6928  -16.1574 C   0  0  0  0  0  0  0  0  0  0  0  0
   27.0956  -12.6944  -17.4463 C   0  0  0  0  0  0  0  0  0  0  0  0
   27.9745  -13.6903  -17.8151 C   0  0  0  0  0  0  0  0  0  0  0  0
   28.3334  -14.6790  -16.9484 C   0  0  0  0  0  0  0  0  0  0  0  0
   27.8245  -14.7050  -15.6811 C   0  0  0  0  0  0  0  0  0  0  0  0
   26.9335  -13.7030  -15.2937 C   0  0  0  0  0  0  0  0  0  0  0  0
   24.9407   -9.2933  -15.6530 C   0  0  0  0  0  0  0  0  0  0  0  0
   24.7268   -9.1000  -14.4369 O   0  0  0  0  0  0  0  0  0  0  0  0
   24.1184   -6.2523  -17.8710 O   0  0  0  0  0  0  0  0  0  0  0  0
   23.7133   -6.2224  -16.5224 C   0  0  0  0  0  0  0  0  0  0  0  0
   23.1744   -7.5771  -16.1915 C   0  0  2  0  0  0  0  0  0  0  0  0
   24.1570   -8.5661  -16.5906 N   0  0  0  0  0  0  0  0  0  0  0  0
   21.8465   -7.8503  -16.7656 C   0  0  0  0  0  0  0  0  0  0  0  0
   21.7931   -8.4902  -17.8482 O   0  0  0  0  0  0  0  0  0  0  0  0
   20.6261   -7.4412  -16.1810 N   0  0  0  0  0  0  0  0  0  0  0  0
   19.3321   -7.6913  -16.7671 C   0  0  1  0  0  0  0  0  0  0  0  0
   18.2448   -7.8730  -15.7607 C   0  0  0  0  0  0  0  0  0  0  0  0
   18.4318   -8.9978  -14.8521 C   0  0  0  0  0  0  0  0  0  0  0  0
   18.5969  -10.1556  -15.2983 O   0  0  0  0  0  0  0  0  0  0  0  0
   18.9741   -6.6900  -17.7786 C   0  0  0  0  0  0  0  0  0  0  0  0
   19.7142   -5.6833  -17.9188 O   0  0  0  0  0  0  0  0  0  0  0  0
   18.4319   -8.8175  -13.4803 O   0  0  0  0  0  0  0  0  0  0  0  0
   17.8589   -6.7867  -18.5973 O   0  0  0  0  0  0  0  0  0  0  0  0
  2  1  1  1
  3  2  1  0
  4  9  2  0
  4  3  1  0
  5  4  1  0
  6  7  1  0
  6  5  2  0
  7  8  2  0
  8  9  1  0
 10  2  1  0
 10 11  2  0
 13 12  1  0
 14 15  1  0
 14 13  1  6
 15 10  1  0
 16 14  1  0
 17 16  2  0
 18 16  1  0
 19 23  1  0
 19 18  1  0
 19 20  1  1
 20 21  1  0
 21 22  2  0
 23 26  1  0
 24 23  2  0
 25 21  1  0
M  END
$$$$
