FSD.pdb
     RDKit          3D

 26 26  0  0  1  0  0  0  0  0999 V2000
   28.8063  -21.3960   -9.2993 N   0  0  0  0  0  0  0  0  0  0  0  0
   27.4150  -20.9516   -9.2009 C   0  0  1  0  0  0  0  0  0  0  0  0
   27.3483  -19.6810   -8.4178 C   0  0  0  0  0  0  0  0  0  0  0  0
   27.7834  -19.7764   -7.0244 C   0  0  0  0  0  0  0  0  0  0  0  0
   28.9662  -19.1926   -6.5651 C   0  0  0  0  0  0  0  0  0  0  0  0
   29.3140  -19.3149   -5.2368 C   0  0  0  0  0  0  0  0  0  0  0  0
   28.5279  -19.9953   -4.3556 C   0  0  0  0  0  0  0  0  0  0  0  0
   27.3652  -20.5773   -4.7739 C   0  0  0  0  0  0  0  0  0  0  0  0
   27.0003  -20.4615   -6.1160 C   0  0  0  0  0  0  0  0  0  0  0  0
   26.9164  -20.7818  -10.5844 C   0  0  0  0  0  0  0  0  0  0  0  0
   27.7122  -20.4092  -11.4732 O   0  0  0  0  0  0  0  0  0  0  0  0
   24.9733  -23.1772  -12.5559 O   0  0  0  0  0  0  0  0  0  0  0  0
   25.5483  -22.0242  -13.1247 C   0  0  0  0  0  0  0  0  0  0  0  0
   25.0865  -20.8541  -12.3168 C   0  0  2  0  0  0  0  0  0  0  0  0
   25.5659  -21.0229  -10.9587 N   0  0  0  0  0  0  0  0  0  0  0  0
   23.6327  -20.6268  -12.3684 C   0  0  0  0  0  0  0  0  0  0  0  0
   22.9785  -20.7532  -11.3006 O   0  0  0  0  0  0  0  0  0  0  0  0
   22.9222  -20.2754  -13.5389 N   0  0  0  0  0  0  0  0  0  0  0  0
   21.4916  -20.0977  -13.5862 C   0  0  1  0  0  0  0  0  0  0  0  0
   21.0155  -19.4038  -14.8191 C   0  0  0  0  0  0  0  0  0  0  0  0
   21.1070  -17.9493  -14.7783 C   0  0  0  0  0  0  0  0  0  0  0  0
   21.1418  -17.3442  -13.6830 O   0  0  0  0  0  0  0  0  0  0  0  0
   20.7650  -21.3515  -13.3537 C   0  0  0  0  0  0  0  0  0  0  0  0
   21.2061  -22.4089  -13.8715 O   0  0  0  0  0  0  0  0  0  0  0  0
   21.1575  -17.2023  -15.9419 O   0  0  0  0  0  0  0  0  0  0  0  0
   19.6105  -21.4426  -12.5907 O   0  0  0  0  0  0  0  0  0  0  0  0
  2  1  1  6
  3  2  1  0
  4  9  2  0
  4  3  1  0
  5  4  1  0
  6  7  1  0
  6  5  2  0
  7  8  2  0
  8  9  1  0
 10  2  1  0
 10 11  2  0
 13 12  1  0
 14 15  1  0
 14 13  1  6
 15 10  1  0
 16 14  1  0
 17 16  2  0
 18 16  1  0
 19 23  1  0
 19 18  1  0
 19 20  1  6
 20 21  1  0
 21 22  2  0
 23 26  1  0
 24 23  2  0
 25 21  1  0
M  END
$$$$
