FSD.pdb
     RDKit          3D

 26 26  0  0  1  0  0  0  0  0999 V2000
   22.6313  -17.0394  -16.4948 N   0  0  0  0  0  0  0  0  0  0  0  0
   22.7540  -15.7467  -17.1707 C   0  0  1  0  0  0  0  0  0  0  0  0
   21.7596  -15.6656  -18.2828 C   0  0  0  0  0  0  0  0  0  0  0  0
   21.9624  -16.6125  -19.3793 C   0  0  0  0  0  0  0  0  0  0  0  0
   21.0600  -17.6409  -19.6603 C   0  0  0  0  0  0  0  0  0  0  0  0
   21.3085  -18.4948  -20.7136 C   0  0  0  0  0  0  0  0  0  0  0  0
   22.4191  -18.3598  -21.4919 C   0  0  0  0  0  0  0  0  0  0  0  0
   23.3203  -17.3642  -21.2427 C   0  0  0  0  0  0  0  0  0  0  0  0
   23.0817  -16.4920  -20.1796 C   0  0  0  0  0  0  0  0  0  0  0  0
   22.5333  -14.7006  -16.1468 C   0  0  0  0  0  0  0  0  0  0  0  0
   21.6004  -14.8430  -15.3273 O   0  0  0  0  0  0  0  0  0  0  0  0
   25.3469  -11.8601  -15.3603 O   0  0  0  0  0  0  0  0  0  0  0  0
   24.4454  -12.2632  -14.3561 C   0  0  0  0  0  0  0  0  0  0  0  0
   23.1318  -12.5267  -15.0195 C   0  0  2  0  0  0  0  0  0  0  0  0
   23.3352  -13.5307  -16.0459 N   0  0  0  0  0  0  0  0  0  0  0  0
   22.4739  -11.3194  -15.5462 C   0  0  0  0  0  0  0  0  0  0  0  0
   22.6856  -11.0097  -16.7476 O   0  0  0  0  0  0  0  0  0  0  0  0
   21.6190  -10.4842  -14.7911 N   0  0  0  0  0  0  0  0  0  0  0  0
   21.0586   -9.2512  -15.2873 C   0  0  1  0  0  0  0  0  0  0  0  0
   19.5716   -9.1827  -15.1764 C   0  0  0  0  0  0  0  0  0  0  0  0
   18.9782   -7.9369  -15.6472 C   0  0  0  0  0  0  0  0  0  0  0  0
   18.9690   -7.6575  -16.8673 O   0  0  0  0  0  0  0  0  0  0  0  0
   21.7019   -8.0694  -14.7011 C   0  0  0  0  0  0  0  0  0  0  0  0
   21.4131   -6.9354  -15.1608 O   0  0  0  0  0  0  0  0  0  0  0  0
   18.4124   -7.0349  -14.7637 O   0  0  0  0  0  0  0  0  0  0  0  0
   22.6178   -8.1271  -13.6613 O   0  0  0  0  0  0  0  0  0  0  0  0
  2  1  1  1
  3  2  1  0
  4  9  2  0
  4  3  1  0
  5  4  1  0
  6  7  1  0
  6  5  2  0
  7  8  2  0
  8  9  1  0
 10  2  1  0
 10 11  2  0
 13 12  1  0
 14 15  1  0
 14 13  1  6
 15 10  1  0
 16 14  1  0
 17 16  2  0
 18 16  1  0
 19 23  1  0
 19 18  1  0
 19 20  1  1
 20 21  1  0
 21 22  2  0
 23 26  1  0
 24 23  2  0
 25 21  1  0
M  END
$$$$
