FSD.pdb
     RDKit          3D

 26 26  0  0  1  0  0  0  0  0999 V2000
   28.8753   -9.5277  -19.4993 N   0  0  0  0  0  0  0  0  0  0  0  0
   27.8446  -10.0815  -18.6195 C   0  0  1  0  0  0  0  0  0  0  0  0
   28.4289  -10.3540  -17.2717 C   0  0  0  0  0  0  0  0  0  0  0  0
   29.3522  -11.4865  -17.2027 C   0  0  0  0  0  0  0  0  0  0  0  0
   28.9132  -12.8104  -17.1314 C   0  0  0  0  0  0  0  0  0  0  0  0
   29.8376  -13.8315  -17.0755 C   0  0  0  0  0  0  0  0  0  0  0  0
   31.1769  -13.5798  -17.0882 C   0  0  0  0  0  0  0  0  0  0  0  0
   31.6378  -12.2959  -17.1574 C   0  0  0  0  0  0  0  0  0  0  0  0
   30.7134  -11.2519  -17.2146 C   0  0  0  0  0  0  0  0  0  0  0  0
   26.7467   -9.0903  -18.5623 C   0  0  0  0  0  0  0  0  0  0  0  0
   27.0196   -7.8990  -18.3006 O   0  0  0  0  0  0  0  0  0  0  0  0
   22.3280   -7.8884  -19.9344 O   0  0  0  0  0  0  0  0  0  0  0  0
   23.3240   -8.8818  -19.8664 C   0  0  0  0  0  0  0  0  0  0  0  0
   24.3316   -8.4307  -18.8582 C   0  0  2  0  0  0  0  0  0  0  0  0
   25.3841   -9.4261  -18.7919 N   0  0  0  0  0  0  0  0  0  0  0  0
   23.7622   -8.1354  -17.5329 C   0  0  0  0  0  0  0  0  0  0  0  0
   23.7355   -9.0635  -16.6831 O   0  0  0  0  0  0  0  0  0  0  0  0
   23.2431   -6.8771  -17.1511 N   0  0  0  0  0  0  0  0  0  0  0  0
   22.6093   -6.6227  -15.8807 C   0  0  1  0  0  0  0  0  0  0  0  0
   22.7570   -5.2139  -15.4101 C   0  0  0  0  0  0  0  0  0  0  0  0
   22.0654   -4.9079  -14.1636 C   0  0  0  0  0  0  0  0  0  0  0  0
   20.8665   -4.5484  -14.1727 O   0  0  0  0  0  0  0  0  0  0  0  0
   21.2081   -7.0588  -15.8581 C   0  0  0  0  0  0  0  0  0  0  0  0
   20.5104   -6.8994  -16.8919 O   0  0  0  0  0  0  0  0  0  0  0  0
   22.7114   -5.0058  -12.9439 O   0  0  0  0  0  0  0  0  0  0  0  0
   20.6003   -7.6414  -14.7561 O   0  0  0  0  0  0  0  0  0  0  0  0
  2  1  1  6
  3  2  1  0
  4  9  2  0
  4  3  1  0
  5  4  1  0
  6  7  1  0
  6  5  2  0
  7  8  2  0
  8  9  1  0
 10  2  1  0
 10 11  2  0
 13 12  1  0
 14 15  1  0
 14 13  1  6
 15 10  1  0
 16 14  1  0
 17 16  2  0
 18 16  1  0
 19 23  1  0
 19 18  1  0
 19 20  1  6
 20 21  1  0
 21 22  2  0
 23 26  1  0
 24 23  2  0
 25 21  1  0
M  END
$$$$
