FSD.pdb
     RDKit          3D

 26 26  0  0  1  0  0  0  0  0999 V2000
   27.5248  -21.0630  -15.8538 N   0  0  0  0  0  0  0  0  0  0  0  0
   27.0114  -20.1053  -14.8727 C   0  0  1  0  0  0  0  0  0  0  0  0
   26.4070  -18.9369  -15.5809 C   0  0  0  0  0  0  0  0  0  0  0  0
   27.3283  -18.1542  -16.4046 C   0  0  0  0  0  0  0  0  0  0  0  0
   27.4704  -18.3630  -17.7783 C   0  0  0  0  0  0  0  0  0  0  0  0
   28.3526  -17.5848  -18.4969 C   0  0  0  0  0  0  0  0  0  0  0  0
   29.0937  -16.6111  -17.8969 C   0  0  0  0  0  0  0  0  0  0  0  0
   28.9773  -16.3823  -16.5554 C   0  0  0  0  0  0  0  0  0  0  0  0
   28.0880  -17.1626  -15.8150 C   0  0  0  0  0  0  0  0  0  0  0  0
   26.0222  -20.8269  -14.0408 C   0  0  0  0  0  0  0  0  0  0  0  0
   25.2964  -21.6918  -14.5767 O   0  0  0  0  0  0  0  0  0  0  0  0
   25.0716  -19.6807  -10.1130 O   0  0  0  0  0  0  0  0  0  0  0  0
   25.1370  -21.0532  -10.4220 C   0  0  0  0  0  0  0  0  0  0  0  0
   24.7950  -21.1981  -11.8702 C   0  0  2  0  0  0  0  0  0  0  0  0
   25.8529  -20.5850  -12.6497 N   0  0  0  0  0  0  0  0  0  0  0  0
   23.4665  -20.6736  -12.2274 C   0  0  0  0  0  0  0  0  0  0  0  0
   23.3796  -19.4603  -12.5509 O   0  0  0  0  0  0  0  0  0  0  0  0
   22.2806  -21.4432  -12.2314 N   0  0  0  0  0  0  0  0  0  0  0  0
   20.9773  -20.9072  -12.5387 C   0  0  1  0  0  0  0  0  0  0  0  0
   20.1370  -21.8181  -13.3707 C   0  0  0  0  0  0  0  0  0  0  0  0
   20.6522  -22.0748  -14.7103 C   0  0  0  0  0  0  0  0  0  0  0  0
   20.6319  -23.2311  -15.1892 O   0  0  0  0  0  0  0  0  0  0  0  0
   20.2629  -20.4535  -11.3396 C   0  0  0  0  0  0  0  0  0  0  0  0
   19.1734  -19.8424  -11.4820 O   0  0  0  0  0  0  0  0  0  0  0  0
   21.1745  -21.0536  -15.4842 O   0  0  0  0  0  0  0  0  0  0  0  0
   20.7202  -20.6591  -10.0466 O   0  0  0  0  0  0  0  0  0  0  0  0
  2  1  1  6
  3  2  1  0
  4  9  2  0
  4  3  1  0
  5  4  1  0
  6  7  1  0
  6  5  2  0
  7  8  2  0
  8  9  1  0
 10  2  1  0
 10 11  2  0
 13 12  1  0
 14 15  1  0
 14 13  1  1
 15 10  1  0
 16 14  1  0
 17 16  2  0
 18 16  1  0
 19 23  1  0
 19 18  1  0
 19 20  1  1
 20 21  1  0
 21 22  2  0
 23 26  1  0
 24 23  2  0
 25 21  1  0
M  END
$$$$
