GWW.pdb
     RDKit          3D

 33 36  0  0  1  0  0  0  0  0999 V2000
   12.5504  -17.6131   18.7536 N   0  0  0  0  0  0  0  0  0  0  0  0
   11.8855  -18.1654   19.8921 C   0  0  0  0  0  0  0  0  0  0  0  0
   11.3318  -17.1236   20.7961 C   0  0  0  0  0  0  0  0  0  0  0  0
   11.8408  -15.9751   20.8428 O   0  0  0  0  0  0  0  0  0  0  0  0
   10.2154  -17.3637   21.6433 N   0  0  0  0  0  0  0  0  0  0  0  0
    9.6240  -16.3709   22.5000 C   0  0  1  0  0  0  0  0  0  0  0  0
    8.1310  -16.4026   22.5882 C   0  0  0  0  0  0  0  0  0  0  0  0
    7.4083  -15.7422   21.5091 C   0  0  0  0  0  0  0  0  0  0  0  0
    6.2156  -16.1795   20.9650 C   0  0  0  0  0  0  0  0  0  0  0  0
    5.8163  -15.3116   20.0029 N   0  0  0  0  0  0  0  0  0  0  0  0
    6.7546  -14.3287   19.9385 C   0  0  0  0  0  0  0  0  0  0  0  0
    6.8391  -13.2133   19.1342 C   0  0  0  0  0  0  0  0  0  0  0  0
    7.9053  -12.3354   19.2357 C   0  0  0  0  0  0  0  0  0  0  0  0
    8.9099  -12.5715   20.1567 C   0  0  0  0  0  0  0  0  0  0  0  0
    8.7970  -13.6922   20.9443 C   0  0  0  0  0  0  0  0  0  0  0  0
    7.7500  -14.5784   20.8648 C   0  0  0  0  0  0  0  0  0  0  0  0
   10.1513  -16.6353   23.8882 C   0  0  0  0  0  0  0  0  0  0  0  0
   10.8175  -17.6787   24.0080 O   0  0  0  0  0  0  0  0  0  0  0  0
    9.9237  -15.7878   24.9826 N   0  0  0  0  0  0  0  0  0  0  0  0
   10.4192  -16.0217   26.3127 C   0  0  1  0  0  0  0  0  0  0  0  0
    9.8998  -15.0405   27.3569 C   0  0  0  0  0  0  0  0  0  0  0  0
    8.4503  -14.8522   27.1307 C   0  0  0  0  0  0  0  0  0  0  0  0
    7.4431  -15.7714   26.9455 C   0  0  0  0  0  0  0  0  0  0  0  0
    6.2788  -15.1238   26.7811 N   0  0  0  0  0  0  0  0  0  0  0  0
    6.4871  -13.8027   26.8525 C   0  0  0  0  0  0  0  0  0  0  0  0
    5.6200  -12.7234   26.7493 C   0  0  0  0  0  0  0  0  0  0  0  0
    6.0641  -11.4272   26.8591 C   0  0  0  0  0  0  0  0  0  0  0  0
    7.4043  -11.2037   27.0771 C   0  0  0  0  0  0  0  0  0  0  0  0
    8.2773  -12.2921   27.1809 C   0  0  0  0  0  0  0  0  0  0  0  0
    7.8323  -13.5916   27.0705 C   0  0  0  0  0  0  0  0  0  0  0  0
   10.1599  -17.3870   26.7731 C   0  0  0  0  0  0  0  0  0  0  0  0
   10.6897  -17.8082   27.8451 O   0  0  0  0  0  0  0  0  0  0  0  0
    9.3500  -18.2899   26.1041 O   0  0  0  0  0  0  0  0  0  0  0  0
  1  2  1  0
  2  3  1  0
  3  4  2  0
  5  3  1  0
  5  6  1  0
  6  7  1  1
  8  9  2  0
  8  7  1  0
 10  9  1  0
 11 16  2  0
 11 10  1  0
 12 11  1  0
 13 14  1  0
 13 12  2  0
 14 15  2  0
 15 16  1  0
 16  8  1  0
 17 18  2  0
 17  6  1  0
 19 17  1  0
 20 19  1  0
 20 21  1  1
 22 30  1  0
 22 21  1  0
 23 22  2  0
 24 23  1  0
 24 25  1  0
 25 26  1  0
 25 30  2  0
 26 27  2  0
 27 28  1  0
 29 28  2  0
 30 29  1  0
 31 20  1  0
 32 31  2  0
 33 31  1  0
M  END
$$$$
