GWW.pdb
     RDKit          3D

 33 36  0  0  1  0  0  0  0  0999 V2000
    7.8975  -16.5349   18.0783 N   0  0  0  0  0  0  0  0  0  0  0  0
    8.4207  -17.3885   19.0985 C   0  0  0  0  0  0  0  0  0  0  0  0
    8.8131  -16.6457   20.3246 C   0  0  0  0  0  0  0  0  0  0  0  0
    9.4075  -15.5407   20.2453 O   0  0  0  0  0  0  0  0  0  0  0  0
    8.5430  -17.1346   21.6322 N   0  0  0  0  0  0  0  0  0  0  0  0
    8.8410  -16.4139   22.8409 C   0  0  1  0  0  0  0  0  0  0  0  0
    8.0782  -16.8454   24.0532 C   0  0  0  0  0  0  0  0  0  0  0  0
    7.0524  -15.9267   24.5290 C   0  0  0  0  0  0  0  0  0  0  0  0
    5.7764  -16.2893   24.9168 C   0  0  0  0  0  0  0  0  0  0  0  0
    5.1017  -15.1870   25.3268 N   0  0  0  0  0  0  0  0  0  0  0  0
    5.9487  -14.1303   25.1978 C   0  0  0  0  0  0  0  0  0  0  0  0
    5.7682  -12.7911   25.4664 C   0  0  0  0  0  0  0  0  0  0  0  0
    6.7824  -11.8734   25.2502 C   0  0  0  0  0  0  0  0  0  0  0  0
    8.0031  -12.2960   24.7558 C   0  0  0  0  0  0  0  0  0  0  0  0
    8.1523  -13.6378   24.4979 C   0  0  0  0  0  0  0  0  0  0  0  0
    7.1633  -14.5689   24.7041 C   0  0  0  0  0  0  0  0  0  0  0  0
   10.3012  -16.6539   23.1328 C   0  0  0  0  0  0  0  0  0  0  0  0
   10.8382  -17.5358   22.4394 O   0  0  0  0  0  0  0  0  0  0  0  0
   11.0266  -15.9524   24.1071 N   0  0  0  0  0  0  0  0  0  0  0  0
   12.4329  -16.1223   24.3574 C   0  0  1  0  0  0  0  0  0  0  0  0
   12.9101  -15.5341   25.6799 C   0  0  0  0  0  0  0  0  0  0  0  0
   12.1206  -16.1495   26.7688 C   0  0  0  0  0  0  0  0  0  0  0  0
   11.8867  -17.4711   27.0725 C   0  0  0  0  0  0  0  0  0  0  0  0
   11.1074  -17.5425   28.1632 N   0  0  0  0  0  0  0  0  0  0  0  0
   10.8196  -16.3060   28.5897 C   0  0  0  0  0  0  0  0  0  0  0  0
   10.0632  -15.8506   29.6611 C   0  0  0  0  0  0  0  0  0  0  0  0
    9.9034  -14.5088   29.9137 C   0  0  0  0  0  0  0  0  0  0  0  0
   10.5126  -13.6015   29.0776 C   0  0  0  0  0  0  0  0  0  0  0  0
   11.2746  -14.0615   27.9981 C   0  0  0  0  0  0  0  0  0  0  0  0
   11.4347  -15.4065   27.7445 C   0  0  0  0  0  0  0  0  0  0  0  0
   12.8478  -17.5243   24.2837 C   0  0  0  0  0  0  0  0  0  0  0  0
   14.0710  -17.8184   24.1272 O   0  0  0  0  0  0  0  0  0  0  0  0
   11.9756  -18.5965   24.3751 O   0  0  0  0  0  0  0  0  0  0  0  0
  1  2  1  0
  2  3  1  0
  3  4  2  0
  5  3  1  0
  5  6  1  0
  6  7  1  1
  8  9  2  0
  8  7  1  0
 10  9  1  0
 11 16  2  0
 11 10  1  0
 12 11  1  0
 13 14  1  0
 13 12  2  0
 14 15  2  0
 15 16  1  0
 16  8  1  0
 17 18  2  0
 17  6  1  0
 19 17  1  0
 20 19  1  0
 20 21  1  1
 22 30  1  0
 22 21  1  0
 23 22  2  0
 24 23  1  0
 24 25  1  0
 25 26  1  0
 25 30  2  0
 26 27  2  0
 27 28  1  0
 29 28  2  0
 30 29  1  0
 31 20  1  0
 32 31  2  0
 33 31  1  0
M  END
$$$$
