GWW.pdb
     RDKit          3D

 33 36  0  0  1  0  0  0  0  0999 V2000
    9.2461  -19.3861   18.9225 N   0  0  0  0  0  0  0  0  0  0  0  0
    8.8969  -19.5250   20.3016 C   0  0  0  0  0  0  0  0  0  0  0  0
    9.0732  -18.2645   21.0692 C   0  0  0  0  0  0  0  0  0  0  0  0
   10.0149  -17.4751   20.8034 O   0  0  0  0  0  0  0  0  0  0  0  0
    8.2021  -17.8877   22.1280 N   0  0  0  0  0  0  0  0  0  0  0  0
    8.3885  -16.7227   22.9508 C   0  0  1  0  0  0  0  0  0  0  0  0
    7.1335  -16.0548   23.4162 C   0  0  0  0  0  0  0  0  0  0  0  0
    7.1882  -14.6052   23.5524 C   0  0  0  0  0  0  0  0  0  0  0  0
    7.6756  -13.7334   22.5972 C   0  0  0  0  0  0  0  0  0  0  0  0
    7.5492  -12.4601   23.0457 N   0  0  0  0  0  0  0  0  0  0  0  0
    6.9841  -12.5269   24.2813 C   0  0  0  0  0  0  0  0  0  0  0  0
    6.6456  -11.5333   25.1736 C   0  0  0  0  0  0  0  0  0  0  0  0
    6.0774  -11.8342   26.4002 C   0  0  0  0  0  0  0  0  0  0  0  0
    5.8408  -13.1520   26.7476 C   0  0  0  0  0  0  0  0  0  0  0  0
    6.1893  -14.1201   25.8364 C   0  0  0  0  0  0  0  0  0  0  0  0
    6.7532  -13.8490   24.6132 C   0  0  0  0  0  0  0  0  0  0  0  0
    9.1236  -17.1837   24.1846 C   0  0  0  0  0  0  0  0  0  0  0  0
    8.4467  -17.1919   25.2279 O   0  0  0  0  0  0  0  0  0  0  0  0
   10.4695  -17.5790   24.1875 N   0  0  0  0  0  0  0  0  0  0  0  0
   11.5767  -16.7029   24.4623 C   0  0  1  0  0  0  0  0  0  0  0  0
   12.3040  -17.0018   25.7679 C   0  0  0  0  0  0  0  0  0  0  0  0
   11.3456  -16.8221   26.8801 C   0  0  0  0  0  0  0  0  0  0  0  0
   10.5640  -17.7361   27.5491 C   0  0  0  0  0  0  0  0  0  0  0  0
    9.8522  -17.1012   28.4937 N   0  0  0  0  0  0  0  0  0  0  0  0
   10.1410  -15.7936   28.4689 C   0  0  0  0  0  0  0  0  0  0  0  0
    9.6795  -14.7305   29.2332 C   0  0  0  0  0  0  0  0  0  0  0  0
   10.1260  -13.4466   29.0288 C   0  0  0  0  0  0  0  0  0  0  0  0
   11.0544  -13.2192   28.0389 C   0  0  0  0  0  0  0  0  0  0  0  0
   11.5189  -14.2912   27.2691 C   0  0  0  0  0  0  0  0  0  0  0  0
   11.0711  -15.5784   27.4737 C   0  0  0  0  0  0  0  0  0  0  0  0
   12.5519  -16.6760   23.3707 C   0  0  0  0  0  0  0  0  0  0  0  0
   13.4900  -15.8233   23.3765 O   0  0  0  0  0  0  0  0  0  0  0  0
   12.5297  -17.5424   22.2902 O   0  0  0  0  0  0  0  0  0  0  0  0
  1  2  1  0
  2  3  1  0
  3  4  2  0
  5  3  1  0
  5  6  1  0
  6  7  1  1
  8  9  2  0
  8  7  1  0
 10  9  1  0
 11 16  2  0
 11 10  1  0
 12 11  1  0
 13 14  1  0
 13 12  2  0
 14 15  2  0
 15 16  1  0
 16  8  1  0
 17 18  2  0
 17  6  1  0
 19 17  1  0
 20 19  1  0
 20 21  1  1
 22 30  1  0
 22 21  1  0
 23 22  2  0
 24 23  1  0
 24 25  1  0
 25 26  1  0
 25 30  2  0
 26 27  2  0
 27 28  1  0
 29 28  2  0
 30 29  1  0
 31 20  1  0
 32 31  2  0
 33 31  1  0
M  END
$$$$
