GWW.pdb
     RDKit          3D

 33 36  0  0  1  0  0  0  0  0999 V2000
    5.2836  -21.9086   23.6252 N   0  0  0  0  0  0  0  0  0  0  0  0
    5.1492  -20.5434   24.0270 C   0  0  0  0  0  0  0  0  0  0  0  0
    6.0853  -19.6383   23.3102 C   0  0  0  0  0  0  0  0  0  0  0  0
    7.2827  -19.9703   23.1196 O   0  0  0  0  0  0  0  0  0  0  0  0
    5.6856  -18.3691   22.8090 N   0  0  0  0  0  0  0  0  0  0  0  0
    6.5719  -17.4443   22.1544 C   0  0  1  0  0  0  0  0  0  0  0  0
    5.9059  -16.3701   21.3542 C   0  0  0  0  0  0  0  0  0  0  0  0
    6.7441  -15.6757   20.3856 C   0  0  0  0  0  0  0  0  0  0  0  0
    7.2378  -16.2280   19.2189 C   0  0  0  0  0  0  0  0  0  0  0  0
    7.9536  -15.2925   18.5474 N   0  0  0  0  0  0  0  0  0  0  0  0
    7.9129  -14.1521   19.2879 C   0  0  0  0  0  0  0  0  0  0  0  0
    8.4751  -12.9135   19.0689 C   0  0  0  0  0  0  0  0  0  0  0  0
    8.3081  -11.8800   19.9754 C   0  0  0  0  0  0  0  0  0  0  0  0
    7.5662  -12.0821   21.1251 C   0  0  0  0  0  0  0  0  0  0  0  0
    7.0183  -13.3282   21.3151 C   0  0  0  0  0  0  0  0  0  0  0  0
    7.1677  -14.3700   20.4319 C   0  0  0  0  0  0  0  0  0  0  0  0
    7.3547  -16.7572   23.2454 C   0  0  0  0  0  0  0  0  0  0  0  0
    6.6660  -16.1500   24.0844 O   0  0  0  0  0  0  0  0  0  0  0  0
    8.7544  -16.7821   23.3339 N   0  0  0  0  0  0  0  0  0  0  0  0
    9.5397  -15.8579   24.1075 C   0  0  1  0  0  0  0  0  0  0  0  0
    9.3453  -15.9779   25.6143 C   0  0  0  0  0  0  0  0  0  0  0  0
    8.0509  -15.3527   25.9626 C   0  0  0  0  0  0  0  0  0  0  0  0
    6.8057  -15.9085   26.1475 C   0  0  0  0  0  0  0  0  0  0  0  0
    5.9308  -14.9389   26.4580 N   0  0  0  0  0  0  0  0  0  0  0  0
    6.5618  -13.7578   26.4841 C   0  0  0  0  0  0  0  0  0  0  0  0
    6.1080  -12.4732   26.7509 C   0  0  0  0  0  0  0  0  0  0  0  0
    6.9520  -11.3885   26.7220 C   0  0  0  0  0  0  0  0  0  0  0  0
    8.2791  -11.5913   26.4199 C   0  0  0  0  0  0  0  0  0  0  0  0
    8.7355  -12.8864   26.1512 C   0  0  0  0  0  0  0  0  0  0  0  0
    7.8894  -13.9738   26.1798 C   0  0  0  0  0  0  0  0  0  0  0  0
   10.9690  -15.9493   23.8040 C   0  0  0  0  0  0  0  0  0  0  0  0
   11.7897  -15.1614   24.3634 O   0  0  0  0  0  0  0  0  0  0  0  0
   11.5167  -16.8641   22.9198 O   0  0  0  0  0  0  0  0  0  0  0  0
  1  2  1  0
  2  3  1  0
  3  4  2  0
  5  3  1  0
  5  6  1  0
  6  7  1  1
  8  9  2  0
  8  7  1  0
 10  9  1  0
 11 16  2  0
 11 10  1  0
 12 11  1  0
 13 14  1  0
 13 12  2  0
 14 15  2  0
 15 16  1  0
 16  8  1  0
 17 18  2  0
 17  6  1  0
 19 17  1  0
 20 19  1  0
 20 21  1  1
 22 30  1  0
 22 21  1  0
 23 22  2  0
 24 23  1  0
 24 25  1  0
 25 26  1  0
 25 30  2  0
 26 27  2  0
 27 28  1  0
 29 28  2  0
 30 29  1  0
 31 20  1  0
 32 31  2  0
 33 31  1  0
M  END
$$$$
