NTS.pdb
     RDKit          3D

 22 21  0  0  1  0  0  0  0  0999 V2000
   15.6839  -12.7038  -16.1437 N   0  0  0  0  0  0  0  0  0  0  0  0
   15.9962  -12.0544  -14.9009 C   0  0  0  0  0  0  0  0  0  0  0  0
   15.1291  -11.9780  -14.0119 O   0  0  0  0  0  0  0  0  0  0  0  0
   17.3708  -11.5125  -14.7795 C   0  0  0  0  0  0  0  0  0  0  0  0
   18.0731  -11.7142  -16.1121 C   0  0  2  0  0  0  0  0  0  0  0  0
   18.4318  -13.0994  -16.2958 N   0  0  0  0  0  0  0  0  0  0  0  0
   19.3066  -10.8560  -16.1784 C   0  0  0  0  0  0  0  0  0  0  0  0
   20.4003  -11.2704  -15.7411 O   0  0  0  0  0  0  0  0  0  0  0  0
   20.6958   -9.2172  -19.2165 C   0  0  0  0  0  0  0  0  0  0  0  0
   20.3783   -8.1039  -18.2425 C   0  0  1  0  0  0  0  0  0  0  0  0
   19.1624   -7.5517  -18.5652 O   0  0  0  0  0  0  0  0  0  0  0  0
   20.3312   -8.6456  -16.8274 C   0  0  2  0  0  0  0  0  0  0  0  0
   19.2369   -9.5680  -16.7386 N   0  0  0  0  0  0  0  0  0  0  0  0
   20.3035   -7.5912  -15.8162 C   0  0  0  0  0  0  0  0  0  0  0  0
   19.1943   -7.2038  -15.3736 O   0  0  0  0  0  0  0  0  0  0  0  0
   22.4749   -4.8645  -12.4980 O   0  0  0  0  0  0  0  0  0  0  0  0
   22.6342   -5.8471  -13.4706 C   0  0  0  0  0  0  0  0  0  0  0  0
   21.3469   -5.9617  -14.2914 C   0  0  2  0  0  0  0  0  0  0  0  0
   21.4760   -6.9794  -15.3064 N   0  0  0  0  0  0  0  0  0  0  0  0
   21.0371   -4.6393  -14.8274 C   0  0  0  0  0  0  0  0  0  0  0  0
   20.2400   -3.7725  -14.1093 O   0  0  0  0  0  0  0  0  0  0  0  0
   21.4873   -4.2817  -15.9338 O   0  0  0  0  0  0  0  0  0  0  0  0
  2  1  1  0
  3  2  2  0
  4  2  1  0
  4  5  1  0
  5  7  1  0
  5  6  1  1
  7 13  1  0
  8  7  2  0
 10  9  1  6
 10 12  1  0
 11 10  1  0
 12 14  1  0
 12 13  1  6
 14 15  2  0
 14 19  1  0
 16 17  1  0
 18 17  1  6
 18 20  1  0
 19 18  1  0
 20 21  1  0
 22 20  2  0
M  END
$$$$
