NTS.pdb
     RDKit          3D

 22 21  0  0  1  0  0  0  0  0999 V2000
   20.9016  -12.9383  -20.0117 N   0  0  0  0  0  0  0  0  0  0  0  0
   20.8842  -12.5932  -18.6172 C   0  0  0  0  0  0  0  0  0  0  0  0
   21.3123  -13.4051  -17.7773 O   0  0  0  0  0  0  0  0  0  0  0  0
   20.3394  -11.2545  -18.2869 C   0  0  0  0  0  0  0  0  0  0  0  0
   19.3748  -11.4155  -17.1236 C   0  0  2  0  0  0  0  0  0  0  0  0
   18.1759  -12.0984  -17.5450 N   0  0  0  0  0  0  0  0  0  0  0  0
   19.0205  -10.0671  -16.5590 C   0  0  0  0  0  0  0  0  0  0  0  0
   18.4115   -9.2230  -17.2487 O   0  0  0  0  0  0  0  0  0  0  0  0
   18.2321   -7.4508  -12.5268 C   0  0  0  0  0  0  0  0  0  0  0  0
   18.5447   -8.7547  -13.2276 C   0  0  1  0  0  0  0  0  0  0  0  0
   17.3910   -9.4897  -13.3542 O   0  0  0  0  0  0  0  0  0  0  0  0
   19.1278   -8.4831  -14.6004 C   0  0  2  0  0  0  0  0  0  0  0  0
   19.3759   -9.7436  -15.2374 N   0  0  0  0  0  0  0  0  0  0  0  0
   20.2904   -7.5989  -14.5589 C   0  0  0  0  0  0  0  0  0  0  0  0
   21.3987   -8.0699  -14.2038 O   0  0  0  0  0  0  0  0  0  0  0  0
   22.4194   -3.3513  -15.4462 O   0  0  0  0  0  0  0  0  0  0  0  0
   21.2320   -4.0750  -15.5045 C   0  0  0  0  0  0  0  0  0  0  0  0
   21.4303   -5.4308  -14.8216 C   0  0  2  0  0  0  0  0  0  0  0  0
   20.2282   -6.2252  -14.9024 N   0  0  0  0  0  0  0  0  0  0  0  0
   21.8750   -5.1834  -13.4531 C   0  0  0  0  0  0  0  0  0  0  0  0
   23.2223   -5.1594  -13.1586 O   0  0  0  0  0  0  0  0  0  0  0  0
   21.0463   -4.9922  -12.5413 O   0  0  0  0  0  0  0  0  0  0  0  0
  2  1  1  0
  3  2  2  0
  4  2  1  0
  4  5  1  0
  5  7  1  0
  5  6  1  6
  7 13  1  0
  8  7  2  0
 10  9  1  6
 10 12  1  0
 11 10  1  0
 12 14  1  0
 12 13  1  1
 14 15  2  0
 14 19  1  0
 16 17  1  0
 18 17  1  1
 18 20  1  0
 19 18  1  0
 20 21  1  0
 22 20  2  0
M  END
$$$$
