NTS.pdb
     RDKit          3D

 22 21  0  0  1  0  0  0  0  0999 V2000
   20.8865  -14.3992  -18.1860 N   0  0  0  0  0  0  0  0  0  0  0  0
   19.8981  -13.9272  -17.2564 C   0  0  0  0  0  0  0  0  0  0  0  0
   18.7495  -14.4046  -17.2848 O   0  0  0  0  0  0  0  0  0  0  0  0
   20.3458  -12.8766  -16.3110 C   0  0  0  0  0  0  0  0  0  0  0  0
   21.8091  -12.5821  -16.5969 C   0  0  2  0  0  0  0  0  0  0  0  0
   22.6451  -13.6715  -16.1546 N   0  0  0  0  0  0  0  0  0  0  0  0
   22.2222  -11.3111  -15.9067 C   0  0  0  0  0  0  0  0  0  0  0  0
   22.3156  -11.2582  -14.6626 O   0  0  0  0  0  0  0  0  0  0  0  0
   25.3293   -9.6793  -16.3122 C   0  0  0  0  0  0  0  0  0  0  0  0
   24.3333   -8.6204  -16.7317 C   0  0  1  0  0  0  0  0  0  0  0  0
   24.2373   -8.6054  -18.1021 O   0  0  0  0  0  0  0  0  0  0  0  0
   22.9734   -8.9148  -16.1299 C   0  0  2  0  0  0  0  0  0  0  0  0
   22.5090  -10.1617  -16.6643 N   0  0  0  0  0  0  0  0  0  0  0  0
   22.0300   -7.8107  -16.2910 C   0  0  0  0  0  0  0  0  0  0  0  0
   21.2445   -7.8216  -17.2704 O   0  0  0  0  0  0  0  0  0  0  0  0
   19.7229   -3.9375  -14.6103 O   0  0  0  0  0  0  0  0  0  0  0  0
   20.7462   -4.8505  -14.3726 C   0  0  0  0  0  0  0  0  0  0  0  0
   21.0003   -5.6690  -15.6412 C   0  0  2  0  0  0  0  0  0  0  0  0
   21.9571   -6.7196  -15.3892 N   0  0  0  0  0  0  0  0  0  0  0  0
   21.4110   -4.7467  -16.6959 C   0  0  0  0  0  0  0  0  0  0  0  0
   20.4594   -4.0809  -17.4400 O   0  0  0  0  0  0  0  0  0  0  0  0
   22.6193   -4.5522  -16.9338 O   0  0  0  0  0  0  0  0  0  0  0  0
  2  1  1  0
  3  2  2  0
  4  2  1  0
  4  5  1  0
  5  7  1  0
  5  6  1  1
  7 13  1  0
  8  7  2  0
 10  9  1  6
 10 12  1  0
 11 10  1  0
 12 14  1  0
 12 13  1  6
 14 15  2  0
 14 19  1  0
 16 17  1  0
 18 17  1  1
 18 20  1  0
 19 18  1  0
 20 21  1  0
 22 20  2  0
M  END
$$$$
