NTS.pdb
     RDKit          3D

 22 21  0  0  1  0  0  0  0  0999 V2000
   15.6741  -13.0758  -14.1102 N   0  0  0  0  0  0  0  0  0  0  0  0
   16.3352  -13.4455  -15.3310 C   0  0  0  0  0  0  0  0  0  0  0  0
   16.2033  -14.5995  -15.7768 O   0  0  0  0  0  0  0  0  0  0  0  0
   17.1452  -12.3850  -15.9770 C   0  0  0  0  0  0  0  0  0  0  0  0
   17.0173  -11.1229  -15.1402 C   0  0  2  0  0  0  0  0  0  0  0  0
   15.6728  -10.6033  -15.2018 N   0  0  0  0  0  0  0  0  0  0  0  0
   17.9877  -10.0822  -15.6277 C   0  0  0  0  0  0  0  0  0  0  0  0
   19.1395  -10.3996  -15.9910 O   0  0  0  0  0  0  0  0  0  0  0  0
   17.0488   -7.6769  -18.3079 C   0  0  0  0  0  0  0  0  0  0  0  0
   17.5118   -6.8397  -17.1358 C   0  0  1  0  0  0  0  0  0  0  0  0
   16.4166   -6.3905  -16.4384 O   0  0  0  0  0  0  0  0  0  0  0  0
   18.3939   -7.6655  -16.2203 C   0  0  2  0  0  0  0  0  0  0  0  0
   17.6018   -8.7309  -15.6786 N   0  0  0  0  0  0  0  0  0  0  0  0
   19.0765   -6.8595  -15.2106 C   0  0  0  0  0  0  0  0  0  0  0  0
   18.5468   -6.7270  -14.0800 O   0  0  0  0  0  0  0  0  0  0  0  0
   23.0400   -4.9300  -13.3760 O   0  0  0  0  0  0  0  0  0  0  0  0
   22.4607   -5.6919  -14.3864 C   0  0  0  0  0  0  0  0  0  0  0  0
   20.9431   -5.4912  -14.3662 C   0  0  2  0  0  0  0  0  0  0  0  0
   20.3167   -6.2149  -15.4462 N   0  0  0  0  0  0  0  0  0  0  0  0
   20.6796   -4.0554  -14.3962 C   0  0  0  0  0  0  0  0  0  0  0  0
   20.6639   -3.3316  -13.2222 O   0  0  0  0  0  0  0  0  0  0  0  0
   20.4673   -3.4716  -15.4773 O   0  0  0  0  0  0  0  0  0  0  0  0
  2  1  1  0
  3  2  2  0
  4  2  1  0
  4  5  1  0
  5  7  1  0
  5  6  1  6
  7 13  1  0
  8  7  2  0
 10  9  1  6
 10 12  1  0
 11 10  1  0
 12 14  1  0
 12 13  1  1
 14 15  2  0
 14 19  1  0
 16 17  1  0
 18 17  1  6
 18 20  1  0
 19 18  1  0
 20 21  1  0
 22 20  2  0
M  END
$$$$
