NTS.pdb
     RDKit          3D

 22 21  0  0  1  0  0  0  0  0999 V2000
   16.7562  -14.2376  -15.6134 N   0  0  0  0  0  0  0  0  0  0  0  0
   17.1705  -12.9683  -16.1434 C   0  0  0  0  0  0  0  0  0  0  0  0
   16.5269  -12.4507  -17.0739 O   0  0  0  0  0  0  0  0  0  0  0  0
   18.3695  -12.3632  -15.5157 C   0  0  0  0  0  0  0  0  0  0  0  0
   18.9351  -11.3349  -16.4813 C   0  0  2  0  0  0  0  0  0  0  0  0
   19.3914  -11.9697  -17.6938 N   0  0  0  0  0  0  0  0  0  0  0  0
   20.0738  -10.5945  -15.8350 C   0  0  0  0  0  0  0  0  0  0  0  0
   20.2550  -10.6477  -14.6007 O   0  0  0  0  0  0  0  0  0  0  0  0
   23.0099   -8.8864  -18.3775 C   0  0  0  0  0  0  0  0  0  0  0  0
   23.2448   -9.2295  -16.9228 C   0  0  1  0  0  0  0  0  0  0  0  0
   24.2692   -8.4556  -16.4338 O   0  0  0  0  0  0  0  0  0  0  0  0
   21.9863   -8.9759  -16.1165 C   0  0  2  0  0  0  0  0  0  0  0  0
   20.9516   -9.8294  -16.6235 N   0  0  0  0  0  0  0  0  0  0  0  0
   21.6195   -7.5624  -16.0658 C   0  0  0  0  0  0  0  0  0  0  0  0
   21.2641   -6.9893  -17.1248 O   0  0  0  0  0  0  0  0  0  0  0  0
   19.3322   -5.7852  -13.6037 O   0  0  0  0  0  0  0  0  0  0  0  0
   19.7651   -5.2339  -14.8061 C   0  0  0  0  0  0  0  0  0  0  0  0
   21.2818   -5.4049  -14.9255 C   0  0  2  0  0  0  0  0  0  0  0  0
   21.6453   -6.8004  -14.8710 N   0  0  0  0  0  0  0  0  0  0  0  0
   21.9081   -4.5978  -13.8824 C   0  0  0  0  0  0  0  0  0  0  0  0
   21.7153   -3.2323  -13.8567 O   0  0  0  0  0  0  0  0  0  0  0  0
   22.6198   -5.1314  -13.0087 O   0  0  0  0  0  0  0  0  0  0  0  0
  2  1  1  0
  3  2  2  0
  4  2  1  0
  4  5  1  0
  5  7  1  0
  5  6  1  6
  7 13  1  0
  8  7  2  0
 10  9  1  6
 10 12  1  0
 11 10  1  0
 12 14  1  0
 12 13  1  6
 14 15  2  0
 14 19  1  0
 16 17  1  0
 18 17  1  1
 18 20  1  0
 19 18  1  0
 20 21  1  0
 22 20  2  0
M  END
$$$$
