HFC.pdb
     RDKit          3D

 28 29  0  0  1  0  0  0  0  0999 V2000
   10.7753  -17.1992   19.9750 N   0  0  0  0  0  0  0  0  0  0  0  0
    9.7071  -17.3367   20.9434 C   0  0  1  0  0  0  0  0  0  0  0  0
    9.7147  -18.7765   21.4587 C   0  0  0  0  0  0  0  0  0  0  0  0
    9.1473  -19.6081   20.3636 C   0  0  0  0  0  0  0  0  0  0  0  0
    8.7334  -19.1934   19.1313 C   0  0  0  0  0  0  0  0  0  0  0  0
    8.2789  -20.2701   18.4285 N   0  0  0  0  0  0  0  0  0  0  0  0
    8.4157  -21.3307   19.2277 C   0  0  0  0  0  0  0  0  0  0  0  0
    8.9464  -20.9361   20.4147 N   0  0  0  0  0  0  0  0  0  0  0  0
    9.8743  -16.3659   22.0655 C   0  0  0  0  0  0  0  0  0  0  0  0
   10.9873  -15.9618   22.4504 O   0  0  0  0  0  0  0  0  0  0  0  0
    8.7239  -15.8893   22.7134 N   0  0  0  0  0  0  0  0  0  0  0  0
    8.7358  -15.0129   23.8578 C   0  0  1  0  0  0  0  0  0  0  0  0
    7.3049  -14.4719   23.9932 C   0  0  0  0  0  0  0  0  0  0  0  0
    7.1713  -13.5658   25.1283 C   0  0  0  0  0  0  0  0  0  0  0  0
    6.3820  -13.8927   26.2059 C   0  0  0  0  0  0  0  0  0  0  0  0
    6.2829  -13.0166   27.2501 C   0  0  0  0  0  0  0  0  0  0  0  0
    6.9608  -11.8168   27.2355 C   0  0  0  0  0  0  0  0  0  0  0  0
    7.7568  -11.4690   26.1666 C   0  0  0  0  0  0  0  0  0  0  0  0
    7.8436  -12.3666   25.1227 C   0  0  0  0  0  0  0  0  0  0  0  0
    9.1212  -15.7426   25.1032 C   0  0  0  0  0  0  0  0  0  0  0  0
    8.6355  -16.8914   25.3571 O   0  0  0  0  0  0  0  0  0  0  0  0
   10.0239  -15.2139   26.0471 N   0  0  0  0  0  0  0  0  0  0  0  0
   10.6825  -15.9797   27.0692 C   0  0  1  0  0  0  0  0  0  0  0  0
   11.6658  -15.1620   27.8713 C   0  0  0  0  0  0  0  0  0  0  0  0
   10.7581  -13.7670   28.5959 S   0  0  0  0  0  0  0  0  0  0  0  0
    9.7438  -16.7072   27.9442 C   0  0  0  0  0  0  0  0  0  0  0  0
   10.2184  -17.5150   28.7754 O   0  0  0  0  0  0  0  0  0  0  0  0
    8.3714  -16.5491   27.9001 O   0  0  0  0  0  0  0  0  0  0  0  0
  2  1  1  6
  2  9  1  0
  3  2  1  0
  4  3  1  0
  5  4  2  0
  6  5  1  0
  7  6  1  0
  7  8  2  0
  8  4  1  0
  9 11  1  0
  9 10  2  0
 11 12  1  0
 12 13  1  1
 13 14  1  0
 14 19  2  0
 15 16  2  0
 15 14  1  0
 16 17  1  0
 17 18  2  0
 19 18  1  0
 20 12  1  0
 20 21  2  0
 22 20  1  0
 23 22  1  0
 23 24  1  1
 24 25  1  0
 26 23  1  0
 27 26  2  0
 28 26  1  0
M  END
$$$$
