HFC.pdb
     RDKit          3D

 28 29  0  0  1  0  0  0  0  0999 V2000
    9.4893  -16.5606   19.5212 N   0  0  0  0  0  0  0  0  0  0  0  0
    8.9304  -17.1096   20.7395 C   0  0  1  0  0  0  0  0  0  0  0  0
    9.4607  -18.5342   20.9063 C   0  0  0  0  0  0  0  0  0  0  0  0
    8.7577  -19.3568   19.8855 C   0  0  0  0  0  0  0  0  0  0  0  0
    8.9934  -19.3978   18.5421 C   0  0  0  0  0  0  0  0  0  0  0  0
    8.1295  -20.2813   17.9653 N   0  0  0  0  0  0  0  0  0  0  0  0
    7.3748  -20.7732   18.9505 C   0  0  0  0  0  0  0  0  0  0  0  0
    7.7515  -20.2136   20.1301 N   0  0  0  0  0  0  0  0  0  0  0  0
    9.2851  -16.2651   21.9186 C   0  0  0  0  0  0  0  0  0  0  0  0
   10.4228  -15.7901   22.0929 O   0  0  0  0  0  0  0  0  0  0  0  0
    8.2900  -15.9963   22.8713 N   0  0  0  0  0  0  0  0  0  0  0  0
    8.4996  -15.2366   24.0784 C   0  0  1  0  0  0  0  0  0  0  0  0
    7.1261  -14.6707   24.4678 C   0  0  0  0  0  0  0  0  0  0  0  0
    7.2201  -13.7328   25.5809 C   0  0  0  0  0  0  0  0  0  0  0  0
    7.9204  -12.5558   25.4576 C   0  0  0  0  0  0  0  0  0  0  0  0
    7.9849  -11.7034   26.5238 C   0  0  0  0  0  0  0  0  0  0  0  0
    7.3601  -12.0081   27.7137 C   0  0  0  0  0  0  0  0  0  0  0  0
    6.6534  -13.1813   27.8595 C   0  0  0  0  0  0  0  0  0  0  0  0
    6.6001  -14.0282   26.7718 C   0  0  0  0  0  0  0  0  0  0  0  0
    9.0251  -16.0952   25.1822 C   0  0  0  0  0  0  0  0  0  0  0  0
    8.3763  -17.1189   25.5711 O   0  0  0  0  0  0  0  0  0  0  0  0
   10.2413  -15.8281   25.8418 N   0  0  0  0  0  0  0  0  0  0  0  0
   10.8165  -16.6551   26.8663 C   0  0  1  0  0  0  0  0  0  0  0  0
   12.3094  -16.4728   26.9962 C   0  0  0  0  0  0  0  0  0  0  0  0
   12.9884  -16.2916   25.3227 S   0  0  0  0  0  0  0  0  0  0  0  0
   10.1398  -16.5184   28.1699 C   0  0  0  0  0  0  0  0  0  0  0  0
    9.2309  -15.6632   28.2753 O   0  0  0  0  0  0  0  0  0  0  0  0
   10.4504  -17.2791   29.2813 O   0  0  0  0  0  0  0  0  0  0  0  0
  2  1  1  6
  2  9  1  0
  3  2  1  0
  4  3  1  0
  5  4  2  0
  6  5  1  0
  7  6  1  0
  7  8  2  0
  8  4  1  0
  9 11  1  0
  9 10  2  0
 11 12  1  0
 12 13  1  1
 13 14  1  0
 14 19  2  0
 15 16  2  0
 15 14  1  0
 16 17  1  0
 17 18  2  0
 19 18  1  0
 20 12  1  0
 20 21  2  0
 22 20  1  0
 23 22  1  0
 23 24  1  1
 24 25  1  0
 26 23  1  0
 27 26  2  0
 28 26  1  0
M  END
$$$$
