HFC.pdb
     RDKit          3D

 28 29  0  0  1  0  0  0  0  0999 V2000
   10.3319  -17.1498   19.8565 N   0  0  0  0  0  0  0  0  0  0  0  0
    9.4056  -17.3836   20.9451 C   0  0  1  0  0  0  0  0  0  0  0  0
    9.5836  -18.8264   21.4195 C   0  0  0  0  0  0  0  0  0  0  0  0
    9.1428  -19.6880   20.2899 C   0  0  0  0  0  0  0  0  0  0  0  0
    7.8716  -20.0829   19.9900 C   0  0  0  0  0  0  0  0  0  0  0  0
    7.9003  -20.8669   18.8746 N   0  0  0  0  0  0  0  0  0  0  0  0
    9.1791  -20.9477   18.4997 C   0  0  0  0  0  0  0  0  0  0  0  0
    9.9478  -20.2294   19.3597 N   0  0  0  0  0  0  0  0  0  0  0  0
    9.6388  -16.4204   22.0619 C   0  0  0  0  0  0  0  0  0  0  0  0
   10.7768  -16.1025   22.4546 O   0  0  0  0  0  0  0  0  0  0  0  0
    8.5240  -15.8495   22.6955 N   0  0  0  0  0  0  0  0  0  0  0  0
    8.5935  -14.9837   23.8460 C   0  0  1  0  0  0  0  0  0  0  0  0
    7.2347  -14.2724   23.9248 C   0  0  0  0  0  0  0  0  0  0  0  0
    7.1463  -13.3965   25.0877 C   0  0  0  0  0  0  0  0  0  0  0  0
    6.3074  -13.6942   26.1360 C   0  0  0  0  0  0  0  0  0  0  0  0
    6.2532  -12.8480   27.2077 C   0  0  0  0  0  0  0  0  0  0  0  0
    7.0248  -11.7069   27.2497 C   0  0  0  0  0  0  0  0  0  0  0  0
    7.8718  -11.3892   26.2110 C   0  0  0  0  0  0  0  0  0  0  0  0
    7.9121  -12.2559   25.1386 C   0  0  0  0  0  0  0  0  0  0  0  0
    8.8335  -15.7579   25.1010 C   0  0  0  0  0  0  0  0  0  0  0  0
    8.0497  -16.7021   25.4392 O   0  0  0  0  0  0  0  0  0  0  0  0
    9.9163  -15.4942   25.9632 N   0  0  0  0  0  0  0  0  0  0  0  0
   10.2233  -16.2483   27.1472 C   0  0  1  0  0  0  0  0  0  0  0  0
   11.6170  -16.8280   27.1269 C   0  0  0  0  0  0  0  0  0  0  0  0
   12.0229  -17.2226   25.4023 S   0  0  0  0  0  0  0  0  0  0  0  0
    9.9665  -15.5015   28.3932 C   0  0  0  0  0  0  0  0  0  0  0  0
    9.7343  -14.2738   28.3072 O   0  0  0  0  0  0  0  0  0  0  0  0
    9.9672  -16.0779   29.6494 O   0  0  0  0  0  0  0  0  0  0  0  0
  2  1  1  6
  2  9  1  0
  3  2  1  0
  4  3  1  0
  5  4  2  0
  6  5  1  0
  7  6  1  0
  7  8  2  0
  8  4  1  0
  9 11  1  0
  9 10  2  0
 11 12  1  0
 12 13  1  1
 13 14  1  0
 14 19  2  0
 15 16  2  0
 15 14  1  0
 16 17  1  0
 17 18  2  0
 19 18  1  0
 20 12  1  0
 20 21  2  0
 22 20  1  0
 23 22  1  0
 23 24  1  6
 24 25  1  0
 26 23  1  0
 27 26  2  0
 28 26  1  0
M  END
$$$$
