HFC.pdb
     RDKit          3D

 28 29  0  0  1  0  0  0  0  0999 V2000
   10.9517  -16.6919   19.7721 N   0  0  0  0  0  0  0  0  0  0  0  0
   10.1532  -17.1269   20.8996 C   0  0  1  0  0  0  0  0  0  0  0  0
   10.7152  -18.4604   21.3940 C   0  0  0  0  0  0  0  0  0  0  0  0
   10.1409  -19.5042   20.5033 C   0  0  0  0  0  0  0  0  0  0  0  0
    8.8339  -19.6693   20.1479 C   0  0  0  0  0  0  0  0  0  0  0  0
    8.7311  -20.7450   19.3162 N   0  0  0  0  0  0  0  0  0  0  0  0
    9.9661  -21.2298   19.1673 C   0  0  0  0  0  0  0  0  0  0  0  0
   10.8365  -20.4772   19.8901 N   0  0  0  0  0  0  0  0  0  0  0  0
   10.1637  -16.1051   21.9882 C   0  0  0  0  0  0  0  0  0  0  0  0
   11.2094  -15.5778   22.4113 O   0  0  0  0  0  0  0  0  0  0  0  0
    8.9391  -15.7238   22.5584 N   0  0  0  0  0  0  0  0  0  0  0  0
    8.8049  -14.8348   23.6851 C   0  0  1  0  0  0  0  0  0  0  0  0
    7.3179  -14.4572   23.7534 C   0  0  0  0  0  0  0  0  0  0  0  0
    7.0376  -13.5501   24.8606 C   0  0  0  0  0  0  0  0  0  0  0  0
    7.5703  -12.2826   24.8896 C   0  0  0  0  0  0  0  0  0  0  0  0
    7.2837  -11.4627   25.9447 C   0  0  0  0  0  0  0  0  0  0  0  0
    6.4720  -11.8891   26.9736 C   0  0  0  0  0  0  0  0  0  0  0  0
    5.9277  -13.1543   26.9652 C   0  0  0  0  0  0  0  0  0  0  0  0
    6.2290  -13.9665   25.8916 C   0  0  0  0  0  0  0  0  0  0  0  0
    9.2182  -15.4977   24.9586 C   0  0  0  0  0  0  0  0  0  0  0  0
    8.9120  -16.7122   25.1853 O   0  0  0  0  0  0  0  0  0  0  0  0
    9.9537  -14.8326   25.9596 N   0  0  0  0  0  0  0  0  0  0  0  0
   10.3355  -15.4124   27.2177 C   0  0  1  0  0  0  0  0  0  0  0  0
   10.5252  -14.3814   28.3039 C   0  0  0  0  0  0  0  0  0  0  0  0
   11.0557  -15.2550   29.8039 S   0  0  0  0  0  0  0  0  0  0  0  0
    9.4356  -16.4971   27.6531 C   0  0  0  0  0  0  0  0  0  0  0  0
    8.2018  -16.2833   27.6324 O   0  0  0  0  0  0  0  0  0  0  0  0
    9.8750  -17.7352   28.0825 O   0  0  0  0  0  0  0  0  0  0  0  0
  2  1  1  6
  2  9  1  0
  3  2  1  0
  4  3  1  0
  5  4  2  0
  6  5  1  0
  7  6  1  0
  7  8  2  0
  8  4  1  0
  9 11  1  0
  9 10  2  0
 11 12  1  0
 12 13  1  1
 13 14  1  0
 14 19  2  0
 15 16  2  0
 15 14  1  0
 16 17  1  0
 17 18  2  0
 19 18  1  0
 20 12  1  0
 20 21  2  0
 22 20  1  0
 23 22  1  0
 23 24  1  1
 24 25  1  0
 26 23  1  0
 27 26  2  0
 28 26  1  0
M  END
$$$$
