HFC.pdb
     RDKit          3D

 28 29  0  0  1  0  0  0  0  0999 V2000
    9.8310  -16.6309   19.1078 N   0  0  0  0  0  0  0  0  0  0  0  0
    8.6760  -16.6028   19.9813 C   0  0  1  0  0  0  0  0  0  0  0  0
    8.1371  -18.0287   20.1034 C   0  0  0  0  0  0  0  0  0  0  0  0
    7.5644  -18.3671   18.7729 C   0  0  0  0  0  0  0  0  0  0  0  0
    7.0638  -17.5082   17.8384 C   0  0  0  0  0  0  0  0  0  0  0  0
    6.6384  -18.2238   16.7583 N   0  0  0  0  0  0  0  0  0  0  0  0
    6.8788  -19.5077   17.0345 C   0  0  0  0  0  0  0  0  0  0  0  0
    7.4457  -19.6061   18.2655 N   0  0  0  0  0  0  0  0  0  0  0  0
    9.0323  -16.0488   21.3213 C   0  0  0  0  0  0  0  0  0  0  0  0
   10.1080  -16.3033   21.8944 O   0  0  0  0  0  0  0  0  0  0  0  0
    8.1119  -15.2040   21.9612 N   0  0  0  0  0  0  0  0  0  0  0  0
    8.2905  -14.6530   23.2811 C   0  0  1  0  0  0  0  0  0  0  0  0
    7.0771  -13.7452   23.5301 C   0  0  0  0  0  0  0  0  0  0  0  0
    7.0984  -13.1639   24.8677 C   0  0  0  0  0  0  0  0  0  0  0  0
    7.9959  -12.1749   25.1956 C   0  0  0  0  0  0  0  0  0  0  0  0
    7.9839  -11.6558   26.4597 C   0  0  0  0  0  0  0  0  0  0  0  0
    7.0881  -12.1093   27.4037 C   0  0  0  0  0  0  0  0  0  0  0  0
    6.1804  -13.0988   27.0972 C   0  0  0  0  0  0  0  0  0  0  0  0
    6.2086  -13.6097   25.8161 C   0  0  0  0  0  0  0  0  0  0  0  0
    8.3427  -15.7251   24.3203 C   0  0  0  0  0  0  0  0  0  0  0  0
    7.4510  -16.6326   24.3596 O   0  0  0  0  0  0  0  0  0  0  0  0
    9.3583  -15.7926   25.2946 N   0  0  0  0  0  0  0  0  0  0  0  0
    9.5319  -16.8751   26.2235 C   0  0  1  0  0  0  0  0  0  0  0  0
   10.3232  -18.0226   25.6438 C   0  0  0  0  0  0  0  0  0  0  0  0
   10.5277  -19.2649   26.9513 S   0  0  0  0  0  0  0  0  0  0  0  0
   10.0802  -16.4421   27.5227 C   0  0  0  0  0  0  0  0  0  0  0  0
   10.6982  -15.3537   27.5683 O   0  0  0  0  0  0  0  0  0  0  0  0
    9.9514  -17.1676   28.6921 O   0  0  0  0  0  0  0  0  0  0  0  0
  2  1  1  6
  2  9  1  0
  3  2  1  0
  4  3  1  0
  5  4  2  0
  6  5  1  0
  7  6  1  0
  7  8  2  0
  8  4  1  0
  9 11  1  0
  9 10  2  0
 11 12  1  0
 12 13  1  1
 13 14  1  0
 14 19  2  0
 15 16  2  0
 15 14  1  0
 16 17  1  0
 17 18  2  0
 19 18  1  0
 20 12  1  0
 20 21  2  0
 22 20  1  0
 23 22  1  0
 23 24  1  6
 24 25  1  0
 26 23  1  0
 27 26  2  0
 28 26  1  0
M  END
$$$$
