HFC.pdb
     RDKit          3D

 28 29  0  0  1  0  0  0  0  0999 V2000
    8.9474  -17.1969   19.5778 N   0  0  0  0  0  0  0  0  0  0  0  0
    8.6533  -17.6706   20.9146 C   0  0  1  0  0  0  0  0  0  0  0  0
    9.3927  -18.9927   21.1241 C   0  0  0  0  0  0  0  0  0  0  0  0
    8.7840  -19.9596   20.1715 C   0  0  0  0  0  0  0  0  0  0  0  0
    7.5075  -20.4416   20.1753 C   0  0  0  0  0  0  0  0  0  0  0  0
    7.3547  -21.3058   19.1316 N   0  0  0  0  0  0  0  0  0  0  0  0
    8.5293  -21.3485   18.4985 C   0  0  0  0  0  0  0  0  0  0  0  0
    9.4111  -20.5279   19.1273 N   0  0  0  0  0  0  0  0  0  0  0  0
    9.0575  -16.6632   21.9398 C   0  0  0  0  0  0  0  0  0  0  0  0
   10.1524  -16.0709   21.9116 O   0  0  0  0  0  0  0  0  0  0  0  0
    8.1616  -16.3729   22.9806 N   0  0  0  0  0  0  0  0  0  0  0  0
    8.4446  -15.4792   24.0757 C   0  0  1  0  0  0  0  0  0  0  0  0
    7.0862  -14.9346   24.5413 C   0  0  0  0  0  0  0  0  0  0  0  0
    7.2355  -13.8893   25.5474 C   0  0  0  0  0  0  0  0  0  0  0  0
    7.3314  -12.5662   25.1849 C   0  0  0  0  0  0  0  0  0  0  0  0
    7.4702  -11.6165   26.1577 C   0  0  0  0  0  0  0  0  0  0  0  0
    7.5150  -11.9675   27.4896 C   0  0  0  0  0  0  0  0  0  0  0  0
    7.4208  -13.2863   27.8755 C   0  0  0  0  0  0  0  0  0  0  0  0
    7.2811  -14.2297   26.8786 C   0  0  0  0  0  0  0  0  0  0  0  0
    9.1186  -16.1904   25.2035 C   0  0  0  0  0  0  0  0  0  0  0  0
    8.6293  -17.2668   25.6749 O   0  0  0  0  0  0  0  0  0  0  0  0
   10.3075  -15.7219   25.7973 N   0  0  0  0  0  0  0  0  0  0  0  0
   11.0495  -16.4227   26.8087 C   0  0  1  0  0  0  0  0  0  0  0  0
   12.4616  -15.9106   26.9591 C   0  0  0  0  0  0  0  0  0  0  0  0
   13.1584  -15.7232   25.2936 S   0  0  0  0  0  0  0  0  0  0  0  0
   10.3523  -16.4754   28.1076 C   0  0  0  0  0  0  0  0  0  0  0  0
    9.2575  -15.8764   28.2135 O   0  0  0  0  0  0  0  0  0  0  0  0
   10.8370  -17.1471   29.2140 O   0  0  0  0  0  0  0  0  0  0  0  0
  2  1  1  6
  2  9  1  0
  3  2  1  0
  4  3  1  0
  5  4  2  0
  6  5  1  0
  7  6  1  0
  7  8  2  0
  8  4  1  0
  9 11  1  0
  9 10  2  0
 11 12  1  0
 12 13  1  1
 13 14  1  0
 14 19  2  0
 15 16  2  0
 15 14  1  0
 16 17  1  0
 17 18  2  0
 19 18  1  0
 20 12  1  0
 20 21  2  0
 22 20  1  0
 23 22  1  0
 23 24  1  1
 24 25  1  0
 26 23  1  0
 27 26  2  0
 28 26  1  0
M  END
$$$$
