HFC.pdb
     RDKit          3D

 28 29  0  0  1  0  0  0  0  0999 V2000
   10.8759  -14.0857   20.5875 N   0  0  0  0  0  0  0  0  0  0  0  0
    9.6015  -14.4713   21.1578 C   0  0  1  0  0  0  0  0  0  0  0  0
    9.0227  -15.6027   20.3072 C   0  0  0  0  0  0  0  0  0  0  0  0
    8.5018  -14.9618   19.0700 C   0  0  0  0  0  0  0  0  0  0  0  0
    8.5580  -13.6420   18.7282 C   0  0  0  0  0  0  0  0  0  0  0  0
    7.9655  -13.4713   17.5120 N   0  0  0  0  0  0  0  0  0  0  0  0
    7.5524  -14.6782   17.1178 C   0  0  0  0  0  0  0  0  0  0  0  0
    7.8760  -15.5975   18.0647 N   0  0  0  0  0  0  0  0  0  0  0  0
    9.7592  -14.8979   22.5800 C   0  0  0  0  0  0  0  0  0  0  0  0
   10.8595  -15.2024   23.0770 O   0  0  0  0  0  0  0  0  0  0  0  0
    8.6147  -14.9573   23.3904 N   0  0  0  0  0  0  0  0  0  0  0  0
    8.6168  -15.3458   24.7786 C   0  0  1  0  0  0  0  0  0  0  0  0
    7.2094  -15.0350   25.3086 C   0  0  0  0  0  0  0  0  0  0  0  0
    7.1463  -13.7260   25.9489 C   0  0  0  0  0  0  0  0  0  0  0  0
    8.1596  -13.2900   26.7700 C   0  0  0  0  0  0  0  0  0  0  0  0
    8.0631  -12.0570   27.3512 C   0  0  0  0  0  0  0  0  0  0  0  0
    6.9687  -11.2505   27.1252 C   0  0  0  0  0  0  0  0  0  0  0  0
    5.9423  -11.6669   26.3064 C   0  0  0  0  0  0  0  0  0  0  0  0
    6.0586  -12.9145   25.7293 C   0  0  0  0  0  0  0  0  0  0  0  0
    8.9086  -16.8021   24.9397 C   0  0  0  0  0  0  0  0  0  0  0  0
    8.1659  -17.6762   24.3879 O   0  0  0  0  0  0  0  0  0  0  0  0
    9.9975  -17.2817   25.6945 N   0  0  0  0  0  0  0  0  0  0  0  0
   10.3798  -18.6632   25.7948 C   0  0  1  0  0  0  0  0  0  0  0  0
   11.7612  -18.9296   25.2475 C   0  0  0  0  0  0  0  0  0  0  0  0
   12.9099  -17.7978   26.0809 S   0  0  0  0  0  0  0  0  0  0  0  0
   10.2223  -19.2112   27.1553 C   0  0  0  0  0  0  0  0  0  0  0  0
    9.8841  -18.4266   28.0711 O   0  0  0  0  0  0  0  0  0  0  0  0
   10.4263  -20.5396   27.4778 O   0  0  0  0  0  0  0  0  0  0  0  0
  2  1  1  6
  2  9  1  0
  3  2  1  0
  4  3  1  0
  5  4  2  0
  6  5  1  0
  7  6  1  0
  7  8  2  0
  8  4  1  0
  9 11  1  0
  9 10  2  0
 11 12  1  0
 12 13  1  6
 13 14  1  0
 14 19  2  0
 15 16  2  0
 15 14  1  0
 16 17  1  0
 17 18  2  0
 19 18  1  0
 20 12  1  0
 20 21  2  0
 22 20  1  0
 23 22  1  0
 23 24  1  1
 24 25  1  0
 26 23  1  0
 27 26  2  0
 28 26  1  0
M  END
$$$$
