HFC.pdb
     RDKit          3D

 28 29  0  0  1  0  0  0  0  0999 V2000
    8.8163  -17.1989   20.3473 N   0  0  0  0  0  0  0  0  0  0  0  0
   10.1420  -16.6561   20.5616 C   0  0  1  0  0  0  0  0  0  0  0  0
   10.5558  -15.8992   19.2990 C   0  0  0  0  0  0  0  0  0  0  0  0
    9.4191  -14.9984   18.9684 C   0  0  0  0  0  0  0  0  0  0  0  0
    9.3157  -13.6611   19.2188 C   0  0  0  0  0  0  0  0  0  0  0  0
    8.1136  -13.2131   18.7565 N   0  0  0  0  0  0  0  0  0  0  0  0
    7.4914  -14.2702   18.2293 C   0  0  0  0  0  0  0  0  0  0  0  0
    8.2823  -15.3680   18.3540 N   0  0  0  0  0  0  0  0  0  0  0  0
   10.1662  -15.7593   21.7552 C   0  0  0  0  0  0  0  0  0  0  0  0
   11.1627  -15.0845   22.0744 O   0  0  0  0  0  0  0  0  0  0  0  0
    9.0130  -15.6753   22.5511 N   0  0  0  0  0  0  0  0  0  0  0  0
    8.9260  -14.9380   23.7867 C   0  0  1  0  0  0  0  0  0  0  0  0
    7.4345  -14.6405   23.9996 C   0  0  0  0  0  0  0  0  0  0  0  0
    7.2179  -13.7061   25.0984 C   0  0  0  0  0  0  0  0  0  0  0  0
    6.5195  -14.0835   26.2213 C   0  0  0  0  0  0  0  0  0  0  0  0
    6.3380  -13.1786   27.2292 C   0  0  0  0  0  0  0  0  0  0  0  0
    6.8437  -11.9002   27.1337 C   0  0  0  0  0  0  0  0  0  0  0  0
    7.5462  -11.5008   26.0183 C   0  0  0  0  0  0  0  0  0  0  0  0
    7.7186  -12.4286   25.0122 C   0  0  0  0  0  0  0  0  0  0  0  0
    9.4534  -15.7319   24.9371 C   0  0  0  0  0  0  0  0  0  0  0  0
    9.3363  -16.9992   24.9570 O   0  0  0  0  0  0  0  0  0  0  0  0
   10.0960  -15.1380   26.0415 N   0  0  0  0  0  0  0  0  0  0  0  0
   10.7133  -15.8631   27.1176 C   0  0  1  0  0  0  0  0  0  0  0  0
   11.2627  -14.9582   28.1938 C   0  0  0  0  0  0  0  0  0  0  0  0
   10.0279  -13.6654   28.5078 S   0  0  0  0  0  0  0  0  0  0  0  0
    9.8439  -16.9112   27.6845 C   0  0  0  0  0  0  0  0  0  0  0  0
    8.6268  -16.8904   27.3897 O   0  0  0  0  0  0  0  0  0  0  0  0
   10.2943  -17.9144   28.5217 O   0  0  0  0  0  0  0  0  0  0  0  0
  2  1  1  6
  2  9  1  0
  3  2  1  0
  4  3  1  0
  5  4  2  0
  6  5  1  0
  7  6  1  0
  7  8  2  0
  8  4  1  0
  9 11  1  0
  9 10  2  0
 11 12  1  0
 12 13  1  1
 13 14  1  0
 14 19  2  0
 15 16  2  0
 15 14  1  0
 16 17  1  0
 17 18  2  0
 19 18  1  0
 20 12  1  0
 20 21  2  0
 22 20  1  0
 23 22  1  0
 23 24  1  1
 24 25  1  0
 26 23  1  0
 27 26  2  0
 28 26  1  0
M  END
$$$$
