HFC.pdb
     RDKit          3D

 28 29  0  0  1  0  0  0  0  0999 V2000
   10.4597  -17.0159   19.5532 N   0  0  0  0  0  0  0  0  0  0  0  0
    9.3503  -17.1870   20.4686 C   0  0  1  0  0  0  0  0  0  0  0  0
    9.1572  -18.6851   20.7071 C   0  0  0  0  0  0  0  0  0  0  0  0
    8.6792  -19.2487   19.4161 C   0  0  0  0  0  0  0  0  0  0  0  0
    7.3942  -19.3194   18.9627 C   0  0  0  0  0  0  0  0  0  0  0  0
    7.3877  -19.9076   17.7325 N   0  0  0  0  0  0  0  0  0  0  0  0
    8.6591  -20.1922   17.4407 C   0  0  0  0  0  0  0  0  0  0  0  0
    9.4576  -19.7928   18.4650 N   0  0  0  0  0  0  0  0  0  0  0  0
    9.6014  -16.4686   21.7532 C   0  0  0  0  0  0  0  0  0  0  0  0
   10.7073  -16.4717   22.3252 O   0  0  0  0  0  0  0  0  0  0  0  0
    8.5418  -15.7591   22.3399 N   0  0  0  0  0  0  0  0  0  0  0  0
    8.6283  -15.0511   23.5926 C   0  0  1  0  0  0  0  0  0  0  0  0
    7.4000  -14.1309   23.6460 C   0  0  0  0  0  0  0  0  0  0  0  0
    7.2844  -13.4525   24.9319 C   0  0  0  0  0  0  0  0  0  0  0  0
    8.0734  -12.3673   25.2333 C   0  0  0  0  0  0  0  0  0  0  0  0
    7.9348  -11.7589   26.4491 C   0  0  0  0  0  0  0  0  0  0  0  0
    7.0189  -12.2178   27.3709 C   0  0  0  0  0  0  0  0  0  0  0  0
    6.2183  -13.3029   27.0904 C   0  0  0  0  0  0  0  0  0  0  0  0
    6.3735  -13.9030   25.8579 C   0  0  0  0  0  0  0  0  0  0  0  0
    8.6092  -15.9893   24.7551 C   0  0  0  0  0  0  0  0  0  0  0  0
    7.6578  -16.8225   24.8991 O   0  0  0  0  0  0  0  0  0  0  0  0
    9.6198  -16.0062   25.7368 N   0  0  0  0  0  0  0  0  0  0  0  0
    9.7646  -17.0185   26.7463 C   0  0  1  0  0  0  0  0  0  0  0  0
   10.6784  -18.1424   26.3214 C   0  0  0  0  0  0  0  0  0  0  0  0
   12.3346  -17.4411   26.0764 S   0  0  0  0  0  0  0  0  0  0  0  0
   10.1521  -16.4746   28.0616 C   0  0  0  0  0  0  0  0  0  0  0  0
   10.4674  -15.2644   28.1292 O   0  0  0  0  0  0  0  0  0  0  0  0
   10.1874  -17.2228   29.2232 O   0  0  0  0  0  0  0  0  0  0  0  0
  2  1  1  6
  2  9  1  0
  3  2  1  0
  4  3  1  0
  5  4  2  0
  6  5  1  0
  7  6  1  0
  7  8  2  0
  8  4  1  0
  9 11  1  0
  9 10  2  0
 11 12  1  0
 12 13  1  1
 13 14  1  0
 14 19  2  0
 15 16  2  0
 15 14  1  0
 16 17  1  0
 17 18  2  0
 19 18  1  0
 20 12  1  0
 20 21  2  0
 22 20  1  0
 23 22  1  0
 23 24  1  6
 24 25  1  0
 26 23  1  0
 27 26  2  0
 28 26  1  0
M  END
$$$$
