KPG.pdb
     RDKit          3D

 21 21  0  0  1  0  0  0  0  0999 V2000
    6.5843  -18.4263   26.6655 N   0  0  0  0  0  0  0  0  0  0  0  0
    7.3627  -17.1963   26.7890 C   0  0  1  0  0  0  0  0  0  0  0  0
    8.8147  -17.5922   26.4823 C   0  0  0  0  0  0  0  0  0  0  0  0
    9.5952  -17.4698   27.7774 C   0  0  0  0  0  0  0  0  0  0  0  0
   10.2574  -18.7443   28.1760 C   0  0  0  0  0  0  0  0  0  0  0  0
   11.0317  -18.4899   29.4522 C   0  0  0  0  0  0  0  0  0  0  0  0
   11.5455  -19.7334   30.0169 N   0  0  0  0  0  0  0  0  0  0  0  0
    6.8553  -16.1554   25.8691 C   0  0  0  0  0  0  0  0  0  0  0  0
    6.0934  -16.5462   24.9322 O   0  0  0  0  0  0  0  0  0  0  0  0
    7.1449  -14.7854   25.9525 N   0  0  0  0  0  0  0  0  0  0  0  0
    7.8347  -14.1262   27.0314 C   0  0  0  0  0  0  0  0  0  0  0  0
    7.5992  -12.6553   26.8175 C   0  0  0  0  0  0  0  0  0  0  0  0
    6.4165  -12.6296   25.8892 C   0  0  0  0  0  0  0  0  0  0  0  0
    6.7707  -13.7949   24.9471 C   0  0  1  0  0  0  0  0  0  0  0  0
    7.9141  -13.3570   24.1353 C   0  0  0  0  0  0  0  0  0  0  0  0
    8.3529  -12.1789   24.1134 O   0  0  0  0  0  0  0  0  0  0  0  0
    8.5632  -14.3172   23.3279 N   0  0  0  0  0  0  0  0  0  0  0  0
    8.0244  -14.6851   22.0333 C   0  0  0  0  0  0  0  0  0  0  0  0
    8.9904  -14.2471   20.9945 C   0  0  0  0  0  0  0  0  0  0  0  0
    8.7265  -14.3867   19.7591 O   0  0  0  0  0  0  0  0  0  0  0  0
   10.1928  -13.6809   21.3169 O   0  0  0  0  0  0  0  0  0  0  0  0
  2  1  1  6
  3  2  1  0
  4  3  1  0
  5  4  1  0
  6  5  1  0
  7  6  1  0
  8  9  2  0
  8  2  1  0
 10  8  1  0
 11 10  1  0
 11 12  1  0
 13 12  1  0
 14 10  1  0
 14 13  1  0
 14 15  1  6
 16 15  2  0
 17 15  1  0
 18 17  1  0
 19 18  1  0
 19 21  1  0
 20 19  2  0
M  END
$$$$
