KPG.pdb
     RDKit          3D

 21 21  0  0  1  0  0  0  0  0999 V2000
    5.8687  -18.9786   19.7867 N   0  0  0  0  0  0  0  0  0  0  0  0
    5.9199  -17.8595   20.7242 C   0  0  1  0  0  0  0  0  0  0  0  0
    5.4700  -18.4312   22.0770 C   0  0  0  0  0  0  0  0  0  0  0  0
    6.4333  -19.5474   22.4339 C   0  0  0  0  0  0  0  0  0  0  0  0
    6.1291  -20.1744   23.7516 C   0  0  0  0  0  0  0  0  0  0  0  0
    7.2027  -21.2028   24.0393 C   0  0  0  0  0  0  0  0  0  0  0  0
    6.9376  -21.9104   25.2875 N   0  0  0  0  0  0  0  0  0  0  0  0
    7.2791  -17.2793   20.7807 C   0  0  0  0  0  0  0  0  0  0  0  0
    8.2043  -17.9416   20.2182 O   0  0  0  0  0  0  0  0  0  0  0  0
    7.6206  -16.0668   21.3978 N   0  0  0  0  0  0  0  0  0  0  0  0
    6.7349  -15.2175   22.1521 C   0  0  0  0  0  0  0  0  0  0  0  0
    7.4687  -13.9129   22.3086 C   0  0  0  0  0  0  0  0  0  0  0  0
    8.5237  -13.9832   21.2396 C   0  0  0  0  0  0  0  0  0  0  0  0
    8.9475  -15.4589   21.3566 C   0  0  1  0  0  0  0  0  0  0  0  0
    9.6700  -15.5974   22.6282 C   0  0  0  0  0  0  0  0  0  0  0  0
    9.1101  -15.7092   23.7484 O   0  0  0  0  0  0  0  0  0  0  0  0
   11.0821  -15.6059   22.5933 N   0  0  0  0  0  0  0  0  0  0  0  0
   11.8475  -16.2205   23.6600 C   0  0  0  0  0  0  0  0  0  0  0  0
   13.2863  -16.1174   23.3088 C   0  0  0  0  0  0  0  0  0  0  0  0
   14.1867  -16.3635   24.1714 O   0  0  0  0  0  0  0  0  0  0  0  0
   13.7016  -15.7571   22.0566 O   0  0  0  0  0  0  0  0  0  0  0  0
  2  1  1  6
  3  2  1  0
  4  3  1  0
  5  4  1  0
  6  5  1  0
  7  6  1  0
  8  9  2  0
  8  2  1  0
 10  8  1  0
 11 10  1  0
 11 12  1  0
 13 12  1  0
 14 10  1  0
 14 13  1  0
 14 15  1  1
 16 15  2  0
 17 15  1  0
 18 17  1  0
 19 18  1  0
 19 21  1  0
 20 19  2  0
M  END
$$$$
