KPG.pdb
     RDKit          3D

 21 21  0  0  1  0  0  0  0  0999 V2000
    5.6680  -18.4310   20.2423 N   0  0  0  0  0  0  0  0  0  0  0  0
    5.8988  -17.1339   20.8735 C   0  0  1  0  0  0  0  0  0  0  0  0
    5.6311  -17.3480   22.3707 C   0  0  0  0  0  0  0  0  0  0  0  0
    6.5093  -18.4996   22.8223 C   0  0  0  0  0  0  0  0  0  0  0  0
    6.3311  -18.8315   24.2645 C   0  0  0  0  0  0  0  0  0  0  0  0
    7.3663  -19.8721   24.6365 C   0  0  0  0  0  0  0  0  0  0  0  0
    7.2365  -20.2729   26.0334 N   0  0  0  0  0  0  0  0  0  0  0  0
    7.2726  -16.6545   20.6088 C   0  0  0  0  0  0  0  0  0  0  0  0
    8.0810  -17.4937   20.1055 O   0  0  0  0  0  0  0  0  0  0  0  0
    7.7451  -15.3589   20.8650 N   0  0  0  0  0  0  0  0  0  0  0  0
    7.0014  -14.2882   21.4773 C   0  0  0  0  0  0  0  0  0  0  0  0
    7.8097  -13.0441   21.2246 C   0  0  0  0  0  0  0  0  0  0  0  0
    8.7190  -13.4497   20.0978 C   0  0  0  0  0  0  0  0  0  0  0  0
    9.0838  -14.8819   20.5300 C   0  0  1  0  0  0  0  0  0  0  0  0
    9.9516  -14.7653   21.7097 C   0  0  0  0  0  0  0  0  0  0  0  0
    9.5424  -14.4578   22.8581 O   0  0  0  0  0  0  0  0  0  0  0  0
   11.3326  -15.0137   21.5466 N   0  0  0  0  0  0  0  0  0  0  0  0
   12.1085  -15.6207   22.6101 C   0  0  0  0  0  0  0  0  0  0  0  0
   13.5044  -15.7730   22.1283 C   0  0  0  0  0  0  0  0  0  0  0  0
   13.7802  -15.6815   20.8910 O   0  0  0  0  0  0  0  0  0  0  0  0
   14.5431  -16.0158   22.9843 O   0  0  0  0  0  0  0  0  0  0  0  0
  2  1  1  6
  3  2  1  0
  4  3  1  0
  5  4  1  0
  6  5  1  0
  7  6  1  0
  8  9  2  0
  8  2  1  0
 10  8  1  0
 11 10  1  0
 11 12  1  0
 13 12  1  0
 14 10  1  0
 14 13  1  0
 14 15  1  1
 16 15  2  0
 17 15  1  0
 18 17  1  0
 19 18  1  0
 19 21  1  0
 20 19  2  0
M  END
$$$$
