KPG.pdb
     RDKit          3D

 21 21  0  0  1  0  0  0  0  0999 V2000
    8.1838  -16.8123   15.6610 N   0  0  0  0  0  0  0  0  0  0  0  0
    7.8000  -16.0873   16.8697 C   0  0  1  0  0  0  0  0  0  0  0  0
    7.1908  -17.1395   17.8084 C   0  0  0  0  0  0  0  0  0  0  0  0
    8.2330  -18.2249   18.0005 C   0  0  0  0  0  0  0  0  0  0  0  0
    7.7546  -19.3387   18.8680 C   0  0  0  0  0  0  0  0  0  0  0  0
    8.8947  -20.3203   19.0402 C   0  0  0  0  0  0  0  0  0  0  0  0
    8.5541  -21.3646   20.0006 N   0  0  0  0  0  0  0  0  0  0  0  0
    8.9669  -15.4043   17.4691 C   0  0  0  0  0  0  0  0  0  0  0  0
   10.1092  -15.7336   17.0244 O   0  0  0  0  0  0  0  0  0  0  0  0
    8.9097  -14.4304   18.4769 N   0  0  0  0  0  0  0  0  0  0  0  0
    7.7221  -13.9749   19.1529 C   0  0  0  0  0  0  0  0  0  0  0  0
    8.1309  -12.7217   19.8791 C   0  0  0  0  0  0  0  0  0  0  0  0
    9.4048  -12.3246   19.1860 C   0  0  0  0  0  0  0  0  0  0  0  0
   10.0647  -13.7028   18.9950 C   0  0  1  0  0  0  0  0  0  0  0  0
   10.4735  -14.1700   20.3265 C   0  0  0  0  0  0  0  0  0  0  0  0
    9.7124  -14.7704   21.1272 O   0  0  0  0  0  0  0  0  0  0  0  0
   11.8043  -13.9311   20.7355 N   0  0  0  0  0  0  0  0  0  0  0  0
   12.7919  -14.9920   20.7062 C   0  0  0  0  0  0  0  0  0  0  0  0
   12.7413  -15.7002   22.0100 C   0  0  0  0  0  0  0  0  0  0  0  0
   13.6137  -15.4770   22.9068 O   0  0  0  0  0  0  0  0  0  0  0  0
   11.7655  -16.6135   22.3002 O   0  0  0  0  0  0  0  0  0  0  0  0
  2  1  1  6
  3  2  1  0
  4  3  1  0
  5  4  1  0
  6  5  1  0
  7  6  1  0
  8  9  2  0
  8  2  1  0
 10  8  1  0
 11 10  1  0
 11 12  1  0
 13 12  1  0
 14 10  1  0
 14 13  1  0
 14 15  1  1
 16 15  2  0
 17 15  1  0
 18 17  1  0
 19 18  1  0
 19 21  1  0
 20 19  2  0
M  END
$$$$
