KPG.pdb
     RDKit          3D

 21 21  0  0  1  0  0  0  0  0999 V2000
    6.5039  -18.3172   18.9535 N   0  0  0  0  0  0  0  0  0  0  0  0
    6.2486  -17.2989   19.9693 C   0  0  1  0  0  0  0  0  0  0  0  0
    5.3605  -17.9778   21.0227 C   0  0  0  0  0  0  0  0  0  0  0  0
    4.0774  -18.3914   20.3272 C   0  0  0  0  0  0  0  0  0  0  0  0
    3.4288  -19.5723   20.9649 C   0  0  0  0  0  0  0  0  0  0  0  0
    1.9639  -19.2479   21.1693 C   0  0  0  0  0  0  0  0  0  0  0  0
    1.2301  -20.4048   21.6714 N   0  0  0  0  0  0  0  0  0  0  0  0
    7.5155  -16.7930   20.5405 C   0  0  0  0  0  0  0  0  0  0  0  0
    8.5618  -17.4662   20.2893 O   0  0  0  0  0  0  0  0  0  0  0  0
    7.6494  -15.6391   21.3268 N   0  0  0  0  0  0  0  0  0  0  0  0
    6.6014  -14.7069   21.6541 C   0  0  0  0  0  0  0  0  0  0  0  0
    7.3016  -13.4986   22.2150 C   0  0  0  0  0  0  0  0  0  0  0  0
    8.7171  -13.6711   21.7379 C   0  0  0  0  0  0  0  0  0  0  0  0
    8.8987  -15.1877   21.9329 C   0  0  1  0  0  0  0  0  0  0  0  0
    8.9421  -15.4311   23.3810 C   0  0  0  0  0  0  0  0  0  0  0  0
    8.0072  -15.1463   24.1719 O   0  0  0  0  0  0  0  0  0  0  0  0
   10.1058  -16.0220   23.9215 N   0  0  0  0  0  0  0  0  0  0  0  0
   11.3646  -15.3033   23.9375 C   0  0  0  0  0  0  0  0  0  0  0  0
   12.4621  -16.3031   23.9491 C   0  0  0  0  0  0  0  0  0  0  0  0
   12.8282  -16.8560   25.0333 O   0  0  0  0  0  0  0  0  0  0  0  0
   13.1201  -16.6689   22.8073 O   0  0  0  0  0  0  0  0  0  0  0  0
  2  1  1  6
  3  2  1  0
  4  3  1  0
  5  4  1  0
  6  5  1  0
  7  6  1  0
  8  9  2  0
  8  2  1  0
 10  8  1  0
 11 10  1  0
 11 12  1  0
 13 12  1  0
 14 10  1  0
 14 13  1  0
 14 15  1  1
 16 15  2  0
 17 15  1  0
 18 17  1  0
 19 18  1  0
 19 21  1  0
 20 19  2  0
M  END
$$$$
