VTV.pdb
     RDKit          3D

 22 21  0  0  1  0  0  0  0  0999 V2000
    7.2375  -12.8953   21.4496 C   0  0  0  0  0  0  0  0  0  0  0  0
    8.3436  -13.4461   20.5855 C   0  0  2  0  0  0  0  0  0  0  0  0
    8.2584  -12.8290   19.2071 C   0  0  0  0  0  0  0  0  0  0  0  0
    8.2829  -14.9422   20.4547 C   0  0  2  0  0  0  0  0  0  0  0  0
    7.0617  -15.3803   19.7848 N   0  0  0  0  0  0  0  0  0  0  0  0
    8.3481  -15.6404   21.7472 C   0  0  0  0  0  0  0  0  0  0  0  0
    7.3727  -15.8663   22.4759 O   0  0  0  0  0  0  0  0  0  0  0  0
   11.0338  -18.8161   24.3059 C   0  0  0  0  0  0  0  0  0  0  0  0
   10.8307  -17.9305   23.1157 C   0  0  1  0  0  0  0  0  0  0  0  0
   10.4461  -18.6574   21.9898 O   0  0  0  0  0  0  0  0  0  0  0  0
    9.8299  -16.8126   23.4134 C   0  0  2  0  0  0  0  0  0  0  0  0
    9.6316  -16.0933   22.1982 N   0  0  0  0  0  0  0  0  0  0  0  0
   10.2447  -15.9899   24.5506 C   0  0  0  0  0  0  0  0  0  0  0  0
   11.1537  -15.1110   24.4266 O   0  0  0  0  0  0  0  0  0  0  0  0
    8.5993  -13.3901   26.5761 C   0  0  0  0  0  0  0  0  0  0  0  0
    9.1302  -14.3951   27.5959 C   0  0  2  0  0  0  0  0  0  0  0  0
    9.8593  -13.5506   28.6276 C   0  0  0  0  0  0  0  0  0  0  0  0
   10.1322  -15.2913   26.9682 C   0  0  2  0  0  0  0  0  0  0  0  0
    9.7098  -16.0683   25.8643 N   0  0  0  0  0  0  0  0  0  0  0  0
   10.6594  -16.2104   28.0098 C   0  0  0  0  0  0  0  0  0  0  0  0
   10.2885  -17.4010   28.1599 O   0  0  0  0  0  0  0  0  0  0  0  0
   11.6425  -15.7862   28.9253 O   0  0  0  0  0  0  0  0  0  0  0  0
  2  1  1  1
  2  3  1  0
  4  5  1  1
  4  6  1  0
  4  2  1  0
  6  7  2  0
  9  8  1  1
  9 11  1  0
 10  9  1  0
 11 13  1  0
 11 12  1  6
 12  6  1  0
 13 14  2  0
 13 19  1  0
 16 17  1  1
 16 15  1  0
 18 16  1  0
 18 19  1  6
 20 18  1  0
 20 22  1  0
 21 20  2  0
M  END
$$$$
