VTV.pdb
     RDKit          3D

 22 21  0  0  1  0  0  0  0  0999 V2000
   13.2234  -16.6916   22.8934 C   0  0  0  0  0  0  0  0  0  0  0  0
   12.3010  -17.8108   22.4808 C   0  0  2  0  0  0  0  0  0  0  0  0
   13.1218  -19.0227   22.0992 C   0  0  0  0  0  0  0  0  0  0  0  0
   11.4193  -17.4346   21.3232 C   0  0  2  0  0  0  0  0  0  0  0  0
   12.1912  -17.1964   20.1068 N   0  0  0  0  0  0  0  0  0  0  0  0
   10.6149  -16.2296   21.5746 C   0  0  0  0  0  0  0  0  0  0  0  0
   10.9840  -15.0728   21.3319 O   0  0  0  0  0  0  0  0  0  0  0  0
    7.0373  -15.6733   20.4540 C   0  0  0  0  0  0  0  0  0  0  0  0
    7.0590  -15.6583   21.9512 C   0  0  1  0  0  0  0  0  0  0  0  0
    6.5968  -16.8596   22.4871 O   0  0  0  0  0  0  0  0  0  0  0  0
    8.4508  -15.3194   22.4880 C   0  0  2  0  0  0  0  0  0  0  0  0
    9.3092  -16.4038   22.1409 N   0  0  0  0  0  0  0  0  0  0  0  0
    8.4266  -14.9903   23.9139 C   0  0  0  0  0  0  0  0  0  0  0  0
    9.1364  -15.6352   24.7473 O   0  0  0  0  0  0  0  0  0  0  0  0
    7.2924  -11.2866   25.7131 C   0  0  0  0  0  0  0  0  0  0  0  0
    6.7217  -12.5615   26.3304 C   0  0  2  0  0  0  0  0  0  0  0  0
    6.9321  -12.3946   27.8261 C   0  0  0  0  0  0  0  0  0  0  0  0
    7.5089  -13.7435   25.9009 C   0  0  2  0  0  0  0  0  0  0  0  0
    7.6476  -13.9631   24.5106 N   0  0  0  0  0  0  0  0  0  0  0  0
    6.9026  -14.9576   26.5058 C   0  0  0  0  0  0  0  0  0  0  0  0
    5.8369  -15.4916   26.1099 O   0  0  0  0  0  0  0  0  0  0  0  0
    7.5085  -15.6063   27.5997 O   0  0  0  0  0  0  0  0  0  0  0  0
  2  1  1  6
  2  3  1  0
  4  5  1  6
  4  6  1  0
  4  2  1  0
  6  7  2  0
  9  8  1  6
  9 11  1  0
 10  9  1  0
 11 13  1  0
 11 12  1  1
 12  6  1  0
 13 14  2  0
 13 19  1  0
 16 17  1  1
 16 15  1  0
 18 16  1  0
 18 19  1  6
 20 18  1  0
 20 22  1  0
 21 20  2  0
M  END
$$$$
