VTV.pdb
     RDKit          3D

 22 21  0  0  1  0  0  0  0  0999 V2000
    7.6762  -12.4369   19.5033 C   0  0  0  0  0  0  0  0  0  0  0  0
    9.0167  -13.1267   19.4761 C   0  0  2  0  0  0  0  0  0  0  0  0
    9.8226  -12.6114   18.3043 C   0  0  0  0  0  0  0  0  0  0  0  0
    8.8947  -14.6205   19.3650 C   0  0  2  0  0  0  0  0  0  0  0  0
    8.2352  -15.0214   18.1254 N   0  0  0  0  0  0  0  0  0  0  0  0
    8.1446  -15.2253   20.4757 C   0  0  0  0  0  0  0  0  0  0  0  0
    6.9192  -15.4033   20.4839 O   0  0  0  0  0  0  0  0  0  0  0  0
    8.1042  -17.9872   24.4105 C   0  0  0  0  0  0  0  0  0  0  0  0
    8.6575  -17.4888   23.1115 C   0  0  1  0  0  0  0  0  0  0  0  0
    8.2765  -18.2987   22.0424 O   0  0  0  0  0  0  0  0  0  0  0  0
    8.2686  -16.0310   22.8593 C   0  0  2  0  0  0  0  0  0  0  0  0
    8.8825  -15.6398   21.6331 N   0  0  0  0  0  0  0  0  0  0  0  0
    8.5817  -15.1714   24.0018 C   0  0  0  0  0  0  0  0  0  0  0  0
    9.7807  -14.8469   24.2685 O   0  0  0  0  0  0  0  0  0  0  0  0
    7.3185  -11.7578   27.3620 C   0  0  0  0  0  0  0  0  0  0  0  0
    6.8470  -12.7036   26.2596 C   0  0  2  0  0  0  0  0  0  0  0  0
    5.7086  -13.4911   26.8866 C   0  0  0  0  0  0  0  0  0  0  0  0
    7.9172  -13.6709   25.9128 C   0  0  2  0  0  0  0  0  0  0  0  0
    7.6332  -14.6227   24.9058 N   0  0  0  0  0  0  0  0  0  0  0  0
    8.3093  -14.4008   27.1460 C   0  0  0  0  0  0  0  0  0  0  0  0
    7.9146  -15.5556   27.4435 O   0  0  0  0  0  0  0  0  0  0  0  0
    9.1788  -13.8206   28.0904 O   0  0  0  0  0  0  0  0  0  0  0  0
  2  1  1  6
  2  3  1  0
  4  5  1  6
  4  6  1  0
  4  2  1  0
  6  7  2  0
  9  8  1  1
  9 11  1  0
 10  9  1  0
 11 13  1  0
 11 12  1  6
 12  6  1  0
 13 14  2  0
 13 19  1  0
 16 17  1  1
 16 15  1  0
 18 16  1  0
 18 19  1  6
 20 18  1  0
 20 22  1  0
 21 20  2  0
M  END
$$$$
