VTV.pdb
     RDKit          3D

 22 21  0  0  1  0  0  0  0  0999 V2000
    2.3591  -22.2388   20.7321 C   0  0  0  0  0  0  0  0  0  0  0  0
    3.7571  -21.7440   21.0046 C   0  0  2  0  0  0  0  0  0  0  0  0
    3.8478  -21.2584   22.4344 C   0  0  0  0  0  0  0  0  0  0  0  0
    4.1639  -20.6280   20.0838 C   0  0  2  0  0  0  0  0  0  0  0  0
    4.0574  -21.0154   18.6799 N   0  0  0  0  0  0  0  0  0  0  0  0
    5.5415  -20.1650   20.3071 C   0  0  0  0  0  0  0  0  0  0  0  0
    6.5288  -20.9072   20.3944 O   0  0  0  0  0  0  0  0  0  0  0  0
    7.3982  -18.0900   18.1683 C   0  0  0  0  0  0  0  0  0  0  0  0
    7.3425  -17.2878   19.4314 C   0  0  1  0  0  0  0  0  0  0  0  0
    6.4253  -16.2417   19.3396 O   0  0  0  0  0  0  0  0  0  0  0  0
    7.0448  -18.1717   20.6439 C   0  0  2  0  0  0  0  0  0  0  0  0
    5.7601  -18.7535   20.4328 N   0  0  0  0  0  0  0  0  0  0  0  0
    7.1867  -17.4432   21.9054 C   0  0  0  0  0  0  0  0  0  0  0  0
    6.2848  -16.6426   22.3047 O   0  0  0  0  0  0  0  0  0  0  0  0
    6.8164  -18.0230   25.3926 C   0  0  0  0  0  0  0  0  0  0  0  0
    8.2559  -17.5283   25.2687 C   0  0  2  0  0  0  0  0  0  0  0  0
    8.4164  -16.5197   26.3939 C   0  0  0  0  0  0  0  0  0  0  0  0
    8.4462  -16.8004   23.9900 C   0  0  2  0  0  0  0  0  0  0  0  0
    8.2924  -17.5369   22.7923 N   0  0  0  0  0  0  0  0  0  0  0  0
    9.8020  -16.1926   23.9919 C   0  0  0  0  0  0  0  0  0  0  0  0
   10.7454  -16.5589   23.2479 O   0  0  0  0  0  0  0  0  0  0  0  0
   10.1227  -15.1305   24.8600 O   0  0  0  0  0  0  0  0  0  0  0  0
  2  1  1  6
  2  3  1  0
  4  5  1  6
  4  6  1  0
  4  2  1  0
  6  7  2  0
  9  8  1  6
  9 11  1  0
 10  9  1  0
 11 13  1  0
 11 12  1  6
 12  6  1  0
 13 14  2  0
 13 19  1  0
 16 17  1  1
 16 15  1  0
 18 16  1  0
 18 19  1  6
 20 18  1  0
 20 22  1  0
 21 20  2  0
M  END
$$$$
