VTV.pdb
     RDKit          3D

 22 21  0  0  1  0  0  0  0  0999 V2000
    8.7182  -12.8588   17.8182 C   0  0  0  0  0  0  0  0  0  0  0  0
    8.0867  -13.4230   19.0658 C   0  0  2  0  0  0  0  0  0  0  0  0
    8.5052  -12.5934   20.2594 C   0  0  0  0  0  0  0  0  0  0  0  0
    8.4698  -14.8558   19.3091 C   0  0  2  0  0  0  0  0  0  0  0  0
    8.0690  -15.7211   18.2033 N   0  0  0  0  0  0  0  0  0  0  0  0
    7.8820  -15.4128   20.5365 C   0  0  0  0  0  0  0  0  0  0  0  0
    6.6906  -15.7234   20.6690 O   0  0  0  0  0  0  0  0  0  0  0  0
    8.5310  -18.4202   22.1559 C   0  0  0  0  0  0  0  0  0  0  0  0
    8.9333  -17.4200   23.1950 C   0  0  1  0  0  0  0  0  0  0  0  0
   10.3194  -17.3079   23.2957 O   0  0  0  0  0  0  0  0  0  0  0  0
    8.2914  -16.0555   22.9376 C   0  0  2  0  0  0  0  0  0  0  0  0
    8.7481  -15.6118   21.6617 N   0  0  0  0  0  0  0  0  0  0  0  0
    8.5329  -15.1169   24.0343 C   0  0  0  0  0  0  0  0  0  0  0  0
    9.5672  -14.3793   24.0497 O   0  0  0  0  0  0  0  0  0  0  0  0
    5.9466  -12.5738   25.5866 C   0  0  0  0  0  0  0  0  0  0  0  0
    6.6992  -13.2722   26.7169 C   0  0  2  0  0  0  0  0  0  0  0  0
    7.1957  -12.1441   27.6058 C   0  0  0  0  0  0  0  0  0  0  0  0
    7.8923  -13.9778   26.1878 C   0  0  2  0  0  0  0  0  0  0  0  0
    7.6850  -14.9248   25.1578 N   0  0  0  0  0  0  0  0  0  0  0  0
    8.5747  -14.6604   27.3173 C   0  0  0  0  0  0  0  0  0  0  0  0
    8.5729  -15.9029   27.5016 O   0  0  0  0  0  0  0  0  0  0  0  0
    9.2906  -13.9285   28.2849 O   0  0  0  0  0  0  0  0  0  0  0  0
  2  1  1  6
  2  3  1  0
  4  5  1  6
  4  6  1  0
  4  2  1  0
  6  7  2  0
  9  8  1  6
  9 11  1  0
 10  9  1  0
 11 13  1  0
 11 12  1  6
 12  6  1  0
 13 14  2  0
 13 19  1  0
 16 17  1  1
 16 15  1  0
 18 16  1  0
 18 19  1  6
 20 18  1  0
 20 22  1  0
 21 20  2  0
M  END
$$$$
