RPN.pdb
     RDKit          3D

 27 27  0  0  1  0  0  0  0  0999 V2000
   12.1545  -19.9991   12.7811 N   0  0  0  0  0  0  0  0  0  0  0  0
   11.9858  -18.6021   12.8858 C   0  0  0  0  0  0  0  0  0  0  0  0
   12.9910  -17.9093   13.3596 N   0  0  0  0  0  0  0  0  0  0  0  0
   10.7807  -17.9806   12.4885 N   0  0  0  0  0  0  0  0  0  0  0  0
    9.8330  -17.6104   13.5599 C   0  0  0  0  0  0  0  0  0  0  0  0
   10.6290  -17.3654   14.7896 C   0  0  0  0  0  0  0  0  0  0  0  0
    9.8917  -17.0368   16.0427 C   0  0  0  0  0  0  0  0  0  0  0  0
    9.5102  -15.5933   16.1405 C   0  0  2  0  0  0  0  0  0  0  0  0
   10.1156  -14.8361   15.0637 N   0  0  0  0  0  0  0  0  0  0  0  0
    9.8739  -15.0096   17.4441 C   0  0  0  0  0  0  0  0  0  0  0  0
   11.1073  -14.9542   17.7740 O   0  0  0  0  0  0  0  0  0  0  0  0
   12.9176  -16.9013   13.5571 N   0  0  0  0  0  0  0  0  0  0  0  0
    8.9277  -14.5055   18.3539 C   0  0  0  0  0  0  0  0  0  0  0  0
    7.4983  -14.4366   18.1202 C   0  0  0  0  0  0  0  0  0  0  0  0
    7.1492  -13.1172   18.8291 C   0  0  0  0  0  0  0  0  0  0  0  0
    7.9709  -13.1986   20.0622 C   0  0  1  0  0  0  0  0  0  0  0  0
    9.2096  -13.9560   19.6677 C   0  0  0  0  0  0  0  0  0  0  0  0
    9.5579  -15.0062   20.6550 O   0  0  0  0  0  0  0  0  0  0  0  0
    9.2668  -16.1968   20.3743 N   0  0  0  0  0  0  0  0  0  0  0  0
   11.9996  -17.6749   24.4578 C   0  0  0  0  0  0  0  0  0  0  0  0
   12.7691  -16.7588   23.6945 O   0  0  0  0  0  0  0  0  0  0  0  0
   14.0061  -16.7910   23.8101 C   0  0  0  0  0  0  0  0  0  0  0  0
   12.0971  -15.8196   22.8098 C   0  0  1  0  0  0  0  0  0  0  0  0
   10.5927  -15.8963   22.7743 N   0  0  0  0  0  0  0  0  0  0  0  0
   10.1909  -14.7778   21.8856 C   0  0  0  0  0  0  0  0  0  0  0  0
    9.9416  -15.7275   24.0854 O   0  0  0  0  0  0  0  0  0  0  0  0
    9.7563  -16.7921   24.9759 O   0  0  0  0  0  0  0  0  0  0  0  0
  2  1  1  0
  3  2  2  0
  4  2  1  0
  5  4  1  0
  6  5  1  0
  7  6  1  0
  8  7  1  0
  8  9  1  6
 10  8  1  0
 10 12  1  0
 11 10  2  0
 12 13  1  0
 13 14  1  0
 15 14  1  0
 16 12  1  0
 16 15  1  0
 16 17  1  1
 18 17  2  0
 19 20  1  0
 20 21  2  0
 23 22  1  6
 22 20  1  0
 23 24  1  0
 24 17  1  0
 25 23  1  0
 25 26  1  0
 27 25  2  0
M  END
$$$$
