RPN.pdb
     RDKit          3D

 27 27  0  0  1  0  0  0  0  0999 V2000
    6.3696  -13.0036   17.4043 N   0  0  0  0  0  0  0  0  0  0  0  0
    7.0834  -13.9657   16.6588 C   0  0  0  0  0  0  0  0  0  0  0  0
    7.4107  -13.6521   15.4302 N   0  0  0  0  0  0  0  0  0  0  0  0
    7.4333  -15.2133   17.2222 N   0  0  0  0  0  0  0  0  0  0  0  0
    7.0985  -15.4230   18.6460 C   0  0  0  0  0  0  0  0  0  0  0  0
    7.9400  -14.4920   19.4402 C   0  0  0  0  0  0  0  0  0  0  0  0
    7.8793  -14.5934   20.9260 C   0  0  0  0  0  0  0  0  0  0  0  0
    8.7836  -13.6244   21.6201 C   0  0  2  0  0  0  0  0  0  0  0  0
   10.0391  -13.5043   20.9069 N   0  0  0  0  0  0  0  0  0  0  0  0
    9.0267  -13.9994   23.0246 C   0  0  0  0  0  0  0  0  0  0  0  0
   10.1414  -14.5416   23.3356 O   0  0  0  0  0  0  0  0  0  0  0  0
    7.9325  -14.2971   14.8201 N   0  0  0  0  0  0  0  0  0  0  0  0
    8.0890  -13.7911   24.0515 C   0  0  0  0  0  0  0  0  0  0  0  0
    6.7354  -13.3072   23.8610 C   0  0  0  0  0  0  0  0  0  0  0  0
    6.5553  -12.4397   25.1182 C   0  0  0  0  0  0  0  0  0  0  0  0
    7.1947  -13.2730   26.1666 C   0  0  2  0  0  0  0  0  0  0  0  0
    8.3093  -14.0055   25.4703 C   0  0  0  0  0  0  0  0  0  0  0  0
    8.3365  -15.4449   25.8253 O   0  0  0  0  0  0  0  0  0  0  0  0
    7.5137  -16.2066   25.2560 N   0  0  0  0  0  0  0  0  0  0  0  0
   10.4725  -20.1089   26.4692 C   0  0  0  0  0  0  0  0  0  0  0  0
   11.1449  -19.0611   25.7880 O   0  0  0  0  0  0  0  0  0  0  0  0
   12.1539  -19.3465   25.1207 C   0  0  0  0  0  0  0  0  0  0  0  0
   10.6413  -17.7001   25.8888 C   0  0  1  0  0  0  0  0  0  0  0  0
    9.4461  -17.4958   26.7832 N   0  0  0  0  0  0  0  0  0  0  0  0
    9.2122  -16.0306   26.7512 C   0  0  0  0  0  0  0  0  0  0  0  0
    9.6487  -17.9207   28.1796 O   0  0  0  0  0  0  0  0  0  0  0  0
    9.5186  -19.2541   28.5865 O   0  0  0  0  0  0  0  0  0  0  0  0
  2  1  1  0
  3  2  2  0
  4  2  1  0
  5  4  1  0
  6  5  1  0
  7  6  1  0
  8  7  1  0
  8  9  1  6
 10  8  1  0
 10 12  1  0
 11 10  2  0
 12 13  1  0
 13 14  1  0
 15 14  1  0
 16 12  1  0
 16 15  1  0
 16 17  1  1
 18 17  2  0
 19 20  1  0
 20 21  2  0
 23 22  1  6
 22 20  1  0
 23 24  1  0
 24 17  1  0
 25 23  1  0
 25 26  1  0
 27 25  2  0
M  END
$$$$
