RPN.pdb
     RDKit          3D

 27 27  0  0  1  0  0  0  0  0999 V2000
    6.2905  -19.9631   15.1790 N   0  0  0  0  0  0  0  0  0  0  0  0
    7.1272  -20.8031   15.9440 C   0  0  0  0  0  0  0  0  0  0  0  0
    7.4947  -21.9381   15.4040 N   0  0  0  0  0  0  0  0  0  0  0  0
    7.5529  -20.4271   17.2377 N   0  0  0  0  0  0  0  0  0  0  0  0
    7.0330  -19.1503   17.7693 C   0  0  0  0  0  0  0  0  0  0  0  0
    7.5451  -18.0653   16.8941 C   0  0  0  0  0  0  0  0  0  0  0  0
    7.1943  -16.6605   17.2483 C   0  0  0  0  0  0  0  0  0  0  0  0
    8.3340  -15.7069   17.0744 C   0  0  2  0  0  0  0  0  0  0  0  0
    9.3089  -16.2473   16.1487 N   0  0  0  0  0  0  0  0  0  0  0  0
    8.9777  -15.3707   18.3570 C   0  0  0  0  0  0  0  0  0  0  0  0
   10.1073  -15.8979   18.6386 O   0  0  0  0  0  0  0  0  0  0  0  0
    8.1413  -22.5860   15.8759 N   0  0  0  0  0  0  0  0  0  0  0  0
    8.4104  -14.4927   19.2975 C   0  0  0  0  0  0  0  0  0  0  0  0
    7.1790  -13.7502   19.1103 C   0  0  0  0  0  0  0  0  0  0  0  0
    7.5182  -12.4345   19.8310 C   0  0  0  0  0  0  0  0  0  0  0  0
    8.2374  -12.9158   21.0367 C   0  0  2  0  0  0  0  0  0  0  0  0
    8.9563  -14.1638   20.6018 C   0  0  0  0  0  0  0  0  0  0  0  0
    8.7921  -15.2691   21.5765 O   0  0  0  0  0  0  0  0  0  0  0  0
    8.0473  -16.2302   21.2558 N   0  0  0  0  0  0  0  0  0  0  0  0
   11.7996  -18.7707   23.6873 C   0  0  0  0  0  0  0  0  0  0  0  0
   11.9488  -18.0248   22.4892 O   0  0  0  0  0  0  0  0  0  0  0  0
   12.8130  -18.3893   21.6737 C   0  0  0  0  0  0  0  0  0  0  0  0
   11.0974  -16.8692   22.2524 C   0  0  1  0  0  0  0  0  0  0  0  0
   10.0760  -16.5639   23.3172 N   0  0  0  0  0  0  0  0  0  0  0  0
    9.4050  -15.3305   22.8366 C   0  0  0  0  0  0  0  0  0  0  0  0
   10.6435  -16.3138   24.6539 O   0  0  0  0  0  0  0  0  0  0  0  0
   11.6089  -15.3271   24.8886 O   0  0  0  0  0  0  0  0  0  0  0  0
  2  1  1  0
  3  2  2  0
  4  2  1  0
  5  4  1  0
  6  5  1  0
  7  6  1  0
  8  7  1  0
  8  9  1  6
 10  8  1  0
 10 12  1  0
 11 10  2  0
 12 13  1  0
 13 14  1  0
 15 14  1  0
 16 12  1  0
 16 15  1  0
 16 17  1  1
 18 17  2  0
 19 20  1  0
 20 21  2  0
 23 22  1  6
 22 20  1  0
 23 24  1  0
 24 17  1  0
 25 23  1  0
 25 26  1  0
 27 25  2  0
M  END
$$$$
