RPN.pdb
     RDKit          3D

 27 27  0  0  1  0  0  0  0  0999 V2000
    8.9244  -17.0523   18.4226 N   0  0  0  0  0  0  0  0  0  0  0  0
    7.9780  -18.0787   18.6270 C   0  0  0  0  0  0  0  0  0  0  0  0
    7.7353  -18.8812   17.6211 N   0  0  0  0  0  0  0  0  0  0  0  0
    7.3257  -18.2331   19.8708 N   0  0  0  0  0  0  0  0  0  0  0  0
    6.6403  -17.0449   20.4198 C   0  0  0  0  0  0  0  0  0  0  0  0
    7.4170  -16.5930   21.6023 C   0  0  0  0  0  0  0  0  0  0  0  0
    6.7896  -15.5857   22.5043 C   0  0  0  0  0  0  0  0  0  0  0  0
    7.5340  -14.2885   22.5469 C   0  0  2  0  0  0  0  0  0  0  0  0
    8.4391  -14.1874   21.4199 N   0  0  0  0  0  0  0  0  0  0  0  0
    8.2698  -14.1114   23.8117 C   0  0  0  0  0  0  0  0  0  0  0  0
    9.4967  -14.4648   23.8677 O   0  0  0  0  0  0  0  0  0  0  0  0
    6.9950  -19.5962   17.6562 N   0  0  0  0  0  0  0  0  0  0  0  0
    7.6891  -13.5694   24.9720 C   0  0  0  0  0  0  0  0  0  0  0  0
    6.3443  -13.0343   25.0612 C   0  0  0  0  0  0  0  0  0  0  0  0
    6.5591  -11.8644   26.0361 C   0  0  0  0  0  0  0  0  0  0  0  0
    7.4817  -12.4570   27.0362 C   0  0  2  0  0  0  0  0  0  0  0  0
    8.3282  -13.4356   26.2685 C   0  0  0  0  0  0  0  0  0  0  0  0
    8.4535  -14.7349   26.9719 O   0  0  0  0  0  0  0  0  0  0  0  0
    7.5284  -15.5741   26.8262 N   0  0  0  0  0  0  0  0  0  0  0  0
   11.8189  -17.8261   25.4599 C   0  0  0  0  0  0  0  0  0  0  0  0
   11.3664  -17.0574   26.5636 O   0  0  0  0  0  0  0  0  0  0  0  0
   12.1230  -16.1839   27.0211 C   0  0  0  0  0  0  0  0  0  0  0  0
   10.0469  -17.3102   27.1217 C   0  0  1  0  0  0  0  0  0  0  0  0
    9.6619  -16.4866   28.3232 N   0  0  0  0  0  0  0  0  0  0  0  0
    9.5283  -15.1070   27.7926 C   0  0  0  0  0  0  0  0  0  0  0  0
   10.6569  -16.4901   29.4102 O   0  0  0  0  0  0  0  0  0  0  0  0
   11.3270  -15.3311   29.8204 O   0  0  0  0  0  0  0  0  0  0  0  0
  2  1  1  0
  3  2  2  0
  4  2  1  0
  5  4  1  0
  6  5  1  0
  7  6  1  0
  8  7  1  0
  8  9  1  6
 10  8  1  0
 10 12  1  0
 11 10  2  0
 12 13  1  0
 13 14  1  0
 15 14  1  0
 16 12  1  0
 16 15  1  0
 16 17  1  1
 18 17  2  0
 19 20  1  0
 20 21  2  0
 23 22  1  6
 22 20  1  0
 23 24  1  0
 24 17  1  0
 25 23  1  0
 25 26  1  0
 27 25  2  0
M  END
$$$$
