RPN.pdb
     RDKit          3D

 27 27  0  0  1  0  0  0  0  0999 V2000
    7.1968  -15.2217   17.0835 N   0  0  0  0  0  0  0  0  0  0  0  0
    7.8249  -13.9608   17.0026 C   0  0  0  0  0  0  0  0  0  0  0  0
    8.5244  -13.7060   15.9252 N   0  0  0  0  0  0  0  0  0  0  0  0
    7.6964  -13.0131   18.0426 N   0  0  0  0  0  0  0  0  0  0  0  0
    6.8642  -13.3986   19.2011 C   0  0  0  0  0  0  0  0  0  0  0  0
    7.5012  -14.5844   19.8284 C   0  0  0  0  0  0  0  0  0  0  0  0
    7.5408  -14.6480   21.3171 C   0  0  0  0  0  0  0  0  0  0  0  0
    8.6638  -13.8573   21.9108 C   0  0  2  0  0  0  0  0  0  0  0  0
    9.8839  -14.0680   21.1583 N   0  0  0  0  0  0  0  0  0  0  0  0
    8.8780  -14.1783   23.3333 C   0  0  0  0  0  0  0  0  0  0  0  0
    9.9252  -14.8294   23.6691 O   0  0  0  0  0  0  0  0  0  0  0  0
    9.0435  -12.8248   15.8041 N   0  0  0  0  0  0  0  0  0  0  0  0
    7.9834  -13.8035   24.3514 C   0  0  0  0  0  0  0  0  0  0  0  0
    6.7494  -13.0692   24.1502 C   0  0  0  0  0  0  0  0  0  0  0  0
    6.7208  -12.1933   25.4141 C   0  0  0  0  0  0  0  0  0  0  0  0
    7.1759  -13.1415   26.4611 C   0  0  2  0  0  0  0  0  0  0  0  0
    8.1398  -14.0673   25.7703 C   0  0  0  0  0  0  0  0  0  0  0  0
    7.8879  -15.4884   26.1106 O   0  0  0  0  0  0  0  0  0  0  0  0
    7.2238  -16.1791   25.2963 N   0  0  0  0  0  0  0  0  0  0  0  0
   10.9868  -19.4009   26.5238 C   0  0  0  0  0  0  0  0  0  0  0  0
   11.1205  -18.1496   25.8679 O   0  0  0  0  0  0  0  0  0  0  0  0
   11.9937  -18.0362   24.9908 C   0  0  0  0  0  0  0  0  0  0  0  0
   10.2436  -17.0488   26.2361 C   0  0  2  0  0  0  0  0  0  0  0  0
    9.1478  -17.3692   27.2194 N   0  0  0  0  0  0  0  0  0  0  0  0
    8.3336  -16.1297   27.2755 C   0  0  0  0  0  0  0  0  0  0  0  0
    9.6212  -17.6963   28.5760 O   0  0  0  0  0  0  0  0  0  0  0  0
    9.4375  -18.9589   29.1528 O   0  0  0  0  0  0  0  0  0  0  0  0
  2  1  1  0
  3  2  2  0
  4  2  1  0
  5  4  1  0
  6  5  1  0
  7  6  1  0
  8  7  1  0
  8  9  1  6
 10  8  1  0
 10 12  1  0
 11 10  2  0
 12 13  1  0
 13 14  1  0
 15 14  1  0
 16 12  1  0
 16 15  1  0
 16 17  1  6
 18 17  2  0
 19 20  1  0
 20 21  2  0
 23 22  1  6
 22 20  1  0
 23 24  1  0
 24 17  1  0
 25 23  1  0
 25 26  1  0
 27 25  2  0
M  END
$$$$
