RPN.pdb
     RDKit          3D

 27 27  0  0  1  0  0  0  0  0999 V2000
    6.1519  -22.0388   19.2402 N   0  0  0  0  0  0  0  0  0  0  0  0
    5.8017  -21.7182   20.5689 C   0  0  0  0  0  0  0  0  0  0  0  0
    5.8251  -22.6891   21.4474 N   0  0  0  0  0  0  0  0  0  0  0  0
    5.4466  -20.3998   20.9323 N   0  0  0  0  0  0  0  0  0  0  0  0
    6.5457  -19.4205   21.0586 C   0  0  0  0  0  0  0  0  0  0  0  0
    6.8857  -18.9579   19.6889 C   0  0  0  0  0  0  0  0  0  0  0  0
    6.7323  -17.5066   19.3857 C   0  0  0  0  0  0  0  0  0  0  0  0
    8.0312  -16.8266   19.0870 C   0  0  2  0  0  0  0  0  0  0  0  0
    8.9782  -17.7691   18.5264 N   0  0  0  0  0  0  0  0  0  0  0  0
    8.6032  -16.1735   20.2780 C   0  0  0  0  0  0  0  0  0  0  0  0
    9.6137  -16.7071   20.8502 O   0  0  0  0  0  0  0  0  0  0  0  0
    5.9883  -23.6693   21.1772 N   0  0  0  0  0  0  0  0  0  0  0  0
    8.0920  -14.9831   20.8247 C   0  0  0  0  0  0  0  0  0  0  0  0
    7.0311  -14.1846   20.2422 C   0  0  0  0  0  0  0  0  0  0  0  0
    7.5056  -12.7650   20.5957 C   0  0  0  0  0  0  0  0  0  0  0  0
    7.9970  -12.9374   21.9855 C   0  0  2  0  0  0  0  0  0  0  0  0
    8.5391  -14.3395   22.0467 C   0  0  0  0  0  0  0  0  0  0  0  0
    8.0855  -15.0591   23.2613 O   0  0  0  0  0  0  0  0  0  0  0  0
    6.9002  -15.4780   23.2883 N   0  0  0  0  0  0  0  0  0  0  0  0
    8.3179  -19.6988   25.9772 C   0  0  0  0  0  0  0  0  0  0  0  0
    7.5599  -18.5237   25.7348 O   0  0  0  0  0  0  0  0  0  0  0  0
    6.4493  -18.4174   26.2824 C   0  0  0  0  0  0  0  0  0  0  0  0
    8.0969  -17.4902   24.8631 C   0  0  2  0  0  0  0  0  0  0  0  0
    8.3917  -16.1607   25.5079 N   0  0  0  0  0  0  0  0  0  0  0  0
    8.8773  -15.3128   24.3909 C   0  0  0  0  0  0  0  0  0  0  0  0
    9.4224  -16.2077   26.5601 O   0  0  0  0  0  0  0  0  0  0  0  0
    9.1065  -16.3536   27.9164 O   0  0  0  0  0  0  0  0  0  0  0  0
  2  1  1  0
  3  2  2  0
  4  2  1  0
  5  4  1  0
  6  5  1  0
  7  6  1  0
  8  7  1  0
  8  9  1  1
 10  8  1  0
 10 12  1  0
 11 10  2  0
 12 13  1  0
 13 14  1  0
 15 14  1  0
 16 12  1  0
 16 15  1  0
 16 17  1  1
 18 17  2  0
 19 20  1  0
 20 21  2  0
 23 22  1  6
 22 20  1  0
 23 24  1  0
 24 17  1  0
 25 23  1  0
 25 26  1  0
 27 25  2  0
M  END
$$$$
