RPN.pdb
     RDKit          3D

 27 27  0  0  1  0  0  0  0  0999 V2000
    6.2979  -20.0128   13.8716 N   0  0  0  0  0  0  0  0  0  0  0  0
    5.6857  -18.8159   13.4432 C   0  0  0  0  0  0  0  0  0  0  0  0
    4.3824  -18.8197   13.3159 N   0  0  0  0  0  0  0  0  0  0  0  0
    6.4524  -17.6611   13.1695 N   0  0  0  0  0  0  0  0  0  0  0  0
    6.8593  -16.8374   14.3266 C   0  0  0  0  0  0  0  0  0  0  0  0
    7.7142  -17.6861   15.1953 C   0  0  0  0  0  0  0  0  0  0  0  0
    8.1416  -17.1289   16.5101 C   0  0  0  0  0  0  0  0  0  0  0  0
    8.8638  -15.8240   16.3902 C   0  0  2  0  0  0  0  0  0  0  0  0
    9.9150  -15.9171   15.3974 N   0  0  0  0  0  0  0  0  0  0  0  0
    9.4168  -15.3745   17.6804 C   0  0  0  0  0  0  0  0  0  0  0  0
   10.6193  -15.6868   17.9800 O   0  0  0  0  0  0  0  0  0  0  0  0
    3.8609  -17.9941   12.9890 N   0  0  0  0  0  0  0  0  0  0  0  0
    8.6855  -14.6131   18.6092 C   0  0  0  0  0  0  0  0  0  0  0  0
    7.3439  -14.1042   18.4002 C   0  0  0  0  0  0  0  0  0  0  0  0
    7.4291  -12.7492   19.1229 C   0  0  0  0  0  0  0  0  0  0  0  0
    8.2032  -13.0937   20.3413 C   0  0  2  0  0  0  0  0  0  0  0  0
    9.1419  -14.1919   19.9214 C   0  0  0  0  0  0  0  0  0  0  0  0
    9.1633  -15.3090   20.8962 O   0  0  0  0  0  0  0  0  0  0  0  0
    8.5130  -16.3478   20.6145 N   0  0  0  0  0  0  0  0  0  0  0  0
    9.0996  -18.8055   20.2413 C   0  0  0  0  0  0  0  0  0  0  0  0
    9.9829  -18.5859   21.3300 O   0  0  0  0  0  0  0  0  0  0  0  0
   10.0631  -19.4621   22.2078 C   0  0  0  0  0  0  0  0  0  0  0  0
   10.7595  -17.3571   21.3877 C   0  0  2  0  0  0  0  0  0  0  0  0
   10.5679  -16.5040   22.6148 N   0  0  0  0  0  0  0  0  0  0  0  0
    9.8555  -15.3015   22.1160 C   0  0  0  0  0  0  0  0  0  0  0  0
   11.8202  -16.0851   23.2688 O   0  0  0  0  0  0  0  0  0  0  0  0
   12.4051  -14.8333   23.0419 O   0  0  0  0  0  0  0  0  0  0  0  0
  2  1  1  0
  3  2  2  0
  4  2  1  0
  5  4  1  0
  6  5  1  0
  7  6  1  0
  8  7  1  0
  8  9  1  6
 10  8  1  0
 10 12  1  0
 11 10  2  0
 12 13  1  0
 13 14  1  0
 15 14  1  0
 16 12  1  0
 16 15  1  0
 16 17  1  1
 18 17  2  0
 19 20  1  0
 20 21  2  0
 23 22  1  1
 22 20  1  0
 23 24  1  0
 24 17  1  0
 25 23  1  0
 25 26  1  0
 27 25  2  0
M  END
$$$$
