EPG.pdb
     RDKit          3D

 21 21  0  0  1  0  0  0  0  0999 V2000
    6.9714  -18.1538   18.5731 N   0  0  0  0  0  0  0  0  0  0  0  0
    7.1196  -17.0353   19.4771 C   0  0  1  0  0  0  0  0  0  0  0  0
    7.1896  -17.5163   20.9153 C   0  0  0  0  0  0  0  0  0  0  0  0
    8.3889  -18.3692   21.1917 C   0  0  0  0  0  0  0  0  0  0  0  0
    8.5533  -18.7668   22.5877 C   0  0  0  0  0  0  0  0  0  0  0  0
    9.5735  -19.3828   22.9637 O   0  0  0  0  0  0  0  0  0  0  0  0
    8.3100  -16.2351   19.1337 C   0  0  0  0  0  0  0  0  0  0  0  0
    9.2934  -16.8438   18.5783 O   0  0  0  0  0  0  0  0  0  0  0  0
    7.5869  -18.4775   23.5489 O   0  0  0  0  0  0  0  0  0  0  0  0
    8.3766  -14.8585   19.3995 N   0  0  0  0  0  0  0  0  0  0  0  0
    7.4160  -14.0444   20.0842 C   0  0  0  0  0  0  0  0  0  0  0  0
    7.9894  -12.6312   20.1061 C   0  0  0  0  0  0  0  0  0  0  0  0
    9.0734  -12.6080   19.0806 C   0  0  0  0  0  0  0  0  0  0  0  0
    9.5177  -14.0292   18.9790 C   0  0  1  0  0  0  0  0  0  0  0  0
   10.6214  -14.2598   19.9067 C   0  0  0  0  0  0  0  0  0  0  0  0
   10.3834  -14.3989   21.1320 O   0  0  0  0  0  0  0  0  0  0  0  0
   11.9783  -14.3299   19.4370 N   0  0  0  0  0  0  0  0  0  0  0  0
   13.0055  -14.5699   20.4035 C   0  0  0  0  0  0  0  0  0  0  0  0
   14.3582  -14.5507   19.8502 C   0  0  0  0  0  0  0  0  0  0  0  0
   14.5616  -14.4569   18.4864 O   0  0  0  0  0  0  0  0  0  0  0  0
   15.3662  -14.6186   20.5953 O   0  0  0  0  0  0  0  0  0  0  0  0
  2  1  1  6
  3  2  1  0
  4  3  1  0
  4  5  1  0
  5  6  2  0
  7  2  1  0
  8  7  2  0
  9  5  1  0
 10 14  1  0
 10  7  1  0
 11 10  1  0
 12 11  1  0
 12 13  1  0
 13 14  1  0
 14 15  1  1
 15 17  1  0
 15 16  2  0
 17 18  1  0
 19 18  1  0
 19 20  1  0
 21 19  2  0
M  END
$$$$
