EPG.pdb
     RDKit          3D

 21 21  0  0  1  0  0  0  0  0999 V2000
    8.7476  -14.0194   21.4518 N   0  0  0  0  0  0  0  0  0  0  0  0
    7.6618  -13.8974   22.3985 C   0  0  1  0  0  0  0  0  0  0  0  0
    6.5832  -14.9260   22.1101 C   0  0  0  0  0  0  0  0  0  0  0  0
    7.0678  -16.3370   22.2387 C   0  0  0  0  0  0  0  0  0  0  0  0
    6.0419  -17.3599   22.0510 C   0  0  0  0  0  0  0  0  0  0  0  0
    5.3815  -17.7919   23.0200 O   0  0  0  0  0  0  0  0  0  0  0  0
    8.1534  -14.0277   23.7830 C   0  0  0  0  0  0  0  0  0  0  0  0
    9.2227  -14.7115   23.9704 O   0  0  0  0  0  0  0  0  0  0  0  0
    5.7606  -17.8911   20.7939 O   0  0  0  0  0  0  0  0  0  0  0  0
    7.4853  -13.4308   24.8634 N   0  0  0  0  0  0  0  0  0  0  0  0
    6.2388  -12.7236   24.8484 C   0  0  0  0  0  0  0  0  0  0  0  0
    5.9697  -12.2979   26.2881 C   0  0  0  0  0  0  0  0  0  0  0  0
    7.2700  -12.4291   27.0087 C   0  0  0  0  0  0  0  0  0  0  0  0
    8.0201  -13.4612   26.2345 C   0  0  1  0  0  0  0  0  0  0  0  0
    7.7566  -14.7802   26.8027 C   0  0  0  0  0  0  0  0  0  0  0  0
    6.6746  -15.3627   26.5432 O   0  0  0  0  0  0  0  0  0  0  0  0
    8.7191  -15.4224   27.6557 N   0  0  0  0  0  0  0  0  0  0  0  0
    9.1602  -16.7340   27.2921 C   0  0  0  0  0  0  0  0  0  0  0  0
   10.1400  -17.3077   28.2124 C   0  0  0  0  0  0  0  0  0  0  0  0
   10.6757  -18.5607   27.9818 O   0  0  0  0  0  0  0  0  0  0  0  0
   10.5192  -16.6808   29.2317 O   0  0  0  0  0  0  0  0  0  0  0  0
  2  1  1  6
  3  2  1  0
  4  3  1  0
  4  5  1  0
  5  6  2  0
  7  2  1  0
  8  7  2  0
  9  5  1  0
 10 14  1  0
 10  7  1  0
 11 10  1  0
 12 11  1  0
 12 13  1  0
 13 14  1  0
 14 15  1  1
 15 17  1  0
 15 16  2  0
 17 18  1  0
 19 18  1  0
 19 20  1  0
 21 19  2  0
M  END
$$$$
