EPG.pdb
     RDKit          3D

 21 21  0  0  1  0  0  0  0  0999 V2000
    6.3490  -19.5988   25.1576 N   0  0  0  0  0  0  0  0  0  0  0  0
    6.6345  -18.2216   25.4921 C   0  0  1  0  0  0  0  0  0  0  0  0
    7.3092  -18.1300   26.8489 C   0  0  0  0  0  0  0  0  0  0  0  0
    8.4510  -19.0864   27.0029 C   0  0  0  0  0  0  0  0  0  0  0  0
    9.4942  -18.6558   27.9304 C   0  0  0  0  0  0  0  0  0  0  0  0
   10.6099  -18.2796   27.5118 O   0  0  0  0  0  0  0  0  0  0  0  0
    7.4645  -17.5881   24.4503 C   0  0  0  0  0  0  0  0  0  0  0  0
    8.0778  -18.3607   23.6299 O   0  0  0  0  0  0  0  0  0  0  0  0
    9.2889  -18.6474   29.3086 O   0  0  0  0  0  0  0  0  0  0  0  0
    7.5869  -16.1935   24.3499 N   0  0  0  0  0  0  0  0  0  0  0  0
    6.9994  -15.1932   25.1916 C   0  0  0  0  0  0  0  0  0  0  0  0
    7.4651  -13.8468   24.6469 C   0  0  0  0  0  0  0  0  0  0  0  0
    7.9775  -14.1116   23.2704 C   0  0  0  0  0  0  0  0  0  0  0  0
    8.3871  -15.5465   23.2974 C   0  0  1  0  0  0  0  0  0  0  0  0
    9.7967  -15.6417   23.6662 C   0  0  0  0  0  0  0  0  0  0  0  0
   10.1176  -15.7096   24.8785 O   0  0  0  0  0  0  0  0  0  0  0  0
   10.8235  -15.6590   22.6603 N   0  0  0  0  0  0  0  0  0  0  0  0
   11.9862  -16.4545   22.9099 C   0  0  0  0  0  0  0  0  0  0  0  0
   13.0070  -16.3578   21.8684 C   0  0  0  0  0  0  0  0  0  0  0  0
   14.0921  -15.5154   22.0196 O   0  0  0  0  0  0  0  0  0  0  0  0
   12.9256  -17.0341   20.8139 O   0  0  0  0  0  0  0  0  0  0  0  0
  2  1  1  6
  3  2  1  0
  4  3  1  0
  4  5  1  0
  5  6  2  0
  7  2  1  0
  8  7  2  0
  9  5  1  0
 10 14  1  0
 10  7  1  0
 11 10  1  0
 12 11  1  0
 12 13  1  0
 13 14  1  0
 14 15  1  1
 15 17  1  0
 15 16  2  0
 17 18  1  0
 19 18  1  0
 19 20  1  0
 21 19  2  0
M  END
$$$$
