EPG.pdb
     RDKit          3D

 21 21  0  0  1  0  0  0  0  0999 V2000
    8.8563  -14.5534   21.7174 N   0  0  0  0  0  0  0  0  0  0  0  0
    7.7717  -14.2884   22.6359 C   0  0  1  0  0  0  0  0  0  0  0  0
    6.6506  -15.2936   22.4431 C   0  0  0  0  0  0  0  0  0  0  0  0
    7.1380  -16.7064   22.3497 C   0  0  0  0  0  0  0  0  0  0  0  0
    6.0880  -17.7121   22.2079 C   0  0  0  0  0  0  0  0  0  0  0  0
    5.5467  -17.9231   21.1015 O   0  0  0  0  0  0  0  0  0  0  0  0
    8.2494  -14.2974   24.0312 C   0  0  0  0  0  0  0  0  0  0  0  0
    9.3448  -14.9180   24.2788 O   0  0  0  0  0  0  0  0  0  0  0  0
    5.6510  -18.4706   23.2920 O   0  0  0  0  0  0  0  0  0  0  0  0
    7.5411  -13.6551   25.0587 N   0  0  0  0  0  0  0  0  0  0  0  0
    6.2707  -12.9967   24.9769 C   0  0  0  0  0  0  0  0  0  0  0  0
    5.9608  -12.4865   26.3805 C   0  0  0  0  0  0  0  0  0  0  0  0
    7.2518  -12.5218   27.1285 C   0  0  0  0  0  0  0  0  0  0  0  0
    8.0520  -13.5748   26.4369 C   0  0  1  0  0  0  0  0  0  0  0  0
    7.8254  -14.8619   27.0880 C   0  0  0  0  0  0  0  0  0  0  0  0
    6.6561  -15.2074   27.3896 O   0  0  0  0  0  0  0  0  0  0  0  0
    8.9227  -15.7404   27.3890 N   0  0  0  0  0  0  0  0  0  0  0  0
    9.5698  -15.5871   28.6557 C   0  0  0  0  0  0  0  0  0  0  0  0
   10.7139  -16.4757   28.8499 C   0  0  0  0  0  0  0  0  0  0  0  0
   11.1655  -16.7774   30.1208 O   0  0  0  0  0  0  0  0  0  0  0  0
   11.3137  -16.9860   27.8724 O   0  0  0  0  0  0  0  0  0  0  0  0
  2  1  1  6
  3  2  1  0
  4  3  1  0
  4  5  1  0
  5  6  2  0
  7  2  1  0
  8  7  2  0
  9  5  1  0
 10 14  1  0
 10  7  1  0
 11 10  1  0
 12 11  1  0
 12 13  1  0
 13 14  1  0
 14 15  1  1
 15 17  1  0
 15 16  2  0
 17 18  1  0
 19 18  1  0
 19 20  1  0
 21 19  2  0
M  END
$$$$
