EPG.pdb
     RDKit          3D

 21 21  0  0  1  0  0  0  0  0999 V2000
    8.8674  -14.7900   21.9799 N   0  0  0  0  0  0  0  0  0  0  0  0
    7.8186  -14.5553   22.9469 C   0  0  1  0  0  0  0  0  0  0  0  0
    6.8835  -15.7489   23.0214 C   0  0  0  0  0  0  0  0  0  0  0  0
    7.5834  -17.0569   22.8181 C   0  0  0  0  0  0  0  0  0  0  0  0
    7.2289  -18.1006   23.7768 C   0  0  0  0  0  0  0  0  0  0  0  0
    8.1000  -18.6330   24.4974 O   0  0  0  0  0  0  0  0  0  0  0  0
    8.3850  -14.2498   24.2740 C   0  0  0  0  0  0  0  0  0  0  0  0
    9.5541  -14.7071   24.5391 O   0  0  0  0  0  0  0  0  0  0  0  0
    5.9153  -18.5411   23.9253 O   0  0  0  0  0  0  0  0  0  0  0  0
    7.6813  -13.4884   25.2200 N   0  0  0  0  0  0  0  0  0  0  0  0
    6.3744  -12.9134   25.0946 C   0  0  0  0  0  0  0  0  0  0  0  0
    6.0895  -12.2037   26.4142 C   0  0  0  0  0  0  0  0  0  0  0  0
    7.4074  -12.0580   27.0992 C   0  0  0  0  0  0  0  0  0  0  0  0
    8.2379  -13.1670   26.5443 C   0  0  1  0  0  0  0  0  0  0  0  0
    8.1067  -14.3447   27.3974 C   0  0  0  0  0  0  0  0  0  0  0  0
    7.4195  -15.3206   27.0065 O   0  0  0  0  0  0  0  0  0  0  0  0
    8.7538  -14.4033   28.6797 N   0  0  0  0  0  0  0  0  0  0  0  0
   10.1841  -14.3787   28.7052 C   0  0  0  0  0  0  0  0  0  0  0  0
   10.8019  -15.7027   28.6682 C   0  0  0  0  0  0  0  0  0  0  0  0
   11.4981  -16.1258   27.5518 O   0  0  0  0  0  0  0  0  0  0  0  0
   10.7169  -16.4870   29.6447 O   0  0  0  0  0  0  0  0  0  0  0  0
  2  1  1  6
  3  2  1  0
  4  3  1  0
  4  5  1  0
  5  6  2  0
  7  2  1  0
  8  7  2  0
  9  5  1  0
 10 14  1  0
 10  7  1  0
 11 10  1  0
 12 11  1  0
 12 13  1  0
 13 14  1  0
 14 15  1  1
 15 17  1  0
 15 16  2  0
 17 18  1  0
 19 18  1  0
 19 20  1  0
 21 19  2  0
M  END
$$$$
