WHG.pdb
     RDKit          3D

 29 31  0  0  1  0  0  0  0  0999 V2000
   26.9870  -21.1255  -15.2594 N   0  0  0  0  0  0  0  0  0  0  0  0
   26.0941  -20.9394  -14.1489 C   0  0  1  0  0  0  0  0  0  0  0  0
   26.6393  -19.7543  -13.3516 C   0  0  0  0  0  0  0  0  0  0  0  0
   27.3027  -20.2346  -12.1243 C   0  0  0  0  0  0  0  0  0  0  0  0
   28.6450  -20.5881  -12.0039 C   0  0  0  0  0  0  0  0  0  0  0  0
   28.8922  -20.9779  -10.7443 N   0  0  0  0  0  0  0  0  0  0  0  0
   27.7509  -20.8918  -10.0296 C   0  0  0  0  0  0  0  0  0  0  0  0
   27.4787  -21.1783   -8.6907 C   0  0  0  0  0  0  0  0  0  0  0  0
   26.2093  -21.0083   -8.1798 C   0  0  0  0  0  0  0  0  0  0  0  0
   25.2414  -20.5493   -9.0448 C   0  0  0  0  0  0  0  0  0  0  0  0
   25.4876  -20.2603  -10.3696 C   0  0  0  0  0  0  0  0  0  0  0  0
   26.7569  -20.4298  -10.8820 C   0  0  0  0  0  0  0  0  0  0  0  0
   24.7299  -20.5741  -14.6237 C   0  0  0  0  0  0  0  0  0  0  0  0
   24.5648  -19.6189  -15.4244 O   0  0  0  0  0  0  0  0  0  0  0  0
   23.6046  -21.2838  -14.1909 N   0  0  0  0  0  0  0  0  0  0  0  0
   22.2423  -20.9828  -14.6770 C   0  0  1  0  0  0  0  0  0  0  0  0
   21.7575  -22.0693  -15.5753 C   0  0  0  0  0  0  0  0  0  0  0  0
   22.4906  -22.2182  -16.8408 C   0  0  0  0  0  0  0  0  0  0  0  0
   22.8516  -21.1423  -17.6612 C   0  0  0  0  0  0  0  0  0  0  0  0
   23.4959  -21.6233  -18.7131 N   0  0  0  0  0  0  0  0  0  0  0  0
   23.5737  -22.9513  -18.6221 C   0  0  0  0  0  0  0  0  0  0  0  0
   22.9620  -23.2882  -17.4870 N   0  0  0  0  0  0  0  0  0  0  0  0
   21.4008  -20.7449  -13.4772 C   0  0  0  0  0  0  0  0  0  0  0  0
   21.3786  -21.5021  -12.4808 O   0  0  0  0  0  0  0  0  0  0  0  0
   20.5309  -19.6000  -13.3727 N   0  0  0  0  0  0  0  0  0  0  0  0
   19.7181  -19.3568  -12.2145 C   0  0  0  0  0  0  0  0  0  0  0  0
   18.5123  -20.2133  -12.1719 C   0  0  0  0  0  0  0  0  0  0  0  0
   18.5753  -21.4413  -12.3952 O   0  0  0  0  0  0  0  0  0  0  0  0
   17.2755  -19.6630  -11.8802 O   0  0  0  0  0  0  0  0  0  0  0  0
  2 13  1  0
  2  1  1  6
  3  4  1  0
  3  2  1  0
  4  5  2  0
  5  6  1  0
  7  6  1  0
  8  7  2  0
  9  8  1  0
 10 11  1  0
 10  9  2  0
 11 12  2  0
 12  4  1  0
 12  7  1  0
 13 14  2  0
 15 16  1  0
 15 13  1  0
 16 17  1  1
 18 22  1  0
 18 17  1  0
 19 18  2  0
 20 19  1  0
 20 21  1  0
 21 22  2  0
 23 24  2  0
 23 16  1  0
 25 23  1  0
 26 25  1  0
 27 26  1  0
 27 29  1  0
 28 27  2  0
M  END
$$$$
