WHG.pdb
     RDKit          3D

 29 31  0  0  1  0  0  0  0  0999 V2000
   27.8410  -20.6368   -9.3470 N   0  0  0  0  0  0  0  0  0  0  0  0
   26.4325  -20.9216   -9.3370 C   0  0  1  0  0  0  0  0  0  0  0  0
   25.8129  -19.9950   -8.2907 C   0  0  0  0  0  0  0  0  0  0  0  0
   26.8438  -19.5591   -7.3294 C   0  0  0  0  0  0  0  0  0  0  0  0
   27.6920  -18.4638   -7.4789 C   0  0  0  0  0  0  0  0  0  0  0  0
   28.4971  -18.3741   -6.4097 N   0  0  0  0  0  0  0  0  0  0  0  0
   28.2045  -19.3792   -5.5583 C   0  0  0  0  0  0  0  0  0  0  0  0
   28.7479  -19.7248   -4.3197 C   0  0  0  0  0  0  0  0  0  0  0  0
   28.2738  -20.8172   -3.6245 C   0  0  0  0  0  0  0  0  0  0  0  0
   27.2541  -21.5365   -4.2065 C   0  0  0  0  0  0  0  0  0  0  0  0
   26.7029  -21.2136   -5.4276 C   0  0  0  0  0  0  0  0  0  0  0  0
   27.1762  -20.1212   -6.1240 C   0  0  0  0  0  0  0  0  0  0  0  0
   25.8176  -20.5907  -10.6532 C   0  0  0  0  0  0  0  0  0  0  0  0
   25.7305  -19.3967  -11.0374 O   0  0  0  0  0  0  0  0  0  0  0  0
   25.3245  -21.5981  -11.4894 N   0  0  0  0  0  0  0  0  0  0  0  0
   24.8599  -21.3291  -12.8658 C   0  0  1  0  0  0  0  0  0  0  0  0
   25.6630  -22.1105  -13.8490 C   0  0  0  0  0  0  0  0  0  0  0  0
   26.9064  -21.4699  -14.3018 C   0  0  0  0  0  0  0  0  0  0  0  0
   27.3047  -20.1848  -13.9136 C   0  0  0  0  0  0  0  0  0  0  0  0
   28.4625  -19.9174  -14.4977 N   0  0  0  0  0  0  0  0  0  0  0  0
   28.8386  -20.9568  -15.2433 C   0  0  0  0  0  0  0  0  0  0  0  0
   27.8870  -21.8804  -15.1108 N   0  0  0  0  0  0  0  0  0  0  0  0
   23.4021  -21.6092  -12.8898 C   0  0  0  0  0  0  0  0  0  0  0  0
   22.7360  -21.7432  -13.9410 O   0  0  0  0  0  0  0  0  0  0  0  0
   22.6343  -21.7498  -11.6778 N   0  0  0  0  0  0  0  0  0  0  0  0
   21.2074  -21.9091  -11.6874 C   0  0  0  0  0  0  0  0  0  0  0  0
   20.4885  -20.6188  -11.7742 C   0  0  0  0  0  0  0  0  0  0  0  0
   19.2498  -20.5500  -11.6235 O   0  0  0  0  0  0  0  0  0  0  0  0
   21.1838  -19.4483  -12.0273 O   0  0  0  0  0  0  0  0  0  0  0  0
  2 13  1  0
  2  1  1  6
  3  4  1  0
  3  2  1  0
  4  5  2  0
  5  6  1  0
  7  6  1  0
  8  7  2  0
  9  8  1  0
 10 11  1  0
 10  9  2  0
 11 12  2  0
 12  4  1  0
 12  7  1  0
 13 14  2  0
 15 16  1  0
 15 13  1  0
 16 17  1  6
 18 22  1  0
 18 17  1  0
 19 18  2  0
 20 19  1  0
 20 21  1  0
 21 22  2  0
 23 24  2  0
 23 16  1  0
 25 23  1  0
 26 25  1  0
 27 26  1  0
 27 29  1  0
 28 27  2  0
M  END
$$$$
