WHG.pdb
     RDKit          3D

 29 31  0  0  1  0  0  0  0  0999 V2000
   27.7307  -20.5100   -9.3583 N   0  0  0  0  0  0  0  0  0  0  0  0
   26.3677  -20.9203   -9.1611 C   0  0  1  0  0  0  0  0  0  0  0  0
   25.8436  -20.1169   -7.9706 C   0  0  0  0  0  0  0  0  0  0  0  0
   26.9715  -19.5252   -7.2259 C   0  0  0  0  0  0  0  0  0  0  0  0
   27.5417  -18.2756   -7.4599 C   0  0  0  0  0  0  0  0  0  0  0  0
   28.5440  -18.0730   -6.5916 N   0  0  0  0  0  0  0  0  0  0  0  0
   28.6518  -19.1537   -5.7908 C   0  0  0  0  0  0  0  0  0  0  0  0
   29.5251  -19.4375   -4.7393 C   0  0  0  0  0  0  0  0  0  0  0  0
   29.4394  -20.6332   -4.0580 C   0  0  0  0  0  0  0  0  0  0  0  0
   28.4640  -21.5169   -4.4624 C   0  0  0  0  0  0  0  0  0  0  0  0
   27.5915  -21.2577   -5.4971 C   0  0  0  0  0  0  0  0  0  0  0  0
   27.6762  -20.0620   -6.1796 C   0  0  0  0  0  0  0  0  0  0  0  0
   25.5339  -20.5686  -10.3447 C   0  0  0  0  0  0  0  0  0  0  0  0
   24.6855  -19.6430  -10.2782 O   0  0  0  0  0  0  0  0  0  0  0  0
   25.6754  -21.2579  -11.5538 N   0  0  0  0  0  0  0  0  0  0  0  0
   24.8718  -20.9334  -12.7503 C   0  0  1  0  0  0  0  0  0  0  0  0
   25.6557  -21.1943  -13.9911 C   0  0  0  0  0  0  0  0  0  0  0  0
   26.6222  -20.1499  -14.3602 C   0  0  0  0  0  0  0  0  0  0  0  0
   26.7374  -18.9256  -13.6903 C   0  0  0  0  0  0  0  0  0  0  0  0
   27.6967  -18.2242  -14.2741 N   0  0  0  0  0  0  0  0  0  0  0  0
   28.2111  -18.9242  -15.2857 C   0  0  0  0  0  0  0  0  0  0  0  0
   27.5494  -20.0806  -15.3195 N   0  0  0  0  0  0  0  0  0  0  0  0
   23.6066  -21.7023  -12.6397 C   0  0  0  0  0  0  0  0  0  0  0  0
   23.5460  -22.9521  -12.6739 O   0  0  0  0  0  0  0  0  0  0  0  0
   22.3309  -21.0498  -12.4817 N   0  0  0  0  0  0  0  0  0  0  0  0
   21.3466  -21.0256  -13.5267 C   0  0  0  0  0  0  0  0  0  0  0  0
   20.2252  -21.9582  -13.2778 C   0  0  0  0  0  0  0  0  0  0  0  0
   20.3250  -23.1796  -13.5226 O   0  0  0  0  0  0  0  0  0  0  0  0
   19.0286  -21.4889  -12.7624 O   0  0  0  0  0  0  0  0  0  0  0  0
  2 13  1  0
  2  1  1  6
  3  4  1  0
  3  2  1  0
  4  5  2  0
  5  6  1  0
  7  6  1  0
  8  7  2  0
  9  8  1  0
 10 11  1  0
 10  9  2  0
 11 12  2  0
 12  4  1  0
 12  7  1  0
 13 14  2  0
 15 16  1  0
 15 13  1  0
 16 17  1  6
 18 22  1  0
 18 17  1  0
 19 18  2  0
 20 19  1  0
 20 21  1  0
 21 22  2  0
 23 24  2  0
 23 16  1  0
 25 23  1  0
 26 25  1  0
 27 26  1  0
 27 29  1  0
 28 27  2  0
M  END
$$$$
