WHG.pdb
     RDKit          3D

 29 31  0  0  1  0  0  0  0  0999 V2000
   20.9850  -11.3846  -17.6757 N   0  0  0  0  0  0  0  0  0  0  0  0
   21.0429   -9.9584  -17.8419 C   0  0  1  0  0  0  0  0  0  0  0  0
   19.5981   -9.4604  -17.7989 C   0  0  0  0  0  0  0  0  0  0  0  0
   18.9430   -9.7008  -19.0989 C   0  0  0  0  0  0  0  0  0  0  0  0
   18.2976  -10.8733  -19.4862 C   0  0  0  0  0  0  0  0  0  0  0  0
   17.8230  -10.7303  -20.7327 N   0  0  0  0  0  0  0  0  0  0  0  0
   18.1367   -9.4963  -21.1795 C   0  0  0  0  0  0  0  0  0  0  0  0
   17.8757   -8.8631  -22.3960 C   0  0  0  0  0  0  0  0  0  0  0  0
   18.3065   -7.5731  -22.6233 C   0  0  0  0  0  0  0  0  0  0  0  0
   18.9956   -6.9535  -21.6050 C   0  0  0  0  0  0  0  0  0  0  0  0
   19.2643   -7.5591  -20.3966 C   0  0  0  0  0  0  0  0  0  0  0  0
   18.8340   -8.8494  -20.1678 C   0  0  0  0  0  0  0  0  0  0  0  0
   21.7726   -9.3239  -16.7085 C   0  0  0  0  0  0  0  0  0  0  0  0
   21.5307   -9.6616  -15.5218 O   0  0  0  0  0  0  0  0  0  0  0  0
   22.7411   -8.3407  -16.9379 N   0  0  0  0  0  0  0  0  0  0  0  0
   23.4586   -7.6628  -15.8385 C   0  0  1  0  0  0  0  0  0  0  0  0
   24.9312   -7.7221  -16.0627 C   0  0  0  0  0  0  0  0  0  0  0  0
   25.5315   -9.0610  -15.9726 C   0  0  0  0  0  0  0  0  0  0  0  0
   24.8549  -10.1849  -15.4824 C   0  0  0  0  0  0  0  0  0  0  0  0
   25.6786  -11.2199  -15.5391 N   0  0  0  0  0  0  0  0  0  0  0  0
   26.8523  -10.8315  -16.0386 C   0  0  0  0  0  0  0  0  0  0  0  0
   26.7415   -9.5279  -16.2927 N   0  0  0  0  0  0  0  0  0  0  0  0
   22.8983   -6.2915  -15.7408 C   0  0  0  0  0  0  0  0  0  0  0  0
   22.7029   -5.5471  -16.7279 O   0  0  0  0  0  0  0  0  0  0  0  0
   22.5315   -5.7077  -14.4747 N   0  0  0  0  0  0  0  0  0  0  0  0
   21.9267   -4.4094  -14.3746 C   0  0  0  0  0  0  0  0  0  0  0  0
   20.4484   -4.4672  -14.3536 C   0  0  0  0  0  0  0  0  0  0  0  0
   19.8357   -5.5512  -14.4600 O   0  0  0  0  0  0  0  0  0  0  0  0
   19.7066   -3.3062  -14.2140 O   0  0  0  0  0  0  0  0  0  0  0  0
  2 13  1  0
  2  1  1  1
  3  4  1  0
  3  2  1  0
  4  5  2  0
  5  6  1  0
  7  6  1  0
  8  7  2  0
  9  8  1  0
 10 11  1  0
 10  9  2  0
 11 12  2  0
 12  4  1  0
 12  7  1  0
 13 14  2  0
 15 16  1  0
 15 13  1  0
 16 17  1  6
 18 22  1  0
 18 17  1  0
 19 18  2  0
 20 19  1  0
 20 21  1  0
 21 22  2  0
 23 24  2  0
 23 16  1  0
 25 23  1  0
 26 25  1  0
 27 26  1  0
 27 29  1  0
 28 27  2  0
M  END
$$$$
