WHG.pdb
     RDKit          3D

 29 31  0  0  1  0  0  0  0  0999 V2000
   27.3220  -21.1992   -9.9564 N   0  0  0  0  0  0  0  0  0  0  0  0
   25.9473  -20.8662   -9.7028 C   0  0  1  0  0  0  0  0  0  0  0  0
   25.9621  -19.6740   -8.7458 C   0  0  0  0  0  0  0  0  0  0  0  0
   26.4655  -20.0945   -7.4242 C   0  0  0  0  0  0  0  0  0  0  0  0
   25.9265  -21.1003   -6.6247 C   0  0  0  0  0  0  0  0  0  0  0  0
   26.6426  -21.2039   -5.4951 N   0  0  0  0  0  0  0  0  0  0  0  0
   27.6394  -20.2950   -5.5261 C   0  0  0  0  0  0  0  0  0  0  0  0
   28.6470  -20.0010   -4.6056 C   0  0  0  0  0  0  0  0  0  0  0  0
   29.5683  -19.0086   -4.8654 C   0  0  0  0  0  0  0  0  0  0  0  0
   29.4442  -18.3347   -6.0597 C   0  0  0  0  0  0  0  0  0  0  0  0
   28.4580  -18.6080   -6.9826 C   0  0  0  0  0  0  0  0  0  0  0  0
   27.5357  -19.6005   -6.7241 C   0  0  0  0  0  0  0  0  0  0  0  0
   25.2698  -20.4301  -10.9560 C   0  0  0  0  0  0  0  0  0  0  0  0
   25.9358  -19.9652  -11.9158 O   0  0  0  0  0  0  0  0  0  0  0  0
   23.8810  -20.5279  -11.0934 N   0  0  0  0  0  0  0  0  0  0  0  0
   23.1987  -20.3558  -12.3925 C   0  0  1  0  0  0  0  0  0  0  0  0
   23.2427  -21.6231  -13.1763 C   0  0  0  0  0  0  0  0  0  0  0  0
   24.5323  -21.9295  -13.8120 C   0  0  0  0  0  0  0  0  0  0  0  0
   25.0759  -21.1846  -14.8658 C   0  0  0  0  0  0  0  0  0  0  0  0
   26.2371  -21.7268  -15.1986 N   0  0  0  0  0  0  0  0  0  0  0  0
   26.4782  -22.7821  -14.4202 C   0  0  0  0  0  0  0  0  0  0  0  0
   25.4388  -22.8859  -13.5925 N   0  0  0  0  0  0  0  0  0  0  0  0
   21.8333  -19.8530  -12.0976 C   0  0  0  0  0  0  0  0  0  0  0  0
   21.0947  -20.3264  -11.2049 O   0  0  0  0  0  0  0  0  0  0  0  0
   21.2491  -18.7603  -12.8345 N   0  0  0  0  0  0  0  0  0  0  0  0
   20.1999  -18.9562  -13.7948 C   0  0  0  0  0  0  0  0  0  0  0  0
   18.9167  -19.3443  -13.1686 C   0  0  0  0  0  0  0  0  0  0  0  0
   18.0126  -18.5073  -12.9595 O   0  0  0  0  0  0  0  0  0  0  0  0
   18.6908  -20.6593  -12.7979 O   0  0  0  0  0  0  0  0  0  0  0  0
  2 13  1  0
  2  1  1  6
  3  4  1  0
  3  2  1  0
  4  5  2  0
  5  6  1  0
  7  6  1  0
  8  7  2  0
  9  8  1  0
 10 11  1  0
 10  9  2  0
 11 12  2  0
 12  4  1  0
 12  7  1  0
 13 14  2  0
 15 16  1  0
 15 13  1  0
 16 17  1  1
 18 22  1  0
 18 17  1  0
 19 18  2  0
 20 19  1  0
 20 21  1  0
 21 22  2  0
 23 24  2  0
 23 16  1  0
 25 23  1  0
 26 25  1  0
 27 26  1  0
 27 29  1  0
 28 27  2  0
M  END
$$$$
