WHG.pdb
     RDKit          3D

 29 31  0  0  1  0  0  0  0  0999 V2000
   25.2555  -19.9761  -16.7525 N   0  0  0  0  0  0  0  0  0  0  0  0
   24.6986  -19.2602  -15.6379 C   0  0  1  0  0  0  0  0  0  0  0  0
   23.4086  -18.6131  -16.1423 C   0  0  0  0  0  0  0  0  0  0  0  0
   23.7241  -17.5598  -17.1262 C   0  0  0  0  0  0  0  0  0  0  0  0
   24.9999  -17.1276  -17.4824 C   0  0  0  0  0  0  0  0  0  0  0  0
   24.9011  -16.1575  -18.4036 N   0  0  0  0  0  0  0  0  0  0  0  0
   23.5959  -15.9370  -18.6659 C   0  0  0  0  0  0  0  0  0  0  0  0
   22.9695  -15.0432  -19.5363 C   0  0  0  0  0  0  0  0  0  0  0  0
   21.5946  -15.0020  -19.6315 C   0  0  0  0  0  0  0  0  0  0  0  0
   20.8846  -15.8736  -18.8365 C   0  0  0  0  0  0  0  0  0  0  0  0
   21.4818  -16.7640  -17.9706 C   0  0  0  0  0  0  0  0  0  0  0  0
   22.8570  -16.8063  -17.8744 C   0  0  0  0  0  0  0  0  0  0  0  0
   24.3333  -20.1966  -14.5381 C   0  0  0  0  0  0  0  0  0  0  0  0
   23.8924  -21.3457  -14.7953 O   0  0  0  0  0  0  0  0  0  0  0  0
   24.4724  -19.8201  -13.1979 N   0  0  0  0  0  0  0  0  0  0  0  0
   24.0584  -20.6949  -12.0816 C   0  0  1  0  0  0  0  0  0  0  0  0
   25.0568  -20.6368  -10.9761 C   0  0  0  0  0  0  0  0  0  0  0  0
   26.4274  -21.0239  -11.3403 C   0  0  0  0  0  0  0  0  0  0  0  0
   26.8098  -21.4064  -12.6320 C   0  0  0  0  0  0  0  0  0  0  0  0
   28.1034  -21.6881  -12.6131 N   0  0  0  0  0  0  0  0  0  0  0  0
   28.5827  -21.5101  -11.3817 C   0  0  0  0  0  0  0  0  0  0  0  0
   27.5564  -21.1101  -10.6315 N   0  0  0  0  0  0  0  0  0  0  0  0
   22.6833  -20.2845  -11.7011 C   0  0  0  0  0  0  0  0  0  0  0  0
   22.2745  -19.1020  -11.7369 O   0  0  0  0  0  0  0  0  0  0  0  0
   21.7004  -21.2397  -11.2540 N   0  0  0  0  0  0  0  0  0  0  0  0
   20.3941  -20.8448  -10.8077 C   0  0  0  0  0  0  0  0  0  0  0  0
   19.3878  -20.8687  -11.8921 C   0  0  0  0  0  0  0  0  0  0  0  0
   18.1919  -20.5746  -11.6798 O   0  0  0  0  0  0  0  0  0  0  0  0
   19.7571  -21.2219  -13.1791 O   0  0  0  0  0  0  0  0  0  0  0  0
  2 13  1  0
  2  1  1  6
  3  4  1  0
  3  2  1  0
  4  5  2  0
  5  6  1  0
  7  6  1  0
  8  7  2  0
  9  8  1  0
 10 11  1  0
 10  9  2  0
 11 12  2  0
 12  4  1  0
 12  7  1  0
 13 14  2  0
 15 16  1  0
 15 13  1  0
 16 17  1  1
 18 22  1  0
 18 17  1  0
 19 18  2  0
 20 19  1  0
 20 21  1  0
 21 22  2  0
 23 24  2  0
 23 16  1  0
 25 23  1  0
 26 25  1  0
 27 26  1  0
 27 29  1  0
 28 27  2  0
M  END
$$$$
