WHG.pdb
     RDKit          3D

 29 31  0  0  1  0  0  0  0  0999 V2000
   18.5719  -15.6649  -18.7122 N   0  0  0  0  0  0  0  0  0  0  0  0
   17.2549  -15.0917  -18.7557 C   0  0  1  0  0  0  0  0  0  0  0  0
   16.2732  -16.2618  -18.6897 C   0  0  0  0  0  0  0  0  0  0  0  0
   16.1460  -16.8891  -20.0191 C   0  0  0  0  0  0  0  0  0  0  0  0
   17.0709  -16.8016  -21.0576 C   0  0  0  0  0  0  0  0  0  0  0  0
   16.6218  -17.4954  -22.1143 N   0  0  0  0  0  0  0  0  0  0  0  0
   15.4265  -18.0386  -21.8028 C   0  0  0  0  0  0  0  0  0  0  0  0
   14.5564  -18.8383  -22.5459 C   0  0  0  0  0  0  0  0  0  0  0  0
   13.3690  -19.2794  -22.0011 C   0  0  0  0  0  0  0  0  0  0  0  0
   13.0917  -18.8960  -20.7081 C   0  0  0  0  0  0  0  0  0  0  0  0
   13.9356  -18.1074  -19.9563 C   0  0  0  0  0  0  0  0  0  0  0  0
   15.1237  -17.6656  -20.5000 C   0  0  0  0  0  0  0  0  0  0  0  0
   17.0133  -14.2324  -17.5629 C   0  0  0  0  0  0  0  0  0  0  0  0
   17.4647  -14.5595  -16.4358 O   0  0  0  0  0  0  0  0  0  0  0  0
   16.2809  -13.0452  -17.6690 N   0  0  0  0  0  0  0  0  0  0  0  0
   15.9683  -12.1991  -16.4989 C   0  0  1  0  0  0  0  0  0  0  0  0
   16.8395  -10.9896  -16.4826 C   0  0  0  0  0  0  0  0  0  0  0  0
   18.2859  -11.2519  -16.4606 C   0  0  0  0  0  0  0  0  0  0  0  0
   19.0352  -11.3779  -15.2843 C   0  0  0  0  0  0  0  0  0  0  0  0
   20.2948  -11.6094  -15.6201 N   0  0  0  0  0  0  0  0  0  0  0  0
   20.4058  -11.6410  -16.9484 C   0  0  0  0  0  0  0  0  0  0  0  0
   19.1840  -11.4234  -17.4345 N   0  0  0  0  0  0  0  0  0  0  0  0
   14.5116  -11.9167  -16.5497 C   0  0  0  0  0  0  0  0  0  0  0  0
   13.8945  -11.6277  -17.5995 O   0  0  0  0  0  0  0  0  0  0  0  0
   13.6872  -11.9564  -15.3677 N   0  0  0  0  0  0  0  0  0  0  0  0
   12.3146  -11.5353  -15.3749 C   0  0  0  0  0  0  0  0  0  0  0  0
   12.1623  -10.0782  -15.1680 C   0  0  0  0  0  0  0  0  0  0  0  0
   13.1546   -9.3299  -15.0375 O   0  0  0  0  0  0  0  0  0  0  0  0
   10.9009   -9.5091  -15.1145 O   0  0  0  0  0  0  0  0  0  0  0  0
  2 13  1  0
  2  1  1  1
  3  4  1  0
  3  2  1  0
  4  5  2  0
  5  6  1  0
  7  6  1  0
  8  7  2  0
  9  8  1  0
 10 11  1  0
 10  9  2  0
 11 12  2  0
 12  4  1  0
 12  7  1  0
 13 14  2  0
 15 16  1  0
 15 13  1  0
 16 17  1  6
 18 22  1  0
 18 17  1  0
 19 18  2  0
 20 19  1  0
 20 21  1  0
 21 22  2  0
 23 24  2  0
 23 16  1  0
 25 23  1  0
 26 25  1  0
 27 26  1  0
 27 29  1  0
 28 27  2  0
M  END
$$$$
