WHG.pdb
     RDKit          3D

 29 31  0  0  1  0  0  0  0  0999 V2000
   26.9078  -19.2603  -10.8125 N   0  0  0  0  0  0  0  0  0  0  0  0
   26.5906  -20.6451  -11.0285 C   0  0  1  0  0  0  0  0  0  0  0  0
   25.9822  -21.1567   -9.7226 C   0  0  0  0  0  0  0  0  0  0  0  0
   26.6091  -20.4759   -8.5735 C   0  0  0  0  0  0  0  0  0  0  0  0
   25.9921  -19.5514   -7.7333 C   0  0  0  0  0  0  0  0  0  0  0  0
   26.8662  -19.1431   -6.8011 N   0  0  0  0  0  0  0  0  0  0  0  0
   28.0430  -19.7720   -7.0021 C   0  0  0  0  0  0  0  0  0  0  0  0
   29.2564  -19.6970   -6.3159 C   0  0  0  0  0  0  0  0  0  0  0  0
   30.3388  -20.4508   -6.7180 C   0  0  0  0  0  0  0  0  0  0  0  0
   30.1625  -21.2671   -7.8127 C   0  0  0  0  0  0  0  0  0  0  0  0
   28.9742  -21.3569   -8.5048 C   0  0  0  0  0  0  0  0  0  0  0  0
   27.8907  -20.6035   -8.1037 C   0  0  0  0  0  0  0  0  0  0  0  0
   25.5593  -20.7906  -12.0939 C   0  0  0  0  0  0  0  0  0  0  0  0
   24.7436  -19.8626  -12.3269 O   0  0  0  0  0  0  0  0  0  0  0  0
   25.4752  -21.9598  -12.8576 N   0  0  0  0  0  0  0  0  0  0  0  0
   24.6839  -22.0383  -14.1028 C   0  0  1  0  0  0  0  0  0  0  0  0
   25.3842  -22.8816  -15.1130 C   0  0  0  0  0  0  0  0  0  0  0  0
   26.6144  -22.3055  -15.6748 C   0  0  0  0  0  0  0  0  0  0  0  0
   26.7148  -20.9876  -16.1376 C   0  0  0  0  0  0  0  0  0  0  0  0
   27.9499  -20.7965  -16.5745 N   0  0  0  0  0  0  0  0  0  0  0  0
   28.6575  -21.9162  -16.4216 C   0  0  0  0  0  0  0  0  0  0  0  0
   27.8338  -22.8119  -15.8781 N   0  0  0  0  0  0  0  0  0  0  0  0
   23.3307  -22.5164  -13.7226 C   0  0  0  0  0  0  0  0  0  0  0  0
   23.1226  -23.4291  -12.8917 O   0  0  0  0  0  0  0  0  0  0  0  0
   22.1350  -21.9511  -14.2961 N   0  0  0  0  0  0  0  0  0  0  0  0
   20.8279  -22.4760  -14.0175 C   0  0  0  0  0  0  0  0  0  0  0  0
   20.0577  -21.6263  -13.0827 C   0  0  0  0  0  0  0  0  0  0  0  0
   20.5612  -20.6099  -12.5580 O   0  0  0  0  0  0  0  0  0  0  0  0
   18.7475  -21.9455  -12.7677 O   0  0  0  0  0  0  0  0  0  0  0  0
  2 13  1  0
  2  1  1  1
  3  4  1  0
  3  2  1  0
  4  5  2  0
  5  6  1  0
  7  6  1  0
  8  7  2  0
  9  8  1  0
 10 11  1  0
 10  9  2  0
 11 12  2  0
 12  4  1  0
 12  7  1  0
 13 14  2  0
 15 16  1  0
 15 13  1  0
 16 17  1  6
 18 22  1  0
 18 17  1  0
 19 18  2  0
 20 19  1  0
 20 21  1  0
 21 22  2  0
 23 24  2  0
 23 16  1  0
 25 23  1  0
 26 25  1  0
 27 26  1  0
 27 29  1  0
 28 27  2  0
M  END
$$$$
