GMA.pdb
     RDKit          3D

 18 17  0  0  1  0  0  0  0  0999 V2000
   28.5139  -21.2679  -15.8544 N   0  0  0  0  0  0  0  0  0  0  0  0
   28.0397  -20.2742  -14.9263 C   0  0  0  0  0  0  0  0  0  0  0  0
   27.1829  -20.8947  -13.8606 C   0  0  0  0  0  0  0  0  0  0  0  0
   26.7124  -22.0476  -14.0537 O   0  0  0  0  0  0  0  0  0  0  0  0
   27.2988  -20.8018   -7.0446 C   0  0  0  0  0  0  0  0  0  0  0  0
   25.8132  -19.9622   -7.6548 S   0  0  0  0  0  0  0  0  0  0  0  0
   25.3804  -20.7001   -9.2590 C   0  0  0  0  0  0  0  0  0  0  0  0
   26.2663  -20.1528  -10.3290 C   0  0  0  0  0  0  0  0  0  0  0  0
   25.9784  -20.7512  -11.6795 C   0  0  2  0  0  0  0  0  0  0  0  0
   26.9082  -20.1950  -12.6575 N   0  0  0  0  0  0  0  0  0  0  0  0
   24.6031  -20.5382  -12.1514 C   0  0  0  0  0  0  0  0  0  0  0  0
   24.1738  -19.4038  -12.4470 O   0  0  0  0  0  0  0  0  0  0  0  0
   22.1192  -22.6260  -13.8062 C   0  0  0  0  0  0  0  0  0  0  0  0
   22.4313  -21.4481  -12.8978 C   0  0  2  0  0  0  0  0  0  0  0  0
   23.7055  -21.6591  -12.2845 N   0  0  0  0  0  0  0  0  0  0  0  0
   21.3941  -21.2851  -11.8677 C   0  0  0  0  0  0  0  0  0  0  0  0
   21.6852  -21.4250  -10.6599 O   0  0  0  0  0  0  0  0  0  0  0  0
   20.0656  -20.9751  -12.1562 O   0  0  0  0  0  0  0  0  0  0  0  0
  1  2  1  0
  2  3  1  0
  3  4  2  0
  6  5  1  0
  7  6  1  0
  7  8  1  0
  9  8  1  1
 10  9  1  0
 10  3  1  0
 11 15  1  0
 11  9  1  0
 12 11  2  0
 14 13  1  6
 14 15  1  0
 16 14  1  0
 16 18  1  0
 17 16  2  0
M  END
$$$$
