GMA.pdb
     RDKit          3D

 18 17  0  0  1  0  0  0  0  0999 V2000
   28.5924  -21.6148  -15.3374 N   0  0  0  0  0  0  0  0  0  0  0  0
   28.1724  -20.6979  -14.3096 C   0  0  0  0  0  0  0  0  0  0  0  0
   26.9536  -21.2073  -13.5955 C   0  0  0  0  0  0  0  0  0  0  0  0
   26.3239  -22.1817  -14.0872 O   0  0  0  0  0  0  0  0  0  0  0  0
   26.8894  -18.9828   -7.8490 C   0  0  0  0  0  0  0  0  0  0  0  0
   26.4833  -20.7476   -7.7786 S   0  0  0  0  0  0  0  0  0  0  0  0
   26.4400  -21.3736   -9.4849 C   0  0  0  0  0  0  0  0  0  0  0  0
   25.3766  -20.6690  -10.2610 C   0  0  0  0  0  0  0  0  0  0  0  0
   25.3313  -21.1006  -11.7019 C   0  0  2  0  0  0  0  0  0  0  0  0
   26.5189  -20.6018  -12.3885 N   0  0  0  0  0  0  0  0  0  0  0  0
   24.1349  -20.6515  -12.4275 C   0  0  0  0  0  0  0  0  0  0  0  0
   23.9280  -19.4465  -12.6794 O   0  0  0  0  0  0  0  0  0  0  0  0
   21.7683  -22.1432  -14.7571 C   0  0  0  0  0  0  0  0  0  0  0  0
   22.0393  -21.1553  -13.6343 C   0  0  2  0  0  0  0  0  0  0  0  0
   23.1575  -21.6148  -12.8709 N   0  0  0  0  0  0  0  0  0  0  0  0
   20.8612  -21.0044  -12.7667 C   0  0  0  0  0  0  0  0  0  0  0  0
   20.8989  -21.4113  -11.5851 O   0  0  0  0  0  0  0  0  0  0  0  0
   19.6670  -20.4195  -13.1860 O   0  0  0  0  0  0  0  0  0  0  0  0
  1  2  1  0
  2  3  1  0
  3  4  2  0
  6  5  1  0
  7  6  1  0
  7  8  1  0
  9  8  1  1
 10  9  1  0
 10  3  1  0
 11 15  1  0
 11  9  1  0
 12 11  2  0
 14 13  1  6
 14 15  1  0
 16 14  1  0
 16 18  1  0
 17 16  2  0
M  END
$$$$
