GMA.pdb
     RDKit          3D

 18 17  0  0  1  0  0  0  0  0999 V2000
   20.4442  -20.5651  -15.8237 N   0  0  0  0  0  0  0  0  0  0  0  0
   20.4200  -19.5019  -16.7945 C   0  0  0  0  0  0  0  0  0  0  0  0
   21.0366  -18.2497  -16.2407 C   0  0  0  0  0  0  0  0  0  0  0  0
   20.4878  -17.6860  -15.2564 O   0  0  0  0  0  0  0  0  0  0  0  0
   27.0194  -16.6030  -14.0711 C   0  0  0  0  0  0  0  0  0  0  0  0
   26.7085  -15.5981  -15.5468 S   0  0  0  0  0  0  0  0  0  0  0  0
   24.9123  -15.3503  -15.6789 C   0  0  0  0  0  0  0  0  0  0  0  0
   24.2696  -16.5674  -16.2579 C   0  0  0  0  0  0  0  0  0  0  0  0
   22.7701  -16.4559  -16.3175 C   0  0  2  0  0  0  0  0  0  0  0  0
   22.2163  -17.7111  -16.8158 N   0  0  0  0  0  0  0  0  0  0  0  0
   22.2814  -15.3513  -17.1546 C   0  0  0  0  0  0  0  0  0  0  0  0
   22.3756  -15.3734  -18.3993 O   0  0  0  0  0  0  0  0  0  0  0  0
   19.8835  -12.6208  -16.8299 C   0  0  0  0  0  0  0  0  0  0  0  0
   21.2000  -13.1421  -17.3821 C   0  0  2  0  0  0  0  0  0  0  0  0
   21.6714  -14.1977  -16.5408 N   0  0  0  0  0  0  0  0  0  0  0  0
   22.2033  -12.0693  -17.4591 C   0  0  0  0  0  0  0  0  0  0  0  0
   22.0034  -11.0782  -18.1945 O   0  0  0  0  0  0  0  0  0  0  0  0
   23.4006  -12.0832  -16.7446 O   0  0  0  0  0  0  0  0  0  0  0  0
  1  2  1  0
  2  3  1  0
  3  4  2  0
  6  5  1  0
  7  6  1  0
  7  8  1  0
  9  8  1  6
 10  9  1  0
 10  3  1  0
 11 15  1  0
 11  9  1  0
 12 11  2  0
 14 13  1  1
 14 15  1  0
 16 14  1  0
 16 18  1  0
 17 16  2  0
M  END
$$$$
