GMA.pdb
     RDKit          3D

 18 17  0  0  1  0  0  0  0  0999 V2000
   28.8335  -21.7306  -15.3166 N   0  0  0  0  0  0  0  0  0  0  0  0
   28.1586  -20.6790  -14.6011 C   0  0  0  0  0  0  0  0  0  0  0  0
   26.8470  -21.1567  -14.0476 C   0  0  0  0  0  0  0  0  0  0  0  0
   26.2872  -22.1506  -14.5831 O   0  0  0  0  0  0  0  0  0  0  0  0
   26.1724  -19.3168   -8.1811 C   0  0  0  0  0  0  0  0  0  0  0  0
   25.9979  -21.1097   -8.3783 S   0  0  0  0  0  0  0  0  0  0  0  0
   26.0787  -21.4810  -10.1562 C   0  0  0  0  0  0  0  0  0  0  0  0
   25.0069  -20.7375  -10.8829 C   0  0  0  0  0  0  0  0  0  0  0  0
   25.0121  -21.0155  -12.3618 C   0  0  2  0  0  0  0  0  0  0  0  0
   26.2488  -20.5005  -12.9413 N   0  0  0  0  0  0  0  0  0  0  0  0
   23.8691  -20.4423  -13.0861 C   0  0  0  0  0  0  0  0  0  0  0  0
   23.7865  -19.2209  -13.3305 O   0  0  0  0  0  0  0  0  0  0  0  0
   21.5864  -21.3156  -15.6093 C   0  0  0  0  0  0  0  0  0  0  0  0
   21.6907  -20.7081  -14.2201 C   0  0  2  0  0  0  0  0  0  0  0  0
   22.7995  -21.2982  -13.5370 N   0  0  0  0  0  0  0  0  0  0  0  0
   20.4527  -20.9213  -13.4550 C   0  0  0  0  0  0  0  0  0  0  0  0
   20.4530  -21.6862  -12.4661 O   0  0  0  0  0  0  0  0  0  0  0  0
   19.2400  -20.3085  -13.7680 O   0  0  0  0  0  0  0  0  0  0  0  0
  1  2  1  0
  2  3  1  0
  3  4  2  0
  6  5  1  0
  7  6  1  0
  7  8  1  0
  9  8  1  1
 10  9  1  0
 10  3  1  0
 11 15  1  0
 11  9  1  0
 12 11  2  0
 14 13  1  6
 14 15  1  0
 16 14  1  0
 16 18  1  0
 17 16  2  0
M  END
$$$$
