GMA.pdb
     RDKit          3D

 18 17  0  0  1  0  0  0  0  0999 V2000
   27.2807  -25.3212  -16.2790 N   0  0  0  0  0  0  0  0  0  0  0  0
   26.8449  -23.9570  -16.4298 C   0  0  0  0  0  0  0  0  0  0  0  0
   25.9786  -23.5355  -15.2780 C   0  0  0  0  0  0  0  0  0  0  0  0
   25.2715  -24.4036  -14.6998 O   0  0  0  0  0  0  0  0  0  0  0  0
   24.5319  -21.0233   -8.9719 C   0  0  0  0  0  0  0  0  0  0  0  0
   25.4426  -21.5139  -10.4598 S   0  0  0  0  0  0  0  0  0  0  0  0
   25.1500  -20.2468  -11.7303 C   0  0  0  0  0  0  0  0  0  0  0  0
   25.8314  -20.6312  -13.0020 C   0  0  0  0  0  0  0  0  0  0  0  0
   25.1650  -21.7944  -13.6857 C   0  0  2  0  0  0  0  0  0  0  0  0
   25.9567  -22.1836  -14.8486 N   0  0  0  0  0  0  0  0  0  0  0  0
   23.7840  -21.5306  -14.1133 C   0  0  0  0  0  0  0  0  0  0  0  0
   23.4925  -20.5641  -14.8478 O   0  0  0  0  0  0  0  0  0  0  0  0
   20.6060  -23.4486  -14.1413 C   0  0  0  0  0  0  0  0  0  0  0  0
   21.3927  -22.1483  -14.1563 C   0  0  2  0  0  0  0  0  0  0  0  0
   22.7180  -22.4016  -13.6833 N   0  0  0  0  0  0  0  0  0  0  0  0
   20.7430  -21.1273  -13.3202 C   0  0  0  0  0  0  0  0  0  0  0  0
   19.8480  -20.4005  -13.8037 O   0  0  0  0  0  0  0  0  0  0  0  0
   21.0680  -20.9082  -11.9822 O   0  0  0  0  0  0  0  0  0  0  0  0
  1  2  1  0
  2  3  1  0
  3  4  2  0
  6  5  1  0
  7  6  1  0
  7  8  1  0
  9  8  1  6
 10  9  1  0
 10  3  1  0
 11 15  1  0
 11  9  1  0
 12 11  2  0
 14 13  1  1
 14 15  1  0
 16 14  1  0
 16 18  1  0
 17 16  2  0
M  END
$$$$
