GMA.pdb
     RDKit          3D

 18 17  0  0  1  0  0  0  0  0999 V2000
   28.5228  -22.2524  -16.7919 N   0  0  0  0  0  0  0  0  0  0  0  0
   28.1895  -21.1569  -15.9188 C   0  0  0  0  0  0  0  0  0  0  0  0
   27.0964  -21.5402  -14.9632 C   0  0  0  0  0  0  0  0  0  0  0  0
   26.4260  -22.5821  -15.1930 O   0  0  0  0  0  0  0  0  0  0  0  0
   24.5843  -21.1910   -7.5829 C   0  0  0  0  0  0  0  0  0  0  0  0
   25.7692  -20.5740   -8.8075 S   0  0  0  0  0  0  0  0  0  0  0  0
   25.2249  -21.1509  -10.4434 C   0  0  0  0  0  0  0  0  0  0  0  0
   26.1970  -20.7139  -11.4890 C   0  0  0  0  0  0  0  0  0  0  0  0
   25.7921  -21.1483  -12.8718 C   0  0  2  0  0  0  0  0  0  0  0  0
   26.8234  -20.7431  -13.8219 N   0  0  0  0  0  0  0  0  0  0  0  0
   24.4966  -20.6149  -13.3152 C   0  0  0  0  0  0  0  0  0  0  0  0
   24.3317  -19.4033  -13.5668 O   0  0  0  0  0  0  0  0  0  0  0  0
   21.6266  -21.9364  -15.0651 C   0  0  0  0  0  0  0  0  0  0  0  0
   22.1547  -20.9742  -14.0138 C   0  0  2  0  0  0  0  0  0  0  0  0
   23.3685  -21.4997  -13.4708 N   0  0  0  0  0  0  0  0  0  0  0  0
   21.1681  -20.7676  -12.9426 C   0  0  0  0  0  0  0  0  0  0  0  0
   21.3466  -21.2876  -11.8198 O   0  0  0  0  0  0  0  0  0  0  0  0
   20.0104  -20.0066  -13.0996 O   0  0  0  0  0  0  0  0  0  0  0  0
  1  2  1  0
  2  3  1  0
  3  4  2  0
  6  5  1  0
  7  6  1  0
  7  8  1  0
  9  8  1  1
 10  9  1  0
 10  3  1  0
 11 15  1  0
 11  9  1  0
 12 11  2  0
 14 13  1  6
 14 15  1  0
 16 14  1  0
 16 18  1  0
 17 16  2  0
M  END
$$$$
