GMA.pdb
     RDKit          3D

 18 17  0  0  1  0  0  0  0  0999 V2000
   28.5128  -21.0362  -15.5750 N   0  0  0  0  0  0  0  0  0  0  0  0
   27.8756  -20.1607  -14.6259 C   0  0  0  0  0  0  0  0  0  0  0  0
   26.7934  -20.8773  -13.8709 C   0  0  0  0  0  0  0  0  0  0  0  0
   26.3686  -21.9773  -14.3151 O   0  0  0  0  0  0  0  0  0  0  0  0
   24.8393  -21.0449   -7.4232 C   0  0  0  0  0  0  0  0  0  0  0  0
   26.4275  -20.5103   -8.1131 S   0  0  0  0  0  0  0  0  0  0  0  0
   26.4650  -21.0046   -9.8623 C   0  0  0  0  0  0  0  0  0  0  0  0
   25.1890  -20.6128  -10.5316 C   0  0  0  0  0  0  0  0  0  0  0  0
   25.1600  -20.9931  -11.9874 C   0  0  2  0  0  0  0  0  0  0  0  0
   26.2588  -20.3254  -12.6784 N   0  0  0  0  0  0  0  0  0  0  0  0
   23.8989  -20.6697  -12.6690 C   0  0  0  0  0  0  0  0  0  0  0  0
   23.5856  -19.4963  -12.9580 O   0  0  0  0  0  0  0  0  0  0  0  0
   21.5270  -22.4353  -14.7976 C   0  0  0  0  0  0  0  0  0  0  0  0
   21.7863  -21.3834  -13.7317 C   0  0  2  0  0  0  0  0  0  0  0  0
   22.9810  -21.7239  -13.0238 N   0  0  0  0  0  0  0  0  0  0  0  0
   20.6542  -21.2864  -12.7976 C   0  0  0  0  0  0  0  0  0  0  0  0
   20.7779  -21.6917  -11.6214 O   0  0  0  0  0  0  0  0  0  0  0  0
   19.4127  -20.7562  -13.1463 O   0  0  0  0  0  0  0  0  0  0  0  0
  1  2  1  0
  2  3  1  0
  3  4  2  0
  6  5  1  0
  7  6  1  0
  7  8  1  0
  9  8  1  1
 10  9  1  0
 10  3  1  0
 11 15  1  0
 11  9  1  0
 12 11  2  0
 14 13  1  6
 14 15  1  0
 16 14  1  0
 16 18  1  0
 17 16  2  0
M  END
$$$$
