GMA.pdb
     RDKit          3D

 18 17  0  0  1  0  0  0  0  0999 V2000
   25.3249  -11.8778  -15.6154 N   0  0  0  0  0  0  0  0  0  0  0  0
   25.4568  -13.1863  -15.0288 C   0  0  0  0  0  0  0  0  0  0  0  0
   24.6810  -14.2090  -15.8080 C   0  0  0  0  0  0  0  0  0  0  0  0
   23.8415  -13.8147  -16.6610 O   0  0  0  0  0  0  0  0  0  0  0  0
   26.8568  -19.8549  -16.7410 C   0  0  0  0  0  0  0  0  0  0  0  0
   25.4412  -20.0883  -17.8481 S   0  0  0  0  0  0  0  0  0  0  0  0
   24.5407  -18.5114  -17.9343 C   0  0  0  0  0  0  0  0  0  0  0  0
   25.1817  -17.5068  -17.0345 C   0  0  0  0  0  0  0  0  0  0  0  0
   24.1809  -16.5826  -16.3949 C   0  0  2  0  0  0  0  0  0  0  0  0
   24.8898  -15.5947  -15.5874 N   0  0  0  0  0  0  0  0  0  0  0  0
   23.1851  -17.2622  -15.5546 C   0  0  0  0  0  0  0  0  0  0  0  0
   23.4643  -17.6944  -14.4172 O   0  0  0  0  0  0  0  0  0  0  0  0
   19.5318  -17.4780  -15.3745 C   0  0  0  0  0  0  0  0  0  0  0  0
   20.8969  -18.1240  -15.2040 C   0  0  2  0  0  0  0  0  0  0  0  0
   21.8392  -17.4462  -16.0388 N   0  0  0  0  0  0  0  0  0  0  0  0
   20.8523  -19.5535  -15.5473 C   0  0  0  0  0  0  0  0  0  0  0  0
   21.3627  -19.9560  -16.6153 O   0  0  0  0  0  0  0  0  0  0  0  0
   20.2605  -20.5212  -14.7365 O   0  0  0  0  0  0  0  0  0  0  0  0
  1  2  1  0
  2  3  1  0
  3  4  2  0
  6  5  1  0
  7  6  1  0
  7  8  1  0
  9  8  1  1
 10  9  1  0
 10  3  1  0
 11 15  1  0
 11  9  1  0
 12 11  2  0
 14 13  1  6
 14 15  1  0
 16 14  1  0
 16 18  1  0
 17 16  2  0
M  END
$$$$
