GMA.pdb
     RDKit          3D

 18 17  0  0  1  0  0  0  0  0999 V2000
   28.5887  -21.4398  -15.8170 N   0  0  0  0  0  0  0  0  0  0  0  0
   27.8747  -20.4274  -15.0830 C   0  0  0  0  0  0  0  0  0  0  0  0
   26.9109  -21.0433  -14.1101 C   0  0  0  0  0  0  0  0  0  0  0  0
   26.3157  -22.1056  -14.4342 O   0  0  0  0  0  0  0  0  0  0  0  0
   26.4639  -19.9099   -7.4363 C   0  0  0  0  0  0  0  0  0  0  0  0
   25.5356  -21.3361   -8.0595 S   0  0  0  0  0  0  0  0  0  0  0  0
   24.7670  -20.8507   -9.6339 C   0  0  0  0  0  0  0  0  0  0  0  0
   25.8138  -20.3859  -10.5919 C   0  0  0  0  0  0  0  0  0  0  0  0
   25.6241  -20.9511  -11.9736 C   0  0  2  0  0  0  0  0  0  0  0  0
   26.6747  -20.4395  -12.8483 N   0  0  0  0  0  0  0  0  0  0  0  0
   24.3155  -20.6524  -12.5718 C   0  0  0  0  0  0  0  0  0  0  0  0
   24.0361  -19.5210  -13.0196 O   0  0  0  0  0  0  0  0  0  0  0  0
   21.6873  -22.4800  -14.2350 C   0  0  0  0  0  0  0  0  0  0  0  0
   22.0557  -21.3684  -13.2662 C   0  0  2  0  0  0  0  0  0  0  0  0
   23.3092  -21.6821  -12.6541 N   0  0  0  0  0  0  0  0  0  0  0  0
   21.0183  -21.1976  -12.2376 C   0  0  0  0  0  0  0  0  0  0  0  0
   21.2175  -21.6104  -11.0744 O   0  0  0  0  0  0  0  0  0  0  0  0
   19.7884  -20.5869  -12.4796 O   0  0  0  0  0  0  0  0  0  0  0  0
  1  2  1  0
  2  3  1  0
  3  4  2  0
  6  5  1  0
  7  6  1  0
  7  8  1  0
  9  8  1  1
 10  9  1  0
 10  3  1  0
 11 15  1  0
 11  9  1  0
 12 11  2  0
 14 13  1  6
 14 15  1  0
 16 14  1  0
 16 18  1  0
 17 16  2  0
M  END
$$$$
