GMA.pdb
     RDKit          3D

 18 17  0  0  1  0  0  0  0  0999 V2000
   20.3680  -11.4588  -19.4784 N   0  0  0  0  0  0  0  0  0  0  0  0
   20.2057  -11.8893  -18.1139 C   0  0  0  0  0  0  0  0  0  0  0  0
   20.8757  -10.9391  -17.1636 C   0  0  0  0  0  0  0  0  0  0  0  0
   20.3043  -10.6648  -16.0746 O   0  0  0  0  0  0  0  0  0  0  0  0
   26.8232  -11.7417  -15.3466 C   0  0  0  0  0  0  0  0  0  0  0  0
   26.8610   -9.9424  -15.5585 S   0  0  0  0  0  0  0  0  0  0  0  0
   25.1468   -9.3410  -15.4869 C   0  0  0  0  0  0  0  0  0  0  0  0
   24.3205  -10.0278  -16.5237 C   0  0  0  0  0  0  0  0  0  0  0  0
   22.8751   -9.6111  -16.4797 C   0  0  2  0  0  0  0  0  0  0  0  0
   22.1301  -10.3605  -17.4866 N   0  0  0  0  0  0  0  0  0  0  0  0
   22.6562   -8.1738  -16.6936 C   0  0  0  0  0  0  0  0  0  0  0  0
   22.9309   -7.6172  -17.7767 O   0  0  0  0  0  0  0  0  0  0  0  0
   20.3950   -5.7597  -16.1426 C   0  0  0  0  0  0  0  0  0  0  0  0
   21.8770   -5.9743  -15.8830 C   0  0  2  0  0  0  0  0  0  0  0  0
   22.1088   -7.3630  -15.6339 N   0  0  0  0  0  0  0  0  0  0  0  0
   22.3355   -5.1711  -14.7393 C   0  0  0  0  0  0  0  0  0  0  0  0
   22.6103   -5.7282  -13.6543 O   0  0  0  0  0  0  0  0  0  0  0  0
   22.4894   -3.7860  -14.7846 O   0  0  0  0  0  0  0  0  0  0  0  0
  1  2  1  0
  2  3  1  0
  3  4  2  0
  6  5  1  0
  7  6  1  0
  7  8  1  0
  9  8  1  6
 10  9  1  0
 10  3  1  0
 11 15  1  0
 11  9  1  0
 12 11  2  0
 14 13  1  1
 14 15  1  0
 16 14  1  0
 16 18  1  0
 17 16  2  0
M  END
$$$$
