AYY.pdb
     RDKit          3D

 30 31  0  0  1  0  0  0  0  0999 V2000
    3.3957  -19.1655   21.5535 C   0  0  0  0  0  0  0  0  0  0  0  0
    4.8933  -19.2587   21.7734 C   0  0  2  0  0  0  0  0  0  0  0  0
    5.2623  -20.3653   22.6118 N   0  0  0  0  0  0  0  0  0  0  0  0
    5.3724  -17.9766   22.3140 C   0  0  0  0  0  0  0  0  0  0  0  0
    5.2226  -16.9484   21.5840 O   0  0  0  0  0  0  0  0  0  0  0  0
    8.3442  -11.6809   27.7137 O   0  0  0  0  0  0  0  0  0  0  0  0
    7.8352  -12.8617   27.1887 C   0  0  0  0  0  0  0  0  0  0  0  0
    6.5169  -12.9788   26.7805 C   0  0  0  0  0  0  0  0  0  0  0  0
    6.0204  -14.1590   26.2592 C   0  0  0  0  0  0  0  0  0  0  0  0
    6.8380  -15.2586   26.1333 C   0  0  0  0  0  0  0  0  0  0  0  0
    6.3787  -16.5380   25.5907 C   0  0  0  0  0  0  0  0  0  0  0  0
    6.5052  -16.6223   24.0858 C   0  0  2  0  0  0  0  0  0  0  0  0
    5.9768  -17.8787   23.5924 N   0  0  0  0  0  0  0  0  0  0  0  0
    7.9717  -16.5672   23.7825 C   0  0  0  0  0  0  0  0  0  0  0  0
    8.7220  -17.5713   23.8929 O   0  0  0  0  0  0  0  0  0  0  0  0
    8.1503  -15.1374   26.5412 C   0  0  0  0  0  0  0  0  0  0  0  0
    8.6439  -13.9518   27.0634 C   0  0  0  0  0  0  0  0  0  0  0  0
    6.9320  -14.3703   17.1799 O   0  0  0  0  0  0  0  0  0  0  0  0
    7.7069  -14.3351   18.3451 C   0  0  0  0  0  0  0  0  0  0  0  0
    8.4604  -15.4179   18.7477 C   0  0  0  0  0  0  0  0  0  0  0  0
    9.2258  -15.3877   19.8958 C   0  0  0  0  0  0  0  0  0  0  0  0
    9.2681  -14.2591   20.6961 C   0  0  0  0  0  0  0  0  0  0  0  0
   10.0611  -14.1681   21.9279 C   0  0  0  0  0  0  0  0  0  0  0  0
    9.9314  -15.3612   22.8389 C   0  0  2  0  0  0  0  0  0  0  0  0
    8.5762  -15.3539   23.3511 N   0  0  0  0  0  0  0  0  0  0  0  0
   10.8728  -15.3829   23.9514 C   0  0  0  0  0  0  0  0  0  0  0  0
   10.4871  -15.2428   25.1335 O   0  0  0  0  0  0  0  0  0  0  0  0
    8.5102  -13.1833   20.2824 C   0  0  0  0  0  0  0  0  0  0  0  0
    7.7440  -13.2076   19.1372 C   0  0  0  0  0  0  0  0  0  0  0  0
   12.2236  -15.5613   23.7097 O   0  0  0  0  0  0  0  0  0  0  0  0
  2  1  1  1
  2  3  1  0
  4  2  1  0
  4 13  1  0
  5  4  2  0
  7 17  2  0
  7  6  1  0
  8  7  1  0
  9 10  1  0
  9  8  2  0
 10 16  2  0
 12 11  1  1
 11 10  1  0
 13 12  1  0
 14 15  2  0
 14 12  1  0
 16 17  1  0
 18 19  1  0
 19 20  2  0
 19 29  1  0
 20 21  1  0
 21 22  2  0
 22 23  1  0
 24 23  1  1
 24 25  1  0
 24 26  1  0
 25 14  1  0
 26 30  1  0
 27 26  2  0
 28 22  1  0
 29 28  2  0
M  END
$$$$
