AYY.pdb
     RDKit          3D

 30 31  0  0  1  0  0  0  0  0999 V2000
   10.0815  -18.7300   19.7852 C   0  0  0  0  0  0  0  0  0  0  0  0
    9.8932  -17.3313   19.2304 C   0  0  2  0  0  0  0  0  0  0  0  0
   10.9467  -16.9445   18.3337 N   0  0  0  0  0  0  0  0  0  0  0  0
    9.7559  -16.3914   20.3544 C   0  0  0  0  0  0  0  0  0  0  0  0
   10.8202  -15.8578   20.7959 O   0  0  0  0  0  0  0  0  0  0  0  0
    6.3328  -11.4806   26.8378 O   0  0  0  0  0  0  0  0  0  0  0  0
    6.4689  -12.3303   25.7477 C   0  0  0  0  0  0  0  0  0  0  0  0
    6.0678  -13.6554   25.7915 C   0  0  0  0  0  0  0  0  0  0  0  0
    6.2078  -14.4927   24.7005 C   0  0  0  0  0  0  0  0  0  0  0  0
    6.7569  -14.0201   23.5306 C   0  0  0  0  0  0  0  0  0  0  0  0
    6.9347  -14.8505   22.3385 C   0  0  0  0  0  0  0  0  0  0  0  0
    8.3813  -15.2054   22.0749 C   0  0  2  0  0  0  0  0  0  0  0  0
    8.4968  -16.0858   20.9291 N   0  0  0  0  0  0  0  0  0  0  0  0
    8.8643  -15.9359   23.2910 C   0  0  0  0  0  0  0  0  0  0  0  0
    8.6924  -17.1725   23.4482 O   0  0  0  0  0  0  0  0  0  0  0  0
    7.1550  -12.6997   23.4915 C   0  0  0  0  0  0  0  0  0  0  0  0
    7.0126  -11.8636   24.5882 C   0  0  0  0  0  0  0  0  0  0  0  0
   12.0185  -16.8277   31.5993 O   0  0  0  0  0  0  0  0  0  0  0  0
   11.6912  -16.3786   30.3146 C   0  0  0  0  0  0  0  0  0  0  0  0
   11.9847  -17.1214   29.1902 C   0  0  0  0  0  0  0  0  0  0  0  0
   11.6638  -16.6824   27.9216 C   0  0  0  0  0  0  0  0  0  0  0  0
   11.0289  -15.4682   27.7256 C   0  0  0  0  0  0  0  0  0  0  0  0
   10.6645  -14.9482   26.4023 C   0  0  0  0  0  0  0  0  0  0  0  0
   10.0181  -15.9618   25.4939 C   0  0  2  0  0  0  0  0  0  0  0  0
    9.5465  -15.2420   24.3285 N   0  0  0  0  0  0  0  0  0  0  0  0
    8.9117  -16.6979   26.0928 C   0  0  0  0  0  0  0  0  0  0  0  0
    9.0639  -17.8608   26.5290 O   0  0  0  0  0  0  0  0  0  0  0  0
   10.7411  -14.7350   28.8582 C   0  0  0  0  0  0  0  0  0  0  0  0
   11.0589  -15.1681   30.1272 C   0  0  0  0  0  0  0  0  0  0  0  0
    7.6623  -16.1107   26.1873 O   0  0  0  0  0  0  0  0  0  0  0  0
  2  1  1  1
  2  3  1  0
  4  2  1  0
  4 13  1  0
  5  4  2  0
  7 17  2  0
  7  6  1  0
  8  7  1  0
  9 10  1  0
  9  8  2  0
 10 16  2  0
 12 11  1  1
 11 10  1  0
 13 12  1  0
 14 15  2  0
 14 12  1  0
 16 17  1  0
 18 19  1  0
 19 20  2  0
 19 29  1  0
 20 21  1  0
 21 22  2  0
 22 23  1  0
 24 23  1  1
 24 25  1  0
 24 26  1  0
 25 14  1  0
 26 30  1  0
 27 26  2  0
 28 22  1  0
 29 28  2  0
M  END
$$$$
