AYY.pdb
     RDKit          3D

 30 31  0  0  1  0  0  0  0  0999 V2000
   11.1636  -17.8743   14.9540 C   0  0  0  0  0  0  0  0  0  0  0  0
   10.2380  -16.6816   15.0967 C   0  0  2  0  0  0  0  0  0  0  0  0
    9.8461  -16.1297   13.8296 N   0  0  0  0  0  0  0  0  0  0  0  0
   10.8882  -15.6786   15.9551 C   0  0  0  0  0  0  0  0  0  0  0  0
   11.5741  -14.7796   15.3773 O   0  0  0  0  0  0  0  0  0  0  0  0
    5.3957  -13.0748   19.4084 O   0  0  0  0  0  0  0  0  0  0  0  0
    6.7185  -13.4949   19.4602 C   0  0  0  0  0  0  0  0  0  0  0  0
    7.0714  -14.7694   19.8719 C   0  0  0  0  0  0  0  0  0  0  0  0
    8.3914  -15.1775   19.9197 C   0  0  0  0  0  0  0  0  0  0  0  0
    9.3973  -14.3128   19.5537 C   0  0  0  0  0  0  0  0  0  0  0  0
   10.8143  -14.6782   19.5804 C   0  0  0  0  0  0  0  0  0  0  0  0
   11.4382  -14.7304   18.2033 C   0  0  2  0  0  0  0  0  0  0  0  0
   10.7630  -15.7028   17.3668 N   0  0  0  0  0  0  0  0  0  0  0  0
   12.8571  -15.1706   18.4001 C   0  0  0  0  0  0  0  0  0  0  0  0
   13.1914  -16.3835   18.4157 O   0  0  0  0  0  0  0  0  0  0  0  0
    9.0412  -13.0444   19.1442 C   0  0  0  0  0  0  0  0  0  0  0  0
    7.7160  -12.6395   19.0978 C   0  0  0  0  0  0  0  0  0  0  0  0
   21.7090  -14.6937   18.1133 O   0  0  0  0  0  0  0  0  0  0  0  0
   20.3339  -14.4336   18.0908 C   0  0  0  0  0  0  0  0  0  0  0  0
   19.4846  -15.0962   17.2294 C   0  0  0  0  0  0  0  0  0  0  0  0
   18.1280  -14.8429   17.2038 C   0  0  0  0  0  0  0  0  0  0  0  0
   17.5608  -13.9053   18.0493 C   0  0  0  0  0  0  0  0  0  0  0  0
   16.1270  -13.5918   18.0668 C   0  0  0  0  0  0  0  0  0  0  0  0
   15.2686  -14.6490   18.7117 C   0  0  2  0  0  0  0  0  0  0  0  0
   13.8935  -14.2129   18.5792 N   0  0  0  0  0  0  0  0  0  0  0  0
   15.5666  -14.9020   20.1160 C   0  0  0  0  0  0  0  0  0  0  0  0
   16.6966  -15.2962   20.4809 O   0  0  0  0  0  0  0  0  0  0  0  0
   18.4209  -13.2496   18.9057 C   0  0  0  0  0  0  0  0  0  0  0  0
   19.7760  -13.4983   18.9359 C   0  0  0  0  0  0  0  0  0  0  0  0
   14.5889  -14.7061   21.0755 O   0  0  0  0  0  0  0  0  0  0  0  0
  2  1  1  6
  2  3  1  0
  4  2  1  0
  4 13  1  0
  5  4  2  0
  7 17  2  0
  7  6  1  0
  8  7  1  0
  9 10  1  0
  9  8  2  0
 10 16  2  0
 12 11  1  1
 11 10  1  0
 13 12  1  0
 14 15  2  0
 14 12  1  0
 16 17  1  0
 18 19  1  0
 19 20  2  0
 19 29  1  0
 20 21  1  0
 21 22  2  0
 22 23  1  0
 24 23  1  1
 24 25  1  0
 24 26  1  0
 25 14  1  0
 26 30  1  0
 27 26  2  0
 28 22  1  0
 29 28  2  0
M  END
$$$$
