AYY.pdb
     RDKit          3D

 30 31  0  0  1  0  0  0  0  0999 V2000
    9.9194  -18.7254   19.4989 C   0  0  0  0  0  0  0  0  0  0  0  0
    9.9422  -17.2553   19.1275 C   0  0  2  0  0  0  0  0  0  0  0  0
   11.1019  -16.8958   18.3598 N   0  0  0  0  0  0  0  0  0  0  0  0
    9.8280  -16.4552   20.3573 C   0  0  0  0  0  0  0  0  0  0  0  0
   10.9087  -16.0500   20.8866 O   0  0  0  0  0  0  0  0  0  0  0  0
    6.2623  -11.6196   26.8847 O   0  0  0  0  0  0  0  0  0  0  0  0
    6.4627  -12.3941   25.7493 C   0  0  0  0  0  0  0  0  0  0  0  0
    7.1388  -11.9143   24.6397 C   0  0  0  0  0  0  0  0  0  0  0  0
    7.3328  -12.6938   23.5146 C   0  0  0  0  0  0  0  0  0  0  0  0
    6.8510  -13.9821   23.4731 C   0  0  0  0  0  0  0  0  0  0  0  0
    7.0202  -14.8616   22.3155 C   0  0  0  0  0  0  0  0  0  0  0  0
    8.4636  -15.2374   22.0636 C   0  0  2  0  0  0  0  0  0  0  0  0
    8.5728  -16.1428   20.9369 N   0  0  0  0  0  0  0  0  0  0  0  0
    8.9353  -15.9474   23.2962 C   0  0  0  0  0  0  0  0  0  0  0  0
    8.7157  -17.1700   23.4966 O   0  0  0  0  0  0  0  0  0  0  0  0
    6.1783  -14.4558   24.5805 C   0  0  0  0  0  0  0  0  0  0  0  0
    5.9861  -13.6704   25.7067 C   0  0  0  0  0  0  0  0  0  0  0  0
   12.0424  -17.0081   31.5319 O   0  0  0  0  0  0  0  0  0  0  0  0
   11.6805  -16.4736   30.2898 C   0  0  0  0  0  0  0  0  0  0  0  0
   11.0749  -15.2393   30.1802 C   0  0  0  0  0  0  0  0  0  0  0  0
   10.7164  -14.7085   28.9577 C   0  0  0  0  0  0  0  0  0  0  0  0
   10.9526  -15.4000   27.7821 C   0  0  0  0  0  0  0  0  0  0  0  0
   10.5927  -14.8885   26.4543 C   0  0  0  0  0  0  0  0  0  0  0  0
   10.0857  -15.9395   25.5010 C   0  0  2  0  0  0  0  0  0  0  0  0
    9.6614  -15.2488   24.3004 N   0  0  0  0  0  0  0  0  0  0  0  0
    8.9855  -16.7465   26.0137 C   0  0  0  0  0  0  0  0  0  0  0  0
    7.8185  -16.2982   26.0659 O   0  0  0  0  0  0  0  0  0  0  0  0
   11.5588  -16.6331   27.9055 C   0  0  0  0  0  0  0  0  0  0  0  0
   11.9190  -17.1682   29.1232 C   0  0  0  0  0  0  0  0  0  0  0  0
    9.2224  -18.0365   26.4550 O   0  0  0  0  0  0  0  0  0  0  0  0
  2  1  1  1
  2  3  1  0
  4  2  1  0
  4 13  1  0
  5  4  2  0
  7 17  2  0
  7  6  1  0
  8  7  1  0
  9 10  1  0
  9  8  2  0
 10 16  2  0
 12 11  1  1
 11 10  1  0
 13 12  1  0
 14 15  2  0
 14 12  1  0
 16 17  1  0
 18 19  1  0
 19 20  2  0
 19 29  1  0
 20 21  1  0
 21 22  2  0
 22 23  1  0
 24 23  1  1
 24 25  1  0
 24 26  1  0
 25 14  1  0
 26 30  1  0
 27 26  2  0
 28 22  1  0
 29 28  2  0
M  END
$$$$
