AYY.pdb
     RDKit          3D

 30 31  0  0  1  0  0  0  0  0999 V2000
    9.8286  -19.9957   21.6541 C   0  0  0  0  0  0  0  0  0  0  0  0
    8.7801  -19.6650   20.6096 C   0  0  2  0  0  0  0  0  0  0  0  0
    9.2663  -19.8235   19.2672 N   0  0  0  0  0  0  0  0  0  0  0  0
    8.2811  -18.3026   20.8556 C   0  0  0  0  0  0  0  0  0  0  0  0
    8.8298  -17.3592   20.2065 O   0  0  0  0  0  0  0  0  0  0  0  0
    1.8865  -20.2481   19.7027 O   0  0  0  0  0  0  0  0  0  0  0  0
    2.7285  -19.4094   20.4214 C   0  0  0  0  0  0  0  0  0  0  0  0
    3.2325  -19.7590   21.6632 C   0  0  0  0  0  0  0  0  0  0  0  0
    4.0701  -18.9166   22.3702 C   0  0  0  0  0  0  0  0  0  0  0  0
    4.4259  -17.6946   21.8470 C   0  0  0  0  0  0  0  0  0  0  0  0
    5.3074  -16.7544   22.5405 C   0  0  0  0  0  0  0  0  0  0  0  0
    6.6999  -16.7044   21.9519 C   0  0  2  0  0  0  0  0  0  0  0  0
    7.2341  -18.0401   21.7744 N   0  0  0  0  0  0  0  0  0  0  0  0
    7.5519  -15.9760   22.9466 C   0  0  0  0  0  0  0  0  0  0  0  0
    7.2829  -14.8120   23.3416 O   0  0  0  0  0  0  0  0  0  0  0  0
    3.9216  -17.3506   20.6098 C   0  0  0  0  0  0  0  0  0  0  0  0
    3.0818  -18.1987   19.9043 C   0  0  0  0  0  0  0  0  0  0  0  0
   11.0306  -14.0391   30.5021 O   0  0  0  0  0  0  0  0  0  0  0  0
   10.4116  -14.4147   29.3041 C   0  0  0  0  0  0  0  0  0  0  0  0
    9.9880  -13.4798   28.3827 C   0  0  0  0  0  0  0  0  0  0  0  0
    9.3773  -13.8455   27.2002 C   0  0  0  0  0  0  0  0  0  0  0  0
    9.1637  -15.1772   26.8891 C   0  0  0  0  0  0  0  0  0  0  0  0
    8.5187  -15.6268   25.6497 C   0  0  0  0  0  0  0  0  0  0  0  0
    9.4754  -15.9151   24.5218 C   0  0  2  0  0  0  0  0  0  0  0  0
    8.7160  -16.5885   23.4880 N   0  0  0  0  0  0  0  0  0  0  0  0
   10.6248  -16.7313   24.8922 C   0  0  0  0  0  0  0  0  0  0  0  0
   10.5676  -17.9812   24.8775 O   0  0  0  0  0  0  0  0  0  0  0  0
    9.5919  -16.1021   27.8189 C   0  0  0  0  0  0  0  0  0  0  0  0
   10.2022  -15.7430   29.0011 C   0  0  0  0  0  0  0  0  0  0  0  0
   11.8098  -16.1245   25.2698 O   0  0  0  0  0  0  0  0  0  0  0  0
  2  1  1  1
  2  3  1  0
  4  2  1  0
  4 13  1  0
  5  4  2  0
  7 17  2  0
  7  6  1  0
  8  7  1  0
  9 10  1  0
  9  8  2  0
 10 16  2  0
 12 11  1  1
 11 10  1  0
 13 12  1  0
 14 15  2  0
 14 12  1  0
 16 17  1  0
 18 19  1  0
 19 20  2  0
 19 29  1  0
 20 21  1  0
 21 22  2  0
 22 23  1  0
 24 23  1  1
 24 25  1  0
 24 26  1  0
 25 14  1  0
 26 30  1  0
 27 26  2  0
 28 22  1  0
 29 28  2  0
M  END
$$$$
