AYY.pdb
     RDKit          3D

 30 31  0  0  1  0  0  0  0  0999 V2000
    5.9784  -15.3981   21.2143 C   0  0  0  0  0  0  0  0  0  0  0  0
    7.0268  -16.3646   21.7305 C   0  0  2  0  0  0  0  0  0  0  0  0
    6.4831  -17.3424   22.6315 N   0  0  0  0  0  0  0  0  0  0  0  0
    8.1167  -15.5934   22.3495 C   0  0  0  0  0  0  0  0  0  0  0  0
    8.8067  -14.8504   21.5852 O   0  0  0  0  0  0  0  0  0  0  0  0
    4.7278  -10.7204   25.8516 O   0  0  0  0  0  0  0  0  0  0  0  0
    5.7550  -11.6551   25.8387 C   0  0  0  0  0  0  0  0  0  0  0  0
    5.5518  -12.9785   26.1934 C   0  0  0  0  0  0  0  0  0  0  0  0
    6.5814  -13.9008   26.1770 C   0  0  0  0  0  0  0  0  0  0  0  0
    7.8488  -13.5175   25.8022 C   0  0  0  0  0  0  0  0  0  0  0  0
    8.9839  -14.4405   25.7625 C   0  0  0  0  0  0  0  0  0  0  0  0
    9.3927  -14.8158   24.3554 C   0  0  2  0  0  0  0  0  0  0  0  0
    8.3955  -15.6671   23.7373 N   0  0  0  0  0  0  0  0  0  0  0  0
   10.6711  -15.5879   24.4797 C   0  0  0  0  0  0  0  0  0  0  0  0
   11.7438  -15.0589   24.8706 O   0  0  0  0  0  0  0  0  0  0  0  0
    8.0466  -12.1984   25.4498 C   0  0  0  0  0  0  0  0  0  0  0  0
    7.0109  -11.2768   25.4677 C   0  0  0  0  0  0  0  0  0  0  0  0
   10.6199  -16.0386   30.6082 O   0  0  0  0  0  0  0  0  0  0  0  0
   10.8069  -16.6870   29.3818 C   0  0  0  0  0  0  0  0  0  0  0  0
    9.7495  -16.9697   28.5425 C   0  0  0  0  0  0  0  0  0  0  0  0
    9.9292  -17.6088   27.3325 C   0  0  0  0  0  0  0  0  0  0  0  0
   11.1893  -17.9950   26.9092 C   0  0  0  0  0  0  0  0  0  0  0  0
   11.4424  -18.6785   25.6352 C   0  0  0  0  0  0  0  0  0  0  0  0
   11.8716  -17.7656   24.5159 C   0  0  2  0  0  0  0  0  0  0  0  0
   10.7151  -16.9718   24.1537 N   0  0  0  0  0  0  0  0  0  0  0  0
   12.3828  -18.4495   23.3347 C   0  0  0  0  0  0  0  0  0  0  0  0
   11.8449  -18.3038   22.2143 O   0  0  0  0  0  0  0  0  0  0  0  0
   12.2381  -17.7064   27.7577 C   0  0  0  0  0  0  0  0  0  0  0  0
   12.0648  -17.0686   28.9669 C   0  0  0  0  0  0  0  0  0  0  0  0
   13.4847  -19.2799   23.4401 O   0  0  0  0  0  0  0  0  0  0  0  0
  2  1  1  1
  2  3  1  0
  4  2  1  0
  4 13  1  0
  5  4  2  0
  7 17  2  0
  7  6  1  0
  8  7  1  0
  9 10  1  0
  9  8  2  0
 10 16  2  0
 12 11  1  1
 11 10  1  0
 13 12  1  0
 14 15  2  0
 14 12  1  0
 16 17  1  0
 18 19  1  0
 19 20  2  0
 19 29  1  0
 20 21  1  0
 21 22  2  0
 22 23  1  0
 24 23  1  1
 24 25  1  0
 24 26  1  0
 25 14  1  0
 26 30  1  0
 27 26  2  0
 28 22  1  0
 29 28  2  0
M  END
$$$$
