AYY.pdb
     RDKit          3D

 30 31  0  0  1  0  0  0  0  0999 V2000
    9.4194  -18.5369   20.2604 C   0  0  0  0  0  0  0  0  0  0  0  0
    9.1363  -17.0656   20.4948 C   0  0  2  0  0  0  0  0  0  0  0  0
    9.5106  -16.2445   19.3771 N   0  0  0  0  0  0  0  0  0  0  0  0
    9.8099  -16.6463   21.7342 C   0  0  0  0  0  0  0  0  0  0  0  0
   11.0629  -16.4494   21.6739 O   0  0  0  0  0  0  0  0  0  0  0  0
   11.2192  -14.1443   30.0981 O   0  0  0  0  0  0  0  0  0  0  0  0
   10.6185  -14.5183   28.9030 C   0  0  0  0  0  0  0  0  0  0  0  0
   10.1430  -15.8011   28.6870 C   0  0  0  0  0  0  0  0  0  0  0  0
    9.5467  -16.1629   27.4934 C   0  0  0  0  0  0  0  0  0  0  0  0
    9.4111  -15.2421   26.4798 C   0  0  0  0  0  0  0  0  0  0  0  0
    8.7908  -15.5568   25.1920 C   0  0  0  0  0  0  0  0  0  0  0  0
    9.7805  -16.0636   24.1665 C   0  0  2  0  0  0  0  0  0  0  0  0
    9.1032  -16.4660   22.9497 N   0  0  0  0  0  0  0  0  0  0  0  0
   10.4343  -17.2686   24.7717 C   0  0  0  0  0  0  0  0  0  0  0  0
    9.8644  -18.3890   24.8280 O   0  0  0  0  0  0  0  0  0  0  0  0
    9.8862  -13.9657   26.6994 C   0  0  0  0  0  0  0  0  0  0  0  0
   10.4836  -13.6073   27.8981 C   0  0  0  0  0  0  0  0  0  0  0  0
   14.0965  -19.9747   19.9044 O   0  0  0  0  0  0  0  0  0  0  0  0
   14.0077  -19.6128   21.2537 C   0  0  0  0  0  0  0  0  0  0  0  0
   13.5355  -20.4879   22.2095 C   0  0  0  0  0  0  0  0  0  0  0  0
   13.4463  -20.1355   23.5410 C   0  0  0  0  0  0  0  0  0  0  0  0
   13.8307  -18.8782   23.9739 C   0  0  0  0  0  0  0  0  0  0  0  0
   13.7574  -18.4456   25.3746 C   0  0  0  0  0  0  0  0  0  0  0  0
   12.3567  -18.3491   25.9215 C   0  0  2  0  0  0  0  0  0  0  0  0
   11.7470  -17.1842   25.3133 N   0  0  0  0  0  0  0  0  0  0  0  0
   12.2760  -18.2397   27.3728 C   0  0  0  0  0  0  0  0  0  0  0  0
   12.1782  -19.2549   28.0977 O   0  0  0  0  0  0  0  0  0  0  0  0
   14.3011  -18.0126   23.0082 C   0  0  0  0  0  0  0  0  0  0  0  0
   14.3924  -18.3588   21.6775 C   0  0  0  0  0  0  0  0  0  0  0  0
   12.3073  -16.9938   27.9742 O   0  0  0  0  0  0  0  0  0  0  0  0
  2  1  1  6
  2  3  1  0
  4  2  1  0
  4 13  1  0
  5  4  2  0
  7 17  2  0
  7  6  1  0
  8  7  1  0
  9 10  1  0
  9  8  2  0
 10 16  2  0
 12 11  1  1
 11 10  1  0
 13 12  1  0
 14 15  2  0
 14 12  1  0
 16 17  1  0
 18 19  1  0
 19 20  2  0
 19 29  1  0
 20 21  1  0
 21 22  2  0
 22 23  1  0
 24 23  1  1
 24 25  1  0
 24 26  1  0
 25 14  1  0
 26 30  1  0
 27 26  2  0
 28 22  1  0
 29 28  2  0
M  END
$$$$
