AYY.pdb
     RDKit          3D

 30 31  0  0  1  0  0  0  0  0999 V2000
    6.0425  -19.5601   24.6695 C   0  0  0  0  0  0  0  0  0  0  0  0
    5.9274  -19.3700   23.1693 C   0  0  2  0  0  0  0  0  0  0  0  0
    6.1430  -20.5878   22.4385 N   0  0  0  0  0  0  0  0  0  0  0  0
    6.8582  -18.3085   22.7545 C   0  0  0  0  0  0  0  0  0  0  0  0
    8.0295  -18.6648   22.4174 O   0  0  0  0  0  0  0  0  0  0  0  0
    8.6596  -12.7342   16.8861 O   0  0  0  0  0  0  0  0  0  0  0  0
    8.1642  -13.2410   18.0805 C   0  0  0  0  0  0  0  0  0  0  0  0
    7.6427  -14.5204   18.1784 C   0  0  0  0  0  0  0  0  0  0  0  0
    7.1522  -15.0151   19.3724 C   0  0  0  0  0  0  0  0  0  0  0  0
    7.1721  -14.2349   20.5057 C   0  0  0  0  0  0  0  0  0  0  0  0
    6.6696  -14.6944   21.8013 C   0  0  0  0  0  0  0  0  0  0  0  0
    7.4073  -15.9061   22.3263 C   0  0  2  0  0  0  0  0  0  0  0  0
    6.4776  -16.9433   22.7276 N   0  0  0  0  0  0  0  0  0  0  0  0
    8.1641  -15.4471   23.5356 C   0  0  0  0  0  0  0  0  0  0  0  0
    7.8394  -14.4197   24.1854 O   0  0  0  0  0  0  0  0  0  0  0  0
    7.6924  -12.9612   20.4036 C   0  0  0  0  0  0  0  0  0  0  0  0
    8.1833  -12.4693   19.2040 C   0  0  0  0  0  0  0  0  0  0  0  0
    5.9227  -10.9001   26.5685 O   0  0  0  0  0  0  0  0  0  0  0  0
    6.6905  -12.0688   26.5048 C   0  0  0  0  0  0  0  0  0  0  0  0
    8.0670  -12.0374   26.5874 C   0  0  0  0  0  0  0  0  0  0  0  0
    8.8280  -13.1872   26.5251 C   0  0  0  0  0  0  0  0  0  0  0  0
    8.2347  -14.4288   26.3758 C   0  0  0  0  0  0  0  0  0  0  0  0
    8.9905  -15.6848   26.3015 C   0  0  0  0  0  0  0  0  0  0  0  0
   10.0022  -15.7350   25.1860 C   0  0  2  0  0  0  0  0  0  0  0  0
    9.2972  -16.1721   23.9982 N   0  0  0  0  0  0  0  0  0  0  0  0
   11.1363  -16.6170   25.4319 C   0  0  0  0  0  0  0  0  0  0  0  0
   11.3004  -17.6663   24.7704 O   0  0  0  0  0  0  0  0  0  0  0  0
    6.8577  -14.4464   26.2943 C   0  0  0  0  0  0  0  0  0  0  0  0
    6.0926  -13.3019   26.3559 C   0  0  0  0  0  0  0  0  0  0  0  0
   12.0579  -16.2993   26.4141 O   0  0  0  0  0  0  0  0  0  0  0  0
  2  1  1  1
  2  3  1  0
  4  2  1  0
  4 13  1  0
  5  4  2  0
  7 17  2  0
  7  6  1  0
  8  7  1  0
  9 10  1  0
  9  8  2  0
 10 16  2  0
 12 11  1  1
 11 10  1  0
 13 12  1  0
 14 15  2  0
 14 12  1  0
 16 17  1  0
 18 19  1  0
 19 20  2  0
 19 29  1  0
 20 21  1  0
 21 22  2  0
 22 23  1  0
 24 23  1  1
 24 25  1  0
 24 26  1  0
 25 14  1  0
 26 30  1  0
 27 26  2  0
 28 22  1  0
 29 28  2  0
M  END
$$$$
