AYY.pdb
     RDKit          3D

 30 31  0  0  1  0  0  0  0  0999 V2000
    5.3211  -19.8467   23.7196 C   0  0  0  0  0  0  0  0  0  0  0  0
    5.2813  -19.0506   22.4295 C   0  0  2  0  0  0  0  0  0  0  0  0
    5.1736  -19.8861   21.2660 N   0  0  0  0  0  0  0  0  0  0  0  0
    6.4674  -18.1814   22.3736 C   0  0  0  0  0  0  0  0  0  0  0  0
    7.5061  -18.6546   21.8172 O   0  0  0  0  0  0  0  0  0  0  0  0
    7.7971  -12.5546   17.4727 O   0  0  0  0  0  0  0  0  0  0  0  0
    7.6865  -13.0372   18.7704 C   0  0  0  0  0  0  0  0  0  0  0  0
    8.6758  -12.8355   19.7186 C   0  0  0  0  0  0  0  0  0  0  0  0
    8.5556  -13.3203   21.0076 C   0  0  0  0  0  0  0  0  0  0  0  0
    7.4336  -14.0239   21.3811 C   0  0  0  0  0  0  0  0  0  0  0  0
    7.2411  -14.5652   22.7273 C   0  0  0  0  0  0  0  0  0  0  0  0
    7.6369  -16.0206   22.8423 C   0  0  2  0  0  0  0  0  0  0  0  0
    6.4649  -16.8706   22.9133 N   0  0  0  0  0  0  0  0  0  0  0  0
    8.4006  -16.1494   24.1252 C   0  0  0  0  0  0  0  0  0  0  0  0
    7.9380  -15.7585   25.2282 O   0  0  0  0  0  0  0  0  0  0  0  0
    6.4508  -14.2224   20.4335 C   0  0  0  0  0  0  0  0  0  0  0  0
    6.5757  -13.7343   19.1419 C   0  0  0  0  0  0  0  0  0  0  0  0
    6.0168  -20.6263   27.8102 O   0  0  0  0  0  0  0  0  0  0  0  0
    7.1659  -20.0123   27.2985 C   0  0  0  0  0  0  0  0  0  0  0  0
    7.4953  -20.0900   25.9614 C   0  0  0  0  0  0  0  0  0  0  0  0
    8.6272  -19.4862   25.4525 C   0  0  0  0  0  0  0  0  0  0  0  0
    9.4849  -18.7721   26.2712 C   0  0  0  0  0  0  0  0  0  0  0  0
   10.7030  -18.1105   25.7888 C   0  0  0  0  0  0  0  0  0  0  0  0
   10.5005  -16.6848   25.3452 C   0  0  2  0  0  0  0  0  0  0  0  0
    9.6994  -16.7293   24.1390 N   0  0  0  0  0  0  0  0  0  0  0  0
   11.7308  -15.9473   25.0863 C   0  0  0  0  0  0  0  0  0  0  0  0
   12.0028  -15.5155   23.9438 O   0  0  0  0  0  0  0  0  0  0  0  0
    9.1442  -18.7020   27.6062 C   0  0  0  0  0  0  0  0  0  0  0  0
    8.0154  -19.3027   28.1201 C   0  0  0  0  0  0  0  0  0  0  0  0
   12.6252  -15.7128   26.1159 O   0  0  0  0  0  0  0  0  0  0  0  0
  2  1  1  1
  2  3  1  0
  4  2  1  0
  4 13  1  0
  5  4  2  0
  7 17  2  0
  7  6  1  0
  8  7  1  0
  9 10  1  0
  9  8  2  0
 10 16  2  0
 12 11  1  1
 11 10  1  0
 13 12  1  0
 14 15  2  0
 14 12  1  0
 16 17  1  0
 18 19  1  0
 19 20  2  0
 19 29  1  0
 20 21  1  0
 21 22  2  0
 22 23  1  0
 24 23  1  6
 24 25  1  0
 24 26  1  0
 25 14  1  0
 26 30  1  0
 27 26  2  0
 28 22  1  0
 29 28  2  0
M  END
$$$$
