MQR.pdb
     RDKit          3D

 29 28  0  0  1  0  0  0  0  0999 V2000
    7.0506  -11.3783   19.8830 C   0  0  0  0  0  0  0  0  0  0  0  0
    7.8873  -12.7060   20.7491 S   0  0  0  0  0  0  0  0  0  0  0  0
    6.7735  -14.1602   20.7635 C   0  0  0  0  0  0  0  0  0  0  0  0
    7.3658  -15.2720   21.5404 C   0  0  0  0  0  0  0  0  0  0  0  0
    8.4357  -16.0644   20.8581 C   0  0  2  0  0  0  0  0  0  0  0  0
    7.7928  -16.9374   19.8456 N   0  0  0  0  0  0  0  0  0  0  0  0
    9.0805  -16.9578   21.8860 C   0  0  0  0  0  0  0  0  0  0  0  0
    8.4419  -18.0058   22.1616 O   0  0  0  0  0  0  0  0  0  0  0  0
   15.1604  -16.8417   23.4110 N   0  0  0  0  0  0  0  0  0  0  0  0
   14.5175  -17.1950   22.2019 C   0  0  0  0  0  0  0  0  0  0  0  0
   15.1809  -17.3455   21.1510 O   0  0  0  0  0  0  0  0  0  0  0  0
   13.0480  -17.3953   22.1490 C   0  0  0  0  0  0  0  0  0  0  0  0
   12.4780  -17.1791   23.5280 C   0  0  0  0  0  0  0  0  0  0  0  0
   10.9461  -17.3413   23.5162 C   0  0  2  0  0  0  0  0  0  0  0  0
   10.2992  -16.6139   22.4650 N   0  0  0  0  0  0  0  0  0  0  0  0
   10.4277  -17.1381   24.8589 C   0  0  0  0  0  0  0  0  0  0  0  0
   10.4959  -15.9868   25.4181 O   0  0  0  0  0  0  0  0  0  0  0  0
    5.8814  -22.3383   24.5382 N   0  0  0  0  0  0  0  0  0  0  0  0
    7.0874  -21.6881   24.2049 C   0  0  0  0  0  0  0  0  0  0  0  0
    7.9117  -22.2374   23.3900 N   0  0  0  0  0  0  0  0  0  0  0  0
    7.3746  -20.4266   24.7800 N   0  0  0  0  0  0  0  0  0  0  0  0
    6.4606  -19.8169   25.6985 C   0  0  0  0  0  0  0  0  0  0  0  0
    7.0074  -18.4980   26.2090 C   0  0  0  0  0  0  0  0  0  0  0  0
    8.0665  -18.7259   27.2376 C   0  0  0  0  0  0  0  0  0  0  0  0
    9.2673  -17.8757   27.0006 C   0  0  2  0  0  0  0  0  0  0  0  0
    9.8198  -18.1524   25.6503 N   0  0  0  0  0  0  0  0  0  0  0  0
   10.3504  -18.1750   27.9410 C   0  0  0  0  0  0  0  0  0  0  0  0
   10.1974  -17.9217   29.2847 O   0  0  0  0  0  0  0  0  0  0  0  0
   11.4299  -18.6620   27.5446 O   0  0  0  0  0  0  0  0  0  0  0  0
  2  1  1  0
  3  4  1  0
  3  2  1  0
  4  5  1  0
  5  7  1  0
  5  6  1  6
  7  8  2  0
 10 12  1  0
 10  9  1  0
 11 10  2  0
 13 12  1  0
 14 13  1  1
 15 14  1  0
 15  7  1  0
 16 17  2  0
 16 14  1  0
 19 21  1  0
 19 18  1  0
 20 19  2  0
 22 21  1  0
 23 22  1  0
 23 24  1  0
 25 24  1  1
 25 26  1  0
 26 16  1  0
 27 25  1  0
 27 28  1  0
 29 27  2  0
M  END
$$$$
