MQR.pdb
     RDKit          3D

 29 28  0  0  1  0  0  0  0  0999 V2000
    7.3521  -10.7903   27.0185 C   0  0  0  0  0  0  0  0  0  0  0  0
    6.0976  -11.8821   27.6873 S   0  0  0  0  0  0  0  0  0  0  0  0
    5.9187  -13.3026   26.5446 C   0  0  0  0  0  0  0  0  0  0  0  0
    7.2420  -13.7875   26.0928 C   0  0  0  0  0  0  0  0  0  0  0  0
    7.2373  -14.8395   25.0291 C   0  0  2  0  0  0  0  0  0  0  0  0
    6.4888  -16.0137   25.5405 N   0  0  0  0  0  0  0  0  0  0  0  0
    8.6617  -15.2735   24.7973 C   0  0  0  0  0  0  0  0  0  0  0  0
    9.4202  -14.3908   24.3205 O   0  0  0  0  0  0  0  0  0  0  0  0
   11.1000  -20.3110   27.6007 N   0  0  0  0  0  0  0  0  0  0  0  0
   10.8206  -19.0503   28.1774 C   0  0  0  0  0  0  0  0  0  0  0  0
   10.7792  -18.9167   29.4215 O   0  0  0  0  0  0  0  0  0  0  0  0
   10.5711  -17.8602   27.3267 C   0  0  0  0  0  0  0  0  0  0  0  0
   10.7296  -18.2549   25.8802 C   0  0  0  0  0  0  0  0  0  0  0  0
   10.4050  -17.0685   24.9527 C   0  0  2  0  0  0  0  0  0  0  0  0
    9.0710  -16.5684   25.1047 N   0  0  0  0  0  0  0  0  0  0  0  0
   10.8287  -17.3830   23.5983 C   0  0  0  0  0  0  0  0  0  0  0  0
   10.4590  -18.4734   23.0350 O   0  0  0  0  0  0  0  0  0  0  0  0
    8.5537  -12.0799   18.9290 N   0  0  0  0  0  0  0  0  0  0  0  0
    8.0259  -13.3503   18.6195 C   0  0  0  0  0  0  0  0  0  0  0  0
    7.0345  -13.4569   17.8125 N   0  0  0  0  0  0  0  0  0  0  0  0
    8.6026  -14.5009   19.2094 N   0  0  0  0  0  0  0  0  0  0  0  0
    9.9902  -14.5240   19.5620 C   0  0  0  0  0  0  0  0  0  0  0  0
   10.3893  -15.8862   20.0953 C   0  0  0  0  0  0  0  0  0  0  0  0
   11.8384  -15.9098   20.4576 C   0  0  0  0  0  0  0  0  0  0  0  0
   12.1461  -16.9682   21.4606 C   0  0  2  0  0  0  0  0  0  0  0  0
   11.6589  -16.5484   22.7991 N   0  0  0  0  0  0  0  0  0  0  0  0
   13.5876  -17.1827   21.6129 C   0  0  0  0  0  0  0  0  0  0  0  0
   14.2527  -16.6955   22.7144 O   0  0  0  0  0  0  0  0  0  0  0  0
   14.2394  -17.8072   20.7500 O   0  0  0  0  0  0  0  0  0  0  0  0
  2  1  1  0
  3  4  1  0
  3  2  1  0
  4  5  1  0
  5  7  1  0
  5  6  1  1
  7  8  2  0
 10 12  1  0
 10  9  1  0
 11 10  2  0
 13 12  1  0
 14 13  1  1
 15 14  1  0
 15  7  1  0
 16 17  2  0
 16 14  1  0
 19 21  1  0
 19 18  1  0
 20 19  2  0
 22 21  1  0
 23 22  1  0
 23 24  1  0
 25 24  1  6
 25 26  1  0
 26 16  1  0
 27 25  1  0
 27 28  1  0
 29 27  2  0
M  END
$$$$
