MQR.pdb
     RDKit          3D

 29 28  0  0  1  0  0  0  0  0999 V2000
    7.4013  -11.0396   26.4145 C   0  0  0  0  0  0  0  0  0  0  0  0
    6.4401  -11.8763   27.6752 S   0  0  0  0  0  0  0  0  0  0  0  0
    6.5286  -13.6768   27.3497 C   0  0  0  0  0  0  0  0  0  0  0  0
    6.7063  -13.9448   25.9051 C   0  0  0  0  0  0  0  0  0  0  0  0
    6.7352  -15.3829   25.4939 C   0  0  2  0  0  0  0  0  0  0  0  0
    7.8300  -16.0559   26.2348 N   0  0  0  0  0  0  0  0  0  0  0  0
    7.0755  -15.4409   24.0271 C   0  0  0  0  0  0  0  0  0  0  0  0
    6.3426  -16.1941   23.3361 O   0  0  0  0  0  0  0  0  0  0  0  0
    6.7570  -12.6174   19.4315 N   0  0  0  0  0  0  0  0  0  0  0  0
    8.0363  -12.5594   20.0317 C   0  0  0  0  0  0  0  0  0  0  0  0
    9.0091  -12.0794   19.4068 O   0  0  0  0  0  0  0  0  0  0  0  0
    8.2563  -13.0633   21.4100 C   0  0  0  0  0  0  0  0  0  0  0  0
    9.2801  -14.1692   21.3656 C   0  0  0  0  0  0  0  0  0  0  0  0
    9.0629  -15.1601   22.5250 C   0  0  2  0  0  0  0  0  0  0  0  0
    8.1326  -14.6962   23.5108 N   0  0  0  0  0  0  0  0  0  0  0  0
   10.3513  -15.6207   23.0157 C   0  0  0  0  0  0  0  0  0  0  0  0
   10.9034  -15.0597   24.0273 O   0  0  0  0  0  0  0  0  0  0  0  0
   13.2434  -22.4582   26.8679 N   0  0  0  0  0  0  0  0  0  0  0  0
   11.8973  -22.0386   26.8560 C   0  0  0  0  0  0  0  0  0  0  0  0
   11.0525  -22.5609   27.6678 N   0  0  0  0  0  0  0  0  0  0  0  0
   11.4929  -21.0381   25.9396 N   0  0  0  0  0  0  0  0  0  0  0  0
   12.0417  -20.9928   24.6177 C   0  0  0  0  0  0  0  0  0  0  0  0
   12.5934  -19.6146   24.3089 C   0  0  0  0  0  0  0  0  0  0  0  0
   11.5842  -18.7914   23.5772 C   0  0  0  0  0  0  0  0  0  0  0  0
   12.1141  -17.4449   23.2209 C   0  0  2  0  0  0  0  0  0  0  0  0
   11.0942  -16.6927   22.4469 N   0  0  0  0  0  0  0  0  0  0  0  0
   13.2907  -17.5266   22.3514 C   0  0  0  0  0  0  0  0  0  0  0  0
   13.2174  -17.1210   21.0387 O   0  0  0  0  0  0  0  0  0  0  0  0
   14.3782  -17.9654   22.7807 O   0  0  0  0  0  0  0  0  0  0  0  0
  2  1  1  0
  3  4  1  0
  3  2  1  0
  4  5  1  0
  5  7  1  0
  5  6  1  1
  7  8  2  0
 10 12  1  0
 10  9  1  0
 11 10  2  0
 13 12  1  0
 14 13  1  6
 15 14  1  0
 15  7  1  0
 16 17  2  0
 16 14  1  0
 19 21  1  0
 19 18  1  0
 20 19  2  0
 22 21  1  0
 23 22  1  0
 23 24  1  0
 25 24  1  6
 25 26  1  0
 26 16  1  0
 27 25  1  0
 27 28  1  0
 29 27  2  0
M  END
$$$$
