MQR.pdb
     RDKit          3D

 29 28  0  0  1  0  0  0  0  0999 V2000
    7.7632  -13.4982   21.1609 C   0  0  0  0  0  0  0  0  0  0  0  0
    7.2922  -12.4724   19.7684 S   0  0  0  0  0  0  0  0  0  0  0  0
    8.1479  -13.1132   18.2808 C   0  0  0  0  0  0  0  0  0  0  0  0
    9.3315  -13.9179   18.6574 C   0  0  0  0  0  0  0  0  0  0  0  0
   10.1538  -14.4590   17.5308 C   0  0  2  0  0  0  0  0  0  0  0  0
    9.3150  -15.4068   16.7570 N   0  0  0  0  0  0  0  0  0  0  0  0
   11.2970  -15.2419   18.1231 C   0  0  0  0  0  0  0  0  0  0  0  0
   11.0294  -16.4317   18.4309 O   0  0  0  0  0  0  0  0  0  0  0  0
   16.7688  -13.0160   17.3714 N   0  0  0  0  0  0  0  0  0  0  0  0
   16.2651  -14.0627   16.5646 C   0  0  0  0  0  0  0  0  0  0  0  0
   16.6380  -14.1828   15.3756 O   0  0  0  0  0  0  0  0  0  0  0  0
   15.2873  -15.0397   17.1044 C   0  0  0  0  0  0  0  0  0  0  0  0
   15.0230  -14.7133   18.5525 C   0  0  0  0  0  0  0  0  0  0  0  0
   13.6489  -15.2543   18.9912 C   0  0  2  0  0  0  0  0  0  0  0  0
   12.5474  -14.6548   18.2986 N   0  0  0  0  0  0  0  0  0  0  0  0
   13.5737  -15.2640   20.4428 C   0  0  0  0  0  0  0  0  0  0  0  0
   13.6789  -14.1744   21.1096 O   0  0  0  0  0  0  0  0  0  0  0  0
    8.9524  -14.4351   24.1929 N   0  0  0  0  0  0  0  0  0  0  0  0
    8.2713  -15.3608   23.3759 C   0  0  0  0  0  0  0  0  0  0  0  0
    7.4409  -14.9488   22.4893 N   0  0  0  0  0  0  0  0  0  0  0  0
    8.5154  -16.7448   23.5473 N   0  0  0  0  0  0  0  0  0  0  0  0
    9.8249  -17.2206   23.8782 C   0  0  0  0  0  0  0  0  0  0  0  0
   10.8330  -16.8039   22.8250 C   0  0  0  0  0  0  0  0  0  0  0  0
   12.1971  -17.3068   23.1686 C   0  0  0  0  0  0  0  0  0  0  0  0
   13.2671  -16.3757   22.7116 C   0  0  2  0  0  0  0  0  0  0  0  0
   13.3840  -16.4324   21.2324 N   0  0  0  0  0  0  0  0  0  0  0  0
   14.5854  -16.7531   23.2281 C   0  0  0  0  0  0  0  0  0  0  0  0
   14.9705  -16.3813   24.4957 O   0  0  0  0  0  0  0  0  0  0  0  0
   15.3835  -17.4149   22.5319 O   0  0  0  0  0  0  0  0  0  0  0  0
  2  1  1  0
  3  4  1  0
  3  2  1  0
  4  5  1  0
  5  7  1  0
  5  6  1  6
  7  8  2  0
 10 12  1  0
 10  9  1  0
 11 10  2  0
 13 12  1  0
 14 13  1  1
 15 14  1  0
 15  7  1  0
 16 17  2  0
 16 14  1  0
 19 21  1  0
 19 18  1  0
 20 19  2  0
 22 21  1  0
 23 22  1  0
 23 24  1  0
 25 24  1  1
 25 26  1  0
 26 16  1  0
 27 25  1  0
 27 28  1  0
 29 27  2  0
M  END
$$$$
