MQR.pdb
     RDKit          3D

 29 28  0  0  1  0  0  0  0  0999 V2000
    5.3922  -10.7953   27.3827 C   0  0  0  0  0  0  0  0  0  0  0  0
    6.3476  -11.8078   26.2535 S   0  0  0  0  0  0  0  0  0  0  0  0
    6.6150  -13.4377   27.0458 C   0  0  0  0  0  0  0  0  0  0  0  0
    7.2448  -14.3874   26.1015 C   0  0  0  0  0  0  0  0  0  0  0  0
    6.3178  -15.1571   25.2148 C   0  0  2  0  0  0  0  0  0  0  0  0
    5.8390  -16.3452   25.9630 N   0  0  0  0  0  0  0  0  0  0  0  0
    7.1093  -15.6526   24.0321 C   0  0  0  0  0  0  0  0  0  0  0  0
    7.6316  -16.7879   24.1741 O   0  0  0  0  0  0  0  0  0  0  0  0
    7.5558  -12.7221   18.3600 N   0  0  0  0  0  0  0  0  0  0  0  0
    8.4782  -13.7891   18.2564 C   0  0  0  0  0  0  0  0  0  0  0  0
    9.0546  -14.0264   17.1707 O   0  0  0  0  0  0  0  0  0  0  0  0
    8.7846  -14.6495   19.4260 C   0  0  0  0  0  0  0  0  0  0  0  0
    7.9384  -14.2044   20.5917 C   0  0  0  0  0  0  0  0  0  0  0  0
    8.1112  -15.1605   21.7872 C   0  0  2  0  0  0  0  0  0  0  0  0
    7.2283  -14.8797   22.8800 N   0  0  0  0  0  0  0  0  0  0  0  0
    9.5233  -15.2817   22.1098 C   0  0  0  0  0  0  0  0  0  0  0  0
   10.1442  -14.3249   22.6944 O   0  0  0  0  0  0  0  0  0  0  0  0
   11.5697  -19.2778   28.7652 N   0  0  0  0  0  0  0  0  0  0  0  0
   12.6100  -19.6647   27.8956 C   0  0  0  0  0  0  0  0  0  0  0  0
   13.3892  -20.6328   28.2137 N   0  0  0  0  0  0  0  0  0  0  0  0
   12.7821  -18.9727   26.6724 N   0  0  0  0  0  0  0  0  0  0  0  0
   11.8481  -19.1406   25.6000 C   0  0  0  0  0  0  0  0  0  0  0  0
   12.3017  -18.3859   24.3656 C   0  0  0  0  0  0  0  0  0  0  0  0
   11.1275  -17.9005   23.5799 C   0  0  0  0  0  0  0  0  0  0  0  0
   11.4962  -16.7965   22.6492 C   0  0  2  0  0  0  0  0  0  0  0  0
   10.3209  -16.4242   21.8214 N   0  0  0  0  0  0  0  0  0  0  0  0
   12.5380  -17.1984   21.7005 C   0  0  0  0  0  0  0  0  0  0  0  0
   12.2809  -17.2172   20.3489 O   0  0  0  0  0  0  0  0  0  0  0  0
   13.6743  -17.5321   22.0966 O   0  0  0  0  0  0  0  0  0  0  0  0
  2  1  1  0
  3  4  1  0
  3  2  1  0
  4  5  1  0
  5  7  1  0
  5  6  1  1
  7  8  2  0
 10 12  1  0
 10  9  1  0
 11 10  2  0
 13 12  1  0
 14 13  1  6
 15 14  1  0
 15  7  1  0
 16 17  2  0
 16 14  1  0
 19 21  1  0
 19 18  1  0
 20 19  2  0
 22 21  1  0
 23 22  1  0
 23 24  1  0
 25 24  1  1
 25 26  1  0
 26 16  1  0
 27 25  1  0
 27 28  1  0
 29 27  2  0
M  END
$$$$
