MQR.pdb
     RDKit          3D

 29 28  0  0  1  0  0  0  0  0999 V2000
    6.3409  -11.0474   25.7414 C   0  0  0  0  0  0  0  0  0  0  0  0
    7.0472  -12.6434   26.1500 S   0  0  0  0  0  0  0  0  0  0  0  0
    7.7744  -13.3462   24.6226 C   0  0  0  0  0  0  0  0  0  0  0  0
    6.7512  -14.0684   23.8339 C   0  0  0  0  0  0  0  0  0  0  0  0
    7.1751  -14.5603   22.4861 C   0  0  2  0  0  0  0  0  0  0  0  0
    6.0085  -15.2110   21.8412 N   0  0  0  0  0  0  0  0  0  0  0  0
    8.2317  -15.6158   22.6869 C   0  0  0  0  0  0  0  0  0  0  0  0
    7.8104  -16.7219   23.1124 O   0  0  0  0  0  0  0  0  0  0  0  0
   13.4694  -16.2128   19.3071 N   0  0  0  0  0  0  0  0  0  0  0  0
   13.8194  -16.9122   20.4854 C   0  0  0  0  0  0  0  0  0  0  0  0
   14.9689  -17.3885   20.6228 O   0  0  0  0  0  0  0  0  0  0  0  0
   12.8379  -17.0977   21.5830 C   0  0  0  0  0  0  0  0  0  0  0  0
   11.7422  -16.0729   21.4334 C   0  0  0  0  0  0  0  0  0  0  0  0
   10.6332  -16.3044   22.4774 C   0  0  2  0  0  0  0  0  0  0  0  0
    9.5691  -15.3477   22.4072 N   0  0  0  0  0  0  0  0  0  0  0  0
   11.2345  -16.5100   23.7847 C   0  0  0  0  0  0  0  0  0  0  0  0
   12.0431  -15.6449   24.2750 O   0  0  0  0  0  0  0  0  0  0  0  0
   10.3428  -22.6472   30.2965 N   0  0  0  0  0  0  0  0  0  0  0  0
   10.9874  -21.5337   30.8734 C   0  0  0  0  0  0  0  0  0  0  0  0
   11.1346  -21.4621   32.1456 N   0  0  0  0  0  0  0  0  0  0  0  0
   11.4673  -20.5004   30.0327 N   0  0  0  0  0  0  0  0  0  0  0  0
   10.7955  -20.1829   28.8086 C   0  0  0  0  0  0  0  0  0  0  0  0
   11.5307  -19.0904   28.0568 C   0  0  0  0  0  0  0  0  0  0  0  0
   10.8950  -18.8414   26.7281 C   0  0  0  0  0  0  0  0  0  0  0  0
   11.6010  -17.7756   25.9622 C   0  0  2  0  0  0  0  0  0  0  0  0
   10.9953  -17.6420   24.6130 N   0  0  0  0  0  0  0  0  0  0  0  0
   13.0110  -18.1017   25.7331 C   0  0  0  0  0  0  0  0  0  0  0  0
   13.3781  -18.9100   24.6818 O   0  0  0  0  0  0  0  0  0  0  0  0
   13.9041  -17.6568   26.4840 O   0  0  0  0  0  0  0  0  0  0  0  0
  2  1  1  0
  3  4  1  0
  3  2  1  0
  4  5  1  0
  5  7  1  0
  5  6  1  1
  7  8  2  0
 10 12  1  0
 10  9  1  0
 11 10  2  0
 13 12  1  0
 14 13  1  6
 15 14  1  0
 15  7  1  0
 16 17  2  0
 16 14  1  0
 19 21  1  0
 19 18  1  0
 20 19  2  0
 22 21  1  0
 23 22  1  0
 23 24  1  0
 25 24  1  1
 25 26  1  0
 26 16  1  0
 27 25  1  0
 27 28  1  0
 29 27  2  0
M  END
$$$$
