MQR.pdb
     RDKit          3D

 29 28  0  0  1  0  0  0  0  0999 V2000
    8.4955  -12.3254   27.4906 C   0  0  0  0  0  0  0  0  0  0  0  0
    7.0356  -12.9264   28.3396 S   0  0  0  0  0  0  0  0  0  0  0  0
    5.9652  -13.7535   27.1044 C   0  0  0  0  0  0  0  0  0  0  0  0
    6.7740  -14.3418   26.0134 C   0  0  0  0  0  0  0  0  0  0  0  0
    6.0196  -15.0557   24.9367 C   0  0  2  0  0  0  0  0  0  0  0  0
    5.3469  -16.2311   25.5420 N   0  0  0  0  0  0  0  0  0  0  0  0
    7.0177  -15.5701   23.9317 C   0  0  0  0  0  0  0  0  0  0  0  0
    7.4100  -16.7500   24.1213 O   0  0  0  0  0  0  0  0  0  0  0  0
    8.7166  -12.1891   18.8900 N   0  0  0  0  0  0  0  0  0  0  0  0
    7.9401  -13.3445   18.6408 C   0  0  0  0  0  0  0  0  0  0  0  0
    7.3362  -13.4806   17.5527 O   0  0  0  0  0  0  0  0  0  0  0  0
    7.8226  -14.4191   19.6576 C   0  0  0  0  0  0  0  0  0  0  0  0
    8.6910  -14.0675   20.8389 C   0  0  0  0  0  0  0  0  0  0  0  0
    8.5090  -15.0934   21.9737 C   0  0  2  0  0  0  0  0  0  0  0  0
    7.4486  -14.7660   22.8797 N   0  0  0  0  0  0  0  0  0  0  0  0
    9.8013  -15.3907   22.5690 C   0  0  0  0  0  0  0  0  0  0  0  0
   10.3863  -14.5341   23.3219 O   0  0  0  0  0  0  0  0  0  0  0  0
   11.9155  -20.4238   28.8429 N   0  0  0  0  0  0  0  0  0  0  0  0
   13.0032  -19.6359   28.4135 C   0  0  0  0  0  0  0  0  0  0  0  0
   13.8161  -19.1375   29.2715 N   0  0  0  0  0  0  0  0  0  0  0  0
   13.1844  -19.4035   27.0287 N   0  0  0  0  0  0  0  0  0  0  0  0
   12.1726  -18.7436   26.2598 C   0  0  0  0  0  0  0  0  0  0  0  0
   12.5875  -18.6298   24.8058 C   0  0  0  0  0  0  0  0  0  0  0  0
   11.4284  -18.2266   23.9539 C   0  0  0  0  0  0  0  0  0  0  0  0
   11.6964  -16.9653   23.2068 C   0  0  2  0  0  0  0  0  0  0  0  0
   10.5133  -16.6086   22.3833 N   0  0  0  0  0  0  0  0  0  0  0  0
   12.8080  -17.1080   22.2628 C   0  0  0  0  0  0  0  0  0  0  0  0
   14.1055  -16.9179   22.6792 O   0  0  0  0  0  0  0  0  0  0  0  0
   12.6020  -17.4018   21.0666 O   0  0  0  0  0  0  0  0  0  0  0  0
  2  1  1  0
  3  4  1  0
  3  2  1  0
  4  5  1  0
  5  7  1  0
  5  6  1  1
  7  8  2  0
 10 12  1  0
 10  9  1  0
 11 10  2  0
 13 12  1  0
 14 13  1  6
 15 14  1  0
 15  7  1  0
 16 17  2  0
 16 14  1  0
 19 21  1  0
 19 18  1  0
 20 19  2  0
 22 21  1  0
 23 22  1  0
 23 24  1  0
 25 24  1  6
 25 26  1  0
 26 16  1  0
 27 25  1  0
 27 28  1  0
 29 27  2  0
M  END
$$$$
