MQR.pdb
     RDKit          3D

 29 28  0  0  1  0  0  0  0  0999 V2000
    9.3859  -11.5024   19.5413 C   0  0  0  0  0  0  0  0  0  0  0  0
    7.7154  -12.0987   19.2820 S   0  0  0  0  0  0  0  0  0  0  0  0
    7.8207  -13.8156   18.6521 C   0  0  0  0  0  0  0  0  0  0  0  0
    8.2083  -14.7516   19.7310 C   0  0  0  0  0  0  0  0  0  0  0  0
    8.3387  -16.1917   19.3473 C   0  0  2  0  0  0  0  0  0  0  0  0
    6.9850  -16.7150   19.0405 N   0  0  0  0  0  0  0  0  0  0  0  0
    8.8583  -16.9469   20.5433 C   0  0  0  0  0  0  0  0  0  0  0  0
    8.0013  -17.2090   21.4257 O   0  0  0  0  0  0  0  0  0  0  0  0
   14.6973  -19.4997   21.1063 N   0  0  0  0  0  0  0  0  0  0  0  0
   14.1217  -19.7037   22.3819 C   0  0  0  0  0  0  0  0  0  0  0  0
   14.7449  -20.3343   23.2657 O   0  0  0  0  0  0  0  0  0  0  0  0
   12.7716  -19.1779   22.7030 C   0  0  0  0  0  0  0  0  0  0  0  0
   12.2419  -18.4335   21.5037 C   0  0  0  0  0  0  0  0  0  0  0  0
   10.8217  -17.9022   21.7753 C   0  0  2  0  0  0  0  0  0  0  0  0
   10.1991  -17.3132   20.6273 N   0  0  0  0  0  0  0  0  0  0  0  0
   10.8278  -17.1041   22.9902 C   0  0  0  0  0  0  0  0  0  0  0  0
   11.4760  -15.9996   23.0428 O   0  0  0  0  0  0  0  0  0  0  0  0
    5.0972  -12.7613   26.5648 N   0  0  0  0  0  0  0  0  0  0  0  0
    6.3360  -12.2216   26.1622 C   0  0  0  0  0  0  0  0  0  0  0  0
    6.4009  -11.0212   25.7146 N   0  0  0  0  0  0  0  0  0  0  0  0
    7.5017  -13.0194   26.2579 N   0  0  0  0  0  0  0  0  0  0  0  0
    7.4466  -14.3274   26.8382 C   0  0  0  0  0  0  0  0  0  0  0  0
    8.7914  -15.0203   26.7368 C   0  0  0  0  0  0  0  0  0  0  0  0
    8.8153  -15.9644   25.5794 C   0  0  0  0  0  0  0  0  0  0  0  0
   10.1585  -16.5814   25.3894 C   0  0  2  0  0  0  0  0  0  0  0  0
   10.1446  -17.4543   24.1882 N   0  0  0  0  0  0  0  0  0  0  0  0
   10.5297  -17.4521   26.5079 C   0  0  0  0  0  0  0  0  0  0  0  0
   10.7428  -18.7962   26.3046 O   0  0  0  0  0  0  0  0  0  0  0  0
   10.6580  -16.9955   27.6631 O   0  0  0  0  0  0  0  0  0  0  0  0
  2  1  1  0
  3  4  1  0
  3  2  1  0
  4  5  1  0
  5  7  1  0
  5  6  1  1
  7  8  2  0
 10 12  1  0
 10  9  1  0
 11 10  2  0
 13 12  1  0
 14 13  1  6
 15 14  1  0
 15  7  1  0
 16 17  2  0
 16 14  1  0
 19 21  1  0
 19 18  1  0
 20 19  2  0
 22 21  1  0
 23 22  1  0
 23 24  1  0
 25 24  1  1
 25 26  1  0
 26 16  1  0
 27 25  1  0
 27 28  1  0
 29 27  2  0
M  END
$$$$
