EGL.pdb
     RDKit          3D

 22 21  0  0  1  0  0  0  0  0999 V2000
   19.2119   -9.6416  -18.7016 N   0  0  0  0  0  0  0  0  0  0  0  0
   17.9673  -10.2462  -18.2221 C   0  0  1  0  0  0  0  0  0  0  0  0
   18.3063  -11.6657  -17.8500 C   0  0  0  0  0  0  0  0  0  0  0  0
   19.7530  -11.9924  -17.8199 C   0  0  0  0  0  0  0  0  0  0  0  0
   20.2261  -12.6398  -19.0346 C   0  0  0  0  0  0  0  0  0  0  0  0
   19.6693  -13.6554  -19.5047 O   0  0  0  0  0  0  0  0  0  0  0  0
   17.5148   -9.5849  -16.9647 C   0  0  0  0  0  0  0  0  0  0  0  0
   16.5592  -10.1051  -16.3338 O   0  0  0  0  0  0  0  0  0  0  0  0
   21.3368  -12.1740  -19.7646 O   0  0  0  0  0  0  0  0  0  0  0  0
   18.0993   -8.4113  -16.4469 N   0  0  0  0  0  0  0  0  0  0  0  0
   17.7192   -7.9672  -15.1283 C   0  0  0  0  0  0  0  0  0  0  0  0
   18.8591   -7.4028  -14.3694 C   0  0  0  0  0  0  0  0  0  0  0  0
   18.6796   -7.0039  -13.1808 O   0  0  0  0  0  0  0  0  0  0  0  0
   23.1598  -10.1764  -13.8020 C   0  0  0  0  0  0  0  0  0  0  0  0
   21.9578   -9.2013  -13.6004 C   0  0  1  0  0  0  0  0  0  0  0  0
   21.6418   -9.2364  -12.1140 C   0  0  0  0  0  0  0  0  0  0  0  0
   22.3379   -7.8543  -14.0507 C   0  0  0  0  0  0  0  0  0  0  0  0
   21.3127   -6.8066  -14.0248 C   0  0  2  0  0  0  0  0  0  0  0  0
   20.1603   -7.2721  -14.8799 N   0  0  0  0  0  0  0  0  0  0  0  0
   21.5664   -5.4670  -14.5083 C   0  0  0  0  0  0  0  0  0  0  0  0
   20.8493   -4.9085  -15.5455 O   0  0  0  0  0  0  0  0  0  0  0  0
   22.4759   -4.6977  -14.0266 O   0  0  0  0  0  0  0  0  0  0  0  0
  2  1  1  1
  2  3  1  0
  3  4  1  0
  5  4  1  0
  5  6  2  0
  7  2  1  0
  7  8  2  0
  9  5  1  0
 10  7  1  0
 11 10  1  0
 11 12  1  0
 12 19  1  0
 13 12  2  0
 15 14  1  1
 15 16  1  0
 17 15  1  0
 18 17  1  6
 19 18  1  0
 20 18  1  0
 20 21  1  0
 22 20  2  0
M  END
$$$$
