EGL.pdb
     RDKit          3D

 22 21  0  0  1  0  0  0  0  0999 V2000
   25.1844  -21.4532  -15.2424 N   0  0  0  0  0  0  0  0  0  0  0  0
   26.6240  -21.7186  -15.2828 C   0  0  1  0  0  0  0  0  0  0  0  0
   27.1614  -20.9417  -16.4558 C   0  0  0  0  0  0  0  0  0  0  0  0
   26.4663  -21.1674  -17.7467 C   0  0  0  0  0  0  0  0  0  0  0  0
   26.5394  -22.5449  -18.2109 C   0  0  0  0  0  0  0  0  0  0  0  0
   25.5488  -23.1358  -18.6926 O   0  0  0  0  0  0  0  0  0  0  0  0
   27.2933  -21.1594  -14.0735 C   0  0  0  0  0  0  0  0  0  0  0  0
   28.5372  -21.3096  -13.9634 O   0  0  0  0  0  0  0  0  0  0  0  0
   27.7216  -23.3081  -18.1524 O   0  0  0  0  0  0  0  0  0  0  0  0
   26.6083  -20.4732  -13.0502 N   0  0  0  0  0  0  0  0  0  0  0  0
   27.3532  -20.0008  -11.9090 C   0  0  0  0  0  0  0  0  0  0  0  0
   26.8535  -20.5632  -10.6331 C   0  0  0  0  0  0  0  0  0  0  0  0
   26.4401  -21.7599  -10.5995 O   0  0  0  0  0  0  0  0  0  0  0  0
   28.5603  -18.4098   -5.8290 C   0  0  0  0  0  0  0  0  0  0  0  0
   28.2570  -19.5141   -6.8895 C   0  0  1  0  0  0  0  0  0  0  0  0
   28.9220  -20.7789   -6.3713 C   0  0  0  0  0  0  0  0  0  0  0  0
   26.8021  -19.6746   -7.0285 C   0  0  0  0  0  0  0  0  0  0  0  0
   26.3037  -20.4820   -8.1461 C   0  0  2  0  0  0  0  0  0  0  0  0
   26.8009  -19.8525   -9.4237 N   0  0  0  0  0  0  0  0  0  0  0  0
   24.8905  -20.6672   -8.3940 C   0  0  0  0  0  0  0  0  0  0  0  0
   24.2114  -19.9558   -9.3608 O   0  0  0  0  0  0  0  0  0  0  0  0
   24.1555  -21.4910   -7.7367 O   0  0  0  0  0  0  0  0  0  0  0  0
  2  1  1  1
  2  3  1  0
  3  4  1  0
  5  4  1  0
  5  6  2  0
  7  2  1  0
  7  8  2  0
  9  5  1  0
 10  7  1  0
 11 10  1  0
 11 12  1  0
 12 19  1  0
 13 12  2  0
 15 14  1  1
 15 16  1  0
 17 15  1  0
 18 17  1  1
 19 18  1  0
 20 18  1  0
 20 21  1  0
 22 20  2  0
M  END
$$$$
