EGL.pdb
     RDKit          3D

 22 21  0  0  1  0  0  0  0  0999 V2000
   23.5927  -20.1660  -13.3465 N   0  0  0  0  0  0  0  0  0  0  0  0
   23.6106  -20.1585  -11.8822 C   0  0  1  0  0  0  0  0  0  0  0  0
   22.5843  -21.1702  -11.4446 C   0  0  0  0  0  0  0  0  0  0  0  0
   21.3386  -21.2088  -12.2492 C   0  0  0  0  0  0  0  0  0  0  0  0
   20.2588  -20.4135  -11.6835 C   0  0  0  0  0  0  0  0  0  0  0  0
   19.1183  -20.3852  -12.1943 O   0  0  0  0  0  0  0  0  0  0  0  0
   24.9222  -20.6514  -11.3724 C   0  0  0  0  0  0  0  0  0  0  0  0
   25.3262  -21.7748  -11.7684 O   0  0  0  0  0  0  0  0  0  0  0  0
   20.4172  -19.6234  -10.5284 O   0  0  0  0  0  0  0  0  0  0  0  0
   25.7311  -19.9277  -10.4729 N   0  0  0  0  0  0  0  0  0  0  0  0
   26.9094  -20.5600   -9.9323 C   0  0  0  0  0  0  0  0  0  0  0  0
   26.9089  -20.5885   -8.4514 C   0  0  0  0  0  0  0  0  0  0  0  0
   25.9249  -21.0987   -7.8385 O   0  0  0  0  0  0  0  0  0  0  0  0
   31.7171  -20.3048   -5.4531 C   0  0  0  0  0  0  0  0  0  0  0  0
   30.3526  -20.8716   -5.9562 C   0  0  1  0  0  0  0  0  0  0  0  0
   30.1516  -22.1837   -5.2158 C   0  0  0  0  0  0  0  0  0  0  0  0
   29.2829  -19.9058   -5.6651 C   0  0  0  0  0  0  0  0  0  0  0  0
   27.9326  -20.2098   -6.1486 C   0  0  2  0  0  0  0  0  0  0  0  0
   27.9440  -20.0791   -7.6515 N   0  0  0  0  0  0  0  0  0  0  0  0
   26.7788  -19.4308   -5.7552 C   0  0  0  0  0  0  0  0  0  0  0  0
   26.0207  -19.7431   -4.6464 O   0  0  0  0  0  0  0  0  0  0  0  0
   26.3613  -18.4023   -6.4024 O   0  0  0  0  0  0  0  0  0  0  0  0
  2  1  1  6
  2  3  1  0
  3  4  1  0
  5  4  1  0
  5  6  2  0
  7  2  1  0
  7  8  2  0
  9  5  1  0
 10  7  1  0
 11 10  1  0
 11 12  1  0
 12 19  1  0
 13 12  2  0
 15 14  1  1
 15 16  1  0
 17 15  1  0
 18 17  1  1
 19 18  1  0
 20 18  1  0
 20 21  1  0
 22 20  2  0
M  END
$$$$
