EGL.pdb
     RDKit          3D

 22 21  0  0  1  0  0  0  0  0999 V2000
   18.0044  -14.4361  -17.7145 N   0  0  0  0  0  0  0  0  0  0  0  0
   19.3670  -14.0183  -18.0508 C   0  0  1  0  0  0  0  0  0  0  0  0
   19.5373  -14.2876  -19.5229 C   0  0  0  0  0  0  0  0  0  0  0  0
   19.2484  -15.6759  -19.9582 C   0  0  0  0  0  0  0  0  0  0  0  0
   19.3670  -15.8687  -21.3960 C   0  0  0  0  0  0  0  0  0  0  0  0
   18.3655  -15.9998  -22.1323 O   0  0  0  0  0  0  0  0  0  0  0  0
   19.5203  -12.5453  -17.8785 C   0  0  0  0  0  0  0  0  0  0  0  0
   20.6799  -12.0612  -17.9312 O   0  0  0  0  0  0  0  0  0  0  0  0
   20.6085  -15.9215  -22.0590 O   0  0  0  0  0  0  0  0  0  0  0  0
   18.4379  -11.6689  -17.6602 N   0  0  0  0  0  0  0  0  0  0  0  0
   18.6911  -10.2500  -17.6038 C   0  0  0  0  0  0  0  0  0  0  0  0
   19.1150   -9.8027  -16.2570 C   0  0  0  0  0  0  0  0  0  0  0  0
   18.5361  -10.2733  -15.2334 O   0  0  0  0  0  0  0  0  0  0  0  0
   23.6227  -10.8834  -14.0951 C   0  0  0  0  0  0  0  0  0  0  0  0
   22.8641   -9.6633  -14.7050 C   0  0  1  0  0  0  0  0  0  0  0  0
   22.8987   -9.8656  -16.2111 C   0  0  0  0  0  0  0  0  0  0  0  0
   21.4890   -9.6308  -14.1855 C   0  0  0  0  0  0  0  0  0  0  0  0
   20.6134   -8.5410  -14.6269 C   0  0  2  0  0  0  0  0  0  0  0  0
   20.1379   -8.8709  -16.0200 N   0  0  0  0  0  0  0  0  0  0  0  0
   21.0805   -7.1772  -14.7486 C   0  0  0  0  0  0  0  0  0  0  0  0
   21.4896   -6.4372  -13.6591 O   0  0  0  0  0  0  0  0  0  0  0  0
   21.1431   -6.5443  -15.8650 O   0  0  0  0  0  0  0  0  0  0  0  0
  2  1  1  6
  2  3  1  0
  3  4  1  0
  5  4  1  0
  5  6  2  0
  7  2  1  0
  7  8  2  0
  9  5  1  0
 10  7  1  0
 11 10  1  0
 11 12  1  0
 12 19  1  0
 13 12  2  0
 15 14  1  1
 15 16  1  0
 17 15  1  0
 18 17  1  6
 19 18  1  0
 20 18  1  0
 20 21  1  0
 22 20  2  0
M  END
$$$$
