EGL.pdb
     RDKit          3D

 22 21  0  0  1  0  0  0  0  0999 V2000
   31.9057  -24.5978  -18.1056 N   0  0  0  0  0  0  0  0  0  0  0  0
   30.7382  -23.9886  -17.4649 C   0  0  1  0  0  0  0  0  0  0  0  0
   29.7651  -23.6798  -18.5723 C   0  0  0  0  0  0  0  0  0  0  0  0
   29.5167  -24.7822  -19.5333 C   0  0  0  0  0  0  0  0  0  0  0  0
   28.5248  -24.4547  -20.5467 C   0  0  0  0  0  0  0  0  0  0  0  0
   28.7264  -23.5755  -21.4122 O   0  0  0  0  0  0  0  0  0  0  0  0
   30.0562  -24.9725  -16.5762 C   0  0  0  0  0  0  0  0  0  0  0  0
   29.0469  -24.5873  -15.9321 O   0  0  0  0  0  0  0  0  0  0  0  0
   27.2747  -25.0983  -20.6271 O   0  0  0  0  0  0  0  0  0  0  0  0
   30.4810  -26.3076  -16.4200 N   0  0  0  0  0  0  0  0  0  0  0  0
   29.6614  -27.2141  -15.6538 C   0  0  0  0  0  0  0  0  0  0  0  0
   29.3242  -28.4458  -16.4040 C   0  0  0  0  0  0  0  0  0  0  0  0
   29.6129  -28.5242  -17.6348 O   0  0  0  0  0  0  0  0  0  0  0  0
   29.3012  -33.8854  -16.8543 C   0  0  0  0  0  0  0  0  0  0  0  0
   28.0199  -33.2697  -16.2097 C   0  0  1  0  0  0  0  0  0  0  0  0
   27.6044  -34.2355  -15.1120 C   0  0  0  0  0  0  0  0  0  0  0  0
   28.3307  -31.9342  -15.6793 C   0  0  0  0  0  0  0  0  0  0  0  0
   28.4400  -30.8250  -16.6317 C   0  0  2  0  0  0  0  0  0  0  0  0
   28.6915  -29.5652  -15.8408 N   0  0  0  0  0  0  0  0  0  0  0  0
   27.3537  -30.4543  -17.5122 C   0  0  0  0  0  0  0  0  0  0  0  0
   26.4363  -29.4790  -17.1823 O   0  0  0  0  0  0  0  0  0  0  0  0
   27.1475  -31.0020  -18.6561 O   0  0  0  0  0  0  0  0  0  0  0  0
  2  1  1  6
  2  3  1  0
  3  4  1  0
  5  4  1  0
  5  6  2  0
  7  2  1  0
  7  8  2  0
  9  5  1  0
 10  7  1  0
 11 10  1  0
 11 12  1  0
 12 19  1  0
 13 12  2  0
 15 14  1  1
 15 16  1  0
 17 15  1  0
 18 17  1  1
 19 18  1  0
 20 18  1  0
 20 21  1  0
 22 20  2  0
M  END
$$$$
