EGL.pdb
     RDKit          3D

 22 21  0  0  1  0  0  0  0  0999 V2000
   18.6902  -23.1181  -11.9634 N   0  0  0  0  0  0  0  0  0  0  0  0
   18.2746  -24.3557  -11.3000 C   0  0  1  0  0  0  0  0  0  0  0  0
   19.0060  -25.4721  -11.9979 C   0  0  0  0  0  0  0  0  0  0  0  0
   18.1512  -26.5501  -12.5526 C   0  0  0  0  0  0  0  0  0  0  0  0
   17.8833  -27.6221  -11.6053 C   0  0  0  0  0  0  0  0  0  0  0  0
   18.3767  -27.6309  -10.4568 O   0  0  0  0  0  0  0  0  0  0  0  0
   18.7437  -24.3738   -9.8849 C   0  0  0  0  0  0  0  0  0  0  0  0
   19.8916  -23.9238   -9.6366 O   0  0  0  0  0  0  0  0  0  0  0  0
   17.0552  -28.7200  -11.9094 O   0  0  0  0  0  0  0  0  0  0  0  0
   17.9714  -24.8669   -8.8136 N   0  0  0  0  0  0  0  0  0  0  0  0
   18.5085  -24.7951   -7.4769 C   0  0  0  0  0  0  0  0  0  0  0  0
   17.6058  -25.3989   -6.4697 C   0  0  0  0  0  0  0  0  0  0  0  0
   16.5463  -25.9788   -6.8510 O   0  0  0  0  0  0  0  0  0  0  0  0
   19.5306  -27.4265   -1.6796 C   0  0  0  0  0  0  0  0  0  0  0  0
   18.8297  -27.2385   -3.0615 C   0  0  1  0  0  0  0  0  0  0  0  0
   18.4385  -28.6339   -3.5199 C   0  0  0  0  0  0  0  0  0  0  0  0
   17.6592  -26.3629   -2.9029 C   0  0  0  0  0  0  0  0  0  0  0  0
   16.8913  -26.0184   -4.1033 C   0  0  2  0  0  0  0  0  0  0  0  0
   17.8400  -25.3777   -5.0858 N   0  0  0  0  0  0  0  0  0  0  0  0
   15.7763  -25.0975   -4.0679 C   0  0  0  0  0  0  0  0  0  0  0  0
   15.9085  -23.7654   -4.3991 O   0  0  0  0  0  0  0  0  0  0  0  0
   14.5865  -25.4349   -3.7193 O   0  0  0  0  0  0  0  0  0  0  0  0
  2  1  1  6
  2  3  1  0
  3  4  1  0
  5  4  1  0
  5  6  2  0
  7  2  1  0
  7  8  2  0
  9  5  1  0
 10  7  1  0
 11 10  1  0
 11 12  1  0
 12 19  1  0
 13 12  2  0
 15 14  1  1
 15 16  1  0
 17 15  1  0
 18 17  1  1
 19 18  1  0
 20 18  1  0
 20 21  1  0
 22 20  2  0
M  END
$$$$
