EGL.pdb
     RDKit          3D

 22 21  0  0  1  0  0  0  0  0999 V2000
   28.0588  -20.5175  -18.6224 N   0  0  0  0  0  0  0  0  0  0  0  0
   28.1632  -21.4163  -17.4710 C   0  0  1  0  0  0  0  0  0  0  0  0
   29.6331  -21.6803  -17.2762 C   0  0  0  0  0  0  0  0  0  0  0  0
   30.2858  -22.4859  -18.3372 C   0  0  0  0  0  0  0  0  0  0  0  0
   29.7840  -23.8496  -18.4203 C   0  0  0  0  0  0  0  0  0  0  0  0
   30.0787  -24.6080  -19.3692 O   0  0  0  0  0  0  0  0  0  0  0  0
   27.6967  -20.7336  -16.2303 C   0  0  0  0  0  0  0  0  0  0  0  0
   28.1228  -21.1583  -15.1257 O   0  0  0  0  0  0  0  0  0  0  0  0
   28.9362  -24.4115  -17.4460 O   0  0  0  0  0  0  0  0  0  0  0  0
   26.8064  -19.6407  -16.2293 N   0  0  0  0  0  0  0  0  0  0  0  0
   26.3545  -19.1116  -14.9658 C   0  0  0  0  0  0  0  0  0  0  0  0
   25.3672  -19.9939  -14.3019 C   0  0  0  0  0  0  0  0  0  0  0  0
   24.8361  -20.9385  -14.9575 O   0  0  0  0  0  0  0  0  0  0  0  0
   26.0617  -20.6133   -8.9930 C   0  0  0  0  0  0  0  0  0  0  0  0
   25.9011  -20.8319  -10.5301 C   0  0  1  0  0  0  0  0  0  0  0  0
   26.6421  -22.1214  -10.8441 C   0  0  0  0  0  0  0  0  0  0  0  0
   24.4726  -20.9221  -10.8663 C   0  0  0  0  0  0  0  0  0  0  0  0
   24.0970  -20.8912  -12.2831 C   0  0  2  0  0  0  0  0  0  0  0  0
   24.9629  -19.8606  -12.9642 N   0  0  0  0  0  0  0  0  0  0  0  0
   22.7619  -20.5457  -12.7199 C   0  0  0  0  0  0  0  0  0  0  0  0
   22.4768  -19.3519  -13.3486 O   0  0  0  0  0  0  0  0  0  0  0  0
   21.7400  -21.3064  -12.5521 O   0  0  0  0  0  0  0  0  0  0  0  0
  2  1  1  6
  2  3  1  0
  3  4  1  0
  5  4  1  0
  5  6  2  0
  7  2  1  0
  7  8  2  0
  9  5  1  0
 10  7  1  0
 11 10  1  0
 11 12  1  0
 12 19  1  0
 13 12  2  0
 15 14  1  1
 15 16  1  0
 17 15  1  0
 18 17  1  1
 19 18  1  0
 20 18  1  0
 20 21  1  0
 22 20  2  0
M  END
$$$$
