EGL.pdb
     RDKit          3D

 22 21  0  0  1  0  0  0  0  0999 V2000
   25.5163  -22.2864  -15.9924 N   0  0  0  0  0  0  0  0  0  0  0  0
   25.4654  -21.1041  -15.1300 C   0  0  1  0  0  0  0  0  0  0  0  0
   24.0722  -21.0603  -14.5594 C   0  0  0  0  0  0  0  0  0  0  0  0
   23.0328  -20.4871  -15.4492 C   0  0  0  0  0  0  0  0  0  0  0  0
   23.3026  -19.1126  -15.8445 C   0  0  0  0  0  0  0  0  0  0  0  0
   22.8530  -18.1380  -15.2039 O   0  0  0  0  0  0  0  0  0  0  0  0
   26.3846  -21.2646  -13.9671 C   0  0  0  0  0  0  0  0  0  0  0  0
   26.7964  -22.4212  -13.6940 O   0  0  0  0  0  0  0  0  0  0  0  0
   24.0836  -18.7811  -16.9687 O   0  0  0  0  0  0  0  0  0  0  0  0
   26.8155  -20.1922  -13.1599 N   0  0  0  0  0  0  0  0  0  0  0  0
   27.7502  -20.4552  -12.0932 C   0  0  0  0  0  0  0  0  0  0  0  0
   27.0835  -20.9327  -10.8598 C   0  0  0  0  0  0  0  0  0  0  0  0
   26.6757  -22.1300  -10.7957 O   0  0  0  0  0  0  0  0  0  0  0  0
   28.2531  -18.5839   -6.0206 C   0  0  0  0  0  0  0  0  0  0  0  0
   28.0314  -19.6923   -7.0970 C   0  0  1  0  0  0  0  0  0  0  0  0
   28.6428  -20.9582   -6.5190 C   0  0  0  0  0  0  0  0  0  0  0  0
   26.5920  -19.8446   -7.3553 C   0  0  0  0  0  0  0  0  0  0  0  0
   26.1820  -20.6777   -8.4898 C   0  0  2  0  0  0  0  0  0  0  0  0
   26.8622  -20.1383   -9.7237 N   0  0  0  0  0  0  0  0  0  0  0  0
   24.7994  -20.7992   -8.8978 C   0  0  0  0  0  0  0  0  0  0  0  0
   23.8933  -21.5799   -8.2114 O   0  0  0  0  0  0  0  0  0  0  0  0
   24.3071  -20.2069   -9.9263 O   0  0  0  0  0  0  0  0  0  0  0  0
  2  1  1  6
  2  3  1  0
  3  4  1  0
  5  4  1  0
  5  6  2  0
  7  2  1  0
  7  8  2  0
  9  5  1  0
 10  7  1  0
 11 10  1  0
 11 12  1  0
 12 19  1  0
 13 12  2  0
 15 14  1  1
 15 16  1  0
 17 15  1  0
 18 17  1  1
 19 18  1  0
 20 18  1  0
 20 21  1  0
 22 20  2  0
M  END
$$$$
