CWE.pdb
     RDKit          3D

 30 31  0  0  1  0  0  0  0  0999 V2000
    8.9792  -16.3944   17.9057 N   0  0  0  0  0  0  0  0  0  0  0  0
    8.2406  -16.9828   18.9801 C   0  0  1  0  0  0  0  0  0  0  0  0
    8.2910  -18.4895   18.9501 C   0  0  0  0  0  0  0  0  0  0  0  0
    9.8828  -19.0224   19.6607 S   0  0  0  0  0  0  0  0  0  0  0  0
    8.7213  -16.5073   20.3323 C   0  0  0  0  0  0  0  0  0  0  0  0
    9.9236  -16.1624   20.4458 O   0  0  0  0  0  0  0  0  0  0  0  0
    7.8007  -16.4747   21.3948 N   0  0  0  0  0  0  0  0  0  0  0  0
    8.0626  -15.9985   22.7116 C   0  0  1  0  0  0  0  0  0  0  0  0
    6.7849  -15.8470   23.5104 C   0  0  0  0  0  0  0  0  0  0  0  0
    7.1408  -15.3946   24.8801 C   0  0  0  0  0  0  0  0  0  0  0  0
    7.5175  -16.1012   25.9990 C   0  0  0  0  0  0  0  0  0  0  0  0
    7.7589  -15.2666   27.0445 N   0  0  0  0  0  0  0  0  0  0  0  0
    7.5480  -14.0034   26.6384 C   0  0  0  0  0  0  0  0  0  0  0  0
    7.6557  -12.8044   27.3083 C   0  0  0  0  0  0  0  0  0  0  0  0
    7.3835  -11.6066   26.6662 C   0  0  0  0  0  0  0  0  0  0  0  0
    7.0035  -11.6482   25.3431 C   0  0  0  0  0  0  0  0  0  0  0  0
    6.9031  -12.8813   24.6900 C   0  0  0  0  0  0  0  0  0  0  0  0
    7.1699  -14.0572   25.3201 C   0  0  0  0  0  0  0  0  0  0  0  0
    9.1029  -16.7929   23.3908 C   0  0  0  0  0  0  0  0  0  0  0  0
    9.0845  -18.0438   23.3235 O   0  0  0  0  0  0  0  0  0  0  0  0
   10.1440  -16.1750   24.1323 N   0  0  0  0  0  0  0  0  0  0  0  0
   11.3697  -16.8061   24.5575 C   0  0  1  0  0  0  0  0  0  0  0  0
   12.5634  -16.1625   23.9793 C   0  0  0  0  0  0  0  0  0  0  0  0
   13.8783  -16.7361   24.3635 C   0  0  0  0  0  0  0  0  0  0  0  0
   15.0230  -16.2367   23.5934 C   0  0  0  0  0  0  0  0  0  0  0  0
   15.3083  -16.4928   22.4176 O   0  0  0  0  0  0  0  0  0  0  0  0
   11.4331  -17.0977   26.0109 C   0  0  0  0  0  0  0  0  0  0  0  0
   10.6039  -16.6817   26.8378 O   0  0  0  0  0  0  0  0  0  0  0  0
   15.8987  -15.3657   24.2691 O   0  0  0  0  0  0  0  0  0  0  0  0
   12.4715  -17.8718   26.4803 O   0  0  0  0  0  0  0  0  0  0  0  0
  2  1  1  6
  2  5  1  0
  3  4  1  0
  3  2  1  0
  5  7  1  0
  5  6  2  0
  7  8  1  0
  8  9  1  1
  8 19  1  0
  9 10  1  0
 10 11  2  0
 10 18  1  0
 11 12  1  0
 12 13  1  0
 13 14  2  0
 14 15  1  0
 16 15  2  0
 17 18  2  0
 17 16  1  0
 18 13  1  0
 19 20  2  0
 21 22  1  0
 21 19  1  0
 23 24  1  0
 22 23  1  1
 24 25  1  0
 25 26  2  0
 25 29  1  0
 27 22  1  0
 27 30  1  0
 28 27  2  0
M  END
$$$$
