CWE.pdb
     RDKit          3D

 30 31  0  0  1  0  0  0  0  0999 V2000
    6.7715  -14.3033   20.0802 N   0  0  0  0  0  0  0  0  0  0  0  0
    7.1131  -15.5006   20.7843 C   0  0  1  0  0  0  0  0  0  0  0  0
    7.5757  -16.5961   19.8572 C   0  0  0  0  0  0  0  0  0  0  0  0
    7.7985  -18.1174   20.8363 S   0  0  0  0  0  0  0  0  0  0  0  0
    8.1805  -15.2650   21.8288 C   0  0  0  0  0  0  0  0  0  0  0  0
    9.1346  -14.5016   21.5389 O   0  0  0  0  0  0  0  0  0  0  0  0
    8.0531  -15.9111   23.0713 N   0  0  0  0  0  0  0  0  0  0  0  0
    9.0053  -15.8784   24.1304 C   0  0  1  0  0  0  0  0  0  0  0  0
    8.3514  -16.1372   25.4716 C   0  0  0  0  0  0  0  0  0  0  0  0
    7.3198  -15.0922   25.6981 C   0  0  0  0  0  0  0  0  0  0  0  0
    5.9455  -15.1565   25.6822 C   0  0  0  0  0  0  0  0  0  0  0  0
    5.3972  -13.9429   25.9548 N   0  0  0  0  0  0  0  0  0  0  0  0
    6.3916  -13.0617   26.1545 C   0  0  0  0  0  0  0  0  0  0  0  0
    6.3668  -11.7183   26.4589 C   0  0  0  0  0  0  0  0  0  0  0  0
    7.5449  -11.0066   26.6229 C   0  0  0  0  0  0  0  0  0  0  0  0
    8.7379  -11.6782   26.4735 C   0  0  0  0  0  0  0  0  0  0  0  0
    8.7307  -13.0425   26.1643 C   0  0  0  0  0  0  0  0  0  0  0  0
    7.5745  -13.7412   26.0029 C   0  0  0  0  0  0  0  0  0  0  0  0
   10.1692  -16.7411   23.8552 C   0  0  0  0  0  0  0  0  0  0  0  0
   10.0026  -17.9016   23.4134 O   0  0  0  0  0  0  0  0  0  0  0  0
   11.4970  -16.2913   24.0787 N   0  0  0  0  0  0  0  0  0  0  0  0
   12.6997  -17.0496   23.8345 C   0  0  1  0  0  0  0  0  0  0  0  0
   13.7995  -16.2106   23.3241 C   0  0  0  0  0  0  0  0  0  0  0  0
   15.1177  -16.8739   23.1576 C   0  0  0  0  0  0  0  0  0  0  0  0
   16.1921  -16.0057   22.6629 C   0  0  0  0  0  0  0  0  0  0  0  0
   16.1183  -14.8040   22.3796 O   0  0  0  0  0  0  0  0  0  0  0  0
   13.0580  -17.9920   24.9231 C   0  0  0  0  0  0  0  0  0  0  0  0
   13.5809  -19.1033   24.7333 O   0  0  0  0  0  0  0  0  0  0  0  0
   17.4528  -16.6080   22.4898 O   0  0  0  0  0  0  0  0  0  0  0  0
   12.7957  -17.6223   26.2240 O   0  0  0  0  0  0  0  0  0  0  0  0
  2  1  1  6
  2  5  1  0
  3  4  1  0
  3  2  1  0
  5  7  1  0
  5  6  2  0
  7  8  1  0
  8  9  1  1
  8 19  1  0
  9 10  1  0
 10 11  2  0
 10 18  1  0
 11 12  1  0
 12 13  1  0
 13 14  2  0
 14 15  1  0
 16 15  2  0
 17 18  2  0
 17 16  1  0
 18 13  1  0
 19 20  2  0
 21 22  1  0
 21 19  1  0
 23 24  1  0
 22 23  1  1
 24 25  1  0
 25 26  2  0
 25 29  1  0
 27 22  1  0
 27 30  1  0
 28 27  2  0
M  END
$$$$
