CWE.pdb
     RDKit          3D

 30 31  0  0  1  0  0  0  0  0999 V2000
    8.9587  -16.2018   17.7968 N   0  0  0  0  0  0  0  0  0  0  0  0
    8.2165  -16.6974   18.9146 C   0  0  1  0  0  0  0  0  0  0  0  0
    8.1881  -18.2043   18.9585 C   0  0  0  0  0  0  0  0  0  0  0  0
    9.0040  -18.8355   17.4557 S   0  0  0  0  0  0  0  0  0  0  0  0
    8.7534  -16.1829   20.2309 C   0  0  0  0  0  0  0  0  0  0  0  0
    9.9934  -16.0167   20.3405 O   0  0  0  0  0  0  0  0  0  0  0  0
    7.8400  -15.9165   21.2664 N   0  0  0  0  0  0  0  0  0  0  0  0
    8.1717  -15.4658   22.5765 C   0  0  1  0  0  0  0  0  0  0  0  0
    6.9322  -15.1104   23.3707 C   0  0  0  0  0  0  0  0  0  0  0  0
    7.3481  -14.7541   24.7518 C   0  0  0  0  0  0  0  0  0  0  0  0
    8.0053  -15.4821   25.7169 C   0  0  0  0  0  0  0  0  0  0  0  0
    8.1871  -14.7449   26.8445 N   0  0  0  0  0  0  0  0  0  0  0  0
    7.6577  -13.5261   26.6462 C   0  0  0  0  0  0  0  0  0  0  0  0
    7.5842  -12.4234   27.4687 C   0  0  0  0  0  0  0  0  0  0  0  0
    6.9805  -11.2537   27.0343 C   0  0  0  0  0  0  0  0  0  0  0  0
    6.4577  -11.2246   25.7605 C   0  0  0  0  0  0  0  0  0  0  0  0
    6.5477  -12.3605   24.9488 C   0  0  0  0  0  0  0  0  0  0  0  0
    7.1400  -13.5088   25.3751 C   0  0  0  0  0  0  0  0  0  0  0  0
    9.0799  -16.3985   23.2692 C   0  0  0  0  0  0  0  0  0  0  0  0
    8.8009  -17.6182   23.3337 O   0  0  0  0  0  0  0  0  0  0  0  0
   10.2824  -15.9511   23.8769 N   0  0  0  0  0  0  0  0  0  0  0  0
   11.4105  -16.7781   24.2301 C   0  0  1  0  0  0  0  0  0  0  0  0
   12.6777  -16.2669   23.6764 C   0  0  0  0  0  0  0  0  0  0  0  0
   13.8978  -17.0619   23.9677 C   0  0  0  0  0  0  0  0  0  0  0  0
   15.1406  -16.5213   23.4054 C   0  0  0  0  0  0  0  0  0  0  0  0
   15.6401  -15.4094   23.6146 O   0  0  0  0  0  0  0  0  0  0  0  0
   11.4462  -17.1837   25.6569 C   0  0  0  0  0  0  0  0  0  0  0  0
   11.1229  -16.4384   26.5974 O   0  0  0  0  0  0  0  0  0  0  0  0
   15.8472  -17.3639   22.5263 O   0  0  0  0  0  0  0  0  0  0  0  0
   11.8646  -18.4592   25.9664 O   0  0  0  0  0  0  0  0  0  0  0  0
  2  1  1  6
  2  5  1  0
  3  4  1  0
  3  2  1  0
  5  7  1  0
  5  6  2  0
  7  8  1  0
  8  9  1  1
  8 19  1  0
  9 10  1  0
 10 11  2  0
 10 18  1  0
 11 12  1  0
 12 13  1  0
 13 14  2  0
 14 15  1  0
 16 15  2  0
 17 18  2  0
 17 16  1  0
 18 13  1  0
 19 20  2  0
 21 22  1  0
 21 19  1  0
 23 24  1  0
 22 23  1  1
 24 25  1  0
 25 26  2  0
 25 29  1  0
 27 22  1  0
 27 30  1  0
 28 27  2  0
M  END
$$$$
