CWE.pdb
     RDKit          3D

 30 31  0  0  1  0  0  0  0  0999 V2000
    8.9507  -16.0376   17.6407 N   0  0  0  0  0  0  0  0  0  0  0  0
    8.1490  -16.5929   18.6871 C   0  0  1  0  0  0  0  0  0  0  0  0
    8.1328  -18.1004   18.6554 C   0  0  0  0  0  0  0  0  0  0  0  0
    9.8052  -18.6989   19.0646 S   0  0  0  0  0  0  0  0  0  0  0  0
    8.6027  -16.1406   20.0565 C   0  0  0  0  0  0  0  0  0  0  0  0
    9.7941  -15.7672   20.1924 O   0  0  0  0  0  0  0  0  0  0  0  0
    7.6705  -16.1603   21.1092 N   0  0  0  0  0  0  0  0  0  0  0  0
    7.9074  -15.7168   22.4421 C   0  0  1  0  0  0  0  0  0  0  0  0
    6.6121  -15.5481   23.2084 C   0  0  0  0  0  0  0  0  0  0  0  0
    6.9429  -15.2173   24.6186 C   0  0  0  0  0  0  0  0  0  0  0  0
    7.1611  -16.0238   25.7117 C   0  0  0  0  0  0  0  0  0  0  0  0
    7.4460  -15.2830   26.8153 N   0  0  0  0  0  0  0  0  0  0  0  0
    7.4216  -13.9838   26.4739 C   0  0  0  0  0  0  0  0  0  0  0  0
    7.6422  -12.8453   27.2175 C   0  0  0  0  0  0  0  0  0  0  0  0
    7.5624  -11.5906   26.6338 C   0  0  0  0  0  0  0  0  0  0  0  0
    7.2574  -11.5140   25.2930 C   0  0  0  0  0  0  0  0  0  0  0  0
    7.0387  -12.6881   24.5644 C   0  0  0  0  0  0  0  0  0  0  0  0
    7.1166  -13.9197   25.1371 C   0  0  0  0  0  0  0  0  0  0  0  0
    8.9080  -16.5506   23.1334 C   0  0  0  0  0  0  0  0  0  0  0  0
    8.8199  -17.7999   23.0977 O   0  0  0  0  0  0  0  0  0  0  0  0
    9.9881  -15.9733   23.8515 N   0  0  0  0  0  0  0  0  0  0  0  0
   11.0979  -16.6899   24.4312 C   0  0  1  0  0  0  0  0  0  0  0  0
   12.3826  -15.9953   24.2294 C   0  0  0  0  0  0  0  0  0  0  0  0
   13.5811  -16.6267   24.8380 C   0  0  0  0  0  0  0  0  0  0  0  0
   14.7209  -16.7996   23.9304 C   0  0  0  0  0  0  0  0  0  0  0  0
   15.5922  -17.6763   23.9750 O   0  0  0  0  0  0  0  0  0  0  0  0
   10.8466  -17.1976   25.8025 C   0  0  0  0  0  0  0  0  0  0  0  0
   10.2234  -16.5651   26.6721 O   0  0  0  0  0  0  0  0  0  0  0  0
   14.8381  -15.8604   22.8882 O   0  0  0  0  0  0  0  0  0  0  0  0
   11.3323  -18.4415   26.1412 O   0  0  0  0  0  0  0  0  0  0  0  0
  2  1  1  6
  2  5  1  0
  3  4  1  0
  3  2  1  0
  5  7  1  0
  5  6  2  0
  7  8  1  0
  8  9  1  1
  8 19  1  0
  9 10  1  0
 10 11  2  0
 10 18  1  0
 11 12  1  0
 12 13  1  0
 13 14  2  0
 14 15  1  0
 16 15  2  0
 17 18  2  0
 17 16  1  0
 18 13  1  0
 19 20  2  0
 21 22  1  0
 21 19  1  0
 23 24  1  0
 22 23  1  1
 24 25  1  0
 25 26  2  0
 25 29  1  0
 27 22  1  0
 27 30  1  0
 28 27  2  0
M  END
$$$$
