CWE.pdb
     RDKit          3D

 30 31  0  0  1  0  0  0  0  0999 V2000
    7.2271  -15.0384   19.9780 N   0  0  0  0  0  0  0  0  0  0  0  0
    7.0901  -15.9164   21.0989 C   0  0  1  0  0  0  0  0  0  0  0  0
    7.0366  -17.3656   20.6859 C   0  0  0  0  0  0  0  0  0  0  0  0
    8.6296  -17.7989   19.9129 S   0  0  0  0  0  0  0  0  0  0  0  0
    8.2049  -15.7384   22.1044 C   0  0  0  0  0  0  0  0  0  0  0  0
    9.2868  -15.2396   21.7071 O   0  0  0  0  0  0  0  0  0  0  0  0
    7.9765  -16.1395   23.4328 N   0  0  0  0  0  0  0  0  0  0  0  0
    8.9350  -16.1215   24.4865 C   0  0  1  0  0  0  0  0  0  0  0  0
    8.2652  -16.0786   25.8441 C   0  0  0  0  0  0  0  0  0  0  0  0
    7.2684  -14.9769   25.8391 C   0  0  0  0  0  0  0  0  0  0  0  0
    5.8999  -14.9932   25.6976 C   0  0  0  0  0  0  0  0  0  0  0  0
    5.3877  -13.7358   25.7645 N   0  0  0  0  0  0  0  0  0  0  0  0
    6.4006  -12.8728   25.9501 C   0  0  0  0  0  0  0  0  0  0  0  0
    6.4123  -11.5017   26.0834 C   0  0  0  0  0  0  0  0  0  0  0  0
    7.6030  -10.8178   26.2725 C   0  0  0  0  0  0  0  0  0  0  0  0
    8.7712  -11.5454   26.3235 C   0  0  0  0  0  0  0  0  0  0  0  0
    8.7271  -12.9368   26.1849 C   0  0  0  0  0  0  0  0  0  0  0  0
    7.5584  -13.6083   25.9990 C   0  0  0  0  0  0  0  0  0  0  0  0
    9.9335  -17.1973   24.3450 C   0  0  0  0  0  0  0  0  0  0  0  0
    9.5935  -18.3175   23.8987 O   0  0  0  0  0  0  0  0  0  0  0  0
   11.2929  -17.0015   24.7045 N   0  0  0  0  0  0  0  0  0  0  0  0
   12.3401  -17.9906   24.6251 C   0  0  1  0  0  0  0  0  0  0  0  0
   13.3503  -17.6592   23.6037 C   0  0  0  0  0  0  0  0  0  0  0  0
   14.0927  -16.3870   23.7931 C   0  0  0  0  0  0  0  0  0  0  0  0
   15.1266  -16.1153   22.7880 C   0  0  0  0  0  0  0  0  0  0  0  0
   15.4219  -16.8071   21.8062 O   0  0  0  0  0  0  0  0  0  0  0  0
   12.8704  -18.4242   25.9413 C   0  0  0  0  0  0  0  0  0  0  0  0
   12.6218  -17.8461   27.0129 O   0  0  0  0  0  0  0  0  0  0  0  0
   15.8691  -14.9315   22.9593 O   0  0  0  0  0  0  0  0  0  0  0  0
   13.6905  -19.5302   25.9864 O   0  0  0  0  0  0  0  0  0  0  0  0
  2  1  1  6
  2  5  1  0
  3  4  1  0
  3  2  1  0
  5  7  1  0
  5  6  2  0
  7  8  1  0
  8  9  1  1
  8 19  1  0
  9 10  1  0
 10 11  2  0
 10 18  1  0
 11 12  1  0
 12 13  1  0
 13 14  2  0
 14 15  1  0
 16 15  2  0
 17 18  2  0
 17 16  1  0
 18 13  1  0
 19 20  2  0
 21 22  1  0
 21 19  1  0
 23 24  1  0
 22 23  1  6
 24 25  1  0
 25 26  2  0
 25 29  1  0
 27 22  1  0
 27 30  1  0
 28 27  2  0
M  END
$$$$
