CWE.pdb
     RDKit          3D

 30 31  0  0  1  0  0  0  0  0999 V2000
    9.6269  -16.5602   18.7577 N   0  0  0  0  0  0  0  0  0  0  0  0
    8.9864  -17.1939   19.8687 C   0  0  1  0  0  0  0  0  0  0  0  0
    9.2443  -18.6791   19.9056 C   0  0  0  0  0  0  0  0  0  0  0  0
   10.9913  -18.9450   20.3525 S   0  0  0  0  0  0  0  0  0  0  0  0
    9.4091  -16.5943   21.1907 C   0  0  0  0  0  0  0  0  0  0  0  0
   10.3815  -15.7997   21.1967 O   0  0  0  0  0  0  0  0  0  0  0  0
    8.6943  -16.9552   22.3467 N   0  0  0  0  0  0  0  0  0  0  0  0
    8.9351  -16.4671   23.6632 C   0  0  1  0  0  0  0  0  0  0  0  0
    7.6419  -16.2704   24.4264 C   0  0  0  0  0  0  0  0  0  0  0  0
    7.2182  -14.8548   24.2714 C   0  0  0  0  0  0  0  0  0  0  0  0
    6.7649  -14.1592   23.1743 C   0  0  0  0  0  0  0  0  0  0  0  0
    6.4814  -12.8695   23.4974 N   0  0  0  0  0  0  0  0  0  0  0  0
    6.7400  -12.6913   24.8038 C   0  0  0  0  0  0  0  0  0  0  0  0
    6.6185  -11.5810   25.6101 C   0  0  0  0  0  0  0  0  0  0  0  0
    6.9503  -11.6413   26.9546 C   0  0  0  0  0  0  0  0  0  0  0  0
    7.4036  -12.8393   27.4606 C   0  0  0  0  0  0  0  0  0  0  0  0
    7.5162  -13.9493   26.6167 C   0  0  0  0  0  0  0  0  0  0  0  0
    7.1909  -13.8903   25.2969 C   0  0  0  0  0  0  0  0  0  0  0  0
    9.9361  -17.2787   24.3800 C   0  0  0  0  0  0  0  0  0  0  0  0
    9.7417  -18.5031   24.5610 O   0  0  0  0  0  0  0  0  0  0  0  0
   11.1352  -16.7073   24.8812 N   0  0  0  0  0  0  0  0  0  0  0  0
   12.1628  -17.4050   25.6149 C   0  0  1  0  0  0  0  0  0  0  0  0
   13.5137  -16.9000   25.3086 C   0  0  0  0  0  0  0  0  0  0  0  0
   13.8192  -16.6483   23.8773 C   0  0  0  0  0  0  0  0  0  0  0  0
   15.1834  -16.1810   23.6060 C   0  0  0  0  0  0  0  0  0  0  0  0
   15.8820  -16.4318   22.6166 O   0  0  0  0  0  0  0  0  0  0  0  0
   11.8578  -17.6022   27.0536 C   0  0  0  0  0  0  0  0  0  0  0  0
   12.5662  -18.2688   27.8270 O   0  0  0  0  0  0  0  0  0  0  0  0
   15.7660  -15.3517   24.5831 O   0  0  0  0  0  0  0  0  0  0  0  0
   10.7221  -17.0177   27.5697 O   0  0  0  0  0  0  0  0  0  0  0  0
  2  1  1  6
  2  5  1  0
  3  4  1  0
  3  2  1  0
  5  7  1  0
  5  6  2  0
  7  8  1  0
  8  9  1  1
  8 19  1  0
  9 10  1  0
 10 11  2  0
 10 18  1  0
 11 12  1  0
 12 13  1  0
 13 14  2  0
 14 15  1  0
 16 15  2  0
 17 18  2  0
 17 16  1  0
 18 13  1  0
 19 20  2  0
 21 22  1  0
 21 19  1  0
 23 24  1  0
 22 23  1  1
 24 25  1  0
 25 26  2  0
 25 29  1  0
 27 22  1  0
 27 30  1  0
 28 27  2  0
M  END
$$$$
