CWE.pdb
     RDKit          3D

 30 31  0  0  1  0  0  0  0  0999 V2000
    6.9015  -15.0187   20.3831 N   0  0  0  0  0  0  0  0  0  0  0  0
    7.1907  -16.1237   21.2442 C   0  0  1  0  0  0  0  0  0  0  0  0
    7.7321  -17.3106   20.4880 C   0  0  0  0  0  0  0  0  0  0  0  0
    6.4131  -17.9472   19.4029 S   0  0  0  0  0  0  0  0  0  0  0  0
    8.1688  -15.7564   22.3369 C   0  0  0  0  0  0  0  0  0  0  0  0
    8.9615  -14.8052   22.1272 O   0  0  0  0  0  0  0  0  0  0  0  0
    8.1433  -16.4964   23.5324 N   0  0  0  0  0  0  0  0  0  0  0  0
    8.9783  -16.2796   24.6661 C   0  0  1  0  0  0  0  0  0  0  0  0
    8.1734  -16.2441   25.9484 C   0  0  0  0  0  0  0  0  0  0  0  0
    7.1179  -15.2077   25.8093 C   0  0  0  0  0  0  0  0  0  0  0  0
    5.7959  -15.3041   25.4401 C   0  0  0  0  0  0  0  0  0  0  0  0
    5.1946  -14.0850   25.4576 N   0  0  0  0  0  0  0  0  0  0  0  0
    6.1012  -13.1685   25.8359 C   0  0  0  0  0  0  0  0  0  0  0  0
    5.9966  -11.8059   26.0100 C   0  0  0  0  0  0  0  0  0  0  0  0
    7.0899  -11.0570   26.4162 C   0  0  0  0  0  0  0  0  0  0  0  0
    8.2808  -11.7114   26.6405 C   0  0  0  0  0  0  0  0  0  0  0  0
    8.3558  -13.0960   26.4552 C   0  0  0  0  0  0  0  0  0  0  0  0
    7.2828  -13.8313   26.0562 C   0  0  0  0  0  0  0  0  0  0  0  0
   10.1187  -17.2139   24.7005 C   0  0  0  0  0  0  0  0  0  0  0  0
    9.9238  -18.4489   24.6197 O   0  0  0  0  0  0  0  0  0  0  0  0
   11.4551  -16.7510   24.8245 N   0  0  0  0  0  0  0  0  0  0  0  0
   12.6145  -17.5712   25.0779 C   0  0  1  0  0  0  0  0  0  0  0  0
   13.8330  -17.0329   24.4461 C   0  0  0  0  0  0  0  0  0  0  0  0
   13.7692  -16.7890   22.9825 C   0  0  0  0  0  0  0  0  0  0  0  0
   14.8026  -15.8898   22.4568 C   0  0  0  0  0  0  0  0  0  0  0  0
   15.6784  -15.2947   23.0959 O   0  0  0  0  0  0  0  0  0  0  0  0
   12.7571  -18.0061   26.4894 C   0  0  0  0  0  0  0  0  0  0  0  0
   12.0366  -17.5982   27.4162 O   0  0  0  0  0  0  0  0  0  0  0  0
   14.7984  -15.6789   21.0648 O   0  0  0  0  0  0  0  0  0  0  0  0
   13.7464  -18.9130   26.7999 O   0  0  0  0  0  0  0  0  0  0  0  0
  2  1  1  6
  2  5  1  0
  3  4  1  0
  3  2  1  0
  5  7  1  0
  5  6  2  0
  7  8  1  0
  8  9  1  1
  8 19  1  0
  9 10  1  0
 10 11  2  0
 10 18  1  0
 11 12  1  0
 12 13  1  0
 13 14  2  0
 14 15  1  0
 16 15  2  0
 17 18  2  0
 17 16  1  0
 18 13  1  0
 19 20  2  0
 21 22  1  0
 21 19  1  0
 23 24  1  0
 22 23  1  1
 24 25  1  0
 25 26  2  0
 25 29  1  0
 27 22  1  0
 27 30  1  0
 28 27  2  0
M  END
$$$$
