RYE.pdb
     RDKit          3D

 33 33  0  0  1  0  0  0  0  0999 V2000
    9.4503  -13.2456   18.4811 N   0  0  0  0  0  0  0  0  0  0  0  0
    8.6514  -12.3450   19.2252 C   0  0  0  0  0  0  0  0  0  0  0  0
    9.1234  -11.1796   19.4992 N   0  0  0  0  0  0  0  0  0  0  0  0
    7.3528  -12.6807   19.6787 N   0  0  0  0  0  0  0  0  0  0  0  0
    6.7778  -14.0105   19.4713 C   0  0  0  0  0  0  0  0  0  0  0  0
    7.6462  -14.9799   20.2272 C   0  0  0  0  0  0  0  0  0  0  0  0
    6.8634  -15.8813   21.1435 C   0  0  0  0  0  0  0  0  0  0  0  0
    7.7789  -16.9254   21.7337 C   0  0  2  0  0  0  0  0  0  0  0  0
    6.9883  -18.0938   21.9996 N   0  0  0  0  0  0  0  0  0  0  0  0
    8.4180  -16.4247   22.9833 C   0  0  0  0  0  0  0  0  0  0  0  0
    9.3020  -15.5366   22.9176 O   0  0  0  0  0  0  0  0  0  0  0  0
    8.5904  -10.5291   20.0970 O   0  0  0  0  0  0  0  0  0  0  0  0
    6.6501  -10.5388   26.0805 C   0  0  0  0  0  0  0  0  0  0  0  0
    6.9445  -11.9121   26.1936 C   0  0  0  0  0  0  0  0  0  0  0  0
    5.9523  -12.8538   26.1473 C   0  0  0  0  0  0  0  0  0  0  0  0
    6.2737  -14.1852   26.2610 C   0  0  0  0  0  0  0  0  0  0  0  0
    7.5579  -14.6367   26.4217 C   0  0  0  0  0  0  0  0  0  0  0  0
    7.8434  -16.0588   26.5364 C   0  0  2  0  0  0  0  0  0  0  0  0
    8.7755  -16.5841   25.4719 N   0  0  0  0  0  0  0  0  0  0  0  0
    8.0538  -16.9275   24.2633 C   0  0  0  0  0  0  0  0  0  0  0  0
    9.5632  -17.7370   25.9008 O   0  0  0  0  0  0  0  0  0  0  0  0
    9.1033  -18.9026   26.0374 C   0  0  0  0  0  0  0  0  0  0  0  0
    8.5551  -13.6912   26.4682 C   0  0  0  0  0  0  0  0  0  0  0  0
    8.2487  -12.3269   26.3540 N   0  0  0  0  0  0  0  0  0  0  0  0
   10.9396  -17.5827   26.1934 C   0  0  2  0  0  0  0  0  0  0  0  0
   11.7386  -18.7172   26.6937 C   0  0  0  0  0  0  0  0  0  0  0  0
   13.1714  -18.5331   26.3439 C   0  0  0  0  0  0  0  0  0  0  0  0
   13.3606  -18.3663   24.8685 C   0  0  0  0  0  0  0  0  0  0  0  0
   14.7910  -18.1702   24.5112 O   0  0  0  0  0  0  0  0  0  0  0  0
   15.5589  -19.1480   24.5134 C   0  0  0  0  0  0  0  0  0  0  0  0
   11.5698  -18.7191   28.1648 O   0  0  0  0  0  0  0  0  0  0  0  0
   10.8530  -17.7996   28.9014 O   0  0  0  0  0  0  0  0  0  0  0  0
   15.2525  -16.9177   24.1825 O   0  0  0  0  0  0  0  0  0  0  0  0
  2  1  1  0
  3  2  2  0
  4  2  1  0
  5  4  1  0
  6  5  1  0
  7  6  1  0
  8 10  1  0
  8  7  1  0
  8  9  1  1
 10 19  1  0
 10 11  2  0
 12 13  1  0
 13 23  2  0
 13 14  1  0
 14 15  2  0
 15 16  1  0
 16 17  1  0
 18 17  1  6
 19 18  1  0
 20 24  1  0
 20 18  1  0
 21 20  2  0
 22 16  2  0
 23 22  1  0
 25 26  1  6
 25 30  1  0
 25 24  1  0
 27 28  1  0
 27 26  1  0
 28 32  1  0
 29 28  2  0
 30 31  1  0
 33 30  2  0
M  END
$$$$
