RYE.pdb
     RDKit          3D

 33 33  0  0  1  0  0  0  0  0999 V2000
    8.1807  -13.4231   12.5409 N   0  0  0  0  0  0  0  0  0  0  0  0
    8.3887  -14.4179   13.5258 C   0  0  0  0  0  0  0  0  0  0  0  0
    9.3936  -15.2121   13.4013 N   0  0  0  0  0  0  0  0  0  0  0  0
    7.5309  -14.5704   14.6420 N   0  0  0  0  0  0  0  0  0  0  0  0
    8.0366  -14.9405   15.9647 C   0  0  0  0  0  0  0  0  0  0  0  0
    8.2761  -13.6557   16.7111 C   0  0  0  0  0  0  0  0  0  0  0  0
    7.7430  -13.6837   18.1183 C   0  0  0  0  0  0  0  0  0  0  0  0
    8.4631  -14.7445   18.9137 C   0  0  2  0  0  0  0  0  0  0  0  0
    7.6944  -15.9533   18.8186 N   0  0  0  0  0  0  0  0  0  0  0  0
    8.6174  -14.3274   20.3360 C   0  0  0  0  0  0  0  0  0  0  0  0
    9.4756  -13.4646   20.6420 O   0  0  0  0  0  0  0  0  0  0  0  0
    9.6523  -15.8494   14.1704 O   0  0  0  0  0  0  0  0  0  0  0  0
    7.3032  -13.1545   28.9914 C   0  0  0  0  0  0  0  0  0  0  0  0
    7.1860  -13.3512   27.6010 C   0  0  0  0  0  0  0  0  0  0  0  0
    7.6843  -12.4362   26.7133 C   0  0  0  0  0  0  0  0  0  0  0  0
    7.5531  -12.6584   25.3634 C   0  0  0  0  0  0  0  0  0  0  0  0
    6.9389  -13.7668   24.8410 C   0  0  0  0  0  0  0  0  0  0  0  0
    6.8274  -13.9536   23.4023 C   0  0  1  0  0  0  0  0  0  0  0  0
    8.0385  -14.5979   22.7727 N   0  0  0  0  0  0  0  0  0  0  0  0
    7.8135  -14.8828   21.3700 C   0  0  0  0  0  0  0  0  0  0  0  0
    8.4661  -15.8220   23.4453 O   0  0  0  0  0  0  0  0  0  0  0  0
    7.8260  -16.9075   23.4232 C   0  0  0  0  0  0  0  0  0  0  0  0
    6.4382  -14.6864   25.7322 C   0  0  0  0  0  0  0  0  0  0  0  0
    6.5616  -14.4789   27.1142 N   0  0  0  0  0  0  0  0  0  0  0  0
    9.6741  -15.8375   24.1831 C   0  0  2  0  0  0  0  0  0  0  0  0
   10.1422  -17.0711   24.8425 C   0  0  0  0  0  0  0  0  0  0  0  0
   11.5037  -17.4270   24.3642 C   0  0  0  0  0  0  0  0  0  0  0  0
   11.5808  -17.4213   22.8694 C   0  0  0  0  0  0  0  0  0  0  0  0
   12.9427  -17.7687   22.3827 O   0  0  0  0  0  0  0  0  0  0  0  0
   13.9164  -17.6227   23.1418 C   0  0  0  0  0  0  0  0  0  0  0  0
   10.1738  -16.7729   26.2927 O   0  0  0  0  0  0  0  0  0  0  0  0
   10.3195  -17.6941   27.3084 O   0  0  0  0  0  0  0  0  0  0  0  0
   13.1156  -18.2461   21.1052 O   0  0  0  0  0  0  0  0  0  0  0  0
  2  1  1  0
  3  2  2  0
  4  2  1  0
  5  4  1  0
  6  5  1  0
  7  6  1  0
  8 10  1  0
  8  7  1  0
  8  9  1  1
 10 19  1  0
 10 11  2  0
 12 13  1  0
 13 23  2  0
 13 14  1  0
 14 15  2  0
 15 16  1  0
 16 17  1  0
 18 17  1  6
 19 18  1  0
 20 24  1  0
 20 18  1  0
 21 20  2  0
 22 16  2  0
 23 22  1  0
 25 26  1  6
 25 30  1  0
 25 24  1  0
 27 28  1  0
 27 26  1  0
 28 32  1  0
 29 28  2  0
 30 31  1  0
 33 30  2  0
M  END
$$$$
