RYE.pdb
     RDKit          3D

 33 33  0  0  1  0  0  0  0  0999 V2000
    8.6988  -12.6718   16.2093 N   0  0  0  0  0  0  0  0  0  0  0  0
    8.1613  -13.9269   15.8368 C   0  0  0  0  0  0  0  0  0  0  0  0
    7.6877  -14.0698   14.6488 N   0  0  0  0  0  0  0  0  0  0  0  0
    8.1257  -15.0296   16.7243 N   0  0  0  0  0  0  0  0  0  0  0  0
    8.8903  -15.0467   17.9721 C   0  0  0  0  0  0  0  0  0  0  0  0
    7.9418  -14.6363   19.0663 C   0  0  0  0  0  0  0  0  0  0  0  0
    8.6003  -14.5556   20.4172 C   0  0  0  0  0  0  0  0  0  0  0  0
    7.6047  -14.9203   21.4907 C   0  0  2  0  0  0  0  0  0  0  0  0
    6.5485  -13.9487   21.4494 N   0  0  0  0  0  0  0  0  0  0  0  0
    8.2538  -14.9380   22.8319 C   0  0  0  0  0  0  0  0  0  0  0  0
    9.0757  -14.0403   23.1374 O   0  0  0  0  0  0  0  0  0  0  0  0
    7.4229  -15.0050   14.3026 O   0  0  0  0  0  0  0  0  0  0  0  0
    6.2073  -10.2139   26.3838 C   0  0  0  0  0  0  0  0  0  0  0  0
    6.5752  -11.5733   26.3373 C   0  0  0  0  0  0  0  0  0  0  0  0
    5.6671  -12.5401   25.9994 C   0  0  0  0  0  0  0  0  0  0  0  0
    6.0587  -13.8570   25.9638 C   0  0  0  0  0  0  0  0  0  0  0  0
    7.3334  -14.2695   26.2532 C   0  0  0  0  0  0  0  0  0  0  0  0
    7.6956  -15.6778   26.1997 C   0  0  2  0  0  0  0  0  0  0  0  0
    8.6362  -16.0257   25.0717 N   0  0  0  0  0  0  0  0  0  0  0  0
    7.9683  -15.9520   23.7880 C   0  0  0  0  0  0  0  0  0  0  0  0
    9.2566  -17.3406   25.2117 O   0  0  0  0  0  0  0  0  0  0  0  0
    8.6941  -18.4287   24.9146 C   0  0  0  0  0  0  0  0  0  0  0  0
    8.2462  -13.2988   26.5926 C   0  0  0  0  0  0  0  0  0  0  0  0
    7.8672  -11.9487   26.6349 N   0  0  0  0  0  0  0  0  0  0  0  0
   10.5772  -17.4492   25.7100 C   0  0  2  0  0  0  0  0  0  0  0  0
   11.2295  -18.7653   25.8441 C   0  0  0  0  0  0  0  0  0  0  0  0
   12.6435  -18.6887   25.3926 C   0  0  0  0  0  0  0  0  0  0  0  0
   12.7387  -18.3697   23.9333 C   0  0  0  0  0  0  0  0  0  0  0  0
   14.1474  -18.1702   23.4997 O   0  0  0  0  0  0  0  0  0  0  0  0
   14.3821  -17.4888   22.4866 C   0  0  0  0  0  0  0  0  0  0  0  0
   11.1725  -19.1051   27.2842 O   0  0  0  0  0  0  0  0  0  0  0  0
   11.5731  -20.2950   27.8546 O   0  0  0  0  0  0  0  0  0  0  0  0
   15.1746  -18.7361   24.2169 O   0  0  0  0  0  0  0  0  0  0  0  0
  2  1  1  0
  3  2  2  0
  4  2  1  0
  5  4  1  0
  6  5  1  0
  7  6  1  0
  8 10  1  0
  8  7  1  0
  8  9  1  1
 10 19  1  0
 10 11  2  0
 12 13  1  0
 13 23  2  0
 13 14  1  0
 14 15  2  0
 15 16  1  0
 16 17  1  0
 18 17  1  6
 19 18  1  0
 20 24  1  0
 20 18  1  0
 21 20  2  0
 22 16  2  0
 23 22  1  0
 25 26  1  6
 25 30  1  0
 25 24  1  0
 27 28  1  0
 27 26  1  0
 28 32  1  0
 29 28  2  0
 30 31  1  0
 33 30  2  0
M  END
$$$$
