RYE.pdb
     RDKit          3D

 33 33  0  0  1  0  0  0  0  0999 V2000
    9.5023  -13.7142   15.8789 N   0  0  0  0  0  0  0  0  0  0  0  0
    8.3049  -14.2690   15.3676 C   0  0  0  0  0  0  0  0  0  0  0  0
    7.7634  -13.7270   14.3336 N   0  0  0  0  0  0  0  0  0  0  0  0
    7.6820  -15.3977   15.9532 N   0  0  0  0  0  0  0  0  0  0  0  0
    8.4255  -16.3579   16.7701 C   0  0  0  0  0  0  0  0  0  0  0  0
    9.6055  -15.6180   17.3406 C   0  0  0  0  0  0  0  0  0  0  0  0
    9.3216  -15.0032   18.6847 C   0  0  0  0  0  0  0  0  0  0  0  0
    9.3943  -16.0645   19.7548 C   0  0  2  0  0  0  0  0  0  0  0  0
    8.2149  -16.8752   19.6410 N   0  0  0  0  0  0  0  0  0  0  0  0
    9.4823  -15.4474   21.1083 C   0  0  0  0  0  0  0  0  0  0  0  0
   10.5086  -14.8022   21.4326 O   0  0  0  0  0  0  0  0  0  0  0  0
    6.9206  -14.1435   13.9084 O   0  0  0  0  0  0  0  0  0  0  0  0
    7.0062  -12.0776   28.9362 C   0  0  0  0  0  0  0  0  0  0  0  0
    7.0636  -12.5999   27.6288 C   0  0  0  0  0  0  0  0  0  0  0  0
    5.9277  -12.9944   26.9748 C   0  0  0  0  0  0  0  0  0  0  0  0
    6.0187  -13.5000   25.7001 C   0  0  0  0  0  0  0  0  0  0  0  0
    7.2062  -13.6359   25.0291 C   0  0  0  0  0  0  0  0  0  0  0  0
    7.2465  -14.1770   23.6791 C   0  0  1  0  0  0  0  0  0  0  0  0
    8.4919  -14.9740   23.3757 N   0  0  0  0  0  0  0  0  0  0  0  0
    8.4279  -15.5680   22.0556 C   0  0  0  0  0  0  0  0  0  0  0  0
    8.7705  -16.0200   24.3563 O   0  0  0  0  0  0  0  0  0  0  0  0
    8.0007  -16.9867   24.6046 C   0  0  0  0  0  0  0  0  0  0  0  0
    8.3477  -13.2398   25.6855 C   0  0  0  0  0  0  0  0  0  0  0  0
    8.2769  -12.7209   26.9871 N   0  0  0  0  0  0  0  0  0  0  0  0
    9.9738  -15.9875   25.1013 C   0  0  2  0  0  0  0  0  0  0  0  0
   10.4226  -17.1665   25.8657 C   0  0  0  0  0  0  0  0  0  0  0  0
   11.8809  -17.3808   25.6745 C   0  0  0  0  0  0  0  0  0  0  0  0
   12.1695  -18.0814   24.3836 C   0  0  0  0  0  0  0  0  0  0  0  0
   13.4930  -17.6943   23.8261 O   0  0  0  0  0  0  0  0  0  0  0  0
   13.8635  -18.1803   22.7433 C   0  0  0  0  0  0  0  0  0  0  0  0
   10.1341  -16.8664   27.2868 O   0  0  0  0  0  0  0  0  0  0  0  0
   10.3281  -17.7196   28.3527 O   0  0  0  0  0  0  0  0  0  0  0  0
   14.2932  -16.8074   24.5063 O   0  0  0  0  0  0  0  0  0  0  0  0
  2  1  1  0
  3  2  2  0
  4  2  1  0
  5  4  1  0
  6  5  1  0
  7  6  1  0
  8 10  1  0
  8  7  1  0
  8  9  1  1
 10 19  1  0
 10 11  2  0
 12 13  1  0
 13 23  2  0
 13 14  1  0
 14 15  2  0
 15 16  1  0
 16 17  1  0
 18 17  1  6
 19 18  1  0
 20 24  1  0
 20 18  1  0
 21 20  2  0
 22 16  2  0
 23 22  1  0
 25 26  1  6
 25 30  1  0
 25 24  1  0
 27 28  1  0
 27 26  1  0
 28 32  1  0
 29 28  2  0
 30 31  1  0
 33 30  2  0
M  END
$$$$
