RYE.pdb
     RDKit          3D

 33 33  0  0  1  0  0  0  0  0999 V2000
    8.3323  -13.0789   17.0188 N   0  0  0  0  0  0  0  0  0  0  0  0
    7.5892  -12.7046   18.1637 C   0  0  0  0  0  0  0  0  0  0  0  0
    7.8261  -11.5637   18.7099 N   0  0  0  0  0  0  0  0  0  0  0  0
    6.5959  -13.5403   18.7291 N   0  0  0  0  0  0  0  0  0  0  0  0
    6.2519  -14.8391   18.1487 C   0  0  0  0  0  0  0  0  0  0  0  0
    7.1591  -15.8538   18.7910 C   0  0  0  0  0  0  0  0  0  0  0  0
    7.9541  -15.2907   19.9381 C   0  0  0  0  0  0  0  0  0  0  0  0
    8.7943  -16.3801   20.5576 C   0  0  2  0  0  0  0  0  0  0  0  0
    7.9303  -17.4960   20.8209 N   0  0  0  0  0  0  0  0  0  0  0  0
    9.4385  -15.9032   21.8138 C   0  0  0  0  0  0  0  0  0  0  0  0
   10.4462  -15.1579   21.7524 O   0  0  0  0  0  0  0  0  0  0  0  0
    7.2909  -11.2620   19.5388 O   0  0  0  0  0  0  0  0  0  0  0  0
   11.0608  -14.8778   30.5033 C   0  0  0  0  0  0  0  0  0  0  0  0
   10.4611  -15.0581   29.2411 C   0  0  0  0  0  0  0  0  0  0  0  0
   10.2418  -13.9970   28.4047 C   0  0  0  0  0  0  0  0  0  0  0  0
    9.6544  -14.2076   27.1801 C   0  0  0  0  0  0  0  0  0  0  0  0
    9.2662  -15.4449   26.7362 C   0  0  0  0  0  0  0  0  0  0  0  0
    8.6487  -15.6125   25.4294 C   0  0  1  0  0  0  0  0  0  0  0  0
    9.6279  -15.9305   24.3257 N   0  0  0  0  0  0  0  0  0  0  0  0
    8.9420  -16.2702   23.0954 C   0  0  0  0  0  0  0  0  0  0  0  0
   10.5615  -17.0022   24.6627 O   0  0  0  0  0  0  0  0  0  0  0  0
   10.2319  -18.2070   24.8312 C   0  0  0  0  0  0  0  0  0  0  0  0
    9.4864  -16.5113   27.5759 C   0  0  0  0  0  0  0  0  0  0  0  0
   10.0847  -16.3183   28.8301 N   0  0  0  0  0  0  0  0  0  0  0  0
   11.9388  -16.7156   24.8203 C   0  0  2  0  0  0  0  0  0  0  0  0
   12.9075  -17.7905   25.1062 C   0  0  0  0  0  0  0  0  0  0  0  0
   14.2698  -17.3868   24.6701 C   0  0  0  0  0  0  0  0  0  0  0  0
   14.2811  -16.9438   23.2403 C   0  0  0  0  0  0  0  0  0  0  0  0
   15.6371  -16.5175   22.8023 O   0  0  0  0  0  0  0  0  0  0  0  0
   15.8780  -15.3062   22.6590 C   0  0  0  0  0  0  0  0  0  0  0  0
   12.8798  -17.9861   26.5738 O   0  0  0  0  0  0  0  0  0  0  0  0
   13.1021  -17.0148   27.5271 O   0  0  0  0  0  0  0  0  0  0  0  0
   16.6094  -17.4586   22.5603 O   0  0  0  0  0  0  0  0  0  0  0  0
  2  1  1  0
  3  2  2  0
  4  2  1  0
  5  4  1  0
  6  5  1  0
  7  6  1  0
  8 10  1  0
  8  7  1  0
  8  9  1  1
 10 19  1  0
 10 11  2  0
 12 13  1  0
 13 23  2  0
 13 14  1  0
 14 15  2  0
 15 16  1  0
 16 17  1  0
 18 17  1  6
 19 18  1  0
 20 24  1  0
 20 18  1  0
 21 20  2  0
 22 16  2  0
 23 22  1  0
 25 26  1  6
 25 30  1  0
 25 24  1  0
 27 28  1  0
 27 26  1  0
 28 32  1  0
 29 28  2  0
 30 31  1  0
 33 30  2  0
M  END
$$$$
