RYE.pdb
     RDKit          3D

 33 33  0  0  1  0  0  0  0  0999 V2000
   13.4031  -22.1276   17.8647 N   0  0  0  0  0  0  0  0  0  0  0  0
   13.5624  -20.8270   17.3299 C   0  0  0  0  0  0  0  0  0  0  0  0
   14.7220  -20.4724   16.8989 N   0  0  0  0  0  0  0  0  0  0  0  0
   12.4924  -19.9029   17.2528 N   0  0  0  0  0  0  0  0  0  0  0  0
   12.4403  -18.7041   18.0908 C   0  0  0  0  0  0  0  0  0  0  0  0
   11.5770  -19.0423   19.2764 C   0  0  0  0  0  0  0  0  0  0  0  0
   11.5287  -17.9426   20.3028 C   0  0  0  0  0  0  0  0  0  0  0  0
   10.0956  -17.5409   20.5505 C   0  0  2  0  0  0  0  0  0  0  0  0
    9.5967  -16.9498   19.3410 N   0  0  0  0  0  0  0  0  0  0  0  0
   10.0030  -16.5796   21.6853 C   0  0  0  0  0  0  0  0  0  0  0  0
   11.0517  -16.1215   22.2000 O   0  0  0  0  0  0  0  0  0  0  0  0
   14.8837  -19.5069   16.5730 O   0  0  0  0  0  0  0  0  0  0  0  0
    6.6313  -11.1075   27.8090 C   0  0  0  0  0  0  0  0  0  0  0  0
    6.8181  -11.9399   26.6875 C   0  0  0  0  0  0  0  0  0  0  0  0
    7.6600  -11.5777   25.6708 C   0  0  0  0  0  0  0  0  0  0  0  0
    7.8194  -12.4127   24.5909 C   0  0  0  0  0  0  0  0  0  0  0  0
    7.1708  -13.6140   24.4683 C   0  0  0  0  0  0  0  0  0  0  0  0
    7.3762  -14.4610   23.3032 C   0  0  1  0  0  0  0  0  0  0  0  0
    8.6364  -15.2894   23.3628 N   0  0  0  0  0  0  0  0  0  0  0  0
    8.7491  -16.1598   22.2099 C   0  0  0  0  0  0  0  0  0  0  0  0
    8.7529  -16.0907   24.5785 O   0  0  0  0  0  0  0  0  0  0  0  0
    7.9214  -16.9681   24.9354 C   0  0  0  0  0  0  0  0  0  0  0  0
    6.3250  -13.9784   25.4893 C   0  0  0  0  0  0  0  0  0  0  0  0
    6.1480  -13.1408   26.6007 N   0  0  0  0  0  0  0  0  0  0  0  0
    9.8573  -15.9043   25.4443 C   0  0  2  0  0  0  0  0  0  0  0  0
   10.0065  -16.7170   26.6661 C   0  0  0  0  0  0  0  0  0  0  0  0
   11.2930  -17.4607   26.6372 C   0  0  0  0  0  0  0  0  0  0  0  0
   11.4116  -18.3077   25.4087 C   0  0  0  0  0  0  0  0  0  0  0  0
   12.7070  -19.0369   25.3604 O   0  0  0  0  0  0  0  0  0  0  0  0
   13.6255  -18.6984   26.1270 C   0  0  0  0  0  0  0  0  0  0  0  0
    9.9963  -15.7610   27.7969 O   0  0  0  0  0  0  0  0  0  0  0  0
    9.9352  -14.3869   27.6983 O   0  0  0  0  0  0  0  0  0  0  0  0
   12.8801  -20.0738   24.4747 O   0  0  0  0  0  0  0  0  0  0  0  0
  2  1  1  0
  3  2  2  0
  4  2  1  0
  5  4  1  0
  6  5  1  0
  7  6  1  0
  8 10  1  0
  8  7  1  0
  8  9  1  6
 10 19  1  0
 10 11  2  0
 12 13  1  0
 13 23  2  0
 13 14  1  0
 14 15  2  0
 15 16  1  0
 16 17  1  0
 18 17  1  6
 19 18  1  0
 20 24  1  0
 20 18  1  0
 21 20  2  0
 22 16  2  0
 23 22  1  0
 25 26  1  6
 25 30  1  0
 25 24  1  0
 27 28  1  0
 27 26  1  0
 28 32  1  0
 29 28  2  0
 30 31  1  0
 33 30  2  0
M  END
$$$$
