RYE.pdb
     RDKit          3D

 33 33  0  0  1  0  0  0  0  0999 V2000
   10.1334  -15.9469   14.5218 N   0  0  0  0  0  0  0  0  0  0  0  0
    9.4814  -16.8653   15.3789 C   0  0  0  0  0  0  0  0  0  0  0  0
   10.1781  -17.7902   15.9404 N   0  0  0  0  0  0  0  0  0  0  0  0
    8.0912  -16.8027   15.6398 N   0  0  0  0  0  0  0  0  0  0  0  0
    7.5558  -16.1760   16.8493 C   0  0  0  0  0  0  0  0  0  0  0  0
    8.5304  -15.1000   17.2465 C   0  0  0  0  0  0  0  0  0  0  0  0
    8.8808  -15.1336   18.7098 C   0  0  0  0  0  0  0  0  0  0  0  0
    7.8791  -14.3196   19.4912 C   0  0  2  0  0  0  0  0  0  0  0  0
    7.8701  -12.9956   18.9361 N   0  0  0  0  0  0  0  0  0  0  0  0
    8.2377  -14.2835   20.9371 C   0  0  0  0  0  0  0  0  0  0  0  0
    9.1807  -13.5528   21.3264 O   0  0  0  0  0  0  0  0  0  0  0  0
   10.9599  -18.2336   15.4336 O   0  0  0  0  0  0  0  0  0  0  0  0
    6.5928  -10.4558   27.6274 C   0  0  0  0  0  0  0  0  0  0  0  0
    6.6074  -11.5746   26.7709 C   0  0  0  0  0  0  0  0  0  0  0  0
    6.0112  -12.7516   27.1354 C   0  0  0  0  0  0  0  0  0  0  0  0
    6.0437  -13.8239   26.2764 C   0  0  0  0  0  0  0  0  0  0  0  0
    6.6515  -13.7844   25.0485 C   0  0  0  0  0  0  0  0  0  0  0  0
    6.6563  -14.9494   24.1769 C   0  0  2  0  0  0  0  0  0  0  0  0
    7.8855  -15.0590   23.3079 N   0  0  0  0  0  0  0  0  0  0  0  0
    7.5372  -15.0602   21.9014 C   0  0  0  0  0  0  0  0  0  0  0  0
    8.7040  -16.2336   23.5975 O   0  0  0  0  0  0  0  0  0  0  0  0
    8.3177  -17.4244   23.4508 C   0  0  0  0  0  0  0  0  0  0  0  0
    7.2505  -12.6023   24.6817 C   0  0  0  0  0  0  0  0  0  0  0  0
    7.2287  -11.4955   25.5435 N   0  0  0  0  0  0  0  0  0  0  0  0
   10.0262  -16.0726   24.0768 C   0  0  2  0  0  0  0  0  0  0  0  0
   10.8359  -17.2410   24.4703 C   0  0  0  0  0  0  0  0  0  0  0  0
   12.2802  -16.9640   24.2546 C   0  0  0  0  0  0  0  0  0  0  0  0
   12.5945  -16.7807   22.8026 C   0  0  0  0  0  0  0  0  0  0  0  0
   14.0310  -16.4649   22.5814 O   0  0  0  0  0  0  0  0  0  0  0  0
   14.7918  -16.3715   23.5603 C   0  0  0  0  0  0  0  0  0  0  0  0
   10.5686  -17.4574   25.9106 O   0  0  0  0  0  0  0  0  0  0  0  0
   10.9756  -18.5423   26.6583 O   0  0  0  0  0  0  0  0  0  0  0  0
   14.5059  -16.2797   21.3048 O   0  0  0  0  0  0  0  0  0  0  0  0
  2  1  1  0
  3  2  2  0
  4  2  1  0
  5  4  1  0
  6  5  1  0
  7  6  1  0
  8 10  1  0
  8  7  1  0
  8  9  1  6
 10 19  1  0
 10 11  2  0
 12 13  1  0
 13 23  2  0
 13 14  1  0
 14 15  2  0
 15 16  1  0
 16 17  1  0
 18 17  1  6
 19 18  1  0
 20 24  1  0
 20 18  1  0
 21 20  2  0
 22 16  2  0
 23 22  1  0
 25 26  1  6
 25 30  1  0
 25 24  1  0
 27 28  1  0
 27 26  1  0
 28 32  1  0
 29 28  2  0
 30 31  1  0
 33 30  2  0
M  END
$$$$
