RYE.pdb
     RDKit          3D

 33 33  0  0  1  0  0  0  0  0999 V2000
    7.9026  -14.1238   14.2304 N   0  0  0  0  0  0  0  0  0  0  0  0
    8.4261  -13.8949   15.5253 C   0  0  0  0  0  0  0  0  0  0  0  0
    8.2931  -12.7271   16.0494 N   0  0  0  0  0  0  0  0  0  0  0  0
    9.0907  -14.9040   16.2634 N   0  0  0  0  0  0  0  0  0  0  0  0
    8.8915  -16.3271   15.9860 C   0  0  0  0  0  0  0  0  0  0  0  0
    8.3847  -16.9492   17.2594 C   0  0  0  0  0  0  0  0  0  0  0  0
    9.1341  -16.4868   18.4799 C   0  0  0  0  0  0  0  0  0  0  0  0
    8.5858  -17.1764   19.7048 C   0  0  2  0  0  0  0  0  0  0  0  0
    7.1751  -17.3548   19.5059 N   0  0  0  0  0  0  0  0  0  0  0  0
    8.8484  -16.3696   20.9297 C   0  0  0  0  0  0  0  0  0  0  0  0
    9.8581  -15.6262   20.9807 O   0  0  0  0  0  0  0  0  0  0  0  0
    8.6125  -12.5498   17.0144 O   0  0  0  0  0  0  0  0  0  0  0  0
    7.3049  -11.8360   28.3822 C   0  0  0  0  0  0  0  0  0  0  0  0
    7.1984  -12.6078   27.2081 C   0  0  0  0  0  0  0  0  0  0  0  0
    7.0710  -12.0143   25.9812 C   0  0  0  0  0  0  0  0  0  0  0  0
    6.9693  -12.7964   24.8557 C   0  0  0  0  0  0  0  0  0  0  0  0
    6.9881  -14.1666   24.8891 C   0  0  0  0  0  0  0  0  0  0  0  0
    6.8774  -14.9475   23.6664 C   0  0  1  0  0  0  0  0  0  0  0  0
    8.1741  -15.5820   23.2256 N   0  0  0  0  0  0  0  0  0  0  0  0
    7.9811  -16.4158   22.0564 C   0  0  0  0  0  0  0  0  0  0  0  0
    8.8254  -16.3685   24.2700 O   0  0  0  0  0  0  0  0  0  0  0  0
    8.3738  -17.4505   24.7327 C   0  0  0  0  0  0  0  0  0  0  0  0
    7.1162  -14.7634   26.1212 C   0  0  0  0  0  0  0  0  0  0  0  0
    7.2216  -13.9835   27.2826 N   0  0  0  0  0  0  0  0  0  0  0  0
   10.0477  -15.9252   24.8296 C   0  0  2  0  0  0  0  0  0  0  0  0
   10.8724  -16.8264   25.6562 C   0  0  0  0  0  0  0  0  0  0  0  0
   12.3164  -16.5549   25.4321 C   0  0  0  0  0  0  0  0  0  0  0  0
   12.7305  -16.8978   24.0352 C   0  0  0  0  0  0  0  0  0  0  0  0
   13.9772  -16.1912   23.6367 O   0  0  0  0  0  0  0  0  0  0  0  0
   14.6573  -15.6188   24.5060 C   0  0  0  0  0  0  0  0  0  0  0  0
   10.5119  -16.5355   27.0628 O   0  0  0  0  0  0  0  0  0  0  0  0
   10.9678  -17.2118   28.1747 O   0  0  0  0  0  0  0  0  0  0  0  0
   14.3677  -16.1754   22.3188 O   0  0  0  0  0  0  0  0  0  0  0  0
  2  1  1  0
  3  2  2  0
  4  2  1  0
  5  4  1  0
  6  5  1  0
  7  6  1  0
  8 10  1  0
  8  7  1  0
  8  9  1  6
 10 19  1  0
 10 11  2  0
 12 13  1  0
 13 23  2  0
 13 14  1  0
 14 15  2  0
 15 16  1  0
 16 17  1  0
 18 17  1  6
 19 18  1  0
 20 24  1  0
 20 18  1  0
 21 20  2  0
 22 16  2  0
 23 22  1  0
 25 26  1  6
 25 30  1  0
 25 24  1  0
 27 28  1  0
 27 26  1  0
 28 32  1  0
 29 28  2  0
 30 31  1  0
 33 30  2  0
M  END
$$$$
