RYE.pdb
     RDKit          3D

 33 33  0  0  1  0  0  0  0  0999 V2000
    9.1477  -13.9560   16.6664 N   0  0  0  0  0  0  0  0  0  0  0  0
    8.3154  -14.5456   15.6852 C   0  0  0  0  0  0  0  0  0  0  0  0
    7.6824  -13.7789   14.8682 N   0  0  0  0  0  0  0  0  0  0  0  0
    8.1544  -15.9477   15.5712 N   0  0  0  0  0  0  0  0  0  0  0  0
    8.9222  -16.8863   16.3906 C   0  0  0  0  0  0  0  0  0  0  0  0
    8.3305  -16.8374   17.7737 C   0  0  0  0  0  0  0  0  0  0  0  0
    9.0195  -15.8480   18.6745 C   0  0  0  0  0  0  0  0  0  0  0  0
    9.4369  -16.5302   19.9539 C   0  0  2  0  0  0  0  0  0  0  0  0
    8.4949  -17.5829   20.2102 N   0  0  0  0  0  0  0  0  0  0  0  0
    9.4671  -15.5616   21.0859 C   0  0  0  0  0  0  0  0  0  0  0  0
   10.2525  -14.5836   21.0474 O   0  0  0  0  0  0  0  0  0  0  0  0
    7.0698  -14.1832   14.1430 O   0  0  0  0  0  0  0  0  0  0  0  0
    6.5594  -10.8118   27.9781 C   0  0  0  0  0  0  0  0  0  0  0  0
    6.6991  -11.7415   26.9286 C   0  0  0  0  0  0  0  0  0  0  0  0
    6.5523  -11.3600   25.6222 C   0  0  0  0  0  0  0  0  0  0  0  0
    6.6948  -12.2922   24.6224 C   0  0  0  0  0  0  0  0  0  0  0  0
    6.9817  -13.6112   24.8607 C   0  0  0  0  0  0  0  0  0  0  0  0
    7.1228  -14.5573   23.7643 C   0  0  1  0  0  0  0  0  0  0  0  0
    8.5401  -14.7145   23.2698 N   0  0  0  0  0  0  0  0  0  0  0  0
    8.6242  -15.7119   22.2220 C   0  0  0  0  0  0  0  0  0  0  0  0
    9.4940  -15.0490   24.3242 O   0  0  0  0  0  0  0  0  0  0  0  0
    9.5762  -14.4456   25.4278 C   0  0  0  0  0  0  0  0  0  0  0  0
    7.1294  -13.9950   26.1728 C   0  0  0  0  0  0  0  0  0  0  0  0
    6.9881  -13.0594   27.2086 N   0  0  0  0  0  0  0  0  0  0  0  0
   10.4068  -16.1151   24.1388 C   0  0  1  0  0  0  0  0  0  0  0  0
   11.4203  -16.4301   25.1631 C   0  0  0  0  0  0  0  0  0  0  0  0
   10.8177  -17.2423   26.2523 C   0  0  0  0  0  0  0  0  0  0  0  0
   10.3694  -18.5816   25.7566 C   0  0  0  0  0  0  0  0  0  0  0  0
    9.9381  -19.4693   26.8693 O   0  0  0  0  0  0  0  0  0  0  0  0
   10.0269  -19.0638   28.0413 C   0  0  0  0  0  0  0  0  0  0  0  0
   12.4732  -17.2079   24.4708 O   0  0  0  0  0  0  0  0  0  0  0  0
   13.7230  -17.5075   24.9708 O   0  0  0  0  0  0  0  0  0  0  0  0
    9.4470  -20.7241   26.5974 O   0  0  0  0  0  0  0  0  0  0  0  0
  2  1  1  0
  3  2  2  0
  4  2  1  0
  5  4  1  0
  6  5  1  0
  7  6  1  0
  8 10  1  0
  8  7  1  0
  8  9  1  1
 10 19  1  0
 10 11  2  0
 12 13  1  0
 13 23  2  0
 13 14  1  0
 14 15  2  0
 15 16  1  0
 16 17  1  0
 18 17  1  6
 19 18  1  0
 20 24  1  0
 20 18  1  0
 21 20  2  0
 22 16  2  0
 23 22  1  0
 25 26  1  1
 25 30  1  0
 25 24  1  0
 27 28  1  0
 27 26  1  0
 28 32  1  0
 29 28  2  0
 30 31  1  0
 33 30  2  0
M  END
$$$$
