RYE.pdb
     RDKit          3D

 33 33  0  0  1  0  0  0  0  0999 V2000
    8.8856  -15.5594   16.0739 N   0  0  0  0  0  0  0  0  0  0  0  0
    8.0356  -14.5028   15.6689 C   0  0  0  0  0  0  0  0  0  0  0  0
    7.4589  -14.5774   14.5209 N   0  0  0  0  0  0  0  0  0  0  0  0
    7.7979  -13.3676   16.4810 N   0  0  0  0  0  0  0  0  0  0  0  0
    8.4799  -13.1726   17.7613 C   0  0  0  0  0  0  0  0  0  0  0  0
    7.6195  -13.8205   18.8127 C   0  0  0  0  0  0  0  0  0  0  0  0
    8.2210  -13.7517   20.1905 C   0  0  0  0  0  0  0  0  0  0  0  0
    8.5429  -15.1440   20.6748 C   0  0  2  0  0  0  0  0  0  0  0  0
    7.3296  -15.9100   20.6276 N   0  0  0  0  0  0  0  0  0  0  0  0
    9.0922  -15.1099   22.0596 C   0  0  0  0  0  0  0  0  0  0  0  0
   10.1875  -14.5388   22.2808 O   0  0  0  0  0  0  0  0  0  0  0  0
    6.8413  -13.8166   14.1978 O   0  0  0  0  0  0  0  0  0  0  0  0
    6.0036  -10.1638   26.1530 C   0  0  0  0  0  0  0  0  0  0  0  0
    6.4452  -11.4921   25.9919 C   0  0  0  0  0  0  0  0  0  0  0  0
    7.7057  -11.8686   26.3700 C   0  0  0  0  0  0  0  0  0  0  0  0
    8.1051  -13.1725   26.1988 C   0  0  0  0  0  0  0  0  0  0  0  0
    7.2982  -14.1404   25.6597 C   0  0  0  0  0  0  0  0  0  0  0  0
    7.7710  -15.5073   25.5011 C   0  0  2  0  0  0  0  0  0  0  0  0
    8.9018  -15.6533   24.5121 N   0  0  0  0  0  0  0  0  0  0  0  0
    8.4067  -15.7111   23.1515 C   0  0  0  0  0  0  0  0  0  0  0  0
    9.7501  -16.8161   24.7607 O   0  0  0  0  0  0  0  0  0  0  0  0
    9.3220  -17.9936   24.8982 C   0  0  0  0  0  0  0  0  0  0  0  0
    6.0318  -13.7629   25.2797 C   0  0  0  0  0  0  0  0  0  0  0  0
    5.6041  -12.4371   25.4458 N   0  0  0  0  0  0  0  0  0  0  0  0
   11.1533  -16.6583   24.8612 C   0  0  2  0  0  0  0  0  0  0  0  0
   12.0271  -17.8147   25.1349 C   0  0  0  0  0  0  0  0  0  0  0  0
   13.4500  -17.4520   24.9044 C   0  0  0  0  0  0  0  0  0  0  0  0
   14.3665  -18.5927   25.2195 C   0  0  0  0  0  0  0  0  0  0  0  0
   15.5889  -18.5726   24.3722 O   0  0  0  0  0  0  0  0  0  0  0  0
   16.0616  -17.4810   24.0108 C   0  0  0  0  0  0  0  0  0  0  0  0
   11.8140  -18.1602   26.5590 O   0  0  0  0  0  0  0  0  0  0  0  0
   11.8714  -19.4251   27.1053 O   0  0  0  0  0  0  0  0  0  0  0  0
   16.1848  -19.7530   23.9966 O   0  0  0  0  0  0  0  0  0  0  0  0
  2  1  1  0
  3  2  2  0
  4  2  1  0
  5  4  1  0
  6  5  1  0
  7  6  1  0
  8 10  1  0
  8  7  1  0
  8  9  1  1
 10 19  1  0
 10 11  2  0
 12 13  1  0
 13 23  2  0
 13 14  1  0
 14 15  2  0
 15 16  1  0
 16 17  1  0
 18 17  1  6
 19 18  1  0
 20 24  1  0
 20 18  1  0
 21 20  2  0
 22 16  2  0
 23 22  1  0
 25 26  1  6
 25 30  1  0
 25 24  1  0
 27 28  1  0
 27 26  1  0
 28 32  1  0
 29 28  2  0
 30 31  1  0
 33 30  2  0
M  END
$$$$
