WNI.pdb
     RDKit          3D

 31 32  0  0  1  0  0  0  0  0999 V2000
    8.0159  -17.4530   21.7324 N   0  0  0  0  0  0  0  0  0  0  0  0
    8.0327  -16.5337   22.8380 C   0  0  1  0  0  0  0  0  0  0  0  0
    6.9352  -15.5262   22.7155 C   0  0  0  0  0  0  0  0  0  0  0  0
    6.8327  -15.1401   21.2814 C   0  0  0  0  0  0  0  0  0  0  0  0
    6.2806  -15.8410   20.2251 C   0  0  0  0  0  0  0  0  0  0  0  0
    6.4027  -15.1182   19.0944 N   0  0  0  0  0  0  0  0  0  0  0  0
    7.0177  -13.9543   19.3499 C   0  0  0  0  0  0  0  0  0  0  0  0
    7.3562  -12.9067   18.5130 C   0  0  0  0  0  0  0  0  0  0  0  0
    7.9976  -11.8209   19.0879 C   0  0  0  0  0  0  0  0  0  0  0  0
    8.2772  -11.8074   20.4434 C   0  0  0  0  0  0  0  0  0  0  0  0
    7.9267  -12.8693   21.2548 C   0  0  0  0  0  0  0  0  0  0  0  0
    7.2923  -13.9506   20.7039 C   0  0  0  0  0  0  0  0  0  0  0  0
    8.0091  -17.2784   24.1242 C   0  0  0  0  0  0  0  0  0  0  0  0
    6.9950  -17.2422   24.8726 O   0  0  0  0  0  0  0  0  0  0  0  0
   13.1275  -17.7305   22.5149 N   0  0  0  0  0  0  0  0  0  0  0  0
   12.2158  -16.7523   22.9958 C   0  0  0  0  0  0  0  0  0  0  0  0
   12.6896  -15.6307   23.2962 O   0  0  0  0  0  0  0  0  0  0  0  0
   10.7698  -16.9849   23.1560 C   0  0  0  0  0  0  0  0  0  0  0  0
   10.4945  -17.6178   24.4783 C   0  0  2  0  0  0  0  0  0  0  0  0
    9.1000  -18.0590   24.5818 N   0  0  0  0  0  0  0  0  0  0  0  0
   10.8003  -16.6379   25.5541 C   0  0  0  0  0  0  0  0  0  0  0  0
   11.9264  -16.1046   25.7170 O   0  0  0  0  0  0  0  0  0  0  0  0
    7.1173  -13.0337   27.1614 C   0  0  0  0  0  0  0  0  0  0  0  0
    8.4172  -13.7449   26.8037 C   0  0  0  0  0  0  0  0  0  0  0  0
    8.9968  -14.4566   28.0006 C   0  0  2  0  0  0  0  0  0  0  0  0
    9.2793  -13.4642   29.0882 C   0  0  0  0  0  0  0  0  0  0  0  0
   10.1301  -15.3134   27.5935 C   0  0  2  0  0  0  0  0  0  0  0  0
    9.8251  -16.2168   26.5039 N   0  0  0  0  0  0  0  0  0  0  0  0
   10.5905  -16.1426   28.7199 C   0  0  0  0  0  0  0  0  0  0  0  0
   10.2525  -17.5034   28.8253 O   0  0  0  0  0  0  0  0  0  0  0  0
   11.3012  -15.7035   29.6449 O   0  0  0  0  0  0  0  0  0  0  0  0
  2  1  1  6
  2  3  1  0
  3  4  1  0
  4  5  2  0
  5  6  1  0
  7  6  1  0
  8  7  2  0
  9  8  1  0
 10 11  1  0
 10  9  2  0
 11 12  2  0
 12  4  1  0
 12  7  1  0
 13 14  2  0
 13  2  1  0
 15 16  1  0
 16 17  2  0
 18 16  1  0
 19 18  1  6
 19 20  1  0
 20 13  1  0
 21 28  1  0
 21 19  1  0
 22 21  2  0
 23 24  1  0
 24 25  1  0
 25 26  1  1
 25 27  1  0
 27 28  1  6
 27 29  1  0
 29 30  1  0
 31 29  2  0
M  END
$$$$
