WNI.pdb
     RDKit          3D

 31 32  0  0  1  0  0  0  0  0999 V2000
    8.4962  -16.9023   20.9012 N   0  0  0  0  0  0  0  0  0  0  0  0
    8.4681  -16.1649   22.1355 C   0  0  1  0  0  0  0  0  0  0  0  0
    7.0954  -15.6457   22.4197 C   0  0  0  0  0  0  0  0  0  0  0  0
    7.2071  -14.1822   22.6681 C   0  0  0  0  0  0  0  0  0  0  0  0
    7.5988  -13.1765   21.8037 C   0  0  0  0  0  0  0  0  0  0  0  0
    7.5559  -11.9920   22.4447 N   0  0  0  0  0  0  0  0  0  0  0  0
    7.1491  -12.1623   23.7111 C   0  0  0  0  0  0  0  0  0  0  0  0
    6.9564  -11.2479   24.7305 C   0  0  0  0  0  0  0  0  0  0  0  0
    6.5222  -11.7435   25.9498 C   0  0  0  0  0  0  0  0  0  0  0  0
    6.2976  -13.0990   26.1170 C   0  0  0  0  0  0  0  0  0  0  0  0
    6.4989  -13.9889   25.0796 C   0  0  0  0  0  0  0  0  0  0  0  0
    6.9278  -13.5170   23.8678 C   0  0  0  0  0  0  0  0  0  0  0  0
    9.0268  -16.9902   23.2384 C   0  0  0  0  0  0  0  0  0  0  0  0
    8.3305  -17.2704   24.2515 O   0  0  0  0  0  0  0  0  0  0  0  0
   12.1077  -20.3450   21.6156 N   0  0  0  0  0  0  0  0  0  0  0  0
   11.5002  -20.1170   22.8798 C   0  0  0  0  0  0  0  0  0  0  0  0
   10.4649  -20.7747   23.1413 O   0  0  0  0  0  0  0  0  0  0  0  0
   12.0154  -19.1654   23.8796 C   0  0  0  0  0  0  0  0  0  0  0  0
   10.9221  -18.2606   24.3391 C   0  0  2  0  0  0  0  0  0  0  0  0
   10.3480  -17.5031   23.2227 N   0  0  0  0  0  0  0  0  0  0  0  0
   11.4667  -17.3280   25.3613 C   0  0  0  0  0  0  0  0  0  0  0  0
   12.4857  -16.6138   25.1864 O   0  0  0  0  0  0  0  0  0  0  0  0
    9.1042  -13.7540   28.8159 C   0  0  0  0  0  0  0  0  0  0  0  0
    9.5992  -15.1495   28.4538 C   0  0  0  0  0  0  0  0  0  0  0  0
   11.0316  -15.1150   27.9827 C   0  0  2  0  0  0  0  0  0  0  0  0
   11.1626  -14.1534   26.8401 C   0  0  0  0  0  0  0  0  0  0  0  0
   11.5282  -16.4853   27.7379 C   0  0  2  0  0  0  0  0  0  0  0  0
   10.8675  -17.1657   26.6438 N   0  0  0  0  0  0  0  0  0  0  0  0
   11.3522  -17.3272   28.9332 C   0  0  0  0  0  0  0  0  0  0  0  0
   12.0193  -17.0503   30.1395 O   0  0  0  0  0  0  0  0  0  0  0  0
   10.6110  -18.3289   28.9594 O   0  0  0  0  0  0  0  0  0  0  0  0
  2  1  1  6
  2  3  1  0
  3  4  1  0
  4  5  2  0
  5  6  1  0
  7  6  1  0
  8  7  2  0
  9  8  1  0
 10 11  1  0
 10  9  2  0
 11 12  2  0
 12  4  1  0
 12  7  1  0
 13 14  2  0
 13  2  1  0
 15 16  1  0
 16 17  2  0
 18 16  1  0
 19 18  1  6
 19 20  1  0
 20 13  1  0
 21 28  1  0
 21 19  1  0
 22 21  2  0
 23 24  1  0
 24 25  1  0
 25 26  1  6
 25 27  1  0
 27 28  1  6
 27 29  1  0
 29 30  1  0
 31 29  2  0
M  END
$$$$
