WNI.pdb
     RDKit          3D

 31 32  0  0  1  0  0  0  0  0999 V2000
    7.6056  -18.4727   21.5843 N   0  0  0  0  0  0  0  0  0  0  0  0
    8.1694  -17.2509   22.0914 C   0  0  1  0  0  0  0  0  0  0  0  0
    7.0975  -16.3080   22.5344 C   0  0  0  0  0  0  0  0  0  0  0  0
    6.6705  -15.5175   21.3475 C   0  0  0  0  0  0  0  0  0  0  0  0
    5.6725  -15.7889   20.4298 C   0  0  0  0  0  0  0  0  0  0  0  0
    5.6267  -14.8032   19.5120 N   0  0  0  0  0  0  0  0  0  0  0  0
    6.5584  -13.8761   19.7777 C   0  0  0  0  0  0  0  0  0  0  0  0
    6.8802  -12.7023   19.1209 C   0  0  0  0  0  0  0  0  0  0  0  0
    7.9122  -11.9444   19.6513 C   0  0  0  0  0  0  0  0  0  0  0  0
    8.5780  -12.3637   20.7901 C   0  0  0  0  0  0  0  0  0  0  0  0
    8.2339  -13.5416   21.4247 C   0  0  0  0  0  0  0  0  0  0  0  0
    7.2167  -14.3033   20.9147 C   0  0  0  0  0  0  0  0  0  0  0  0
    9.1684  -17.5485   23.1512 C   0  0  0  0  0  0  0  0  0  0  0  0
    8.8610  -18.2580   24.1471 O   0  0  0  0  0  0  0  0  0  0  0  0
   13.4774  -17.9818   21.2825 N   0  0  0  0  0  0  0  0  0  0  0  0
   13.0448  -18.2887   22.6008 C   0  0  0  0  0  0  0  0  0  0  0  0
   12.8015  -19.4925   22.8548 O   0  0  0  0  0  0  0  0  0  0  0  0
   12.8711  -17.2835   23.6637 C   0  0  0  0  0  0  0  0  0  0  0  0
   11.4720  -17.3176   24.1797 C   0  0  2  0  0  0  0  0  0  0  0  0
   10.5000  -17.0649   23.1114 N   0  0  0  0  0  0  0  0  0  0  0  0
   11.3289  -16.2963   25.2510 C   0  0  0  0  0  0  0  0  0  0  0  0
   12.0821  -15.2979   25.3727 O   0  0  0  0  0  0  0  0  0  0  0  0
    7.4395  -13.2310   26.2132 C   0  0  0  0  0  0  0  0  0  0  0  0
    8.7952  -13.9277   26.2008 C   0  0  0  0  0  0  0  0  0  0  0  0
    9.0347  -14.6784   27.4869 C   0  0  2  0  0  0  0  0  0  0  0  0
    8.9568  -13.7299   28.6452 C   0  0  0  0  0  0  0  0  0  0  0  0
   10.2684  -15.4865   27.3915 C   0  0  2  0  0  0  0  0  0  0  0  0
   10.3091  -16.3680   26.2436 N   0  0  0  0  0  0  0  0  0  0  0  0
   10.4338  -16.3321   28.5857 C   0  0  0  0  0  0  0  0  0  0  0  0
   11.0026  -15.8362   29.7721 O   0  0  0  0  0  0  0  0  0  0  0  0
   10.0868  -17.5285   28.6282 O   0  0  0  0  0  0  0  0  0  0  0  0
  2  1  1  1
  2  3  1  0
  3  4  1  0
  4  5  2  0
  5  6  1  0
  7  6  1  0
  8  7  2  0
  9  8  1  0
 10 11  1  0
 10  9  2  0
 11 12  2  0
 12  4  1  0
 12  7  1  0
 13 14  2  0
 13  2  1  0
 15 16  1  0
 16 17  2  0
 18 16  1  0
 19 18  1  6
 19 20  1  0
 20 13  1  0
 21 28  1  0
 21 19  1  0
 22 21  2  0
 23 24  1  0
 24 25  1  0
 25 26  1  1
 25 27  1  0
 27 28  1  6
 27 29  1  0
 29 30  1  0
 31 29  2  0
M  END
$$$$
