WNI.pdb
     RDKit          3D

 31 32  0  0  1  0  0  0  0  0999 V2000
    6.5655  -18.0336   23.4500 N   0  0  0  0  0  0  0  0  0  0  0  0
    7.4906  -17.0143   23.8659 C   0  0  1  0  0  0  0  0  0  0  0  0
    7.3589  -16.7337   25.3282 C   0  0  0  0  0  0  0  0  0  0  0  0
    6.5039  -15.5249   25.4824 C   0  0  0  0  0  0  0  0  0  0  0  0
    5.2136  -15.4234   25.9691 C   0  0  0  0  0  0  0  0  0  0  0  0
    4.8198  -14.1353   25.9315 N   0  0  0  0  0  0  0  0  0  0  0  0
    5.7985  -13.3635   25.4366 C   0  0  0  0  0  0  0  0  0  0  0  0
    5.8506  -11.9995   25.2145 C   0  0  0  0  0  0  0  0  0  0  0  0
    7.0249  -11.4907   24.6825 C   0  0  0  0  0  0  0  0  0  0  0  0
    8.0868  -12.3303   24.3938 C   0  0  0  0  0  0  0  0  0  0  0  0
    8.0052  -13.6897   24.6267 C   0  0  0  0  0  0  0  0  0  0  0  0
    6.8526  -14.2100   25.1519 C   0  0  0  0  0  0  0  0  0  0  0  0
    8.8726  -17.3788   23.4572 C   0  0  0  0  0  0  0  0  0  0  0  0
    9.2106  -18.5867   23.3295 O   0  0  0  0  0  0  0  0  0  0  0  0
   10.7588  -15.0615   20.1611 N   0  0  0  0  0  0  0  0  0  0  0  0
   11.6108  -15.9711   20.8436 C   0  0  0  0  0  0  0  0  0  0  0  0
   12.0073  -16.9722   20.2006 O   0  0  0  0  0  0  0  0  0  0  0  0
   12.0435  -15.8008   22.2416 C   0  0  0  0  0  0  0  0  0  0  0  0
   11.3031  -16.7452   23.1275 C   0  0  2  0  0  0  0  0  0  0  0  0
    9.8762  -16.4141   23.1910 N   0  0  0  0  0  0  0  0  0  0  0  0
   11.8990  -16.6956   24.4890 C   0  0  0  0  0  0  0  0  0  0  0  0
   13.1211  -16.8671   24.7258 O   0  0  0  0  0  0  0  0  0  0  0  0
    9.3927  -14.1213   28.9958 C   0  0  0  0  0  0  0  0  0  0  0  0
    9.8228  -15.3111   28.1455 C   0  0  0  0  0  0  0  0  0  0  0  0
   11.2817  -15.2173   27.7743 C   0  0  2  0  0  0  0  0  0  0  0  0
   11.5579  -13.8816   27.1523 C   0  0  0  0  0  0  0  0  0  0  0  0
   11.6909  -16.3979   26.9850 C   0  0  2  0  0  0  0  0  0  0  0  0
   11.1198  -16.4457   25.6554 N   0  0  0  0  0  0  0  0  0  0  0  0
   11.2972  -17.6437   27.6642 C   0  0  0  0  0  0  0  0  0  0  0  0
   11.8176  -17.9991   28.9211 O   0  0  0  0  0  0  0  0  0  0  0  0
   10.4874  -18.4584   27.1803 O   0  0  0  0  0  0  0  0  0  0  0  0
  2  1  1  1
  2  3  1  0
  3  4  1  0
  4  5  2  0
  5  6  1  0
  7  6  1  0
  8  7  2  0
  9  8  1  0
 10 11  1  0
 10  9  2  0
 11 12  2  0
 12  4  1  0
 12  7  1  0
 13 14  2  0
 13  2  1  0
 15 16  1  0
 16 17  2  0
 18 16  1  0
 19 18  1  6
 19 20  1  0
 20 13  1  0
 21 28  1  0
 21 19  1  0
 22 21  2  0
 23 24  1  0
 24 25  1  0
 25 26  1  6
 25 27  1  0
 27 28  1  6
 27 29  1  0
 29 30  1  0
 31 29  2  0
M  END
$$$$
