WNI.pdb
     RDKit          3D

 31 32  0  0  1  0  0  0  0  0999 V2000
    6.4934  -18.0283   23.8939 N   0  0  0  0  0  0  0  0  0  0  0  0
    7.4882  -17.0237   24.1561 C   0  0  1  0  0  0  0  0  0  0  0  0
    7.4637  -16.6051   25.5909 C   0  0  0  0  0  0  0  0  0  0  0  0
    6.7166  -15.3203   25.6754 C   0  0  0  0  0  0  0  0  0  0  0  0
    5.4977  -15.0558   26.2722 C   0  0  0  0  0  0  0  0  0  0  0  0
    5.1924  -13.7533   26.1111 N   0  0  0  0  0  0  0  0  0  0  0  0
    6.1621  -13.1290   25.4267 C   0  0  0  0  0  0  0  0  0  0  0  0
    6.2840  -11.8100   25.0292 C   0  0  0  0  0  0  0  0  0  0  0  0
    7.4253  -11.4664   24.3220 C   0  0  0  0  0  0  0  0  0  0  0  0
    8.3883  -12.4190   24.0372 C   0  0  0  0  0  0  0  0  0  0  0  0
    8.2387  -13.7297   24.4477 C   0  0  0  0  0  0  0  0  0  0  0  0
    7.1174  -14.0872   25.1475 C   0  0  0  0  0  0  0  0  0  0  0  0
    8.8232  -17.4933   23.7012 C   0  0  0  0  0  0  0  0  0  0  0  0
    9.1278  -18.7159   23.7481 O   0  0  0  0  0  0  0  0  0  0  0  0
   11.3149  -17.4645   20.5946 N   0  0  0  0  0  0  0  0  0  0  0  0
   11.9169  -16.2701   21.0744 C   0  0  0  0  0  0  0  0  0  0  0  0
   12.3459  -15.4634   20.2153 O   0  0  0  0  0  0  0  0  0  0  0  0
   12.0598  -15.9379   22.5026 C   0  0  0  0  0  0  0  0  0  0  0  0
   11.2531  -16.8791   23.3323 C   0  0  2  0  0  0  0  0  0  0  0  0
    9.8168  -16.6171   23.1974 N   0  0  0  0  0  0  0  0  0  0  0  0
   11.6650  -16.7414   24.7545 C   0  0  0  0  0  0  0  0  0  0  0  0
   12.8612  -16.6925   25.1361 O   0  0  0  0  0  0  0  0  0  0  0  0
    8.4334  -13.7952   27.9592 C   0  0  0  0  0  0  0  0  0  0  0  0
    9.6519  -14.4141   27.2842 C   0  0  0  0  0  0  0  0  0  0  0  0
   10.0739  -15.6846   27.9790 C   0  0  2  0  0  0  0  0  0  0  0  0
   10.4272  -15.3850   29.4048 C   0  0  0  0  0  0  0  0  0  0  0  0
   11.1060  -16.3875   27.1885 C   0  0  2  0  0  0  0  0  0  0  0  0
   10.7210  -16.6523   25.8181 N   0  0  0  0  0  0  0  0  0  0  0  0
   11.4376  -17.6864   27.7978 C   0  0  0  0  0  0  0  0  0  0  0  0
   11.0097  -18.9009   27.2329 O   0  0  0  0  0  0  0  0  0  0  0  0
   12.1103  -17.7992   28.8411 O   0  0  0  0  0  0  0  0  0  0  0  0
  2  1  1  1
  2  3  1  0
  3  4  1  0
  4  5  2  0
  5  6  1  0
  7  6  1  0
  8  7  2  0
  9  8  1  0
 10 11  1  0
 10  9  2  0
 11 12  2  0
 12  4  1  0
 12  7  1  0
 13 14  2  0
 13  2  1  0
 15 16  1  0
 16 17  2  0
 18 16  1  0
 19 18  1  6
 19 20  1  0
 20 13  1  0
 21 28  1  0
 21 19  1  0
 22 21  2  0
 23 24  1  0
 24 25  1  0
 25 26  1  1
 25 27  1  0
 27 28  1  6
 27 29  1  0
 29 30  1  0
 31 29  2  0
M  END
$$$$
