WNI.pdb
     RDKit          3D

 31 32  0  0  1  0  0  0  0  0999 V2000
    9.5968  -16.7338   20.6647 N   0  0  0  0  0  0  0  0  0  0  0  0
    8.8732  -16.2444   21.8070 C   0  0  1  0  0  0  0  0  0  0  0  0
    7.4003  -16.2480   21.5516 C   0  0  0  0  0  0  0  0  0  0  0  0
    7.1524  -15.4522   20.3182 C   0  0  0  0  0  0  0  0  0  0  0  0
    6.6268  -15.8600   19.1060 C   0  0  0  0  0  0  0  0  0  0  0  0
    6.5777  -14.8105   18.2624 N   0  0  0  0  0  0  0  0  0  0  0  0
    7.0515  -13.7085   18.8620 C   0  0  0  0  0  0  0  0  0  0  0  0
    7.1936  -12.4144   18.3955 C   0  0  0  0  0  0  0  0  0  0  0  0
    7.7251  -11.4819   19.2722 C   0  0  0  0  0  0  0  0  0  0  0  0
    8.0909  -11.8523   20.5547 C   0  0  0  0  0  0  0  0  0  0  0  0
    7.9369  -13.1536   20.9927 C   0  0  0  0  0  0  0  0  0  0  0  0
    7.4134  -14.0884   20.1401 C   0  0  0  0  0  0  0  0  0  0  0  0
    9.2628  -17.0035   23.0242 C   0  0  0  0  0  0  0  0  0  0  0  0
    8.3926  -17.3853   23.8529 O   0  0  0  0  0  0  0  0  0  0  0  0
   13.1468  -19.6225   22.4136 N   0  0  0  0  0  0  0  0  0  0  0  0
   12.3042  -19.5806   23.5570 C   0  0  0  0  0  0  0  0  0  0  0  0
   11.4799  -20.5160   23.6919 O   0  0  0  0  0  0  0  0  0  0  0  0
   12.3493  -18.5141   24.5725 C   0  0  0  0  0  0  0  0  0  0  0  0
   11.0328  -17.8164   24.6439 C   0  0  2  0  0  0  0  0  0  0  0  0
   10.6066  -17.3390   23.3248 N   0  0  0  0  0  0  0  0  0  0  0  0
   11.1445  -16.6732   25.5882 C   0  0  0  0  0  0  0  0  0  0  0  0
   12.0915  -15.8472   25.5800 O   0  0  0  0  0  0  0  0  0  0  0  0
    7.3028  -13.3330   26.4075 C   0  0  0  0  0  0  0  0  0  0  0  0
    8.6586  -14.0250   26.3283 C   0  0  0  0  0  0  0  0  0  0  0  0
    9.1143  -14.4895   27.6890 C   0  0  2  0  0  0  0  0  0  0  0  0
    9.2444  -13.3105   28.6058 C   0  0  0  0  0  0  0  0  0  0  0  0
   10.3083  -15.3520   27.5675 C   0  0  2  0  0  0  0  0  0  0  0  0
   10.1706  -16.4169   26.5963 N   0  0  0  0  0  0  0  0  0  0  0  0
   10.6279  -15.9880   28.8566 C   0  0  0  0  0  0  0  0  0  0  0  0
   10.4491  -17.3667   29.0673 O   0  0  0  0  0  0  0  0  0  0  0  0
   11.0726  -15.3590   29.8364 O   0  0  0  0  0  0  0  0  0  0  0  0
  2  1  1  6
  2  3  1  0
  3  4  1  0
  4  5  2  0
  5  6  1  0
  7  6  1  0
  8  7  2  0
  9  8  1  0
 10 11  1  0
 10  9  2  0
 11 12  2  0
 12  4  1  0
 12  7  1  0
 13 14  2  0
 13  2  1  0
 15 16  1  0
 16 17  2  0
 18 16  1  0
 19 18  1  6
 19 20  1  0
 20 13  1  0
 21 28  1  0
 21 19  1  0
 22 21  2  0
 23 24  1  0
 24 25  1  0
 25 26  1  1
 25 27  1  0
 27 28  1  6
 27 29  1  0
 29 30  1  0
 31 29  2  0
M  END
$$$$
