WNI.pdb
     RDKit          3D

 31 32  0  0  1  0  0  0  0  0999 V2000
    7.7289  -19.0274   22.3251 N   0  0  0  0  0  0  0  0  0  0  0  0
    8.2673  -17.7239   22.6060 C   0  0  1  0  0  0  0  0  0  0  0  0
    7.2784  -16.8825   23.3466 C   0  0  0  0  0  0  0  0  0  0  0  0
    6.6520  -15.9522   22.3678 C   0  0  0  0  0  0  0  0  0  0  0  0
    5.4307  -16.0506   21.7268 C   0  0  0  0  0  0  0  0  0  0  0  0
    5.2600  -14.9845   20.9206 N   0  0  0  0  0  0  0  0  0  0  0  0
    6.3226  -14.1698   20.9945 C   0  0  0  0  0  0  0  0  0  0  0  0
    6.5916  -12.9730   20.3559 C   0  0  0  0  0  0  0  0  0  0  0  0
    7.7995  -12.3593   20.6473 C   0  0  0  0  0  0  0  0  0  0  0  0
    8.6833  -12.9376   21.5421 C   0  0  0  0  0  0  0  0  0  0  0  0
    8.3868  -14.1346   22.1649 C   0  0  0  0  0  0  0  0  0  0  0  0
    7.1978  -14.7552   21.8890 C   0  0  0  0  0  0  0  0  0  0  0  0
    9.5747  -17.8485   23.3024 C   0  0  0  0  0  0  0  0  0  0  0  0
    9.8164  -18.8347   24.0499 O   0  0  0  0  0  0  0  0  0  0  0  0
   13.4509  -18.2084   21.7463 N   0  0  0  0  0  0  0  0  0  0  0  0
   13.3298  -16.8064   21.9436 C   0  0  0  0  0  0  0  0  0  0  0  0
   13.5637  -16.0697   20.9561 O   0  0  0  0  0  0  0  0  0  0  0  0
   12.9504  -16.1866   23.2253 C   0  0  0  0  0  0  0  0  0  0  0  0
   11.8851  -16.9916   23.8900 C   0  0  2  0  0  0  0  0  0  0  0  0
   10.6097  -16.8888   23.1741 N   0  0  0  0  0  0  0  0  0  0  0  0
   11.7240  -16.5149   25.2893 C   0  0  0  0  0  0  0  0  0  0  0  0
   12.6520  -16.5012   26.1363 O   0  0  0  0  0  0  0  0  0  0  0  0
    8.2002  -12.5086   26.2092 C   0  0  0  0  0  0  0  0  0  0  0  0
    9.3869  -13.4651   26.1917 C   0  0  0  0  0  0  0  0  0  0  0  0
    9.2694  -14.5003   27.2823 C   0  0  2  0  0  0  0  0  0  0  0  0
    9.1864  -13.8196   28.6154 C   0  0  0  0  0  0  0  0  0  0  0  0
   10.3270  -15.5228   27.1404 C   0  0  2  0  0  0  0  0  0  0  0  0
   10.4833  -16.0268   25.7921 N   0  0  0  0  0  0  0  0  0  0  0  0
   10.0506  -16.6848   28.0016 C   0  0  0  0  0  0  0  0  0  0  0  0
   10.4036  -16.6993   29.3626 O   0  0  0  0  0  0  0  0  0  0  0  0
    9.4930  -17.7213   27.5913 O   0  0  0  0  0  0  0  0  0  0  0  0
  2  1  1  1
  2  3  1  0
  3  4  1  0
  4  5  2  0
  5  6  1  0
  7  6  1  0
  8  7  2  0
  9  8  1  0
 10 11  1  0
 10  9  2  0
 11 12  2  0
 12  4  1  0
 12  7  1  0
 13 14  2  0
 13  2  1  0
 15 16  1  0
 16 17  2  0
 18 16  1  0
 19 18  1  6
 19 20  1  0
 20 13  1  0
 21 28  1  0
 21 19  1  0
 22 21  2  0
 23 24  1  0
 24 25  1  0
 25 26  1  1
 25 27  1  0
 27 28  1  6
 27 29  1  0
 29 30  1  0
 31 29  2  0
M  END
$$$$
