WNI.pdb
     RDKit          3D

 31 32  0  0  1  0  0  0  0  0999 V2000
    9.7187  -16.0210   21.3145 N   0  0  0  0  0  0  0  0  0  0  0  0
    8.7061  -15.9622   22.3337 C   0  0  1  0  0  0  0  0  0  0  0  0
    7.3407  -16.1091   21.7434 C   0  0  0  0  0  0  0  0  0  0  0  0
    7.3449  -15.4318   20.4178 C   0  0  0  0  0  0  0  0  0  0  0  0
    7.1450  -15.9710   19.1603 C   0  0  0  0  0  0  0  0  0  0  0  0
    7.2352  -14.9960   18.2345 N   0  0  0  0  0  0  0  0  0  0  0  0
    7.4890  -13.8177   18.8224 C   0  0  0  0  0  0  0  0  0  0  0  0
    7.6615  -12.5559   18.2834 C   0  0  0  0  0  0  0  0  0  0  0  0
    7.9157  -11.5203   19.1686 C   0  0  0  0  0  0  0  0  0  0  0  0
    7.9894  -11.7619   20.5295 C   0  0  0  0  0  0  0  0  0  0  0  0
    7.8126  -13.0340   21.0389 C   0  0  0  0  0  0  0  0  0  0  0  0
    7.5605  -14.0693   20.1790 C   0  0  0  0  0  0  0  0  0  0  0  0
    8.9966  -16.9535   23.4026 C   0  0  0  0  0  0  0  0  0  0  0  0
    8.1295  -17.2370   24.2731 O   0  0  0  0  0  0  0  0  0  0  0  0
   11.3664  -21.0358   26.2056 N   0  0  0  0  0  0  0  0  0  0  0  0
   12.1598  -19.9741   25.6933 C   0  0  0  0  0  0  0  0  0  0  0  0
   13.2002  -19.6818   26.3297 O   0  0  0  0  0  0  0  0  0  0  0  0
   11.8282  -19.2140   24.4755 C   0  0  0  0  0  0  0  0  0  0  0  0
   10.6745  -18.3049   24.7352 C   0  0  2  0  0  0  0  0  0  0  0  0
   10.2384  -17.6282   23.5098 N   0  0  0  0  0  0  0  0  0  0  0  0
   11.0731  -17.3012   25.7575 C   0  0  0  0  0  0  0  0  0  0  0  0
   12.0818  -16.5590   25.6550 O   0  0  0  0  0  0  0  0  0  0  0  0
    8.0305  -13.5076   27.0613 C   0  0  0  0  0  0  0  0  0  0  0  0
    9.2323  -14.4254   26.8694 C   0  0  0  0  0  0  0  0  0  0  0  0
    9.6321  -15.0793   28.1685 C   0  0  2  0  0  0  0  0  0  0  0  0
    9.9450  -14.0251   29.1873 C   0  0  0  0  0  0  0  0  0  0  0  0
   10.6853  -16.0897   27.9356 C   0  0  2  0  0  0  0  0  0  0  0  0
   10.3314  -17.0961   26.9567 N   0  0  0  0  0  0  0  0  0  0  0  0
   11.0118  -16.8023   29.1822 C   0  0  0  0  0  0  0  0  0  0  0  0
   11.9320  -16.2863   30.1117 O   0  0  0  0  0  0  0  0  0  0  0  0
   10.5034  -17.8962   29.4963 O   0  0  0  0  0  0  0  0  0  0  0  0
  2  1  1  6
  2  3  1  0
  3  4  1  0
  4  5  2  0
  5  6  1  0
  7  6  1  0
  8  7  2  0
  9  8  1  0
 10 11  1  0
 10  9  2  0
 11 12  2  0
 12  4  1  0
 12  7  1  0
 13 14  2  0
 13  2  1  0
 15 16  1  0
 16 17  2  0
 18 16  1  0
 19 18  1  6
 19 20  1  0
 20 13  1  0
 21 28  1  0
 21 19  1  0
 22 21  2  0
 23 24  1  0
 24 25  1  0
 25 26  1  1
 25 27  1  0
 27 28  1  6
 27 29  1  0
 29 30  1  0
 31 29  2  0
M  END
$$$$
