NCS.pdb
     RDKit          3D

 21 20  0  0  1  0  0  0  0  0999 V2000
   18.5389  -14.8864  -16.7318 N   0  0  0  0  0  0  0  0  0  0  0  0
   18.3534  -13.5293  -17.1340 C   0  0  0  0  0  0  0  0  0  0  0  0
   18.1371  -13.3170  -18.3388 O   0  0  0  0  0  0  0  0  0  0  0  0
   18.4214  -12.4456  -16.1385 C   0  0  0  0  0  0  0  0  0  0  0  0
   18.8344  -11.1799  -16.8464 C   0  0  2  0  0  0  0  0  0  0  0  0
   20.1815  -11.3603  -17.3282 N   0  0  0  0  0  0  0  0  0  0  0  0
   18.7767  -10.0663  -15.8571 C   0  0  0  0  0  0  0  0  0  0  0  0
   17.7807   -9.8937  -15.1148 O   0  0  0  0  0  0  0  0  0  0  0  0
   19.8645   -9.1842  -15.7496 N   0  0  0  0  0  0  0  0  0  0  0  0
   19.8617   -8.1236  -14.7906 C   0  0  1  0  0  0  0  0  0  0  0  0
   21.2505   -7.6944  -14.3762 C   0  0  0  0  0  0  0  0  0  0  0  0
   22.0522   -8.9193  -13.3196 S   0  0  0  0  0  0  0  0  0  0  0  0
   19.2095   -6.9407  -15.4097 C   0  0  0  0  0  0  0  0  0  0  0  0
   19.4370   -6.6437  -16.5982 O   0  0  0  0  0  0  0  0  0  0  0  0
   15.5923   -3.9576  -15.5837 O   0  0  0  0  0  0  0  0  0  0  0  0
   16.2184   -4.9910  -14.9117 C   0  0  0  0  0  0  0  0  0  0  0  0
   17.6778   -4.9892  -15.3684 C   0  0  2  0  0  0  0  0  0  0  0  0
   18.3117   -6.1040  -14.6948 N   0  0  0  0  0  0  0  0  0  0  0  0
   18.2507   -3.6983  -14.9886 C   0  0  0  0  0  0  0  0  0  0  0  0
   18.8286   -3.5344  -13.8846 O   0  0  0  0  0  0  0  0  0  0  0  0
   18.1667   -2.6156  -15.8501 O   0  0  0  0  0  0  0  0  0  0  0  0
  2  1  1  0
  2  4  1  0
  3  2  2  0
  5  6  1  1
  5  7  1  0
  5  4  1  0
  7  9  1  0
  7  8  2  0
  9 10  1  0
 10 13  1  0
 10 11  1  6
 12 11  1  0
 13 18  1  0
 13 14  2  0
 15 16  1  0
 17 16  1  1
 17 19  1  0
 18 17  1  0
 19 21  1  0
 20 19  2  0
M  END
$$$$
