NCS.pdb
     RDKit          3D

 21 20  0  0  1  0  0  0  0  0999 V2000
   18.1377  -11.2651  -12.5356 N   0  0  0  0  0  0  0  0  0  0  0  0
   18.0400   -9.9942  -13.1785 C   0  0  0  0  0  0  0  0  0  0  0  0
   18.7882   -9.7878  -14.1485 O   0  0  0  0  0  0  0  0  0  0  0  0
   17.0816   -8.9881  -12.6892 C   0  0  0  0  0  0  0  0  0  0  0  0
   16.4543   -9.5111  -11.4217 C   0  0  2  0  0  0  0  0  0  0  0  0
   15.6253  -10.6385  -11.7692 N   0  0  0  0  0  0  0  0  0  0  0  0
   15.6302   -8.4153  -10.8368 C   0  0  0  0  0  0  0  0  0  0  0  0
   14.5636   -8.0326  -11.3742 O   0  0  0  0  0  0  0  0  0  0  0  0
   16.0553   -7.7916   -9.6522 N   0  0  0  0  0  0  0  0  0  0  0  0
   15.2121   -6.8648   -8.9633 C   0  0  1  0  0  0  0  0  0  0  0  0
   14.9798   -7.2357   -7.5165 C   0  0  0  0  0  0  0  0  0  0  0  0
   13.9129   -8.6827   -7.3500 S   0  0  0  0  0  0  0  0  0  0  0  0
   15.8807   -5.5378   -8.9682 C   0  0  0  0  0  0  0  0  0  0  0  0
   17.0400   -5.4129   -8.5291 O   0  0  0  0  0  0  0  0  0  0  0  0
   14.6060   -2.9700  -11.3964 O   0  0  0  0  0  0  0  0  0  0  0  0
   15.8673   -2.6171  -10.9535 C   0  0  0  0  0  0  0  0  0  0  0  0
   15.9820   -3.1195   -9.5137 C   0  0  2  0  0  0  0  0  0  0  0  0
   15.2473   -4.3669   -9.4631 N   0  0  0  0  0  0  0  0  0  0  0  0
   15.4097   -2.0899   -8.6470 C   0  0  0  0  0  0  0  0  0  0  0  0
   14.3248   -2.2705   -8.0388 O   0  0  0  0  0  0  0  0  0  0  0  0
   16.0612   -0.8781   -8.4769 O   0  0  0  0  0  0  0  0  0  0  0  0
  2  1  1  0
  2  4  1  0
  3  2  2  0
  5  6  1  6
  5  7  1  0
  5  4  1  0
  7  9  1  0
  7  8  2  0
  9 10  1  0
 10 13  1  0
 10 11  1  1
 12 11  1  0
 13 18  1  0
 13 14  2  0
 15 16  1  0
 17 16  1  6
 17 19  1  0
 18 17  1  0
 19 21  1  0
 20 19  2  0
M  END
$$$$
