NCS.pdb
     RDKit          3D

 21 20  0  0  1  0  0  0  0  0999 V2000
   12.8161  -11.6994  -11.7044 N   0  0  0  0  0  0  0  0  0  0  0  0
   12.6962  -11.3153  -10.3348 C   0  0  0  0  0  0  0  0  0  0  0  0
   11.6978  -11.7189   -9.7155 O   0  0  0  0  0  0  0  0  0  0  0  0
   13.7302  -10.4738   -9.7079 C   0  0  0  0  0  0  0  0  0  0  0  0
   14.8906  -10.3612  -10.6642 C   0  0  2  0  0  0  0  0  0  0  0  0
   15.5555  -11.6399  -10.7076 N   0  0  0  0  0  0  0  0  0  0  0  0
   15.8096   -9.3103  -10.1419 C   0  0  0  0  0  0  0  0  0  0  0  0
   16.6010   -9.5363   -9.1956 O   0  0  0  0  0  0  0  0  0  0  0  0
   15.7925   -8.0310  -10.7217 N   0  0  0  0  0  0  0  0  0  0  0  0
   16.7335   -7.0296  -10.3263 C   0  0  1  0  0  0  0  0  0  0  0  0
   17.8026   -6.7768  -11.3645 C   0  0  0  0  0  0  0  0  0  0  0  0
   19.0201   -8.1087  -11.4229 S   0  0  0  0  0  0  0  0  0  0  0  0
   15.9993   -5.7512  -10.1405 C   0  0  0  0  0  0  0  0  0  0  0  0
   15.2760   -5.3003  -11.0492 O   0  0  0  0  0  0  0  0  0  0  0  0
   14.5503   -2.2391   -7.2490 O   0  0  0  0  0  0  0  0  0  0  0  0
   15.2445   -3.4302   -7.3531 C   0  0  0  0  0  0  0  0  0  0  0  0
   15.3874   -3.7243   -8.8470 C   0  0  2  0  0  0  0  0  0  0  0  0
   16.0816   -4.9921   -8.9430 N   0  0  0  0  0  0  0  0  0  0  0  0
   16.1421   -2.6195   -9.4374 C   0  0  0  0  0  0  0  0  0  0  0  0
   17.3983   -2.6272   -9.4754 O   0  0  0  0  0  0  0  0  0  0  0  0
   15.4781   -1.5274   -9.9741 O   0  0  0  0  0  0  0  0  0  0  0  0
  2  1  1  0
  2  4  1  0
  3  2  2  0
  5  6  1  1
  5  7  1  0
  5  4  1  0
  7  9  1  0
  7  8  2  0
  9 10  1  0
 10 13  1  0
 10 11  1  6
 12 11  1  0
 13 18  1  0
 13 14  2  0
 15 16  1  0
 17 16  1  1
 17 19  1  0
 18 17  1  0
 19 21  1  0
 20 19  2  0
M  END
$$$$
