NCS.pdb
     RDKit          3D

 21 20  0  0  1  0  0  0  0  0999 V2000
   13.1769   -9.9236  -10.3296 N   0  0  0  0  0  0  0  0  0  0  0  0
   14.2444   -9.7711  -11.2650 C   0  0  0  0  0  0  0  0  0  0  0  0
   14.1696  -10.4156  -12.3244 O   0  0  0  0  0  0  0  0  0  0  0  0
   15.3759   -8.8788  -10.9591 C   0  0  0  0  0  0  0  0  0  0  0  0
   16.6507   -9.5812  -11.3528 C   0  0  2  0  0  0  0  0  0  0  0  0
   16.9110  -10.6089  -10.3755 N   0  0  0  0  0  0  0  0  0  0  0  0
   17.7455   -8.5695  -11.3534 C   0  0  0  0  0  0  0  0  0  0  0  0
   18.1938   -8.0812  -10.2888 O   0  0  0  0  0  0  0  0  0  0  0  0
   18.2930   -8.1486  -12.5766 N   0  0  0  0  0  0  0  0  0  0  0  0
   19.3754   -7.2152  -12.6176 C   0  0  1  0  0  0  0  0  0  0  0  0
   20.6977   -7.8550  -12.9739 C   0  0  0  0  0  0  0  0  0  0  0  0
   22.0215   -6.6369  -13.1265 S   0  0  0  0  0  0  0  0  0  0  0  0
   19.0818   -6.2112  -13.6730 C   0  0  0  0  0  0  0  0  0  0  0  0
   18.7473   -6.5759  -14.8164 O   0  0  0  0  0  0  0  0  0  0  0  0
   17.3907   -2.0947  -14.9410 O   0  0  0  0  0  0  0  0  0  0  0  0
   17.7452   -2.9655  -13.9274 C   0  0  0  0  0  0  0  0  0  0  0  0
   18.8247   -3.8857  -14.4987 C   0  0  2  0  0  0  0  0  0  0  0  0
   19.1653   -4.8129  -13.4391 N   0  0  0  0  0  0  0  0  0  0  0  0
   19.9508   -3.0410  -14.8955 C   0  0  0  0  0  0  0  0  0  0  0  0
   20.8713   -2.7511  -14.0904 O   0  0  0  0  0  0  0  0  0  0  0  0
   20.0261   -2.5366  -16.1845 O   0  0  0  0  0  0  0  0  0  0  0  0
  2  1  1  0
  2  4  1  0
  3  2  2  0
  5  6  1  1
  5  7  1  0
  5  4  1  0
  7  9  1  0
  7  8  2  0
  9 10  1  0
 10 13  1  0
 10 11  1  6
 12 11  1  0
 13 18  1  0
 13 14  2  0
 15 16  1  0
 17 16  1  1
 17 19  1  0
 18 17  1  0
 19 21  1  0
 20 19  2  0
M  END
$$$$
