NCS.pdb
     RDKit          3D

 21 20  0  0  1  0  0  0  0  0999 V2000
   19.3808  -14.3191  -15.7339 N   0  0  0  0  0  0  0  0  0  0  0  0
   18.2859  -13.4279  -15.5224 C   0  0  0  0  0  0  0  0  0  0  0  0
   17.3368  -13.8443  -14.8374 O   0  0  0  0  0  0  0  0  0  0  0  0
   18.3083  -12.0751  -16.1053 C   0  0  0  0  0  0  0  0  0  0  0  0
   17.0353  -11.3700  -15.7102 C   0  0  2  0  0  0  0  0  0  0  0  0
   15.9819  -11.8372  -16.5768 N   0  0  0  0  0  0  0  0  0  0  0  0
   17.2518   -9.9062  -15.8909 C   0  0  0  0  0  0  0  0  0  0  0  0
   17.1563   -9.3586  -17.0150 O   0  0  0  0  0  0  0  0  0  0  0  0
   17.5714   -9.1149  -14.7752 N   0  0  0  0  0  0  0  0  0  0  0  0
   17.8186   -7.7132  -14.9120 C   0  0  1  0  0  0  0  0  0  0  0  0
   16.7630   -6.8571  -14.2505 C   0  0  0  0  0  0  0  0  0  0  0  0
   15.3291   -7.8255  -13.7349 S   0  0  0  0  0  0  0  0  0  0  0  0
   19.1090   -7.4028  -14.2440 C   0  0  0  0  0  0  0  0  0  0  0  0
   19.4526   -8.0180  -13.2165 O   0  0  0  0  0  0  0  0  0  0  0  0
   23.5421   -6.7127  -14.3389 O   0  0  0  0  0  0  0  0  0  0  0  0
   22.3246   -6.8604  -14.9772 C   0  0  0  0  0  0  0  0  0  0  0  0
   21.2761   -6.2062  -14.0765 C   0  0  2  0  0  0  0  0  0  0  0  0
   19.9999   -6.4097  -14.7310 N   0  0  0  0  0  0  0  0  0  0  0  0
   21.6300   -4.7925  -13.9530 C   0  0  0  0  0  0  0  0  0  0  0  0
   22.4137   -4.3864  -13.0584 O   0  0  0  0  0  0  0  0  0  0  0  0
   21.1010   -3.8602  -14.8320 O   0  0  0  0  0  0  0  0  0  0  0  0
  2  1  1  0
  2  4  1  0
  3  2  2  0
  5  6  1  6
  5  7  1  0
  5  4  1  0
  7  9  1  0
  7  8  2  0
  9 10  1  0
 10 13  1  0
 10 11  1  1
 12 11  1  0
 13 18  1  0
 13 14  2  0
 15 16  1  0
 17 16  1  6
 17 19  1  0
 18 17  1  0
 19 21  1  0
 20 19  2  0
M  END
$$$$
