NCS.pdb
     RDKit          3D

 21 20  0  0  1  0  0  0  0  0999 V2000
   17.8001  -14.1487  -16.7351 N   0  0  0  0  0  0  0  0  0  0  0  0
   17.6469  -12.7336  -16.8440 C   0  0  0  0  0  0  0  0  0  0  0  0
   16.9951  -12.3042  -17.8104 O   0  0  0  0  0  0  0  0  0  0  0  0
   18.2487  -11.8434  -15.8362 C   0  0  0  0  0  0  0  0  0  0  0  0
   18.7861  -10.6250  -16.5436 C   0  0  2  0  0  0  0  0  0  0  0  0
   19.7387  -11.0692  -17.5307 N   0  0  0  0  0  0  0  0  0  0  0  0
   19.4508   -9.7640  -15.5243 C   0  0  0  0  0  0  0  0  0  0  0  0
   18.8684   -9.4227  -14.4674 O   0  0  0  0  0  0  0  0  0  0  0  0
   20.7645   -9.3206  -15.7492 N   0  0  0  0  0  0  0  0  0  0  0  0
   21.4492   -8.5223  -14.7803 C   0  0  1  0  0  0  0  0  0  0  0  0
   22.9216   -8.8477  -14.6768 C   0  0  0  0  0  0  0  0  0  0  0  0
   23.2054  -10.5764  -14.2398 S   0  0  0  0  0  0  0  0  0  0  0  0
   21.3484   -7.0997  -15.1972 C   0  0  0  0  0  0  0  0  0  0  0  0
   21.5210   -6.7765  -16.3881 O   0  0  0  0  0  0  0  0  0  0  0  0
   18.7192   -4.7927  -14.9925 O   0  0  0  0  0  0  0  0  0  0  0  0
   19.6942   -4.1028  -14.2961 C   0  0  0  0  0  0  0  0  0  0  0  0
   21.0393   -4.6811  -14.7376 C   0  0  2  0  0  0  0  0  0  0  0  0
   21.0561   -6.0555  -14.2800 N   0  0  0  0  0  0  0  0  0  0  0  0
   22.0861   -3.8665  -14.1217 C   0  0  0  0  0  0  0  0  0  0  0  0
   22.7867   -4.3026  -13.1737 O   0  0  0  0  0  0  0  0  0  0  0  0
   22.3298   -2.5802  -14.5773 O   0  0  0  0  0  0  0  0  0  0  0  0
  2  1  1  0
  2  4  1  0
  3  2  2  0
  5  6  1  6
  5  7  1  0
  5  4  1  0
  7  9  1  0
  7  8  2  0
  9 10  1  0
 10 13  1  0
 10 11  1  6
 12 11  1  0
 13 18  1  0
 13 14  2  0
 15 16  1  0
 17 16  1  1
 17 19  1  0
 18 17  1  0
 19 21  1  0
 20 19  2  0
M  END
$$$$
