NCS.pdb
     RDKit          3D

 21 20  0  0  1  0  0  0  0  0999 V2000
   18.8057  -11.7809  -20.2132 N   0  0  0  0  0  0  0  0  0  0  0  0
   18.3015  -12.0571  -18.9066 C   0  0  0  0  0  0  0  0  0  0  0  0
   17.2243  -12.6712  -18.8300 O   0  0  0  0  0  0  0  0  0  0  0  0
   19.0500  -11.6193  -17.7157 C   0  0  0  0  0  0  0  0  0  0  0  0
   20.3438  -10.9955  -18.1745 C   0  0  2  0  0  0  0  0  0  0  0  0
   21.2334  -12.0591  -18.5701 N   0  0  0  0  0  0  0  0  0  0  0  0
   20.9143  -10.2354  -17.0261 C   0  0  0  0  0  0  0  0  0  0  0  0
   20.2618  -10.0429  -15.9725 O   0  0  0  0  0  0  0  0  0  0  0  0
   22.2170   -9.7190  -17.1217 N   0  0  0  0  0  0  0  0  0  0  0  0
   22.8078   -9.0025  -16.0344 C   0  0  1  0  0  0  0  0  0  0  0  0
   24.3132   -9.1298  -15.9879 C   0  0  0  0  0  0  0  0  0  0  0  0
   24.8430  -10.5775  -15.0480 S   0  0  0  0  0  0  0  0  0  0  0  0
   22.5004   -7.5593  -16.2088 C   0  0  0  0  0  0  0  0  0  0  0  0
   22.6613   -7.0083  -17.3147 O   0  0  0  0  0  0  0  0  0  0  0  0
   19.7238   -5.4867  -14.1695 O   0  0  0  0  0  0  0  0  0  0  0  0
   20.1873   -5.2571  -15.4518 C   0  0  0  0  0  0  0  0  0  0  0  0
   21.7122   -5.3539  -15.3897 C   0  0  2  0  0  0  0  0  0  0  0  0
   22.0174   -6.7490  -15.1472 N   0  0  0  0  0  0  0  0  0  0  0  0
   22.1597   -4.4798  -14.3059 C   0  0  0  0  0  0  0  0  0  0  0  0
   22.1279   -3.2281  -14.4147 O   0  0  0  0  0  0  0  0  0  0  0  0
   22.6341   -5.0216  -13.1215 O   0  0  0  0  0  0  0  0  0  0  0  0
  2  1  1  0
  2  4  1  0
  3  2  2  0
  5  6  1  1
  5  7  1  0
  5  4  1  0
  7  9  1  0
  7  8  2  0
  9 10  1  0
 10 13  1  0
 10 11  1  6
 12 11  1  0
 13 18  1  0
 13 14  2  0
 15 16  1  0
 17 16  1  1
 17 19  1  0
 18 17  1  0
 19 21  1  0
 20 19  2  0
M  END
$$$$
