NCS.pdb
     RDKit          3D

 21 20  0  0  1  0  0  0  0  0999 V2000
   16.7125  -12.9555  -16.8652 N   0  0  0  0  0  0  0  0  0  0  0  0
   16.7605  -12.2602  -18.1110 C   0  0  0  0  0  0  0  0  0  0  0  0
   16.0339  -12.6813  -19.0264 O   0  0  0  0  0  0  0  0  0  0  0  0
   17.6454  -11.0940  -18.2751 C   0  0  0  0  0  0  0  0  0  0  0  0
   18.3935  -10.8837  -16.9829 C   0  0  2  0  0  0  0  0  0  0  0  0
   17.6852  -11.5850  -15.9409 N   0  0  0  0  0  0  0  0  0  0  0  0
   18.4185   -9.4193  -16.7053 C   0  0  0  0  0  0  0  0  0  0  0  0
   18.9009   -8.6005  -17.5235 O   0  0  0  0  0  0  0  0  0  0  0  0
   17.8888   -8.9389  -15.4963 N   0  0  0  0  0  0  0  0  0  0  0  0
   17.8620   -7.5387  -15.2079 C   0  0  1  0  0  0  0  0  0  0  0  0
   16.6654   -7.1256  -14.3820 C   0  0  0  0  0  0  0  0  0  0  0  0
   16.7634   -5.3995  -13.8617 S   0  0  0  0  0  0  0  0  0  0  0  0
   19.0725   -7.2061  -14.4129 C   0  0  0  0  0  0  0  0  0  0  0  0
   19.5010   -7.9992  -13.5527 O   0  0  0  0  0  0  0  0  0  0  0  0
   23.3271   -6.4083  -14.2695 O   0  0  0  0  0  0  0  0  0  0  0  0
   22.0744   -6.6220  -14.8141 C   0  0  0  0  0  0  0  0  0  0  0  0
   21.0850   -5.8272  -13.9609 C   0  0  2  0  0  0  0  0  0  0  0  0
   19.7895   -5.9927  -14.5876 N   0  0  0  0  0  0  0  0  0  0  0  0
   21.5367   -4.4362  -13.9535 C   0  0  0  0  0  0  0  0  0  0  0  0
   21.1513   -3.6148  -14.8231 O   0  0  0  0  0  0  0  0  0  0  0  0
   22.4105   -3.9902  -12.9741 O   0  0  0  0  0  0  0  0  0  0  0  0
  2  1  1  0
  2  4  1  0
  3  2  2  0
  5  6  1  1
  5  7  1  0
  5  4  1  0
  7  9  1  0
  7  8  2  0
  9 10  1  0
 10 13  1  0
 10 11  1  1
 12 11  1  0
 13 18  1  0
 13 14  2  0
 15 16  1  0
 17 16  1  6
 17 19  1  0
 18 17  1  0
 19 21  1  0
 20 19  2  0
M  END
$$$$
