MPV.pdb
     RDKit          3D

 23 23  0  0  1  0  0  0  0  0999 V2000
   19.4709  -16.5186  -18.3688 C   0  0  0  0  0  0  0  0  0  0  0  0
   21.1486  -16.0407  -18.8720 S   0  0  0  0  0  0  0  0  0  0  0  0
   22.2738  -17.4483  -18.8368 C   0  0  0  0  0  0  0  0  0  0  0  0
   22.4786  -17.9797  -17.4383 C   0  0  0  0  0  0  0  0  0  0  0  0
   22.2344  -19.4941  -17.4992 C   0  0  2  0  0  0  0  0  0  0  0  0
   20.9046  -19.6815  -17.8631 N   0  0  0  0  0  0  0  0  0  0  0  0
   22.6908  -20.0893  -16.2282 C   0  0  0  0  0  0  0  0  0  0  0  0
   21.8617  -19.9587  -15.2615 O   0  0  0  0  0  0  0  0  0  0  0  0
   23.9144  -20.7582  -16.0135 N   0  0  0  0  0  0  0  0  0  0  0  0
   25.0563  -20.9507  -16.8729 C   0  0  0  0  0  0  0  0  0  0  0  0
   25.4711  -22.3750  -16.5604 C   0  0  0  0  0  0  0  0  0  0  0  0
   25.0399  -22.6590  -15.1618 C   0  0  0  0  0  0  0  0  0  0  0  0
   24.2821  -21.4325  -14.7718 C   0  0  1  0  0  0  0  0  0  0  0  0
   25.1399  -20.6074  -13.9131 C   0  0  0  0  0  0  0  0  0  0  0  0
   26.1561  -20.0686  -14.3953 O   0  0  0  0  0  0  0  0  0  0  0  0
   26.8694  -20.4593   -9.3431 C   0  0  0  0  0  0  0  0  0  0  0  0
   26.0030  -19.9212  -10.4541 C   0  0  2  0  0  0  0  0  0  0  0  0
   24.6759  -19.4543   -9.8646 C   0  0  0  0  0  0  0  0  0  0  0  0
   25.6994  -20.9450  -11.5053 C   0  0  2  0  0  0  0  0  0  0  0  0
   24.8474  -20.4042  -12.5486 N   0  0  0  0  0  0  0  0  0  0  0  0
   25.0331  -22.0972  -10.8241 C   0  0  0  0  0  0  0  0  0  0  0  0
   23.8210  -22.3310  -10.9128 O   0  0  0  0  0  0  0  0  0  0  0  0
   25.8265  -22.9412  -10.0555 O   0  0  0  0  0  0  0  0  0  0  0  0
  1  2  1  0
  3  4  1  0
  3  2  1  0
  5  4  1  0
  5  7  1  0
  5  6  1  1
  7  9  1  0
  8  7  2  0
  9 10  1  0
  9 13  1  0
 10 11  1  0
 12 11  1  0
 13 12  1  0
 14 15  2  0
 13 14  1  1
 17 16  1  1
 18 17  1  0
 19 17  1  0
 19 20  1  6
 20 14  1  0
 21 19  1  0
 22 21  2  0
 23 21  1  0
M  END
$$$$
