MPV.pdb
     RDKit          3D

 23 23  0  0  1  0  0  0  0  0999 V2000
   19.8706  -21.3154  -12.1188 C   0  0  0  0  0  0  0  0  0  0  0  0
   20.9837  -22.3441  -13.1183 S   0  0  0  0  0  0  0  0  0  0  0  0
   22.6771  -22.2715  -12.5051 C   0  0  0  0  0  0  0  0  0  0  0  0
   23.1431  -20.8524  -12.2841 C   0  0  0  0  0  0  0  0  0  0  0  0
   24.5358  -20.9375  -11.6437 C   0  0  2  0  0  0  0  0  0  0  0  0
   24.3748  -20.7169  -10.2795 N   0  0  0  0  0  0  0  0  0  0  0  0
   25.4428  -20.0392  -12.3842 C   0  0  0  0  0  0  0  0  0  0  0  0
   25.5629  -18.8742  -11.8670 O   0  0  0  0  0  0  0  0  0  0  0  0
   26.1511  -20.3567  -13.5623 N   0  0  0  0  0  0  0  0  0  0  0  0
   26.1449  -21.5408  -14.3855 C   0  0  0  0  0  0  0  0  0  0  0  0
   27.6054  -21.6906  -14.7633 C   0  0  0  0  0  0  0  0  0  0  0  0
   28.2055  -20.3260  -14.7387 C   0  0  0  0  0  0  0  0  0  0  0  0
   27.0992  -19.4649  -14.2237 C   0  0  1  0  0  0  0  0  0  0  0  0
   26.5031  -18.7449  -15.3551 C   0  0  0  0  0  0  0  0  0  0  0  0
   25.6788  -19.3267  -16.0884 O   0  0  0  0  0  0  0  0  0  0  0  0
   26.9548  -14.5719  -15.4563 C   0  0  0  0  0  0  0  0  0  0  0  0
   25.7557  -15.2579  -16.0613 C   0  0  2  0  0  0  0  0  0  0  0  0
   24.6825  -15.4154  -14.9888 C   0  0  0  0  0  0  0  0  0  0  0  0
   26.0713  -16.6226  -16.5937 C   0  0  2  0  0  0  0  0  0  0  0  0
   26.8371  -17.4049  -15.6404 N   0  0  0  0  0  0  0  0  0  0  0  0
   26.8397  -16.4378  -17.8629 C   0  0  0  0  0  0  0  0  0  0  0  0
   26.3303  -16.0233  -18.9120 O   0  0  0  0  0  0  0  0  0  0  0  0
   28.1941  -16.7509  -17.8507 O   0  0  0  0  0  0  0  0  0  0  0  0
  1  2  1  0
  3  4  1  0
  3  2  1  0
  5  4  1  0
  5  7  1  0
  5  6  1  1
  7  9  1  0
  8  7  2  0
  9 10  1  0
  9 13  1  0
 10 11  1  0
 12 11  1  0
 13 12  1  0
 14 15  2  0
 13 14  1  6
 17 16  1  1
 18 17  1  0
 19 17  1  0
 19 20  1  1
 20 14  1  0
 21 19  1  0
 22 21  2  0
 23 21  1  0
M  END
$$$$
