MPV.pdb
     RDKit          3D

 23 23  0  0  1  0  0  0  0  0999 V2000
   17.9904  -18.9002  -14.2815 C   0  0  0  0  0  0  0  0  0  0  0  0
   19.5792  -18.4321  -15.0252 S   0  0  0  0  0  0  0  0  0  0  0  0
   20.9559  -18.7869  -13.9173 C   0  0  0  0  0  0  0  0  0  0  0  0
   20.6364  -19.9009  -12.9493 C   0  0  0  0  0  0  0  0  0  0  0  0
   21.9715  -20.5594  -12.5745 C   0  0  2  0  0  0  0  0  0  0  0  0
   22.5198  -21.0721  -13.7460 N   0  0  0  0  0  0  0  0  0  0  0  0
   21.7303  -21.4960  -11.4598 C   0  0  0  0  0  0  0  0  0  0  0  0
   21.4561  -22.6905  -11.8297 O   0  0  0  0  0  0  0  0  0  0  0  0
   21.7778  -21.1841  -10.0846 N   0  0  0  0  0  0  0  0  0  0  0  0
   21.9240  -19.9233   -9.4001 C   0  0  0  0  0  0  0  0  0  0  0  0
   22.8337  -20.2783   -8.2404 C   0  0  0  0  0  0  0  0  0  0  0  0
   22.6078  -21.7196   -7.9329 C   0  0  0  0  0  0  0  0  0  0  0  0
   21.6737  -22.1663   -9.0093 C   0  0  1  0  0  0  0  0  0  0  0  0
   20.3202  -22.2485   -8.4479 C   0  0  0  0  0  0  0  0  0  0  0  0
   19.5879  -21.2390   -8.4587 O   0  0  0  0  0  0  0  0  0  0  0  0
   18.3308  -25.9306   -8.3921 C   0  0  0  0  0  0  0  0  0  0  0  0
   17.7114  -24.5557   -8.4186 C   0  0  2  0  0  0  0  0  0  0  0  0
   17.7709  -24.0137   -9.8433 C   0  0  0  0  0  0  0  0  0  0  0  0
   18.4200  -23.5793   -7.5299 C   0  0  2  0  0  0  0  0  0  0  0  0
   19.8191  -23.4438   -7.8922 N   0  0  0  0  0  0  0  0  0  0  0  0
   18.2842  -24.0762   -6.1262 C   0  0  0  0  0  0  0  0  0  0  0  0
   17.2262  -24.0248   -5.4861 O   0  0  0  0  0  0  0  0  0  0  0  0
   19.4107  -24.6215   -5.5210 O   0  0  0  0  0  0  0  0  0  0  0  0
  1  2  1  0
  3  4  1  0
  3  2  1  0
  5  4  1  0
  5  7  1  0
  5  6  1  6
  7  9  1  0
  8  7  2  0
  9 10  1  0
  9 13  1  0
 10 11  1  0
 12 11  1  0
 13 12  1  0
 14 15  2  0
 13 14  1  1
 17 16  1  6
 18 17  1  0
 19 17  1  0
 19 20  1  6
 20 14  1  0
 21 19  1  0
 22 21  2  0
 23 21  1  0
M  END
$$$$
