MPV.pdb
     RDKit          3D

 23 23  0  0  1  0  0  0  0  0999 V2000
   23.8233  -22.0173  -20.4314 C   0  0  0  0  0  0  0  0  0  0  0  0
   23.5572  -20.2447  -20.7196 S   0  0  0  0  0  0  0  0  0  0  0  0
   24.9904  -19.2727  -20.2196 C   0  0  0  0  0  0  0  0  0  0  0  0
   25.9256  -20.0534  -19.3274 C   0  0  0  0  0  0  0  0  0  0  0  0
   27.0561  -19.0962  -18.9241 C   0  0  2  0  0  0  0  0  0  0  0  0
   28.2190  -19.5528  -19.5365 N   0  0  0  0  0  0  0  0  0  0  0  0
   27.0558  -18.9709  -17.4537 C   0  0  0  0  0  0  0  0  0  0  0  0
   28.0242  -19.5776  -16.8765 O   0  0  0  0  0  0  0  0  0  0  0  0
   26.1116  -18.2659  -16.6778 N   0  0  0  0  0  0  0  0  0  0  0  0
   24.8746  -17.6199  -17.0413 C   0  0  0  0  0  0  0  0  0  0  0  0
   24.8929  -16.3648  -16.1911 C   0  0  0  0  0  0  0  0  0  0  0  0
   25.7016  -16.6712  -14.9766 C   0  0  0  0  0  0  0  0  0  0  0  0
   26.2216  -18.0465  -15.2385 C   0  0  1  0  0  0  0  0  0  0  0  0
   25.4264  -19.0023  -14.4587 C   0  0  0  0  0  0  0  0  0  0  0  0
   24.3805  -19.4746  -14.9471 O   0  0  0  0  0  0  0  0  0  0  0  0
   25.6205  -22.3257  -10.7549 C   0  0  0  0  0  0  0  0  0  0  0  0
   26.1040  -21.0378  -11.3730 C   0  0  2  0  0  0  0  0  0  0  0  0
   25.9969  -19.9218  -10.3385 C   0  0  0  0  0  0  0  0  0  0  0  0
   25.3014  -20.6277  -12.5701 C   0  0  2  0  0  0  0  0  0  0  0  0
   25.8123  -19.4056  -13.1637 N   0  0  0  0  0  0  0  0  0  0  0  0
   23.8887  -20.4436  -12.1162 C   0  0  0  0  0  0  0  0  0  0  0  0
   23.1666  -21.3775  -11.7448 O   0  0  0  0  0  0  0  0  0  0  0  0
   23.3723  -19.1528  -12.1160 O   0  0  0  0  0  0  0  0  0  0  0  0
  1  2  1  0
  3  4  1  0
  3  2  1  0
  5  4  1  0
  5  7  1  0
  5  6  1  1
  7  9  1  0
  8  7  2  0
  9 10  1  0
  9 13  1  0
 10 11  1  0
 12 11  1  0
 13 12  1  0
 14 15  2  0
 13 14  1  1
 17 16  1  1
 18 17  1  0
 19 17  1  0
 19 20  1  1
 20 14  1  0
 21 19  1  0
 22 21  2  0
 23 21  1  0
M  END
$$$$
