MPV.pdb
     RDKit          3D

 23 23  0  0  1  0  0  0  0  0999 V2000
   20.6948  -10.7194  -21.8771 C   0  0  0  0  0  0  0  0  0  0  0  0
   19.1302  -11.3963  -21.2525 S   0  0  0  0  0  0  0  0  0  0  0  0
   19.3393  -12.1502  -19.6287 C   0  0  0  0  0  0  0  0  0  0  0  0
   19.7081  -11.1361  -18.5725 C   0  0  0  0  0  0  0  0  0  0  0  0
   19.8992  -11.9110  -17.2611 C   0  0  2  0  0  0  0  0  0  0  0  0
   18.7405  -12.6515  -17.0490 N   0  0  0  0  0  0  0  0  0  0  0  0
   20.3075  -10.9559  -16.2128 C   0  0  0  0  0  0  0  0  0  0  0  0
   19.3375  -10.5031  -15.5106 O   0  0  0  0  0  0  0  0  0  0  0  0
   21.6245  -10.5275  -15.9433 N   0  0  0  0  0  0  0  0  0  0  0  0
   22.8698  -10.8006  -16.6172 C   0  0  0  0  0  0  0  0  0  0  0  0
   23.8440  -10.9548  -15.4659 C   0  0  0  0  0  0  0  0  0  0  0  0
   23.3182  -10.1365  -14.3359 C   0  0  0  0  0  0  0  0  0  0  0  0
   21.9992   -9.6489  -14.8390 C   0  0  1  0  0  0  0  0  0  0  0  0
   22.1472   -8.2494  -15.2554 C   0  0  0  0  0  0  0  0  0  0  0  0
   22.7567   -7.9831  -16.3104 O   0  0  0  0  0  0  0  0  0  0  0  0
   19.2942   -5.4958  -14.1994 C   0  0  0  0  0  0  0  0  0  0  0  0
   20.2870   -5.3174  -15.3206 C   0  0  2  0  0  0  0  0  0  0  0  0
   19.8023   -6.0966  -16.5392 C   0  0  0  0  0  0  0  0  0  0  0  0
   21.6555   -5.8197  -14.9737 C   0  0  2  0  0  0  0  0  0  0  0  0
   21.6169   -7.1886  -14.4924 N   0  0  0  0  0  0  0  0  0  0  0  0
   22.2116   -4.9079  -13.9273 C   0  0  0  0  0  0  0  0  0  0  0  0
   22.2074   -5.1767  -12.7192 O   0  0  0  0  0  0  0  0  0  0  0  0
   22.7582   -3.7001  -14.3457 O   0  0  0  0  0  0  0  0  0  0  0  0
  1  2  1  0
  3  4  1  0
  3  2  1  0
  5  4  1  0
  5  7  1  0
  5  6  1  1
  7  9  1  0
  8  7  2  0
  9 10  1  0
  9 13  1  0
 10 11  1  0
 12 11  1  0
 13 12  1  0
 14 15  2  0
 13 14  1  6
 17 16  1  1
 18 17  1  0
 19 17  1  0
 19 20  1  1
 20 14  1  0
 21 19  1  0
 22 21  2  0
 23 21  1  0
M  END
$$$$
