MPV.pdb
     RDKit          3D

 23 23  0  0  1  0  0  0  0  0999 V2000
   20.6772  -20.8732  -17.3540 C   0  0  0  0  0  0  0  0  0  0  0  0
   21.2641  -20.4778  -19.0260 S   0  0  0  0  0  0  0  0  0  0  0  0
   23.0001  -19.9931  -19.0182 C   0  0  0  0  0  0  0  0  0  0  0  0
   23.6249  -20.1327  -17.6506 C   0  0  0  0  0  0  0  0  0  0  0  0
   25.1440  -20.0242  -17.8439 C   0  0  2  0  0  0  0  0  0  0  0  0
   25.5329  -21.0902  -18.6489 N   0  0  0  0  0  0  0  0  0  0  0  0
   25.7732  -19.8997  -16.5147 C   0  0  0  0  0  0  0  0  0  0  0  0
   26.2960  -20.9843  -16.0795 O   0  0  0  0  0  0  0  0  0  0  0  0
   25.8362  -18.7296  -15.7290 N   0  0  0  0  0  0  0  0  0  0  0  0
   25.2860  -17.4131  -15.9383 C   0  0  0  0  0  0  0  0  0  0  0  0
   26.3912  -16.5068  -15.4329 C   0  0  0  0  0  0  0  0  0  0  0  0
   27.1466  -17.2726  -14.4004 C   0  0  0  0  0  0  0  0  0  0  0  0
   26.5262  -18.6303  -14.4461 C   0  0  1  0  0  0  0  0  0  0  0  0
   25.6160  -18.7661  -13.3029 C   0  0  0  0  0  0  0  0  0  0  0  0
   24.4180  -18.4428  -13.4290 O   0  0  0  0  0  0  0  0  0  0  0  0
   27.1902  -21.8202  -11.1513 C   0  0  0  0  0  0  0  0  0  0  0  0
   25.7442  -21.6165  -11.5282 C   0  0  2  0  0  0  0  0  0  0  0  0
   25.5711  -21.9272  -13.0116 C   0  0  0  0  0  0  0  0  0  0  0  0
   25.2737  -20.2124  -11.2990 C   0  0  2  0  0  0  0  0  0  0  0  0
   26.0588  -19.2547  -12.0563 N   0  0  0  0  0  0  0  0  0  0  0  0
   25.3818  -19.9412   -9.8325 C   0  0  0  0  0  0  0  0  0  0  0  0
   24.6145  -20.4284   -8.9926 O   0  0  0  0  0  0  0  0  0  0  0  0
   26.4002  -19.0976   -9.4039 O   0  0  0  0  0  0  0  0  0  0  0  0
  1  2  1  0
  3  4  1  0
  3  2  1  0
  5  4  1  0
  5  7  1  0
  5  6  1  1
  7  9  1  0
  8  7  2  0
  9 10  1  0
  9 13  1  0
 10 11  1  0
 12 11  1  0
 13 12  1  0
 14 15  2  0
 13 14  1  1
 17 16  1  6
 18 17  1  0
 19 17  1  0
 19 20  1  6
 20 14  1  0
 21 19  1  0
 22 21  2  0
 23 21  1  0
M  END
$$$$
