MPV.pdb
     RDKit          3D

 23 23  0  0  1  0  0  0  0  0999 V2000
   24.0634  -13.7979  -15.7053 C   0  0  0  0  0  0  0  0  0  0  0  0
   25.8447  -14.1488  -15.6977 S   0  0  0  0  0  0  0  0  0  0  0  0
   26.2018  -15.7640  -16.4137 C   0  0  0  0  0  0  0  0  0  0  0  0
   25.2494  -16.8282  -15.9233 C   0  0  0  0  0  0  0  0  0  0  0  0
   25.6339  -18.1311  -16.6385 C   0  0  2  0  0  0  0  0  0  0  0  0
   24.6974  -18.3382  -17.6464 N   0  0  0  0  0  0  0  0  0  0  0  0
   25.7961  -19.1883  -15.6216 C   0  0  0  0  0  0  0  0  0  0  0  0
   24.7490  -19.9010  -15.4358 O   0  0  0  0  0  0  0  0  0  0  0  0
   26.9642  -19.4556  -14.8768 N   0  0  0  0  0  0  0  0  0  0  0  0
   28.2500  -18.8029  -14.8579 C   0  0  0  0  0  0  0  0  0  0  0  0
   29.2124  -19.9678  -14.7350 C   0  0  0  0  0  0  0  0  0  0  0  0
   28.4838  -21.0649  -14.0362 C   0  0  0  0  0  0  0  0  0  0  0  0
   27.0946  -20.5334  -13.9006 C   0  0  1  0  0  0  0  0  0  0  0  0
   26.9043  -20.0720  -12.5205 C   0  0  0  0  0  0  0  0  0  0  0  0
   27.3169  -18.9431  -12.1873 O   0  0  0  0  0  0  0  0  0  0  0  0
   23.9512  -20.1508   -8.6395 C   0  0  0  0  0  0  0  0  0  0  0  0
   24.3954  -20.6143  -10.0042 C   0  0  2  0  0  0  0  0  0  0  0  0
   24.2013  -22.1242  -10.1013 C   0  0  0  0  0  0  0  0  0  0  0  0
   25.8393  -20.3222  -10.2782 C   0  0  2  0  0  0  0  0  0  0  0  0
   26.2642  -20.8729  -11.5522 N   0  0  0  0  0  0  0  0  0  0  0  0
   26.6329  -20.9127   -9.1569 C   0  0  0  0  0  0  0  0  0  0  0  0
   27.2494  -21.9818   -9.2496 O   0  0  0  0  0  0  0  0  0  0  0  0
   26.6721  -20.2156   -7.9548 O   0  0  0  0  0  0  0  0  0  0  0  0
  1  2  1  0
  3  4  1  0
  3  2  1  0
  5  4  1  0
  5  7  1  0
  5  6  1  6
  7  9  1  0
  8  7  2  0
  9 10  1  0
  9 13  1  0
 10 11  1  0
 12 11  1  0
 13 12  1  0
 14 15  2  0
 13 14  1  1
 17 16  1  1
 18 17  1  0
 19 17  1  0
 19 20  1  6
 20 14  1  0
 21 19  1  0
 22 21  2  0
 23 21  1  0
M  END
$$$$
