MPV.pdb
     RDKit          3D

 23 23  0  0  1  0  0  0  0  0999 V2000
   22.2245  -21.3106   -7.9850 C   0  0  0  0  0  0  0  0  0  0  0  0
   21.8037  -20.6051   -9.6041 S   0  0  0  0  0  0  0  0  0  0  0  0
   23.1230  -20.8721  -10.8029 C   0  0  0  0  0  0  0  0  0  0  0  0
   24.3251  -19.9994  -10.5316 C   0  0  0  0  0  0  0  0  0  0  0  0
   25.5607  -20.7974  -10.9711 C   0  0  2  0  0  0  0  0  0  0  0  0
   26.3696  -20.9527   -9.8497 N   0  0  0  0  0  0  0  0  0  0  0  0
   26.1438  -20.1358  -12.1544 C   0  0  0  0  0  0  0  0  0  0  0  0
   26.9294  -19.1638  -11.8767 O   0  0  0  0  0  0  0  0  0  0  0  0
   25.9086  -20.4806  -13.5021 N   0  0  0  0  0  0  0  0  0  0  0  0
   24.9934  -21.4233  -14.0965 C   0  0  0  0  0  0  0  0  0  0  0  0
   25.8163  -22.0222  -15.2201 C   0  0  0  0  0  0  0  0  0  0  0  0
   26.8122  -20.9912  -15.6300 C   0  0  0  0  0  0  0  0  0  0  0  0
   26.6065  -19.8911  -14.6410 C   0  0  1  0  0  0  0  0  0  0  0  0
   25.8343  -18.8226  -15.2858 C   0  0  0  0  0  0  0  0  0  0  0  0
   24.5891  -18.8908  -15.3067 O   0  0  0  0  0  0  0  0  0  0  0  0
   25.7069  -14.0188  -16.2537 C   0  0  0  0  0  0  0  0  0  0  0  0
   26.3913  -15.2756  -15.7779 C   0  0  2  0  0  0  0  0  0  0  0  0
   27.8194  -15.2944  -16.3137 C   0  0  0  0  0  0  0  0  0  0  0  0
   25.7114  -16.5248  -16.2499 C   0  0  2  0  0  0  0  0  0  0  0  0
   26.4627  -17.7126  -15.8871 N   0  0  0  0  0  0  0  0  0  0  0  0
   25.5725  -16.4212  -17.7350 C   0  0  0  0  0  0  0  0  0  0  0  0
   26.4407  -16.8076  -18.5278 O   0  0  0  0  0  0  0  0  0  0  0  0
   24.4039  -15.8607  -18.2379 O   0  0  0  0  0  0  0  0  0  0  0  0
  1  2  1  0
  3  4  1  0
  3  2  1  0
  5  4  1  0
  5  7  1  0
  5  6  1  1
  7  9  1  0
  8  7  2  0
  9 10  1  0
  9 13  1  0
 10 11  1  0
 12 11  1  0
 13 12  1  0
 14 15  2  0
 13 14  1  6
 17 16  1  6
 18 17  1  0
 19 17  1  0
 19 20  1  6
 20 14  1  0
 21 19  1  0
 22 21  2  0
 23 21  1  0
M  END
$$$$
