MPV.pdb
     RDKit          3D

 23 23  0  0  1  0  0  0  0  0999 V2000
   21.8133  -18.8855  -11.1215 C   0  0  0  0  0  0  0  0  0  0  0  0
   22.0706  -19.1659  -12.8968 S   0  0  0  0  0  0  0  0  0  0  0  0
   23.5123  -20.2048  -13.1983 C   0  0  0  0  0  0  0  0  0  0  0  0
   24.2037  -20.6062  -11.9173 C   0  0  0  0  0  0  0  0  0  0  0  0
   25.3983  -21.4847  -12.3145 C   0  0  2  0  0  0  0  0  0  0  0  0
   24.8874  -22.6023  -12.9671 N   0  0  0  0  0  0  0  0  0  0  0  0
   26.2295  -21.7077  -11.1156 C   0  0  0  0  0  0  0  0  0  0  0  0
   25.7041  -22.4949  -10.2534 O   0  0  0  0  0  0  0  0  0  0  0  0
   27.4980  -21.1432  -10.8645 N   0  0  0  0  0  0  0  0  0  0  0  0
   28.2782  -20.1879  -11.6115 C   0  0  0  0  0  0  0  0  0  0  0  0
   29.6895  -20.7207  -11.4605 C   0  0  0  0  0  0  0  0  0  0  0  0
   29.7384  -21.4697  -10.1722 C   0  0  0  0  0  0  0  0  0  0  0  0
   28.3223  -21.4461   -9.6981 C   0  0  1  0  0  0  0  0  0  0  0  0
   28.2007  -20.4344   -8.6420 C   0  0  0  0  0  0  0  0  0  0  0  0
   27.9464  -19.2526   -8.9491 O   0  0  0  0  0  0  0  0  0  0  0  0
   28.0294  -21.4888   -4.4080 C   0  0  0  0  0  0  0  0  0  0  0  0
   27.3351  -20.3465   -5.1062 C   0  0  2  0  0  0  0  0  0  0  0  0
   26.0150  -20.8481   -5.6830 C   0  0  0  0  0  0  0  0  0  0  0  0
   28.1390  -19.7779   -6.2358 C   0  0  2  0  0  0  0  0  0  0  0  0
   28.3643  -20.7609   -7.2799 N   0  0  0  0  0  0  0  0  0  0  0  0
   29.4382  -19.3079   -5.6642 C   0  0  0  0  0  0  0  0  0  0  0  0
   30.5202  -19.8662   -5.8858 O   0  0  0  0  0  0  0  0  0  0  0  0
   29.4159  -18.1856   -4.8440 O   0  0  0  0  0  0  0  0  0  0  0  0
  1  2  1  0
  3  4  1  0
  3  2  1  0
  5  4  1  0
  5  7  1  0
  5  6  1  1
  7  9  1  0
  8  7  2  0
  9 10  1  0
  9 13  1  0
 10 11  1  0
 12 11  1  0
 13 12  1  0
 14 15  2  0
 13 14  1  1
 17 16  1  6
 18 17  1  0
 19 17  1  0
 19 20  1  6
 20 14  1  0
 21 19  1  0
 22 21  2  0
 23 21  1  0
M  END
$$$$
