MPV.pdb
     RDKit          3D

 23 23  0  0  1  0  0  0  0  0999 V2000
   24.1220  -20.8925   -9.6296 C   0  0  0  0  0  0  0  0  0  0  0  0
   25.7518  -20.1009   -9.7459 S   0  0  0  0  0  0  0  0  0  0  0  0
   26.3424  -20.0542  -11.4482 C   0  0  0  0  0  0  0  0  0  0  0  0
   26.7327  -21.4224  -11.9540 C   0  0  0  0  0  0  0  0  0  0  0  0
   27.0781  -21.2635  -13.4413 C   0  0  2  0  0  0  0  0  0  0  0  0
   27.9095  -20.1536  -13.5537 N   0  0  0  0  0  0  0  0  0  0  0  0
   25.8198  -21.2621  -14.2124 C   0  0  0  0  0  0  0  0  0  0  0  0
   25.6028  -20.1781  -14.8580 O   0  0  0  0  0  0  0  0  0  0  0  0
   24.8859  -22.3171  -14.2849 N   0  0  0  0  0  0  0  0  0  0  0  0
   24.7805  -23.5465  -13.5384 C   0  0  0  0  0  0  0  0  0  0  0  0
   24.3532  -24.5431  -14.5980 C   0  0  0  0  0  0  0  0  0  0  0  0
   23.6119  -23.7798  -15.6423 C   0  0  0  0  0  0  0  0  0  0  0  0
   23.7539  -22.3585  -15.2061 C   0  0  1  0  0  0  0  0  0  0  0  0
   22.4973  -21.9359  -14.5767 C   0  0  0  0  0  0  0  0  0  0  0  0
   22.3264  -22.1270  -13.3561 O   0  0  0  0  0  0  0  0  0  0  0  0
   19.9756  -19.1155  -16.5197 C   0  0  0  0  0  0  0  0  0  0  0  0
   20.0766  -19.3320  -15.0306 C   0  0  2  0  0  0  0  0  0  0  0  0
   21.2591  -18.5319  -14.4935 C   0  0  0  0  0  0  0  0  0  0  0  0
   20.2941  -20.7684  -14.6633 C   0  0  2  0  0  0  0  0  0  0  0  0
   21.4693  -21.3156  -15.3164 N   0  0  0  0  0  0  0  0  0  0  0  0
   19.0671  -21.5212  -15.0674 C   0  0  0  0  0  0  0  0  0  0  0  0
   19.0329  -22.3002  -16.0285 O   0  0  0  0  0  0  0  0  0  0  0  0
   17.9128  -21.3276  -14.3172 O   0  0  0  0  0  0  0  0  0  0  0  0
  1  2  1  0
  3  4  1  0
  3  2  1  0
  5  4  1  0
  5  7  1  0
  5  6  1  1
  7  9  1  0
  8  7  2  0
  9 10  1  0
  9 13  1  0
 10 11  1  0
 12 11  1  0
 13 12  1  0
 14 15  2  0
 13 14  1  1
 17 16  1  6
 18 17  1  0
 19 17  1  0
 19 20  1  6
 20 14  1  0
 21 19  1  0
 22 21  2  0
 23 21  1  0
M  END
$$$$
