QIQ.pdb
     RDKit          3D

 27 26  0  0  1  0  0  0  0  0999 V2000
   27.3655  -16.9750  -15.7153 N   0  0  0  0  0  0  0  0  0  0  0  0
   27.9078  -17.2884  -16.9821 C   0  0  0  0  0  0  0  0  0  0  0  0
   28.6144  -16.4371  -17.5644 O   0  0  0  0  0  0  0  0  0  0  0  0
   27.6640  -18.5893  -17.6356 C   0  0  0  0  0  0  0  0  0  0  0  0
   26.8646  -19.4925  -16.7385 C   0  0  0  0  0  0  0  0  0  0  0  0
   27.7617  -20.2561  -15.7859 C   0  0  2  0  0  0  0  0  0  0  0  0
   28.2739  -21.4125  -16.5048 N   0  0  0  0  0  0  0  0  0  0  0  0
   26.9758  -20.7859  -14.6401 C   0  0  0  0  0  0  0  0  0  0  0  0
   26.4685  -21.9433  -14.7975 O   0  0  0  0  0  0  0  0  0  0  0  0
   29.0990  -20.7256  -10.0504 C   0  0  0  0  0  0  0  0  0  0  0  0
   28.2039  -21.2114  -11.1784 C   0  0  0  0  0  0  0  0  0  0  0  0
   26.8469  -20.6016  -11.1203 C   0  0  2  0  0  0  0  0  0  0  0  0
   26.0251  -21.0898   -9.9512 C   0  0  0  0  0  0  0  0  0  0  0  0
   26.0041  -20.7684  -12.3560 C   0  0  2  0  0  0  0  0  0  0  0  0
   26.7705  -20.0966  -13.4302 N   0  0  0  0  0  0  0  0  0  0  0  0
   24.7139  -20.0951  -12.1795 C   0  0  0  0  0  0  0  0  0  0  0  0
   24.6188  -18.8597  -12.0027 O   0  0  0  0  0  0  0  0  0  0  0  0
   20.7192  -18.4053  -15.7717 N   0  0  0  0  0  0  0  0  0  0  0  0
   21.6414  -19.4537  -16.0182 C   0  0  0  0  0  0  0  0  0  0  0  0
   21.7505  -19.9205  -17.1837 O   0  0  0  0  0  0  0  0  0  0  0  0
   22.4591  -19.9809  -14.9336 C   0  0  0  0  0  0  0  0  0  0  0  0
   22.3486  -19.3412  -13.6124 C   0  0  0  0  0  0  0  0  0  0  0  0
   22.1794  -20.1835  -12.4059 C   0  0  2  0  0  0  0  0  0  0  0  0
   23.4969  -20.8288  -12.2023 N   0  0  0  0  0  0  0  0  0  0  0  0
   21.1111  -21.1507  -12.3463 C   0  0  0  0  0  0  0  0  0  0  0  0
   19.9314  -20.7872  -12.0575 O   0  0  0  0  0  0  0  0  0  0  0  0
   21.2936  -22.4998  -12.5994 O   0  0  0  0  0  0  0  0  0  0  0  0
  2  1  1  0
  3  2  2  0
  4  2  1  0
  5  4  1  0
  6  7  1  6
  6  5  1  0
  8  6  1  0
  9  8  2  0
 10 11  1  0
 11 12  1  0
 12 14  1  0
 12 13  1  1
 14 15  1  6
 15  8  1  0
 16 14  1  0
 16 17  2  0
 18 19  1  0
 19 21  1  0
 20 19  2  0
 21 22  1  0
 23 22  1  6
 23 24  1  0
 24 16  1  0
 25 23  1  0
 26 25  2  0
 27 25  1  0
M  END
$$$$
