QIQ.pdb
     RDKit          3D

 27 26  0  0  1  0  0  0  0  0999 V2000
   27.3811  -10.4921  -16.0001 N   0  0  0  0  0  0  0  0  0  0  0  0
   27.2184  -11.8958  -16.0030 C   0  0  0  0  0  0  0  0  0  0  0  0
   28.0887  -12.6063  -15.4544 O   0  0  0  0  0  0  0  0  0  0  0  0
   26.0528  -12.5454  -16.6341 C   0  0  0  0  0  0  0  0  0  0  0  0
   25.0348  -11.5207  -17.0501 C   0  0  0  0  0  0  0  0  0  0  0  0
   23.8003  -12.1769  -17.6338 C   0  0  2  0  0  0  0  0  0  0  0  0
   24.1745  -12.7363  -18.9235 N   0  0  0  0  0  0  0  0  0  0  0  0
   22.7476  -11.1619  -17.9036 C   0  0  0  0  0  0  0  0  0  0  0  0
   22.8750  -10.4973  -18.9824 O   0  0  0  0  0  0  0  0  0  0  0  0
   18.8817  -12.9572  -18.3846 C   0  0  0  0  0  0  0  0  0  0  0  0
   19.1347  -11.5009  -18.7375 C   0  0  0  0  0  0  0  0  0  0  0  0
   19.3485  -10.6593  -17.5281 C   0  0  2  0  0  0  0  0  0  0  0  0
   18.2429   -9.6566  -17.2983 C   0  0  0  0  0  0  0  0  0  0  0  0
   20.6496   -9.9042  -17.4813 C   0  0  2  0  0  0  0  0  0  0  0  0
   21.6534  -10.9062  -17.0560 N   0  0  0  0  0  0  0  0  0  0  0  0
   20.5735   -8.8324  -16.4840 C   0  0  0  0  0  0  0  0  0  0  0  0
   20.4381   -9.0605  -15.2608 O   0  0  0  0  0  0  0  0  0  0  0  0
   23.5477   -4.8819  -14.6402 N   0  0  0  0  0  0  0  0  0  0  0  0
   22.5943   -3.8428  -14.7874 C   0  0  0  0  0  0  0  0  0  0  0  0
   22.7267   -2.7824  -14.1196 O   0  0  0  0  0  0  0  0  0  0  0  0
   21.4757   -3.9994  -15.7079 C   0  0  0  0  0  0  0  0  0  0  0  0
   21.3617   -5.2680  -16.4459 C   0  0  0  0  0  0  0  0  0  0  0  0
   20.5139   -6.3542  -15.9028 C   0  0  2  0  0  0  0  0  0  0  0  0
   20.6517   -7.4670  -16.8705 N   0  0  0  0  0  0  0  0  0  0  0  0
   19.1279   -6.1008  -15.5944 C   0  0  0  0  0  0  0  0  0  0  0  0
   18.2573   -6.0867  -16.5157 O   0  0  0  0  0  0  0  0  0  0  0  0
   18.6663   -5.8695  -14.3094 O   0  0  0  0  0  0  0  0  0  0  0  0
  2  1  1  0
  3  2  2  0
  4  2  1  0
  5  4  1  0
  6  7  1  6
  6  5  1  0
  8  6  1  0
  9  8  2  0
 10 11  1  0
 11 12  1  0
 12 14  1  0
 12 13  1  6
 14 15  1  1
 15  8  1  0
 16 14  1  0
 16 17  2  0
 18 19  1  0
 19 21  1  0
 20 19  2  0
 21 22  1  0
 23 22  1  6
 23 24  1  0
 24 16  1  0
 25 23  1  0
 26 25  2  0
 27 25  1  0
M  END
$$$$
