QIQ.pdb
     RDKit          3D

 27 26  0  0  1  0  0  0  0  0999 V2000
   23.9990  -18.7657  -16.6087 N   0  0  0  0  0  0  0  0  0  0  0  0
   22.7041  -19.2488  -16.3137 C   0  0  0  0  0  0  0  0  0  0  0  0
   21.7895  -19.0746  -17.1481 O   0  0  0  0  0  0  0  0  0  0  0  0
   22.4017  -19.9516  -15.0514 C   0  0  0  0  0  0  0  0  0  0  0  0
   22.9054  -19.1662  -13.8728 C   0  0  0  0  0  0  0  0  0  0  0  0
   24.2018  -19.7423  -13.3412 C   0  0  2  0  0  0  0  0  0  0  0  0
   24.7478  -20.6089  -14.3743 N   0  0  0  0  0  0  0  0  0  0  0  0
   23.9431  -20.6065  -12.1590 C   0  0  0  0  0  0  0  0  0  0  0  0
   23.9542  -21.8622  -12.3711 O   0  0  0  0  0  0  0  0  0  0  0  0
   26.2860  -19.5035   -7.6260 C   0  0  0  0  0  0  0  0  0  0  0  0
   25.6868  -20.3660   -8.7244 C   0  0  0  0  0  0  0  0  0  0  0  0
   24.2115  -20.5088   -8.5840 C   0  0  2  0  0  0  0  0  0  0  0  0
   23.8043  -21.3091   -7.3699 C   0  0  0  0  0  0  0  0  0  0  0  0
   23.4988  -21.1046   -9.7681 C   0  0  2  0  0  0  0  0  0  0  0  0
   23.6948  -20.1240  -10.8603 N   0  0  0  0  0  0  0  0  0  0  0  0
   22.0677  -21.2373   -9.4793 C   0  0  0  0  0  0  0  0  0  0  0  0
   21.2868  -20.2592   -9.4865 O   0  0  0  0  0  0  0  0  0  0  0  0
   19.2990  -25.4008   -6.0351 N   0  0  0  0  0  0  0  0  0  0  0  0
   18.3174  -24.3848   -6.1564 C   0  0  0  0  0  0  0  0  0  0  0  0
   17.1746  -24.5659   -5.6574 O   0  0  0  0  0  0  0  0  0  0  0  0
   18.6315  -23.1408   -6.8469 C   0  0  0  0  0  0  0  0  0  0  0  0
   19.9560  -23.0168   -7.4772 C   0  0  0  0  0  0  0  0  0  0  0  0
   20.0503  -22.6855   -8.9177 C   0  0  2  0  0  0  0  0  0  0  0  0
   21.4975  -22.5028   -9.1741 N   0  0  0  0  0  0  0  0  0  0  0  0
   19.2833  -21.5893   -9.4567 C   0  0  0  0  0  0  0  0  0  0  0  0
   19.6199  -20.3910   -9.2164 O   0  0  0  0  0  0  0  0  0  0  0  0
   18.1654  -21.7653  -10.2547 O   0  0  0  0  0  0  0  0  0  0  0  0
  2  1  1  0
  3  2  2  0
  4  2  1  0
  5  4  1  0
  6  7  1  6
  6  5  1  0
  8  6  1  0
  9  8  2  0
 10 11  1  0
 11 12  1  0
 12 14  1  0
 12 13  1  1
 14 15  1  6
 15  8  1  0
 16 14  1  0
 16 17  2  0
 18 19  1  0
 19 21  1  0
 20 19  2  0
 21 22  1  0
 23 22  1  1
 23 24  1  0
 24 16  1  0
 25 23  1  0
 26 25  2  0
 27 25  1  0
M  END
$$$$
