QIQ.pdb
     RDKit          3D

 27 26  0  0  1  0  0  0  0  0999 V2000
   17.4022  -14.1982  -19.2188 N   0  0  0  0  0  0  0  0  0  0  0  0
   18.0698  -13.0216  -18.8102 C   0  0  0  0  0  0  0  0  0  0  0  0
   17.4094  -12.1096  -18.2670 O   0  0  0  0  0  0  0  0  0  0  0  0
   19.5214  -12.8395  -19.0063 C   0  0  0  0  0  0  0  0  0  0  0  0
   20.1257  -12.1026  -17.8438 C   0  0  0  0  0  0  0  0  0  0  0  0
   21.5344  -12.5826  -17.5602 C   0  0  2  0  0  0  0  0  0  0  0  0
   21.4272  -13.8329  -16.8243 N   0  0  0  0  0  0  0  0  0  0  0  0
   22.2419  -11.6269  -16.6673 C   0  0  0  0  0  0  0  0  0  0  0  0
   21.9188  -11.6680  -15.4361 O   0  0  0  0  0  0  0  0  0  0  0  0
   26.0834  -11.9150  -14.9683 C   0  0  0  0  0  0  0  0  0  0  0  0
   25.8854  -11.3760  -16.3753 C   0  0  0  0  0  0  0  0  0  0  0  0
   25.3510   -9.9864  -16.3740 C   0  0  2  0  0  0  0  0  0  0  0  0
   26.0760   -9.0713  -15.4162 C   0  0  0  0  0  0  0  0  0  0  0  0
   23.8796   -9.8542  -16.0865 C   0  0  2  0  0  0  0  0  0  0  0  0
   23.2181  -10.7093  -17.0985 N   0  0  0  0  0  0  0  0  0  0  0  0
   23.4548   -8.4628  -16.2671 C   0  0  0  0  0  0  0  0  0  0  0  0
   23.8171   -7.7707  -17.2450 O   0  0  0  0  0  0  0  0  0  0  0  0
   17.8329   -6.4539  -15.7435 N   0  0  0  0  0  0  0  0  0  0  0  0
   18.5900   -7.0185  -16.8010 C   0  0  0  0  0  0  0  0  0  0  0  0
   17.9923   -7.5374  -17.7816 O   0  0  0  0  0  0  0  0  0  0  0  0
   20.0461   -6.9923  -16.7553 C   0  0  0  0  0  0  0  0  0  0  0  0
   20.6891   -6.4799  -15.5342 C   0  0  0  0  0  0  0  0  0  0  0  0
   22.1671   -6.4208  -15.4579 C   0  0  2  0  0  0  0  0  0  0  0  0
   22.5997   -7.8310  -15.3240 N   0  0  0  0  0  0  0  0  0  0  0  0
   22.8048   -5.5844  -14.4709 C   0  0  0  0  0  0  0  0  0  0  0  0
   23.1520   -6.0644  -13.3502 O   0  0  0  0  0  0  0  0  0  0  0  0
   23.0794   -4.2427  -14.6762 O   0  0  0  0  0  0  0  0  0  0  0  0
  2  1  1  0
  3  2  2  0
  4  2  1  0
  5  4  1  0
  6  7  1  1
  6  5  1  0
  8  6  1  0
  9  8  2  0
 10 11  1  0
 11 12  1  0
 12 14  1  0
 12 13  1  1
 14 15  1  6
 15  8  1  0
 16 14  1  0
 16 17  2  0
 18 19  1  0
 19 21  1  0
 20 19  2  0
 21 22  1  0
 23 22  1  1
 23 24  1  0
 24 16  1  0
 25 23  1  0
 26 25  2  0
 27 25  1  0
M  END
$$$$
