QIQ.pdb
     RDKit          3D

 27 26  0  0  1  0  0  0  0  0999 V2000
   28.2520  -20.8631  -18.4872 N   0  0  0  0  0  0  0  0  0  0  0  0
   28.7944  -19.5901  -18.2001 C   0  0  0  0  0  0  0  0  0  0  0  0
   29.6122  -19.0871  -19.0010 O   0  0  0  0  0  0  0  0  0  0  0  0
   28.4237  -18.8395  -16.9844 C   0  0  0  0  0  0  0  0  0  0  0  0
   27.3009  -19.5262  -16.2584 C   0  0  0  0  0  0  0  0  0  0  0  0
   27.8281  -20.4844  -15.2100 C   0  0  2  0  0  0  0  0  0  0  0  0
   28.3693  -21.6391  -15.9101 N   0  0  0  0  0  0  0  0  0  0  0  0
   26.7183  -20.9893  -14.3588 C   0  0  0  0  0  0  0  0  0  0  0  0
   26.1011  -22.0144  -14.7946 O   0  0  0  0  0  0  0  0  0  0  0  0
   25.2082  -21.0825   -8.4627 C   0  0  0  0  0  0  0  0  0  0  0  0
   24.7677  -21.4238   -9.8765 C   0  0  0  0  0  0  0  0  0  0  0  0
   25.6675  -20.8302  -10.9035 C   0  0  2  0  0  0  0  0  0  0  0  0
   25.8377  -19.3372  -10.7534 C   0  0  0  0  0  0  0  0  0  0  0  0
   25.2843  -21.0917  -12.3352 C   0  0  2  0  0  0  0  0  0  0  0  0
   26.3275  -20.4115  -13.1363 N   0  0  0  0  0  0  0  0  0  0  0  0
   23.9772  -20.4937  -12.6233 C   0  0  0  0  0  0  0  0  0  0  0  0
   23.7611  -19.2656  -12.5153 O   0  0  0  0  0  0  0  0  0  0  0  0
   21.4938  -19.7660  -17.9032 N   0  0  0  0  0  0  0  0  0  0  0  0
   21.8807  -20.8620  -17.0911 C   0  0  0  0  0  0  0  0  0  0  0  0
   21.9270  -22.0174  -17.5921 O   0  0  0  0  0  0  0  0  0  0  0  0
   22.2274  -20.6511  -15.6917 C   0  0  0  0  0  0  0  0  0  0  0  0
   21.2182  -20.9840  -14.6730 C   0  0  0  0  0  0  0  0  0  0  0  0
   21.5207  -20.7489  -13.2423 C   0  0  2  0  0  0  0  0  0  0  0  0
   22.8826  -21.2963  -13.0444 N   0  0  0  0  0  0  0  0  0  0  0  0
   20.6148  -21.2260  -12.2263 C   0  0  0  0  0  0  0  0  0  0  0  0
   20.8841  -22.2749  -11.5674 O   0  0  0  0  0  0  0  0  0  0  0  0
   19.4288  -20.5868  -11.9062 O   0  0  0  0  0  0  0  0  0  0  0  0
  2  1  1  0
  3  2  2  0
  4  2  1  0
  5  4  1  0
  6  7  1  6
  6  5  1  0
  8  6  1  0
  9  8  2  0
 10 11  1  0
 11 12  1  0
 12 14  1  0
 12 13  1  6
 14 15  1  6
 15  8  1  0
 16 14  1  0
 16 17  2  0
 18 19  1  0
 19 21  1  0
 20 19  2  0
 21 22  1  0
 23 22  1  6
 23 24  1  0
 24 16  1  0
 25 23  1  0
 26 25  2  0
 27 25  1  0
M  END
$$$$
