QIQ.pdb
     RDKit          3D

 27 26  0  0  1  0  0  0  0  0999 V2000
   18.6147  -15.3679  -14.1612 N   0  0  0  0  0  0  0  0  0  0  0  0
   17.3022  -15.8037  -14.4519 C   0  0  0  0  0  0  0  0  0  0  0  0
   16.8098  -16.7322  -13.7748 O   0  0  0  0  0  0  0  0  0  0  0  0
   16.4981  -15.1950  -15.5297 C   0  0  0  0  0  0  0  0  0  0  0  0
   16.4886  -13.6971  -15.4036 C   0  0  0  0  0  0  0  0  0  0  0  0
   15.6484  -13.2494  -14.2251 C   0  0  2  0  0  0  0  0  0  0  0  0
   14.2530  -13.3466  -14.6248 N   0  0  0  0  0  0  0  0  0  0  0  0
   15.9006  -11.8163  -13.9186 C   0  0  0  0  0  0  0  0  0  0  0  0
   15.2989  -10.9720  -14.6581 O   0  0  0  0  0  0  0  0  0  0  0  0
   15.5361   -7.4032  -11.0529 C   0  0  0  0  0  0  0  0  0  0  0  0
   16.7398   -8.2790  -10.7472 C   0  0  0  0  0  0  0  0  0  0  0  0
   16.5594   -9.6726  -11.2390 C   0  0  2  0  0  0  0  0  0  0  0  0
   17.3379  -10.6906  -10.4402 C   0  0  0  0  0  0  0  0  0  0  0  0
   16.8896   -9.8997  -12.6897 C   0  0  2  0  0  0  0  0  0  0  0  0
   16.7424  -11.3599  -12.8870 N   0  0  0  0  0  0  0  0  0  0  0  0
   18.2761   -9.5060  -12.9575 C   0  0  0  0  0  0  0  0  0  0  0  0
   19.2536  -10.0955  -12.4442 O   0  0  0  0  0  0  0  0  0  0  0  0
   20.6048   -9.3761  -18.2218 N   0  0  0  0  0  0  0  0  0  0  0  0
   21.6664   -8.7220  -17.5468 C   0  0  0  0  0  0  0  0  0  0  0  0
   22.7659   -8.5539  -18.1391 O   0  0  0  0  0  0  0  0  0  0  0  0
   21.4834   -8.2438  -16.1827 C   0  0  0  0  0  0  0  0  0  0  0  0
   20.1870   -8.4939  -15.5317 C   0  0  0  0  0  0  0  0  0  0  0  0
   19.9603   -8.0139  -14.1490 C   0  0  2  0  0  0  0  0  0  0  0  0
   18.5734   -8.4207  -13.8256 N   0  0  0  0  0  0  0  0  0  0  0  0
   20.1864   -6.6276  -13.8213 C   0  0  0  0  0  0  0  0  0  0  0  0
   21.3571   -6.2092  -13.5735 O   0  0  0  0  0  0  0  0  0  0  0  0
   19.1725   -5.6863  -13.7634 O   0  0  0  0  0  0  0  0  0  0  0  0
  2  1  1  0
  3  2  2  0
  4  2  1  0
  5  4  1  0
  6  7  1  6
  6  5  1  0
  8  6  1  0
  9  8  2  0
 10 11  1  0
 11 12  1  0
 12 14  1  0
 12 13  1  1
 14 15  1  1
 15  8  1  0
 16 14  1  0
 16 17  2  0
 18 19  1  0
 19 21  1  0
 20 19  2  0
 21 22  1  0
 23 22  1  6
 23 24  1  0
 24 16  1  0
 25 23  1  0
 26 25  2  0
 27 25  1  0
M  END
$$$$
