QIQ.pdb
     RDKit          3D

 27 26  0  0  1  0  0  0  0  0999 V2000
   29.4510  -18.0956  -18.0119 N   0  0  0  0  0  0  0  0  0  0  0  0
   28.0444  -17.9620  -18.0371 C   0  0  0  0  0  0  0  0  0  0  0  0
   27.5390  -16.8444  -17.7952 O   0  0  0  0  0  0  0  0  0  0  0  0
   27.1572  -19.1021  -18.3403 C   0  0  0  0  0  0  0  0  0  0  0  0
   26.4858  -19.5991  -17.0906 C   0  0  0  0  0  0  0  0  0  0  0  0
   27.4458  -20.3935  -16.2289 C   0  0  2  0  0  0  0  0  0  0  0  0
   27.8703  -21.5492  -17.0038 N   0  0  0  0  0  0  0  0  0  0  0  0
   26.7510  -20.9243  -15.0261 C   0  0  0  0  0  0  0  0  0  0  0  0
   26.0730  -21.9887  -15.1961 O   0  0  0  0  0  0  0  0  0  0  0  0
   29.4004  -20.7230  -10.7606 C   0  0  0  0  0  0  0  0  0  0  0  0
   28.3689  -21.4250  -11.6281 C   0  0  0  0  0  0  0  0  0  0  0  0
   27.0054  -20.8531  -11.4529 C   0  0  2  0  0  0  0  0  0  0  0  0
   26.2760  -21.4114  -10.2542 C   0  0  0  0  0  0  0  0  0  0  0  0
   26.0848  -20.9888  -12.6357 C   0  0  2  0  0  0  0  0  0  0  0  0
   26.8025  -20.3303  -13.7511 N   0  0  0  0  0  0  0  0  0  0  0  0
   24.8265  -20.2825  -12.3773 C   0  0  0  0  0  0  0  0  0  0  0  0
   24.7673  -19.0387  -12.2509 O   0  0  0  0  0  0  0  0  0  0  0  0
   22.4374  -18.7914  -16.5181 N   0  0  0  0  0  0  0  0  0  0  0  0
   21.2577  -18.5929  -15.7568 C   0  0  0  0  0  0  0  0  0  0  0  0
   20.2701  -18.0157  -16.2853 O   0  0  0  0  0  0  0  0  0  0  0  0
   21.1882  -19.0585  -14.3779 C   0  0  0  0  0  0  0  0  0  0  0  0
   22.3569  -19.7649  -13.8283 C   0  0  0  0  0  0  0  0  0  0  0  0
   22.2830  -20.3502  -12.4698 C   0  0  2  0  0  0  0  0  0  0  0  0
   23.6009  -20.9919  -12.2577 N   0  0  0  0  0  0  0  0  0  0  0  0
   21.2060  -21.2472  -12.1292 C   0  0  0  0  0  0  0  0  0  0  0  0
   21.3589  -22.5016  -12.2307 O   0  0  0  0  0  0  0  0  0  0  0  0
   19.9717  -20.8135  -11.6756 O   0  0  0  0  0  0  0  0  0  0  0  0
  2  1  1  0
  3  2  2  0
  4  2  1  0
  5  4  1  0
  6  7  1  6
  6  5  1  0
  8  6  1  0
  9  8  2  0
 10 11  1  0
 11 12  1  0
 12 14  1  0
 12 13  1  1
 14 15  1  6
 15  8  1  0
 16 14  1  0
 16 17  2  0
 18 19  1  0
 19 21  1  0
 20 19  2  0
 21 22  1  0
 23 22  1  6
 23 24  1  0
 24 16  1  0
 25 23  1  0
 26 25  2  0
 27 25  1  0
M  END
$$$$
