QIQ.pdb
     RDKit          3D

 27 26  0  0  1  0  0  0  0  0999 V2000
   26.0677   -9.5925  -21.6603 N   0  0  0  0  0  0  0  0  0  0  0  0
   25.5540   -8.3710  -21.1691 C   0  0  0  0  0  0  0  0  0  0  0  0
   25.9899   -7.2986  -21.6415 O   0  0  0  0  0  0  0  0  0  0  0  0
   24.5200   -8.3257  -20.1168 C   0  0  0  0  0  0  0  0  0  0  0  0
   24.0883   -9.7145  -19.7366 C   0  0  0  0  0  0  0  0  0  0  0  0
   24.4613  -10.0336  -18.3033 C   0  0  2  0  0  0  0  0  0  0  0  0
   24.7656  -11.4548  -18.2400 N   0  0  0  0  0  0  0  0  0  0  0  0
   23.3017   -9.8098  -17.3998 C   0  0  0  0  0  0  0  0  0  0  0  0
   22.2129  -10.3783  -17.7361 O   0  0  0  0  0  0  0  0  0  0  0  0
   23.0754  -11.3040  -12.6582 C   0  0  0  0  0  0  0  0  0  0  0  0
   22.6910  -10.8451  -14.0550 C   0  0  0  0  0  0  0  0  0  0  0  0
   22.3780   -9.3903  -14.1015 C   0  0  2  0  0  0  0  0  0  0  0  0
   21.2243   -9.0014  -13.2081 C   0  0  0  0  0  0  0  0  0  0  0  0
   22.0902   -8.8289  -15.4680 C   0  0  2  0  0  0  0  0  0  0  0  0
   23.3440   -9.0278  -16.2303 N   0  0  0  0  0  0  0  0  0  0  0  0
   21.7971   -7.3958  -15.3715 C   0  0  0  0  0  0  0  0  0  0  0  0
   22.6872   -6.5396  -15.1686 O   0  0  0  0  0  0  0  0  0  0  0  0
   23.1017   -4.3148  -18.7829 N   0  0  0  0  0  0  0  0  0  0  0  0
   22.0373   -3.4252  -18.4894 C   0  0  0  0  0  0  0  0  0  0  0  0
   21.9715   -2.3196  -19.0904 O   0  0  0  0  0  0  0  0  0  0  0  0
   21.0265   -3.7909  -17.5058 C   0  0  0  0  0  0  0  0  0  0  0  0
   21.1242   -5.1180  -16.8765 C   0  0  0  0  0  0  0  0  0  0  0  0
   20.1629   -5.4943  -15.8144 C   0  0  2  0  0  0  0  0  0  0  0  0
   20.4682   -6.9105  -15.5066 N   0  0  0  0  0  0  0  0  0  0  0  0
   18.7487   -5.2992  -16.0204 C   0  0  0  0  0  0  0  0  0  0  0  0
   18.0584   -6.1820  -16.6131 O   0  0  0  0  0  0  0  0  0  0  0  0
   18.0677   -4.1721  -15.5922 O   0  0  0  0  0  0  0  0  0  0  0  0
  2  1  1  0
  3  2  2  0
  4  2  1  0
  5  4  1  0
  6  7  1  6
  6  5  1  0
  8  6  1  0
  9  8  2  0
 10 11  1  0
 11 12  1  0
 12 14  1  0
 12 13  1  1
 14 15  1  6
 15  8  1  0
 16 14  1  0
 16 17  2  0
 18 19  1  0
 19 21  1  0
 20 19  2  0
 21 22  1  0
 23 22  1  6
 23 24  1  0
 24 16  1  0
 25 23  1  0
 26 25  2  0
 27 25  1  0
M  END
$$$$
