QIQ.pdb
     RDKit          3D

 27 26  0  0  1  0  0  0  0  0999 V2000
   25.7399  -17.9021  -15.2524 N   0  0  0  0  0  0  0  0  0  0  0  0
   26.9246  -17.7406  -16.0057 C   0  0  0  0  0  0  0  0  0  0  0  0
   27.3612  -16.5862  -16.2055 O   0  0  0  0  0  0  0  0  0  0  0  0
   27.6594  -18.8936  -16.5621 C   0  0  0  0  0  0  0  0  0  0  0  0
   26.9673  -20.1819  -16.2143 C   0  0  0  0  0  0  0  0  0  0  0  0
   27.5583  -20.8044  -14.9660 C   0  0  2  0  0  0  0  0  0  0  0  0
   28.2183  -22.0375  -15.3664 N   0  0  0  0  0  0  0  0  0  0  0  0
   26.4820  -21.1915  -14.0158 C   0  0  0  0  0  0  0  0  0  0  0  0
   25.7806  -22.2016  -14.3466 O   0  0  0  0  0  0  0  0  0  0  0  0
   27.1645  -20.6906   -8.7842 C   0  0  0  0  0  0  0  0  0  0  0  0
   26.6392  -21.3358  -10.0558 C   0  0  0  0  0  0  0  0  0  0  0  0
   25.4294  -20.6428  -10.5784 C   0  0  2  0  0  0  0  0  0  0  0  0
   24.2016  -20.8679   -9.7285 C   0  0  0  0  0  0  0  0  0  0  0  0
   25.0529  -20.9706  -11.9982 C   0  0  2  0  0  0  0  0  0  0  0  0
   26.2074  -20.5209  -12.8091 N   0  0  0  0  0  0  0  0  0  0  0  0
   23.8569  -20.2176  -12.3880 C   0  0  0  0  0  0  0  0  0  0  0  0
   23.9011  -19.0132  -12.7257 O   0  0  0  0  0  0  0  0  0  0  0  0
   22.7291  -21.0828  -17.2822 N   0  0  0  0  0  0  0  0  0  0  0  0
   21.5461  -20.3267  -17.0843 C   0  0  0  0  0  0  0  0  0  0  0  0
   20.8284  -20.0295  -18.0766 O   0  0  0  0  0  0  0  0  0  0  0  0
   21.1623  -19.9034  -15.7439 C   0  0  0  0  0  0  0  0  0  0  0  0
   22.0259  -20.3025  -14.6205 C   0  0  0  0  0  0  0  0  0  0  0  0
   21.4650  -20.3501  -13.2505 C   0  0  2  0  0  0  0  0  0  0  0  0
   22.5763  -20.8337  -12.3990 N   0  0  0  0  0  0  0  0  0  0  0  0
   20.2527  -21.0880  -12.9934 C   0  0  0  0  0  0  0  0  0  0  0  0
   19.1210  -20.5407  -13.1573 O   0  0  0  0  0  0  0  0  0  0  0  0
   20.2419  -22.4063  -12.5695 O   0  0  0  0  0  0  0  0  0  0  0  0
  2  1  1  0
  3  2  2  0
  4  2  1  0
  5  4  1  0
  6  7  1  6
  6  5  1  0
  8  6  1  0
  9  8  2  0
 10 11  1  0
 11 12  1  0
 12 14  1  0
 12 13  1  1
 14 15  1  6
 15  8  1  0
 16 14  1  0
 16 17  2  0
 18 19  1  0
 19 21  1  0
 20 19  2  0
 21 22  1  0
 23 22  1  6
 23 24  1  0
 24 16  1  0
 25 23  1  0
 26 25  2  0
 27 25  1  0
M  END
$$$$
