ATK.pdb
     RDKit          3D

 22 21  0  0  1  0  0  0  0  0999 V2000
    8.5092  -12.1079   19.7300 C   0  0  0  0  0  0  0  0  0  0  0  0
    8.7427  -13.3370   18.8777 C   0  0  2  0  0  0  0  0  0  0  0  0
    7.8119  -13.2534   17.7535 N   0  0  0  0  0  0  0  0  0  0  0  0
    8.4996  -14.5725   19.6663 C   0  0  0  0  0  0  0  0  0  0  0  0
    7.5375  -15.2901   19.3218 O   0  0  0  0  0  0  0  0  0  0  0  0
    8.3482  -17.2659   19.3750 C   0  0  0  0  0  0  0  0  0  0  0  0
    9.5032  -17.2727   20.3711 C   0  0  1  0  0  0  0  0  0  0  0  0
   10.6530  -17.3314   19.6205 O   0  0  0  0  0  0  0  0  0  0  0  0
    9.4238  -16.2029   21.3884 C   0  0  2  0  0  0  0  0  0  0  0  0
    9.3122  -14.9283   20.7564 N   0  0  0  0  0  0  0  0  0  0  0  0
   10.4450  -16.2154   22.4480 C   0  0  0  0  0  0  0  0  0  0  0  0
   11.5444  -15.6593   22.2575 O   0  0  0  0  0  0  0  0  0  0  0  0
   10.2816  -16.8293   23.7190 N   0  0  0  0  0  0  0  0  0  0  0  0
   11.3204  -16.8186   24.7346 C   0  0  1  0  0  0  0  0  0  0  0  0
   10.7321  -17.3055   26.0234 C   0  0  0  0  0  0  0  0  0  0  0  0
   11.6990  -17.4459   27.1395 C   0  0  0  0  0  0  0  0  0  0  0  0
   11.0868  -17.8733   28.4428 C   0  0  0  0  0  0  0  0  0  0  0  0
   12.1213  -17.9624   29.5542 C   0  0  0  0  0  0  0  0  0  0  0  0
   11.4588  -18.3732   30.7785 N   0  0  0  0  0  0  0  0  0  0  0  0
   12.4979  -17.6171   24.3143 C   0  0  0  0  0  0  0  0  0  0  0  0
   13.7868  -17.1911   24.6071 O   0  0  0  0  0  0  0  0  0  0  0  0
   12.3871  -18.6979   23.6846 O   0  0  0  0  0  0  0  0  0  0  0  0
  2  1  1  1
  2  3  1  0
  4  2  1  0
  4  5  2  0
  7  9  1  0
  7  6  1  6
  8  7  1  0
  9 10  1  6
  9 11  1  0
 10  4  1  0
 11 13  1  0
 12 11  2  0
 13 14  1  0
 14 15  1  1
 15 16  1  0
 17 16  1  0
 18 19  1  0
 18 17  1  0
 20 14  1  0
 20 21  1  0
 22 20  2  0
M  END
$$$$
