ATK.pdb
     RDKit          3D

 22 21  0  0  1  0  0  0  0  0999 V2000
    8.2486  -18.2491   16.7991 C   0  0  0  0  0  0  0  0  0  0  0  0
    8.5820  -16.7810   16.6403 C   0  0  2  0  0  0  0  0  0  0  0  0
    9.5493  -16.6841   15.5484 N   0  0  0  0  0  0  0  0  0  0  0  0
    9.1578  -16.2380   17.8977 C   0  0  0  0  0  0  0  0  0  0  0  0
   10.3913  -16.3497   18.0562 O   0  0  0  0  0  0  0  0  0  0  0  0
    7.6668  -12.8592   19.3932 C   0  0  0  0  0  0  0  0  0  0  0  0
    7.8403  -13.9269   20.4686 C   0  0  1  0  0  0  0  0  0  0  0  0
    6.5716  -14.3034   20.8395 O   0  0  0  0  0  0  0  0  0  0  0  0
    8.7751  -15.0091   20.0936 C   0  0  2  0  0  0  0  0  0  0  0  0
    8.3567  -15.6222   18.8747 N   0  0  0  0  0  0  0  0  0  0  0  0
    9.1012  -15.9969   21.1345 C   0  0  0  0  0  0  0  0  0  0  0  0
    8.5753  -17.1269   21.1049 O   0  0  0  0  0  0  0  0  0  0  0  0
    9.9981  -15.7672   22.2124 N   0  0  0  0  0  0  0  0  0  0  0  0
   10.2937  -16.7758   23.2154 C   0  0  1  0  0  0  0  0  0  0  0  0
   11.6281  -17.3811   22.9039 C   0  0  0  0  0  0  0  0  0  0  0  0
   12.0519  -18.4679   23.8202 C   0  0  0  0  0  0  0  0  0  0  0  0
   13.3778  -19.0864   23.4804 C   0  0  0  0  0  0  0  0  0  0  0  0
   13.7332  -20.2237   24.4258 C   0  0  0  0  0  0  0  0  0  0  0  0
   15.0502  -20.7257   24.0799 N   0  0  0  0  0  0  0  0  0  0  0  0
   10.2361  -16.2109   24.5859 C   0  0  0  0  0  0  0  0  0  0  0  0
   10.2019  -17.0433   25.6970 O   0  0  0  0  0  0  0  0  0  0  0  0
   10.2160  -14.9742   24.8030 O   0  0  0  0  0  0  0  0  0  0  0  0
  2  1  1  1
  2  3  1  0
  4  2  1  0
  4  5  2  0
  7  9  1  0
  7  6  1  6
  8  7  1  0
  9 10  1  6
  9 11  1  0
 10  4  1  0
 11 13  1  0
 12 11  2  0
 13 14  1  0
 14 15  1  6
 15 16  1  0
 17 16  1  0
 18 19  1  0
 18 17  1  0
 20 14  1  0
 20 21  1  0
 22 20  2  0
M  END
$$$$
