ATK.pdb
     RDKit          3D

 22 21  0  0  1  0  0  0  0  0999 V2000
    8.5398  -12.2129   19.0291 C   0  0  0  0  0  0  0  0  0  0  0  0
    8.6856  -13.6560   18.5957 C   0  0  2  0  0  0  0  0  0  0  0  0
    7.8495  -13.8260   17.4086 N   0  0  0  0  0  0  0  0  0  0  0  0
    8.2467  -14.5729   19.6792 C   0  0  0  0  0  0  0  0  0  0  0  0
    7.0300  -14.8480   19.7370 O   0  0  0  0  0  0  0  0  0  0  0  0
    8.8927  -17.9020   19.8486 C   0  0  0  0  0  0  0  0  0  0  0  0
    9.4444  -17.4084   21.1822 C   0  0  1  0  0  0  0  0  0  0  0  0
   10.8116  -17.5154   21.0918 O   0  0  0  0  0  0  0  0  0  0  0  0
    8.9037  -16.0995   21.6069 C   0  0  2  0  0  0  0  0  0  0  0  0
    9.1544  -15.1138   20.6059 N   0  0  0  0  0  0  0  0  0  0  0  0
    9.2686  -15.6348   22.9547 C   0  0  0  0  0  0  0  0  0  0  0  0
   10.2708  -14.9101   23.1116 O   0  0  0  0  0  0  0  0  0  0  0  0
    8.5506  -15.9514   24.1393 N   0  0  0  0  0  0  0  0  0  0  0  0
    8.9427  -15.4600   25.4491 C   0  0  1  0  0  0  0  0  0  0  0  0
    7.7393  -14.8667   26.1154 C   0  0  0  0  0  0  0  0  0  0  0  0
    7.6383  -13.3895   26.0250 C   0  0  0  0  0  0  0  0  0  0  0  0
    6.4087  -12.8099   26.6639 C   0  0  0  0  0  0  0  0  0  0  0  0
    6.3562  -11.2961   26.5254 C   0  0  0  0  0  0  0  0  0  0  0  0
    5.0676  -10.8270   27.0002 N   0  0  0  0  0  0  0  0  0  0  0  0
    9.5695  -16.5293   26.2642 C   0  0  0  0  0  0  0  0  0  0  0  0
   10.2765  -16.2208   27.4189 O   0  0  0  0  0  0  0  0  0  0  0  0
    9.4920  -17.7438   25.9541 O   0  0  0  0  0  0  0  0  0  0  0  0
  2  1  1  1
  2  3  1  0
  4  2  1  0
  4  5  2  0
  7  9  1  0
  7  6  1  6
  8  7  1  0
  9 10  1  6
  9 11  1  0
 10  4  1  0
 11 13  1  0
 12 11  2  0
 13 14  1  0
 14 15  1  1
 15 16  1  0
 17 16  1  0
 18 19  1  0
 18 17  1  0
 20 14  1  0
 20 21  1  0
 22 20  2  0
M  END
$$$$
