ATK.pdb
     RDKit          3D

 22 21  0  0  1  0  0  0  0  0999 V2000
   10.6535  -13.4022   18.8766 C   0  0  0  0  0  0  0  0  0  0  0  0
    9.2563  -13.9114   18.5939 C   0  0  2  0  0  0  0  0  0  0  0  0
    8.6683  -13.0045   17.6095 N   0  0  0  0  0  0  0  0  0  0  0  0
    8.4453  -13.9278   19.8387 C   0  0  0  0  0  0  0  0  0  0  0  0
    7.3127  -13.4042   19.7897 O   0  0  0  0  0  0  0  0  0  0  0  0
    6.1035  -15.0446   20.7306 C   0  0  0  0  0  0  0  0  0  0  0  0
    7.0117  -15.7381   21.7410 C   0  0  1  0  0  0  0  0  0  0  0  0
    7.2854  -16.9792   21.2180 O   0  0  0  0  0  0  0  0  0  0  0  0
    8.1693  -14.9222   22.1653 C   0  0  2  0  0  0  0  0  0  0  0  0
    8.9231  -14.5057   21.0274 N   0  0  0  0  0  0  0  0  0  0  0  0
    9.0211  -15.4785   23.2286 C   0  0  0  0  0  0  0  0  0  0  0  0
    9.9616  -16.2425   22.9351 O   0  0  0  0  0  0  0  0  0  0  0  0
    8.8599  -15.2106   24.6147 N   0  0  0  0  0  0  0  0  0  0  0  0
    9.7682  -15.7270   25.6242 C   0  0  1  0  0  0  0  0  0  0  0  0
    9.6423  -14.8828   26.8553 C   0  0  0  0  0  0  0  0  0  0  0  0
   10.4606  -15.3312   28.0084 C   0  0  0  0  0  0  0  0  0  0  0  0
   10.3674  -14.4468   29.2187 C   0  0  0  0  0  0  0  0  0  0  0  0
   11.2159  -14.9667   30.3691 C   0  0  0  0  0  0  0  0  0  0  0  0
   11.0434  -14.0889   31.5119 N   0  0  0  0  0  0  0  0  0  0  0  0
    9.5165  -17.1634   25.8965 C   0  0  0  0  0  0  0  0  0  0  0  0
   10.5500  -18.0045   26.2874 O   0  0  0  0  0  0  0  0  0  0  0  0
    8.3763  -17.6783   25.7884 O   0  0  0  0  0  0  0  0  0  0  0  0
  2  1  1  1
  2  3  1  0
  4  2  1  0
  4  5  2  0
  7  9  1  0
  7  6  1  6
  8  7  1  0
  9 10  1  6
  9 11  1  0
 10  4  1  0
 11 13  1  0
 12 11  2  0
 13 14  1  0
 14 15  1  1
 15 16  1  0
 17 16  1  0
 18 19  1  0
 18 17  1  0
 20 14  1  0
 20 21  1  0
 22 20  2  0
M  END
$$$$
