ATK.pdb
     RDKit          3D

 22 21  0  0  1  0  0  0  0  0999 V2000
    8.5244  -17.6711   16.2461 C   0  0  0  0  0  0  0  0  0  0  0  0
    8.5962  -16.1592   16.2749 C   0  0  2  0  0  0  0  0  0  0  0  0
    9.3404  -15.7499   15.0850 N   0  0  0  0  0  0  0  0  0  0  0  0
    9.2837  -15.6931   17.5068 C   0  0  0  0  0  0  0  0  0  0  0  0
   10.5251  -15.5682   17.4558 O   0  0  0  0  0  0  0  0  0  0  0  0
    7.6394  -12.7666   19.5758 C   0  0  0  0  0  0  0  0  0  0  0  0
    8.0550  -13.9224   20.4802 C   0  0  1  0  0  0  0  0  0  0  0  0
    6.8884  -14.5122   20.9046 O   0  0  0  0  0  0  0  0  0  0  0  0
    9.0751  -14.8120   19.8855 C   0  0  2  0  0  0  0  0  0  0  0  0
    8.5762  -15.4021   18.6858 N   0  0  0  0  0  0  0  0  0  0  0  0
    9.6976  -15.8013   20.7797 C   0  0  0  0  0  0  0  0  0  0  0  0
    9.3140  -16.9873   20.7568 O   0  0  0  0  0  0  0  0  0  0  0  0
   10.7386  -15.5123   21.7026 N   0  0  0  0  0  0  0  0  0  0  0  0
   11.2641  -16.5021   22.6273 C   0  0  1  0  0  0  0  0  0  0  0  0
   12.6838  -16.1478   22.9486 C   0  0  0  0  0  0  0  0  0  0  0  0
   13.3728  -17.0910   23.8629 C   0  0  0  0  0  0  0  0  0  0  0  0
   14.7436  -17.5063   23.4106 C   0  0  0  0  0  0  0  0  0  0  0  0
   15.4127  -18.4392   24.4083 C   0  0  0  0  0  0  0  0  0  0  0  0
   16.7133  -18.8228   23.8911 N   0  0  0  0  0  0  0  0  0  0  0  0
   10.4205  -16.6106   23.8427 C   0  0  0  0  0  0  0  0  0  0  0  0
   10.5058  -17.7224   24.6704 O   0  0  0  0  0  0  0  0  0  0  0  0
    9.6028  -15.7173   24.1754 O   0  0  0  0  0  0  0  0  0  0  0  0
  2  1  1  1
  2  3  1  0
  4  2  1  0
  4  5  2  0
  7  9  1  0
  7  6  1  6
  8  7  1  0
  9 10  1  6
  9 11  1  0
 10  4  1  0
 11 13  1  0
 12 11  2  0
 13 14  1  0
 14 15  1  1
 15 16  1  0
 17 16  1  0
 18 19  1  0
 18 17  1  0
 20 14  1  0
 20 21  1  0
 22 20  2  0
M  END
$$$$
