ATK.pdb
     RDKit          3D

 22 21  0  0  1  0  0  0  0  0999 V2000
    6.0349  -18.6901   18.6340 C   0  0  0  0  0  0  0  0  0  0  0  0
    6.4197  -17.4140   17.9165 C   0  0  2  0  0  0  0  0  0  0  0  0
    6.7041  -17.7794   16.5299 N   0  0  0  0  0  0  0  0  0  0  0  0
    7.6147  -16.7993   18.5502 C   0  0  0  0  0  0  0  0  0  0  0  0
    8.7340  -17.1891   18.1570 O   0  0  0  0  0  0  0  0  0  0  0  0
    8.0054  -13.0346   19.0004 C   0  0  0  0  0  0  0  0  0  0  0  0
    8.2641  -13.7053   20.3457 C   0  0  1  0  0  0  0  0  0  0  0  0
    7.2233  -13.3338   21.1628 O   0  0  0  0  0  0  0  0  0  0  0  0
    8.5530  -15.1520   20.2485 C   0  0  2  0  0  0  0  0  0  0  0  0
    7.5017  -15.8194   19.5513 N   0  0  0  0  0  0  0  0  0  0  0  0
    8.9248  -15.8412   21.4944 C   0  0  0  0  0  0  0  0  0  0  0  0
    8.0374  -16.2135   22.2869 O   0  0  0  0  0  0  0  0  0  0  0  0
   10.2587  -16.1315   21.8888 N   0  0  0  0  0  0  0  0  0  0  0  0
   10.5845  -16.7310   23.1715 C   0  0  1  0  0  0  0  0  0  0  0  0
   10.9187  -18.1747   22.9517 C   0  0  0  0  0  0  0  0  0  0  0  0
   11.2773  -18.9281   24.1781 C   0  0  0  0  0  0  0  0  0  0  0  0
   11.7786  -20.3216   23.9278 C   0  0  0  0  0  0  0  0  0  0  0  0
   12.1028  -21.0501   25.2231 C   0  0  0  0  0  0  0  0  0  0  0  0
   12.6550  -22.3532   24.9017 N   0  0  0  0  0  0  0  0  0  0  0  0
   11.6786  -15.9956   23.8517 C   0  0  0  0  0  0  0  0  0  0  0  0
   12.4949  -15.1224   23.1448 O   0  0  0  0  0  0  0  0  0  0  0  0
   11.9148  -16.1253   25.0783 O   0  0  0  0  0  0  0  0  0  0  0  0
  2  1  1  1
  2  3  1  0
  4  2  1  0
  4  5  2  0
  7  9  1  0
  7  6  1  6
  8  7  1  0
  9 10  1  1
  9 11  1  0
 10  4  1  0
 11 13  1  0
 12 11  2  0
 13 14  1  0
 14 15  1  6
 15 16  1  0
 17 16  1  0
 18 19  1  0
 18 17  1  0
 20 14  1  0
 20 21  1  0
 22 20  2  0
M  END
$$$$
