ATK.pdb
     RDKit          3D

 22 21  0  0  1  0  0  0  0  0999 V2000
    8.4882  -12.4683   18.3643 C   0  0  0  0  0  0  0  0  0  0  0  0
    8.7322  -13.9297   18.0536 C   0  0  2  0  0  0  0  0  0  0  0  0
    7.9456  -14.2443   16.8623 N   0  0  0  0  0  0  0  0  0  0  0  0
    8.3139  -14.7826   19.1959 C   0  0  0  0  0  0  0  0  0  0  0  0
    7.1098  -15.1082   19.2550 O   0  0  0  0  0  0  0  0  0  0  0  0
    9.2781  -18.0871   19.8728 C   0  0  0  0  0  0  0  0  0  0  0  0
    9.6542  -17.3435   21.1503 C   0  0  1  0  0  0  0  0  0  0  0  0
   11.0277  -17.3356   21.1960 O   0  0  0  0  0  0  0  0  0  0  0  0
    8.9734  -16.0406   21.3080 C   0  0  2  0  0  0  0  0  0  0  0  0
    9.2269  -15.2110   20.1748 N   0  0  0  0  0  0  0  0  0  0  0  0
    9.1823  -15.3306   22.5800 C   0  0  0  0  0  0  0  0  0  0  0  0
   10.1218  -14.5187   22.6911 O   0  0  0  0  0  0  0  0  0  0  0  0
    8.3754  -15.4953   23.7379 N   0  0  0  0  0  0  0  0  0  0  0  0
    8.5995  -14.7470   24.9630 C   0  0  1  0  0  0  0  0  0  0  0  0
    7.3633  -13.9600   25.2737 C   0  0  0  0  0  0  0  0  0  0  0  0
    7.4589  -13.0913   26.4722 C   0  0  0  0  0  0  0  0  0  0  0  0
    6.2137  -12.3071   26.7730 C   0  0  0  0  0  0  0  0  0  0  0  0
    6.3976  -11.3857   27.9692 C   0  0  0  0  0  0  0  0  0  0  0  0
    5.2057  -10.5716   28.1205 N   0  0  0  0  0  0  0  0  0  0  0  0
    8.9955  -15.6402   26.0793 C   0  0  0  0  0  0  0  0  0  0  0  0
    9.6024  -15.1280   27.2185 O   0  0  0  0  0  0  0  0  0  0  0  0
    8.8041  -16.8810   26.0478 O   0  0  0  0  0  0  0  0  0  0  0  0
  2  1  1  1
  2  3  1  0
  4  2  1  0
  4  5  2  0
  7  9  1  0
  7  6  1  6
  8  7  1  0
  9 10  1  6
  9 11  1  0
 10  4  1  0
 11 13  1  0
 12 11  2  0
 13 14  1  0
 14 15  1  1
 15 16  1  0
 17 16  1  0
 18 19  1  0
 18 17  1  0
 20 14  1  0
 20 21  1  0
 22 20  2  0
M  END
$$$$
