ATK.pdb
     RDKit          3D

 22 21  0  0  1  0  0  0  0  0999 V2000
    7.8030  -12.2064   20.2500 C   0  0  0  0  0  0  0  0  0  0  0  0
    8.2670  -13.3630   19.3905 C   0  0  2  0  0  0  0  0  0  0  0  0
    7.3647  -13.4230   18.2419 N   0  0  0  0  0  0  0  0  0  0  0  0
    8.2208  -14.6344   20.1579 C   0  0  0  0  0  0  0  0  0  0  0  0
    7.1482  -15.2734   20.1408 O   0  0  0  0  0  0  0  0  0  0  0  0
    9.3801  -17.4961   19.2112 C   0  0  0  0  0  0  0  0  0  0  0  0
   10.1558  -17.3143   20.5119 C   0  0  1  0  0  0  0  0  0  0  0  0
   11.4487  -17.0247   20.1469 O   0  0  0  0  0  0  0  0  0  0  0  0
    9.5103  -16.3926   21.4709 C   0  0  2  0  0  0  0  0  0  0  0  0
    9.3321  -15.1075   20.8765 N   0  0  0  0  0  0  0  0  0  0  0  0
   10.1020  -16.3107   22.8158 C   0  0  0  0  0  0  0  0  0  0  0  0
   10.7632  -15.3058   23.1434 O   0  0  0  0  0  0  0  0  0  0  0  0
    9.9808  -17.3154   23.8133 N   0  0  0  0  0  0  0  0  0  0  0  0
   10.6710  -17.2409   25.0896 C   0  0  1  0  0  0  0  0  0  0  0  0
   10.1627  -18.3402   25.9712 C   0  0  0  0  0  0  0  0  0  0  0  0
    8.6855  -18.4298   26.0717 C   0  0  0  0  0  0  0  0  0  0  0  0
    8.1893  -19.4834   27.0202 C   0  0  0  0  0  0  0  0  0  0  0  0
    6.6721  -19.4815   27.1282 C   0  0  0  0  0  0  0  0  0  0  0  0
    6.2627  -20.5760   27.9889 N   0  0  0  0  0  0  0  0  0  0  0  0
   12.1431  -17.2931   24.9139 C   0  0  0  0  0  0  0  0  0  0  0  0
   12.7012  -17.6869   23.7048 O   0  0  0  0  0  0  0  0  0  0  0  0
   12.9412  -16.9889   25.8346 O   0  0  0  0  0  0  0  0  0  0  0  0
  2  1  1  1
  2  3  1  0
  4  2  1  0
  4  5  2  0
  7  9  1  0
  7  6  1  6
  8  7  1  0
  9 10  1  6
  9 11  1  0
 10  4  1  0
 11 13  1  0
 12 11  2  0
 13 14  1  0
 14 15  1  1
 15 16  1  0
 17 16  1  0
 18 19  1  0
 18 17  1  0
 20 14  1  0
 20 21  1  0
 22 20  2  0
M  END
$$$$
