EQD.pdb
     RDKit          3D

 27 26  0  0  1  0  0  0  0  0999 V2000
   18.3361  -14.2769  -14.7432 N   0  0  0  0  0  0  0  0  0  0  0  0
   18.6907  -13.9358  -16.1060 C   0  0  1  0  0  0  0  0  0  0  0  0
   18.1843  -14.8782  -17.1170 C   0  0  0  0  0  0  0  0  0  0  0  0
   17.1194  -15.8286  -16.7425 C   0  0  0  0  0  0  0  0  0  0  0  0
   17.1777  -17.1797  -17.2555 C   0  0  0  0  0  0  0  0  0  0  0  0
   18.0801  -17.5362  -18.0459 O   0  0  0  0  0  0  0  0  0  0  0  0
   18.4449  -12.5145  -16.3800 C   0  0  0  0  0  0  0  0  0  0  0  0
   18.7942  -12.0344  -17.4932 O   0  0  0  0  0  0  0  0  0  0  0  0
   16.2384  -18.1301  -16.8935 O   0  0  0  0  0  0  0  0  0  0  0  0
   13.9436   -9.2383  -13.8402 N   0  0  0  0  0  0  0  0  0  0  0  0
   13.8625  -10.0552  -14.9908 C   0  0  0  0  0  0  0  0  0  0  0  0
   12.7630  -10.4989  -15.3702 O   0  0  0  0  0  0  0  0  0  0  0  0
   15.0792  -10.4139  -15.7879 C   0  0  0  0  0  0  0  0  0  0  0  0
   16.2815   -9.8158  -15.1286 C   0  0  0  0  0  0  0  0  0  0  0  0
   17.5432  -10.2762  -15.8286 C   0  0  2  0  0  0  0  0  0  0  0  0
   17.8296  -11.6553  -15.4569 N   0  0  0  0  0  0  0  0  0  0  0  0
   18.7051   -9.4306  -15.5496 C   0  0  0  0  0  0  0  0  0  0  0  0
   19.7978   -9.9173  -15.0965 O   0  0  0  0  0  0  0  0  0  0  0  0
   18.7550   -8.0063  -15.7455 N   0  0  0  0  0  0  0  0  0  0  0  0
   19.9643   -7.2455  -15.4996 C   0  0  1  0  0  0  0  0  0  0  0  0
   21.1788   -7.8333  -16.1510 C   0  0  0  0  0  0  0  0  0  0  0  0
   22.3825   -6.9977  -16.0649 C   0  0  0  0  0  0  0  0  0  0  0  0
   22.5253   -6.2161  -15.0970 O   0  0  0  0  0  0  0  0  0  0  0  0
   19.7633   -5.8007  -15.7934 C   0  0  0  0  0  0  0  0  0  0  0  0
   19.0706   -5.3949  -16.7656 O   0  0  0  0  0  0  0  0  0  0  0  0
   23.3755   -7.0442  -17.0265 O   0  0  0  0  0  0  0  0  0  0  0  0
   20.3274   -4.8042  -15.0120 O   0  0  0  0  0  0  0  0  0  0  0  0
  2  1  1  1
  2  7  1  0
  3  2  1  0
  3  4  1  0
  4  5  1  0
  5  6  2  0
  7  8  2  0
  9  5  1  0
 11 10  1  0
 11 13  1  0
 12 11  2  0
 14 13  1  0
 15 14  1  1
 16 15  1  0
 16  7  1  0
 17 15  1  0
 17 19  1  0
 18 17  2  0
 20 19  1  0
 20 21  1  6
 22 21  1  0
 22 26  1  0
 23 22  2  0
 24 20  1  0
 24 27  1  0
 25 24  2  0
M  END
$$$$
