EQD.pdb
     RDKit          3D

 27 26  0  0  1  0  0  0  0  0999 V2000
   15.8582  -12.1946  -11.4251 N   0  0  0  0  0  0  0  0  0  0  0  0
   15.5698  -10.8846  -11.9726 C   0  0  1  0  0  0  0  0  0  0  0  0
   14.1545  -10.6702  -12.3157 C   0  0  0  0  0  0  0  0  0  0  0  0
   13.5212  -11.5401  -13.3254 C   0  0  0  0  0  0  0  0  0  0  0  0
   14.2280  -11.8070  -14.5587 C   0  0  0  0  0  0  0  0  0  0  0  0
   14.7296  -10.8802  -15.2337 O   0  0  0  0  0  0  0  0  0  0  0  0
   16.2001   -9.8244  -11.1763 C   0  0  0  0  0  0  0  0  0  0  0  0
   16.0945   -9.8552   -9.9195 O   0  0  0  0  0  0  0  0  0  0  0  0
   14.3763  -13.0962  -15.0408 O   0  0  0  0  0  0  0  0  0  0  0  0
   21.0130   -6.1791  -12.7409 N   0  0  0  0  0  0  0  0  0  0  0  0
   21.0191   -7.5380  -12.3520 C   0  0  0  0  0  0  0  0  0  0  0  0
   22.0275   -8.2421  -12.5439 O   0  0  0  0  0  0  0  0  0  0  0  0
   19.8290   -8.1752  -11.7022 C   0  0  0  0  0  0  0  0  0  0  0  0
   18.7356   -7.1596  -11.5965 C   0  0  0  0  0  0  0  0  0  0  0  0
   17.5340   -7.7582  -10.8953 C   0  0  2  0  0  0  0  0  0  0  0  0
   16.9264   -8.7695  -11.7498 N   0  0  0  0  0  0  0  0  0  0  0  0
   16.5325   -6.7641  -10.5059 C   0  0  0  0  0  0  0  0  0  0  0  0
   15.7167   -6.2634  -11.3543 O   0  0  0  0  0  0  0  0  0  0  0  0
   16.3526   -6.2523   -9.1735 N   0  0  0  0  0  0  0  0  0  0  0  0
   15.4113   -5.1877   -8.8872 C   0  0  1  0  0  0  0  0  0  0  0  0
   15.0589   -5.0806   -7.4349 C   0  0  0  0  0  0  0  0  0  0  0  0
   14.0900   -4.0245   -7.1180 C   0  0  0  0  0  0  0  0  0  0  0  0
   14.3721   -3.1657   -6.2515 O   0  0  0  0  0  0  0  0  0  0  0  0
   15.8468   -3.9022   -9.4974 C   0  0  0  0  0  0  0  0  0  0  0  0
   17.0341   -3.4840   -9.4259 O   0  0  0  0  0  0  0  0  0  0  0  0
   12.8626   -3.9443   -7.7502 O   0  0  0  0  0  0  0  0  0  0  0  0
   14.9700   -3.0793  -10.1872 O   0  0  0  0  0  0  0  0  0  0  0  0
  2  1  1  1
  2  7  1  0
  3  2  1  0
  3  4  1  0
  4  5  1  0
  5  6  2  0
  7  8  2  0
  9  5  1  0
 11 10  1  0
 11 13  1  0
 12 11  2  0
 14 13  1  0
 15 14  1  6
 16 15  1  0
 16  7  1  0
 17 15  1  0
 17 19  1  0
 18 17  2  0
 20 19  1  0
 20 21  1  1
 22 21  1  0
 22 26  1  0
 23 22  2  0
 24 20  1  0
 24 27  1  0
 25 24  2  0
M  END
$$$$
