EQD.pdb
     RDKit          3D

 27 26  0  0  1  0  0  0  0  0999 V2000
   17.4099  -12.8176  -16.7787 N   0  0  0  0  0  0  0  0  0  0  0  0
   17.6903  -11.9428  -15.6583 C   0  0  1  0  0  0  0  0  0  0  0  0
   18.8979  -11.1173  -15.8224 C   0  0  0  0  0  0  0  0  0  0  0  0
   20.2017  -11.7824  -16.0098 C   0  0  0  0  0  0  0  0  0  0  0  0
   21.4060  -10.9826  -15.9655 C   0  0  0  0  0  0  0  0  0  0  0  0
   22.1656  -10.8966  -16.9565 O   0  0  0  0  0  0  0  0  0  0  0  0
   16.4831  -11.2273  -15.2266 C   0  0  0  0  0  0  0  0  0  0  0  0
   15.6281  -10.8887  -16.0903 O   0  0  0  0  0  0  0  0  0  0  0  0
   21.7659  -10.2826  -14.8267 O   0  0  0  0  0  0  0  0  0  0  0  0
   12.9206  -11.6855  -10.2668 N   0  0  0  0  0  0  0  0  0  0  0  0
   12.4089  -10.5324  -10.9041 C   0  0  0  0  0  0  0  0  0  0  0  0
   11.3529  -10.0091  -10.5032 O   0  0  0  0  0  0  0  0  0  0  0  0
   13.1076   -9.9033  -12.0706 C   0  0  0  0  0  0  0  0  0  0  0  0
   14.3584  -10.6725  -12.3559 C   0  0  0  0  0  0  0  0  0  0  0  0
   15.0789  -10.0737  -13.5459 C   0  0  2  0  0  0  0  0  0  0  0  0
   16.2281  -10.9021  -13.8856 N   0  0  0  0  0  0  0  0  0  0  0  0
   15.5050   -8.6896  -13.3322 C   0  0  0  0  0  0  0  0  0  0  0  0
   16.4496   -8.3943  -12.5219 O   0  0  0  0  0  0  0  0  0  0  0  0
   14.9348   -7.5408  -13.9840 N   0  0  0  0  0  0  0  0  0  0  0  0
   15.4384   -6.2024  -13.7466 C   0  0  1  0  0  0  0  0  0  0  0  0
   16.4693   -5.7698  -14.7441 C   0  0  0  0  0  0  0  0  0  0  0  0
   16.9191   -4.3806  -14.5938 C   0  0  0  0  0  0  0  0  0  0  0  0
   16.4497   -3.6745  -13.6723 O   0  0  0  0  0  0  0  0  0  0  0  0
   14.3263   -5.2296  -13.5698 C   0  0  0  0  0  0  0  0  0  0  0  0
   13.1721   -5.4246  -14.0383 O   0  0  0  0  0  0  0  0  0  0  0  0
   17.8537   -3.8184  -15.4442 O   0  0  0  0  0  0  0  0  0  0  0  0
   14.4897   -4.0416  -12.8743 O   0  0  0  0  0  0  0  0  0  0  0  0
  2  1  1  6
  2  7  1  0
  3  2  1  0
  3  4  1  0
  4  5  1  0
  5  6  2  0
  7  8  2  0
  9  5  1  0
 11 10  1  0
 11 13  1  0
 12 11  2  0
 14 13  1  0
 15 14  1  1
 16 15  1  0
 16  7  1  0
 17 15  1  0
 17 19  1  0
 18 17  2  0
 20 19  1  0
 20 21  1  6
 22 21  1  0
 22 26  1  0
 23 22  2  0
 24 20  1  0
 24 27  1  0
 25 24  2  0
M  END
$$$$
