EQD.pdb
     RDKit          3D

 27 26  0  0  1  0  0  0  0  0999 V2000
   18.5515  -11.4300  -18.0062 N   0  0  0  0  0  0  0  0  0  0  0  0
   18.2640  -10.0438  -18.3145 C   0  0  1  0  0  0  0  0  0  0  0  0
   16.9576   -9.8250  -18.9565 C   0  0  0  0  0  0  0  0  0  0  0  0
   16.6717  -10.4850  -20.2450 C   0  0  0  0  0  0  0  0  0  0  0  0
   17.1881   -9.8957  -21.4608 C   0  0  0  0  0  0  0  0  0  0  0  0
   17.9872  -10.5182  -22.1959 O   0  0  0  0  0  0  0  0  0  0  0  0
   18.5676   -9.1709  -17.1738 C   0  0  0  0  0  0  0  0  0  0  0  0
   18.4659   -9.6316  -16.0037 O   0  0  0  0  0  0  0  0  0  0  0  0
   16.8202   -8.6217  -21.8579 O   0  0  0  0  0  0  0  0  0  0  0  0
   22.1729   -9.1553  -13.7658 N   0  0  0  0  0  0  0  0  0  0  0  0
   21.7614   -7.8707  -13.3438 C   0  0  0  0  0  0  0  0  0  0  0  0
   22.1726   -7.4013  -12.2666 O   0  0  0  0  0  0  0  0  0  0  0  0
   20.8276   -7.0350  -14.1649 C   0  0  0  0  0  0  0  0  0  0  0  0
   20.4355   -7.8069  -15.3848 C   0  0  0  0  0  0  0  0  0  0  0  0
   19.3625   -7.0615  -16.1510 C   0  0  2  0  0  0  0  0  0  0  0  0
   18.9746   -7.8361  -17.3222 N   0  0  0  0  0  0  0  0  0  0  0  0
   19.7653   -5.7129  -16.5535 C   0  0  0  0  0  0  0  0  0  0  0  0
   20.5926   -5.5151  -17.5087 O   0  0  0  0  0  0  0  0  0  0  0  0
   19.2956   -4.4960  -15.9468 N   0  0  0  0  0  0  0  0  0  0  0  0
   19.6213   -3.1952  -16.4976 C   0  0  1  0  0  0  0  0  0  0  0  0
   19.4068   -3.1060  -17.9778 C   0  0  0  0  0  0  0  0  0  0  0  0
   19.5925   -1.7636  -18.5417 C   0  0  0  0  0  0  0  0  0  0  0  0
   20.7076   -1.2018  -18.4478 O   0  0  0  0  0  0  0  0  0  0  0  0
   18.9672   -2.1027  -15.7276 C   0  0  0  0  0  0  0  0  0  0  0  0
   17.9947   -2.3066  -14.9514 O   0  0  0  0  0  0  0  0  0  0  0  0
   18.5670   -1.0904  -19.1803 O   0  0  0  0  0  0  0  0  0  0  0  0
   19.3885   -0.7849  -15.8149 O   0  0  0  0  0  0  0  0  0  0  0  0
  2  1  1  1
  2  7  1  0
  3  2  1  0
  3  4  1  0
  4  5  1  0
  5  6  2  0
  7  8  2  0
  9  5  1  0
 11 10  1  0
 11 13  1  0
 12 11  2  0
 14 13  1  0
 15 14  1  6
 16 15  1  0
 16  7  1  0
 17 15  1  0
 17 19  1  0
 18 17  2  0
 20 19  1  0
 20 21  1  6
 22 21  1  0
 22 26  1  0
 23 22  2  0
 24 20  1  0
 24 27  1  0
 25 24  2  0
M  END
$$$$
