EQD.pdb
     RDKit          3D

 27 26  0  0  1  0  0  0  0  0999 V2000
   20.8124  -15.5372  -17.3738 N   0  0  0  0  0  0  0  0  0  0  0  0
   21.3264  -14.3834  -18.0835 C   0  0  1  0  0  0  0  0  0  0  0  0
   20.5283  -13.9889  -19.2557 C   0  0  0  0  0  0  0  0  0  0  0  0
   19.0605  -13.9054  -19.1293 C   0  0  0  0  0  0  0  0  0  0  0  0
   18.2745  -13.6056  -20.3059 C   0  0  0  0  0  0  0  0  0  0  0  0
   17.0268  -13.5255  -20.2506 O   0  0  0  0  0  0  0  0  0  0  0  0
   21.6750  -13.3000  -17.1561 C   0  0  0  0  0  0  0  0  0  0  0  0
   20.9219  -13.0691  -16.1706 O   0  0  0  0  0  0  0  0  0  0  0  0
   18.8705  -13.3968  -21.5378 O   0  0  0  0  0  0  0  0  0  0  0  0
   27.3324  -10.9102  -15.9812 N   0  0  0  0  0  0  0  0  0  0  0  0
   26.4851  -10.1987  -15.1017 C   0  0  0  0  0  0  0  0  0  0  0  0
   26.9676   -9.4415  -14.2395 O   0  0  0  0  0  0  0  0  0  0  0  0
   24.9939  -10.3259  -15.1718 C   0  0  0  0  0  0  0  0  0  0  0  0
   24.6437  -11.3156  -16.2374 C   0  0  0  0  0  0  0  0  0  0  0  0
   23.1415  -11.4941  -16.3099 C   0  0  2  0  0  0  0  0  0  0  0  0
   22.8196  -12.5030  -17.3103 N   0  0  0  0  0  0  0  0  0  0  0  0
   22.4212  -10.2533  -16.6002 C   0  0  0  0  0  0  0  0  0  0  0  0
   22.3077   -9.8048  -17.7927 O   0  0  0  0  0  0  0  0  0  0  0  0
   21.7787   -9.4228  -15.6167 N   0  0  0  0  0  0  0  0  0  0  0  0
   21.1204   -8.1832  -15.9793 C   0  0  1  0  0  0  0  0  0  0  0  0
   19.7383   -8.0572  -15.4149 C   0  0  0  0  0  0  0  0  0  0  0  0
   19.0615   -6.7943  -15.7337 C   0  0  0  0  0  0  0  0  0  0  0  0
   19.4342   -6.1254  -16.7244 O   0  0  0  0  0  0  0  0  0  0  0  0
   21.9918   -7.0083  -15.7060 C   0  0  0  0  0  0  0  0  0  0  0  0
   21.6183   -5.8223  -15.9148 O   0  0  0  0  0  0  0  0  0  0  0  0
   18.0147   -6.3122  -14.9691 O   0  0  0  0  0  0  0  0  0  0  0  0
   23.2757   -7.1442  -15.2013 O   0  0  0  0  0  0  0  0  0  0  0  0
  2  1  1  1
  2  7  1  0
  3  2  1  0
  3  4  1  0
  4  5  1  0
  5  6  2  0
  7  8  2  0
  9  5  1  0
 11 10  1  0
 11 13  1  0
 12 11  2  0
 14 13  1  0
 15 14  1  6
 16 15  1  0
 16  7  1  0
 17 15  1  0
 17 19  1  0
 18 17  2  0
 20 19  1  0
 20 21  1  1
 22 21  1  0
 22 26  1  0
 23 22  2  0
 24 20  1  0
 24 27  1  0
 25 24  2  0
M  END
$$$$
