EQD.pdb
     RDKit          3D

 27 26  0  0  1  0  0  0  0  0999 V2000
   18.8906  -16.5202  -16.1477 N   0  0  0  0  0  0  0  0  0  0  0  0
   19.8291  -15.5240  -16.6229 C   0  0  1  0  0  0  0  0  0  0  0  0
   20.6177  -15.9446  -17.7925 C   0  0  0  0  0  0  0  0  0  0  0  0
   19.9416  -16.6518  -18.8971 C   0  0  0  0  0  0  0  0  0  0  0  0
   20.0474  -18.0924  -18.9720 C   0  0  0  0  0  0  0  0  0  0  0  0
   19.1721  -18.8349  -18.4733 O   0  0  0  0  0  0  0  0  0  0  0  0
   19.1975  -14.2023  -16.7221 C   0  0  0  0  0  0  0  0  0  0  0  0
   18.3539  -13.9919  -17.6364 O   0  0  0  0  0  0  0  0  0  0  0  0
   21.1200  -18.7055  -19.5965 O   0  0  0  0  0  0  0  0  0  0  0  0
   15.1567  -11.9895  -16.0675 N   0  0  0  0  0  0  0  0  0  0  0  0
   15.5935  -10.7189  -15.6288 C   0  0  0  0  0  0  0  0  0  0  0  0
   14.8525   -9.7253  -15.7439 O   0  0  0  0  0  0  0  0  0  0  0  0
   16.9463  -10.5208  -15.0163 C   0  0  0  0  0  0  0  0  0  0  0  0
   17.6444  -11.8423  -14.9508 C   0  0  0  0  0  0  0  0  0  0  0  0
   18.7738  -11.8859  -15.9591 C   0  0  2  0  0  0  0  0  0  0  0  0
   19.4850  -13.1514  -15.8378 N   0  0  0  0  0  0  0  0  0  0  0  0
   19.7121  -10.7697  -15.8307 C   0  0  0  0  0  0  0  0  0  0  0  0
   20.6286  -10.7609  -14.9386 O   0  0  0  0  0  0  0  0  0  0  0  0
   19.7159   -9.5953  -16.6616 N   0  0  0  0  0  0  0  0  0  0  0  0
   20.6501   -8.5091  -16.4408 C   0  0  1  0  0  0  0  0  0  0  0  0
   21.1648   -7.9008  -17.7096 C   0  0  0  0  0  0  0  0  0  0  0  0
   22.0855   -6.7740  -17.5168 C   0  0  0  0  0  0  0  0  0  0  0  0
   21.7061   -5.6117  -17.7870 O   0  0  0  0  0  0  0  0  0  0  0  0
   20.1066   -7.5165  -15.4745 C   0  0  0  0  0  0  0  0  0  0  0  0
   18.8698   -7.3498  -15.2949 O   0  0  0  0  0  0  0  0  0  0  0  0
   23.3719   -6.9537  -17.0418 O   0  0  0  0  0  0  0  0  0  0  0  0
   20.9303   -6.7085  -14.7060 O   0  0  0  0  0  0  0  0  0  0  0  0
  2  1  1  6
  2  7  1  0
  3  2  1  0
  3  4  1  0
  4  5  1  0
  5  6  2  0
  7  8  2  0
  9  5  1  0
 11 10  1  0
 11 13  1  0
 12 11  2  0
 14 13  1  0
 15 14  1  1
 16 15  1  0
 16  7  1  0
 17 15  1  0
 17 19  1  0
 18 17  2  0
 20 19  1  0
 20 21  1  6
 22 21  1  0
 22 26  1  0
 23 22  2  0
 24 20  1  0
 24 27  1  0
 25 24  2  0
M  END
$$$$
