EQD.pdb
     RDKit          3D

 27 26  0  0  1  0  0  0  0  0999 V2000
   18.8954   -9.3034  -13.1792 N   0  0  0  0  0  0  0  0  0  0  0  0
   18.9262   -8.7807  -11.8283 C   0  0  1  0  0  0  0  0  0  0  0  0
   20.1878   -8.1146  -11.4658 C   0  0  0  0  0  0  0  0  0  0  0  0
   20.6683   -6.9897  -12.2911 C   0  0  0  0  0  0  0  0  0  0  0  0
   21.8238   -6.2418  -11.8469 C   0  0  0  0  0  0  0  0  0  0  0  0
   22.2720   -5.2821  -12.5135 O   0  0  0  0  0  0  0  0  0  0  0  0
   17.7000   -8.0354  -11.5179 C   0  0  0  0  0  0  0  0  0  0  0  0
   17.0109   -7.5652  -12.4643 O   0  0  0  0  0  0  0  0  0  0  0  0
   22.4791   -6.5582  -10.6692 O   0  0  0  0  0  0  0  0  0  0  0  0
   12.5769   -7.7358   -6.5558 N   0  0  0  0  0  0  0  0  0  0  0  0
   13.0692   -8.2654   -7.7703 C   0  0  0  0  0  0  0  0  0  0  0  0
   12.8855   -9.4635   -8.0537 O   0  0  0  0  0  0  0  0  0  0  0  0
   13.8207   -7.4174   -8.7505 C   0  0  0  0  0  0  0  0  0  0  0  0
   15.1926   -7.9866   -8.9284 C   0  0  0  0  0  0  0  0  0  0  0  0
   15.9512   -7.2007   -9.9776 C   0  0  2  0  0  0  0  0  0  0  0  0
   17.2488   -7.8219  -10.2064 N   0  0  0  0  0  0  0  0  0  0  0  0
   16.1256   -5.7885   -9.6339 C   0  0  0  0  0  0  0  0  0  0  0  0
   17.0455   -5.3995   -8.8349 O   0  0  0  0  0  0  0  0  0  0  0  0
   15.3150   -4.7110  -10.1356 N   0  0  0  0  0  0  0  0  0  0  0  0
   15.6292   -3.3249   -9.8505 C   0  0  1  0  0  0  0  0  0  0  0  0
   15.3818   -2.4089  -11.0100 C   0  0  0  0  0  0  0  0  0  0  0  0
   16.1743   -2.7124  -12.2077 C   0  0  0  0  0  0  0  0  0  0  0  0
   15.6069   -3.1721  -13.2249 O   0  0  0  0  0  0  0  0  0  0  0  0
   14.9931   -2.8761   -8.5823 C   0  0  0  0  0  0  0  0  0  0  0  0
   14.0684   -3.5229   -8.0199 O   0  0  0  0  0  0  0  0  0  0  0  0
   17.5411   -2.5061  -12.2520 O   0  0  0  0  0  0  0  0  0  0  0  0
   15.3796   -1.7126   -7.9352 O   0  0  0  0  0  0  0  0  0  0  0  0
  2  1  1  6
  2  7  1  0
  3  2  1  0
  3  4  1  0
  4  5  1  0
  5  6  2  0
  7  8  2  0
  9  5  1  0
 11 10  1  0
 11 13  1  0
 12 11  2  0
 14 13  1  0
 15 14  1  1
 16 15  1  0
 16  7  1  0
 17 15  1  0
 17 19  1  0
 18 17  2  0
 20 19  1  0
 20 21  1  6
 22 21  1  0
 22 26  1  0
 23 22  2  0
 24 20  1  0
 24 27  1  0
 25 24  2  0
M  END
$$$$
