GFM.pdb
     RDKit          3D

 24 24  0  0  1  0  0  0  0  0999 V2000
   10.4766  -17.4524   18.5931 N   0  0  0  0  0  0  0  0  0  0  0  0
    9.5158  -17.6479   19.6382 C   0  0  0  0  0  0  0  0  0  0  0  0
    9.7069  -16.7223   20.7808 C   0  0  0  0  0  0  0  0  0  0  0  0
   10.7572  -16.0800   20.9970 O   0  0  0  0  0  0  0  0  0  0  0  0
    8.6284  -16.5533   21.6892 N   0  0  0  0  0  0  0  0  0  0  0  0
    8.6664  -15.5897   22.7756 C   0  0  1  0  0  0  0  0  0  0  0  0
    7.2278  -15.2627   23.0804 C   0  0  0  0  0  0  0  0  0  0  0  0
    7.0276  -14.2125   24.0877 C   0  0  0  0  0  0  0  0  0  0  0  0
    7.3524  -12.8925   23.8695 C   0  0  0  0  0  0  0  0  0  0  0  0
    7.1468  -11.9121   24.8300 C   0  0  0  0  0  0  0  0  0  0  0  0
    6.6020  -12.2282   26.0570 C   0  0  0  0  0  0  0  0  0  0  0  0
    6.2737  -13.5487   26.2849 C   0  0  0  0  0  0  0  0  0  0  0  0
    6.4784  -14.5219   25.3293 C   0  0  0  0  0  0  0  0  0  0  0  0
    9.2479  -16.2524   23.9585 C   0  0  0  0  0  0  0  0  0  0  0  0
    9.0928  -17.4795   24.2069 O   0  0  0  0  0  0  0  0  0  0  0  0
    9.9363  -13.1907   29.3306 C   0  0  0  0  0  0  0  0  0  0  0  0
   10.3554  -14.8684   29.8813 S   0  0  0  0  0  0  0  0  0  0  0  0
   11.0041  -15.8453   28.4702 C   0  0  0  0  0  0  0  0  0  0  0  0
   10.3209  -15.3572   27.2336 C   0  0  0  0  0  0  0  0  0  0  0  0
   10.7430  -16.0860   25.9767 C   0  0  2  0  0  0  0  0  0  0  0  0
   10.0172  -15.4888   24.8656 N   0  0  0  0  0  0  0  0  0  0  0  0
   10.3083  -17.5018   26.0703 C   0  0  0  0  0  0  0  0  0  0  0  0
    8.9458  -17.8106   25.9024 O   0  0  0  0  0  0  0  0  0  0  0  0
   11.1196  -18.4413   26.2958 O   0  0  0  0  0  0  0  0  0  0  0  0
  1  2  1  0
  3  2  1  0
  3  4  2  0
  5  3  1  0
  6  5  1  0
  6 14  1  0
  6  7  1  1
  8 13  2  0
  8  7  1  0
  9  8  1  0
 10  9  2  0
 10 11  1  0
 11 12  2  0
 12 13  1  0
 14 21  1  0
 14 15  2  0
 17 16  1  0
 18 17  1  0
 18 19  1  0
 20 19  1  1
 20 22  1  0
 21 20  1  0
 22 24  2  0
 22 23  1  0
M  END
$$$$
