GFM.pdb
     RDKit          3D

 24 24  0  0  1  0  0  0  0  0999 V2000
    7.7824  -19.0057   20.2979 N   0  0  0  0  0  0  0  0  0  0  0  0
    6.8801  -18.2567   21.1216 C   0  0  0  0  0  0  0  0  0  0  0  0
    7.5741  -17.4428   22.1486 C   0  0  0  0  0  0  0  0  0  0  0  0
    8.7700  -17.5973   22.4780 O   0  0  0  0  0  0  0  0  0  0  0  0
    6.8341  -16.4213   22.8013 N   0  0  0  0  0  0  0  0  0  0  0  0
    7.4007  -15.6001   23.8572 C   0  0  1  0  0  0  0  0  0  0  0  0
    6.4530  -14.4411   24.0245 C   0  0  0  0  0  0  0  0  0  0  0  0
    6.8049  -13.4983   25.0946 C   0  0  0  0  0  0  0  0  0  0  0  0
    7.9672  -12.7604   25.0915 C   0  0  0  0  0  0  0  0  0  0  0  0
    8.2782  -11.8668   26.1068 C   0  0  0  0  0  0  0  0  0  0  0  0
    7.4222  -11.6821   27.1723 C   0  0  0  0  0  0  0  0  0  0  0  0
    6.2550  -12.4176   27.1841 C   0  0  0  0  0  0  0  0  0  0  0  0
    5.9472  -13.3052   26.1744 C   0  0  0  0  0  0  0  0  0  0  0  0
    7.3917  -16.3855   25.1060 C   0  0  0  0  0  0  0  0  0  0  0  0
    6.3625  -16.9664   25.5475 O   0  0  0  0  0  0  0  0  0  0  0  0
    7.2403  -21.6008   25.6478 C   0  0  0  0  0  0  0  0  0  0  0  0
    8.8280  -21.5161   26.5227 S   0  0  0  0  0  0  0  0  0  0  0  0
    8.9812  -19.9034   27.3843 C   0  0  0  0  0  0  0  0  0  0  0  0
    8.7028  -18.8300   26.3821 C   0  0  0  0  0  0  0  0  0  0  0  0
    8.7306  -17.4330   26.9625 C   0  0  2  0  0  0  0  0  0  0  0  0
    8.5852  -16.5009   25.8543 N   0  0  0  0  0  0  0  0  0  0  0  0
   10.0637  -17.1874   27.5663 C   0  0  0  0  0  0  0  0  0  0  0  0
   10.3256  -17.6681   28.8625 O   0  0  0  0  0  0  0  0  0  0  0  0
   10.9734  -16.5609   26.9567 O   0  0  0  0  0  0  0  0  0  0  0  0
  1  2  1  0
  3  2  1  0
  3  4  2  0
  5  3  1  0
  6  5  1  0
  6 14  1  0
  6  7  1  1
  8 13  2  0
  8  7  1  0
  9  8  1  0
 10  9  2  0
 10 11  1  0
 11 12  2  0
 12 13  1  0
 14 21  1  0
 14 15  2  0
 17 16  1  0
 18 17  1  0
 18 19  1  0
 20 19  1  6
 20 22  1  0
 21 20  1  0
 22 24  2  0
 22 23  1  0
M  END
$$$$
