GFM.pdb
     RDKit          3D

 24 24  0  0  1  0  0  0  0  0999 V2000
   10.8144  -16.8569   19.8178 N   0  0  0  0  0  0  0  0  0  0  0  0
    9.6377  -16.8408   20.6356 C   0  0  0  0  0  0  0  0  0  0  0  0
    9.7506  -15.9224   21.7942 C   0  0  0  0  0  0  0  0  0  0  0  0
   10.8131  -15.3699   22.1524 O   0  0  0  0  0  0  0  0  0  0  0  0
    8.5770  -15.6517   22.5469 N   0  0  0  0  0  0  0  0  0  0  0  0
    8.5929  -14.8439   23.7542 C   0  0  1  0  0  0  0  0  0  0  0  0
    7.1666  -14.4112   23.9733 C   0  0  0  0  0  0  0  0  0  0  0  0
    6.9369  -13.6136   25.1852 C   0  0  0  0  0  0  0  0  0  0  0  0
    6.3657  -14.1308   26.3261 C   0  0  0  0  0  0  0  0  0  0  0  0
    6.1655  -13.3640   27.4655 C   0  0  0  0  0  0  0  0  0  0  0  0
    6.5364  -12.0360   27.4976 C   0  0  0  0  0  0  0  0  0  0  0  0
    7.1093  -11.5089   26.3587 C   0  0  0  0  0  0  0  0  0  0  0  0
    7.3078  -12.2721   25.2272 C   0  0  0  0  0  0  0  0  0  0  0  0
    8.9893  -15.7090   24.8816 C   0  0  0  0  0  0  0  0  0  0  0  0
    8.4704  -16.8381   25.0996 O   0  0  0  0  0  0  0  0  0  0  0  0
   15.2438  -16.3553   23.7627 C   0  0  0  0  0  0  0  0  0  0  0  0
   14.4719  -15.8718   25.3325 S   0  0  0  0  0  0  0  0  0  0  0  0
   12.6913  -16.3142   25.3154 C   0  0  0  0  0  0  0  0  0  0  0  0
   12.1200  -15.9305   26.6422 C   0  0  0  0  0  0  0  0  0  0  0  0
   10.6252  -16.1408   26.7453 C   0  0  2  0  0  0  0  0  0  0  0  0
    9.9965  -15.2646   25.7681 N   0  0  0  0  0  0  0  0  0  0  0  0
   10.1667  -15.6986   28.0856 C   0  0  0  0  0  0  0  0  0  0  0  0
   10.3557  -16.5519   29.1882 O   0  0  0  0  0  0  0  0  0  0  0  0
    9.6117  -14.5811   28.2719 O   0  0  0  0  0  0  0  0  0  0  0  0
  1  2  1  0
  3  2  1  0
  3  4  2  0
  5  3  1  0
  6  5  1  0
  6 14  1  0
  6  7  1  1
  8 13  2  0
  8  7  1  0
  9  8  1  0
 10  9  2  0
 10 11  1  0
 11 12  2  0
 12 13  1  0
 14 21  1  0
 14 15  2  0
 17 16  1  0
 18 17  1  0
 18 19  1  0
 20 19  1  1
 20 22  1  0
 21 20  1  0
 22 24  2  0
 22 23  1  0
M  END
$$$$
