GFM.pdb
     RDKit          3D

 24 24  0  0  1  0  0  0  0  0999 V2000
   11.0742  -17.1236   19.2006 N   0  0  0  0  0  0  0  0  0  0  0  0
    9.9003  -17.2970   20.0041 C   0  0  0  0  0  0  0  0  0  0  0  0
    9.9656  -16.5623   21.2904 C   0  0  0  0  0  0  0  0  0  0  0  0
   10.9976  -16.0155   21.7361 O   0  0  0  0  0  0  0  0  0  0  0  0
    8.7803  -16.4727   22.0676 N   0  0  0  0  0  0  0  0  0  0  0  0
    8.7037  -15.6863   23.2867 C   0  0  1  0  0  0  0  0  0  0  0  0
    7.2809  -15.1977   23.3672 C   0  0  0  0  0  0  0  0  0  0  0  0
    7.0039  -14.2655   24.4681 C   0  0  0  0  0  0  0  0  0  0  0  0
    6.2726  -14.6154   25.5808 C   0  0  0  0  0  0  0  0  0  0  0  0
    6.0294  -13.7237   26.6160 C   0  0  0  0  0  0  0  0  0  0  0  0
    6.5180  -12.4349   26.5679 C   0  0  0  0  0  0  0  0  0  0  0  0
    7.2518  -12.0750   25.4564 C   0  0  0  0  0  0  0  0  0  0  0  0
    7.4928  -12.9623   24.4284 C   0  0  0  0  0  0  0  0  0  0  0  0
    8.9464  -16.5858   24.4306 C   0  0  0  0  0  0  0  0  0  0  0  0
    8.5587  -17.7860   24.4580 O   0  0  0  0  0  0  0  0  0  0  0  0
    9.8967  -14.1396   29.6976 C   0  0  0  0  0  0  0  0  0  0  0  0
   10.5807  -13.4647   28.1581 S   0  0  0  0  0  0  0  0  0  0  0  0
   11.3986  -14.7989   27.2001 C   0  0  0  0  0  0  0  0  0  0  0  0
   10.8087  -16.0982   27.6450 C   0  0  0  0  0  0  0  0  0  0  0  0
   10.3184  -16.9658   26.5065 C   0  0  2  0  0  0  0  0  0  0  0  0
    9.6445  -16.0932   25.5565 N   0  0  0  0  0  0  0  0  0  0  0  0
    9.3010  -17.9135   27.0251 C   0  0  0  0  0  0  0  0  0  0  0  0
    9.7266  -19.0538   27.7310 O   0  0  0  0  0  0  0  0  0  0  0  0
    8.0642  -17.7324   26.8550 O   0  0  0  0  0  0  0  0  0  0  0  0
  1  2  1  0
  3  2  1  0
  3  4  2  0
  5  3  1  0
  6  5  1  0
  6 14  1  0
  6  7  1  1
  8 13  2  0
  8  7  1  0
  9  8  1  0
 10  9  2  0
 10 11  1  0
 11 12  2  0
 12 13  1  0
 14 21  1  0
 14 15  2  0
 17 16  1  0
 18 17  1  0
 18 19  1  0
 20 19  1  1
 20 22  1  0
 21 20  1  0
 22 24  2  0
 22 23  1  0
M  END
$$$$
