GFM.pdb
     RDKit          3D

 24 24  0  0  1  0  0  0  0  0999 V2000
    5.8800  -21.1408   24.1500 N   0  0  0  0  0  0  0  0  0  0  0  0
    5.6991  -19.7443   24.4159 C   0  0  0  0  0  0  0  0  0  0  0  0
    6.6236  -18.8829   23.6401 C   0  0  0  0  0  0  0  0  0  0  0  0
    7.5847  -19.3118   22.9656 O   0  0  0  0  0  0  0  0  0  0  0  0
    6.4049  -17.4798   23.6636 N   0  0  0  0  0  0  0  0  0  0  0  0
    7.2714  -16.5429   22.9695 C   0  0  1  0  0  0  0  0  0  0  0  0
    6.3685  -15.4431   22.4747 C   0  0  0  0  0  0  0  0  0  0  0  0
    6.9821  -14.5195   21.5114 C   0  0  0  0  0  0  0  0  0  0  0  0
    7.2294  -14.8589   20.2003 C   0  0  0  0  0  0  0  0  0  0  0  0
    7.8012  -13.9692   19.3016 C   0  0  0  0  0  0  0  0  0  0  0  0
    8.1484  -12.6935   19.6943 C   0  0  0  0  0  0  0  0  0  0  0  0
    7.9046  -12.3445   21.0066 C   0  0  0  0  0  0  0  0  0  0  0  0
    7.3362  -13.2297   21.8985 C   0  0  0  0  0  0  0  0  0  0  0  0
    8.2049  -15.9634   23.9540 C   0  0  0  0  0  0  0  0  0  0  0  0
    7.8469  -15.1448   24.8446 O   0  0  0  0  0  0  0  0  0  0  0  0
    9.8571  -15.3429   29.3666 C   0  0  0  0  0  0  0  0  0  0  0  0
    8.9879  -14.4348   28.0575 S   0  0  0  0  0  0  0  0  0  0  0  0
   10.0951  -14.2109   26.6116 C   0  0  0  0  0  0  0  0  0  0  0  0
   10.3559  -15.5634   26.0313 C   0  0  0  0  0  0  0  0  0  0  0  0
   10.6170  -15.5466   24.5411 C   0  0  2  0  0  0  0  0  0  0  0  0
    9.5684  -16.3333   23.9091 N   0  0  0  0  0  0  0  0  0  0  0  0
   11.9028  -16.2353   24.2683 C   0  0  0  0  0  0  0  0  0  0  0  0
   13.1087  -15.5549   24.5186 O   0  0  0  0  0  0  0  0  0  0  0  0
   11.9531  -17.4130   23.8186 O   0  0  0  0  0  0  0  0  0  0  0  0
  1  2  1  0
  3  2  1  0
  3  4  2  0
  5  3  1  0
  6  5  1  0
  6 14  1  0
  6  7  1  1
  8 13  2  0
  8  7  1  0
  9  8  1  0
 10  9  2  0
 10 11  1  0
 11 12  2  0
 12 13  1  0
 14 21  1  0
 14 15  2  0
 17 16  1  0
 18 17  1  0
 18 19  1  0
 20 19  1  1
 20 22  1  0
 21 20  1  0
 22 24  2  0
 22 23  1  0
M  END
$$$$
