GFM.pdb
     RDKit          3D

 24 24  0  0  1  0  0  0  0  0999 V2000
    7.0478  -20.8037   21.5557 N   0  0  0  0  0  0  0  0  0  0  0  0
    6.8111  -20.1390   22.8030 C   0  0  0  0  0  0  0  0  0  0  0  0
    7.2305  -18.7169   22.7898 C   0  0  0  0  0  0  0  0  0  0  0  0
    7.8870  -18.1861   21.8680 O   0  0  0  0  0  0  0  0  0  0  0  0
    6.8637  -17.9035   23.8948 N   0  0  0  0  0  0  0  0  0  0  0  0
    7.3099  -16.5281   24.0339 C   0  0  1  0  0  0  0  0  0  0  0  0
    6.2250  -15.8243   24.8068 C   0  0  0  0  0  0  0  0  0  0  0  0
    6.4291  -14.3817   24.9937 C   0  0  0  0  0  0  0  0  0  0  0  0
    6.1198  -13.7261   26.1641 C   0  0  0  0  0  0  0  0  0  0  0  0
    6.3289  -12.3636   26.3256 C   0  0  0  0  0  0  0  0  0  0  0  0
    6.8617  -11.6045   25.3048 C   0  0  0  0  0  0  0  0  0  0  0  0
    7.1745  -12.2530   24.1279 C   0  0  0  0  0  0  0  0  0  0  0  0
    6.9663  -13.6070   23.9688 C   0  0  0  0  0  0  0  0  0  0  0  0
    8.5362  -16.5228   24.8541 C   0  0  0  0  0  0  0  0  0  0  0  0
    8.6099  -17.0724   25.9873 O   0  0  0  0  0  0  0  0  0  0  0  0
   10.0822  -12.9446   28.9308 C   0  0  0  0  0  0  0  0  0  0  0  0
   10.8292  -14.5871   29.1251 S   0  0  0  0  0  0  0  0  0  0  0  0
   11.5563  -15.1351   27.5321 C   0  0  0  0  0  0  0  0  0  0  0  0
   10.4341  -15.2990   26.5584 C   0  0  0  0  0  0  0  0  0  0  0  0
   10.8870  -15.6785   25.1656 C   0  0  2  0  0  0  0  0  0  0  0  0
    9.6910  -15.8746   24.3600 N   0  0  0  0  0  0  0  0  0  0  0  0
   11.5908  -16.9836   25.2255 C   0  0  0  0  0  0  0  0  0  0  0  0
   12.9957  -16.9993   25.3003 O   0  0  0  0  0  0  0  0  0  0  0  0
   10.9720  -18.0829   25.2117 O   0  0  0  0  0  0  0  0  0  0  0  0
  1  2  1  0
  3  2  1  0
  3  4  2  0
  5  3  1  0
  6  5  1  0
  6 14  1  0
  6  7  1  1
  8 13  2  0
  8  7  1  0
  9  8  1  0
 10  9  2  0
 10 11  1  0
 11 12  2  0
 12 13  1  0
 14 21  1  0
 14 15  2  0
 17 16  1  0
 18 17  1  0
 18 19  1  0
 20 19  1  1
 20 22  1  0
 21 20  1  0
 22 24  2  0
 22 23  1  0
M  END
$$$$
