GFM.pdb
     RDKit          3D

 24 24  0  0  1  0  0  0  0  0999 V2000
    9.0075  -19.7933   20.1368 N   0  0  0  0  0  0  0  0  0  0  0  0
    8.3136  -19.4099   21.3306 C   0  0  0  0  0  0  0  0  0  0  0  0
    8.6512  -18.0381   21.7810 C   0  0  0  0  0  0  0  0  0  0  0  0
    9.5666  -17.3424   21.2904 O   0  0  0  0  0  0  0  0  0  0  0  0
    7.8865  -17.4764   22.8378 N   0  0  0  0  0  0  0  0  0  0  0  0
    8.0540  -16.1022   23.2778 C   0  0  1  0  0  0  0  0  0  0  0  0
    6.9199  -15.8397   24.2340 C   0  0  0  0  0  0  0  0  0  0  0  0
    6.8946  -14.4908   24.8150 C   0  0  0  0  0  0  0  0  0  0  0  0
    7.4634  -13.3985   24.1996 C   0  0  0  0  0  0  0  0  0  0  0  0
    7.4209  -12.1293   24.7594 C   0  0  0  0  0  0  0  0  0  0  0  0
    6.7985  -11.9118   25.9708 C   0  0  0  0  0  0  0  0  0  0  0  0
    6.2259  -13.0006   26.5951 C   0  0  0  0  0  0  0  0  0  0  0  0
    6.2688  -14.2614   26.0376 C   0  0  0  0  0  0  0  0  0  0  0  0
    9.3200  -16.0109   24.0299 C   0  0  0  0  0  0  0  0  0  0  0  0
   10.2523  -15.2207   23.7169 O   0  0  0  0  0  0  0  0  0  0  0  0
    8.9718  -13.8911   29.3335 C   0  0  0  0  0  0  0  0  0  0  0  0
   10.7603  -13.8281   29.0317 S   0  0  0  0  0  0  0  0  0  0  0  0
   11.2867  -15.3094   28.0857 C   0  0  0  0  0  0  0  0  0  0  0  0
   10.2816  -15.5315   27.0020 C   0  0  0  0  0  0  0  0  0  0  0  0
   10.6284  -16.6758   26.0749 C   0  0  2  0  0  0  0  0  0  0  0  0
    9.5118  -16.8425   25.1566 N   0  0  0  0  0  0  0  0  0  0  0  0
   10.7305  -17.9259   26.8681 C   0  0  0  0  0  0  0  0  0  0  0  0
   11.9284  -18.2055   27.5513 O   0  0  0  0  0  0  0  0  0  0  0  0
    9.7784  -18.7493   26.9517 O   0  0  0  0  0  0  0  0  0  0  0  0
  1  2  1  0
  3  2  1  0
  3  4  2  0
  5  3  1  0
  6  5  1  0
  6 14  1  0
  6  7  1  1
  8 13  2  0
  8  7  1  0
  9  8  1  0
 10  9  2  0
 10 11  1  0
 11 12  2  0
 12 13  1  0
 14 21  1  0
 14 15  2  0
 17 16  1  0
 18 17  1  0
 18 19  1  0
 20 19  1  1
 20 22  1  0
 21 20  1  0
 22 24  2  0
 22 23  1  0
M  END
$$$$
