GFM.pdb
     RDKit          3D

 24 24  0  0  1  0  0  0  0  0999 V2000
   11.0816  -17.3657   18.6876 N   0  0  0  0  0  0  0  0  0  0  0  0
   10.0036  -17.5334   19.6169 C   0  0  0  0  0  0  0  0  0  0  0  0
   10.0690  -16.5868   20.7563 C   0  0  0  0  0  0  0  0  0  0  0  0
   11.0899  -15.9398   21.0750 O   0  0  0  0  0  0  0  0  0  0  0  0
    8.8972  -16.4019   21.5373 N   0  0  0  0  0  0  0  0  0  0  0  0
    8.8583  -15.5179   22.6894 C   0  0  1  0  0  0  0  0  0  0  0  0
    7.4098  -15.1446   22.8674 C   0  0  0  0  0  0  0  0  0  0  0  0
    7.1139  -14.3520   24.0682 C   0  0  0  0  0  0  0  0  0  0  0  0
    6.4418  -14.8617   25.1562 C   0  0  0  0  0  0  0  0  0  0  0  0
    6.1798  -14.1002   26.2865 C   0  0  0  0  0  0  0  0  0  0  0  0
    6.5887  -12.7852   26.3630 C   0  0  0  0  0  0  0  0  0  0  0  0
    7.2627  -12.2656   25.2771 C   0  0  0  0  0  0  0  0  0  0  0  0
    7.5224  -13.0236   24.1546 C   0  0  0  0  0  0  0  0  0  0  0  0
    9.2838  -16.2872   23.8742 C   0  0  0  0  0  0  0  0  0  0  0  0
    9.1930  -17.5432   23.9496 O   0  0  0  0  0  0  0  0  0  0  0  0
   10.0917  -13.1687   29.2685 C   0  0  0  0  0  0  0  0  0  0  0  0
   11.1710  -14.5450   29.7528 S   0  0  0  0  0  0  0  0  0  0  0  0
   11.0554  -15.8948   28.5154 C   0  0  0  0  0  0  0  0  0  0  0  0
   10.5396  -15.2980   27.2458 C   0  0  0  0  0  0  0  0  0  0  0  0
   10.4635  -16.2807   26.0979 C   0  0  2  0  0  0  0  0  0  0  0  0
    9.8201  -15.5977   24.9854 N   0  0  0  0  0  0  0  0  0  0  0  0
    9.5808  -17.4088   26.4857 C   0  0  0  0  0  0  0  0  0  0  0  0
    8.1971  -17.3050   26.2523 O   0  0  0  0  0  0  0  0  0  0  0  0
   10.0285  -18.4609   27.0187 O   0  0  0  0  0  0  0  0  0  0  0  0
  1  2  1  0
  3  2  1  0
  3  4  2  0
  5  3  1  0
  6  5  1  0
  6 14  1  0
  6  7  1  1
  8 13  2  0
  8  7  1  0
  9  8  1  0
 10  9  2  0
 10 11  1  0
 11 12  2  0
 12 13  1  0
 14 21  1  0
 14 15  2  0
 17 16  1  0
 18 17  1  0
 18 19  1  0
 20 19  1  1
 20 22  1  0
 21 20  1  0
 22 24  2  0
 22 23  1  0
M  END
$$$$
