GFM.pdb
     RDKit          3D

 24 24  0  0  1  0  0  0  0  0999 V2000
    6.7020  -20.5604   21.6206 N   0  0  0  0  0  0  0  0  0  0  0  0
    6.5563  -19.9370   22.9028 C   0  0  0  0  0  0  0  0  0  0  0  0
    7.1395  -18.5747   22.9536 C   0  0  0  0  0  0  0  0  0  0  0  0
    7.9270  -18.1148   22.0987 O   0  0  0  0  0  0  0  0  0  0  0  0
    6.7816  -17.7367   24.0430 N   0  0  0  0  0  0  0  0  0  0  0  0
    7.3124  -16.3939   24.2023 C   0  0  1  0  0  0  0  0  0  0  0  0
    6.2530  -15.6228   24.9456 C   0  0  0  0  0  0  0  0  0  0  0  0
    6.5467  -14.1979   25.1483 C   0  0  0  0  0  0  0  0  0  0  0  0
    6.2609  -13.5326   26.3192 C   0  0  0  0  0  0  0  0  0  0  0  0
    6.5548  -12.1878   26.4960 C   0  0  0  0  0  0  0  0  0  0  0  0
    7.1527  -11.4571   25.4907 C   0  0  0  0  0  0  0  0  0  0  0  0
    7.4425  -12.1154   24.3134 C   0  0  0  0  0  0  0  0  0  0  0  0
    7.1500  -13.4519   24.1392 C   0  0  0  0  0  0  0  0  0  0  0  0
    8.5109  -16.4716   25.0591 C   0  0  0  0  0  0  0  0  0  0  0  0
    8.5641  -17.1701   26.1083 O   0  0  0  0  0  0  0  0  0  0  0  0
   10.1417  -13.7143   29.6068 C   0  0  0  0  0  0  0  0  0  0  0  0
   11.5734  -14.0466   28.5422 S   0  0  0  0  0  0  0  0  0  0  0  0
   11.5265  -15.7850   27.9569 C   0  0  0  0  0  0  0  0  0  0  0  0
   10.4150  -15.8951   26.9637 C   0  0  0  0  0  0  0  0  0  0  0  0
   10.8553  -15.6860   25.5314 C   0  0  2  0  0  0  0  0  0  0  0  0
    9.6616  -15.7333   24.7003 N   0  0  0  0  0  0  0  0  0  0  0  0
   11.7175  -16.8218   25.1205 C   0  0  0  0  0  0  0  0  0  0  0  0
   13.0899  -16.7840   25.4284 O   0  0  0  0  0  0  0  0  0  0  0  0
   11.2620  -17.8232   24.5030 O   0  0  0  0  0  0  0  0  0  0  0  0
  1  2  1  0
  3  2  1  0
  3  4  2  0
  5  3  1  0
  6  5  1  0
  6 14  1  0
  6  7  1  1
  8 13  2  0
  8  7  1  0
  9  8  1  0
 10  9  2  0
 10 11  1  0
 11 12  2  0
 12 13  1  0
 14 21  1  0
 14 15  2  0
 17 16  1  0
 18 17  1  0
 18 19  1  0
 20 19  1  1
 20 22  1  0
 21 20  1  0
 22 24  2  0
 22 23  1  0
M  END
$$$$
