GFM.pdb
     RDKit          3D

 24 24  0  0  1  0  0  0  0  0999 V2000
   11.4753  -17.0482   19.0800 N   0  0  0  0  0  0  0  0  0  0  0  0
   10.2935  -17.2275   19.8704 C   0  0  0  0  0  0  0  0  0  0  0  0
   10.2562  -16.3480   21.0636 C   0  0  0  0  0  0  0  0  0  0  0  0
   11.2391  -15.7082   21.4963 O   0  0  0  0  0  0  0  0  0  0  0  0
    9.0255  -16.2229   21.7613 N   0  0  0  0  0  0  0  0  0  0  0  0
    8.9088  -15.4979   23.0147 C   0  0  1  0  0  0  0  0  0  0  0  0
    7.4768  -15.0354   23.0857 C   0  0  0  0  0  0  0  0  0  0  0  0
    7.1503  -14.1955   24.2457 C   0  0  0  0  0  0  0  0  0  0  0  0
    6.6090  -14.6989   25.4072 C   0  0  0  0  0  0  0  0  0  0  0  0
    6.3161  -13.8910   26.4970 C   0  0  0  0  0  0  0  0  0  0  0  0
    6.5597  -12.5342   26.4565 C   0  0  0  0  0  0  0  0  0  0  0  0
    7.1019  -12.0207   25.2965 C   0  0  0  0  0  0  0  0  0  0  0  0
    7.3925  -12.8247   24.2142 C   0  0  0  0  0  0  0  0  0  0  0  0
    9.1404  -16.4480   24.1193 C   0  0  0  0  0  0  0  0  0  0  0  0
    9.0112  -17.6966   23.9930 O   0  0  0  0  0  0  0  0  0  0  0  0
    9.9846  -14.2198   30.1691 C   0  0  0  0  0  0  0  0  0  0  0  0
   10.5081  -13.4386   28.6168 S   0  0  0  0  0  0  0  0  0  0  0  0
   11.1180  -14.7159   27.4493 C   0  0  0  0  0  0  0  0  0  0  0  0
   10.2880  -15.9425   27.6510 C   0  0  0  0  0  0  0  0  0  0  0  0
   10.1380  -16.7879   26.4052 C   0  0  2  0  0  0  0  0  0  0  0  0
    9.5253  -15.9503   25.3850 N   0  0  0  0  0  0  0  0  0  0  0  0
    9.1919  -17.8964   26.6849 C   0  0  0  0  0  0  0  0  0  0  0  0
    9.6778  -19.0757   27.2789 O   0  0  0  0  0  0  0  0  0  0  0  0
    7.9635  -17.8185   26.4080 O   0  0  0  0  0  0  0  0  0  0  0  0
  1  2  1  0
  3  2  1  0
  3  4  2  0
  5  3  1  0
  6  5  1  0
  6 14  1  0
  6  7  1  1
  8 13  2  0
  8  7  1  0
  9  8  1  0
 10  9  2  0
 10 11  1  0
 11 12  2  0
 12 13  1  0
 14 21  1  0
 14 15  2  0
 17 16  1  0
 18 17  1  0
 18 19  1  0
 20 19  1  1
 20 22  1  0
 21 20  1  0
 22 24  2  0
 22 23  1  0
M  END
$$$$
