GFM.pdb
     RDKit          3D

 24 24  0  0  1  0  0  0  0  0999 V2000
    9.1179  -16.6308   19.0932 N   0  0  0  0  0  0  0  0  0  0  0  0
    8.3824  -17.0207   20.2597 C   0  0  0  0  0  0  0  0  0  0  0  0
    8.8380  -16.3286   21.4894 C   0  0  0  0  0  0  0  0  0  0  0  0
    9.8725  -15.6306   21.5609 O   0  0  0  0  0  0  0  0  0  0  0  0
    8.0498  -16.4665   22.6627 N   0  0  0  0  0  0  0  0  0  0  0  0
    8.3617  -15.7705   23.8990 C   0  0  1  0  0  0  0  0  0  0  0  0
    7.0331  -15.4585   24.5370 C   0  0  0  0  0  0  0  0  0  0  0  0
    6.9149  -14.1072   25.1006 C   0  0  0  0  0  0  0  0  0  0  0  0
    7.7353  -13.0657   24.7298 C   0  0  0  0  0  0  0  0  0  0  0  0
    7.6022  -11.7926   25.2662 C   0  0  0  0  0  0  0  0  0  0  0  0
    6.6290  -11.5195   26.2045 C   0  0  0  0  0  0  0  0  0  0  0  0
    5.8022  -12.5572   26.5825 C   0  0  0  0  0  0  0  0  0  0  0  0
    5.9357  -13.8218   26.0485 C   0  0  0  0  0  0  0  0  0  0  0  0
    9.0879  -16.7034   24.7817 C   0  0  0  0  0  0  0  0  0  0  0  0
    9.3180  -17.9051   24.4744 O   0  0  0  0  0  0  0  0  0  0  0  0
   10.4302  -14.6679   30.6435 C   0  0  0  0  0  0  0  0  0  0  0  0
   10.9763  -13.7251   29.1921 S   0  0  0  0  0  0  0  0  0  0  0  0
   11.4924  -14.8747   27.8584 C   0  0  0  0  0  0  0  0  0  0  0  0
   10.7836  -16.1713   28.0833 C   0  0  0  0  0  0  0  0  0  0  0  0
   10.5470  -16.9636   26.8162 C   0  0  2  0  0  0  0  0  0  0  0  0
    9.5533  -16.2431   26.0344 N   0  0  0  0  0  0  0  0  0  0  0  0
    9.9536  -18.2766   27.1714 C   0  0  0  0  0  0  0  0  0  0  0  0
   10.8078  -19.3595   27.4495 O   0  0  0  0  0  0  0  0  0  0  0  0
    8.7065  -18.4567   27.2331 O   0  0  0  0  0  0  0  0  0  0  0  0
  1  2  1  0
  3  2  1  0
  3  4  2  0
  5  3  1  0
  6  5  1  0
  6 14  1  0
  6  7  1  1
  8 13  2  0
  8  7  1  0
  9  8  1  0
 10  9  2  0
 10 11  1  0
 11 12  2  0
 12 13  1  0
 14 21  1  0
 14 15  2  0
 17 16  1  0
 18 17  1  0
 18 19  1  0
 20 19  1  1
 20 22  1  0
 21 20  1  0
 22 24  2  0
 22 23  1  0
M  END
$$$$
