GFM.pdb
     RDKit          3D

 24 24  0  0  1  0  0  0  0  0999 V2000
    9.3596  -19.6087   20.4462 N   0  0  0  0  0  0  0  0  0  0  0  0
    8.7877  -19.1708   21.6851 C   0  0  0  0  0  0  0  0  0  0  0  0
    8.8525  -17.7004   21.8648 C   0  0  0  0  0  0  0  0  0  0  0  0
    9.4330  -16.9210   21.0786 O   0  0  0  0  0  0  0  0  0  0  0  0
    8.2145  -17.1393   23.0029 N   0  0  0  0  0  0  0  0  0  0  0  0
    8.2014  -15.7106   23.2654 C   0  0  1  0  0  0  0  0  0  0  0  0
    6.9896  -15.4659   24.1263 C   0  0  0  0  0  0  0  0  0  0  0  0
    6.8704  -14.1030   24.6611 C   0  0  0  0  0  0  0  0  0  0  0  0
    7.2339  -12.9831   23.9476 C   0  0  0  0  0  0  0  0  0  0  0  0
    7.1048  -11.7022   24.4659 C   0  0  0  0  0  0  0  0  0  0  0  0
    6.6004  -11.5004   25.7335 C   0  0  0  0  0  0  0  0  0  0  0  0
    6.2337  -12.6169   26.4563 C   0  0  0  0  0  0  0  0  0  0  0  0
    6.3625  -13.8893   25.9398 C   0  0  0  0  0  0  0  0  0  0  0  0
    9.4018  -15.3768   24.0555 C   0  0  0  0  0  0  0  0  0  0  0  0
    9.9878  -14.2621   23.9814 O   0  0  0  0  0  0  0  0  0  0  0  0
   10.1264  -13.0095   28.5014 C   0  0  0  0  0  0  0  0  0  0  0  0
   10.2428  -14.7394   29.0377 S   0  0  0  0  0  0  0  0  0  0  0  0
    9.6961  -15.8511   27.6843 C   0  0  0  0  0  0  0  0  0  0  0  0
   10.9163  -16.4997   27.1146 C   0  0  0  0  0  0  0  0  0  0  0  0
   11.1770  -16.1416   25.6679 C   0  0  2  0  0  0  0  0  0  0  0  0
    9.9321  -16.3421   24.9413 N   0  0  0  0  0  0  0  0  0  0  0  0
   12.1675  -17.0931   25.1059 C   0  0  0  0  0  0  0  0  0  0  0  0
   11.7237  -18.1084   24.2388 O   0  0  0  0  0  0  0  0  0  0  0  0
   13.3973  -17.0235   25.3788 O   0  0  0  0  0  0  0  0  0  0  0  0
  1  2  1  0
  3  2  1  0
  3  4  2  0
  5  3  1  0
  6  5  1  0
  6 14  1  0
  6  7  1  1
  8 13  2  0
  8  7  1  0
  9  8  1  0
 10  9  2  0
 10 11  1  0
 11 12  2  0
 12 13  1  0
 14 21  1  0
 14 15  2  0
 17 16  1  0
 18 17  1  0
 18 19  1  0
 20 19  1  1
 20 22  1  0
 21 20  1  0
 22 24  2  0
 22 23  1  0
M  END
$$$$
