DSE.pdb
     RDKit          3D

 24 23  0  0  1  0  0  0  0  0999 V2000
   10.7170  -17.7444   17.6332 N   0  0  0  0  0  0  0  0  0  0  0  0
   10.1363  -18.0469   18.9025 C   0  0  1  0  0  0  0  0  0  0  0  0
   10.2447  -19.5321   19.2404 C   0  0  0  0  0  0  0  0  0  0  0  0
    9.8247  -20.3672   18.1081 C   0  0  0  0  0  0  0  0  0  0  0  0
   10.4696  -21.4285   17.8576 O   0  0  0  0  0  0  0  0  0  0  0  0
   10.7919  -17.2194   19.9472 C   0  0  0  0  0  0  0  0  0  0  0  0
   11.9940  -16.8701   19.7961 O   0  0  0  0  0  0  0  0  0  0  0  0
    8.7412  -19.9657   17.3565 O   0  0  0  0  0  0  0  0  0  0  0  0
    9.0475  -16.4038   23.8017 O   0  0  0  0  0  0  0  0  0  0  0  0
    9.6982  -15.4381   23.0644 C   0  0  0  0  0  0  0  0  0  0  0  0
   10.7250  -15.9874   22.1297 C   0  0  2  0  0  0  0  0  0  0  0  0
   10.1008  -16.8066   21.1195 N   0  0  0  0  0  0  0  0  0  0  0  0
   11.7172  -16.7906   22.8795 C   0  0  0  0  0  0  0  0  0  0  0  0
   11.7166  -18.0338   22.8761 O   0  0  0  0  0  0  0  0  0  0  0  0
   12.7069  -16.1123   23.6308 N   0  0  0  0  0  0  0  0  0  0  0  0
   13.8905  -16.8183   24.1436 C   0  0  1  0  0  0  0  0  0  0  0  0
   15.0817  -16.0815   23.5853 C   0  0  0  0  0  0  0  0  0  0  0  0
   16.3978  -16.6194   24.0353 C   0  0  0  0  0  0  0  0  0  0  0  0
   17.5588  -15.8884   23.4964 C   0  0  0  0  0  0  0  0  0  0  0  0
   18.5468  -15.4987   24.1463 O   0  0  0  0  0  0  0  0  0  0  0  0
   13.8327  -16.7446   25.6172 C   0  0  0  0  0  0  0  0  0  0  0  0
   13.2009  -15.8320   26.2198 O   0  0  0  0  0  0  0  0  0  0  0  0
   17.5441  -15.6087   22.1259 O   0  0  0  0  0  0  0  0  0  0  0  0
   14.4719  -17.6777   26.4246 O   0  0  0  0  0  0  0  0  0  0  0  0
  2  1  1  6
  2  3  1  0
  3  4  1  0
  4  8  1  0
  5  4  2  0
  6 12  1  0
  6  2  1  0
  7  6  2  0
  9 10  1  0
 11 10  1  1
 11 13  1  0
 11 12  1  0
 13 14  2  0
 15 13  1  0
 15 16  1  0
 16 17  1  6
 16 21  1  0
 18 17  1  0
 19 18  1  0
 20 19  2  0
 21 22  2  0
 21 24  1  0
 23 19  1  0
M  END
$$$$
