DSE.pdb
     RDKit          3D

 24 23  0  0  1  0  0  0  0  0999 V2000
    3.6381  -22.6263   16.9724 N   0  0  0  0  0  0  0  0  0  0  0  0
    3.7564  -22.5047   18.3905 C   0  0  1  0  0  0  0  0  0  0  0  0
    3.9467  -21.0532   18.8251 C   0  0  0  0  0  0  0  0  0  0  0  0
    5.2341  -20.5229   18.3587 C   0  0  0  0  0  0  0  0  0  0  0  0
    6.0478  -21.3068   17.7857 O   0  0  0  0  0  0  0  0  0  0  0  0
    2.5528  -23.0934   19.0315 C   0  0  0  0  0  0  0  0  0  0  0  0
    1.5645  -22.3538   19.2891 O   0  0  0  0  0  0  0  0  0  0  0  0
    5.5117  -19.1881   18.5616 O   0  0  0  0  0  0  0  0  0  0  0  0
    2.5251  -27.0538   20.5227 O   0  0  0  0  0  0  0  0  0  0  0  0
    1.3881  -26.5487   19.9296 C   0  0  0  0  0  0  0  0  0  0  0  0
    1.3053  -25.0582   19.9636 C   0  0  2  0  0  0  0  0  0  0  0  0
    2.4808  -24.4739   19.3653 N   0  0  0  0  0  0  0  0  0  0  0  0
    1.1716  -24.5881   21.3612 C   0  0  0  0  0  0  0  0  0  0  0  0
    2.1462  -24.2380   22.0490 O   0  0  0  0  0  0  0  0  0  0  0  0
   -0.1212  -24.5361   21.9359 N   0  0  0  0  0  0  0  0  0  0  0  0
   -0.3199  -24.0934   23.3240 C   0  0  1  0  0  0  0  0  0  0  0  0
   -1.2775  -22.9310   23.2508 C   0  0  0  0  0  0  0  0  0  0  0  0
   -0.6465  -21.6459   22.8331 C   0  0  0  0  0  0  0  0  0  0  0  0
   -1.5972  -20.5270   22.7033 C   0  0  0  0  0  0  0  0  0  0  0  0
   -2.8362  -20.6013   22.8026 O   0  0  0  0  0  0  0  0  0  0  0  0
   -0.8899  -25.2366   24.0645 C   0  0  0  0  0  0  0  0  0  0  0  0
   -1.2815  -26.2864   23.4818 O   0  0  0  0  0  0  0  0  0  0  0  0
   -1.0510  -19.2655   22.4441 O   0  0  0  0  0  0  0  0  0  0  0  0
   -1.0274  -25.2205   25.4473 O   0  0  0  0  0  0  0  0  0  0  0  0
  2  1  1  6
  2  3  1  0
  3  4  1  0
  4  8  1  0
  5  4  2  0
  6 12  1  0
  6  2  1  0
  7  6  2  0
  9 10  1  0
 11 10  1  1
 11 13  1  0
 11 12  1  0
 13 14  2  0
 15 13  1  0
 15 16  1  0
 16 17  1  6
 16 21  1  0
 18 17  1  0
 19 18  1  0
 20 19  2  0
 21 22  2  0
 21 24  1  0
 23 19  1  0
M  END
$$$$
