DSE.pdb
     RDKit          3D

 24 23  0  0  1  0  0  0  0  0999 V2000
   11.0341  -17.2952   17.4414 N   0  0  0  0  0  0  0  0  0  0  0  0
   10.7714  -18.0588   18.6193 C   0  0  1  0  0  0  0  0  0  0  0  0
   11.3440  -19.4711   18.5237 C   0  0  0  0  0  0  0  0  0  0  0  0
   10.7074  -20.2309   17.4405 C   0  0  0  0  0  0  0  0  0  0  0  0
    9.6188  -19.8054   16.9518 O   0  0  0  0  0  0  0  0  0  0  0  0
   11.3265  -17.3435   19.7968 C   0  0  0  0  0  0  0  0  0  0  0  0
   12.5650  -17.1137   19.8540 O   0  0  0  0  0  0  0  0  0  0  0  0
   11.3184  -21.3827   16.9931 O   0  0  0  0  0  0  0  0  0  0  0  0
    8.9069  -16.2719   23.1325 O   0  0  0  0  0  0  0  0  0  0  0  0
    9.9300  -15.4529   22.7057 C   0  0  0  0  0  0  0  0  0  0  0  0
   11.0247  -16.1802   21.9971 C   0  0  2  0  0  0  0  0  0  0  0  0
   10.4986  -16.9075   20.8677 N   0  0  0  0  0  0  0  0  0  0  0  0
   11.6957  -17.1185   22.9251 C   0  0  0  0  0  0  0  0  0  0  0  0
   11.3595  -18.3102   23.0358 O   0  0  0  0  0  0  0  0  0  0  0  0
   12.7643  -16.6360   23.7185 N   0  0  0  0  0  0  0  0  0  0  0  0
   13.4541  -17.5098   24.6792 C   0  0  1  0  0  0  0  0  0  0  0  0
   14.9206  -17.4124   24.3428 C   0  0  0  0  0  0  0  0  0  0  0  0
   15.5154  -16.0673   24.5897 C   0  0  0  0  0  0  0  0  0  0  0  0
   16.6531  -15.7454   23.7097 C   0  0  0  0  0  0  0  0  0  0  0  0
   17.8321  -16.1125   23.8703 O   0  0  0  0  0  0  0  0  0  0  0  0
   13.1579  -16.9872   26.0281 C   0  0  0  0  0  0  0  0  0  0  0  0
   12.5460  -15.8969   26.2067 O   0  0  0  0  0  0  0  0  0  0  0  0
   16.3771  -14.9530   22.5905 O   0  0  0  0  0  0  0  0  0  0  0  0
   13.5371  -17.6681   27.1787 O   0  0  0  0  0  0  0  0  0  0  0  0
  2  1  1  6
  2  3  1  0
  3  4  1  0
  4  8  1  0
  5  4  2  0
  6 12  1  0
  6  2  1  0
  7  6  2  0
  9 10  1  0
 11 10  1  1
 11 13  1  0
 11 12  1  0
 13 14  2  0
 15 13  1  0
 15 16  1  0
 16 17  1  6
 16 21  1  0
 18 17  1  0
 19 18  1  0
 20 19  2  0
 21 22  2  0
 21 24  1  0
 23 19  1  0
M  END
$$$$
