DSE.pdb
     RDKit          3D

 24 23  0  0  1  0  0  0  0  0999 V2000
   11.1993  -17.8098   18.8914 N   0  0  0  0  0  0  0  0  0  0  0  0
   12.2796  -17.4203   19.7403 C   0  0  1  0  0  0  0  0  0  0  0  0
   13.3026  -16.5587   19.0036 C   0  0  0  0  0  0  0  0  0  0  0  0
   14.0183  -17.3370   17.9847 C   0  0  0  0  0  0  0  0  0  0  0  0
   13.3488  -18.0140   17.1491 O   0  0  0  0  0  0  0  0  0  0  0  0
   11.7362  -16.7004   20.9203 C   0  0  0  0  0  0  0  0  0  0  0  0
   12.5315  -16.1562   21.7336 O   0  0  0  0  0  0  0  0  0  0  0  0
   15.3963  -17.3030   17.9740 O   0  0  0  0  0  0  0  0  0  0  0  0
    7.6833  -16.9904   22.0906 O   0  0  0  0  0  0  0  0  0  0  0  0
    8.3146  -15.7679   22.1725 C   0  0  0  0  0  0  0  0  0  0  0  0
    9.8008  -15.8660   22.2780 C   0  0  2  0  0  0  0  0  0  0  0  0
   10.3380  -16.6057   21.1620 N   0  0  0  0  0  0  0  0  0  0  0  0
   10.1776  -16.5324   23.5452 C   0  0  0  0  0  0  0  0  0  0  0  0
   10.6450  -17.6837   23.5863 O   0  0  0  0  0  0  0  0  0  0  0  0
    9.9973  -15.8271   24.7594 N   0  0  0  0  0  0  0  0  0  0  0  0
   10.3454  -16.4355   26.0521 C   0  0  1  0  0  0  0  0  0  0  0  0
   10.2782  -15.3184   27.0625 C   0  0  0  0  0  0  0  0  0  0  0  0
   10.5555  -15.7458   28.4641 C   0  0  0  0  0  0  0  0  0  0  0  0
   10.3914  -14.6722   29.4606 C   0  0  0  0  0  0  0  0  0  0  0  0
   10.0399  -13.5008   29.2264 O   0  0  0  0  0  0  0  0  0  0  0  0
    9.3431  -17.4864   26.3187 C   0  0  0  0  0  0  0  0  0  0  0  0
    8.1616  -17.4153   25.8780 O   0  0  0  0  0  0  0  0  0  0  0  0
   10.6567  -15.0058   30.7929 O   0  0  0  0  0  0  0  0  0  0  0  0
    9.6452  -18.6150   27.0712 O   0  0  0  0  0  0  0  0  0  0  0  0
  2  1  1  6
  2  3  1  0
  3  4  1  0
  4  8  1  0
  5  4  2  0
  6 12  1  0
  6  2  1  0
  7  6  2  0
  9 10  1  0
 11 10  1  6
 11 13  1  0
 11 12  1  0
 13 14  2  0
 15 13  1  0
 15 16  1  0
 16 17  1  1
 16 21  1  0
 18 17  1  0
 19 18  1  0
 20 19  2  0
 21 22  2  0
 21 24  1  0
 23 19  1  0
M  END
$$$$
