DSE.pdb
     RDKit          3D

 24 23  0  0  1  0  0  0  0  0999 V2000
   14.4768  -19.2526   18.7248 N   0  0  0  0  0  0  0  0  0  0  0  0
   15.0570  -20.1699   19.6530 C   0  0  1  0  0  0  0  0  0  0  0  0
   16.5787  -20.2167   19.5339 C   0  0  0  0  0  0  0  0  0  0  0  0
   16.9943  -20.6216   18.1851 C   0  0  0  0  0  0  0  0  0  0  0  0
   16.6804  -21.7760   17.7683 O   0  0  0  0  0  0  0  0  0  0  0  0
   14.6474  -19.7932   21.0301 C   0  0  0  0  0  0  0  0  0  0  0  0
   15.0251  -18.6890   21.5079 O   0  0  0  0  0  0  0  0  0  0  0  0
   17.7129  -19.7290   17.4189 O   0  0  0  0  0  0  0  0  0  0  0  0
   11.3859  -21.6170   22.7486 O   0  0  0  0  0  0  0  0  0  0  0  0
   11.8295  -20.3717   23.1384 C   0  0  0  0  0  0  0  0  0  0  0  0
   13.3154  -20.2278   23.1092 C   0  0  2  0  0  0  0  0  0  0  0  0
   13.8376  -20.6450   21.8306 N   0  0  0  0  0  0  0  0  0  0  0  0
   13.9262  -21.0401   24.1858 C   0  0  0  0  0  0  0  0  0  0  0  0
   14.3163  -22.2071   24.0086 O   0  0  0  0  0  0  0  0  0  0  0  0
   14.0709  -20.4613   25.4696 N   0  0  0  0  0  0  0  0  0  0  0  0
   14.5823  -21.2443   26.6044 C   0  0  1  0  0  0  0  0  0  0  0  0
   15.2638  -20.2527   27.5131 C   0  0  0  0  0  0  0  0  0  0  0  0
   15.8442  -20.8551   28.7478 C   0  0  0  0  0  0  0  0  0  0  0  0
   16.4319  -19.8709   29.6744 C   0  0  0  0  0  0  0  0  0  0  0  0
   17.2780  -19.0045   29.3849 O   0  0  0  0  0  0  0  0  0  0  0  0
   13.4168  -21.8800   27.2508 C   0  0  0  0  0  0  0  0  0  0  0  0
   12.2556  -21.3894   27.1738 O   0  0  0  0  0  0  0  0  0  0  0  0
   15.9946  -19.9192   31.0023 O   0  0  0  0  0  0  0  0  0  0  0  0
   13.5335  -23.0563   27.9815 O   0  0  0  0  0  0  0  0  0  0  0  0
  2  1  1  6
  2  3  1  0
  3  4  1  0
  4  8  1  0
  5  4  2  0
  6 12  1  0
  6  2  1  0
  7  6  2  0
  9 10  1  0
 11 10  1  6
 11 13  1  0
 11 12  1  0
 13 14  2  0
 15 13  1  0
 15 16  1  0
 16 17  1  1
 16 21  1  0
 18 17  1  0
 19 18  1  0
 20 19  2  0
 21 22  2  0
 21 24  1  0
 23 19  1  0
M  END
$$$$
