DSE.pdb
     RDKit          3D

 24 23  0  0  1  0  0  0  0  0999 V2000
    9.0972  -17.3435   17.5007 N   0  0  0  0  0  0  0  0  0  0  0  0
    9.8302  -18.1597   18.4150 C   0  0  1  0  0  0  0  0  0  0  0  0
   10.9085  -18.9797   17.7102 C   0  0  0  0  0  0  0  0  0  0  0  0
   10.3427  -19.7649   16.6060 C   0  0  0  0  0  0  0  0  0  0  0  0
    9.3038  -20.4584   16.8172 O   0  0  0  0  0  0  0  0  0  0  0  0
   10.4271  -17.2972   19.4666 C   0  0  0  0  0  0  0  0  0  0  0  0
   11.6728  -17.1019   19.4736 O   0  0  0  0  0  0  0  0  0  0  0  0
   10.9638  -19.7192   15.3762 O   0  0  0  0  0  0  0  0  0  0  0  0
    8.0644  -15.6389   22.5723 O   0  0  0  0  0  0  0  0  0  0  0  0
    9.1525  -14.9501   22.0812 C   0  0  0  0  0  0  0  0  0  0  0  0
   10.2021  -15.8309   21.4878 C   0  0  2  0  0  0  0  0  0  0  0  0
    9.6315  -16.6813   20.4717 N   0  0  0  0  0  0  0  0  0  0  0  0
   10.8235  -16.6632   22.5428 C   0  0  0  0  0  0  0  0  0  0  0  0
   10.4299  -17.8112   22.8125 O   0  0  0  0  0  0  0  0  0  0  0  0
   11.9112  -16.1272   23.2734 N   0  0  0  0  0  0  0  0  0  0  0  0
   12.5718  -16.9026   24.3339 C   0  0  1  0  0  0  0  0  0  0  0  0
   13.9738  -16.3560   24.4291 C   0  0  0  0  0  0  0  0  0  0  0  0
   14.9142  -16.9074   23.4114 C   0  0  0  0  0  0  0  0  0  0  0  0
   16.2369  -16.2570   23.4044 C   0  0  0  0  0  0  0  0  0  0  0  0
   16.5855  -15.2951   24.1140 O   0  0  0  0  0  0  0  0  0  0  0  0
   11.8033  -16.6792   25.5748 C   0  0  0  0  0  0  0  0  0  0  0  0
   10.8949  -15.8054   25.6542 O   0  0  0  0  0  0  0  0  0  0  0  0
   17.1857  -16.7727   22.5152 O   0  0  0  0  0  0  0  0  0  0  0  0
   12.0378  -17.4200   26.7269 O   0  0  0  0  0  0  0  0  0  0  0  0
  2  1  1  6
  2  3  1  0
  3  4  1  0
  4  8  1  0
  5  4  2  0
  6 12  1  0
  6  2  1  0
  7  6  2  0
  9 10  1  0
 11 10  1  1
 11 13  1  0
 11 12  1  0
 13 14  2  0
 15 13  1  0
 15 16  1  0
 16 17  1  1
 16 21  1  0
 18 17  1  0
 19 18  1  0
 20 19  2  0
 21 22  2  0
 21 24  1  0
 23 19  1  0
M  END
$$$$
