DSE.pdb
     RDKit          3D

 24 23  0  0  1  0  0  0  0  0999 V2000
    7.7569  -17.8877   17.8079 N   0  0  0  0  0  0  0  0  0  0  0  0
    9.1424  -17.5420   17.8280 C   0  0  1  0  0  0  0  0  0  0  0  0
    9.5754  -16.8441   16.5406 C   0  0  0  0  0  0  0  0  0  0  0  0
    9.7974  -17.8125   15.4594 C   0  0  0  0  0  0  0  0  0  0  0  0
    8.9237  -18.7052   15.2481 O   0  0  0  0  0  0  0  0  0  0  0  0
    9.4127  -16.6836   19.0095 C   0  0  0  0  0  0  0  0  0  0  0  0
   10.5881  -16.2819   19.2268 O   0  0  0  0  0  0  0  0  0  0  0  0
   10.9512  -17.7153   14.7114 O   0  0  0  0  0  0  0  0  0  0  0  0
    6.4320  -15.9477   21.9505 O   0  0  0  0  0  0  0  0  0  0  0  0
    7.3838  -14.9904   21.6727 C   0  0  0  0  0  0  0  0  0  0  0  0
    8.6497  -15.5484   21.1107 C   0  0  2  0  0  0  0  0  0  0  0  0
    8.3801  -16.2988   19.9084 N   0  0  0  0  0  0  0  0  0  0  0  0
    9.3063  -16.4239   22.1078 C   0  0  0  0  0  0  0  0  0  0  0  0
    9.1202  -17.6523   22.1500 O   0  0  0  0  0  0  0  0  0  0  0  0
   10.1822  -15.8351   23.0513 N   0  0  0  0  0  0  0  0  0  0  0  0
   10.8949  -16.6543   24.0431 C   0  0  1  0  0  0  0  0  0  0  0  0
   12.3079  -16.1286   24.0701 C   0  0  0  0  0  0  0  0  0  0  0  0
   13.1005  -16.4458   22.8473 C   0  0  0  0  0  0  0  0  0  0  0  0
   14.4606  -15.8778   22.8520 C   0  0  0  0  0  0  0  0  0  0  0  0
   15.0578  -15.3954   21.8717 O   0  0  0  0  0  0  0  0  0  0  0  0
   10.2066  -16.4636   25.3354 C   0  0  0  0  0  0  0  0  0  0  0  0
    9.3657  -15.5393   25.5188 O   0  0  0  0  0  0  0  0  0  0  0  0
   15.1397  -15.8838   24.0749 O   0  0  0  0  0  0  0  0  0  0  0  0
   10.4469  -17.2929   26.4244 O   0  0  0  0  0  0  0  0  0  0  0  0
  2  1  1  6
  2  3  1  0
  3  4  1  0
  4  8  1  0
  5  4  2  0
  6 12  1  0
  6  2  1  0
  7  6  2  0
  9 10  1  0
 11 10  1  1
 11 13  1  0
 11 12  1  0
 13 14  2  0
 15 13  1  0
 15 16  1  0
 16 17  1  1
 16 21  1  0
 18 17  1  0
 19 18  1  0
 20 19  2  0
 21 22  2  0
 21 24  1  0
 23 19  1  0
M  END
$$$$
