KME.pdb
     RDKit          3D

 27 26  0  0  1  0  0  0  0  0999 V2000
   17.9871  -12.5737  -17.4684 N   0  0  0  0  0  0  0  0  0  0  0  0
   18.9930  -12.0318  -16.6015 C   0  0  1  0  0  0  0  0  0  0  0  0
   20.0565  -13.0471  -16.3447 C   0  0  0  0  0  0  0  0  0  0  0  0
   19.5104  -14.3820  -16.8258 C   0  0  0  0  0  0  0  0  0  0  0  0
   18.8039  -15.1606  -15.7489 C   0  0  0  0  0  0  0  0  0  0  0  0
   18.4793  -16.5445  -16.3219 C   0  0  0  0  0  0  0  0  0  0  0  0
   17.7497  -17.3467  -15.3827 N   0  0  0  0  0  0  0  0  0  0  0  0
   19.4488  -10.6961  -16.9627 C   0  0  0  0  0  0  0  0  0  0  0  0
   20.3139  -10.0369  -16.3145 O   0  0  0  0  0  0  0  0  0  0  0  0
   17.4211   -6.0720  -21.9568 C   0  0  0  0  0  0  0  0  0  0  0  0
   19.0726   -6.8123  -22.1069 S   0  0  0  0  0  0  0  0  0  0  0  0
   19.7285   -7.1470  -20.4393 C   0  0  0  0  0  0  0  0  0  0  0  0
   19.0425   -8.3849  -19.9406 C   0  0  0  0  0  0  0  0  0  0  0  0
   19.3889   -8.7546  -18.5457 C   0  0  2  0  0  0  0  0  0  0  0  0
   18.9209  -10.0408  -18.1001 N   0  0  0  0  0  0  0  0  0  0  0  0
   19.1061   -7.6836  -17.5349 C   0  0  0  0  0  0  0  0  0  0  0  0
   17.9887   -7.5355  -16.9754 O   0  0  0  0  0  0  0  0  0  0  0  0
   20.1681   -6.8178  -17.2138 N   0  0  0  0  0  0  0  0  0  0  0  0
   20.0694   -5.7180  -16.2312 C   0  0  1  0  0  0  0  0  0  0  0  0
   21.1817   -5.8260  -15.2682 C   0  0  0  0  0  0  0  0  0  0  0  0
   21.2368   -4.7640  -14.2389 C   0  0  0  0  0  0  0  0  0  0  0  0
   22.3380   -4.9140  -13.2932 C   0  0  0  0  0  0  0  0  0  0  0  0
   23.0738   -5.9558  -13.3431 O   0  0  0  0  0  0  0  0  0  0  0  0
   19.9648   -4.4716  -16.9346 C   0  0  0  0  0  0  0  0  0  0  0  0
   19.4459   -3.2775  -16.4104 O   0  0  0  0  0  0  0  0  0  0  0  0
   22.6390   -3.9729  -12.3214 O   0  0  0  0  0  0  0  0  0  0  0  0
   20.3566   -4.4123  -18.1483 O   0  0  0  0  0  0  0  0  0  0  0  0
  2  1  1  6
  2  8  1  0
  3  2  1  0
  3  4  1  0
  4  5  1  0
  5  6  1  0
  7  6  1  0
  8 15  1  0
  8  9  2  0
 10 11  1  0
 12 13  1  0
 12 11  1  0
 14 13  1  6
 14 16  1  0
 15 14  1  0
 16 17  2  0
 18 19  1  0
 18 16  1  0
 19 24  1  0
 19 20  1  1
 21 20  1  0
 22 21  1  0
 23 22  2  0
 24 25  1  0
 26 22  1  0
 27 24  2  0
M  END
$$$$
