KME.pdb
     RDKit          3D

 27 26  0  0  1  0  0  0  0  0999 V2000
   28.4264  -21.7012  -15.6731 N   0  0  0  0  0  0  0  0  0  0  0  0
   27.4260  -20.7159  -15.3812 C   0  0  1  0  0  0  0  0  0  0  0  0
   26.9347  -20.0877  -16.6430 C   0  0  0  0  0  0  0  0  0  0  0  0
   28.1663  -19.7165  -17.4535 C   0  0  0  0  0  0  0  0  0  0  0  0
   28.6520  -18.3160  -17.1933 C   0  0  0  0  0  0  0  0  0  0  0  0
   29.8240  -18.0529  -18.1452 C   0  0  0  0  0  0  0  0  0  0  0  0
   30.4272  -16.7748  -17.8989 N   0  0  0  0  0  0  0  0  0  0  0  0
   26.4058  -21.1496  -14.4359 C   0  0  0  0  0  0  0  0  0  0  0  0
   25.3321  -21.7355  -14.7626 O   0  0  0  0  0  0  0  0  0  0  0  0
   26.1429  -19.2585   -8.0669 C   0  0  0  0  0  0  0  0  0  0  0  0
   25.4465  -20.9352   -8.0252 S   0  0  0  0  0  0  0  0  0  0  0  0
   24.8283  -21.3643   -9.6856 C   0  0  0  0  0  0  0  0  0  0  0  0
   25.8972  -20.9741  -10.6639 C   0  0  0  0  0  0  0  0  0  0  0  0
   25.5444  -21.2213  -12.0840 C   0  0  2  0  0  0  0  0  0  0  0  0
   26.5697  -20.9226  -13.0491 N   0  0  0  0  0  0  0  0  0  0  0  0
   24.2168  -20.6597  -12.4971 C   0  0  0  0  0  0  0  0  0  0  0  0
   24.0369  -19.4494  -12.7911 O   0  0  0  0  0  0  0  0  0  0  0  0
   23.1366  -21.5601  -12.5531 N   0  0  0  0  0  0  0  0  0  0  0  0
   21.7931  -21.2083  -13.0592 C   0  0  1  0  0  0  0  0  0  0  0  0
   21.4003  -22.1723  -14.1045 C   0  0  0  0  0  0  0  0  0  0  0  0
   20.0400  -21.9904  -14.6582 C   0  0  0  0  0  0  0  0  0  0  0  0
   19.6735  -22.9825  -15.6637 C   0  0  0  0  0  0  0  0  0  0  0  0
   20.5098  -23.8912  -15.9861 O   0  0  0  0  0  0  0  0  0  0  0  0
   20.8935  -21.0838  -11.9481 C   0  0  0  0  0  0  0  0  0  0  0  0
   19.6776  -20.3829  -11.9546 O   0  0  0  0  0  0  0  0  0  0  0  0
   18.4450  -22.9970  -16.3049 O   0  0  0  0  0  0  0  0  0  0  0  0
   21.2019  -21.6353  -10.8386 O   0  0  0  0  0  0  0  0  0  0  0  0
  2  1  1  6
  2  8  1  0
  3  2  1  0
  3  4  1  0
  4  5  1  0
  5  6  1  0
  7  6  1  0
  8 15  1  0
  8  9  2  0
 10 11  1  0
 12 13  1  0
 12 11  1  0
 14 13  1  1
 14 16  1  0
 15 14  1  0
 16 17  2  0
 18 19  1  0
 18 16  1  0
 19 24  1  0
 19 20  1  6
 21 20  1  0
 22 21  1  0
 23 22  2  0
 24 25  1  0
 26 22  1  0
 27 24  2  0
M  END
$$$$
