KME.pdb
     RDKit          3D

 27 26  0  0  1  0  0  0  0  0999 V2000
   26.7175  -15.1702  -19.4845 N   0  0  0  0  0  0  0  0  0  0  0  0
   27.4427  -14.1705  -20.2137 C   0  0  1  0  0  0  0  0  0  0  0  0
   26.5066  -13.3495  -21.0369 C   0  0  0  0  0  0  0  0  0  0  0  0
   25.8911  -14.2872  -22.0632 C   0  0  0  0  0  0  0  0  0  0  0  0
   26.7855  -14.5480  -23.2452 C   0  0  0  0  0  0  0  0  0  0  0  0
   25.9825  -15.3770  -24.2536 C   0  0  0  0  0  0  0  0  0  0  0  0
   26.7656  -15.7044  -25.4101 N   0  0  0  0  0  0  0  0  0  0  0  0
   28.4226  -13.4363  -19.4246 C   0  0  0  0  0  0  0  0  0  0  0  0
   28.2072  -12.9793  -18.2636 O   0  0  0  0  0  0  0  0  0  0  0  0
   35.9866  -11.8580  -17.9557 C   0  0  0  0  0  0  0  0  0  0  0  0
   34.7399  -12.7816  -18.8996 S   0  0  0  0  0  0  0  0  0  0  0  0
   33.0965  -12.0601  -18.5801 C   0  0  0  0  0  0  0  0  0  0  0  0
   32.0993  -12.8986  -19.3244 C   0  0  0  0  0  0  0  0  0  0  0  0
   30.7008  -12.4111  -19.2302 C   0  0  2  0  0  0  0  0  0  0  0  0
   29.7153  -13.1828  -19.9409 N   0  0  0  0  0  0  0  0  0  0  0  0
   30.5407  -10.9420  -19.4851 C   0  0  0  0  0  0  0  0  0  0  0  0
   30.4886  -10.4397  -20.6377 O   0  0  0  0  0  0  0  0  0  0  0  0
   30.4421  -10.1090  -18.3551 N   0  0  0  0  0  0  0  0  0  0  0  0
   30.1977   -8.6527  -18.4209 C   0  0  1  0  0  0  0  0  0  0  0  0
   28.7440   -8.4028  -18.3971 C   0  0  0  0  0  0  0  0  0  0  0  0
   28.0650   -8.4749  -19.7101 C   0  0  0  0  0  0  0  0  0  0  0  0
   26.6243   -8.2527  -19.6436 C   0  0  0  0  0  0  0  0  0  0  0  0
   26.0606   -8.1107  -18.5073 O   0  0  0  0  0  0  0  0  0  0  0  0
   30.9645   -8.0038  -17.3961 C   0  0  0  0  0  0  0  0  0  0  0  0
   31.3916   -6.6671  -17.4166 O   0  0  0  0  0  0  0  0  0  0  0  0
   25.8128   -8.1861  -20.7650 O   0  0  0  0  0  0  0  0  0  0  0  0
   31.3168   -8.6757  -16.3692 O   0  0  0  0  0  0  0  0  0  0  0  0
  2  1  1  1
  2  8  1  0
  3  2  1  0
  3  4  1  0
  4  5  1  0
  5  6  1  0
  7  6  1  0
  8 15  1  0
  8  9  2  0
 10 11  1  0
 12 13  1  0
 12 11  1  0
 14 13  1  6
 14 16  1  0
 15 14  1  0
 16 17  2  0
 18 19  1  0
 18 16  1  0
 19 24  1  0
 19 20  1  1
 21 20  1  0
 22 21  1  0
 23 22  2  0
 24 25  1  0
 26 22  1  0
 27 24  2  0
M  END
$$$$
