KME.pdb
     RDKit          3D

 27 26  0  0  1  0  0  0  0  0999 V2000
   27.8214  -20.9485  -15.5673 N   0  0  0  0  0  0  0  0  0  0  0  0
   26.7386  -21.8116  -15.9409 C   0  0  1  0  0  0  0  0  0  0  0  0
   27.2628  -23.1361  -16.3868 C   0  0  0  0  0  0  0  0  0  0  0  0
   28.5177  -22.8576  -17.1988 C   0  0  0  0  0  0  0  0  0  0  0  0
   28.2330  -22.4948  -18.6315 C   0  0  0  0  0  0  0  0  0  0  0  0
   29.5729  -22.4796  -19.3754 C   0  0  0  0  0  0  0  0  0  0  0  0
   29.5830  -23.4142  -20.4636 N   0  0  0  0  0  0  0  0  0  0  0  0
   25.6322  -21.8406  -14.9937 C   0  0  0  0  0  0  0  0  0  0  0  0
   24.6198  -22.5934  -15.1006 O   0  0  0  0  0  0  0  0  0  0  0  0
   24.7459  -21.4220   -7.9113 C   0  0  0  0  0  0  0  0  0  0  0  0
   24.4024  -19.9849   -8.9671 S   0  0  0  0  0  0  0  0  0  0  0  0
   23.7568  -20.5649  -10.5703 C   0  0  0  0  0  0  0  0  0  0  0  0
   24.9100  -20.5674  -11.5304 C   0  0  0  0  0  0  0  0  0  0  0  0
   24.5480  -20.9489  -12.9180 C   0  0  2  0  0  0  0  0  0  0  0  0
   25.6324  -20.9892  -13.8637 N   0  0  0  0  0  0  0  0  0  0  0  0
   23.3612  -20.2170  -13.4699 C   0  0  0  0  0  0  0  0  0  0  0  0
   23.3729  -18.9912  -13.7540 O   0  0  0  0  0  0  0  0  0  0  0  0
   22.1896  -20.9698  -13.6730 N   0  0  0  0  0  0  0  0  0  0  0  0
   20.9320  -20.4117  -14.2133 C   0  0  1  0  0  0  0  0  0  0  0  0
   20.6655  -21.0073  -15.5363 C   0  0  0  0  0  0  0  0  0  0  0  0
   19.4078  -20.5756  -16.1860 C   0  0  0  0  0  0  0  0  0  0  0  0
   19.1741  -21.1904  -17.4887 C   0  0  0  0  0  0  0  0  0  0  0  0
   19.5951  -22.3746  -17.7110 O   0  0  0  0  0  0  0  0  0  0  0  0
   19.8946  -20.5647  -13.2337 C   0  0  0  0  0  0  0  0  0  0  0  0
   19.8146  -21.5918  -12.2806 O   0  0  0  0  0  0  0  0  0  0  0  0
   18.5087  -20.5511  -18.5226 O   0  0  0  0  0  0  0  0  0  0  0  0
   18.9393  -19.7180  -13.2080 O   0  0  0  0  0  0  0  0  0  0  0  0
  2  1  1  1
  2  8  1  0
  3  2  1  0
  3  4  1  0
  4  5  1  0
  5  6  1  0
  7  6  1  0
  8 15  1  0
  8  9  2  0
 10 11  1  0
 12 13  1  0
 12 11  1  0
 14 13  1  1
 14 16  1  0
 15 14  1  0
 16 17  2  0
 18 19  1  0
 18 16  1  0
 19 24  1  0
 19 20  1  6
 21 20  1  0
 22 21  1  0
 23 22  2  0
 24 25  1  0
 26 22  1  0
 27 24  2  0
M  END
$$$$
