KME.pdb
     RDKit          3D

 27 26  0  0  1  0  0  0  0  0999 V2000
   22.5785  -13.4940  -18.6655 N   0  0  0  0  0  0  0  0  0  0  0  0
   21.5522  -12.8992  -17.8595 C   0  0  1  0  0  0  0  0  0  0  0  0
   20.6424  -13.9522  -17.3199 C   0  0  0  0  0  0  0  0  0  0  0  0
   20.3986  -14.9391  -18.4505 C   0  0  0  0  0  0  0  0  0  0  0  0
   20.4350  -16.3765  -18.0060 C   0  0  0  0  0  0  0  0  0  0  0  0
   20.1932  -17.2457  -19.2450 C   0  0  0  0  0  0  0  0  0  0  0  0
   20.2463  -18.6437  -18.9274 N   0  0  0  0  0  0  0  0  0  0  0  0
   22.0295  -11.9072  -16.9053 C   0  0  0  0  0  0  0  0  0  0  0  0
   21.3217  -11.4033  -15.9844 O   0  0  0  0  0  0  0  0  0  0  0  0
   28.4043  -13.3329  -15.0453 C   0  0  0  0  0  0  0  0  0  0  0  0
   27.6862  -11.6931  -15.3513 S   0  0  0  0  0  0  0  0  0  0  0  0
   25.8860  -11.8652  -15.5814 C   0  0  0  0  0  0  0  0  0  0  0  0
   25.3421  -10.4867  -15.8168 C   0  0  0  0  0  0  0  0  0  0  0  0
   23.8793  -10.4417  -16.0629 C   0  0  2  0  0  0  0  0  0  0  0  0
   23.3617  -11.4348  -16.9672 N   0  0  0  0  0  0  0  0  0  0  0  0
   23.3484   -9.0757  -16.3805 C   0  0  0  0  0  0  0  0  0  0  0  0
   23.2829   -8.6112  -17.5481 O   0  0  0  0  0  0  0  0  0  0  0  0
   22.9043   -8.2992  -15.2940 N   0  0  0  0  0  0  0  0  0  0  0  0
   22.1641   -7.0276  -15.4351 C   0  0  1  0  0  0  0  0  0  0  0  0
   20.9350   -7.2653  -16.2155 C   0  0  0  0  0  0  0  0  0  0  0  0
   20.0409   -6.0956  -16.3652 C   0  0  0  0  0  0  0  0  0  0  0  0
   18.7463   -6.4132  -16.9590 C   0  0  0  0  0  0  0  0  0  0  0  0
   18.4734   -7.6218  -17.2657 O   0  0  0  0  0  0  0  0  0  0  0  0
   21.9819   -6.4468  -14.1355 C   0  0  0  0  0  0  0  0  0  0  0  0
   21.8750   -5.0748  -13.8604 O   0  0  0  0  0  0  0  0  0  0  0  0
   17.7738   -5.4602  -17.2170 O   0  0  0  0  0  0  0  0  0  0  0  0
   21.9207   -7.2159  -13.1182 O   0  0  0  0  0  0  0  0  0  0  0  0
  2  1  1  1
  2  8  1  0
  3  2  1  0
  3  4  1  0
  4  5  1  0
  5  6  1  0
  7  6  1  0
  8 15  1  0
  8  9  2  0
 10 11  1  0
 12 13  1  0
 12 11  1  0
 14 13  1  6
 14 16  1  0
 15 14  1  0
 16 17  2  0
 18 19  1  0
 18 16  1  0
 19 24  1  0
 19 20  1  1
 21 20  1  0
 22 21  1  0
 23 22  2  0
 24 25  1  0
 26 22  1  0
 27 24  2  0
M  END
$$$$
