KME.pdb
     RDKit          3D

 27 26  0  0  1  0  0  0  0  0999 V2000
   37.4147  -27.7586    3.6711 N   0  0  0  0  0  0  0  0  0  0  0  0
   36.2332  -27.7434    4.4841 C   0  0  1  0  0  0  0  0  0  0  0  0
   36.1442  -28.9960    5.2909 C   0  0  0  0  0  0  0  0  0  0  0  0
   34.9018  -29.7329    4.8166 C   0  0  0  0  0  0  0  0  0  0  0  0
   34.6928  -31.0547    5.5051 C   0  0  0  0  0  0  0  0  0  0  0  0
   33.4547  -31.7066    4.8798 C   0  0  0  0  0  0  0  0  0  0  0  0
   33.1514  -32.9649    5.4986 N   0  0  0  0  0  0  0  0  0  0  0  0
   36.0071  -26.4957    5.2013 C   0  0  0  0  0  0  0  0  0  0  0  0
   36.6458  -26.1400    6.2349 O   0  0  0  0  0  0  0  0  0  0  0  0
   32.2667  -19.4891    5.2674 C   0  0  0  0  0  0  0  0  0  0  0  0
   32.5248  -21.0920    4.4536 S   0  0  0  0  0  0  0  0  0  0  0  0
   33.5724  -22.1378    5.5177 C   0  0  0  0  0  0  0  0  0  0  0  0
   33.8355  -23.4061    4.7602 C   0  0  0  0  0  0  0  0  0  0  0  0
   34.6950  -24.3790    5.4792 C   0  0  2  0  0  0  0  0  0  0  0  0
   35.0173  -25.5850    4.7624 N   0  0  0  0  0  0  0  0  0  0  0  0
   34.2556  -24.6717    6.8827 C   0  0  0  0  0  0  0  0  0  0  0  0
   33.4168  -25.5630    7.1753 O   0  0  0  0  0  0  0  0  0  0  0  0
   34.8335  -23.8943    7.9036 N   0  0  0  0  0  0  0  0  0  0  0  0
   34.4850  -24.0187    9.3347 C   0  0  1  0  0  0  0  0  0  0  0  0
   35.6510  -24.5370   10.0750 C   0  0  0  0  0  0  0  0  0  0  0  0
   35.6283  -25.9889   10.3610 C   0  0  0  0  0  0  0  0  0  0  0  0
   36.8235  -26.4760   11.0419 C   0  0  0  0  0  0  0  0  0  0  0  0
   37.8043  -25.6830   11.2376 O   0  0  0  0  0  0  0  0  0  0  0  0
   33.9518  -22.7688    9.7957 C   0  0  0  0  0  0  0  0  0  0  0  0
   33.9203  -21.5726    9.0623 O   0  0  0  0  0  0  0  0  0  0  0  0
   36.9615  -27.7774   11.4980 O   0  0  0  0  0  0  0  0  0  0  0  0
   33.4683  -22.7008   10.9755 O   0  0  0  0  0  0  0  0  0  0  0  0
  2  1  1  1
  2  8  1  0
  3  2  1  0
  3  4  1  0
  4  5  1  0
  5  6  1  0
  7  6  1  0
  8 15  1  0
  8  9  2  0
 10 11  1  0
 12 13  1  0
 12 11  1  0
 14 13  1  6
 14 16  1  0
 15 14  1  0
 16 17  2  0
 18 19  1  0
 18 16  1  0
 19 24  1  0
 19 20  1  1
 21 20  1  0
 22 21  1  0
 23 22  2  0
 24 25  1  0
 26 22  1  0
 27 24  2  0
M  END
$$$$
