KME.pdb
     RDKit          3D

 27 26  0  0  1  0  0  0  0  0999 V2000
   13.7445  -11.8445  -10.8867 N   0  0  0  0  0  0  0  0  0  0  0  0
   15.0070  -11.1728  -10.7773 C   0  0  1  0  0  0  0  0  0  0  0  0
   15.9704  -11.7153  -11.7799 C   0  0  0  0  0  0  0  0  0  0  0  0
   15.9220  -13.2299  -11.6561 C   0  0  0  0  0  0  0  0  0  0  0  0
   16.7133  -13.9411  -12.7206 C   0  0  0  0  0  0  0  0  0  0  0  0
   16.3732  -15.4325  -12.6250 C   0  0  0  0  0  0  0  0  0  0  0  0
   17.1219  -16.2062  -13.5731 N   0  0  0  0  0  0  0  0  0  0  0  0
   14.9157   -9.7215  -10.6888 C   0  0  0  0  0  0  0  0  0  0  0  0
   14.1226   -9.0125  -11.3754 O   0  0  0  0  0  0  0  0  0  0  0  0
   14.3338   -3.0961   -6.9475 C   0  0  0  0  0  0  0  0  0  0  0  0
   14.2007   -4.9007   -7.1009 S   0  0  0  0  0  0  0  0  0  0  0  0
   15.1575   -5.4467   -8.5535 C   0  0  0  0  0  0  0  0  0  0  0  0
   15.0982   -6.9459   -8.5771 C   0  0  0  0  0  0  0  0  0  0  0  0
   15.7738   -7.5650   -9.7444 C   0  0  2  0  0  0  0  0  0  0  0  0
   15.7475   -9.0032   -9.7978 N   0  0  0  0  0  0  0  0  0  0  0  0
   17.1462   -7.0273  -10.0201 C   0  0  0  0  0  0  0  0  0  0  0  0
   18.1002   -7.1092   -9.2036 O   0  0  0  0  0  0  0  0  0  0  0  0
   17.3462   -6.4082  -11.2681 N   0  0  0  0  0  0  0  0  0  0  0  0
   18.6585   -5.9308  -11.7528 C   0  0  1  0  0  0  0  0  0  0  0  0
   19.2925   -6.9903  -12.5601 C   0  0  0  0  0  0  0  0  0  0  0  0
   20.6223   -6.6554  -13.1167 C   0  0  0  0  0  0  0  0  0  0  0  0
   21.2586   -7.7573  -13.8311 C   0  0  0  0  0  0  0  0  0  0  0  0
   21.4849   -7.6495  -15.0826 O   0  0  0  0  0  0  0  0  0  0  0  0
   18.4831   -4.6639  -12.4034 C   0  0  0  0  0  0  0  0  0  0  0  0
   19.4559   -3.6580  -12.5110 O   0  0  0  0  0  0  0  0  0  0  0  0
   21.6397   -8.9408  -13.2190 O   0  0  0  0  0  0  0  0  0  0  0  0
   17.3520   -4.3906  -12.9290 O   0  0  0  0  0  0  0  0  0  0  0  0
  2  1  1  6
  2  8  1  0
  3  2  1  0
  3  4  1  0
  4  5  1  0
  5  6  1  0
  7  6  1  0
  8 15  1  0
  8  9  2  0
 10 11  1  0
 12 13  1  0
 12 11  1  0
 14 13  1  1
 14 16  1  0
 15 14  1  0
 16 17  2  0
 18 19  1  0
 18 16  1  0
 19 24  1  0
 19 20  1  6
 21 20  1  0
 22 21  1  0
 23 22  2  0
 24 25  1  0
 26 22  1  0
 27 24  2  0
M  END
$$$$
