PPR.pdb
     RDKit          3D

 26 27  0  0  1  0  0  0  0  0999 V2000
    7.0396  -14.5123   19.0228 N   0  0  0  0  0  0  0  0  0  0  0  0
    7.0319  -13.1641   18.5236 C   0  0  0  0  0  0  0  0  0  0  0  0
    7.8221  -12.3190   19.4677 C   0  0  0  0  0  0  0  0  0  0  0  0
    8.1973  -13.3103   20.5721 C   0  0  0  0  0  0  0  0  0  0  0  0
    8.3204  -14.5840   19.7227 C   0  0  1  0  0  0  0  0  0  0  0  0
    8.4251  -15.7910   20.5583 C   0  0  0  0  0  0  0  0  0  0  0  0
    7.3515  -16.3400   20.9167 O   0  0  0  0  0  0  0  0  0  0  0  0
    9.7023  -16.2778   20.9190 N   0  0  0  0  0  0  0  0  0  0  0  0
   10.9709  -15.8204   20.4096 C   0  0  0  0  0  0  0  0  0  0  0  0
   11.8104  -17.0782   20.3937 C   0  0  0  0  0  0  0  0  0  0  0  0
   11.0189  -18.1472   21.0998 C   0  0  0  0  0  0  0  0  0  0  0  0
    9.9766  -17.3262   21.8660 C   0  0  1  0  0  0  0  0  0  0  0  0
   10.6157  -16.8171   23.1036 C   0  0  0  0  0  0  0  0  0  0  0  0
   11.2956  -15.7654   23.0204 O   0  0  0  0  0  0  0  0  0  0  0  0
    4.9210  -12.1493   25.9800 N   0  0  0  0  0  0  0  0  0  0  0  0
    6.3092  -11.9351   26.2335 C   0  0  0  0  0  0  0  0  0  0  0  0
    6.7452  -10.7130   26.2671 N   0  0  0  0  0  0  0  0  0  0  0  0
    7.2242  -12.9925   26.4481 N   0  0  0  0  0  0  0  0  0  0  0  0
    6.9410  -14.3634   25.9248 C   0  0  0  0  0  0  0  0  0  0  0  0
    8.1494  -15.1626   26.2424 C   0  0  0  0  0  0  0  0  0  0  0  0
    8.8507  -15.9625   25.2430 C   0  0  0  0  0  0  0  0  0  0  0  0
   10.1335  -16.6044   25.5833 C   0  0  2  0  0  0  0  0  0  0  0  0
   10.5005  -17.4461   24.3551 N   0  0  0  0  0  0  0  0  0  0  0  0
   10.0463  -17.5916   26.6813 C   0  0  0  0  0  0  0  0  0  0  0  0
   10.2497  -17.4228   27.8802 O   0  0  0  0  0  0  0  0  0  0  0  0
    9.6808  -18.9189   26.3375 O   0  0  0  0  0  0  0  0  0  0  0  0
  2  1  1  0
  3  2  1  0
  4  3  1  0
  4  5  1  0
  5  6  1  1
  5  1  1  0
  6  7  2  0
  8  6  1  0
  8  9  1  0
  9 10  1  0
 11 10  1  0
 12  8  1  0
 12 11  1  0
 13 14  2  0
 12 13  1  1
 16 15  1  0
 17 16  2  0
 18 16  1  0
 19 20  1  0
 19 18  1  0
 20 21  1  0
 22 21  1  6
 22 23  1  0
 22 24  1  0
 23 13  1  0
 24 26  1  0
 25 24  2  0
M  END
$$$$
