PPR.pdb
     RDKit          3D

 26 27  0  0  1  0  0  0  0  0999 V2000
    8.8694  -13.7496   21.0016 N   0  0  0  0  0  0  0  0  0  0  0  0
    8.0708  -13.3052   19.8919 C   0  0  0  0  0  0  0  0  0  0  0  0
    6.6374  -13.3518   20.3082 C   0  0  0  0  0  0  0  0  0  0  0  0
    6.7168  -13.9376   21.7202 C   0  0  0  0  0  0  0  0  0  0  0  0
    8.0659  -13.3445   22.1530 C   0  0  1  0  0  0  0  0  0  0  0  0
    8.5525  -13.9474   23.4043 C   0  0  0  0  0  0  0  0  0  0  0  0
    9.6978  -14.4674   23.3874 O   0  0  0  0  0  0  0  0  0  0  0  0
    7.7310  -13.9198   24.5544 N   0  0  0  0  0  0  0  0  0  0  0  0
    6.3614  -13.4746   24.6209 C   0  0  0  0  0  0  0  0  0  0  0  0
    6.2660  -12.8558   25.9974 C   0  0  0  0  0  0  0  0  0  0  0  0
    7.5493  -13.1771   26.7168 C   0  0  0  0  0  0  0  0  0  0  0  0
    8.1097  -14.3319   25.8802 C   0  0  1  0  0  0  0  0  0  0  0  0
    7.4238  -15.5771   26.3027 C   0  0  0  0  0  0  0  0  0  0  0  0
    6.7029  -15.5281   27.3289 O   0  0  0  0  0  0  0  0  0  0  0  0
   12.0122  -18.5165   20.6778 N   0  0  0  0  0  0  0  0  0  0  0  0
   10.5961  -18.6060   20.5235 C   0  0  0  0  0  0  0  0  0  0  0  0
   10.1021  -18.5096   19.3271 N   0  0  0  0  0  0  0  0  0  0  0  0
    9.7139  -18.7941   21.6133 N   0  0  0  0  0  0  0  0  0  0  0  0
   10.2418  -18.9569   23.0018 C   0  0  0  0  0  0  0  0  0  0  0  0
    9.4329  -18.0385   23.8399 C   0  0  0  0  0  0  0  0  0  0  0  0
    9.6285  -17.9073   25.2804 C   0  0  0  0  0  0  0  0  0  0  0  0
    8.4621  -17.8865   26.1817 C   0  0  2  0  0  0  0  0  0  0  0  0
    7.5383  -16.7996   25.6190 N   0  0  0  0  0  0  0  0  0  0  0  0
    8.7635  -17.4254   27.5544 C   0  0  0  0  0  0  0  0  0  0  0  0
    9.2352  -16.3506   27.9144 O   0  0  0  0  0  0  0  0  0  0  0  0
    8.4814  -18.3194   28.6195 O   0  0  0  0  0  0  0  0  0  0  0  0
  2  1  1  0
  3  2  1  0
  4  3  1  0
  4  5  1  0
  5  6  1  1
  5  1  1  0
  6  7  2  0
  8  6  1  0
  8  9  1  0
  9 10  1  0
 11 10  1  0
 12  8  1  0
 12 11  1  0
 13 14  2  0
 12 13  1  1
 16 15  1  0
 17 16  2  0
 18 16  1  0
 19 20  1  0
 19 18  1  0
 20 21  1  0
 22 21  1  6
 22 23  1  0
 22 24  1  0
 23 13  1  0
 24 26  1  0
 25 24  2  0
M  END
$$$$
