PPR.pdb
     RDKit          3D

 26 27  0  0  1  0  0  0  0  0999 V2000
    7.0711  -14.4082   21.5241 N   0  0  0  0  0  0  0  0  0  0  0  0
    6.7384  -13.9525   20.2018 C   0  0  0  0  0  0  0  0  0  0  0  0
    7.3785  -12.6186   19.9998 C   0  0  0  0  0  0  0  0  0  0  0  0
    8.0267  -12.3478   21.3598 C   0  0  0  0  0  0  0  0  0  0  0  0
    8.3756  -13.7908   21.7534 C   0  0  1  0  0  0  0  0  0  0  0  0
    8.7917  -13.8885   23.1617 C   0  0  0  0  0  0  0  0  0  0  0  0
   10.0140  -14.0781   23.3908 O   0  0  0  0  0  0  0  0  0  0  0  0
    7.8217  -13.7678   24.1830 N   0  0  0  0  0  0  0  0  0  0  0  0
    6.4029  -13.5871   24.0025 C   0  0  0  0  0  0  0  0  0  0  0  0
    6.0144  -12.7133   25.1741 C   0  0  0  0  0  0  0  0  0  0  0  0
    7.2175  -12.6209   26.0751 C   0  0  0  0  0  0  0  0  0  0  0  0
    8.0698  -13.8021   25.6001 C   0  0  1  0  0  0  0  0  0  0  0  0
    7.5409  -15.0326   26.2369 C   0  0  0  0  0  0  0  0  0  0  0  0
    6.2970  -15.1337   26.3700 O   0  0  0  0  0  0  0  0  0  0  0  0
    4.7257  -21.7368   22.5879 N   0  0  0  0  0  0  0  0  0  0  0  0
    5.6570  -21.8938   23.6580 C   0  0  0  0  0  0  0  0  0  0  0  0
    5.5070  -22.9043   24.4586 N   0  0  0  0  0  0  0  0  0  0  0  0
    6.7302  -20.9994   23.8813 N   0  0  0  0  0  0  0  0  0  0  0  0
    6.4999  -19.5230   23.9021 C   0  0  0  0  0  0  0  0  0  0  0  0
    7.8062  -18.9268   24.2740 C   0  0  0  0  0  0  0  0  0  0  0  0
    7.9226  -17.6227   24.9193 C   0  0  0  0  0  0  0  0  0  0  0  0
    7.9475  -17.5301   26.3904 C   0  0  2  0  0  0  0  0  0  0  0  0
    8.3538  -16.0833   26.6955 N   0  0  0  0  0  0  0  0  0  0  0  0
    9.0041  -18.3422   27.0321 C   0  0  0  0  0  0  0  0  0  0  0  0
    8.8901  -19.3983   27.6476 O   0  0  0  0  0  0  0  0  0  0  0  0
   10.3377  -17.8657   26.9425 O   0  0  0  0  0  0  0  0  0  0  0  0
  2  1  1  0
  3  2  1  0
  4  3  1  0
  4  5  1  0
  5  6  1  1
  5  1  1  0
  6  7  2  0
  8  6  1  0
  8  9  1  0
  9 10  1  0
 11 10  1  0
 12  8  1  0
 12 11  1  0
 13 14  2  0
 12 13  1  1
 16 15  1  0
 17 16  2  0
 18 16  1  0
 19 20  1  0
 19 18  1  0
 20 21  1  0
 22 21  1  6
 22 23  1  0
 22 24  1  0
 23 13  1  0
 24 26  1  0
 25 24  2  0
M  END
$$$$
