PPR.pdb
     RDKit          3D

 26 27  0  0  1  0  0  0  0  0999 V2000
    9.2809  -13.9042   16.8128 N   0  0  0  0  0  0  0  0  0  0  0  0
    8.3213  -14.1588   15.7731 C   0  0  0  0  0  0  0  0  0  0  0  0
    7.2870  -15.0877   16.3184 C   0  0  0  0  0  0  0  0  0  0  0  0
    7.8095  -15.3825   17.7267 C   0  0  0  0  0  0  0  0  0  0  0  0
    8.4756  -14.0312   18.0256 C   0  0  1  0  0  0  0  0  0  0  0  0
    9.3091  -14.0881   19.2372 C   0  0  0  0  0  0  0  0  0  0  0  0
   10.5342  -13.8332   19.1078 O   0  0  0  0  0  0  0  0  0  0  0  0
    8.7134  -14.4201   20.4755 N   0  0  0  0  0  0  0  0  0  0  0  0
    7.3161  -14.6835   20.7129 C   0  0  0  0  0  0  0  0  0  0  0  0
    7.0949  -14.1419   22.1074 C   0  0  0  0  0  0  0  0  0  0  0  0
    8.4482  -13.7858   22.6636 C   0  0  0  0  0  0  0  0  0  0  0  0
    9.3930  -14.5574   21.7366 C   0  0  1  0  0  0  0  0  0  0  0  0
    9.4417  -15.9646   22.2023 C   0  0  0  0  0  0  0  0  0  0  0  0
    8.4685  -16.7066   21.9237 O   0  0  0  0  0  0  0  0  0  0  0  0
   14.5400  -20.6443   18.0398 N   0  0  0  0  0  0  0  0  0  0  0  0
   15.3950  -20.1925   19.0894 C   0  0  0  0  0  0  0  0  0  0  0  0
   16.6781  -20.2988   18.9242 N   0  0  0  0  0  0  0  0  0  0  0  0
   14.9058  -19.6371   20.2951 N   0  0  0  0  0  0  0  0  0  0  0  0
   13.9017  -18.5306   20.2722 C   0  0  0  0  0  0  0  0  0  0  0  0
   13.6668  -18.1835   21.6950 C   0  0  0  0  0  0  0  0  0  0  0  0
   12.6345  -17.2417   22.1167 C   0  0  0  0  0  0  0  0  0  0  0  0
   11.2633  -17.7195   22.3714 C   0  0  2  0  0  0  0  0  0  0  0  0
   10.5125  -16.5063   22.9337 N   0  0  0  0  0  0  0  0  0  0  0  0
   11.1625  -18.7323   23.4446 C   0  0  0  0  0  0  0  0  0  0  0  0
   10.9445  -18.5609   24.6406 O   0  0  0  0  0  0  0  0  0  0  0  0
   11.3352  -20.0918   23.0768 O   0  0  0  0  0  0  0  0  0  0  0  0
  2  1  1  0
  3  2  1  0
  4  3  1  0
  4  5  1  0
  5  6  1  1
  5  1  1  0
  6  7  2  0
  8  6  1  0
  8  9  1  0
  9 10  1  0
 11 10  1  0
 12  8  1  0
 12 11  1  0
 13 14  2  0
 12 13  1  1
 16 15  1  0
 17 16  2  0
 18 16  1  0
 19 20  1  0
 19 18  1  0
 20 21  1  0
 22 21  1  1
 22 23  1  0
 22 24  1  0
 23 13  1  0
 24 26  1  0
 25 24  2  0
M  END
$$$$
