PPR.pdb
     RDKit          3D

 26 27  0  0  1  0  0  0  0  0999 V2000
    6.6507  -14.5517   21.5815 N   0  0  0  0  0  0  0  0  0  0  0  0
    6.1028  -14.2093   20.2972 C   0  0  0  0  0  0  0  0  0  0  0  0
    6.7936  -12.9760   19.8158 C   0  0  0  0  0  0  0  0  0  0  0  0
    7.7143  -12.6276   20.9880 C   0  0  0  0  0  0  0  0  0  0  0  0
    8.0192  -14.0478   21.4869 C   0  0  1  0  0  0  0  0  0  0  0  0
    8.6936  -14.0353   22.7950 C   0  0  0  0  0  0  0  0  0  0  0  0
    9.9434  -14.1778   22.8016 O   0  0  0  0  0  0  0  0  0  0  0  0
    7.9267  -13.8668   23.9706 N   0  0  0  0  0  0  0  0  0  0  0  0
    6.5197  -13.5612   24.0415 C   0  0  0  0  0  0  0  0  0  0  0  0
    6.4161  -12.6968   25.2780 C   0  0  0  0  0  0  0  0  0  0  0  0
    7.7587  -12.7359   25.9589 C   0  0  0  0  0  0  0  0  0  0  0  0
    8.4091  -13.9686   25.3226 C   0  0  1  0  0  0  0  0  0  0  0  0
    7.8896  -15.1703   26.0192 C   0  0  0  0  0  0  0  0  0  0  0  0
    6.6448  -15.3210   26.0756 O   0  0  0  0  0  0  0  0  0  0  0  0
   10.7052  -17.3652   20.9112 N   0  0  0  0  0  0  0  0  0  0  0  0
   11.4818  -18.1815   21.7873 C   0  0  0  0  0  0  0  0  0  0  0  0
   12.7694  -18.2039   21.6245 N   0  0  0  0  0  0  0  0  0  0  0  0
   10.9105  -18.9626   22.8193 N   0  0  0  0  0  0  0  0  0  0  0  0
    9.4618  -18.8307   23.1617 C   0  0  0  0  0  0  0  0  0  0  0  0
    9.4322  -18.2981   24.5457 C   0  0  0  0  0  0  0  0  0  0  0  0
    8.1884  -18.0435   25.2660 C   0  0  0  0  0  0  0  0  0  0  0  0
    8.2305  -17.5965   26.6702 C   0  0  2  0  0  0  0  0  0  0  0  0
    8.7121  -16.1417   26.6150 N   0  0  0  0  0  0  0  0  0  0  0  0
    9.2500  -18.2805   27.4950 C   0  0  0  0  0  0  0  0  0  0  0  0
   10.3879  -17.9095   27.7688 O   0  0  0  0  0  0  0  0  0  0  0  0
    8.8983  -19.5337   28.0602 O   0  0  0  0  0  0  0  0  0  0  0  0
  2  1  1  0
  3  2  1  0
  4  3  1  0
  4  5  1  0
  5  6  1  1
  5  1  1  0
  6  7  2  0
  8  6  1  0
  8  9  1  0
  9 10  1  0
 11 10  1  0
 12  8  1  0
 12 11  1  0
 13 14  2  0
 12 13  1  1
 16 15  1  0
 17 16  2  0
 18 16  1  0
 19 20  1  0
 19 18  1  0
 20 21  1  0
 22 21  1  6
 22 23  1  0
 22 24  1  0
 23 13  1  0
 24 26  1  0
 25 24  2  0
M  END
$$$$
