PPR.pdb
     RDKit          3D

 26 27  0  0  1  0  0  0  0  0999 V2000
    8.8476  -14.5117   20.7884 N   0  0  0  0  0  0  0  0  0  0  0  0
    8.0321  -14.2860   19.6261 C   0  0  0  0  0  0  0  0  0  0  0  0
    6.6092  -14.2012   20.0713 C   0  0  0  0  0  0  0  0  0  0  0  0
    6.7101  -14.4800   21.5731 C   0  0  0  0  0  0  0  0  0  0  0  0
    8.0844  -13.8502   21.8445 C   0  0  1  0  0  0  0  0  0  0  0  0
    8.5877  -14.1916   23.1847 C   0  0  0  0  0  0  0  0  0  0  0  0
    9.7229  -14.7290   23.2555 O   0  0  0  0  0  0  0  0  0  0  0  0
    7.7925  -13.9085   24.3187 N   0  0  0  0  0  0  0  0  0  0  0  0
    6.4758  -13.3214   24.3191 C   0  0  0  0  0  0  0  0  0  0  0  0
    6.4660  -12.4967   25.5867 C   0  0  0  0  0  0  0  0  0  0  0  0
    7.7224  -12.8355   26.3445 C   0  0  0  0  0  0  0  0  0  0  0  0
    8.1500  -14.1536   25.6909 C   0  0  1  0  0  0  0  0  0  0  0  0
    7.3497  -15.2450   26.2973 C   0  0  0  0  0  0  0  0  0  0  0  0
    6.1344  -15.3179   25.9921 O   0  0  0  0  0  0  0  0  0  0  0  0
    5.1540  -22.5359   24.4236 N   0  0  0  0  0  0  0  0  0  0  0  0
    6.5807  -22.4980   24.4340 C   0  0  0  0  0  0  0  0  0  0  0  0
    7.2208  -23.5785   24.7620 N   0  0  0  0  0  0  0  0  0  0  0  0
    7.3220  -21.3390   24.1041 N   0  0  0  0  0  0  0  0  0  0  0  0
    6.8454  -19.9854   24.5210 C   0  0  0  0  0  0  0  0  0  0  0  0
    8.0535  -19.2765   25.0088 C   0  0  0  0  0  0  0  0  0  0  0  0
    8.0102  -17.9164   25.5369 C   0  0  0  0  0  0  0  0  0  0  0  0
    7.6119  -17.6839   26.9372 C   0  0  2  0  0  0  0  0  0  0  0  0
    7.8772  -16.1947   27.1889 N   0  0  0  0  0  0  0  0  0  0  0  0
    8.4618  -18.3727   27.9327 C   0  0  0  0  0  0  0  0  0  0  0  0
    9.6388  -18.1617   28.2110 O   0  0  0  0  0  0  0  0  0  0  0  0
    7.8686  -19.4208   28.6831 O   0  0  0  0  0  0  0  0  0  0  0  0
  2  1  1  0
  3  2  1  0
  4  3  1  0
  4  5  1  0
  5  6  1  1
  5  1  1  0
  6  7  2  0
  8  6  1  0
  8  9  1  0
  9 10  1  0
 11 10  1  0
 12  8  1  0
 12 11  1  0
 13 14  2  0
 12 13  1  1
 16 15  1  0
 17 16  2  0
 18 16  1  0
 19 20  1  0
 19 18  1  0
 20 21  1  0
 22 21  1  6
 22 23  1  0
 22 24  1  0
 23 13  1  0
 24 26  1  0
 25 24  2  0
M  END
$$$$
