LGC.pdb
     RDKit          3D

 19 18  0  0  1  0  0  0  0  0999 V2000
   13.2871  -11.7341  -14.2287 C   0  0  0  0  0  0  0  0  0  0  0  0
   13.8159  -12.8940  -13.4456 C   0  0  2  0  0  0  0  0  0  0  0  0
   12.7249  -13.9088  -13.1875 C   0  0  0  0  0  0  0  0  0  0  0  0
   14.4919  -12.4451  -12.1652 C   0  0  0  0  0  0  0  0  0  0  0  0
   15.6117  -11.5099  -12.5622 C   0  0  2  0  0  0  0  0  0  0  0  0
   16.7148  -12.3242  -13.0380 N   0  0  0  0  0  0  0  0  0  0  0  0
   16.0841  -10.7652  -11.3534 C   0  0  0  0  0  0  0  0  0  0  0  0
   16.9596  -11.2822  -10.5885 O   0  0  0  0  0  0  0  0  0  0  0  0
   15.5853   -9.4910  -11.0274 N   0  0  0  0  0  0  0  0  0  0  0  0
   16.0826   -8.8069   -9.8763 C   0  0  0  0  0  0  0  0  0  0  0  0
   15.4264   -7.4856   -9.6778 C   0  0  0  0  0  0  0  0  0  0  0  0
   14.7037   -7.0345  -10.5854 O   0  0  0  0  0  0  0  0  0  0  0  0
   15.5934   -6.7205   -8.4934 N   0  0  0  0  0  0  0  0  0  0  0  0
   14.9747   -5.4212   -8.3211 C   0  0  1  0  0  0  0  0  0  0  0  0
   14.9575   -4.9834   -6.8747 C   0  0  0  0  0  0  0  0  0  0  0  0
   14.2549   -3.3306   -6.7373 S   0  0  0  0  0  0  0  0  0  0  0  0
   15.7967   -4.4366   -9.0713 C   0  0  0  0  0  0  0  0  0  0  0  0
   15.2067   -3.4907   -9.9058 O   0  0  0  0  0  0  0  0  0  0  0  0
   17.0519   -4.4075   -8.9919 O   0  0  0  0  0  0  0  0  0  0  0  0
  2  1  1  1
  3  2  1  0
  4  2  1  0
  5  4  1  0
  5  6  1  1
  7  8  2  0
  7  5  1  0
  9  7  1  0
 10  9  1  0
 11 10  1  0
 11 13  1  0
 12 11  2  0
 14 13  1  0
 14 15  1  1
 15 16  1  0
 17 18  1  0
 17 14  1  0
 19 17  2  0
M  END
$$$$
