LGC.pdb
     RDKit          3D

 19 18  0  0  1  0  0  0  0  0999 V2000
   25.6282  -11.8437  -15.9953 C   0  0  0  0  0  0  0  0  0  0  0  0
   25.7587  -10.3711  -16.2248 C   0  0  2  0  0  0  0  0  0  0  0  0
   27.0986   -9.8688  -15.7360 C   0  0  0  0  0  0  0  0  0  0  0  0
   24.6039   -9.6033  -15.6127 C   0  0  0  0  0  0  0  0  0  0  0  0
   23.3460  -10.0672  -16.3119 C   0  0  2  0  0  0  0  0  0  0  0  0
   23.5133   -9.8109  -17.7305 N   0  0  0  0  0  0  0  0  0  0  0  0
   22.1869   -9.2498  -15.8353 C   0  0  0  0  0  0  0  0  0  0  0  0
   21.8435   -9.2848  -14.6106 O   0  0  0  0  0  0  0  0  0  0  0  0
   21.4506   -8.4296  -16.7091 N   0  0  0  0  0  0  0  0  0  0  0  0
   20.3344   -7.6876  -16.2154 C   0  0  0  0  0  0  0  0  0  0  0  0
   20.1691   -6.3842  -16.9150 C   0  0  0  0  0  0  0  0  0  0  0  0
   20.8070   -6.1840  -17.9651 O   0  0  0  0  0  0  0  0  0  0  0  0
   19.3120   -5.3610  -16.4307 N   0  0  0  0  0  0  0  0  0  0  0  0
   19.1122   -4.1182  -17.1493 C   0  0  1  0  0  0  0  0  0  0  0  0
   17.9121   -4.1745  -18.0660 C   0  0  0  0  0  0  0  0  0  0  0  0
   17.8461   -2.6939  -19.0898 S   0  0  0  0  0  0  0  0  0  0  0  0
   18.8480   -3.0606  -16.1394 C   0  0  0  0  0  0  0  0  0  0  0  0
   19.3730   -1.7789  -16.2826 O   0  0  0  0  0  0  0  0  0  0  0  0
   18.1455   -3.2666  -15.1164 O   0  0  0  0  0  0  0  0  0  0  0  0
  2  1  1  1
  3  2  1  0
  4  2  1  0
  5  4  1  0
  5  6  1  6
  7  8  2  0
  7  5  1  0
  9  7  1  0
 10  9  1  0
 11 10  1  0
 11 13  1  0
 12 11  2  0
 14 13  1  0
 14 15  1  6
 15 16  1  0
 17 18  1  0
 17 14  1  0
 19 17  2  0
M  END
$$$$
