LGC.pdb
     RDKit          3D

 19 18  0  0  1  0  0  0  0  0999 V2000
   22.2551  -14.4981  -20.5324 C   0  0  0  0  0  0  0  0  0  0  0  0
   22.6081  -15.0572  -19.1904 C   0  0  2  0  0  0  0  0  0  0  0  0
   21.9101  -16.3786  -18.9594 C   0  0  0  0  0  0  0  0  0  0  0  0
   22.3322  -14.0644  -18.0787 C   0  0  0  0  0  0  0  0  0  0  0  0
   23.2568  -12.8883  -18.2983 C   0  0  2  0  0  0  0  0  0  0  0  0
   24.6195  -13.3812  -18.2185 N   0  0  0  0  0  0  0  0  0  0  0  0
   23.0657  -11.8978  -17.1932 C   0  0  0  0  0  0  0  0  0  0  0  0
   23.6956  -12.0376  -16.0965 O   0  0  0  0  0  0  0  0  0  0  0  0
   22.1987  -10.7982  -17.3266 N   0  0  0  0  0  0  0  0  0  0  0  0
   22.0040   -9.9097  -16.2254 C   0  0  0  0  0  0  0  0  0  0  0  0
   21.1245   -8.7609  -16.5757 C   0  0  0  0  0  0  0  0  0  0  0  0
   20.6557   -8.6961  -17.7270 O   0  0  0  0  0  0  0  0  0  0  0  0
   20.8002   -7.7367  -15.6473 N   0  0  0  0  0  0  0  0  0  0  0  0
   19.8722   -6.6707  -15.9682 C   0  0  1  0  0  0  0  0  0  0  0  0
   18.4686   -6.9733  -15.4968 C   0  0  0  0  0  0  0  0  0  0  0  0
   17.4209   -5.5227  -15.7029 S   0  0  0  0  0  0  0  0  0  0  0  0
   20.3285   -5.4545  -15.2466 C   0  0  0  0  0  0  0  0  0  0  0  0
   20.2631   -4.1963  -15.8397 O   0  0  0  0  0  0  0  0  0  0  0  0
   20.7914   -5.4988  -14.0777 O   0  0  0  0  0  0  0  0  0  0  0  0
  2  1  1  6
  3  2  1  0
  4  2  1  0
  5  4  1  0
  5  6  1  1
  7  8  2  0
  7  5  1  0
  9  7  1  0
 10  9  1  0
 11 10  1  0
 11 13  1  0
 12 11  2  0
 14 13  1  0
 14 15  1  1
 15 16  1  0
 17 18  1  0
 17 14  1  0
 19 17  2  0
M  END
$$$$
