LGC.pdb
     RDKit          3D

 19 18  0  0  1  0  0  0  0  0999 V2000
   24.7840  -13.9896  -17.1730 C   0  0  0  0  0  0  0  0  0  0  0  0
   24.8005  -12.7093  -17.9467 C   0  0  2  0  0  0  0  0  0  0  0  0
   26.0292  -12.6290  -18.8245 C   0  0  0  0  0  0  0  0  0  0  0  0
   24.6686  -11.5029  -17.0384 C   0  0  0  0  0  0  0  0  0  0  0  0
   23.3498  -11.6402  -16.3116 C   0  0  2  0  0  0  0  0  0  0  0  0
   22.3298  -11.9233  -17.3043 N   0  0  0  0  0  0  0  0  0  0  0  0
   23.0055  -10.3359  -15.6643 C   0  0  0  0  0  0  0  0  0  0  0  0
   23.7876   -9.8282  -14.7986 O   0  0  0  0  0  0  0  0  0  0  0  0
   21.8265   -9.6389  -15.9851 N   0  0  0  0  0  0  0  0  0  0  0  0
   21.6359   -8.3071  -15.5054 C   0  0  0  0  0  0  0  0  0  0  0  0
   20.3346   -7.7309  -15.9416 C   0  0  0  0  0  0  0  0  0  0  0  0
   19.9913   -7.8619  -17.1309 O   0  0  0  0  0  0  0  0  0  0  0  0
   19.4704   -7.0378  -15.0534 N   0  0  0  0  0  0  0  0  0  0  0  0
   18.1496   -6.5939  -15.4522 C   0  0  1  0  0  0  0  0  0  0  0  0
   17.0987   -6.9248  -14.4178 C   0  0  0  0  0  0  0  0  0  0  0  0
   17.1661   -8.6771  -14.0064 S   0  0  0  0  0  0  0  0  0  0  0  0
   18.1985   -5.1139  -15.5752 C   0  0  0  0  0  0  0  0  0  0  0  0
   17.1348   -4.3995  -16.1205 O   0  0  0  0  0  0  0  0  0  0  0  0
   19.1908   -4.4390  -15.1977 O   0  0  0  0  0  0  0  0  0  0  0  0
  2  1  1  1
  3  2  1  0
  4  2  1  0
  5  4  1  0
  5  6  1  6
  7  8  2  0
  7  5  1  0
  9  7  1  0
 10  9  1  0
 11 10  1  0
 11 13  1  0
 12 11  2  0
 14 13  1  0
 14 15  1  1
 15 16  1  0
 17 18  1  0
 17 14  1  0
 19 17  2  0
M  END
$$$$
