LGC.pdb
     RDKit          3D

 19 18  0  0  1  0  0  0  0  0999 V2000
   17.1200  -14.5327  -18.4775 C   0  0  0  0  0  0  0  0  0  0  0  0
   18.3693  -13.9235  -17.9240 C   0  0  2  0  0  0  0  0  0  0  0  0
   19.2750  -14.9880  -17.3468 C   0  0  0  0  0  0  0  0  0  0  0  0
   18.0632  -12.8294  -16.9205 C   0  0  0  0  0  0  0  0  0  0  0  0
   17.2293  -11.7927  -17.6389 C   0  0  2  0  0  0  0  0  0  0  0  0
   18.0709  -11.1755  -18.6474 N   0  0  0  0  0  0  0  0  0  0  0  0
   16.8248  -10.7272  -16.6695 C   0  0  0  0  0  0  0  0  0  0  0  0
   16.1144  -11.0241  -15.6564 O   0  0  0  0  0  0  0  0  0  0  0  0
   17.2091   -9.3851  -16.8418 N   0  0  0  0  0  0  0  0  0  0  0  0
   16.8647   -8.4150  -15.8517 C   0  0  0  0  0  0  0  0  0  0  0  0
   18.0546   -7.6763  -15.3474 C   0  0  0  0  0  0  0  0  0  0  0  0
   17.8834   -6.7547  -14.5283 O   0  0  0  0  0  0  0  0  0  0  0  0
   19.3768   -7.9827  -15.7647 N   0  0  0  0  0  0  0  0  0  0  0  0
   20.5401   -7.3794  -15.1455 C   0  0  1  0  0  0  0  0  0  0  0  0
   21.4526   -8.4083  -14.5190 C   0  0  0  0  0  0  0  0  0  0  0  0
   21.8863   -9.6692  -15.7300 S   0  0  0  0  0  0  0  0  0  0  0  0
   21.3108   -6.7002  -16.2192 C   0  0  0  0  0  0  0  0  0  0  0  0
   22.3773   -5.8568  -15.9188 O   0  0  0  0  0  0  0  0  0  0  0  0
   21.0425   -6.8507  -17.4391 O   0  0  0  0  0  0  0  0  0  0  0  0
  2  1  1  1
  3  2  1  0
  4  2  1  0
  5  4  1  0
  5  6  1  6
  7  8  2  0
  7  5  1  0
  9  7  1  0
 10  9  1  0
 11 10  1  0
 11 13  1  0
 12 11  2  0
 14 13  1  0
 14 15  1  6
 15 16  1  0
 17 18  1  0
 17 14  1  0
 19 17  2  0
M  END
$$$$
