LGC.pdb
     RDKit          3D

 19 18  0  0  1  0  0  0  0  0999 V2000
   22.3179  -20.8688  -18.1445 C   0  0  0  0  0  0  0  0  0  0  0  0
   22.8737  -21.4541  -16.8848 C   0  0  2  0  0  0  0  0  0  0  0  0
   22.2341  -22.7916  -16.5872 C   0  0  0  0  0  0  0  0  0  0  0  0
   22.7544  -20.4927  -15.7190 C   0  0  0  0  0  0  0  0  0  0  0  0
   23.8044  -19.4234  -15.9198 C   0  0  2  0  0  0  0  0  0  0  0  0
   24.8931  -20.0149  -16.6755 N   0  0  0  0  0  0  0  0  0  0  0  0
   24.3469  -19.0088  -14.5885 C   0  0  0  0  0  0  0  0  0  0  0  0
   23.5660  -18.5381  -13.7009 O   0  0  0  0  0  0  0  0  0  0  0  0
   25.7141  -19.1232  -14.2782 N   0  0  0  0  0  0  0  0  0  0  0  0
   26.1816  -18.7502  -12.9811 C   0  0  0  0  0  0  0  0  0  0  0  0
   26.0583  -19.8594  -11.9961 C   0  0  0  0  0  0  0  0  0  0  0  0
   25.7043  -20.9820  -12.4010 O   0  0  0  0  0  0  0  0  0  0  0  0
   26.3289  -19.6859  -10.6130 N   0  0  0  0  0  0  0  0  0  0  0  0
   26.2996  -20.7920   -9.6770 C   0  0  1  0  0  0  0  0  0  0  0  0
   27.1133  -20.5114   -8.4347 C   0  0  0  0  0  0  0  0  0  0  0  0
   26.7636  -18.8517   -7.8284 S   0  0  0  0  0  0  0  0  0  0  0  0
   24.8880  -20.9729   -9.2495 C   0  0  0  0  0  0  0  0  0  0  0  0
   23.9016  -20.0594   -9.6120 O   0  0  0  0  0  0  0  0  0  0  0  0
   24.5167  -21.9483   -8.5470 O   0  0  0  0  0  0  0  0  0  0  0  0
  2  1  1  6
  3  2  1  0
  4  2  1  0
  5  4  1  0
  5  6  1  6
  7  8  2  0
  7  5  1  0
  9  7  1  0
 10  9  1  0
 11 10  1  0
 11 13  1  0
 12 11  2  0
 14 13  1  0
 14 15  1  1
 15 16  1  0
 17 18  1  0
 17 14  1  0
 19 17  2  0
M  END
$$$$
