LGC.pdb
     RDKit          3D

 19 18  0  0  1  0  0  0  0  0999 V2000
   17.3853  -13.3275  -17.4272 C   0  0  0  0  0  0  0  0  0  0  0  0
   16.3879  -12.9437  -16.3802 C   0  0  2  0  0  0  0  0  0  0  0  0
   15.0303  -13.5323  -16.6914 C   0  0  0  0  0  0  0  0  0  0  0  0
   16.3276  -11.4415  -16.1866 C   0  0  0  0  0  0  0  0  0  0  0  0
   17.7334  -10.9802  -15.8746 C   0  0  2  0  0  0  0  0  0  0  0  0
   18.0667  -11.4583  -14.5455 N   0  0  0  0  0  0  0  0  0  0  0  0
   17.7657   -9.4846  -15.8418 C   0  0  0  0  0  0  0  0  0  0  0  0
   17.6737   -8.8215  -16.9238 O   0  0  0  0  0  0  0  0  0  0  0  0
   17.8965   -8.7735  -14.6352 N   0  0  0  0  0  0  0  0  0  0  0  0
   17.9810   -7.3478  -14.6567 C   0  0  0  0  0  0  0  0  0  0  0  0
   19.1539   -6.8404  -13.8935 C   0  0  0  0  0  0  0  0  0  0  0  0
   19.1497   -6.9423  -12.6530 O   0  0  0  0  0  0  0  0  0  0  0  0
   20.2769   -6.2448  -14.5264 N   0  0  0  0  0  0  0  0  0  0  0  0
   21.4365   -5.7995  -13.7796 C   0  0  1  0  0  0  0  0  0  0  0  0
   22.7204   -6.3969  -14.3074 C   0  0  0  0  0  0  0  0  0  0  0  0
   22.7202   -8.1809  -14.0590 S   0  0  0  0  0  0  0  0  0  0  0  0
   21.5323   -4.3262  -13.9481 C   0  0  0  0  0  0  0  0  0  0  0  0
   22.2430   -3.5412  -13.0438 O   0  0  0  0  0  0  0  0  0  0  0  0
   20.9831   -3.7204  -14.9042 O   0  0  0  0  0  0  0  0  0  0  0  0
  2  1  1  6
  3  2  1  0
  4  2  1  0
  5  4  1  0
  5  6  1  1
  7  8  2  0
  7  5  1  0
  9  7  1  0
 10  9  1  0
 11 10  1  0
 11 13  1  0
 12 11  2  0
 14 13  1  0
 14 15  1  6
 15 16  1  0
 17 18  1  0
 17 14  1  0
 19 17  2  0
M  END
$$$$
