LGC.pdb
     RDKit          3D

 19 18  0  0  1  0  0  0  0  0999 V2000
   25.7725  -22.4720  -11.8705 C   0  0  0  0  0  0  0  0  0  0  0  0
   25.7401  -21.9252  -13.2627 C   0  0  2  0  0  0  0  0  0  0  0  0
   25.2473  -22.9703  -14.2380 C   0  0  0  0  0  0  0  0  0  0  0  0
   27.0823  -21.3513  -13.6714 C   0  0  0  0  0  0  0  0  0  0  0  0
   27.2715  -20.0714  -12.8888 C   0  0  2  0  0  0  0  0  0  0  0  0
   26.1475  -19.9434  -11.9797 N   0  0  0  0  0  0  0  0  0  0  0  0
   27.2312  -18.9081  -13.8290 C   0  0  0  0  0  0  0  0  0  0  0  0
   28.1439  -18.7642  -14.7038 O   0  0  0  0  0  0  0  0  0  0  0  0
   26.2015  -17.9512  -13.7787 N   0  0  0  0  0  0  0  0  0  0  0  0
   26.1844  -16.8763  -14.7191 C   0  0  0  0  0  0  0  0  0  0  0  0
   25.1910  -17.0933  -15.8063 C   0  0  0  0  0  0  0  0  0  0  0  0
   25.4224  -17.9670  -16.6621 O   0  0  0  0  0  0  0  0  0  0  0  0
   23.9901  -16.3420  -15.9043 N   0  0  0  0  0  0  0  0  0  0  0  0
   22.9532  -16.6673  -16.8633 C   0  0  1  0  0  0  0  0  0  0  0  0
   21.6256  -16.0406  -16.5045 C   0  0  0  0  0  0  0  0  0  0  0  0
   20.9873  -16.7706  -14.9865 S   0  0  0  0  0  0  0  0  0  0  0  0
   23.3690  -16.1027  -18.1734 C   0  0  0  0  0  0  0  0  0  0  0  0
   22.8370  -16.5824  -19.3675 O   0  0  0  0  0  0  0  0  0  0  0  0
   24.2123  -15.1741  -18.2695 O   0  0  0  0  0  0  0  0  0  0  0  0
  2  1  1  1
  3  2  1  0
  4  2  1  0
  5  4  1  0
  5  6  1  1
  7  8  2  0
  7  5  1  0
  9  7  1  0
 10  9  1  0
 11 10  1  0
 11 13  1  0
 12 11  2  0
 14 13  1  0
 14 15  1  1
 15 16  1  0
 17 18  1  0
 17 14  1  0
 19 17  2  0
M  END
$$$$
