LGC.pdb
     RDKit          3D

 19 18  0  0  1  0  0  0  0  0999 V2000
   24.1916  -20.2253  -17.5565 C   0  0  0  0  0  0  0  0  0  0  0  0
   24.8011  -18.9875  -16.9781 C   0  0  2  0  0  0  0  0  0  0  0  0
   25.2541  -18.0500  -18.0746 C   0  0  0  0  0  0  0  0  0  0  0  0
   25.9194  -19.3133  -16.0080 C   0  0  0  0  0  0  0  0  0  0  0  0
   25.3410  -20.2411  -14.9636 C   0  0  2  0  0  0  0  0  0  0  0  0
   24.3929  -19.4762  -14.1748 N   0  0  0  0  0  0  0  0  0  0  0  0
   26.4337  -20.6949  -14.0477 C   0  0  0  0  0  0  0  0  0  0  0  0
   27.1819  -21.6683  -14.3818 O   0  0  0  0  0  0  0  0  0  0  0  0
   26.6669  -20.0719  -12.8083 N   0  0  0  0  0  0  0  0  0  0  0  0
   27.6982  -20.5619  -11.9500 C   0  0  0  0  0  0  0  0  0  0  0  0
   27.1581  -21.1184  -10.6795 C   0  0  0  0  0  0  0  0  0  0  0  0
   26.8305  -22.3188  -10.6439 O   0  0  0  0  0  0  0  0  0  0  0  0
   27.0025  -20.3327   -9.5070 N   0  0  0  0  0  0  0  0  0  0  0  0
   26.3340  -20.8370   -8.3240 C   0  0  1  0  0  0  0  0  0  0  0  0
   26.5251  -19.9312   -7.1294 C   0  0  0  0  0  0  0  0  0  0  0  0
   28.2140  -19.3062   -7.0912 S   0  0  0  0  0  0  0  0  0  0  0  0
   24.8786  -20.8762   -8.6209 C   0  0  0  0  0  0  0  0  0  0  0  0
   23.9824  -21.5006   -7.7572 O   0  0  0  0  0  0  0  0  0  0  0  0
   24.3878  -20.3537   -9.6548 O   0  0  0  0  0  0  0  0  0  0  0  0
  2  1  1  6
  3  2  1  0
  4  2  1  0
  5  4  1  0
  5  6  1  1
  7  8  2  0
  7  5  1  0
  9  7  1  0
 10  9  1  0
 11 10  1  0
 11 13  1  0
 12 11  2  0
 14 13  1  0
 14 15  1  1
 15 16  1  0
 17 18  1  0
 17 14  1  0
 19 17  2  0
M  END
$$$$
