YGP.pdb
     RDKit          3D

 24 25  0  0  1  0  0  0  0  0999 V2000
    6.0391  -10.7957   28.5748 O   0  0  0  0  0  0  0  0  0  0  0  0
    6.5666  -11.7037   27.6686 C   0  0  0  0  0  0  0  0  0  0  0  0
    5.7321  -12.2598   26.7052 C   0  0  0  0  0  0  0  0  0  0  0  0
    6.2277  -13.1664   25.7895 C   0  0  0  0  0  0  0  0  0  0  0  0
    7.5604  -13.5308   25.8216 C   0  0  0  0  0  0  0  0  0  0  0  0
    8.1682  -14.4920   24.8797 C   0  0  0  0  0  0  0  0  0  0  0  0
    7.3404  -15.7344   24.8466 C   0  0  2  0  0  0  0  0  0  0  0  0
    7.3224  -16.4346   26.1022 N   0  0  0  0  0  0  0  0  0  0  0  0
    7.7764  -16.6360   23.7394 C   0  0  0  0  0  0  0  0  0  0  0  0
    8.2065  -17.7814   23.9883 O   0  0  0  0  0  0  0  0  0  0  0  0
    8.3760  -12.9708   26.7830 C   0  0  0  0  0  0  0  0  0  0  0  0
    7.8950  -12.0720   27.6945 C   0  0  0  0  0  0  0  0  0  0  0  0
    7.7010  -16.1867   22.3931 N   0  0  0  0  0  0  0  0  0  0  0  0
    7.8898  -17.1562   21.3357 C   0  0  0  0  0  0  0  0  0  0  0  0
    7.6970  -16.5431   19.9952 C   0  0  0  0  0  0  0  0  0  0  0  0
    7.1384  -17.2093   19.1040 O   0  0  0  0  0  0  0  0  0  0  0  0
    8.1359  -15.2317   19.7303 N   0  0  0  0  0  0  0  0  0  0  0  0
    8.6050  -14.2715   20.6892 C   0  0  0  0  0  0  0  0  0  0  0  0
    8.3340  -12.9034   20.0511 C   0  0  0  0  0  0  0  0  0  0  0  0
    7.6874  -13.2167   18.7249 C   0  0  0  0  0  0  0  0  0  0  0  0
    8.1930  -14.6124   18.4327 C   0  0  1  0  0  0  0  0  0  0  0  0
    9.5946  -14.6024   17.9222 C   0  0  0  0  0  0  0  0  0  0  0  0
   10.6770  -14.9036   18.7353 O   0  0  0  0  0  0  0  0  0  0  0  0
    9.8496  -14.3176   16.7228 O   0  0  0  0  0  0  0  0  0  0  0  0
  2  3  2  0
  2  1  1  0
  4  3  1  0
  5  4  2  0
  6  7  1  0
  6  5  1  0
  7  9  1  0
  7  8  1  1
  9 10  2  0
  9 13  1  0
 11  5  1  0
 11 12  2  0
 12  2  1  0
 13 14  1  0
 14 15  1  0
 15 17  1  0
 15 16  2  0
 17 18  1  0
 18 19  1  0
 20 19  1  0
 21 17  1  0
 21 20  1  0
 21 22  1  1
 23 22  1  0
 24 22  2  0
M  END
$$$$
