YGP.pdb
     RDKit          3D

 24 25  0  0  1  0  0  0  0  0999 V2000
   11.9669  -14.7731   29.5545 O   0  0  0  0  0  0  0  0  0  0  0  0
   10.7720  -15.0314   28.8992 C   0  0  0  0  0  0  0  0  0  0  0  0
   10.1097  -13.9865   28.2640 C   0  0  0  0  0  0  0  0  0  0  0  0
    8.9186  -14.2120   27.6034 C   0  0  0  0  0  0  0  0  0  0  0  0
    8.3719  -15.4808   27.5669 C   0  0  0  0  0  0  0  0  0  0  0  0
    7.1041  -15.8055   26.8831 C   0  0  0  0  0  0  0  0  0  0  0  0
    7.4074  -16.4559   25.5735 C   0  0  2  0  0  0  0  0  0  0  0  0
    8.6308  -17.2110   25.5880 N   0  0  0  0  0  0  0  0  0  0  0  0
    7.4133  -15.4520   24.4686 C   0  0  0  0  0  0  0  0  0  0  0  0
    6.3679  -14.8412   24.1630 O   0  0  0  0  0  0  0  0  0  0  0  0
    9.0404  -16.5073   28.2016 C   0  0  0  0  0  0  0  0  0  0  0  0
   10.2206  -16.2944   28.8586 C   0  0  0  0  0  0  0  0  0  0  0  0
    8.6173  -15.1901   23.7601 N   0  0  0  0  0  0  0  0  0  0  0  0
    8.5933  -14.1902   22.7146 C   0  0  0  0  0  0  0  0  0  0  0  0
    8.1030  -14.7576   21.4309 C   0  0  0  0  0  0  0  0  0  0  0  0
    7.4430  -15.8130   21.4531 O   0  0  0  0  0  0  0  0  0  0  0  0
    8.3765  -14.1180   20.2067 N   0  0  0  0  0  0  0  0  0  0  0  0
    8.9659  -12.8211   20.0266 C   0  0  0  0  0  0  0  0  0  0  0  0
    8.4641  -12.3398   18.6595 C   0  0  0  0  0  0  0  0  0  0  0  0
    7.5754  -13.4517   18.1606 C   0  0  0  0  0  0  0  0  0  0  0  0
    8.1099  -14.6585   18.9000 C   0  0  1  0  0  0  0  0  0  0  0  0
    9.3661  -15.1779   18.2857 C   0  0  0  0  0  0  0  0  0  0  0  0
    9.3546  -16.0085   17.1752 O   0  0  0  0  0  0  0  0  0  0  0  0
   10.4945  -14.8785   18.7569 O   0  0  0  0  0  0  0  0  0  0  0  0
  2  3  2  0
  2  1  1  0
  4  3  1  0
  5  4  2  0
  6  7  1  0
  6  5  1  0
  7  9  1  0
  7  8  1  1
  9 10  2  0
  9 13  1  0
 11  5  1  0
 11 12  2  0
 12  2  1  0
 13 14  1  0
 14 15  1  0
 15 17  1  0
 15 16  2  0
 17 18  1  0
 18 19  1  0
 20 19  1  0
 21 17  1  0
 21 20  1  0
 21 22  1  6
 23 22  1  0
 24 22  2  0
M  END
$$$$
