YGP.pdb
     RDKit          3D

 24 25  0  0  1  0  0  0  0  0999 V2000
    6.2330  -11.0228   28.6755 O   0  0  0  0  0  0  0  0  0  0  0  0
    6.5880  -11.8534   27.6227 C   0  0  0  0  0  0  0  0  0  0  0  0
    7.8280  -12.4823   27.6463 C   0  0  0  0  0  0  0  0  0  0  0  0
    8.2099  -13.3148   26.6133 C   0  0  0  0  0  0  0  0  0  0  0  0
    7.3619  -13.5315   25.5438 C   0  0  0  0  0  0  0  0  0  0  0  0
    7.6940  -14.4056   24.4009 C   0  0  0  0  0  0  0  0  0  0  0  0
    7.2669  -15.8021   24.7130 C   0  0  2  0  0  0  0  0  0  0  0  0
    7.9645  -16.3685   25.8353 N   0  0  0  0  0  0  0  0  0  0  0  0
    7.3906  -16.6785   23.5106 C   0  0  0  0  0  0  0  0  0  0  0  0
    8.4770  -17.2310   23.2394 O   0  0  0  0  0  0  0  0  0  0  0  0
    6.1350  -12.9007   25.5343 C   0  0  0  0  0  0  0  0  0  0  0  0
    5.7474  -12.0743   26.5526 C   0  0  0  0  0  0  0  0  0  0  0  0
    6.2636  -16.8848   22.6695 N   0  0  0  0  0  0  0  0  0  0  0  0
    6.0484  -15.9638   21.5745 C   0  0  0  0  0  0  0  0  0  0  0  0
    7.1084  -16.0920   20.5401 C   0  0  0  0  0  0  0  0  0  0  0  0
    7.3111  -17.2055   20.0215 O   0  0  0  0  0  0  0  0  0  0  0  0
    7.8743  -14.9773   20.1482 N   0  0  0  0  0  0  0  0  0  0  0  0
    7.8830  -13.6802   20.7638 C   0  0  0  0  0  0  0  0  0  0  0  0
    8.3169  -12.7138   19.6547 C   0  0  0  0  0  0  0  0  0  0  0  0
    8.5125  -13.5839   18.4383 C   0  0  0  0  0  0  0  0  0  0  0  0
    8.7977  -14.9402   19.0451 C   0  0  1  0  0  0  0  0  0  0  0  0
   10.2016  -15.0466   19.5381 C   0  0  0  0  0  0  0  0  0  0  0  0
   11.2735  -15.2250   18.6764 O   0  0  0  0  0  0  0  0  0  0  0  0
   10.4682  -14.9777   20.7665 O   0  0  0  0  0  0  0  0  0  0  0  0
  2  3  2  0
  2  1  1  0
  4  3  1  0
  5  4  2  0
  6  7  1  0
  6  5  1  0
  7  9  1  0
  7  8  1  1
  9 10  2  0
  9 13  1  0
 11  5  1  0
 11 12  2  0
 12  2  1  0
 13 14  1  0
 14 15  1  0
 15 17  1  0
 15 16  2  0
 17 18  1  0
 18 19  1  0
 20 19  1  0
 21 17  1  0
 21 20  1  0
 21 22  1  1
 23 22  1  0
 24 22  2  0
M  END
$$$$
