HMQ.pdb
     RDKit          3D

 28 28  0  0  1  0  0  0  0  0999 V2000
   21.8846  -13.0554  -19.7958 N   0  0  0  0  0  0  0  0  0  0  0  0
   22.4732  -11.7574  -19.8933 C   0  0  1  0  0  0  0  0  0  0  0  0
   21.6722  -10.9126  -20.8673 C   0  0  0  0  0  0  0  0  0  0  0  0
   21.8044  -11.4616  -22.2395 C   0  0  0  0  0  0  0  0  0  0  0  0
   22.5907  -10.9843  -23.2849 C   0  0  0  0  0  0  0  0  0  0  0  0
   22.4036  -11.7881  -24.3490 N   0  0  0  0  0  0  0  0  0  0  0  0
   21.5356  -12.7470  -24.0167 C   0  0  0  0  0  0  0  0  0  0  0  0
   21.1705  -12.5473  -22.7299 N   0  0  0  0  0  0  0  0  0  0  0  0
   22.6191  -11.0806  -18.5802 C   0  0  0  0  0  0  0  0  0  0  0  0
   21.6173  -11.1346  -17.8046 O   0  0  0  0  0  0  0  0  0  0  0  0
   28.0231  -12.9014  -15.1429 C   0  0  0  0  0  0  0  0  0  0  0  0
   27.5333  -11.2277  -15.5950 S   0  0  0  0  0  0  0  0  0  0  0  0
   25.7490  -11.1941  -16.0084 C   0  0  0  0  0  0  0  0  0  0  0  0
   25.3430   -9.8025  -16.3849 C   0  0  0  0  0  0  0  0  0  0  0  0
   23.9342   -9.7615  -16.8533 C   0  0  2  0  0  0  0  0  0  0  0  0
   23.7833  -10.3991  -18.1626 N   0  0  0  0  0  0  0  0  0  0  0  0
   23.4143   -8.3916  -16.9845 C   0  0  0  0  0  0  0  0  0  0  0  0
   23.5076   -7.6683  -18.0088 O   0  0  0  0  0  0  0  0  0  0  0  0
   20.1708   -7.3745  -19.5073 N   0  0  0  0  0  0  0  0  0  0  0  0
   19.3657   -7.3507  -18.3244 C   0  0  0  0  0  0  0  0  0  0  0  0
   18.1851   -7.7797  -18.3655 O   0  0  0  0  0  0  0  0  0  0  0  0
   19.8894   -6.8290  -17.0379 C   0  0  0  0  0  0  0  0  0  0  0  0
   21.2755   -6.3392  -17.2348 C   0  0  0  0  0  0  0  0  0  0  0  0
   22.1413   -6.4305  -16.0008 C   0  0  2  0  0  0  0  0  0  0  0  0
   22.7228   -7.7364  -15.8976 N   0  0  0  0  0  0  0  0  0  0  0  0
   21.4661   -5.9792  -14.7859 C   0  0  0  0  0  0  0  0  0  0  0  0
   21.3307   -6.7381  -13.7931 O   0  0  0  0  0  0  0  0  0  0  0  0
   20.9408   -4.7038  -14.6557 O   0  0  0  0  0  0  0  0  0  0  0  0
  2  1  1  1
  2  3  1  0
  3  4  1  0
  4  8  1  0
  5  6  1  0
  5  4  2  0
  6  7  1  0
  7  8  2  0
  9  2  1  0
  9 10  2  0
 12 11  1  0
 13 14  1  0
 13 12  1  0
 15 14  1  6
 15 16  1  0
 16  9  1  0
 17 25  1  0
 17 15  1  0
 18 17  2  0
 19 20  1  0
 20 21  2  0
 20 22  1  0
 22 23  1  0
 24 23  1  6
 24 25  1  0
 24 26  1  0
 26 27  2  0
 26 28  1  0
M  END
$$$$
