HMQ.pdb
     RDKit          3D

 28 28  0  0  1  0  0  0  0  0999 V2000
   19.3068  -13.5685  -16.3896 N   0  0  0  0  0  0  0  0  0  0  0  0
   19.4889  -12.2594  -16.9317 C   0  0  1  0  0  0  0  0  0  0  0  0
   18.2010  -11.4697  -16.7853 C   0  0  0  0  0  0  0  0  0  0  0  0
   17.1102  -12.1380  -17.5372 C   0  0  0  0  0  0  0  0  0  0  0  0
   15.9834  -12.7797  -17.0298 C   0  0  0  0  0  0  0  0  0  0  0  0
   15.2625  -13.2421  -18.0690 N   0  0  0  0  0  0  0  0  0  0  0  0
   15.8875  -12.9188  -19.2041 C   0  0  0  0  0  0  0  0  0  0  0  0
   17.0144  -12.2454  -18.8790 N   0  0  0  0  0  0  0  0  0  0  0  0
   20.6405  -11.5349  -16.3380 C   0  0  0  0  0  0  0  0  0  0  0  0
   20.5687  -11.2842  -15.0970 O   0  0  0  0  0  0  0  0  0  0  0  0
   28.3531  -10.6634  -15.9302 C   0  0  0  0  0  0  0  0  0  0  0  0
   26.9373  -11.2931  -16.8492 S   0  0  0  0  0  0  0  0  0  0  0  0
   25.4024  -10.4941  -16.2478 C   0  0  0  0  0  0  0  0  0  0  0  0
   24.2122  -11.1364  -16.8911 C   0  0  0  0  0  0  0  0  0  0  0  0
   22.9499  -10.4842  -16.4587 C   0  0  2  0  0  0  0  0  0  0  0  0
   21.7793  -11.1223  -17.0639 N   0  0  0  0  0  0  0  0  0  0  0  0
   22.8903   -9.0586  -16.8167 C   0  0  0  0  0  0  0  0  0  0  0  0
   22.6656   -8.6015  -17.9663 O   0  0  0  0  0  0  0  0  0  0  0  0
   20.3239   -4.6782  -13.5427 N   0  0  0  0  0  0  0  0  0  0  0  0
   20.9790   -3.8776  -14.5314 C   0  0  0  0  0  0  0  0  0  0  0  0
   20.6920   -2.6585  -14.6364 O   0  0  0  0  0  0  0  0  0  0  0  0
   21.9976   -4.4506  -15.4457 C   0  0  0  0  0  0  0  0  0  0  0  0
   22.1408   -5.9015  -15.1731 C   0  0  0  0  0  0  0  0  0  0  0  0
   23.0557   -6.6208  -16.1356 C   0  0  2  0  0  0  0  0  0  0  0  0
   23.0944   -8.0209  -15.8317 N   0  0  0  0  0  0  0  0  0  0  0  0
   24.3725   -5.9988  -16.2563 C   0  0  0  0  0  0  0  0  0  0  0  0
   25.3030   -6.2786  -15.4590 O   0  0  0  0  0  0  0  0  0  0  0  0
   24.6720   -5.0746  -17.2441 O   0  0  0  0  0  0  0  0  0  0  0  0
  2  1  1  1
  2  3  1  0
  3  4  1  0
  4  8  1  0
  5  6  1  0
  5  4  2  0
  6  7  1  0
  7  8  2  0
  9  2  1  0
  9 10  2  0
 12 11  1  0
 13 14  1  0
 13 12  1  0
 15 14  1  6
 15 16  1  0
 16  9  1  0
 17 25  1  0
 17 15  1  0
 18 17  2  0
 19 20  1  0
 20 21  2  0
 20 22  1  0
 22 23  1  0
 24 23  1  1
 24 25  1  0
 24 26  1  0
 26 27  2  0
 26 28  1  0
M  END
$$$$
