HMQ.pdb
     RDKit          3D

 28 28  0  0  1  0  0  0  0  0999 V2000
   27.3306  -22.2245  -16.8623 N   0  0  0  0  0  0  0  0  0  0  0  0
   26.7710  -21.0763  -16.2226 C   0  0  1  0  0  0  0  0  0  0  0  0
   25.9149  -20.3128  -17.2164 C   0  0  0  0  0  0  0  0  0  0  0  0
   26.7819  -19.5763  -18.1692 C   0  0  0  0  0  0  0  0  0  0  0  0
   27.0348  -18.2080  -18.2211 C   0  0  0  0  0  0  0  0  0  0  0  0
   27.8791  -17.9778  -19.2445 N   0  0  0  0  0  0  0  0  0  0  0  0
   28.1661  -19.1404  -19.8356 C   0  0  0  0  0  0  0  0  0  0  0  0
   27.4965  -20.1150  -19.1793 N   0  0  0  0  0  0  0  0  0  0  0  0
   26.0107  -21.4048  -14.9907 C   0  0  0  0  0  0  0  0  0  0  0  0
   25.2109  -22.3859  -15.0676 O   0  0  0  0  0  0  0  0  0  0  0  0
   25.2016  -20.5085   -7.1499 C   0  0  0  0  0  0  0  0  0  0  0  0
   26.1854  -20.2153   -8.6304 S   0  0  0  0  0  0  0  0  0  0  0  0
   25.2823  -20.8204  -10.1049 C   0  0  0  0  0  0  0  0  0  0  0  0
   26.0805  -20.5349  -11.3395 C   0  0  0  0  0  0  0  0  0  0  0  0
   25.3922  -21.0417  -12.5541 C   0  0  2  0  0  0  0  0  0  0  0  0
   26.1291  -20.7007  -13.7724 N   0  0  0  0  0  0  0  0  0  0  0  0
   24.0345  -20.4978  -12.7114 C   0  0  0  0  0  0  0  0  0  0  0  0
   23.7502  -19.2953  -12.9441 O   0  0  0  0  0  0  0  0  0  0  0  0
   19.1094  -23.7019  -14.6589 N   0  0  0  0  0  0  0  0  0  0  0  0
   20.2261  -23.1657  -15.3754 C   0  0  0  0  0  0  0  0  0  0  0  0
   20.4857  -23.5871  -16.5306 O   0  0  0  0  0  0  0  0  0  0  0  0
   21.0952  -22.1162  -14.7883 C   0  0  0  0  0  0  0  0  0  0  0  0
   20.6362  -21.8131  -13.4107 C   0  0  0  0  0  0  0  0  0  0  0  0
   21.5217  -20.8416  -12.6671 C   0  0  2  0  0  0  0  0  0  0  0  0
   22.8643  -21.3396  -12.6067 N   0  0  0  0  0  0  0  0  0  0  0  0
   20.9762  -20.4353  -11.3737 C   0  0  0  0  0  0  0  0  0  0  0  0
   21.5192  -20.7864  -10.2959 O   0  0  0  0  0  0  0  0  0  0  0  0
   19.8417  -19.6484  -11.2579 O   0  0  0  0  0  0  0  0  0  0  0  0
  2  1  1  6
  2  3  1  0
  3  4  1  0
  4  8  1  0
  5  6  1  0
  5  4  2  0
  6  7  1  0
  7  8  2  0
  9  2  1  0
  9 10  2  0
 12 11  1  0
 13 14  1  0
 13 12  1  0
 15 14  1  1
 15 16  1  0
 16  9  1  0
 17 25  1  0
 17 15  1  0
 18 17  2  0
 19 20  1  0
 20 21  2  0
 20 22  1  0
 22 23  1  0
 24 23  1  1
 24 25  1  0
 24 26  1  0
 26 27  2  0
 26 28  1  0
M  END
$$$$
