HMQ.pdb
     RDKit          3D

 28 28  0  0  1  0  0  0  0  0999 V2000
   18.2022  -22.4968  -12.4060 N   0  0  0  0  0  0  0  0  0  0  0  0
   19.1089  -22.5844  -13.5065 C   0  0  1  0  0  0  0  0  0  0  0  0
   18.3388  -22.4414  -14.8066 C   0  0  0  0  0  0  0  0  0  0  0  0
   17.4232  -23.5960  -14.9810 C   0  0  0  0  0  0  0  0  0  0  0  0
   16.0309  -23.5939  -15.0037 C   0  0  0  0  0  0  0  0  0  0  0  0
   15.6142  -24.8614  -15.1854 N   0  0  0  0  0  0  0  0  0  0  0  0
   16.6830  -25.6569  -15.2775 C   0  0  0  0  0  0  0  0  0  0  0  0
   17.7860  -24.8844  -15.1528 N   0  0  0  0  0  0  0  0  0  0  0  0
   20.2239  -21.6076  -13.4256 C   0  0  0  0  0  0  0  0  0  0  0  0
   19.9022  -20.4049  -13.1842 O   0  0  0  0  0  0  0  0  0  0  0  0
   24.9904  -21.2911   -9.3063 C   0  0  0  0  0  0  0  0  0  0  0  0
   25.8903  -21.1535  -10.8610 S   0  0  0  0  0  0  0  0  0  0  0  0
   24.7724  -20.5294  -12.1713 C   0  0  0  0  0  0  0  0  0  0  0  0
   23.6766  -21.5205  -12.4157 C   0  0  0  0  0  0  0  0  0  0  0  0
   22.6900  -21.0005  -13.3966 C   0  0  2  0  0  0  0  0  0  0  0  0
   21.5853  -21.9398  -13.5989 N   0  0  0  0  0  0  0  0  0  0  0  0
   23.2791  -20.7446  -14.7201 C   0  0  0  0  0  0  0  0  0  0  0  0
   23.6978  -21.6226  -15.5169 O   0  0  0  0  0  0  0  0  0  0  0  0
   22.9544  -15.1572  -17.6564 N   0  0  0  0  0  0  0  0  0  0  0  0
   23.8213  -15.8886  -18.5289 C   0  0  0  0  0  0  0  0  0  0  0  0
   24.2522  -15.3461  -19.5776 O   0  0  0  0  0  0  0  0  0  0  0  0
   24.2307  -17.2828  -18.2287 C   0  0  0  0  0  0  0  0  0  0  0  0
   23.6167  -17.7093  -16.9476 C   0  0  0  0  0  0  0  0  0  0  0  0
   23.9989  -19.1055  -16.5171 C   0  0  2  0  0  0  0  0  0  0  0  0
   23.4311  -19.4029  -15.2351 N   0  0  0  0  0  0  0  0  0  0  0  0
   25.4336  -19.3672  -16.6105 C   0  0  0  0  0  0  0  0  0  0  0  0
   25.9470  -19.8272  -17.6614 O   0  0  0  0  0  0  0  0  0  0  0  0
   26.3044  -19.1272  -15.5599 O   0  0  0  0  0  0  0  0  0  0  0  0
  2  1  1  1
  2  3  1  0
  3  4  1  0
  4  8  1  0
  5  6  1  0
  5  4  2  0
  6  7  1  0
  7  8  2  0
  9  2  1  0
  9 10  2  0
 12 11  1  0
 13 14  1  0
 13 12  1  0
 15 14  1  1
 15 16  1  0
 16  9  1  0
 17 25  1  0
 17 15  1  0
 18 17  2  0
 19 20  1  0
 20 21  2  0
 20 22  1  0
 22 23  1  0
 24 23  1  1
 24 25  1  0
 24 26  1  0
 26 27  2  0
 26 28  1  0
M  END
$$$$
