HMQ.pdb
     RDKit          3D

 28 28  0  0  1  0  0  0  0  0999 V2000
   20.5350  -19.0048  -14.3640 N   0  0  0  0  0  0  0  0  0  0  0  0
   20.9640  -18.3472  -15.5575 C   0  0  1  0  0  0  0  0  0  0  0  0
   19.7844  -18.1937  -16.5002 C   0  0  0  0  0  0  0  0  0  0  0  0
   19.7048  -19.3669  -17.4052 C   0  0  0  0  0  0  0  0  0  0  0  0
   19.6854  -20.7168  -17.0640 C   0  0  0  0  0  0  0  0  0  0  0  0
   19.6063  -21.4340  -18.2009 N   0  0  0  0  0  0  0  0  0  0  0  0
   19.5753  -20.5938  -19.2385 C   0  0  0  0  0  0  0  0  0  0  0  0
   19.6354  -19.3331  -18.7525 N   0  0  0  0  0  0  0  0  0  0  0  0
   21.6279  -17.0444  -15.3018 C   0  0  0  0  0  0  0  0  0  0  0  0
   21.1150  -16.3193  -14.3967 O   0  0  0  0  0  0  0  0  0  0  0  0
   28.1547  -17.8954  -16.5155 C   0  0  0  0  0  0  0  0  0  0  0  0
   27.2415  -16.7878  -15.4269 S   0  0  0  0  0  0  0  0  0  0  0  0
   25.5704  -16.4830  -16.1127 C   0  0  0  0  0  0  0  0  0  0  0  0
   24.8290  -15.5254  -15.2316 C   0  0  0  0  0  0  0  0  0  0  0  0
   23.4408  -15.3141  -15.7154 C   0  0  2  0  0  0  0  0  0  0  0  0
   22.7688  -16.5844  -15.9952 N   0  0  0  0  0  0  0  0  0  0  0  0
   23.3803  -14.5191  -16.9517 C   0  0  0  0  0  0  0  0  0  0  0  0
   22.9534  -14.9249  -18.0626 O   0  0  0  0  0  0  0  0  0  0  0  0
   19.8531  -12.5917  -19.6758 N   0  0  0  0  0  0  0  0  0  0  0  0
   20.2117  -11.4041  -18.9626 C   0  0  0  0  0  0  0  0  0  0  0  0
   19.3474  -10.5148  -18.7586 O   0  0  0  0  0  0  0  0  0  0  0  0
   21.5881  -11.1897  -18.4516 C   0  0  0  0  0  0  0  0  0  0  0  0
   22.4284  -12.3617  -18.7987 C   0  0  0  0  0  0  0  0  0  0  0  0
   23.8041  -12.3383  -18.1759 C   0  0  2  0  0  0  0  0  0  0  0  0
   23.8268  -13.1452  -16.9916 N   0  0  0  0  0  0  0  0  0  0  0  0
   24.3317  -10.9884  -17.9896 C   0  0  0  0  0  0  0  0  0  0  0  0
   24.6724  -10.5707  -16.8541 O   0  0  0  0  0  0  0  0  0  0  0  0
   24.4867  -10.0978  -19.0396 O   0  0  0  0  0  0  0  0  0  0  0  0
  2  1  1  1
  2  3  1  0
  3  4  1  0
  4  8  1  0
  5  6  1  0
  5  4  2  0
  6  7  1  0
  7  8  2  0
  9  2  1  0
  9 10  2  0
 12 11  1  0
 13 14  1  0
 13 12  1  0
 15 14  1  6
 15 16  1  0
 16  9  1  0
 17 25  1  0
 17 15  1  0
 18 17  2  0
 19 20  1  0
 20 21  2  0
 20 22  1  0
 22 23  1  0
 24 23  1  1
 24 25  1  0
 24 26  1  0
 26 27  2  0
 26 28  1  0
M  END
$$$$
