HMQ.pdb
     RDKit          3D

 28 28  0  0  1  0  0  0  0  0999 V2000
   20.1785  -13.0555  -16.5766 N   0  0  0  0  0  0  0  0  0  0  0  0
   19.1065  -12.1541  -16.2953 C   0  0  1  0  0  0  0  0  0  0  0  0
   18.2548  -12.7185  -15.1729 C   0  0  0  0  0  0  0  0  0  0  0  0
   17.5623  -13.9475  -15.6331 C   0  0  0  0  0  0  0  0  0  0  0  0
   16.3585  -14.0485  -16.3256 C   0  0  0  0  0  0  0  0  0  0  0  0
   16.1071  -15.3543  -16.5381 N   0  0  0  0  0  0  0  0  0  0  0  0
   17.0993  -16.0752  -16.0097 C   0  0  0  0  0  0  0  0  0  0  0  0
   17.9866  -15.2166  -15.4579 N   0  0  0  0  0  0  0  0  0  0  0  0
   19.5654  -10.7761  -15.9884 C   0  0  0  0  0  0  0  0  0  0  0  0
   20.4717  -10.6676  -15.1081 O   0  0  0  0  0  0  0  0  0  0  0  0
   20.3234   -5.9339  -20.2294 C   0  0  0  0  0  0  0  0  0  0  0  0
   21.3486   -5.5382  -18.8017 S   0  0  0  0  0  0  0  0  0  0  0  0
   20.5994   -6.2434  -17.2860 C   0  0  0  0  0  0  0  0  0  0  0  0
   20.0710   -7.6149  -17.5739 C   0  0  0  0  0  0  0  0  0  0  0  0
   19.5518   -8.2608  -16.3414 C   0  0  2  0  0  0  0  0  0  0  0  0
   19.0589   -9.6132  -16.6089 N   0  0  0  0  0  0  0  0  0  0  0  0
   18.4407   -7.5160  -15.7293 C   0  0  0  0  0  0  0  0  0  0  0  0
   17.2441   -7.5387  -16.1150 O   0  0  0  0  0  0  0  0  0  0  0  0
   17.4697   -6.3923   -9.8540 N   0  0  0  0  0  0  0  0  0  0  0  0
   16.9009   -7.4063  -10.6882 C   0  0  0  0  0  0  0  0  0  0  0  0
   16.4383   -8.4532  -10.1690 O   0  0  0  0  0  0  0  0  0  0  0  0
   16.8407   -7.2564  -12.1631 C   0  0  0  0  0  0  0  0  0  0  0  0
   17.5117   -5.9932  -12.5557 C   0  0  0  0  0  0  0  0  0  0  0  0
   17.6302   -5.7978  -14.0485 C   0  0  2  0  0  0  0  0  0  0  0  0
   18.6433   -6.6590  -14.5833 N   0  0  0  0  0  0  0  0  0  0  0  0
   17.7698   -4.3965  -14.4391 C   0  0  0  0  0  0  0  0  0  0  0  0
   18.8050   -3.9791  -15.0169 O   0  0  0  0  0  0  0  0  0  0  0  0
   16.7823   -3.4547  -14.1996 O   0  0  0  0  0  0  0  0  0  0  0  0
  2  1  1  1
  2  3  1  0
  3  4  1  0
  4  8  1  0
  5  6  1  0
  5  4  2  0
  6  7  1  0
  7  8  2  0
  9  2  1  0
  9 10  2  0
 12 11  1  0
 13 14  1  0
 13 12  1  0
 15 14  1  6
 15 16  1  0
 16  9  1  0
 17 25  1  0
 17 15  1  0
 18 17  2  0
 19 20  1  0
 20 21  2  0
 20 22  1  0
 22 23  1  0
 24 23  1  1
 24 25  1  0
 24 26  1  0
 26 27  2  0
 26 28  1  0
M  END
$$$$
