HMQ.pdb
     RDKit          3D

 28 28  0  0  1  0  0  0  0  0999 V2000
   27.8347  -21.4478  -15.2539 N   0  0  0  0  0  0  0  0  0  0  0  0
   27.4289  -20.4405  -14.3257 C   0  0  1  0  0  0  0  0  0  0  0  0
   26.6317  -19.3747  -15.0552 C   0  0  0  0  0  0  0  0  0  0  0  0
   27.5299  -18.5834  -15.9320 C   0  0  0  0  0  0  0  0  0  0  0  0
   28.8989  -18.7438  -16.1301 C   0  0  0  0  0  0  0  0  0  0  0  0
   29.3063  -17.8079  -17.0084 N   0  0  0  0  0  0  0  0  0  0  0  0
   28.2540  -17.0689  -17.3690 C   0  0  0  0  0  0  0  0  0  0  0  0
   27.1709  -17.5424  -16.7121 N   0  0  0  0  0  0  0  0  0  0  0  0
   26.6773  -20.9820  -13.1657 C   0  0  0  0  0  0  0  0  0  0  0  0
   26.0751  -22.0828  -13.3494 O   0  0  0  0  0  0  0  0  0  0  0  0
   27.8503  -19.6455   -7.0170 C   0  0  0  0  0  0  0  0  0  0  0  0
   26.1884  -20.2918   -6.7601 S   0  0  0  0  0  0  0  0  0  0  0  0
   25.5145  -20.9173   -8.3445 C   0  0  0  0  0  0  0  0  0  0  0  0
   26.2655  -20.3092   -9.4888 C   0  0  0  0  0  0  0  0  0  0  0  0
   25.7900  -20.8456  -10.7897 C   0  0  2  0  0  0  0  0  0  0  0  0
   26.6009  -20.3519  -11.9043 N   0  0  0  0  0  0  0  0  0  0  0  0
   24.3954  -20.4813  -11.0836 C   0  0  0  0  0  0  0  0  0  0  0  0
   23.6852  -19.6969  -10.4045 O   0  0  0  0  0  0  0  0  0  0  0  0
   21.9383  -19.6518  -16.6688 N   0  0  0  0  0  0  0  0  0  0  0  0
   22.1163  -18.5795  -15.7381 C   0  0  0  0  0  0  0  0  0  0  0  0
   22.1413  -17.3930  -16.1519 O   0  0  0  0  0  0  0  0  0  0  0  0
   22.2740  -18.8299  -14.2842 C   0  0  0  0  0  0  0  0  0  0  0  0
   22.2674  -20.2920  -14.0347 C   0  0  0  0  0  0  0  0  0  0  0  0
   22.3514  -20.6672  -12.5742 C   0  0  2  0  0  0  0  0  0  0  0  0
   23.6969  -21.0198  -12.2286 N   0  0  0  0  0  0  0  0  0  0  0  0
   21.3527  -21.6555  -12.1725 C   0  0  0  0  0  0  0  0  0  0  0  0
   21.5237  -22.8820  -12.3873 O   0  0  0  0  0  0  0  0  0  0  0  0
   20.1714  -21.3054  -11.5386 O   0  0  0  0  0  0  0  0  0  0  0  0
  2  1  1  6
  2  3  1  0
  3  4  1  0
  4  8  1  0
  5  6  1  0
  5  4  2  0
  6  7  1  0
  7  8  2  0
  9  2  1  0
  9 10  2  0
 12 11  1  0
 13 14  1  0
 13 12  1  0
 15 14  1  1
 15 16  1  0
 16  9  1  0
 17 25  1  0
 17 15  1  0
 18 17  2  0
 19 20  1  0
 20 21  2  0
 20 22  1  0
 22 23  1  0
 24 23  1  6
 24 25  1  0
 24 26  1  0
 26 27  2  0
 26 28  1  0
M  END
$$$$
