KGS.pdb
     RDKit          3D

 20 19  0  0  1  0  0  0  0  0999 V2000
   22.1305  -20.2269  -11.4775 N   0  0  0  0  0  0  0  0  0  0  0  0
   23.1202  -20.0973  -10.4364 C   0  0  1  0  0  0  0  0  0  0  0  0
   23.3226  -21.4328   -9.7139 C   0  0  0  0  0  0  0  0  0  0  0  0
   21.9455  -22.0323   -9.5449 C   0  0  0  0  0  0  0  0  0  0  0  0
   21.6066  -22.2789   -8.1037 C   0  0  0  0  0  0  0  0  0  0  0  0
   20.2439  -22.9425   -8.0604 C   0  0  0  0  0  0  0  0  0  0  0  0
   19.8293  -23.2579   -6.7268 N   0  0  0  0  0  0  0  0  0  0  0  0
   24.4380  -19.6856  -10.9411 C   0  0  0  0  0  0  0  0  0  0  0  0
   25.4012  -19.6028  -10.1630 O   0  0  0  0  0  0  0  0  0  0  0  0
   24.5963  -19.3881  -12.3055 N   0  0  0  0  0  0  0  0  0  0  0  0
   25.8794  -18.9465  -12.7878 C   0  0  0  0  0  0  0  0  0  0  0  0
   25.7492  -18.5942  -14.2155 C   0  0  0  0  0  0  0  0  0  0  0  0
   24.7127  -18.7792  -14.8921 O   0  0  0  0  0  0  0  0  0  0  0  0
   27.8276  -15.4893  -16.2440 O   0  0  0  0  0  0  0  0  0  0  0  0
   28.0363  -16.8080  -16.5886 C   0  0  0  0  0  0  0  0  0  0  0  0
   26.7856  -17.6062  -16.2763 C   0  0  2  0  0  0  0  0  0  0  0  0
   26.8602  -18.0059  -14.8846 N   0  0  0  0  0  0  0  0  0  0  0  0
   26.7246  -18.8464  -17.0911 C   0  0  0  0  0  0  0  0  0  0  0  0
   25.9494  -18.9331  -18.2541 O   0  0  0  0  0  0  0  0  0  0  0  0
   27.3653  -19.8823  -16.7793 O   0  0  0  0  0  0  0  0  0  0  0  0
  2  1  1  6
  3  2  1  0
  4  3  1  0
  5  4  1  0
  6  5  1  0
  7  6  1  0
  8  2  1  0
  9  8  2  0
 10  8  1  0
 11 10  1  0
 11 12  1  0
 12 17  1  0
 13 12  2  0
 15 14  1  0
 16 15  1  6
 16 18  1  0
 17 16  1  0
 18 20  2  0
 18 19  1  0
M  END
$$$$
