KGS.pdb
     RDKit          3D

 20 19  0  0  1  0  0  0  0  0999 V2000
   26.4118  -18.7476  -17.9507 N   0  0  0  0  0  0  0  0  0  0  0  0
   25.4405  -18.0464  -17.1476 C   0  0  1  0  0  0  0  0  0  0  0  0
   24.0587  -18.6933  -17.2833 C   0  0  0  0  0  0  0  0  0  0  0  0
   23.8534  -18.9407  -18.7601 C   0  0  0  0  0  0  0  0  0  0  0  0
   24.1874  -20.3507  -19.1514 C   0  0  0  0  0  0  0  0  0  0  0  0
   23.8534  -20.5096  -20.6219 C   0  0  0  0  0  0  0  0  0  0  0  0
   24.3242  -21.7496  -21.1607 N   0  0  0  0  0  0  0  0  0  0  0  0
   25.7686  -18.0463  -15.7147 C   0  0  0  0  0  0  0  0  0  0  0  0
   25.0289  -17.4591  -14.9098 O   0  0  0  0  0  0  0  0  0  0  0  0
   26.9216  -18.7138  -15.2671 N   0  0  0  0  0  0  0  0  0  0  0  0
   27.1931  -18.7845  -13.8545 C   0  0  0  0  0  0  0  0  0  0  0  0
   26.3681  -19.8603  -13.2704 C   0  0  0  0  0  0  0  0  0  0  0  0
   25.7626  -20.7243  -13.9438 O   0  0  0  0  0  0  0  0  0  0  0  0
   25.0614  -21.9100   -9.0773 O   0  0  0  0  0  0  0  0  0  0  0  0
   25.7814  -20.9287   -9.7254 C   0  0  0  0  0  0  0  0  0  0  0  0
   25.5145  -21.0199  -11.2151 C   0  0  2  0  0  0  0  0  0  0  0  0
   26.2393  -19.9390  -11.8544 N   0  0  0  0  0  0  0  0  0  0  0  0
   24.0729  -20.8243  -11.5137 C   0  0  0  0  0  0  0  0  0  0  0  0
   23.1916  -21.9030  -11.6577 O   0  0  0  0  0  0  0  0  0  0  0  0
   23.5689  -19.6808  -11.6527 O   0  0  0  0  0  0  0  0  0  0  0  0
  2  1  1  6
  3  2  1  0
  4  3  1  0
  5  4  1  0
  6  5  1  0
  7  6  1  0
  8  2  1  0
  9  8  2  0
 10  8  1  0
 11 10  1  0
 11 12  1  0
 12 17  1  0
 13 12  2  0
 15 14  1  0
 16 15  1  1
 16 18  1  0
 17 16  1  0
 18 20  2  0
 18 19  1  0
M  END
$$$$
