KGS.pdb
     RDKit          3D

 20 19  0  0  1  0  0  0  0  0999 V2000
   17.2304  -11.7670  -14.3333 N   0  0  0  0  0  0  0  0  0  0  0  0
   18.2084  -11.5752  -15.3758 C   0  0  1  0  0  0  0  0  0  0  0  0
   17.8034  -12.3344  -16.6431 C   0  0  0  0  0  0  0  0  0  0  0  0
   17.3647  -13.7074  -16.1886 C   0  0  0  0  0  0  0  0  0  0  0  0
   17.0334  -14.6084  -17.3424 C   0  0  0  0  0  0  0  0  0  0  0  0
   16.6297  -15.9541  -16.7718 C   0  0  0  0  0  0  0  0  0  0  0  0
   16.2626  -16.8932  -17.7882 N   0  0  0  0  0  0  0  0  0  0  0  0
   18.3722  -10.1661  -15.7611 C   0  0  0  0  0  0  0  0  0  0  0  0
   17.3735   -9.4465  -15.9179 O   0  0  0  0  0  0  0  0  0  0  0  0
   19.6635   -9.6441  -15.9493 N   0  0  0  0  0  0  0  0  0  0  0  0
   19.8229   -8.2441  -16.2469 C   0  0  0  0  0  0  0  0  0  0  0  0
   20.9097   -7.7054  -15.4056 C   0  0  0  0  0  0  0  0  0  0  0  0
   21.5392   -8.3770  -14.5576 O   0  0  0  0  0  0  0  0  0  0  0  0
   21.4826   -3.6464  -15.2597 O   0  0  0  0  0  0  0  0  0  0  0  0
   22.6441   -4.3803  -15.3761 C   0  0  0  0  0  0  0  0  0  0  0  0
   22.4064   -5.7749  -14.8307 C   0  0  2  0  0  0  0  0  0  0  0  0
   21.2815   -6.3384  -15.5513 N   0  0  0  0  0  0  0  0  0  0  0  0
   22.0352   -5.7316  -13.3934 C   0  0  0  0  0  0  0  0  0  0  0  0
   22.9850   -5.5137  -12.3876 O   0  0  0  0  0  0  0  0  0  0  0  0
   20.8497   -5.8883  -13.0049 O   0  0  0  0  0  0  0  0  0  0  0  0
  2  1  1  1
  3  2  1  0
  4  3  1  0
  5  4  1  0
  6  5  1  0
  7  6  1  0
  8  2  1  0
  9  8  2  0
 10  8  1  0
 11 10  1  0
 11 12  1  0
 12 17  1  0
 13 12  2  0
 15 14  1  0
 16 15  1  6
 16 18  1  0
 17 16  1  0
 18 20  2  0
 18 19  1  0
M  END
$$$$
