KGS.pdb
     RDKit          3D

 20 19  0  0  1  0  0  0  0  0999 V2000
   24.2523  -22.7074  -14.7120 N   0  0  0  0  0  0  0  0  0  0  0  0
   23.8510  -21.3408  -14.4853 C   0  0  1  0  0  0  0  0  0  0  0  0
   22.8564  -21.2552  -13.3234 C   0  0  0  0  0  0  0  0  0  0  0  0
   21.5040  -21.6038  -13.9011 C   0  0  0  0  0  0  0  0  0  0  0  0
   20.4138  -21.5420  -12.8713 C   0  0  0  0  0  0  0  0  0  0  0  0
   19.0935  -21.7445  -13.5890 C   0  0  0  0  0  0  0  0  0  0  0  0
   17.9665  -21.5782  -12.7218 N   0  0  0  0  0  0  0  0  0  0  0  0
   24.9759  -20.4579  -14.1451 C   0  0  0  0  0  0  0  0  0  0  0  0
   24.7582  -19.3078  -13.7330 O   0  0  0  0  0  0  0  0  0  0  0  0
   26.2933  -20.9258  -14.2898 N   0  0  0  0  0  0  0  0  0  0  0  0
   27.3916  -20.0151  -14.0944 C   0  0  0  0  0  0  0  0  0  0  0  0
   27.7815  -19.4605  -15.4058 C   0  0  0  0  0  0  0  0  0  0  0  0
   28.8759  -19.6907  -15.9676 O   0  0  0  0  0  0  0  0  0  0  0  0
   26.8261  -19.7464  -19.5109 O   0  0  0  0  0  0  0  0  0  0  0  0
   26.8363  -19.8502  -18.1360 C   0  0  0  0  0  0  0  0  0  0  0  0
   26.9059  -18.4602  -17.5342 C   0  0  2  0  0  0  0  0  0  0  0  0
   26.8706  -18.6077  -16.0922 N   0  0  0  0  0  0  0  0  0  0  0  0
   25.7260  -17.6477  -17.9256 C   0  0  0  0  0  0  0  0  0  0  0  0
   25.7388  -16.8145  -19.0510 O   0  0  0  0  0  0  0  0  0  0  0  0
   24.6549  -17.6655  -17.2674 O   0  0  0  0  0  0  0  0  0  0  0  0
  2  1  1  1
  3  2  1  0
  4  3  1  0
  5  4  1  0
  6  5  1  0
  7  6  1  0
  8  2  1  0
  9  8  2  0
 10  8  1  0
 11 10  1  0
 11 12  1  0
 12 17  1  0
 13 12  2  0
 15 14  1  0
 16 15  1  6
 16 18  1  0
 17 16  1  0
 18 20  2  0
 18 19  1  0
M  END
$$$$
