KGS.pdb
     RDKit          3D

 20 19  0  0  1  0  0  0  0  0999 V2000
   23.2426  -20.8231  -13.5534 N   0  0  0  0  0  0  0  0  0  0  0  0
   24.2897  -21.4721  -12.8034 C   0  0  1  0  0  0  0  0  0  0  0  0
   25.2944  -22.1415  -13.7462 C   0  0  0  0  0  0  0  0  0  0  0  0
   24.5179  -23.1849  -14.5161 C   0  0  0  0  0  0  0  0  0  0  0  0
   25.4011  -24.0031  -15.4124 C   0  0  0  0  0  0  0  0  0  0  0  0
   24.5039  -24.8880  -16.2559 C   0  0  0  0  0  0  0  0  0  0  0  0
   25.2455  -25.7775  -17.0977 N   0  0  0  0  0  0  0  0  0  0  0  0
   25.0554  -20.5436  -11.9594 C   0  0  0  0  0  0  0  0  0  0  0  0
   24.8895  -19.3194  -12.0766 O   0  0  0  0  0  0  0  0  0  0  0  0
   25.9724  -21.0523  -11.0236 N   0  0  0  0  0  0  0  0  0  0  0  0
   26.7299  -20.1383  -10.2084 C   0  0  0  0  0  0  0  0  0  0  0  0
   26.6812  -20.6053   -8.8089 C   0  0  0  0  0  0  0  0  0  0  0  0
   25.9206  -21.5100   -8.3972 O   0  0  0  0  0  0  0  0  0  0  0  0
   28.8114  -18.4700   -6.1214 O   0  0  0  0  0  0  0  0  0  0  0  0
   28.7990  -19.8159   -5.8219 C   0  0  0  0  0  0  0  0  0  0  0  0
   27.5904  -20.4582   -6.4745 C   0  0  2  0  0  0  0  0  0  0  0  0
   27.5450  -20.0028   -7.8503 N   0  0  0  0  0  0  0  0  0  0  0  0
   26.3318  -20.0185   -5.8203 C   0  0  0  0  0  0  0  0  0  0  0  0
   25.4213  -19.1675   -6.4590 O   0  0  0  0  0  0  0  0  0  0  0  0
   26.0183  -20.3871   -4.6599 O   0  0  0  0  0  0  0  0  0  0  0  0
  2  1  1  6
  3  2  1  0
  4  3  1  0
  5  4  1  0
  6  5  1  0
  7  6  1  0
  8  2  1  0
  9  8  2  0
 10  8  1  0
 11 10  1  0
 11 12  1  0
 12 17  1  0
 13 12  2  0
 15 14  1  0
 16 15  1  1
 16 18  1  0
 17 16  1  0
 18 20  2  0
 18 19  1  0
M  END
$$$$
