KGS.pdb
     RDKit          3D

 20 19  0  0  1  0  0  0  0  0999 V2000
   23.3145  -20.0656  -14.0448 N   0  0  0  0  0  0  0  0  0  0  0  0
   24.1967  -20.2697  -15.1673 C   0  0  1  0  0  0  0  0  0  0  0  0
   24.1090  -19.0933  -16.1445 C   0  0  0  0  0  0  0  0  0  0  0  0
   22.6356  -18.8246  -16.3479 C   0  0  0  0  0  0  0  0  0  0  0  0
   21.9560  -19.9294  -17.1030 C   0  0  0  0  0  0  0  0  0  0  0  0
   20.5468  -19.4680  -17.4206 C   0  0  0  0  0  0  0  0  0  0  0  0
   19.7527  -20.4999  -18.0160 N   0  0  0  0  0  0  0  0  0  0  0  0
   25.6087  -20.3908  -14.7770 C   0  0  0  0  0  0  0  0  0  0  0  0
   26.4602  -20.7072  -15.6223 O   0  0  0  0  0  0  0  0  0  0  0  0
   25.9834  -20.1464  -13.4446 N   0  0  0  0  0  0  0  0  0  0  0  0
   27.0529  -20.9133  -12.8598 C   0  0  0  0  0  0  0  0  0  0  0  0
   26.5882  -21.4604  -11.5698 C   0  0  0  0  0  0  0  0  0  0  0  0
   26.5876  -22.6788  -11.2838 O   0  0  0  0  0  0  0  0  0  0  0  0
   26.2586  -18.9067   -8.5441 O   0  0  0  0  0  0  0  0  0  0  0  0
   26.2814  -20.2442   -8.2098 C   0  0  0  0  0  0  0  0  0  0  0  0
   25.5964  -21.0405   -9.3032 C   0  0  2  0  0  0  0  0  0  0  0  0
   26.1064  -20.5636  -10.5739 N   0  0  0  0  0  0  0  0  0  0  0  0
   24.1300  -20.8058   -9.2979 C   0  0  0  0  0  0  0  0  0  0  0  0
   23.4726  -20.1922  -10.3714 O   0  0  0  0  0  0  0  0  0  0  0  0
   23.4029  -21.1453   -8.3300 O   0  0  0  0  0  0  0  0  0  0  0  0
  2  1  1  1
  3  2  1  0
  4  3  1  0
  5  4  1  0
  6  5  1  0
  7  6  1  0
  8  2  1  0
  9  8  2  0
 10  8  1  0
 11 10  1  0
 11 12  1  0
 12 17  1  0
 13 12  2  0
 15 14  1  0
 16 15  1  1
 16 18  1  0
 17 16  1  0
 18 20  2  0
 18 19  1  0
M  END
$$$$
