VVP.pdb
     RDKit          3D

 22 22  0  0  1  0  0  0  0  0999 V2000
    9.5374  -17.8529   22.1665 C   0  0  0  0  0  0  0  0  0  0  0  0
    8.2297  -17.2174   21.8732 C   0  0  2  0  0  0  0  0  0  0  0  0
    7.5884  -17.8689   20.6633 C   0  0  0  0  0  0  0  0  0  0  0  0
    8.2881  -15.7370   21.6360 C   0  0  2  0  0  0  0  0  0  0  0  0
    9.1462  -15.4644   20.4992 N   0  0  0  0  0  0  0  0  0  0  0  0
    8.7429  -14.9592   22.7869 C   0  0  0  0  0  0  0  0  0  0  0  0
    9.9539  -14.7264   22.9439 O   0  0  0  0  0  0  0  0  0  0  0  0
    5.8049  -13.9356   25.9074 C   0  0  0  0  0  0  0  0  0  0  0  0
    6.9962  -13.1263   25.5416 C   0  0  1  0  0  0  0  0  0  0  0  0
    7.3783  -12.2851   26.7414 C   0  0  0  0  0  0  0  0  0  0  0  0
    8.2092  -13.8940   25.0409 C   0  0  2  0  0  0  0  0  0  0  0  0
    7.8280  -14.4646   23.7292 N   0  0  0  0  0  0  0  0  0  0  0  0
    8.6252  -14.9569   25.9572 C   0  0  0  0  0  0  0  0  0  0  0  0
    8.2103  -16.1330   25.6461 O   0  0  0  0  0  0  0  0  0  0  0  0
    9.4102  -14.8796   27.1155 N   0  0  0  0  0  0  0  0  0  0  0  0
    9.3327  -13.8227   28.1528 C   0  0  0  0  0  0  0  0  0  0  0  0
   10.6961  -13.6497   28.7140 C   0  0  0  0  0  0  0  0  0  0  0  0
   11.5103  -14.7563   28.0939 C   0  0  0  0  0  0  0  0  0  0  0  0
   10.4665  -15.7352   27.6019 C   0  0  1  0  0  0  0  0  0  0  0  0
    9.9832  -16.4535   28.8465 C   0  0  0  0  0  0  0  0  0  0  0  0
    8.8639  -16.1439   29.3274 O   0  0  0  0  0  0  0  0  0  0  0  0
   10.7633  -17.4194   29.4255 O   0  0  0  0  0  0  0  0  0  0  0  0
  2  1  1  6
  2  3  1  0
  4  6  1  0
  4  2  1  0
  4  5  1  6
  6 12  1  0
  6  7  2  0
  9  8  1  1
  9 11  1  0
 10  9  1  0
 11 13  1  0
 11 12  1  6
 13 14  2  0
 13 15  1  0
 15 19  1  0
 15 16  1  0
 16 17  1  0
 18 17  1  0
 19 18  1  0
 19 20  1  1
 21 20  2  0
 22 20  1  0
M  END
$$$$
