VVP.pdb
     RDKit          3D

 22 22  0  0  1  0  0  0  0  0999 V2000
    8.3958  -21.2820   24.9887 C   0  0  0  0  0  0  0  0  0  0  0  0
    8.0417  -20.0245   24.2863 C   0  0  2  0  0  0  0  0  0  0  0  0
    9.2606  -19.1311   24.1615 C   0  0  0  0  0  0  0  0  0  0  0  0
    6.9407  -19.2330   24.9287 C   0  0  2  0  0  0  0  0  0  0  0  0
    5.7232  -20.0207   24.9386 N   0  0  0  0  0  0  0  0  0  0  0  0
    6.6795  -17.9408   24.2976 C   0  0  0  0  0  0  0  0  0  0  0  0
    6.0819  -17.8872   23.2087 O   0  0  0  0  0  0  0  0  0  0  0  0
    8.3407  -14.3444   26.1742 C   0  0  0  0  0  0  0  0  0  0  0  0
    7.0917  -14.3895   25.3705 C   0  0  1  0  0  0  0  0  0  0  0  0
    6.8449  -13.0051   24.8090 C   0  0  0  0  0  0  0  0  0  0  0  0
    7.0428  -15.4178   24.2516 C   0  0  2  0  0  0  0  0  0  0  0  0
    7.0952  -16.7455   24.9042 N   0  0  0  0  0  0  0  0  0  0  0  0
    8.1461  -15.2736   23.3006 C   0  0  0  0  0  0  0  0  0  0  0  0
    9.1529  -16.0422   23.5190 O   0  0  0  0  0  0  0  0  0  0  0  0
    8.2615  -14.4274   22.1897 N   0  0  0  0  0  0  0  0  0  0  0  0
    7.5510  -13.1402   21.9961 C   0  0  0  0  0  0  0  0  0  0  0  0
    7.3219  -12.9735   20.5389 C   0  0  0  0  0  0  0  0  0  0  0  0
    8.0755  -14.1112   19.8987 C   0  0  0  0  0  0  0  0  0  0  0  0
    9.0376  -14.5551   20.9791 C   0  0  1  0  0  0  0  0  0  0  0  0
   10.1332  -13.5072   20.9849 C   0  0  0  0  0  0  0  0  0  0  0  0
   10.0698  -12.5704   21.8204 O   0  0  0  0  0  0  0  0  0  0  0  0
   11.1667  -13.5926   20.0895 O   0  0  0  0  0  0  0  0  0  0  0  0
  2  1  1  1
  2  3  1  0
  4  6  1  0
  4  2  1  0
  4  5  1  6
  6 12  1  0
  6  7  2  0
  9  8  1  6
  9 11  1  0
 10  9  1  0
 11 13  1  0
 11 12  1  1
 13 14  2  0
 13 15  1  0
 15 19  1  0
 15 16  1  0
 16 17  1  0
 18 17  1  0
 19 18  1  0
 19 20  1  1
 21 20  2  0
 22 20  1  0
M  END
$$$$
