VVP.pdb
     RDKit          3D

 22 22  0  0  1  0  0  0  0  0999 V2000
    8.6058  -13.3034   18.0220 C   0  0  0  0  0  0  0  0  0  0  0  0
    7.7850  -13.5629   19.2299 C   0  0  2  0  0  0  0  0  0  0  0  0
    7.9916  -12.4619   20.2521 C   0  0  0  0  0  0  0  0  0  0  0  0
    8.0462  -14.8810   19.8974 C   0  0  2  0  0  0  0  0  0  0  0  0
    7.6878  -15.9579   18.9947 N   0  0  0  0  0  0  0  0  0  0  0  0
    7.3506  -15.0608   21.1703 C   0  0  0  0  0  0  0  0  0  0  0  0
    6.1279  -15.2846   21.1874 O   0  0  0  0  0  0  0  0  0  0  0  0
    6.1091  -17.1781   22.9066 C   0  0  0  0  0  0  0  0  0  0  0  0
    7.0866  -16.6118   23.8718 C   0  0  1  0  0  0  0  0  0  0  0  0
    8.3572  -17.4313   23.7880 C   0  0  0  0  0  0  0  0  0  0  0  0
    7.4128  -15.1347   23.7179 C   0  0  2  0  0  0  0  0  0  0  0  0
    8.0447  -14.9847   22.3877 N   0  0  0  0  0  0  0  0  0  0  0  0
    8.3071  -14.6396   24.7655 C   0  0  0  0  0  0  0  0  0  0  0  0
    9.5608  -14.7596   24.5084 O   0  0  0  0  0  0  0  0  0  0  0  0
    7.9967  -14.0522   25.9994 N   0  0  0  0  0  0  0  0  0  0  0  0
    6.6446  -13.9452   26.5989 C   0  0  0  0  0  0  0  0  0  0  0  0
    6.6116  -12.6966   27.4012 C   0  0  0  0  0  0  0  0  0  0  0  0
    8.0316  -12.1913   27.3845 C   0  0  0  0  0  0  0  0  0  0  0  0
    8.8381  -13.4055   26.9782 C   0  0  1  0  0  0  0  0  0  0  0  0
    8.8998  -14.2708   28.2216 C   0  0  0  0  0  0  0  0  0  0  0  0
    8.1250  -15.2563   28.3119 O   0  0  0  0  0  0  0  0  0  0  0  0
    9.7886  -13.9713   29.2203 O   0  0  0  0  0  0  0  0  0  0  0  0
  2  1  1  6
  2  3  1  0
  4  6  1  0
  4  2  1  0
  4  5  1  6
  6 12  1  0
  6  7  2  0
  9  8  1  6
  9 11  1  0
 10  9  1  0
 11 13  1  0
 11 12  1  6
 13 14  2  0
 13 15  1  0
 15 19  1  0
 15 16  1  0
 16 17  1  0
 18 17  1  0
 19 18  1  0
 19 20  1  1
 21 20  2  0
 22 20  1  0
M  END
$$$$
