VVP.pdb
     RDKit          3D

 22 22  0  0  1  0  0  0  0  0999 V2000
   10.3146  -17.6419   21.8747 C   0  0  0  0  0  0  0  0  0  0  0  0
    8.8852  -17.3130   21.6538 C   0  0  2  0  0  0  0  0  0  0  0  0
    8.3652  -18.0300   20.4229 C   0  0  0  0  0  0  0  0  0  0  0  0
    8.5915  -15.8491   21.5060 C   0  0  2  0  0  0  0  0  0  0  0  0
    9.3558  -15.3137   20.3960 N   0  0  0  0  0  0  0  0  0  0  0  0
    8.8552  -15.0570   22.7058 C   0  0  0  0  0  0  0  0  0  0  0  0
    9.9605  -14.5100   22.8623 O   0  0  0  0  0  0  0  0  0  0  0  0
    6.6906  -13.4219   26.9547 C   0  0  0  0  0  0  0  0  0  0  0  0
    6.7800  -13.7740   25.5139 C   0  0  1  0  0  0  0  0  0  0  0  0
    6.3836  -12.5551   24.7077 C   0  0  0  0  0  0  0  0  0  0  0  0
    8.1201  -14.3024   25.0275 C   0  0  2  0  0  0  0  0  0  0  0  0
    7.8730  -14.9002   23.6959 N   0  0  0  0  0  0  0  0  0  0  0  0
    8.6999  -15.2961   25.9324 C   0  0  0  0  0  0  0  0  0  0  0  0
    8.5387  -16.5185   25.5691 O   0  0  0  0  0  0  0  0  0  0  0  0
    9.4059  -15.1092   27.1284 N   0  0  0  0  0  0  0  0  0  0  0  0
    9.1959  -14.0110   28.1026 C   0  0  0  0  0  0  0  0  0  0  0  0
   10.5082  -13.7179   28.7317 C   0  0  0  0  0  0  0  0  0  0  0  0
   11.4296  -14.7948   28.2186 C   0  0  0  0  0  0  0  0  0  0  0  0
   10.4843  -15.8656   27.7192 C   0  0  1  0  0  0  0  0  0  0  0  0
    9.9740  -16.5543   28.9697 C   0  0  0  0  0  0  0  0  0  0  0  0
    8.8138  -16.2905   29.3749 O   0  0  0  0  0  0  0  0  0  0  0  0
   10.7744  -17.4446   29.6357 O   0  0  0  0  0  0  0  0  0  0  0  0
  2  1  1  6
  2  3  1  0
  4  6  1  0
  4  2  1  0
  4  5  1  6
  6 12  1  0
  6  7  2  0
  9  8  1  1
  9 11  1  0
 10  9  1  0
 11 13  1  0
 11 12  1  6
 13 14  2  0
 13 15  1  0
 15 19  1  0
 15 16  1  0
 16 17  1  0
 18 17  1  0
 19 18  1  0
 19 20  1  1
 21 20  2  0
 22 20  1  0
M  END
$$$$
