VVP.pdb
     RDKit          3D

 22 22  0  0  1  0  0  0  0  0999 V2000
   10.0837  -17.6834   21.7897 C   0  0  0  0  0  0  0  0  0  0  0  0
    8.6372  -17.3686   21.6982 C   0  0  2  0  0  0  0  0  0  0  0  0
    8.0114  -18.1072   20.5309 C   0  0  0  0  0  0  0  0  0  0  0  0
    8.3180  -15.9092   21.5583 C   0  0  2  0  0  0  0  0  0  0  0  0
    8.8912  -15.4064   20.3248 N   0  0  0  0  0  0  0  0  0  0  0  0
    8.7688  -15.0834   22.6769 C   0  0  0  0  0  0  0  0  0  0  0  0
    9.8767  -14.5212   22.6311 O   0  0  0  0  0  0  0  0  0  0  0  0
    6.6199  -12.4988   24.8149 C   0  0  0  0  0  0  0  0  0  0  0  0
    7.2266  -13.5609   25.6585 C   0  0  1  0  0  0  0  0  0  0  0  0
    6.1427  -14.5589   26.0078 C   0  0  0  0  0  0  0  0  0  0  0  0
    8.4286  -14.2860   25.0744 C   0  0  2  0  0  0  0  0  0  0  0  0
    7.9657  -14.9109   23.8148 N   0  0  0  0  0  0  0  0  0  0  0  0
    8.9715  -15.3020   25.9776 C   0  0  0  0  0  0  0  0  0  0  0  0
    8.9021  -16.5084   25.5396 O   0  0  0  0  0  0  0  0  0  0  0  0
    9.5574  -15.1506   27.2415 N   0  0  0  0  0  0  0  0  0  0  0  0
    9.1513  -14.1727   28.2797 C   0  0  0  0  0  0  0  0  0  0  0  0
   10.3699  -13.8016   29.0419 C   0  0  0  0  0  0  0  0  0  0  0  0
   11.4429  -14.7255   28.5250 C   0  0  0  0  0  0  0  0  0  0  0  0
   10.6647  -15.8401   27.8602 C   0  0  1  0  0  0  0  0  0  0  0  0
   10.1393  -16.6882   29.0018 C   0  0  0  0  0  0  0  0  0  0  0  0
    8.9235  -16.6029   29.3090 O   0  0  0  0  0  0  0  0  0  0  0  0
   10.9862  -17.5269   29.6774 O   0  0  0  0  0  0  0  0  0  0  0  0
  2  1  1  6
  2  3  1  0
  4  6  1  0
  4  2  1  0
  4  5  1  6
  6 12  1  0
  6  7  2  0
  9  8  1  6
  9 11  1  0
 10  9  1  0
 11 13  1  0
 11 12  1  6
 13 14  2  0
 13 15  1  0
 15 19  1  0
 15 16  1  0
 16 17  1  0
 18 17  1  0
 19 18  1  0
 19 20  1  1
 21 20  2  0
 22 20  1  0
M  END
$$$$
