SMM.pdb
     RDKit          3D

 23 22  0  0  1  0  0  0  0  0999 V2000
    9.8827  -19.0330   20.6701 O   0  0  0  0  0  0  0  0  0  0  0  0
    8.7465  -18.4693   20.1190 C   0  0  0  0  0  0  0  0  0  0  0  0
    8.9315  -16.9841   19.8806 C   0  0  2  0  0  0  0  0  0  0  0  0
    9.9073  -16.7266   18.8573 N   0  0  0  0  0  0  0  0  0  0  0  0
    9.2184  -16.2647   21.1482 C   0  0  0  0  0  0  0  0  0  0  0  0
   10.4146  -15.9223   21.3385 O   0  0  0  0  0  0  0  0  0  0  0  0
    6.3589  -11.7633   26.9460 C   0  0  0  0  0  0  0  0  0  0  0  0
    5.9534  -12.9294   25.6164 S   0  0  0  0  0  0  0  0  0  0  0  0
    7.4841  -13.6923   25.0396 C   0  0  0  0  0  0  0  0  0  0  0  0
    7.2809  -14.6245   23.8998 C   0  0  0  0  0  0  0  0  0  0  0  0
    8.5394  -15.2238   23.3374 C   0  0  2  0  0  0  0  0  0  0  0  0
    8.2352  -15.9539   22.1266 N   0  0  0  0  0  0  0  0  0  0  0  0
    9.2811  -16.0613   24.3144 C   0  0  0  0  0  0  0  0  0  0  0  0
    8.9067  -17.2428   24.5206 O   0  0  0  0  0  0  0  0  0  0  0  0
    9.1878  -13.1831   28.8473 C   0  0  0  0  0  0  0  0  0  0  0  0
   10.7672  -13.9753   29.2485 S   0  0  0  0  0  0  0  0  0  0  0  0
   10.9488  -15.5528   28.4268 C   0  0  0  0  0  0  0  0  0  0  0  0
   11.5894  -15.5415   27.0920 C   0  0  0  0  0  0  0  0  0  0  0  0
   11.0689  -16.4091   26.0132 C   0  0  2  0  0  0  0  0  0  0  0  0
   10.3852  -15.5633   25.0076 N   0  0  0  0  0  0  0  0  0  0  0  0
   10.1907  -17.4811   26.4493 C   0  0  0  0  0  0  0  0  0  0  0  0
    8.9584  -17.3491   26.4902 O   0  0  0  0  0  0  0  0  0  0  0  0
   10.6930  -18.7388   26.8531 O   0  0  0  0  0  0  0  0  0  0  0  0
  2  1  1  0
  3  4  1  6
  3  2  1  0
  5  6  2  0
  5  3  1  0
  7  8  1  0
  9  8  1  0
  9 10  1  0
 11 10  1  1
 11 13  1  0
 11 12  1  0
 12  5  1  0
 13 20  1  0
 14 13  2  0
 16 15  1  0
 17 16  1  0
 19 18  1  1
 18 17  1  0
 19 21  1  0
 20 19  1  0
 21 22  2  0
 21 23  1  0
M  END
$$$$
