SMM.pdb
     RDKit          3D

 23 22  0  0  1  0  0  0  0  0999 V2000
    9.4863  -18.9432   20.5573 O   0  0  0  0  0  0  0  0  0  0  0  0
    8.3843  -18.2125   20.1523 C   0  0  0  0  0  0  0  0  0  0  0  0
    8.7253  -16.7435   20.0019 C   0  0  2  0  0  0  0  0  0  0  0  0
    9.7501  -16.5329   19.0164 N   0  0  0  0  0  0  0  0  0  0  0  0
    9.0485  -16.1265   21.3140 C   0  0  0  0  0  0  0  0  0  0  0  0
   10.2542  -15.8201   21.5061 O   0  0  0  0  0  0  0  0  0  0  0  0
    6.2642  -11.4274   25.9808 C   0  0  0  0  0  0  0  0  0  0  0  0
    5.9836  -13.2053   26.2092 S   0  0  0  0  0  0  0  0  0  0  0  0
    7.4254  -14.0954   25.5874 C   0  0  0  0  0  0  0  0  0  0  0  0
    7.2067  -14.7026   24.2484 C   0  0  0  0  0  0  0  0  0  0  0  0
    8.4362  -15.2789   23.6039 C   0  0  2  0  0  0  0  0  0  0  0  0
    8.0892  -15.8731   22.3319 N   0  0  0  0  0  0  0  0  0  0  0  0
    9.1670  -16.2328   24.4769 C   0  0  0  0  0  0  0  0  0  0  0  0
    8.5520  -17.2124   24.9675 O   0  0  0  0  0  0  0  0  0  0  0  0
   10.7290  -12.8435   28.8591 C   0  0  0  0  0  0  0  0  0  0  0  0
   10.7622  -14.4597   29.6775 S   0  0  0  0  0  0  0  0  0  0  0  0
   11.0572  -15.7878   28.5175 C   0  0  0  0  0  0  0  0  0  0  0  0
   10.7565  -15.5115   27.0943 C   0  0  0  0  0  0  0  0  0  0  0  0
   11.0661  -16.5240   26.0616 C   0  0  2  0  0  0  0  0  0  0  0  0
   10.5224  -16.0639   24.7629 N   0  0  0  0  0  0  0  0  0  0  0  0
   10.6011  -17.8691   26.3533 C   0  0  0  0  0  0  0  0  0  0  0  0
    9.3953  -18.1476   26.4325 O   0  0  0  0  0  0  0  0  0  0  0  0
   11.4995  -18.9393   26.5642 O   0  0  0  0  0  0  0  0  0  0  0  0
  2  1  1  0
  3  4  1  6
  3  2  1  0
  5  6  2  0
  5  3  1  0
  7  8  1  0
  9  8  1  0
  9 10  1  0
 11 10  1  1
 11 13  1  0
 11 12  1  0
 12  5  1  0
 13 20  1  0
 14 13  2  0
 16 15  1  0
 17 16  1  0
 19 18  1  1
 18 17  1  0
 19 21  1  0
 20 19  1  0
 21 22  2  0
 21 23  1  0
M  END
$$$$
