SMM.pdb
     RDKit          3D

 23 22  0  0  1  0  0  0  0  0999 V2000
    5.8291  -18.7587   24.6505 O   0  0  0  0  0  0  0  0  0  0  0  0
    4.8289  -18.6515   23.7015 C   0  0  0  0  0  0  0  0  0  0  0  0
    5.3729  -18.8708   22.3040 C   0  0  2  0  0  0  0  0  0  0  0  0
    5.6355  -20.2603   22.0469 N   0  0  0  0  0  0  0  0  0  0  0  0
    6.5474  -18.0010   22.0385 C   0  0  0  0  0  0  0  0  0  0  0  0
    7.6764  -18.4881   22.3077 O   0  0  0  0  0  0  0  0  0  0  0  0
    6.4758  -11.9247   19.1110 C   0  0  0  0  0  0  0  0  0  0  0  0
    8.1494  -12.5848   18.8766 S   0  0  0  0  0  0  0  0  0  0  0  0
    8.4742  -13.7926   20.1779 C   0  0  0  0  0  0  0  0  0  0  0  0
    7.3495  -14.7407   20.3914 C   0  0  0  0  0  0  0  0  0  0  0  0
    7.5953  -15.7927   21.4364 C   0  0  2  0  0  0  0  0  0  0  0  0
    6.4591  -16.6843   21.5102 N   0  0  0  0  0  0  0  0  0  0  0  0
    7.9430  -15.2316   22.7670 C   0  0  0  0  0  0  0  0  0  0  0  0
    7.4480  -14.1317   23.1189 O   0  0  0  0  0  0  0  0  0  0  0  0
    6.5450  -11.5885   26.4235 C   0  0  0  0  0  0  0  0  0  0  0  0
    7.0129  -12.9670   27.5024 S   0  0  0  0  0  0  0  0  0  0  0  0
    8.3887  -13.8956   26.8377 C   0  0  0  0  0  0  0  0  0  0  0  0
    8.1880  -14.5350   25.5175 C   0  0  0  0  0  0  0  0  0  0  0  0
    9.3161  -15.2152   24.8448 C   0  0  2  0  0  0  0  0  0  0  0  0
    8.8074  -15.9009   23.6344 N   0  0  0  0  0  0  0  0  0  0  0  0
   10.0619  -16.1460   25.6741 C   0  0  0  0  0  0  0  0  0  0  0  0
   10.0231  -17.3716   25.4891 O   0  0  0  0  0  0  0  0  0  0  0  0
   10.8763  -15.7060   26.7418 O   0  0  0  0  0  0  0  0  0  0  0  0
  2  1  1  0
  3  4  1  1
  3  2  1  0
  5  6  2  0
  5  3  1  0
  7  8  1  0
  9  8  1  0
  9 10  1  0
 11 10  1  6
 11 13  1  0
 11 12  1  0
 12  5  1  0
 13 20  1  0
 14 13  2  0
 16 15  1  0
 17 16  1  0
 19 18  1  1
 18 17  1  0
 19 21  1  0
 20 19  1  0
 21 22  2  0
 21 23  1  0
M  END
$$$$
