SMM.pdb
     RDKit          3D

 23 22  0  0  1  0  0  0  0  0999 V2000
    7.5587  -18.9287   21.4165 O   0  0  0  0  0  0  0  0  0  0  0  0
    6.6692  -18.0740   20.7914 C   0  0  0  0  0  0  0  0  0  0  0  0
    7.3822  -16.8691   20.2110 C   0  0  2  0  0  0  0  0  0  0  0  0
    8.1514  -17.2151   19.0473 N   0  0  0  0  0  0  0  0  0  0  0  0
    8.1823  -16.1644   21.2453 C   0  0  0  0  0  0  0  0  0  0  0  0
    9.4314  -16.3031   21.1767 O   0  0  0  0  0  0  0  0  0  0  0  0
    6.7668  -11.4032   25.8811 C   0  0  0  0  0  0  0  0  0  0  0  0
    6.3808  -13.1024   26.3864 S   0  0  0  0  0  0  0  0  0  0  0  0
    6.6255  -14.1898   24.9668 C   0  0  0  0  0  0  0  0  0  0  0  0
    7.6020  -13.6562   23.9814 C   0  0  0  0  0  0  0  0  0  0  0  0
    8.4258  -14.6969   23.2762 C   0  0  2  0  0  0  0  0  0  0  0  0
    7.6206  -15.3645   22.2775 N   0  0  0  0  0  0  0  0  0  0  0  0
    9.0707  -15.6640   24.2008 C   0  0  0  0  0  0  0  0  0  0  0  0
    8.3992  -16.6260   24.6507 O   0  0  0  0  0  0  0  0  0  0  0  0
   11.3885  -13.3675   29.1910 C   0  0  0  0  0  0  0  0  0  0  0  0
   10.1028  -14.5952   29.5410 S   0  0  0  0  0  0  0  0  0  0  0  0
   10.1163  -15.9311   28.3527 C   0  0  0  0  0  0  0  0  0  0  0  0
    9.9040  -15.5657   26.9337 C   0  0  0  0  0  0  0  0  0  0  0  0
   10.8554  -16.0274   25.8996 C   0  0  2  0  0  0  0  0  0  0  0  0
   10.4068  -15.5267   24.5797 N   0  0  0  0  0  0  0  0  0  0  0  0
   11.0652  -17.4640   25.8476 C   0  0  0  0  0  0  0  0  0  0  0  0
   10.4214  -18.2509   26.5576 O   0  0  0  0  0  0  0  0  0  0  0  0
   12.0180  -18.0476   24.9824 O   0  0  0  0  0  0  0  0  0  0  0  0
  2  1  1  0
  3  4  1  6
  3  2  1  0
  5  6  2  0
  5  3  1  0
  7  8  1  0
  9  8  1  0
  9 10  1  0
 11 10  1  1
 11 13  1  0
 11 12  1  0
 12  5  1  0
 13 20  1  0
 14 13  2  0
 16 15  1  0
 17 16  1  0
 19 18  1  1
 18 17  1  0
 19 21  1  0
 20 19  1  0
 21 22  2  0
 21 23  1  0
M  END
$$$$
