SMM.pdb
     RDKit          3D

 23 22  0  0  1  0  0  0  0  0999 V2000
    8.5696  -19.4584   22.8324 O   0  0  0  0  0  0  0  0  0  0  0  0
    7.4214  -19.2536   22.0893 C   0  0  0  0  0  0  0  0  0  0  0  0
    7.6360  -18.1915   21.0297 C   0  0  2  0  0  0  0  0  0  0  0  0
    8.3711  -18.7021   19.9052 N   0  0  0  0  0  0  0  0  0  0  0  0
    8.2419  -16.9650   21.6086 C   0  0  0  0  0  0  0  0  0  0  0  0
    9.4675  -16.7870   21.3836 O   0  0  0  0  0  0  0  0  0  0  0  0
    5.7547  -12.4150   26.3942 C   0  0  0  0  0  0  0  0  0  0  0  0
    7.5055  -12.5336   25.9334 S   0  0  0  0  0  0  0  0  0  0  0  0
    7.6145  -12.6835   24.1381 C   0  0  0  0  0  0  0  0  0  0  0  0
    7.1140  -13.9865   23.6274 C   0  0  0  0  0  0  0  0  0  0  0  0
    8.1560  -14.8603   22.9870 C   0  0  2  0  0  0  0  0  0  0  0  0
    7.5244  -16.0115   22.3810 N   0  0  0  0  0  0  0  0  0  0  0  0
    9.2460  -15.2547   23.9157 C   0  0  0  0  0  0  0  0  0  0  0  0
   10.3419  -14.6417   23.8732 O   0  0  0  0  0  0  0  0  0  0  0  0
    9.5054  -13.3149   29.0746 C   0  0  0  0  0  0  0  0  0  0  0  0
   10.7210  -14.6245   29.3753 S   0  0  0  0  0  0  0  0  0  0  0  0
   10.3818  -16.0845   28.4006 C   0  0  0  0  0  0  0  0  0  0  0  0
    9.6233  -15.8883   27.1444 C   0  0  0  0  0  0  0  0  0  0  0  0
   10.0932  -16.5150   25.8898 C   0  0  2  0  0  0  0  0  0  0  0  0
    9.0780  -16.2916   24.8345 N   0  0  0  0  0  0  0  0  0  0  0  0
   10.4160  -17.9282   25.9859 C   0  0  0  0  0  0  0  0  0  0  0  0
    9.6470  -18.8100   25.5750 O   0  0  0  0  0  0  0  0  0  0  0  0
   11.6283  -18.3791   26.5551 O   0  0  0  0  0  0  0  0  0  0  0  0
  2  1  1  0
  3  4  1  6
  3  2  1  0
  5  6  2  0
  5  3  1  0
  7  8  1  0
  9  8  1  0
  9 10  1  0
 11 10  1  1
 11 13  1  0
 11 12  1  0
 12  5  1  0
 13 20  1  0
 14 13  2  0
 16 15  1  0
 17 16  1  0
 19 18  1  1
 18 17  1  0
 19 21  1  0
 20 19  1  0
 21 22  2  0
 21 23  1  0
M  END
$$$$
