LWA.pdb
     RDKit          3D

 28 29  0  0  1  0  0  0  0  0999 V2000
   29.4712  -19.7390  -12.3172 C   0  0  0  0  0  0  0  0  0  0  0  0
   28.3216  -20.7342  -12.2382 C   0  0  1  0  0  0  0  0  0  0  0  0
   28.6812  -21.7902  -11.2489 C   0  0  0  0  0  0  0  0  0  0  0  0
   27.0171  -20.0542  -11.9535 C   0  0  0  0  0  0  0  0  0  0  0  0
   25.9310  -21.0962  -11.8454 C   0  0  2  0  0  0  0  0  0  0  0  0
   26.1894  -22.1743  -12.7749 N   0  0  0  0  0  0  0  0  0  0  0  0
   24.5911  -20.5431  -12.1330 C   0  0  0  0  0  0  0  0  0  0  0  0
   24.2041  -19.5313  -11.5039 O   0  0  0  0  0  0  0  0  0  0  0  0
   23.6949  -21.1009  -13.1007 N   0  0  0  0  0  0  0  0  0  0  0  0
   22.4206  -20.5342  -13.4081 C   0  0  1  0  0  0  0  0  0  0  0  0
   22.3225  -20.1122  -14.8440 C   0  0  0  0  0  0  0  0  0  0  0  0
   23.0703  -18.8904  -15.1785 C   0  0  0  0  0  0  0  0  0  0  0  0
   22.5278  -17.6163  -15.3582 C   0  0  0  0  0  0  0  0  0  0  0  0
   23.5129  -16.7619  -15.6771 N   0  0  0  0  0  0  0  0  0  0  0  0
   24.6808  -17.4184  -15.7146 C   0  0  0  0  0  0  0  0  0  0  0  0
   25.9507  -16.9399  -15.9901 C   0  0  0  0  0  0  0  0  0  0  0  0
   26.9870  -17.8487  -15.9471 C   0  0  0  0  0  0  0  0  0  0  0  0
   26.7598  -19.1738  -15.6422 C   0  0  0  0  0  0  0  0  0  0  0  0
   25.4922  -19.6143  -15.3752 C   0  0  0  0  0  0  0  0  0  0  0  0
   24.4179  -18.7455  -15.4054 C   0  0  0  0  0  0  0  0  0  0  0  0
   21.3531  -21.5153  -13.0249 C   0  0  0  0  0  0  0  0  0  0  0  0
   21.5083  -22.7576  -13.2077 O   0  0  0  0  0  0  0  0  0  0  0  0
   17.9467  -21.2152  -11.4105 C   0  0  0  0  0  0  0  0  0  0  0  0
   19.0357  -22.0022  -12.1526 C   0  0  2  0  0  0  0  0  0  0  0  0
   20.1176  -21.1092  -12.4391 N   0  0  0  0  0  0  0  0  0  0  0  0
   18.4001  -22.5973  -13.3303 C   0  0  0  0  0  0  0  0  0  0  0  0
   17.7324  -23.8098  -13.1529 O   0  0  0  0  0  0  0  0  0  0  0  0
   18.3948  -22.1250  -14.4886 O   0  0  0  0  0  0  0  0  0  0  0  0
  2  1  1  1
  2  3  1  0
  4  5  1  0
  4  2  1  0
  5  6  1  6
  7  8  2  0
  7  5  1  0
  9  7  1  0
 10  9  1  0
 11 12  1  0
 10 11  1  6
 12 13  2  0
 12 20  1  0
 13 14  1  0
 14 15  1  0
 15 16  2  0
 17 16  1  0
 18 17  2  0
 19 20  2  0
 19 18  1  0
 20 15  1  0
 21 22  2  0
 21 10  1  0
 24 23  1  6
 24 25  1  0
 25 21  1  0
 26 24  1  0
 27 26  1  0
 28 26  2  0
M  END
$$$$
