LWA.pdb
     RDKit          3D

 28 29  0  0  1  0  0  0  0  0999 V2000
   28.4424  -19.1393  -15.8034 C   0  0  0  0  0  0  0  0  0  0  0  0
   28.9560  -19.2811  -14.3771 C   0  0  1  0  0  0  0  0  0  0  0  0
   29.0937  -17.9175  -13.7895 C   0  0  0  0  0  0  0  0  0  0  0  0
   28.1000  -20.2074  -13.5681 C   0  0  0  0  0  0  0  0  0  0  0  0
   28.6378  -20.2720  -12.1597 C   0  0  2  0  0  0  0  0  0  0  0  0
   29.8632  -21.0405  -12.1358 N   0  0  0  0  0  0  0  0  0  0  0  0
   27.6798  -20.8917  -11.2204 C   0  0  0  0  0  0  0  0  0  0  0  0
   27.5986  -22.1408  -11.1719 O   0  0  0  0  0  0  0  0  0  0  0  0
   26.8260  -20.1409  -10.3496 N   0  0  0  0  0  0  0  0  0  0  0  0
   25.6671  -20.6906   -9.7218 C   0  0  1  0  0  0  0  0  0  0  0  0
   25.3524  -20.0096   -8.4231 C   0  0  0  0  0  0  0  0  0  0  0  0
   26.5299  -19.6053   -7.6394 C   0  0  0  0  0  0  0  0  0  0  0  0
   27.2850  -18.4457   -7.8268 C   0  0  0  0  0  0  0  0  0  0  0  0
   28.2932  -18.4318   -6.9404 N   0  0  0  0  0  0  0  0  0  0  0  0
   28.2341  -19.5320   -6.1772 C   0  0  0  0  0  0  0  0  0  0  0  0
   29.0592  -19.9271   -5.1377 C   0  0  0  0  0  0  0  0  0  0  0  0
   28.7543  -21.1173   -4.5119 C   0  0  0  0  0  0  0  0  0  0  0  0
   27.6733  -21.8746   -4.9099 C   0  0  0  0  0  0  0  0  0  0  0  0
   26.8778  -21.4556   -5.9413 C   0  0  0  0  0  0  0  0  0  0  0  0
   27.1393  -20.2708   -6.6031 C   0  0  0  0  0  0  0  0  0  0  0  0
   24.5234  -20.6345  -10.6902 C   0  0  0  0  0  0  0  0  0  0  0  0
   24.6835  -20.2051  -11.8695 O   0  0  0  0  0  0  0  0  0  0  0  0
   22.3912  -22.0708  -12.3642 C   0  0  0  0  0  0  0  0  0  0  0  0
   22.0991  -21.0569  -11.2494 C   0  0  2  0  0  0  0  0  0  0  0  0
   23.2065  -21.0573  -10.3417 N   0  0  0  0  0  0  0  0  0  0  0  0
   20.8159  -21.4384  -10.6555 C   0  0  0  0  0  0  0  0  0  0  0  0
   19.6820  -21.3374  -11.4627 O   0  0  0  0  0  0  0  0  0  0  0  0
   20.6315  -21.8492   -9.4884 O   0  0  0  0  0  0  0  0  0  0  0  0
  2  1  1  6
  2  3  1  0
  4  5  1  0
  4  2  1  0
  5  6  1  6
  7  8  2  0
  7  5  1  0
  9  7  1  0
 10  9  1  0
 11 12  1  0
 10 11  1  1
 12 13  2  0
 12 20  1  0
 13 14  1  0
 14 15  1  0
 15 16  2  0
 17 16  1  0
 18 17  2  0
 19 20  2  0
 19 18  1  0
 20 15  1  0
 21 22  2  0
 21 10  1  0
 24 23  1  6
 24 25  1  0
 25 21  1  0
 26 24  1  0
 27 26  1  0
 28 26  2  0
M  END
$$$$
