LWA.pdb
     RDKit          3D

 28 29  0  0  1  0  0  0  0  0999 V2000
   21.9957  -18.4612  -22.1854 C   0  0  0  0  0  0  0  0  0  0  0  0
   22.6247  -17.8000  -20.9667 C   0  0  1  0  0  0  0  0  0  0  0  0
   21.6527  -16.8144  -20.4125 C   0  0  0  0  0  0  0  0  0  0  0  0
   23.0993  -18.8120  -19.9688 C   0  0  0  0  0  0  0  0  0  0  0  0
   23.5276  -18.0994  -18.7094 C   0  0  2  0  0  0  0  0  0  0  0  0
   24.8974  -17.6524  -18.8387 N   0  0  0  0  0  0  0  0  0  0  0  0
   23.4292  -18.9630  -17.5142 C   0  0  0  0  0  0  0  0  0  0  0  0
   24.1124  -20.0119  -17.4650 O   0  0  0  0  0  0  0  0  0  0  0  0
   22.5885  -18.6702  -16.3924 N   0  0  0  0  0  0  0  0  0  0  0  0
   22.4936  -19.5116  -15.2424 C   0  0  1  0  0  0  0  0  0  0  0  0
   22.9880  -18.8291  -14.0018 C   0  0  0  0  0  0  0  0  0  0  0  0
   23.0198  -19.6803  -12.8025 C   0  0  0  0  0  0  0  0  0  0  0  0
   23.9740  -20.6575  -12.5115 C   0  0  0  0  0  0  0  0  0  0  0  0
   23.6603  -21.2420  -11.3444 N   0  0  0  0  0  0  0  0  0  0  0  0
   22.5410  -20.6913  -10.8540 C   0  0  0  0  0  0  0  0  0  0  0  0
   21.8624  -20.9740   -9.6805 C   0  0  0  0  0  0  0  0  0  0  0  0
   20.7285  -20.2347   -9.4174 C   0  0  0  0  0  0  0  0  0  0  0  0
   20.2965  -19.2586  -10.2898 C   0  0  0  0  0  0  0  0  0  0  0  0
   20.9902  -19.0044  -11.4415 C   0  0  0  0  0  0  0  0  0  0  0  0
   22.1326  -19.7167  -11.7537 C   0  0  0  0  0  0  0  0  0  0  0  0
   21.0773  -19.9864  -15.1097 C   0  0  0  0  0  0  0  0  0  0  0  0
   20.1083  -19.1734  -15.1346 O   0  0  0  0  0  0  0  0  0  0  0  0
   19.3795  -23.3216  -15.2421 C   0  0  0  0  0  0  0  0  0  0  0  0
   19.4094  -21.8537  -14.7944 C   0  0  2  0  0  0  0  0  0  0  0  0
   20.7460  -21.3646  -14.9503 N   0  0  0  0  0  0  0  0  0  0  0  0
   18.8968  -21.8187  -13.4229 C   0  0  0  0  0  0  0  0  0  0  0  0
   19.7386  -22.2871  -12.4131 O   0  0  0  0  0  0  0  0  0  0  0  0
   17.7719  -21.4080  -13.0616 O   0  0  0  0  0  0  0  0  0  0  0  0
  2  1  1  6
  2  3  1  0
  4  5  1  0
  4  2  1  0
  5  6  1  6
  7  8  2  0
  7  5  1  0
  9  7  1  0
 10  9  1  0
 11 12  1  0
 10 11  1  1
 12 13  2  0
 12 20  1  0
 13 14  1  0
 14 15  1  0
 15 16  2  0
 17 16  1  0
 18 17  2  0
 19 20  2  0
 19 18  1  0
 20 15  1  0
 21 22  2  0
 21 10  1  0
 24 23  1  1
 24 25  1  0
 25 21  1  0
 26 24  1  0
 27 26  1  0
 28 26  2  0
M  END
$$$$
