LWA.pdb
     RDKit          3D

 28 29  0  0  1  0  0  0  0  0999 V2000
   21.2222  -19.6752  -17.0274 C   0  0  0  0  0  0  0  0  0  0  0  0
   22.6611  -19.3110  -16.6881 C   0  0  1  0  0  0  0  0  0  0  0  0
   22.6797  -17.9200  -16.1511 C   0  0  0  0  0  0  0  0  0  0  0  0
   23.2901  -20.3217  -15.7782 C   0  0  0  0  0  0  0  0  0  0  0  0
   24.6337  -19.8072  -15.3232 C   0  0  2  0  0  0  0  0  0  0  0  0
   25.6375  -20.1024  -16.3223 N   0  0  0  0  0  0  0  0  0  0  0  0
   25.0603  -20.4066  -14.0416 C   0  0  0  0  0  0  0  0  0  0  0  0
   25.2121  -21.6482  -13.9726 O   0  0  0  0  0  0  0  0  0  0  0  0
   25.3144  -19.6442  -12.8562 N   0  0  0  0  0  0  0  0  0  0  0  0
   25.7508  -20.2265  -11.6274 C   0  0  1  0  0  0  0  0  0  0  0  0
   26.7727  -19.3769  -10.9322 C   0  0  0  0  0  0  0  0  0  0  0  0
   27.4777  -20.0437   -9.8265 C   0  0  0  0  0  0  0  0  0  0  0  0
   28.1763  -21.2503   -9.9042 C   0  0  0  0  0  0  0  0  0  0  0  0
   28.6638  -21.5529   -8.6905 N   0  0  0  0  0  0  0  0  0  0  0  0
   28.3167  -20.5972   -7.8172 C   0  0  0  0  0  0  0  0  0  0  0  0
   28.6060  -20.4919   -6.4671 C   0  0  0  0  0  0  0  0  0  0  0  0
   28.1243  -19.3814   -5.8067 C   0  0  0  0  0  0  0  0  0  0  0  0
   27.3877  -18.4227   -6.4691 C   0  0  0  0  0  0  0  0  0  0  0  0
   27.1191  -18.5573   -7.8040 C   0  0  0  0  0  0  0  0  0  0  0  0
   27.5776  -19.6512   -8.5134 C   0  0  0  0  0  0  0  0  0  0  0  0
   24.5503  -20.4959  -10.7700 C   0  0  0  0  0  0  0  0  0  0  0  0
   23.5775  -19.6879  -10.7315 O   0  0  0  0  0  0  0  0  0  0  0  0
   23.9179  -22.7923   -7.9005 C   0  0  0  0  0  0  0  0  0  0  0  0
   23.3821  -21.8868   -9.0181 C   0  0  2  0  0  0  0  0  0  0  0  0
   24.4378  -21.6642   -9.9595 N   0  0  0  0  0  0  0  0  0  0  0  0
   22.8672  -20.6771   -8.3728 C   0  0  0  0  0  0  0  0  0  0  0  0
   21.6168  -20.7621   -7.7590 O   0  0  0  0  0  0  0  0  0  0  0  0
   23.4393  -19.5661   -8.3154 O   0  0  0  0  0  0  0  0  0  0  0  0
  2  1  1  1
  2  3  1  0
  4  5  1  0
  4  2  1  0
  5  6  1  6
  7  8  2  0
  7  5  1  0
  9  7  1  0
 10  9  1  0
 11 12  1  0
 10 11  1  1
 12 13  2  0
 12 20  1  0
 13 14  1  0
 14 15  1  0
 15 16  2  0
 17 16  1  0
 18 17  2  0
 19 20  2  0
 19 18  1  0
 20 15  1  0
 21 22  2  0
 21 10  1  0
 24 23  1  1
 24 25  1  0
 25 21  1  0
 26 24  1  0
 27 26  1  0
 28 26  2  0
M  END
$$$$
