LWA.pdb
     RDKit          3D

 28 29  0  0  1  0  0  0  0  0999 V2000
   27.2276  -19.9046  -18.9598 C   0  0  0  0  0  0  0  0  0  0  0  0
   27.8593  -20.8623  -17.9588 C   0  0  1  0  0  0  0  0  0  0  0  0
   29.2109  -20.3439  -17.6010 C   0  0  0  0  0  0  0  0  0  0  0  0
   26.9676  -21.0994  -16.7782 C   0  0  0  0  0  0  0  0  0  0  0  0
   27.6682  -22.0184  -15.8078 C   0  0  2  0  0  0  0  0  0  0  0  0
   27.7284  -23.3568  -16.3538 N   0  0  0  0  0  0  0  0  0  0  0  0
   26.9856  -22.0787  -14.4984 C   0  0  0  0  0  0  0  0  0  0  0  0
   25.9625  -22.7918  -14.3793 O   0  0  0  0  0  0  0  0  0  0  0  0
   27.4281  -21.3614  -13.3406 N   0  0  0  0  0  0  0  0  0  0  0  0
   26.7353  -21.3831  -12.0920 C   0  0  1  0  0  0  0  0  0  0  0  0
   27.5777  -20.8526  -10.9703 C   0  0  0  0  0  0  0  0  0  0  0  0
   26.8575  -20.6471   -9.7041 C   0  0  0  0  0  0  0  0  0  0  0  0
   25.4715  -20.5815   -9.5466 C   0  0  0  0  0  0  0  0  0  0  0  0
   25.1878  -20.3602   -8.2533 N   0  0  0  0  0  0  0  0  0  0  0  0
   26.3273  -20.2777   -7.5523 C   0  0  0  0  0  0  0  0  0  0  0  0
   26.5128  -20.0680   -6.1962 C   0  0  0  0  0  0  0  0  0  0  0  0
   27.8129  -20.0398   -5.7375 C   0  0  0  0  0  0  0  0  0  0  0  0
   28.8757  -20.2137   -6.5982 C   0  0  0  0  0  0  0  0  0  0  0  0
   28.6576  -20.4186   -7.9334 C   0  0  0  0  0  0  0  0  0  0  0  0
   27.3745  -20.4552   -8.4455 C   0  0  0  0  0  0  0  0  0  0  0  0
   25.4457  -20.6331  -12.2446 C   0  0  0  0  0  0  0  0  0  0  0  0
   25.4230  -19.3686  -12.2792 O   0  0  0  0  0  0  0  0  0  0  0  0
   22.1361  -21.4490  -13.6045 C   0  0  0  0  0  0  0  0  0  0  0  0
   22.9473  -20.6195  -12.5995 C   0  0  2  0  0  0  0  0  0  0  0  0
   24.1870  -21.2942  -12.3586 N   0  0  0  0  0  0  0  0  0  0  0  0
   22.1023  -20.4427  -11.4164 C   0  0  0  0  0  0  0  0  0  0  0  0
   22.3273  -21.2969  -10.3361 O   0  0  0  0  0  0  0  0  0  0  0  0
   21.1920  -19.5965  -11.2747 O   0  0  0  0  0  0  0  0  0  0  0  0
  2  1  1  6
  2  3  1  0
  4  5  1  0
  4  2  1  0
  5  6  1  6
  7  8  2  0
  7  5  1  0
  9  7  1  0
 10  9  1  0
 11 12  1  0
 10 11  1  1
 12 13  2  0
 12 20  1  0
 13 14  1  0
 14 15  1  0
 15 16  2  0
 17 16  1  0
 18 17  2  0
 19 20  2  0
 19 18  1  0
 20 15  1  0
 21 22  2  0
 21 10  1  0
 24 23  1  6
 24 25  1  0
 25 21  1  0
 26 24  1  0
 27 26  1  0
 28 26  2  0
M  END
$$$$
