AHK.pdb
     RDKit          3D

 25 25  0  0  1  0  0  0  0  0999 V2000
   46.9489  -12.4719   -7.8106 C   0  0  0  0  0  0  0  0  0  0  0  0
   46.6032  -11.2162   -7.0749 C   0  0  2  0  0  0  0  0  0  0  0  0
   45.8586  -11.5743   -5.8834 N   0  0  0  0  0  0  0  0  0  0  0  0
   45.7143  -10.3781   -7.9304 C   0  0  0  0  0  0  0  0  0  0  0  0
   46.1288   -9.9438   -9.0513 O   0  0  0  0  0  0  0  0  0  0  0  0
   44.4274  -10.1017   -7.4450 N   0  0  0  0  0  0  0  0  0  0  0  0
   43.4598   -9.3701   -8.2884 C   0  0  1  0  0  0  0  0  0  0  0  0
   42.2708  -10.2322   -8.5501 C   0  0  0  0  0  0  0  0  0  0  0  0
   42.3917  -11.2324   -9.5997 C   0  0  0  0  0  0  0  0  0  0  0  0
   42.6345  -12.5721   -9.6352 C   0  0  0  0  0  0  0  0  0  0  0  0
   42.5788  -13.0147  -10.9190 N   0  0  0  0  0  0  0  0  0  0  0  0
   42.3041  -11.9718  -11.6805 C   0  0  0  0  0  0  0  0  0  0  0  0
   42.1854  -10.8841  -10.9142 N   0  0  0  0  0  0  0  0  0  0  0  0
   43.0936   -8.1734   -7.4523 C   0  0  0  0  0  0  0  0  0  0  0  0
   42.6289   -8.3233   -6.2984 O   0  0  0  0  0  0  0  0  0  0  0  0
   43.2727   -6.8710   -7.9686 N   0  0  0  0  0  0  0  0  0  0  0  0
   43.0011   -5.6732   -7.1437 C   0  0  1  0  0  0  0  0  0  0  0  0
   44.2344   -4.8195   -7.0625 C   0  0  0  0  0  0  0  0  0  0  0  0
   43.9923   -3.5908   -6.2391 C   0  0  0  0  0  0  0  0  0  0  0  0
   45.2209   -2.7553   -6.1054 C   0  0  0  0  0  0  0  0  0  0  0  0
   45.0082   -1.5703   -5.1765 C   0  0  0  0  0  0  0  0  0  0  0  0
   46.2666   -0.8460   -5.0952 N   0  0  0  0  0  0  0  0  0  0  0  0
   41.8057   -4.9696   -7.6506 C   0  0  0  0  0  0  0  0  0  0  0  0
   41.0604   -4.2115   -6.7571 O   0  0  0  0  0  0  0  0  0  0  0  0
   41.3908   -4.9908   -8.8318 O   0  0  0  0  0  0  0  0  0  0  0  0
  2  4  1  0
  2  1  1  6
  3  2  1  0
  4  5  2  0
  6  7  1  0
  6  4  1  0
  7  8  1  1
  9  8  1  0
 10  9  2  0
 11 12  1  0
 11 10  1  0
 12 13  2  0
 13  9  1  0
 14 15  2  0
 14  7  1  0
 16 14  1  0
 17 16  1  0
 17 23  1  0
 17 18  1  6
 19 20  1  0
 19 18  1  0
 21 20  1  0
 22 21  1  0
 23 25  2  0
 23 24  1  0
M  END
$$$$
