AHK.pdb
     RDKit          3D

 25 25  0  0  1  0  0  0  0  0999 V2000
   20.7277  -17.5962  -16.7456 C   0  0  0  0  0  0  0  0  0  0  0  0
   20.5142  -16.2894  -17.4415 C   0  0  2  0  0  0  0  0  0  0  0  0
   21.1448  -16.3570  -18.7454 N   0  0  0  0  0  0  0  0  0  0  0  0
   21.1886  -15.2080  -16.6670 C   0  0  0  0  0  0  0  0  0  0  0  0
   20.9500  -15.0651  -15.4263 O   0  0  0  0  0  0  0  0  0  0  0  0
   22.0795  -14.3772  -17.3629 N   0  0  0  0  0  0  0  0  0  0  0  0
   22.6484  -13.1844  -16.7024 C   0  0  1  0  0  0  0  0  0  0  0  0
   24.0980  -13.0704  -17.0356 C   0  0  0  0  0  0  0  0  0  0  0  0
   25.0067  -13.9986  -16.3803 C   0  0  0  0  0  0  0  0  0  0  0  0
   24.8743  -14.9947  -15.4610 C   0  0  0  0  0  0  0  0  0  0  0  0
   26.0795  -15.5854  -15.2475 N   0  0  0  0  0  0  0  0  0  0  0  0
   26.9574  -14.9732  -16.0205 C   0  0  0  0  0  0  0  0  0  0  0  0
   26.3409  -14.0129  -16.7148 N   0  0  0  0  0  0  0  0  0  0  0  0
   21.8615  -12.0438  -17.2899 C   0  0  0  0  0  0  0  0  0  0  0  0
   21.6256  -12.0023  -18.5199 O   0  0  0  0  0  0  0  0  0  0  0  0
   21.3846  -11.0111  -16.4528 N   0  0  0  0  0  0  0  0  0  0  0  0
   20.5662   -9.9019  -16.9906 C   0  0  1  0  0  0  0  0  0  0  0  0
   19.1301  -10.3303  -17.0919 C   0  0  0  0  0  0  0  0  0  0  0  0
   18.3039   -9.3005  -17.8013 C   0  0  0  0  0  0  0  0  0  0  0  0
   16.8899   -9.7416  -17.9780 C   0  0  0  0  0  0  0  0  0  0  0  0
   16.0865   -8.7628  -18.8199 C   0  0  0  0  0  0  0  0  0  0  0  0
   14.7876   -9.3659  -19.0730 N   0  0  0  0  0  0  0  0  0  0  0  0
   20.7822   -8.6793  -16.1909 C   0  0  0  0  0  0  0  0  0  0  0  0
   20.4196   -7.4586  -16.7446 O   0  0  0  0  0  0  0  0  0  0  0  0
   21.2704   -8.6361  -15.0386 O   0  0  0  0  0  0  0  0  0  0  0  0
  2  4  1  0
  2  1  1  1
  3  2  1  0
  4  5  2  0
  6  7  1  0
  6  4  1  0
  7  8  1  6
  9  8  1  0
 10  9  2  0
 11 12  1  0
 11 10  1  0
 12 13  2  0
 13  9  1  0
 14 15  2  0
 14  7  1  0
 16 14  1  0
 17 16  1  0
 17 23  1  0
 17 18  1  1
 19 20  1  0
 19 18  1  0
 21 20  1  0
 22 21  1  0
 23 25  2  0
 23 24  1  0
M  END
$$$$
