AHK.pdb
     RDKit          3D

 25 25  0  0  1  0  0  0  0  0999 V2000
   22.3585  -20.0775  -18.2008 C   0  0  0  0  0  0  0  0  0  0  0  0
   22.5606  -19.3935  -16.8860 C   0  0  2  0  0  0  0  0  0  0  0  0
   23.0077  -18.0377  -17.1396 N   0  0  0  0  0  0  0  0  0  0  0  0
   23.6405  -20.0936  -16.1323 C   0  0  0  0  0  0  0  0  0  0  0  0
   23.5626  -21.3442  -15.9159 O   0  0  0  0  0  0  0  0  0  0  0  0
   24.7212  -19.3183  -15.6862 N   0  0  0  0  0  0  0  0  0  0  0  0
   25.8399  -19.9556  -14.9617 C   0  0  1  0  0  0  0  0  0  0  0  0
   27.1289  -19.3335  -15.3825 C   0  0  0  0  0  0  0  0  0  0  0  0
   27.7008  -19.7759  -16.6450 C   0  0  0  0  0  0  0  0  0  0  0  0
   27.3299  -20.6509  -17.6205 C   0  0  0  0  0  0  0  0  0  0  0  0
   28.2400  -20.6260  -18.6296 N   0  0  0  0  0  0  0  0  0  0  0  0
   29.1689  -19.7489  -18.2968 C   0  0  0  0  0  0  0  0  0  0  0  0
   28.8712  -19.2202  -17.1067 N   0  0  0  0  0  0  0  0  0  0  0  0
   25.5389  -19.6641  -13.5161 C   0  0  0  0  0  0  0  0  0  0  0  0
   25.1225  -18.5342  -13.1697 O   0  0  0  0  0  0  0  0  0  0  0  0
   25.7264  -20.6680  -12.5404 N   0  0  0  0  0  0  0  0  0  0  0  0
   25.4103  -20.4238  -11.1158 C   0  0  1  0  0  0  0  0  0  0  0  0
   24.2195  -21.2444  -10.7097 C   0  0  0  0  0  0  0  0  0  0  0  0
   23.8358  -20.9784   -9.2855 C   0  0  0  0  0  0  0  0  0  0  0  0
   22.6392  -21.7671   -8.8713 C   0  0  0  0  0  0  0  0  0  0  0  0
   22.2209  -21.4631   -7.4413 C   0  0  0  0  0  0  0  0  0  0  0  0
   20.9879  -22.1891   -7.1817 N   0  0  0  0  0  0  0  0  0  0  0  0
   26.6121  -20.6420  -10.2858 C   0  0  0  0  0  0  0  0  0  0  0  0
   27.6458  -21.4049  -10.8128 O   0  0  0  0  0  0  0  0  0  0  0  0
   26.7928  -20.1966   -9.1296 O   0  0  0  0  0  0  0  0  0  0  0  0
  2  4  1  0
  2  1  1  6
  3  2  1  0
  4  5  2  0
  6  7  1  0
  6  4  1  0
  7  8  1  6
  9  8  1  0
 10  9  2  0
 11 12  1  0
 11 10  1  0
 12 13  2  0
 13  9  1  0
 14 15  2  0
 14  7  1  0
 16 14  1  0
 17 16  1  0
 17 23  1  0
 17 18  1  1
 19 20  1  0
 19 18  1  0
 21 20  1  0
 22 21  1  0
 23 25  2  0
 23 24  1  0
M  END
$$$$
