AHK.pdb
     RDKit          3D

 25 25  0  0  1  0  0  0  0  0999 V2000
   12.2087   -9.2053   -9.6761 C   0  0  0  0  0  0  0  0  0  0  0  0
   12.3488   -9.7059  -11.0787 C   0  0  2  0  0  0  0  0  0  0  0  0
   12.3052  -11.1550  -11.0537 N   0  0  0  0  0  0  0  0  0  0  0  0
   13.6821   -9.3014  -11.6105 C   0  0  0  0  0  0  0  0  0  0  0  0
   14.7247   -9.9539  -11.2880 O   0  0  0  0  0  0  0  0  0  0  0  0
   13.7241   -8.1900  -12.4657 N   0  0  0  0  0  0  0  0  0  0  0  0
   14.9962   -7.7964  -13.1057 C   0  0  1  0  0  0  0  0  0  0  0  0
   15.1461   -8.5128  -14.4055 C   0  0  0  0  0  0  0  0  0  0  0  0
   15.6850   -9.8636  -14.3629 C   0  0  0  0  0  0  0  0  0  0  0  0
   16.1277  -10.6974  -13.3812 C   0  0  0  0  0  0  0  0  0  0  0  0
   16.4749  -11.8962  -13.9193 N   0  0  0  0  0  0  0  0  0  0  0  0
   16.2535  -11.8204  -15.2186 C   0  0  0  0  0  0  0  0  0  0  0  0
   15.7773  -10.6083  -15.5157 N   0  0  0  0  0  0  0  0  0  0  0  0
   14.8452   -6.3134  -13.3135 C   0  0  0  0  0  0  0  0  0  0  0  0
   13.7133   -5.8112  -13.5056 O   0  0  0  0  0  0  0  0  0  0  0  0
   15.9844   -5.4789  -13.2935 N   0  0  0  0  0  0  0  0  0  0  0  0
   15.8574   -4.0062  -13.2295 C   0  0  1  0  0  0  0  0  0  0  0  0
   15.0332   -3.6168  -12.0355 C   0  0  0  0  0  0  0  0  0  0  0  0
   14.9747   -2.1276  -11.8772 C   0  0  0  0  0  0  0  0  0  0  0  0
   14.1548   -1.7216  -10.6989 C   0  0  0  0  0  0  0  0  0  0  0  0
   13.9456   -0.2165  -10.6392 C   0  0  0  0  0  0  0  0  0  0  0  0
   13.1798    0.0720   -9.4371 N   0  0  0  0  0  0  0  0  0  0  0  0
   17.1941   -3.3800  -13.2773 C   0  0  0  0  0  0  0  0  0  0  0  0
   18.3070   -4.1908  -13.0978 O   0  0  0  0  0  0  0  0  0  0  0  0
   17.4255   -2.1643  -13.4678 O   0  0  0  0  0  0  0  0  0  0  0  0
  2  4  1  0
  2  1  1  1
  3  2  1  0
  4  5  2  0
  6  7  1  0
  6  4  1  0
  7  8  1  6
  9  8  1  0
 10  9  2  0
 11 12  1  0
 11 10  1  0
 12 13  2  0
 13  9  1  0
 14 15  2  0
 14  7  1  0
 16 14  1  0
 17 16  1  0
 17 23  1  0
 17 18  1  1
 19 20  1  0
 19 18  1  0
 21 20  1  0
 22 21  1  0
 23 25  2  0
 23 24  1  0
M  END
$$$$
