AHK.pdb
     RDKit          3D

 25 25  0  0  1  0  0  0  0  0999 V2000
   26.9172  -20.2200  -18.7900 C   0  0  0  0  0  0  0  0  0  0  0  0
   25.6303  -19.8114  -18.1461 C   0  0  2  0  0  0  0  0  0  0  0  0
   25.7464  -18.4275  -17.7296 N   0  0  0  0  0  0  0  0  0  0  0  0
   25.4129  -20.6365  -16.9229 C   0  0  0  0  0  0  0  0  0  0  0  0
   26.2109  -21.5854  -16.6407 O   0  0  0  0  0  0  0  0  0  0  0  0
   24.3083  -20.3174  -16.1190 N   0  0  0  0  0  0  0  0  0  0  0  0
   24.1792  -20.9078  -14.7708 C   0  0  1  0  0  0  0  0  0  0  0  0
   25.0806  -20.1920  -13.8217 C   0  0  0  0  0  0  0  0  0  0  0  0
   24.9406  -20.5035  -12.4074 C   0  0  0  0  0  0  0  0  0  0  0  0
   24.2479  -21.4269  -11.6847 C   0  0  0  0  0  0  0  0  0  0  0  0
   24.5413  -21.2908  -10.3647 N   0  0  0  0  0  0  0  0  0  0  0  0
   25.4058  -20.2989  -10.2566 C   0  0  0  0  0  0  0  0  0  0  0  0
   25.6657  -19.8050  -11.4702 N   0  0  0  0  0  0  0  0  0  0  0  0
   22.7319  -20.6853  -14.4228 C   0  0  0  0  0  0  0  0  0  0  0  0
   22.1672  -19.6058  -14.7157 O   0  0  0  0  0  0  0  0  0  0  0  0
   22.0022  -21.6973  -13.7608 N   0  0  0  0  0  0  0  0  0  0  0  0
   20.5791  -21.5093  -13.4024 C   0  0  1  0  0  0  0  0  0  0  0  0
   20.0017  -22.8056  -12.9099 C   0  0  0  0  0  0  0  0  0  0  0  0
   18.5425  -22.6672  -12.5971 C   0  0  0  0  0  0  0  0  0  0  0  0
   17.9247  -23.9713  -12.2188 C   0  0  0  0  0  0  0  0  0  0  0  0
   16.4622  -23.8201  -11.8309 C   0  0  0  0  0  0  0  0  0  0  0  0
   15.9514  -25.1461  -11.5221 N   0  0  0  0  0  0  0  0  0  0  0  0
   20.4393  -20.3825  -12.4580 C   0  0  0  0  0  0  0  0  0  0  0  0
   19.3644  -19.5184  -12.6197 O   0  0  0  0  0  0  0  0  0  0  0  0
   21.2118  -20.1258  -11.5066 O   0  0  0  0  0  0  0  0  0  0  0  0
  2  4  1  0
  2  1  1  1
  3  2  1  0
  4  5  2  0
  6  7  1  0
  6  4  1  0
  7  8  1  1
  9  8  1  0
 10  9  2  0
 11 12  1  0
 11 10  1  0
 12 13  2  0
 13  9  1  0
 14 15  2  0
 14  7  1  0
 16 14  1  0
 17 16  1  0
 17 23  1  0
 17 18  1  1
 19 20  1  0
 19 18  1  0
 21 20  1  0
 22 21  1  0
 23 25  2  0
 23 24  1  0
M  END
$$$$
