AHK.pdb
     RDKit          3D

 25 25  0  0  1  0  0  0  0  0999 V2000
   21.8723   -8.1579  -22.9138 C   0  0  0  0  0  0  0  0  0  0  0  0
   21.6354   -7.1557  -21.8289 C   0  0  2  0  0  0  0  0  0  0  0  0
   22.7597   -7.1973  -20.9142 N   0  0  0  0  0  0  0  0  0  0  0  0
   20.4146   -7.5428  -21.0647 C   0  0  0  0  0  0  0  0  0  0  0  0
   19.2847   -7.5927  -21.6459 O   0  0  0  0  0  0  0  0  0  0  0  0
   20.5750   -7.8427  -19.7036 N   0  0  0  0  0  0  0  0  0  0  0  0
   19.4121   -8.2680  -18.8976 C   0  0  1  0  0  0  0  0  0  0  0  0
   19.7594   -9.4965  -18.1259 C   0  0  0  0  0  0  0  0  0  0  0  0
   19.3981  -10.7770  -18.7148 C   0  0  0  0  0  0  0  0  0  0  0  0
   18.8319  -11.1766  -19.8872 C   0  0  0  0  0  0  0  0  0  0  0  0
   18.7802  -12.5339  -19.9327 N   0  0  0  0  0  0  0  0  0  0  0  0
   19.3063  -12.9832  -18.8083 C   0  0  0  0  0  0  0  0  0  0  0  0
   19.6879  -11.9484  -18.0546 N   0  0  0  0  0  0  0  0  0  0  0  0
   19.1679   -7.0986  -17.9820 C   0  0  0  0  0  0  0  0  0  0  0  0
   20.1308   -6.4679  -17.4871 O   0  0  0  0  0  0  0  0  0  0  0  0
   17.8460   -6.7070  -17.6756 N   0  0  0  0  0  0  0  0  0  0  0  0
   17.5685   -5.4764  -16.9026 C   0  0  1  0  0  0  0  0  0  0  0  0
   16.1570   -5.0261  -17.1498 C   0  0  0  0  0  0  0  0  0  0  0  0
   15.8582   -3.7494  -16.4238 C   0  0  0  0  0  0  0  0  0  0  0  0
   14.4326   -3.3378  -16.5783 C   0  0  0  0  0  0  0  0  0  0  0  0
   14.1442   -2.0088  -15.8980 C   0  0  0  0  0  0  0  0  0  0  0  0
   12.7108   -1.7777  -15.9778 N   0  0  0  0  0  0  0  0  0  0  0  0
   17.9002   -5.6870  -15.4790 C   0  0  0  0  0  0  0  0  0  0  0  0
   18.3531   -4.6011  -14.7415 O   0  0  0  0  0  0  0  0  0  0  0  0
   17.8106   -6.7719  -14.8602 O   0  0  0  0  0  0  0  0  0  0  0  0
  2  4  1  0
  2  1  1  6
  3  2  1  0
  4  5  2  0
  6  7  1  0
  6  4  1  0
  7  8  1  1
  9  8  1  0
 10  9  2  0
 11 12  1  0
 11 10  1  0
 12 13  2  0
 13  9  1  0
 14 15  2  0
 14  7  1  0
 16 14  1  0
 17 16  1  0
 17 23  1  0
 17 18  1  1
 19 20  1  0
 19 18  1  0
 21 20  1  0
 22 21  1  0
 23 25  2  0
 23 24  1  0
M  END
$$$$
