AHK.pdb
     RDKit          3D

 25 25  0  0  1  0  0  0  0  0999 V2000
   33.7319  -34.5151   -6.7960 C   0  0  0  0  0  0  0  0  0  0  0  0
   33.1960  -35.2578   -5.6134 C   0  0  2  0  0  0  0  0  0  0  0  0
   32.9215  -36.6232   -6.0167 N   0  0  0  0  0  0  0  0  0  0  0  0
   31.9048  -34.6407   -5.1934 C   0  0  0  0  0  0  0  0  0  0  0  0
   31.8172  -34.0361   -4.0783 O   0  0  0  0  0  0  0  0  0  0  0  0
   30.8184  -34.7590   -6.0731 N   0  0  0  0  0  0  0  0  0  0  0  0
   29.5524  -34.0542   -5.7845 C   0  0  1  0  0  0  0  0  0  0  0  0
   28.8631  -33.7176   -7.0640 C   0  0  0  0  0  0  0  0  0  0  0  0
   27.5051  -33.2034   -6.9734 C   0  0  0  0  0  0  0  0  0  0  0  0
   26.6310  -32.9552   -5.9589 C   0  0  0  0  0  0  0  0  0  0  0  0
   25.4910  -32.4094   -6.4586 N   0  0  0  0  0  0  0  0  0  0  0  0
   25.6439  -32.3138   -7.7664 C   0  0  0  0  0  0  0  0  0  0  0  0
   26.8472  -32.7839   -8.1061 N   0  0  0  0  0  0  0  0  0  0  0  0
   28.7625  -35.0555   -4.9854 C   0  0  0  0  0  0  0  0  0  0  0  0
   28.8427  -36.2790   -5.2436 O   0  0  0  0  0  0  0  0  0  0  0  0
   27.9236  -34.6171   -3.9372 N   0  0  0  0  0  0  0  0  0  0  0  0
   27.3253  -35.5739   -2.9802 C   0  0  1  0  0  0  0  0  0  0  0  0
   28.4029  -36.4188   -2.3626 C   0  0  0  0  0  0  0  0  0  0  0  0
   27.8371  -37.3666   -1.3488 C   0  0  0  0  0  0  0  0  0  0  0  0
   28.8964  -38.1983   -0.7074 C   0  0  0  0  0  0  0  0  0  0  0  0
   28.3152  -39.2211    0.2562 C   0  0  0  0  0  0  0  0  0  0  0  0
   29.4289  -39.9109    0.8873 N   0  0  0  0  0  0  0  0  0  0  0  0
   26.4816  -34.8542   -2.0050 C   0  0  0  0  0  0  0  0  0  0  0  0
   26.5340  -33.4666   -1.9877 O   0  0  0  0  0  0  0  0  0  0  0  0
   25.7079  -35.3847   -1.1756 O   0  0  0  0  0  0  0  0  0  0  0  0
  2  4  1  0
  2  1  1  6
  3  2  1  0
  4  5  2  0
  6  7  1  0
  6  4  1  0
  7  8  1  6
  9  8  1  0
 10  9  2  0
 11 12  1  0
 11 10  1  0
 12 13  2  0
 13  9  1  0
 14 15  2  0
 14  7  1  0
 16 14  1  0
 17 16  1  0
 17 23  1  0
 17 18  1  1
 19 20  1  0
 19 18  1  0
 21 20  1  0
 22 21  1  0
 23 25  2  0
 23 24  1  0
M  END
$$$$
