NPF.pdb
     RDKit          3D

 27 28  0  0  1  0  0  0  0  0999 V2000
   11.6378  -14.7503   20.9120 N   0  0  0  0  0  0  0  0  0  0  0  0
   11.3974  -14.2033   19.6221 C   0  0  0  0  0  0  0  0  0  0  0  0
   11.9933  -13.1310   19.2985 O   0  0  0  0  0  0  0  0  0  0  0  0
   10.4908  -14.7997   18.6192 C   0  0  0  0  0  0  0  0  0  0  0  0
    9.1151  -14.1658   18.6272 C   0  0  2  0  0  0  0  0  0  0  0  0
    9.1499  -12.7817   18.2499 N   0  0  0  0  0  0  0  0  0  0  0  0
    8.4467  -14.3631   19.9400 C   0  0  0  0  0  0  0  0  0  0  0  0
    8.2255  -13.3369   20.6838 O   0  0  0  0  0  0  0  0  0  0  0  0
    8.0199  -15.6108   20.4600 N   0  0  0  0  0  0  0  0  0  0  0  0
    8.2227  -16.9608   19.9806 C   0  0  0  0  0  0  0  0  0  0  0  0
    6.9090  -17.6827   20.3359 C   0  0  0  0  0  0  0  0  0  0  0  0
    6.2708  -16.8368   21.3697 C   0  0  0  0  0  0  0  0  0  0  0  0
    7.2626  -15.7662   21.6867 C   0  0  1  0  0  0  0  0  0  0  0  0
    8.1962  -16.1002   22.7917 C   0  0  0  0  0  0  0  0  0  0  0  0
    9.2299  -16.8012   22.5166 O   0  0  0  0  0  0  0  0  0  0  0  0
    8.0449  -15.7114   24.1252 N   0  0  0  0  0  0  0  0  0  0  0  0
    9.1264  -15.7382   25.1252 C   0  0  1  0  0  0  0  0  0  0  0  0
    9.5280  -14.3203   25.4451 C   0  0  0  0  0  0  0  0  0  0  0  0
    8.3480  -13.5608   25.9078 C   0  0  0  0  0  0  0  0  0  0  0  0
    7.4606  -13.0592   24.9481 C   0  0  0  0  0  0  0  0  0  0  0  0
    6.3218  -12.3587   25.2708 C   0  0  0  0  0  0  0  0  0  0  0  0
    6.0790  -12.1635   26.6063 C   0  0  0  0  0  0  0  0  0  0  0  0
    6.9390  -12.6478   27.5889 C   0  0  0  0  0  0  0  0  0  0  0  0
    8.0712  -13.3440   27.2622 C   0  0  0  0  0  0  0  0  0  0  0  0
    8.7481  -16.5213   26.2939 C   0  0  0  0  0  0  0  0  0  0  0  0
    7.5778  -16.9179   26.4631 O   0  0  0  0  0  0  0  0  0  0  0  0
    9.6979  -16.8416   27.2486 O   0  0  0  0  0  0  0  0  0  0  0  0
  2  1  1  0
  3  2  2  0
  4  2  1  0
  5  4  1  0
  5  6  1  1
  7  5  1  0
  7  8  2  0
  9  7  1  0
 10  9  1  0
 11 10  1  0
 12 11  1  0
 12 13  1  0
 13  9  1  0
 13 14  1  1
 15 14  2  0
 16 14  1  0
 17 16  1  0
 17 25  1  0
 17 18  1  1
 19 18  1  0
 20 19  2  0
 21 20  1  0
 22 21  2  0
 22 23  1  0
 23 24  2  0
 24 19  1  0
 25 27  1  0
 26 25  2  0
M  END
$$$$
