NPF.pdb
     RDKit          3D

 27 28  0  0  1  0  0  0  0  0999 V2000
    9.1327  -20.1804   16.9227 N   0  0  0  0  0  0  0  0  0  0  0  0
    9.8097  -20.0839   18.1690 C   0  0  0  0  0  0  0  0  0  0  0  0
   10.7264  -20.9223   18.4265 O   0  0  0  0  0  0  0  0  0  0  0  0
    9.5177  -19.0664   19.2000 C   0  0  0  0  0  0  0  0  0  0  0  0
    8.4360  -18.0964   18.7717 C   0  0  2  0  0  0  0  0  0  0  0  0
    8.8366  -17.2915   17.6532 N   0  0  0  0  0  0  0  0  0  0  0  0
    7.9850  -17.2636   19.9173 C   0  0  0  0  0  0  0  0  0  0  0  0
    8.4266  -16.0597   20.0206 O   0  0  0  0  0  0  0  0  0  0  0  0
    7.0898  -17.6862   20.9319 N   0  0  0  0  0  0  0  0  0  0  0  0
    6.5104  -18.9825   21.2099 C   0  0  0  0  0  0  0  0  0  0  0  0
    5.0938  -18.6550   21.7188 C   0  0  0  0  0  0  0  0  0  0  0  0
    5.1460  -17.2300   22.1165 C   0  0  0  0  0  0  0  0  0  0  0  0
    6.5758  -16.8221   21.9766 C   0  0  1  0  0  0  0  0  0  0  0  0
    7.3917  -17.0089   23.2029 C   0  0  0  0  0  0  0  0  0  0  0  0
    7.9788  -18.1325   23.3712 O   0  0  0  0  0  0  0  0  0  0  0  0
    7.5786  -16.0529   24.2047 N   0  0  0  0  0  0  0  0  0  0  0  0
    8.6837  -16.0769   25.1787 C   0  0  1  0  0  0  0  0  0  0  0  0
    9.1629  -14.6652   25.4051 C   0  0  0  0  0  0  0  0  0  0  0  0
    8.0607  -13.8467   25.9513 C   0  0  0  0  0  0  0  0  0  0  0  0
    7.9201  -13.7616   27.3417 C   0  0  0  0  0  0  0  0  0  0  0  0
    6.9437  -13.0109   27.9539 C   0  0  0  0  0  0  0  0  0  0  0  0
    6.0872  -12.3278   27.1291 C   0  0  0  0  0  0  0  0  0  0  0  0
    6.1965  -12.3886   25.7420 C   0  0  0  0  0  0  0  0  0  0  0  0
    7.1699  -13.1374   25.1379 C   0  0  0  0  0  0  0  0  0  0  0  0
    8.2983  -16.7714   26.4000 C   0  0  0  0  0  0  0  0  0  0  0  0
    9.1245  -17.0111   27.3031 O   0  0  0  0  0  0  0  0  0  0  0  0
    6.9883  -17.1815   26.5782 O   0  0  0  0  0  0  0  0  0  0  0  0
  2  1  1  0
  3  2  2  0
  4  2  1  0
  5  4  1  0
  5  6  1  6
  7  5  1  0
  7  8  2  0
  9  7  1  0
 10  9  1  0
 11 10  1  0
 12 11  1  0
 12 13  1  0
 13  9  1  0
 13 14  1  1
 15 14  2  0
 16 14  1  0
 17 16  1  0
 17 25  1  0
 17 18  1  1
 19 18  1  0
 20 19  2  0
 21 20  1  0
 22 21  2  0
 22 23  1  0
 23 24  2  0
 24 19  1  0
 25 27  1  0
 26 25  2  0
M  END
$$$$
