NPF.pdb
     RDKit          3D

 27 28  0  0  1  0  0  0  0  0999 V2000
   11.0159  -13.0123   19.7372 N   0  0  0  0  0  0  0  0  0  0  0  0
   11.0691  -14.2887   19.1135 C   0  0  0  0  0  0  0  0  0  0  0  0
   12.1372  -14.9663   19.2117 O   0  0  0  0  0  0  0  0  0  0  0  0
    9.9574  -14.8897   18.3479 C   0  0  0  0  0  0  0  0  0  0  0  0
    8.6580  -14.1290   18.5127 C   0  0  2  0  0  0  0  0  0  0  0  0
    8.8010  -12.7331   18.2116 N   0  0  0  0  0  0  0  0  0  0  0  0
    8.0835  -14.3453   19.8664 C   0  0  0  0  0  0  0  0  0  0  0  0
    7.8657  -13.3242   20.6181 O   0  0  0  0  0  0  0  0  0  0  0  0
    7.7452  -15.6064   20.4182 N   0  0  0  0  0  0  0  0  0  0  0  0
    8.0010  -16.9504   19.9473 C   0  0  0  0  0  0  0  0  0  0  0  0
    6.7431  -17.7359   20.3640 C   0  0  0  0  0  0  0  0  0  0  0  0
    6.1019  -16.9105   21.4124 C   0  0  0  0  0  0  0  0  0  0  0  0
    7.0466  -15.7843   21.6762 C   0  0  1  0  0  0  0  0  0  0  0  0
    8.0398  -16.0524   22.7467 C   0  0  0  0  0  0  0  0  0  0  0  0
    9.1073  -16.6839   22.4344 O   0  0  0  0  0  0  0  0  0  0  0  0
    7.9114  -15.6710   24.0847 N   0  0  0  0  0  0  0  0  0  0  0  0
    9.0008  -15.7360   25.0743 C   0  0  1  0  0  0  0  0  0  0  0  0
    9.4699  -14.3345   25.3736 C   0  0  0  0  0  0  0  0  0  0  0  0
    8.3208  -13.5017   25.7846 C   0  0  0  0  0  0  0  0  0  0  0  0
    8.1305  -13.2566   27.1499 C   0  0  0  0  0  0  0  0  0  0  0  0
    7.1073  -12.4780   27.6382 C   0  0  0  0  0  0  0  0  0  0  0  0
    6.2545  -11.9338   26.7124 C   0  0  0  0  0  0  0  0  0  0  0  0
    6.4125  -12.1557   25.3466 C   0  0  0  0  0  0  0  0  0  0  0  0
    7.4325  -12.9315   24.8660 C   0  0  0  0  0  0  0  0  0  0  0  0
    8.5991  -16.4878   26.2557 C   0  0  0  0  0  0  0  0  0  0  0  0
    7.4116  -16.8180   26.4469 O   0  0  0  0  0  0  0  0  0  0  0  0
    9.5453  -16.8521   27.1981 O   0  0  0  0  0  0  0  0  0  0  0  0
  2  1  1  0
  3  2  2  0
  4  2  1  0
  5  4  1  0
  5  6  1  1
  7  5  1  0
  7  8  2  0
  9  7  1  0
 10  9  1  0
 11 10  1  0
 12 11  1  0
 12 13  1  0
 13  9  1  0
 13 14  1  1
 15 14  2  0
 16 14  1  0
 17 16  1  0
 17 25  1  0
 17 18  1  1
 19 18  1  0
 20 19  2  0
 21 20  1  0
 22 21  2  0
 22 23  1  0
 23 24  2  0
 24 19  1  0
 25 27  1  0
 26 25  2  0
M  END
$$$$
