NPF.pdb
     RDKit          3D

 27 28  0  0  1  0  0  0  0  0999 V2000
    9.7831  -12.9379   17.5100 N   0  0  0  0  0  0  0  0  0  0  0  0
   10.5067  -13.1489   18.7153 C   0  0  0  0  0  0  0  0  0  0  0  0
   11.7381  -12.8447   18.7433 O   0  0  0  0  0  0  0  0  0  0  0  0
    9.9216  -13.7056   19.9527 C   0  0  0  0  0  0  0  0  0  0  0  0
    8.4390  -13.9866   19.8212 C   0  0  2  0  0  0  0  0  0  0  0  0
    7.6850  -12.8050   19.5130 N   0  0  0  0  0  0  0  0  0  0  0  0
    7.9186  -14.6727   21.0327 C   0  0  0  0  0  0  0  0  0  0  0  0
    7.0482  -14.0681   21.7621 O   0  0  0  0  0  0  0  0  0  0  0  0
    8.3039  -15.9654   21.4682 N   0  0  0  0  0  0  0  0  0  0  0  0
    9.3485  -16.8532   21.0054 C   0  0  0  0  0  0  0  0  0  0  0  0
    8.7357  -18.2584   21.1559 C   0  0  0  0  0  0  0  0  0  0  0  0
    7.6056  -18.0884   22.0969 C   0  0  0  0  0  0  0  0  0  0  0  0
    7.6807  -16.6736   22.5692 C   0  0  1  0  0  0  0  0  0  0  0  0
    8.4964  -16.4764   23.7940 C   0  0  0  0  0  0  0  0  0  0  0  0
    9.7655  -16.3853   23.6649 O   0  0  0  0  0  0  0  0  0  0  0  0
    7.9947  -16.3798   25.0944 N   0  0  0  0  0  0  0  0  0  0  0  0
    8.8103  -16.0500   26.2761 C   0  0  1  0  0  0  0  0  0  0  0  0
    7.9223  -15.4196   27.3192 C   0  0  0  0  0  0  0  0  0  0  0  0
    7.3648  -14.1538   26.7996 C   0  0  0  0  0  0  0  0  0  0  0  0
    8.1654  -13.0061   26.8427 C   0  0  0  0  0  0  0  0  0  0  0  0
    7.7530  -11.7835   26.3663 C   0  0  0  0  0  0  0  0  0  0  0  0
    6.4917  -11.7271   25.8311 C   0  0  0  0  0  0  0  0  0  0  0  0
    5.6670  -12.8479   25.7713 C   0  0  0  0  0  0  0  0  0  0  0  0
    6.0824  -14.0621   26.2471 C   0  0  0  0  0  0  0  0  0  0  0  0
    9.5458  -17.2133   26.7536 C   0  0  0  0  0  0  0  0  0  0  0  0
   10.4133  -17.1168   27.6446 O   0  0  0  0  0  0  0  0  0  0  0  0
    9.2880  -18.4627   26.2163 O   0  0  0  0  0  0  0  0  0  0  0  0
  2  1  1  0
  3  2  2  0
  4  2  1  0
  5  4  1  0
  5  6  1  1
  7  5  1  0
  7  8  2  0
  9  7  1  0
 10  9  1  0
 11 10  1  0
 12 11  1  0
 12 13  1  0
 13  9  1  0
 13 14  1  1
 15 14  2  0
 16 14  1  0
 17 16  1  0
 17 25  1  0
 17 18  1  1
 19 18  1  0
 20 19  2  0
 21 20  1  0
 22 21  2  0
 22 23  1  0
 23 24  2  0
 24 19  1  0
 25 27  1  0
 26 25  2  0
M  END
$$$$
