NPF.pdb
     RDKit          3D

 27 28  0  0  1  0  0  0  0  0999 V2000
    3.2191  -18.6677   20.4158 N   0  0  0  0  0  0  0  0  0  0  0  0
    3.5869  -17.9877   21.6088 C   0  0  0  0  0  0  0  0  0  0  0  0
    2.8128  -18.0624   22.6113 O   0  0  0  0  0  0  0  0  0  0  0  0
    4.8196  -17.1886   21.7670 C   0  0  0  0  0  0  0  0  0  0  0  0
    5.6914  -17.2107   20.5286 C   0  0  2  0  0  0  0  0  0  0  0  0
    5.6421  -18.4737   19.8490 N   0  0  0  0  0  0  0  0  0  0  0  0
    7.0864  -16.8132   20.8534 C   0  0  0  0  0  0  0  0  0  0  0  0
    8.0317  -17.6681   20.6780 O   0  0  0  0  0  0  0  0  0  0  0  0
    7.4796  -15.5456   21.3514 N   0  0  0  0  0  0  0  0  0  0  0  0
    6.6966  -14.4251   21.8256 C   0  0  0  0  0  0  0  0  0  0  0  0
    7.4940  -13.1916   21.3616 C   0  0  0  0  0  0  0  0  0  0  0  0
    8.8565  -13.6965   21.0782 C   0  0  0  0  0  0  0  0  0  0  0  0
    8.8579  -15.1253   21.5125 C   0  0  1  0  0  0  0  0  0  0  0  0
    9.2662  -15.3389   22.9239 C   0  0  0  0  0  0  0  0  0  0  0  0
   10.4341  -14.9565   23.2782 O   0  0  0  0  0  0  0  0  0  0  0  0
    8.4773  -15.9287   23.9149 N   0  0  0  0  0  0  0  0  0  0  0  0
    8.9283  -16.1790   25.2949 C   0  0  1  0  0  0  0  0  0  0  0  0
    9.2616  -14.8595   25.9442 C   0  0  0  0  0  0  0  0  0  0  0  0
    8.0325  -14.0531   26.0933 C   0  0  0  0  0  0  0  0  0  0  0  0
    6.8292  -14.5768   25.6054 C   0  0  0  0  0  0  0  0  0  0  0  0
    5.6256  -13.9199   25.7121 C   0  0  0  0  0  0  0  0  0  0  0  0
    5.6466  -12.6970   26.3323 C   0  0  0  0  0  0  0  0  0  0  0  0
    6.8243  -12.1445   26.8299 C   0  0  0  0  0  0  0  0  0  0  0  0
    8.0195  -12.8024   26.7208 C   0  0  0  0  0  0  0  0  0  0  0  0
    7.9547  -16.9706   26.0350 C   0  0  0  0  0  0  0  0  0  0  0  0
    6.8572  -17.2892   25.5356 O   0  0  0  0  0  0  0  0  0  0  0  0
    8.2389  -17.3872   27.3241 O   0  0  0  0  0  0  0  0  0  0  0  0
  2  1  1  0
  3  2  2  0
  4  2  1  0
  5  4  1  0
  5  6  1  1
  7  5  1  0
  7  8  2  0
  9  7  1  0
 10  9  1  0
 11 10  1  0
 12 11  1  0
 12 13  1  0
 13  9  1  0
 13 14  1  1
 15 14  2  0
 16 14  1  0
 17 16  1  0
 17 25  1  0
 17 18  1  1
 19 18  1  0
 20 19  2  0
 21 20  1  0
 22 21  2  0
 22 23  1  0
 23 24  2  0
 24 19  1  0
 25 27  1  0
 26 25  2  0
M  END
$$$$
