NPF.pdb
     RDKit          3D

 27 28  0  0  1  0  0  0  0  0999 V2000
    8.6363  -16.6322   17.8768 N   0  0  0  0  0  0  0  0  0  0  0  0
    9.2465  -15.7989   18.8536 C   0  0  0  0  0  0  0  0  0  0  0  0
   10.4226  -15.3746   18.6379 O   0  0  0  0  0  0  0  0  0  0  0  0
    8.6029  -15.3877   20.1185 C   0  0  0  0  0  0  0  0  0  0  0  0
    7.1930  -15.9238   20.2562 C   0  0  2  0  0  0  0  0  0  0  0  0
    6.2365  -15.1358   19.5326 N   0  0  0  0  0  0  0  0  0  0  0  0
    6.8175  -16.0705   21.6869 C   0  0  0  0  0  0  0  0  0  0  0  0
    6.1775  -15.1136   22.2613 O   0  0  0  0  0  0  0  0  0  0  0  0
    7.1078  -17.1975   22.4962 N   0  0  0  0  0  0  0  0  0  0  0  0
    7.8708  -18.3955   22.2205 C   0  0  0  0  0  0  0  0  0  0  0  0
    7.1182  -19.5000   22.9865 C   0  0  0  0  0  0  0  0  0  0  0  0
    6.2864  -18.7833   23.9795 C   0  0  0  0  0  0  0  0  0  0  0  0
    6.6755  -17.3455   23.8722 C   0  0  1  0  0  0  0  0  0  0  0  0
    7.7836  -16.9391   24.7731 C   0  0  0  0  0  0  0  0  0  0  0  0
    8.9807  -17.2191   24.4206 O   0  0  0  0  0  0  0  0  0  0  0  0
    7.6338  -16.2682   25.9895 N   0  0  0  0  0  0  0  0  0  0  0  0
    8.7549  -15.7836   26.8133 C   0  0  1  0  0  0  0  0  0  0  0  0
    8.2684  -14.6462   27.6756 C   0  0  0  0  0  0  0  0  0  0  0  0
    7.7043  -13.5801   26.8222 C   0  0  0  0  0  0  0  0  0  0  0  0
    8.4814  -13.0924   25.7647 C   0  0  0  0  0  0  0  0  0  0  0  0
    8.0445  -12.1181   24.8978 C   0  0  0  0  0  0  0  0  0  0  0  0
    6.7823  -11.6268   25.1124 C   0  0  0  0  0  0  0  0  0  0  0  0
    5.9806  -12.0877   26.1539 C   0  0  0  0  0  0  0  0  0  0  0  0
    6.4205  -13.0573   27.0139 C   0  0  0  0  0  0  0  0  0  0  0  0
    9.3695  -16.8706   27.5636 C   0  0  0  0  0  0  0  0  0  0  0  0
   10.4427  -16.7138   28.1794 O   0  0  0  0  0  0  0  0  0  0  0  0
    8.7610  -18.1133   27.6041 O   0  0  0  0  0  0  0  0  0  0  0  0
  2  1  1  0
  3  2  2  0
  4  2  1  0
  5  4  1  0
  5  6  1  1
  7  5  1  0
  7  8  2  0
  9  7  1  0
 10  9  1  0
 11 10  1  0
 12 11  1  0
 12 13  1  0
 13  9  1  0
 13 14  1  1
 15 14  2  0
 16 14  1  0
 17 16  1  0
 17 25  1  0
 17 18  1  1
 19 18  1  0
 20 19  2  0
 21 20  1  0
 22 21  2  0
 22 23  1  0
 23 24  2  0
 24 19  1  0
 25 27  1  0
 26 25  2  0
M  END
$$$$
