NPF.pdb
     RDKit          3D

 27 28  0  0  1  0  0  0  0  0999 V2000
   10.8347  -14.1247   17.8452 N   0  0  0  0  0  0  0  0  0  0  0  0
   11.1000  -13.4632   19.0752 C   0  0  0  0  0  0  0  0  0  0  0  0
   12.2782  -13.0488   19.2979 O   0  0  0  0  0  0  0  0  0  0  0  0
   10.0905  -13.2221   20.1270 C   0  0  0  0  0  0  0  0  0  0  0  0
    8.7128  -13.7162   19.7367 C   0  0  2  0  0  0  0  0  0  0  0  0
    7.9240  -12.6942   19.1100 N   0  0  0  0  0  0  0  0  0  0  0  0
    8.0131  -14.3157   20.9031 C   0  0  0  0  0  0  0  0  0  0  0  0
    7.2493  -13.5683   21.6194 O   0  0  0  0  0  0  0  0  0  0  0  0
    8.1135  -15.6704   21.3079 N   0  0  0  0  0  0  0  0  0  0  0  0
    8.9348  -16.7533   20.8116 C   0  0  0  0  0  0  0  0  0  0  0  0
    8.0332  -17.9952   20.9456 C   0  0  0  0  0  0  0  0  0  0  0  0
    6.9782  -17.6046   21.9080 C   0  0  0  0  0  0  0  0  0  0  0  0
    7.3644  -16.2505   22.4055 C   0  0  1  0  0  0  0  0  0  0  0  0
    8.2179  -16.2618   23.6203 C   0  0  0  0  0  0  0  0  0  0  0  0
    9.4789  -16.4133   23.4698 O   0  0  0  0  0  0  0  0  0  0  0  0
    7.7606  -16.1194   24.9328 N   0  0  0  0  0  0  0  0  0  0  0  0
    8.6368  -16.0698   26.1161 C   0  0  1  0  0  0  0  0  0  0  0  0
    7.9168  -15.3433   27.2241 C   0  0  0  0  0  0  0  0  0  0  0  0
    7.4429  -14.0323   26.7344 C   0  0  0  0  0  0  0  0  0  0  0  0
    6.0631  -13.8034   26.6733 C   0  0  0  0  0  0  0  0  0  0  0  0
    5.5165  -12.6128   26.2543 C   0  0  0  0  0  0  0  0  0  0  0  0
    6.3978  -11.6282   25.8877 C   0  0  0  0  0  0  0  0  0  0  0  0
    7.7765  -11.8197   25.9355 C   0  0  0  0  0  0  0  0  0  0  0  0
    8.3151  -13.0067   26.3530 C   0  0  0  0  0  0  0  0  0  0  0  0
    9.1008  -17.3998   26.4878 C   0  0  0  0  0  0  0  0  0  0  0  0
    9.9769  -17.5656   27.3599 O   0  0  0  0  0  0  0  0  0  0  0  0
    8.5669  -18.5166   25.8681 O   0  0  0  0  0  0  0  0  0  0  0  0
  2  1  1  0
  3  2  2  0
  4  2  1  0
  5  4  1  0
  5  6  1  1
  7  5  1  0
  7  8  2  0
  9  7  1  0
 10  9  1  0
 11 10  1  0
 12 11  1  0
 12 13  1  0
 13  9  1  0
 13 14  1  1
 15 14  2  0
 16 14  1  0
 17 16  1  0
 17 25  1  0
 17 18  1  1
 19 18  1  0
 20 19  2  0
 21 20  1  0
 22 21  2  0
 22 23  1  0
 23 24  2  0
 24 19  1  0
 25 27  1  0
 26 25  2  0
M  END
$$$$
