NPF.pdb
     RDKit          3D

 27 28  0  0  1  0  0  0  0  0999 V2000
   11.4331  -14.7626   20.8706 N   0  0  0  0  0  0  0  0  0  0  0  0
   11.2986  -14.4071   19.5008 C   0  0  0  0  0  0  0  0  0  0  0  0
   12.0956  -13.5462   19.0177 O   0  0  0  0  0  0  0  0  0  0  0  0
   10.2837  -14.9731   18.5882 C   0  0  0  0  0  0  0  0  0  0  0  0
    8.9731  -14.2148   18.6317 C   0  0  2  0  0  0  0  0  0  0  0  0
    9.1309  -12.8322   18.2808 N   0  0  0  0  0  0  0  0  0  0  0  0
    8.3090  -14.3768   19.9515 C   0  0  0  0  0  0  0  0  0  0  0  0
    8.0767  -13.3294   20.6616 O   0  0  0  0  0  0  0  0  0  0  0  0
    7.8976  -15.6117   20.5128 N   0  0  0  0  0  0  0  0  0  0  0  0
    8.0918  -16.9730   20.0627 C   0  0  0  0  0  0  0  0  0  0  0  0
    6.7888  -17.6879   20.4678 C   0  0  0  0  0  0  0  0  0  0  0  0
    6.1738  -16.8173   21.4952 C   0  0  0  0  0  0  0  0  0  0  0  0
    7.1706  -15.7374   21.7610 C   0  0  1  0  0  0  0  0  0  0  0  0
    8.1314  -16.0419   22.8512 C   0  0  0  0  0  0  0  0  0  0  0  0
    9.1819  -16.7108   22.5598 O   0  0  0  0  0  0  0  0  0  0  0  0
    7.9892  -15.6574   24.1869 N   0  0  0  0  0  0  0  0  0  0  0  0
    9.0726  -15.7055   25.1841 C   0  0  1  0  0  0  0  0  0  0  0  0
    9.4989  -14.2956   25.5071 C   0  0  0  0  0  0  0  0  0  0  0  0
    8.3186  -13.4940   25.8911 C   0  0  0  0  0  0  0  0  0  0  0  0
    8.0414  -13.3272   27.2533 C   0  0  0  0  0  0  0  0  0  0  0  0
    6.9825  -12.5835   27.7193 C   0  0  0  0  0  0  0  0  0  0  0  0
    6.1839  -11.9930   26.7736 C   0  0  0  0  0  0  0  0  0  0  0  0
    6.4288  -12.1367   25.4102 C   0  0  0  0  0  0  0  0  0  0  0  0
    7.4839  -12.8783   24.9519 C   0  0  0  0  0  0  0  0  0  0  0  0
    8.6839  -16.4856   26.3514 C   0  0  0  0  0  0  0  0  0  0  0  0
    9.4835  -16.7113   27.2816 O   0  0  0  0  0  0  0  0  0  0  0  0
    7.4005  -16.9956   26.4461 O   0  0  0  0  0  0  0  0  0  0  0  0
  2  1  1  0
  3  2  2  0
  4  2  1  0
  5  4  1  0
  5  6  1  1
  7  5  1  0
  7  8  2  0
  9  7  1  0
 10  9  1  0
 11 10  1  0
 12 11  1  0
 12 13  1  0
 13  9  1  0
 13 14  1  1
 15 14  2  0
 16 14  1  0
 17 16  1  0
 17 25  1  0
 17 18  1  1
 19 18  1  0
 20 19  2  0
 21 20  1  0
 22 21  2  0
 22 23  1  0
 23 24  2  0
 24 19  1  0
 25 27  1  0
 26 25  2  0
M  END
$$$$
