EGG.pdb
     RDKit          3D

 18 17  0  0  1  0  0  0  0  0999 V2000
   -3.2462  -26.2703   29.0331 N   0  0  0  0  0  0  0  0  0  0  0  0
   -2.6700  -25.0579   28.4276 C   0  0  1  0  0  0  0  0  0  0  0  0
   -1.5706  -25.5196   27.5324 C   0  0  0  0  0  0  0  0  0  0  0  0
   -0.3711  -26.0821   28.2309 C   0  0  0  0  0  0  0  0  0  0  0  0
    0.4449  -26.9703   27.3692 C   0  0  0  0  0  0  0  0  0  0  0  0
    1.6626  -26.8418   27.1442 O   0  0  0  0  0  0  0  0  0  0  0  0
   -3.7523  -24.3475   27.7161 C   0  0  0  0  0  0  0  0  0  0  0  0
   -3.5658  -23.1634   27.3335 O   0  0  0  0  0  0  0  0  0  0  0  0
   -0.2091  -28.0348   26.7636 O   0  0  0  0  0  0  0  0  0  0  0  0
   -5.0141  -24.9338   27.4335 N   0  0  0  0  0  0  0  0  0  0  0  0
   -6.0853  -24.2661   26.7650 C   0  0  0  0  0  0  0  0  0  0  0  0
   -7.0215  -23.5881   27.6879 C   0  0  0  0  0  0  0  0  0  0  0  0
   -8.0362  -22.9744   27.3186 O   0  0  0  0  0  0  0  0  0  0  0  0
   -6.7305  -23.6506   29.0796 N   0  0  0  0  0  0  0  0  0  0  0  0
   -7.6380  -23.0878   30.0549 C   0  0  0  0  0  0  0  0  0  0  0  0
   -7.3120  -21.6679   30.2878 C   0  0  0  0  0  0  0  0  0  0  0  0
   -8.0214  -20.9160   31.2143 O   0  0  0  0  0  0  0  0  0  0  0  0
   -6.3842  -21.1105   29.6508 O   0  0  0  0  0  0  0  0  0  0  0  0
  2  1  1  6
  3  2  1  0
  4  3  1  0
  5  4  1  0
  5  6  2  0
  7  8  2  0
  7  2  1  0
  9  5  1  0
 10  7  1  0
 11 10  1  0
 12 11  1  0
 13 12  2  0
 14 12  1  0
 15 14  1  0
 16 15  1  0
 17 16  1  0
 18 16  2  0
M  END
$$$$
