EGG.pdb
     RDKit          3D

 18 17  0  0  1  0  0  0  0  0999 V2000
   11.0895  -16.7944   20.4246 N   0  0  0  0  0  0  0  0  0  0  0  0
   12.4439  -16.6010   20.9690 C   0  0  1  0  0  0  0  0  0  0  0  0
   12.9949  -15.3885   20.2986 C   0  0  0  0  0  0  0  0  0  0  0  0
   13.0640  -15.4601   18.8042 C   0  0  0  0  0  0  0  0  0  0  0  0
   13.5900  -14.2213   18.1827 C   0  0  0  0  0  0  0  0  0  0  0  0
   13.9136  -13.1858   18.7934 O   0  0  0  0  0  0  0  0  0  0  0  0
   12.3286  -16.4644   22.4354 C   0  0  0  0  0  0  0  0  0  0  0  0
   13.3491  -16.1692   23.1097 O   0  0  0  0  0  0  0  0  0  0  0  0
   13.7321  -14.2208   16.8016 O   0  0  0  0  0  0  0  0  0  0  0  0
   11.1109  -16.6501   23.1412 N   0  0  0  0  0  0  0  0  0  0  0  0
   10.9710  -16.5348   24.5580 C   0  0  0  0  0  0  0  0  0  0  0  0
   11.2369  -17.7987   25.2791 C   0  0  0  0  0  0  0  0  0  0  0  0
   11.5537  -18.8619   24.7205 O   0  0  0  0  0  0  0  0  0  0  0  0
   11.1194  -17.7815   26.6972 N   0  0  0  0  0  0  0  0  0  0  0  0
   11.4270  -18.9560   27.4830 C   0  0  0  0  0  0  0  0  0  0  0  0
   11.1779  -18.6870   28.9121 C   0  0  0  0  0  0  0  0  0  0  0  0
   11.4134  -19.6610   29.8728 O   0  0  0  0  0  0  0  0  0  0  0  0
   10.7469  -17.5689   29.2881 O   0  0  0  0  0  0  0  0  0  0  0  0
  2  1  1  6
  3  2  1  0
  4  3  1  0
  5  4  1  0
  5  6  2  0
  7  8  2  0
  7  2  1  0
  9  5  1  0
 10  7  1  0
 11 10  1  0
 12 11  1  0
 13 12  2  0
 14 12  1  0
 15 14  1  0
 16 15  1  0
 17 16  1  0
 18 16  2  0
M  END
$$$$
