EGG.pdb
     RDKit          3D

 18 17  0  0  1  0  0  0  0  0999 V2000
    7.6364  -19.2467   26.4786 N   0  0  0  0  0  0  0  0  0  0  0  0
    7.7982  -19.6141   25.0618 C   0  0  1  0  0  0  0  0  0  0  0  0
    6.8567  -20.7431   24.8125 C   0  0  0  0  0  0  0  0  0  0  0  0
    6.3282  -21.4179   26.0406 C   0  0  0  0  0  0  0  0  0  0  0  0
    5.9466  -22.8321   25.8130 C   0  0  0  0  0  0  0  0  0  0  0  0
    6.3514  -23.8066   26.4736 O   0  0  0  0  0  0  0  0  0  0  0  0
    7.5129  -18.4157   24.2466 C   0  0  0  0  0  0  0  0  0  0  0  0
    7.6099  -18.4842   22.9939 O   0  0  0  0  0  0  0  0  0  0  0  0
    5.0621  -23.0863   24.7735 O   0  0  0  0  0  0  0  0  0  0  0  0
    7.1283  -17.1681   24.8043 N   0  0  0  0  0  0  0  0  0  0  0  0
    6.8090  -16.0041   24.0406 C   0  0  0  0  0  0  0  0  0  0  0  0
    7.9766  -15.4189   23.3461 C   0  0  0  0  0  0  0  0  0  0  0  0
    7.9158  -14.8604   22.2384 O   0  0  0  0  0  0  0  0  0  0  0  0
    9.2390  -15.5083   23.9970 N   0  0  0  0  0  0  0  0  0  0  0  0
   10.4453  -15.0469   23.3463 C   0  0  0  0  0  0  0  0  0  0  0  0
   11.3706  -16.1770   23.1379 C   0  0  0  0  0  0  0  0  0  0  0  0
   12.6680  -16.1366   23.6301 O   0  0  0  0  0  0  0  0  0  0  0  0
   11.0016  -17.2000   22.5098 O   0  0  0  0  0  0  0  0  0  0  0  0
  2  1  1  1
  3  2  1  0
  4  3  1  0
  5  4  1  0
  5  6  2  0
  7  8  2  0
  7  2  1  0
  9  5  1  0
 10  7  1  0
 11 10  1  0
 12 11  1  0
 13 12  2  0
 14 12  1  0
 15 14  1  0
 16 15  1  0
 17 16  1  0
 18 16  2  0
M  END
$$$$
