EGG.pdb
     RDKit          3D

 18 17  0  0  1  0  0  0  0  0999 V2000
    6.6143  -18.0806   25.2271 N   0  0  0  0  0  0  0  0  0  0  0  0
    6.4786  -19.3837   24.5547 C   0  0  1  0  0  0  0  0  0  0  0  0
    7.3412  -19.3194   23.3403 C   0  0  0  0  0  0  0  0  0  0  0  0
    8.7808  -18.9944   23.5951 C   0  0  0  0  0  0  0  0  0  0  0  0
    9.6180  -19.0474   22.3729 C   0  0  0  0  0  0  0  0  0  0  0  0
    9.9246  -20.0805   21.7495 O   0  0  0  0  0  0  0  0  0  0  0  0
    6.8837  -20.4330   25.5123 C   0  0  0  0  0  0  0  0  0  0  0  0
    6.4539  -21.6059   25.3608 O   0  0  0  0  0  0  0  0  0  0  0  0
   10.0987  -17.8395   21.8858 O   0  0  0  0  0  0  0  0  0  0  0  0
    7.7458  -20.1909   26.6140 N   0  0  0  0  0  0  0  0  0  0  0  0
    8.2146  -21.1983   27.5115 C   0  0  0  0  0  0  0  0  0  0  0  0
    9.1225  -20.6771   28.5567 C   0  0  0  0  0  0  0  0  0  0  0  0
    9.6245  -21.3778   29.4509 O   0  0  0  0  0  0  0  0  0  0  0  0
    9.4309  -19.2882   28.5239 N   0  0  0  0  0  0  0  0  0  0  0  0
   10.5842  -18.7661   29.2229 C   0  0  0  0  0  0  0  0  0  0  0  0
   10.6415  -17.2990   29.0774 C   0  0  0  0  0  0  0  0  0  0  0  0
   11.6262  -16.5569   29.7152 O   0  0  0  0  0  0  0  0  0  0  0  0
    9.7985  -16.6916   28.3719 O   0  0  0  0  0  0  0  0  0  0  0  0
  2  1  1  1
  3  2  1  0
  4  3  1  0
  5  4  1  0
  5  6  2  0
  7  8  2  0
  7  2  1  0
  9  5  1  0
 10  7  1  0
 11 10  1  0
 12 11  1  0
 13 12  2  0
 14 12  1  0
 15 14  1  0
 16 15  1  0
 17 16  1  0
 18 16  2  0
M  END
$$$$
