EGG.pdb
     RDKit          3D

 18 17  0  0  1  0  0  0  0  0999 V2000
   10.7807  -18.2093   21.9108 N   0  0  0  0  0  0  0  0  0  0  0  0
   11.6836  -17.6801   22.9468 C   0  0  1  0  0  0  0  0  0  0  0  0
   12.7722  -16.9609   22.2250 C   0  0  0  0  0  0  0  0  0  0  0  0
   13.5041  -17.7717   21.2004 C   0  0  0  0  0  0  0  0  0  0  0  0
   14.5327  -16.9967   20.4663 C   0  0  0  0  0  0  0  0  0  0  0  0
   14.8528  -15.8163   20.6991 O   0  0  0  0  0  0  0  0  0  0  0  0
   10.8905  -16.8096   23.8386 C   0  0  0  0  0  0  0  0  0  0  0  0
    9.7797  -16.3699   23.4437 O   0  0  0  0  0  0  0  0  0  0  0  0
   15.1923  -17.6468   19.4321 O   0  0  0  0  0  0  0  0  0  0  0  0
   11.3165  -16.4332   25.1396 N   0  0  0  0  0  0  0  0  0  0  0  0
   10.5321  -15.6726   26.0596 C   0  0  0  0  0  0  0  0  0  0  0  0
    9.8560  -16.5023   27.0806 C   0  0  0  0  0  0  0  0  0  0  0  0
    8.6453  -16.4240   27.3466 O   0  0  0  0  0  0  0  0  0  0  0  0
   10.6519  -17.4424   27.7933 N   0  0  0  0  0  0  0  0  0  0  0  0
   10.0542  -18.3513   28.7463 C   0  0  0  0  0  0  0  0  0  0  0  0
   11.0987  -19.1819   29.3756 C   0  0  0  0  0  0  0  0  0  0  0  0
   10.7880  -20.0589   30.4059 O   0  0  0  0  0  0  0  0  0  0  0  0
   12.2920  -19.1114   28.9906 O   0  0  0  0  0  0  0  0  0  0  0  0
  2  1  1  6
  3  2  1  0
  4  3  1  0
  5  4  1  0
  5  6  2  0
  7  8  2  0
  7  2  1  0
  9  5  1  0
 10  7  1  0
 11 10  1  0
 12 11  1  0
 13 12  2  0
 14 12  1  0
 15 14  1  0
 16 15  1  0
 17 16  1  0
 18 16  2  0
M  END
$$$$
