EGG.pdb
     RDKit          3D

 18 17  0  0  1  0  0  0  0  0999 V2000
   10.4441  -19.2255   19.2579 N   0  0  0  0  0  0  0  0  0  0  0  0
   10.4782  -17.7738   19.5025 C   0  0  1  0  0  0  0  0  0  0  0  0
    9.4838  -17.1692   18.5704 C   0  0  0  0  0  0  0  0  0  0  0  0
    8.5552  -18.1402   17.9086 C   0  0  0  0  0  0  0  0  0  0  0  0
    7.5131  -17.4839   17.0836 C   0  0  0  0  0  0  0  0  0  0  0  0
    7.4369  -16.2635   16.8496 O   0  0  0  0  0  0  0  0  0  0  0  0
   10.1659  -17.5463   20.9284 C   0  0  0  0  0  0  0  0  0  0  0  0
    9.5939  -18.4531   21.5871 O   0  0  0  0  0  0  0  0  0  0  0  0
    6.5414  -18.3043   16.5267 O   0  0  0  0  0  0  0  0  0  0  0  0
   10.4794  -16.3419   21.6115 N   0  0  0  0  0  0  0  0  0  0  0  0
   10.1430  -16.0727   22.9733 C   0  0  0  0  0  0  0  0  0  0  0  0
   11.2115  -16.4441   23.9264 C   0  0  0  0  0  0  0  0  0  0  0  0
   12.4168  -16.4952   23.6310 O   0  0  0  0  0  0  0  0  0  0  0  0
   10.8213  -16.7593   25.2582 N   0  0  0  0  0  0  0  0  0  0  0  0
   11.8085  -16.9336   26.3006 C   0  0  0  0  0  0  0  0  0  0  0  0
   11.1597  -17.4149   27.5352 C   0  0  0  0  0  0  0  0  0  0  0  0
   11.8930  -17.6058   28.6984 O   0  0  0  0  0  0  0  0  0  0  0  0
    9.9285  -17.6618   27.5578 O   0  0  0  0  0  0  0  0  0  0  0  0
  2  1  1  1
  3  2  1  0
  4  3  1  0
  5  4  1  0
  5  6  2  0
  7  8  2  0
  7  2  1  0
  9  5  1  0
 10  7  1  0
 11 10  1  0
 12 11  1  0
 13 12  2  0
 14 12  1  0
 15 14  1  0
 16 15  1  0
 17 16  1  0
 18 16  2  0
M  END
$$$$
