EGG.pdb
     RDKit          3D

 18 17  0  0  1  0  0  0  0  0999 V2000
    6.9861  -17.8719   20.5226 N   0  0  0  0  0  0  0  0  0  0  0  0
    8.2717  -17.1603   20.4265 C   0  0  1  0  0  0  0  0  0  0  0  0
    8.7430  -17.3360   19.0229 C   0  0  0  0  0  0  0  0  0  0  0  0
    9.9019  -18.2687   18.8496 C   0  0  0  0  0  0  0  0  0  0  0  0
   11.0756  -17.6308   18.2069 C   0  0  0  0  0  0  0  0  0  0  0  0
   11.0458  -16.9290   17.1790 O   0  0  0  0  0  0  0  0  0  0  0  0
    8.0390  -15.7499   20.7994 C   0  0  0  0  0  0  0  0  0  0  0  0
    7.7105  -14.9226   19.9101 O   0  0  0  0  0  0  0  0  0  0  0  0
   12.3110  -17.8364   18.8060 O   0  0  0  0  0  0  0  0  0  0  0  0
    8.1668  -15.2645   22.1274 N   0  0  0  0  0  0  0  0  0  0  0  0
    7.3131  -14.2820   22.7157 C   0  0  0  0  0  0  0  0  0  0  0  0
    7.6733  -13.9512   24.1117 C   0  0  0  0  0  0  0  0  0  0  0  0
    6.9896  -13.2230   24.8499 O   0  0  0  0  0  0  0  0  0  0  0  0
    8.8777  -14.5071   24.6271 N   0  0  0  0  0  0  0  0  0  0  0  0
    8.8635  -15.3542   25.7992 C   0  0  0  0  0  0  0  0  0  0  0  0
   10.2021  -15.9341   26.0195 C   0  0  0  0  0  0  0  0  0  0  0  0
   10.5350  -16.5190   27.2336 O   0  0  0  0  0  0  0  0  0  0  0  0
   11.0686  -15.9097   25.1106 O   0  0  0  0  0  0  0  0  0  0  0  0
  2  1  1  6
  3  2  1  0
  4  3  1  0
  5  4  1  0
  5  6  2  0
  7  8  2  0
  7  2  1  0
  9  5  1  0
 10  7  1  0
 11 10  1  0
 12 11  1  0
 13 12  2  0
 14 12  1  0
 15 14  1  0
 16 15  1  0
 17 16  1  0
 18 16  2  0
M  END
$$$$
