EGG.pdb
     RDKit          3D

 18 17  0  0  1  0  0  0  0  0999 V2000
    6.7253  -19.9697   21.8338 N   0  0  0  0  0  0  0  0  0  0  0  0
    7.5845  -18.7754   21.8969 C   0  0  1  0  0  0  0  0  0  0  0  0
    7.8460  -18.3734   20.4851 C   0  0  0  0  0  0  0  0  0  0  0  0
    6.9377  -18.9896   19.4662 C   0  0  0  0  0  0  0  0  0  0  0  0
    7.2488  -18.5746   18.0775 C   0  0  0  0  0  0  0  0  0  0  0  0
    8.0681  -19.1298   17.3222 O   0  0  0  0  0  0  0  0  0  0  0  0
    6.8737  -17.7458   22.6824 C   0  0  0  0  0  0  0  0  0  0  0  0
    5.6155  -17.7306   22.6844 O   0  0  0  0  0  0  0  0  0  0  0  0
    6.5659  -17.4723   17.5816 O   0  0  0  0  0  0  0  0  0  0  0  0
    7.5398  -16.7541   23.4494 N   0  0  0  0  0  0  0  0  0  0  0  0
    6.8811  -15.7822   24.2629 C   0  0  0  0  0  0  0  0  0  0  0  0
    7.0545  -16.0157   25.7132 C   0  0  0  0  0  0  0  0  0  0  0  0
    6.5946  -15.2715   26.5949 O   0  0  0  0  0  0  0  0  0  0  0  0
    7.7945  -17.1653   26.1082 N   0  0  0  0  0  0  0  0  0  0  0  0
    7.9456  -17.5085   27.5049 C   0  0  0  0  0  0  0  0  0  0  0  0
    9.0310  -18.4943   27.6682 C   0  0  0  0  0  0  0  0  0  0  0  0
    9.9966  -18.3355   28.6529 O   0  0  0  0  0  0  0  0  0  0  0  0
    9.1028  -19.4988   26.9177 O   0  0  0  0  0  0  0  0  0  0  0  0
  2  1  1  6
  3  2  1  0
  4  3  1  0
  5  4  1  0
  5  6  2  0
  7  8  2  0
  7  2  1  0
  9  5  1  0
 10  7  1  0
 11 10  1  0
 12 11  1  0
 13 12  2  0
 14 12  1  0
 15 14  1  0
 16 15  1  0
 17 16  1  0
 18 16  2  0
M  END
$$$$
