EGG.pdb
     RDKit          3D

 18 17  0  0  1  0  0  0  0  0999 V2000
    9.6914  -17.0351   21.4438 N   0  0  0  0  0  0  0  0  0  0  0  0
    9.0094  -18.2340   21.9594 C   0  0  1  0  0  0  0  0  0  0  0  0
   10.0729  -19.1028   22.5402 C   0  0  0  0  0  0  0  0  0  0  0  0
   11.4748  -18.7383   22.1596 C   0  0  0  0  0  0  0  0  0  0  0  0
   12.4983  -19.5920   22.8085 C   0  0  0  0  0  0  0  0  0  0  0  0
   12.9602  -19.4259   23.9527 O   0  0  0  0  0  0  0  0  0  0  0  0
    8.0017  -17.7941   22.9460 C   0  0  0  0  0  0  0  0  0  0  0  0
    7.2155  -18.6408   23.4444 O   0  0  0  0  0  0  0  0  0  0  0  0
   12.9795  -20.6672   22.0738 O   0  0  0  0  0  0  0  0  0  0  0  0
    7.8661  -16.4469   23.3725 N   0  0  0  0  0  0  0  0  0  0  0  0
    6.9284  -15.9986   24.3523 C   0  0  0  0  0  0  0  0  0  0  0  0
    7.0652  -14.5632   24.6825 C   0  0  0  0  0  0  0  0  0  0  0  0
    7.9884  -13.8421   24.2699 O   0  0  0  0  0  0  0  0  0  0  0  0
    6.0730  -13.9868   25.5242 N   0  0  0  0  0  0  0  0  0  0  0  0
    5.9685  -12.5523   25.6755 C   0  0  0  0  0  0  0  0  0  0  0  0
    6.6793  -12.1199   26.8939 C   0  0  0  0  0  0  0  0  0  0  0  0
    6.7548  -10.7768   27.2368 O   0  0  0  0  0  0  0  0  0  0  0  0
    7.2313  -12.9604   27.6463 O   0  0  0  0  0  0  0  0  0  0  0  0
  2  1  1  1
  3  2  1  0
  4  3  1  0
  5  4  1  0
  5  6  2  0
  7  8  2  0
  7  2  1  0
  9  5  1  0
 10  7  1  0
 11 10  1  0
 12 11  1  0
 13 12  2  0
 14 12  1  0
 15 14  1  0
 16 15  1  0
 17 16  1  0
 18 16  2  0
M  END
$$$$
