EGG.pdb
     RDKit          3D

 18 17  0  0  1  0  0  0  0  0999 V2000
    8.9650  -18.1736   21.1543 N   0  0  0  0  0  0  0  0  0  0  0  0
    8.4101  -16.8440   20.8497 C   0  0  1  0  0  0  0  0  0  0  0  0
    7.7750  -16.9539   19.5052 C   0  0  0  0  0  0  0  0  0  0  0  0
    8.5072  -17.8128   18.5206 C   0  0  0  0  0  0  0  0  0  0  0  0
    7.8062  -17.9408   17.2207 C   0  0  0  0  0  0  0  0  0  0  0  0
    6.7068  -18.4971   17.0426 O   0  0  0  0  0  0  0  0  0  0  0  0
    7.4603  -16.4913   21.9247 C   0  0  0  0  0  0  0  0  0  0  0  0
    7.2157  -15.2794   22.1589 O   0  0  0  0  0  0  0  0  0  0  0  0
    8.4333  -17.3919   16.1103 O   0  0  0  0  0  0  0  0  0  0  0  0
    6.7951  -17.4578   22.7240 N   0  0  0  0  0  0  0  0  0  0  0  0
    5.8645  -17.1475   23.7623 C   0  0  0  0  0  0  0  0  0  0  0  0
    6.5034  -16.9375   25.0798 C   0  0  0  0  0  0  0  0  0  0  0  0
    5.8741  -16.7215   26.1286 O   0  0  0  0  0  0  0  0  0  0  0  0
    7.9245  -16.9886   25.1347 N   0  0  0  0  0  0  0  0  0  0  0  0
    8.6304  -16.7328   26.3708 C   0  0  0  0  0  0  0  0  0  0  0  0
    9.0600  -18.0060   26.9798 C   0  0  0  0  0  0  0  0  0  0  0  0
    9.7473  -18.0236   28.1858 O   0  0  0  0  0  0  0  0  0  0  0  0
    8.8117  -19.1013   26.4177 O   0  0  0  0  0  0  0  0  0  0  0  0
  2  1  1  1
  3  2  1  0
  4  3  1  0
  5  4  1  0
  5  6  2  0
  7  8  2  0
  7  2  1  0
  9  5  1  0
 10  7  1  0
 11 10  1  0
 12 11  1  0
 13 12  2  0
 14 12  1  0
 15 14  1  0
 16 15  1  0
 17 16  1  0
 18 16  2  0
M  END
$$$$
