CFH.pdb
     RDKit          3D

 28 29  0  0  1  0  0  0  0  0999 V2000
   21.5377  -11.5862  -20.6486 N   0  0  0  0  0  0  0  0  0  0  0  0
   22.3800  -10.5148  -20.2030 C   0  0  1  0  0  0  0  0  0  0  0  0
   22.3153   -9.3908  -21.2129 C   0  0  0  0  0  0  0  0  0  0  0  0
   20.5971   -8.9720  -21.5874 S   0  0  0  0  0  0  0  0  0  0  0  0
   21.8998   -9.9731  -18.9083 C   0  0  0  0  0  0  0  0  0  0  0  0
   20.8659  -10.4511  -18.4107 O   0  0  0  0  0  0  0  0  0  0  0  0
   22.5745   -8.9412  -18.2307 N   0  0  0  0  0  0  0  0  0  0  0  0
   22.1336   -8.3717  -16.9847 C   0  0  1  0  0  0  0  0  0  0  0  0
   23.2084   -8.3124  -15.9422 C   0  0  0  0  0  0  0  0  0  0  0  0
   22.7403   -7.8104  -14.6305 C   0  0  0  0  0  0  0  0  0  0  0  0
   22.2620   -8.7248  -13.7167 C   0  0  0  0  0  0  0  0  0  0  0  0
   21.8020   -8.3537  -12.4681 C   0  0  0  0  0  0  0  0  0  0  0  0
   21.8104   -7.0294  -12.0980 C   0  0  0  0  0  0  0  0  0  0  0  0
   22.2842   -6.1015  -12.9966 C   0  0  0  0  0  0  0  0  0  0  0  0
   22.7493   -6.4823  -14.2605 C   0  0  0  0  0  0  0  0  0  0  0  0
   21.6035   -7.0113  -17.1751 C   0  0  0  0  0  0  0  0  0  0  0  0
   22.2940   -6.2048  -17.8864 O   0  0  0  0  0  0  0  0  0  0  0  0
   20.4097   -6.5196  -16.6471 N   0  0  0  0  0  0  0  0  0  0  0  0
   19.8997   -5.1614  -16.9363 C   0  0  1  0  0  0  0  0  0  0  0  0
   18.4538   -5.2561  -17.3539 C   0  0  0  0  0  0  0  0  0  0  0  0
   18.2902   -5.7662  -18.7283 C   0  0  0  0  0  0  0  0  0  0  0  0
   18.8833   -5.1903  -19.8599 C   0  0  0  0  0  0  0  0  0  0  0  0
   18.5216   -5.9087  -20.9328 N   0  0  0  0  0  0  0  0  0  0  0  0
   17.7243   -6.9176  -20.5385 C   0  0  0  0  0  0  0  0  0  0  0  0
   17.5989   -6.8113  -19.2049 N   0  0  0  0  0  0  0  0  0  0  0  0
   19.9754   -4.4610  -15.6449 C   0  0  0  0  0  0  0  0  0  0  0  0
   19.8422   -3.0939  -15.5726 O   0  0  0  0  0  0  0  0  0  0  0  0
   20.1611   -5.0799  -14.5861 O   0  0  0  0  0  0  0  0  0  0  0  0
  2  1  1  6
  2  5  1  0
  3  2  1  0
  4  3  1  0
  5  7  1  0
  5  6  2  0
  7  8  1  0
  8 16  1  0
  8  9  1  1
 10  9  1  0
 10 15  1  0
 11 10  2  0
 12 11  1  0
 12 13  2  0
 13 14  1  0
 15 14  2  0
 16 17  2  0
 18 19  1  0
 18 16  1  0
 19 20  1  1
 21 20  1  0
 22 21  2  0
 23 24  1  0
 23 22  1  0
 24 25  2  0
 25 21  1  0
 26 19  1  0
 26 27  1  0
 28 26  2  0
M  END
$$$$
