CFH.pdb
     RDKit          3D

 28 29  0  0  1  0  0  0  0  0999 V2000
   28.6694  -22.6499  -18.2385 N   0  0  0  0  0  0  0  0  0  0  0  0
   28.4346  -21.3789  -17.6176 C   0  0  1  0  0  0  0  0  0  0  0  0
   27.6964  -20.4886  -18.5922 C   0  0  0  0  0  0  0  0  0  0  0  0
   28.8020  -19.9383  -19.9123 S   0  0  0  0  0  0  0  0  0  0  0  0
   27.5736  -21.5310  -16.4194 C   0  0  0  0  0  0  0  0  0  0  0  0
   26.6371  -22.3473  -16.4601 O   0  0  0  0  0  0  0  0  0  0  0  0
   27.7831  -20.7843  -15.2457 N   0  0  0  0  0  0  0  0  0  0  0  0
   26.9877  -20.9157  -14.0535 C   0  0  1  0  0  0  0  0  0  0  0  0
   27.6636  -20.3889  -12.8242 C   0  0  0  0  0  0  0  0  0  0  0  0
   26.8247  -20.4578  -11.6062 C   0  0  0  0  0  0  0  0  0  0  0  0
   26.3756  -19.2758  -11.0576 C   0  0  0  0  0  0  0  0  0  0  0  0
   25.5895  -19.2372   -9.9223 C   0  0  0  0  0  0  0  0  0  0  0  0
   25.2273  -20.4069   -9.2967 C   0  0  0  0  0  0  0  0  0  0  0  0
   25.6659  -21.5971   -9.8294 C   0  0  0  0  0  0  0  0  0  0  0  0
   26.4623  -21.6313  -10.9798 C   0  0  0  0  0  0  0  0  0  0  0  0
   25.6928  -20.2293  -14.1950 C   0  0  0  0  0  0  0  0  0  0  0  0
   25.7123  -19.0060  -14.5641 O   0  0  0  0  0  0  0  0  0  0  0  0
   24.4395  -20.7954  -13.9616 N   0  0  0  0  0  0  0  0  0  0  0  0
   23.1776  -20.0307  -14.0665 C   0  0  1  0  0  0  0  0  0  0  0  0
   22.6286  -20.1741  -15.4637 C   0  0  0  0  0  0  0  0  0  0  0  0
   21.3449  -19.4705  -15.6461 C   0  0  0  0  0  0  0  0  0  0  0  0
   21.1561  -18.1007  -15.4178 C   0  0  0  0  0  0  0  0  0  0  0  0
   19.8750  -17.8056  -15.6819 N   0  0  0  0  0  0  0  0  0  0  0  0
   19.2363  -18.9243  -16.0686 C   0  0  0  0  0  0  0  0  0  0  0  0
   20.1430  -19.9156  -16.0393 N   0  0  0  0  0  0  0  0  0  0  0  0
   22.2655  -20.7019  -13.1275 C   0  0  0  0  0  0  0  0  0  0  0  0
   21.1502  -20.0591  -12.6430 O   0  0  0  0  0  0  0  0  0  0  0  0
   22.4741  -21.8634  -12.7456 O   0  0  0  0  0  0  0  0  0  0  0  0
  2  1  1  6
  2  5  1  0
  3  2  1  0
  4  3  1  0
  5  7  1  0
  5  6  2  0
  7  8  1  0
  8 16  1  0
  8  9  1  1
 10  9  1  0
 10 15  1  0
 11 10  2  0
 12 11  1  0
 12 13  2  0
 13 14  1  0
 15 14  2  0
 16 17  2  0
 18 19  1  0
 18 16  1  0
 19 20  1  6
 21 20  1  0
 22 21  2  0
 23 24  1  0
 23 22  1  0
 24 25  2  0
 25 21  1  0
 26 19  1  0
 26 27  1  0
 28 26  2  0
M  END
$$$$
