CFH.pdb
     RDKit          3D

 28 29  0  0  1  0  0  0  0  0999 V2000
   27.6680  -17.8863  -13.4764 N   0  0  0  0  0  0  0  0  0  0  0  0
   27.7618  -19.1625  -14.1237 C   0  0  1  0  0  0  0  0  0  0  0  0
   29.1880  -19.6562  -14.0247 C   0  0  0  0  0  0  0  0  0  0  0  0
   30.3237  -18.4726  -14.7843 S   0  0  0  0  0  0  0  0  0  0  0  0
   26.9009  -20.1606  -13.4434 C   0  0  0  0  0  0  0  0  0  0  0  0
   26.9130  -21.3339  -13.8535 O   0  0  0  0  0  0  0  0  0  0  0  0
   26.0765  -19.8220  -12.3550 N   0  0  0  0  0  0  0  0  0  0  0  0
   25.1635  -20.7357  -11.7200 C   0  0  1  0  0  0  0  0  0  0  0  0
   25.0729  -20.5533  -10.2354 C   0  0  0  0  0  0  0  0  0  0  0  0
   26.3729  -20.6793   -9.5384 C   0  0  0  0  0  0  0  0  0  0  0  0
   26.5641  -19.9548   -8.3815 C   0  0  0  0  0  0  0  0  0  0  0  0
   27.7421  -20.0049   -7.6618 C   0  0  0  0  0  0  0  0  0  0  0  0
   28.7784  -20.7989   -8.0935 C   0  0  0  0  0  0  0  0  0  0  0  0
   28.6067  -21.5297   -9.2465 C   0  0  0  0  0  0  0  0  0  0  0  0
   27.4113  -21.4758   -9.9724 C   0  0  0  0  0  0  0  0  0  0  0  0
   23.8075  -20.6145  -12.2808 C   0  0  0  0  0  0  0  0  0  0  0  0
   23.2152  -19.4895  -12.1510 O   0  0  0  0  0  0  0  0  0  0  0  0
   23.1062  -21.6210  -12.9447 N   0  0  0  0  0  0  0  0  0  0  0  0
   21.8485  -21.3743  -13.6834 C   0  0  1  0  0  0  0  0  0  0  0  0
   21.7439  -22.3578  -14.8217 C   0  0  0  0  0  0  0  0  0  0  0  0
   20.5241  -22.1669  -15.6289 C   0  0  0  0  0  0  0  0  0  0  0  0
   19.8207  -20.9584  -15.7227 C   0  0  0  0  0  0  0  0  0  0  0  0
   18.7717  -21.1474  -16.5364 N   0  0  0  0  0  0  0  0  0  0  0  0
   18.7726  -22.4216  -16.9669 C   0  0  0  0  0  0  0  0  0  0  0  0
   19.8388  -23.0172  -16.4065 N   0  0  0  0  0  0  0  0  0  0  0  0
   20.7885  -21.6659  -12.7059 C   0  0  0  0  0  0  0  0  0  0  0  0
   19.5968  -20.9795  -12.7288 O   0  0  0  0  0  0  0  0  0  0  0  0
   20.9370  -22.5363  -11.8347 O   0  0  0  0  0  0  0  0  0  0  0  0
  2  1  1  1
  2  5  1  0
  3  2  1  0
  4  3  1  0
  5  7  1  0
  5  6  2  0
  7  8  1  0
  8 16  1  0
  8  9  1  1
 10  9  1  0
 10 15  1  0
 11 10  2  0
 12 11  1  0
 12 13  2  0
 13 14  1  0
 15 14  2  0
 16 17  2  0
 18 19  1  0
 18 16  1  0
 19 20  1  6
 21 20  1  0
 22 21  2  0
 23 24  1  0
 23 22  1  0
 24 25  2  0
 25 21  1  0
 26 19  1  0
 26 27  1  0
 28 26  2  0
M  END
$$$$
