CFH.pdb
     RDKit          3D

 28 29  0  0  1  0  0  0  0  0999 V2000
   29.5045  -35.4130   -3.4521 N   0  0  0  0  0  0  0  0  0  0  0  0
   30.6524  -36.2712   -3.4076 C   0  0  1  0  0  0  0  0  0  0  0  0
   30.2482  -37.5955   -2.7990 C   0  0  0  0  0  0  0  0  0  0  0  0
   30.1222  -37.4557   -1.0011 S   0  0  0  0  0  0  0  0  0  0  0  0
   31.1536  -36.5489   -4.7758 C   0  0  0  0  0  0  0  0  0  0  0  0
   30.3589  -36.4671   -5.7280 O   0  0  0  0  0  0  0  0  0  0  0  0
   32.4926  -36.8998   -5.0269 N   0  0  0  0  0  0  0  0  0  0  0  0
   33.0347  -37.1234   -6.3413 C   0  0  1  0  0  0  0  0  0  0  0  0
   34.1159  -36.1548   -6.7134 C   0  0  0  0  0  0  0  0  0  0  0  0
   33.6498  -34.7540   -6.8242 C   0  0  0  0  0  0  0  0  0  0  0  0
   33.0872  -34.3476   -8.0150 C   0  0  0  0  0  0  0  0  0  0  0  0
   32.6245  -33.0614   -8.2153 C   0  0  0  0  0  0  0  0  0  0  0  0
   32.7168  -32.1325   -7.2057 C   0  0  0  0  0  0  0  0  0  0  0  0
   33.2755  -32.5193   -6.0094 C   0  0  0  0  0  0  0  0  0  0  0  0
   33.7429  -33.8235   -5.8110 C   0  0  0  0  0  0  0  0  0  0  0  0
   33.5747  -38.4868   -6.4734 C   0  0  0  0  0  0  0  0  0  0  0  0
   34.2009  -38.9716   -5.4705 O   0  0  0  0  0  0  0  0  0  0  0  0
   33.4645  -39.3023   -7.5997 N   0  0  0  0  0  0  0  0  0  0  0  0
   33.9518  -40.6985   -7.6345 C   0  0  1  0  0  0  0  0  0  0  0  0
   32.8258  -41.6035   -8.0669 C   0  0  0  0  0  0  0  0  0  0  0  0
   31.7894  -41.7589   -7.0287 C   0  0  0  0  0  0  0  0  0  0  0  0
   32.0047  -42.3628   -5.7825 C   0  0  0  0  0  0  0  0  0  0  0  0
   30.8522  -42.3311   -5.0979 N   0  0  0  0  0  0  0  0  0  0  0  0
   29.9099  -41.7345   -5.8498 C   0  0  0  0  0  0  0  0  0  0  0  0
   30.4984  -41.3979   -7.0100 N   0  0  0  0  0  0  0  0  0  0  0  0
   34.9872  -40.6973   -8.6795 C   0  0  0  0  0  0  0  0  0  0  0  0
   35.6445  -41.8549   -9.0257 O   0  0  0  0  0  0  0  0  0  0  0  0
   35.2975  -39.6560   -9.2778 O   0  0  0  0  0  0  0  0  0  0  0  0
  2  1  1  6
  2  5  1  0
  3  2  1  0
  4  3  1  0
  5  7  1  0
  5  6  2  0
  7  8  1  0
  8 16  1  0
  8  9  1  1
 10  9  1  0
 10 15  1  0
 11 10  2  0
 12 11  1  0
 12 13  2  0
 13 14  1  0
 15 14  2  0
 16 17  2  0
 18 19  1  0
 18 16  1  0
 19 20  1  6
 21 20  1  0
 22 21  2  0
 23 24  1  0
 23 22  1  0
 24 25  2  0
 25 21  1  0
 26 19  1  0
 26 27  1  0
 28 26  2  0
M  END
$$$$
