CFH.pdb
     RDKit          3D

 28 29  0  0  1  0  0  0  0  0999 V2000
   23.6872  -13.0354  -18.4533 N   0  0  0  0  0  0  0  0  0  0  0  0
   23.0841  -11.7953  -18.8467 C   0  0  1  0  0  0  0  0  0  0  0  0
   21.7906  -12.0904  -19.5729 C   0  0  0  0  0  0  0  0  0  0  0  0
   22.1005  -13.1108  -21.0324 S   0  0  0  0  0  0  0  0  0  0  0  0
   22.7457  -10.9757  -17.6576 C   0  0  0  0  0  0  0  0  0  0  0  0
   22.3562  -11.5537  -16.6285 O   0  0  0  0  0  0  0  0  0  0  0  0
   22.8514   -9.5729  -17.6591 N   0  0  0  0  0  0  0  0  0  0  0  0
   22.6163   -8.7452  -16.5054 C   0  0  1  0  0  0  0  0  0  0  0  0
   23.8227   -7.9690  -16.0720 C   0  0  0  0  0  0  0  0  0  0  0  0
   24.9874   -8.8174  -15.7319 C   0  0  0  0  0  0  0  0  0  0  0  0
   26.0853   -8.7795  -16.5643 C   0  0  0  0  0  0  0  0  0  0  0  0
   27.2181   -9.5352  -16.3318 C   0  0  0  0  0  0  0  0  0  0  0  0
   27.2786  -10.3643  -15.2365 C   0  0  0  0  0  0  0  0  0  0  0  0
   26.1924  -10.4159  -14.3937 C   0  0  0  0  0  0  0  0  0  0  0  0
   25.0468   -9.6483  -14.6333 C   0  0  0  0  0  0  0  0  0  0  0  0
   21.5192   -7.7926  -16.7439 C   0  0  0  0  0  0  0  0  0  0  0  0
   21.4914   -7.1979  -17.8746 O   0  0  0  0  0  0  0  0  0  0  0  0
   20.5015   -7.4783  -15.8432 N   0  0  0  0  0  0  0  0  0  0  0  0
   19.4383   -6.4935  -16.1402 C   0  0  1  0  0  0  0  0  0  0  0  0
   18.1568   -6.9372  -15.4810 C   0  0  0  0  0  0  0  0  0  0  0  0
   17.0607   -5.9654  -15.6552 C   0  0  0  0  0  0  0  0  0  0  0  0
   16.8175   -4.8870  -14.7939 C   0  0  0  0  0  0  0  0  0  0  0  0
   15.7499   -4.2179  -15.2530 N   0  0  0  0  0  0  0  0  0  0  0  0
   15.2997   -4.8195  -16.3685 C   0  0  0  0  0  0  0  0  0  0  0  0
   16.1059   -5.8711  -16.5916 N   0  0  0  0  0  0  0  0  0  0  0  0
   19.8990   -5.2542  -15.4952 C   0  0  0  0  0  0  0  0  0  0  0  0
   19.4870   -4.0238  -15.9515 O   0  0  0  0  0  0  0  0  0  0  0  0
   20.6700   -5.2814  -14.5240 O   0  0  0  0  0  0  0  0  0  0  0  0
  2  1  1  1
  2  5  1  0
  3  2  1  0
  4  3  1  0
  5  7  1  0
  5  6  2  0
  7  8  1  0
  8 16  1  0
  8  9  1  6
 10  9  1  0
 10 15  1  0
 11 10  2  0
 12 11  1  0
 12 13  2  0
 13 14  1  0
 15 14  2  0
 16 17  2  0
 18 19  1  0
 18 16  1  0
 19 20  1  1
 21 20  1  0
 22 21  2  0
 23 24  1  0
 23 22  1  0
 24 25  2  0
 25 21  1  0
 26 19  1  0
 26 27  1  0
 28 26  2  0
M  END
$$$$
