CFH.pdb
     RDKit          3D

 28 29  0  0  1  0  0  0  0  0999 V2000
   17.6010  -13.2731  -17.5518 N   0  0  0  0  0  0  0  0  0  0  0  0
   18.0768  -12.0059  -18.0249 C   0  0  1  0  0  0  0  0  0  0  0  0
   16.9999  -11.3656  -18.8722 C   0  0  0  0  0  0  0  0  0  0  0  0
   16.7347  -12.3162  -20.3868 S   0  0  0  0  0  0  0  0  0  0  0  0
   18.3483  -11.0901  -16.8902 C   0  0  0  0  0  0  0  0  0  0  0  0
   17.6404  -11.1786  -15.8724 O   0  0  0  0  0  0  0  0  0  0  0  0
   19.3763  -10.1305  -16.9304 N   0  0  0  0  0  0  0  0  0  0  0  0
   19.6516   -9.1987  -15.8686 C   0  0  1  0  0  0  0  0  0  0  0  0
   21.1052   -9.1083  -15.5160 C   0  0  0  0  0  0  0  0  0  0  0  0
   21.3945   -8.1607  -14.4160 C   0  0  0  0  0  0  0  0  0  0  0  0
   21.8696   -6.9089  -14.7433 C   0  0  0  0  0  0  0  0  0  0  0  0
   22.1697   -5.9570  -13.7883 C   0  0  0  0  0  0  0  0  0  0  0  0
   21.9971   -6.2430  -12.4545 C   0  0  0  0  0  0  0  0  0  0  0  0
   21.5237   -7.4874  -12.1077 C   0  0  0  0  0  0  0  0  0  0  0  0
   21.2210   -8.4487  -13.0788 C   0  0  0  0  0  0  0  0  0  0  0  0
   19.1763   -7.8465  -16.2058 C   0  0  0  0  0  0  0  0  0  0  0  0
   19.4967   -7.3785  -17.3510 O   0  0  0  0  0  0  0  0  0  0  0  0
   18.4039   -7.0249  -15.3848 N   0  0  0  0  0  0  0  0  0  0  0  0
   17.9136   -5.6949  -15.8080 C   0  0  1  0  0  0  0  0  0  0  0  0
   16.6062   -5.4074  -15.1137 C   0  0  0  0  0  0  0  0  0  0  0  0
   15.4424   -5.9376  -15.8489 C   0  0  0  0  0  0  0  0  0  0  0  0
   15.5058   -6.4886  -17.1359 C   0  0  0  0  0  0  0  0  0  0  0  0
   14.2689   -6.8658  -17.4906 N   0  0  0  0  0  0  0  0  0  0  0  0
   13.4177   -6.5810  -16.4889 C   0  0  0  0  0  0  0  0  0  0  0  0
   14.1481   -6.0218  -15.5095 N   0  0  0  0  0  0  0  0  0  0  0  0
   18.9311   -4.7561  -15.3106 C   0  0  0  0  0  0  0  0  0  0  0  0
   19.4872   -3.8105  -16.1404 O   0  0  0  0  0  0  0  0  0  0  0  0
   19.3168   -4.7888  -14.1322 O   0  0  0  0  0  0  0  0  0  0  0  0
  2  1  1  1
  2  5  1  0
  3  2  1  0
  4  3  1  0
  5  7  1  0
  5  6  2  0
  7  8  1  0
  8 16  1  0
  8  9  1  6
 10  9  1  0
 10 15  1  0
 11 10  2  0
 12 11  1  0
 12 13  2  0
 13 14  1  0
 15 14  2  0
 16 17  2  0
 18 19  1  0
 18 16  1  0
 19 20  1  1
 21 20  1  0
 22 21  2  0
 23 24  1  0
 23 22  1  0
 24 25  2  0
 25 21  1  0
 26 19  1  0
 26 27  1  0
 28 26  2  0
M  END
$$$$
