CFH.pdb
     RDKit          3D

 28 29  0  0  1  0  0  0  0  0999 V2000
   31.1101  -20.3810  -10.2444 N   0  0  0  0  0  0  0  0  0  0  0  0
   30.6297  -21.7182  -10.0516 C   0  0  1  0  0  0  0  0  0  0  0  0
   31.5118  -22.4122   -9.0377 C   0  0  0  0  0  0  0  0  0  0  0  0
   33.2026  -22.5566   -9.6605 S   0  0  0  0  0  0  0  0  0  0  0  0
   29.2515  -21.7070   -9.5033 C   0  0  0  0  0  0  0  0  0  0  0  0
   28.6879  -22.7940   -9.2896 O   0  0  0  0  0  0  0  0  0  0  0  0
   28.5671  -20.5111   -9.2196 N   0  0  0  0  0  0  0  0  0  0  0  0
   27.1852  -20.4476   -8.8224 C   0  0  1  0  0  0  0  0  0  0  0  0
   26.9191  -19.4378   -7.7477 C   0  0  0  0  0  0  0  0  0  0  0  0
   27.6233  -19.7201   -6.4763 C   0  0  0  0  0  0  0  0  0  0  0  0
   27.1145  -20.7031   -5.6549 C   0  0  0  0  0  0  0  0  0  0  0  0
   27.6995  -21.0374   -4.4489 C   0  0  0  0  0  0  0  0  0  0  0  0
   28.8322  -20.3808   -4.0289 C   0  0  0  0  0  0  0  0  0  0  0  0
   29.3553  -19.3963   -4.8352 C   0  0  0  0  0  0  0  0  0  0  0  0
   28.7590  -19.0609   -6.0562 C   0  0  0  0  0  0  0  0  0  0  0  0
   26.3122  -20.1398   -9.9674 C   0  0  0  0  0  0  0  0  0  0  0  0
   26.4088  -18.9754  -10.4851 O   0  0  0  0  0  0  0  0  0  0  0  0
   25.3839  -21.0080  -10.5421 N   0  0  0  0  0  0  0  0  0  0  0  0
   24.6142  -20.6735  -11.7603 C   0  0  1  0  0  0  0  0  0  0  0  0
   24.5778  -21.8778  -12.6670 C   0  0  0  0  0  0  0  0  0  0  0  0
   23.6436  -21.7119  -13.7967 C   0  0  0  0  0  0  0  0  0  0  0  0
   23.7104  -20.6682  -14.7295 C   0  0  0  0  0  0  0  0  0  0  0  0
   22.7125  -20.8304  -15.6104 N   0  0  0  0  0  0  0  0  0  0  0  0
   22.0110  -21.9303  -15.2831 C   0  0  0  0  0  0  0  0  0  0  0  0
   22.5911  -22.4453  -14.1859 N   0  0  0  0  0  0  0  0  0  0  0  0
   23.2530  -20.4078  -11.2698 C   0  0  0  0  0  0  0  0  0  0  0  0
   22.3532  -19.6973  -12.0298 O   0  0  0  0  0  0  0  0  0  0  0  0
   22.8769  -20.8150  -10.1602 O   0  0  0  0  0  0  0  0  0  0  0  0
  2  1  1  1
  2  5  1  0
  3  2  1  0
  4  3  1  0
  5  7  1  0
  5  6  2  0
  7  8  1  0
  8 16  1  0
  8  9  1  1
 10  9  1  0
 10 15  1  0
 11 10  2  0
 12 11  1  0
 12 13  2  0
 13 14  1  0
 15 14  2  0
 16 17  2  0
 18 19  1  0
 18 16  1  0
 19 20  1  6
 21 20  1  0
 22 21  2  0
 23 24  1  0
 23 22  1  0
 24 25  2  0
 25 21  1  0
 26 19  1  0
 26 27  1  0
 28 26  2  0
M  END
$$$$
