CFH.pdb
     RDKit          3D

 28 29  0  0  1  0  0  0  0  0999 V2000
   29.0903  -20.4269  -14.8955 N   0  0  0  0  0  0  0  0  0  0  0  0
   28.1717  -19.6033  -14.1646 C   0  0  1  0  0  0  0  0  0  0  0  0
   27.4026  -18.7435  -15.1427 C   0  0  0  0  0  0  0  0  0  0  0  0
   28.3371  -17.2495  -15.5459 S   0  0  0  0  0  0  0  0  0  0  0  0
   27.1833  -20.4368  -13.4376 C   0  0  0  0  0  0  0  0  0  0  0  0
   26.9693  -21.5928  -13.8410 O   0  0  0  0  0  0  0  0  0  0  0  0
   26.4851  -19.9617  -12.3125 N   0  0  0  0  0  0  0  0  0  0  0  0
   25.4746  -20.7122  -11.6145 C   0  0  1  0  0  0  0  0  0  0  0  0
   25.2237  -20.2222  -10.2207 C   0  0  0  0  0  0  0  0  0  0  0  0
   26.4077  -20.3076   -9.3361 C   0  0  0  0  0  0  0  0  0  0  0  0
   26.3467  -19.6898   -8.1055 C   0  0  0  0  0  0  0  0  0  0  0  0
   27.3998  -19.7126   -7.2117 C   0  0  0  0  0  0  0  0  0  0  0  0
   28.5635  -20.3688   -7.5369 C   0  0  0  0  0  0  0  0  0  0  0  0
   28.6437  -20.9916   -8.7611 C   0  0  0  0  0  0  0  0  0  0  0  0
   27.5742  -20.9659   -9.6634 C   0  0  0  0  0  0  0  0  0  0  0  0
   24.1956  -20.6960  -12.3437 C   0  0  0  0  0  0  0  0  0  0  0  0
   23.7253  -19.5570  -12.6822 O   0  0  0  0  0  0  0  0  0  0  0  0
   23.4459  -21.8168  -12.7009 N   0  0  0  0  0  0  0  0  0  0  0  0
   22.1908  -21.7322  -13.4792 C   0  0  1  0  0  0  0  0  0  0  0  0
   21.7423  -23.1246  -13.8451 C   0  0  0  0  0  0  0  0  0  0  0  0
   20.4345  -23.1408  -14.5272 C   0  0  0  0  0  0  0  0  0  0  0  0
   19.6719  -21.9970  -14.7995 C   0  0  0  0  0  0  0  0  0  0  0  0
   18.5499  -22.3816  -15.4250 N   0  0  0  0  0  0  0  0  0  0  0  0
   18.5606  -23.7193  -15.5650 C   0  0  0  0  0  0  0  0  0  0  0  0
   19.7070  -24.1553  -15.0160 N   0  0  0  0  0  0  0  0  0  0  0  0
   21.2181  -21.1522  -12.5402 C   0  0  0  0  0  0  0  0  0  0  0  0
   20.2424  -20.2867  -12.9770 O   0  0  0  0  0  0  0  0  0  0  0  0
   21.2485  -21.4252  -11.3306 O   0  0  0  0  0  0  0  0  0  0  0  0
  2  1  1  6
  2  5  1  0
  3  2  1  0
  4  3  1  0
  5  7  1  0
  5  6  2  0
  7  8  1  0
  8 16  1  0
  8  9  1  1
 10  9  1  0
 10 15  1  0
 11 10  2  0
 12 11  1  0
 12 13  2  0
 13 14  1  0
 15 14  2  0
 16 17  2  0
 18 19  1  0
 18 16  1  0
 19 20  1  1
 21 20  1  0
 22 21  2  0
 23 24  1  0
 23 22  1  0
 24 25  2  0
 25 21  1  0
 26 19  1  0
 26 27  1  0
 28 26  2  0
M  END
$$$$
