CFH.pdb
     RDKit          3D

 28 29  0  0  1  0  0  0  0  0999 V2000
   26.3971   -9.8528  -22.1912 N   0  0  0  0  0  0  0  0  0  0  0  0
   26.4600   -8.9532  -21.0763 C   0  0  1  0  0  0  0  0  0  0  0  0
   26.4452   -7.5323  -21.5944 C   0  0  0  0  0  0  0  0  0  0  0  0
   25.0327   -7.2713  -22.6919 S   0  0  0  0  0  0  0  0  0  0  0  0
   25.2728   -9.1166  -20.2022 C   0  0  0  0  0  0  0  0  0  0  0  0
   24.2946   -9.7465  -20.6397 O   0  0  0  0  0  0  0  0  0  0  0  0
   25.2204   -8.5838  -18.9013 N   0  0  0  0  0  0  0  0  0  0  0  0
   24.1073   -8.7530  -18.0048 C   0  0  1  0  0  0  0  0  0  0  0  0
   24.5035   -9.2553  -16.6497 C   0  0  0  0  0  0  0  0  0  0  0  0
   23.3569   -9.5035  -15.7467 C   0  0  0  0  0  0  0  0  0  0  0  0
   23.1262   -8.6063  -14.7260 C   0  0  0  0  0  0  0  0  0  0  0  0
   22.0833   -8.7529  -13.8321 C   0  0  0  0  0  0  0  0  0  0  0  0
   21.2290   -9.8247  -13.9420 C   0  0  0  0  0  0  0  0  0  0  0  0
   21.4430  -10.7313  -14.9545 C   0  0  0  0  0  0  0  0  0  0  0  0
   22.5010  -10.5787  -15.8580 C   0  0  0  0  0  0  0  0  0  0  0  0
   23.3652   -7.4935  -17.8283 C   0  0  0  0  0  0  0  0  0  0  0  0
   24.0380   -6.4526  -17.5171 O   0  0  0  0  0  0  0  0  0  0  0  0
   21.9871   -7.3319  -17.9705 N   0  0  0  0  0  0  0  0  0  0  0  0
   21.3045   -6.0328  -17.7836 C   0  0  1  0  0  0  0  0  0  0  0  0
   20.2262   -5.8874  -18.8276 C   0  0  0  0  0  0  0  0  0  0  0  0
   19.4617   -4.6338  -18.6859 C   0  0  0  0  0  0  0  0  0  0  0  0
   20.0425   -3.3629  -18.5781 C   0  0  0  0  0  0  0  0  0  0  0  0
   19.0567   -2.4610  -18.4646 N   0  0  0  0  0  0  0  0  0  0  0  0
   17.8723   -3.0975  -18.4951 C   0  0  0  0  0  0  0  0  0  0  0  0
   18.1416   -4.4071  -18.6291 N   0  0  0  0  0  0  0  0  0  0  0  0
   20.6716   -6.1408  -16.4601 C   0  0  0  0  0  0  0  0  0  0  0  0
   20.7534   -5.1120  -15.5507 O   0  0  0  0  0  0  0  0  0  0  0  0
   20.0475   -7.1591  -16.1254 O   0  0  0  0  0  0  0  0  0  0  0  0
  2  1  1  6
  2  5  1  0
  3  2  1  0
  4  3  1  0
  5  7  1  0
  5  6  2  0
  7  8  1  0
  8 16  1  0
  8  9  1  1
 10  9  1  0
 10 15  1  0
 11 10  2  0
 12 11  1  0
 12 13  2  0
 13 14  1  0
 15 14  2  0
 16 17  2  0
 18 19  1  0
 18 16  1  0
 19 20  1  6
 21 20  1  0
 22 21  2  0
 23 24  1  0
 23 22  1  0
 24 25  2  0
 25 21  1  0
 26 19  1  0
 26 27  1  0
 28 26  2  0
M  END
$$$$
