CFH.pdb
     RDKit          3D

 28 29  0  0  1  0  0  0  0  0999 V2000
   25.2479  -12.8217  -19.8373 N   0  0  0  0  0  0  0  0  0  0  0  0
   24.6192  -11.5421  -19.9909 C   0  0  1  0  0  0  0  0  0  0  0  0
   23.3505  -11.7152  -20.7959 C   0  0  0  0  0  0  0  0  0  0  0  0
   23.7388  -12.0237  -22.5342 S   0  0  0  0  0  0  0  0  0  0  0  0
   24.2323  -10.9855  -18.6715 C   0  0  0  0  0  0  0  0  0  0  0  0
   23.8835  -11.7714  -17.7739 O   0  0  0  0  0  0  0  0  0  0  0  0
   24.2479   -9.6039  -18.4068 N   0  0  0  0  0  0  0  0  0  0  0  0
   23.9242   -9.0238  -17.1300 C   0  0  1  0  0  0  0  0  0  0  0  0
   25.0836   -8.3355  -16.4762 C   0  0  0  0  0  0  0  0  0  0  0  0
   26.1957   -9.2464  -16.1219 C   0  0  0  0  0  0  0  0  0  0  0  0
   27.3383   -9.2087  -16.8918 C   0  0  0  0  0  0  0  0  0  0  0  0
   28.4278  -10.0203  -16.6415 C   0  0  0  0  0  0  0  0  0  0  0  0
   28.3973  -10.9076  -15.5914 C   0  0  0  0  0  0  0  0  0  0  0  0
   27.2653  -10.9599  -14.8113 C   0  0  0  0  0  0  0  0  0  0  0  0
   26.1638  -10.1357  -15.0688 C   0  0  0  0  0  0  0  0  0  0  0  0
   22.8214   -8.0551  -17.2458 C   0  0  0  0  0  0  0  0  0  0  0  0
   22.8778   -7.2105  -18.2031 O   0  0  0  0  0  0  0  0  0  0  0  0
   21.7143   -7.9746  -16.4011 N   0  0  0  0  0  0  0  0  0  0  0  0
   20.5732   -7.0673  -16.6524 C   0  0  1  0  0  0  0  0  0  0  0  0
   19.3982   -7.5093  -15.8169 C   0  0  0  0  0  0  0  0  0  0  0  0
   18.2523   -6.5853  -15.9121 C   0  0  0  0  0  0  0  0  0  0  0  0
   18.1920   -5.4895  -16.7837 C   0  0  0  0  0  0  0  0  0  0  0  0
   17.0134   -4.8759  -16.6029 N   0  0  0  0  0  0  0  0  0  0  0  0
   16.3177   -5.5296  -15.6555 C   0  0  0  0  0  0  0  0  0  0  0  0
   17.0849   -6.5569  -15.2535 N   0  0  0  0  0  0  0  0  0  0  0  0
   21.0348   -5.7578  -16.1663 C   0  0  0  0  0  0  0  0  0  0  0  0
   20.7311   -4.6027  -16.8486 O   0  0  0  0  0  0  0  0  0  0  0  0
   21.7094   -5.6563  -15.1304 O   0  0  0  0  0  0  0  0  0  0  0  0
  2  1  1  1
  2  5  1  0
  3  2  1  0
  4  3  1  0
  5  7  1  0
  5  6  2  0
  7  8  1  0
  8 16  1  0
  8  9  1  6
 10  9  1  0
 10 15  1  0
 11 10  2  0
 12 11  1  0
 12 13  2  0
 13 14  1  0
 15 14  2  0
 16 17  2  0
 18 19  1  0
 18 16  1  0
 19 20  1  1
 21 20  1  0
 22 21  2  0
 23 24  1  0
 23 22  1  0
 24 25  2  0
 25 21  1  0
 26 19  1  0
 26 27  1  0
 28 26  2  0
M  END
$$$$
