STN.pdb
     RDKit          3D

 22 21  0  0  1  0  0  0  0  0999 V2000
   14.2805   -9.8722  -17.2050 O   0  0  0  0  0  0  0  0  0  0  0  0
   15.2810   -9.5163  -16.3180 C   0  0  0  0  0  0  0  0  0  0  0  0
   16.4717  -10.4658  -16.4125 C   0  0  2  0  0  0  0  0  0  0  0  0
   16.0111  -11.7646  -16.0117 N   0  0  0  0  0  0  0  0  0  0  0  0
   17.5932  -10.0186  -15.5815 C   0  0  0  0  0  0  0  0  0  0  0  0
   17.6585  -10.2700  -14.3537 O   0  0  0  0  0  0  0  0  0  0  0  0
   20.9896  -11.0442  -15.4222 C   0  0  0  0  0  0  0  0  0  0  0  0
   21.0652   -9.5866  -15.7023 C   0  0  1  0  0  0  0  0  0  0  0  0
   21.4276   -9.4085  -17.0351 O   0  0  0  0  0  0  0  0  0  0  0  0
   19.8109   -8.8285  -15.3665 C   0  0  2  0  0  0  0  0  0  0  0  0
   18.6763   -9.2646  -16.1466 N   0  0  0  0  0  0  0  0  0  0  0  0
   19.9954   -7.3603  -15.4088 C   0  0  0  0  0  0  0  0  0  0  0  0
   19.5691   -6.7523  -16.4240 O   0  0  0  0  0  0  0  0  0  0  0  0
   21.5159   -2.4426  -14.6335 N   0  0  0  0  0  0  0  0  0  0  0  0
   20.2042   -2.8659  -14.2102 C   0  0  0  0  0  0  0  0  0  0  0  0
   19.4045   -1.9621  -13.9172 O   0  0  0  0  0  0  0  0  0  0  0  0
   19.8366   -4.2798  -14.1304 C   0  0  0  0  0  0  0  0  0  0  0  0
   20.9302   -5.1810  -14.5281 C   0  0  2  0  0  0  0  0  0  0  0  0
   20.6160   -6.5907  -14.3903 N   0  0  0  0  0  0  0  0  0  0  0  0
   22.1549   -4.9001  -13.7569 C   0  0  0  0  0  0  0  0  0  0  0  0
   22.9116   -3.7235  -14.0203 O   0  0  0  0  0  0  0  0  0  0  0  0
   22.6424   -5.6036  -12.8486 O   0  0  0  0  0  0  0  0  0  0  0  0
  1  2  1  0
  2  3  1  0
  3  5  1  0
  3  4  1  1
  5 11  1  0
  6  5  2  0
  8  9  1  0
  8  7  1  6
 10 11  1  6
 10 12  1  0
 10  8  1  0
 12 19  1  0
 12 13  2  0
 15 14  1  0
 15 16  2  0
 17 15  1  0
 18 17  1  1
 18 20  1  0
 19 18  1  0
 20 22  2  0
 20 21  1  0
M  END
$$$$
