STN.pdb
     RDKit          3D

 22 21  0  0  1  0  0  0  0  0999 V2000
   18.0838  -13.4563  -17.0719 O   0  0  0  0  0  0  0  0  0  0  0  0
   19.1985  -12.6858  -16.7927 C   0  0  0  0  0  0  0  0  0  0  0  0
   20.2196  -12.7543  -17.9245 C   0  0  2  0  0  0  0  0  0  0  0  0
   20.6666  -14.1153  -18.0105 N   0  0  0  0  0  0  0  0  0  0  0  0
   21.3420  -11.8382  -17.7026 C   0  0  0  0  0  0  0  0  0  0  0  0
   22.2676  -12.0967  -16.8956 O   0  0  0  0  0  0  0  0  0  0  0  0
   23.8681  -10.3729  -20.1571 C   0  0  0  0  0  0  0  0  0  0  0  0
   23.1894   -9.2492  -19.4603 C   0  0  1  0  0  0  0  0  0  0  0  0
   22.3114   -8.6388  -20.3524 O   0  0  0  0  0  0  0  0  0  0  0  0
   22.4949   -9.6432  -18.1864 C   0  0  2  0  0  0  0  0  0  0  0  0
   21.4284  -10.5914  -18.4091 N   0  0  0  0  0  0  0  0  0  0  0  0
   22.0576   -8.4788  -17.3837 C   0  0  0  0  0  0  0  0  0  0  0  0
   20.8349   -8.1845  -17.4091 O   0  0  0  0  0  0  0  0  0  0  0  0
   20.7813   -5.3276  -13.1465 N   0  0  0  0  0  0  0  0  0  0  0  0
   22.1199   -5.4585  -13.6660 C   0  0  0  0  0  0  0  0  0  0  0  0
   22.8817   -4.4983  -13.4664 O   0  0  0  0  0  0  0  0  0  0  0  0
   22.5555   -6.6545  -14.3873 C   0  0  0  0  0  0  0  0  0  0  0  0
   22.4637   -6.5094  -15.8491 C   0  0  2  0  0  0  0  0  0  0  0  0
   22.9145   -7.6727  -16.5896 N   0  0  0  0  0  0  0  0  0  0  0  0
   23.2280   -5.3375  -16.3139 C   0  0  0  0  0  0  0  0  0  0  0  0
   22.6677   -4.0327  -16.2138 O   0  0  0  0  0  0  0  0  0  0  0  0
   24.3716   -5.3430  -16.8138 O   0  0  0  0  0  0  0  0  0  0  0  0
  1  2  1  0
  2  3  1  0
  3  5  1  0
  3  4  1  1
  5 11  1  0
  6  5  2  0
  8  9  1  0
  8  7  1  6
 10 11  1  6
 10 12  1  0
 10  8  1  0
 12 19  1  0
 12 13  2  0
 15 14  1  0
 15 16  2  0
 17 15  1  0
 18 17  1  1
 18 20  1  0
 19 18  1  0
 20 22  2  0
 20 21  1  0
M  END
$$$$
