STN.pdb
     RDKit          3D

 22 21  0  0  1  0  0  0  0  0999 V2000
   18.9027  -21.8641  -12.2381 O   0  0  0  0  0  0  0  0  0  0  0  0
   19.8780  -20.9848  -12.6738 C   0  0  0  0  0  0  0  0  0  0  0  0
   19.2622  -19.7380  -13.3020 C   0  0  2  0  0  0  0  0  0  0  0  0
   18.4267  -20.1765  -14.3833 N   0  0  0  0  0  0  0  0  0  0  0  0
   20.2869  -18.7991  -13.7676 C   0  0  0  0  0  0  0  0  0  0  0  0
   21.1768  -18.3479  -13.0065 O   0  0  0  0  0  0  0  0  0  0  0  0
   21.4456  -18.3146  -17.8712 C   0  0  0  0  0  0  0  0  0  0  0  0
   22.1276  -17.7633  -16.6714 C   0  0  1  0  0  0  0  0  0  0  0  0
   22.9835  -16.7422  -17.0767 O   0  0  0  0  0  0  0  0  0  0  0  0
   21.1924  -17.3008  -15.5887 C   0  0  2  0  0  0  0  0  0  0  0  0
   20.3137  -18.3520  -15.1316 N   0  0  0  0  0  0  0  0  0  0  0  0
   20.4582  -16.0668  -15.9486 C   0  0  0  0  0  0  0  0  0  0  0  0
   19.3702  -16.1997  -16.5656 O   0  0  0  0  0  0  0  0  0  0  0  0
   18.3696  -11.4076  -16.3703 N   0  0  0  0  0  0  0  0  0  0  0  0
   19.0845  -11.5047  -15.1219 C   0  0  0  0  0  0  0  0  0  0  0  0
   18.8977  -10.5836  -14.3103 O   0  0  0  0  0  0  0  0  0  0  0  0
   19.9788  -12.6247  -14.8285 C   0  0  0  0  0  0  0  0  0  0  0  0
   20.1169  -13.5604  -15.9562 C   0  0  2  0  0  0  0  0  0  0  0  0
   20.8908  -14.7485  -15.6490 N   0  0  0  0  0  0  0  0  0  0  0  0
   20.7270  -12.8971  -17.1230 C   0  0  0  0  0  0  0  0  0  0  0  0
   20.0485  -11.8278  -17.7734 O   0  0  0  0  0  0  0  0  0  0  0  0
   21.8276  -13.1690  -17.6449 O   0  0  0  0  0  0  0  0  0  0  0  0
  1  2  1  0
  2  3  1  0
  3  5  1  0
  3  4  1  6
  5 11  1  0
  6  5  2  0
  8  9  1  0
  8  7  1  6
 10 11  1  6
 10 12  1  0
 10  8  1  0
 12 19  1  0
 12 13  2  0
 15 14  1  0
 15 16  2  0
 17 15  1  0
 18 17  1  1
 18 20  1  0
 19 18  1  0
 20 22  2  0
 20 21  1  0
M  END
$$$$
