STN.pdb
     RDKit          3D

 22 21  0  0  1  0  0  0  0  0999 V2000
   16.8336  -12.5422  -18.2499 O   0  0  0  0  0  0  0  0  0  0  0  0
   17.5660  -12.0826  -17.1698 C   0  0  0  0  0  0  0  0  0  0  0  0
   18.9657  -12.6898  -17.1480 C   0  0  2  0  0  0  0  0  0  0  0  0
   18.8116  -14.1035  -16.9545 N   0  0  0  0  0  0  0  0  0  0  0  0
   19.8011  -12.0968  -16.0999 C   0  0  0  0  0  0  0  0  0  0  0  0
   19.5261  -12.2098  -14.8806 O   0  0  0  0  0  0  0  0  0  0  0  0
   23.9239  -11.6100  -16.2824 C   0  0  0  0  0  0  0  0  0  0  0  0
   23.0475  -11.3587  -15.1087 C   0  0  1  0  0  0  0  0  0  0  0  0
   23.7799  -10.6666  -14.1474 O   0  0  0  0  0  0  0  0  0  0  0  0
   21.7633  -10.6498  -15.4388 C   0  0  2  0  0  0  0  0  0  0  0  0
   20.9835  -11.3527  -16.4306 N   0  0  0  0  0  0  0  0  0  0  0  0
   21.9633   -9.2240  -15.7832 C   0  0  0  0  0  0  0  0  0  0  0  0
   22.4172   -8.9629  -16.9268 O   0  0  0  0  0  0  0  0  0  0  0  0
   22.2848   -4.0881  -16.0859 N   0  0  0  0  0  0  0  0  0  0  0  0
   21.0681   -4.7661  -16.4587 C   0  0  0  0  0  0  0  0  0  0  0  0
   20.2441   -4.0982  -17.1044 O   0  0  0  0  0  0  0  0  0  0  0  0
   20.8190   -6.1616  -16.0968 C   0  0  0  0  0  0  0  0  0  0  0  0
   21.8973   -6.7454  -15.2826 C   0  0  2  0  0  0  0  0  0  0  0  0
   21.6809   -8.1333  -14.9198 N   0  0  0  0  0  0  0  0  0  0  0  0
   22.1074   -5.9691  -14.0469 C   0  0  0  0  0  0  0  0  0  0  0  0
   22.3918   -4.5761  -14.1172 O   0  0  0  0  0  0  0  0  0  0  0  0
   22.0653   -6.4026  -12.8774 O   0  0  0  0  0  0  0  0  0  0  0  0
  1  2  1  0
  2  3  1  0
  3  5  1  0
  3  4  1  1
  5 11  1  0
  6  5  2  0
  8  9  1  0
  8  7  1  6
 10 11  1  6
 10 12  1  0
 10  8  1  0
 12 19  1  0
 12 13  2  0
 15 14  1  0
 15 16  2  0
 17 15  1  0
 18 17  1  1
 18 20  1  0
 19 18  1  0
 20 22  2  0
 20 21  1  0
M  END
$$$$
