STN.pdb
     RDKit          3D

 22 21  0  0  1  0  0  0  0  0999 V2000
   16.8396  -14.0200  -13.9101 O   0  0  0  0  0  0  0  0  0  0  0  0
   17.6695  -12.9998  -14.3400 C   0  0  0  0  0  0  0  0  0  0  0  0
   17.7375  -12.9430  -15.8633 C   0  0  2  0  0  0  0  0  0  0  0  0
   18.1973  -14.2251  -16.3154 N   0  0  0  0  0  0  0  0  0  0  0  0
   18.6166  -11.8670  -16.3301 C   0  0  0  0  0  0  0  0  0  0  0  0
   19.8142  -12.0704  -16.6452 O   0  0  0  0  0  0  0  0  0  0  0  0
   18.0847   -9.8266  -19.3710 C   0  0  0  0  0  0  0  0  0  0  0  0
   18.2733   -8.8668  -18.2521 C   0  0  1  0  0  0  0  0  0  0  0  0
   17.0412   -8.2949  -17.9448 O   0  0  0  0  0  0  0  0  0  0  0  0
   18.9242   -9.4605  -17.0336 C   0  0  2  0  0  0  0  0  0  0  0  0
   18.1362  -10.5192  -16.4469 N   0  0  0  0  0  0  0  0  0  0  0  0
   19.3289   -8.4400  -16.0406 C   0  0  0  0  0  0  0  0  0  0  0  0
   19.0721   -8.6748  -14.8318 O   0  0  0  0  0  0  0  0  0  0  0  0
   21.9773   -6.0828  -12.2283 N   0  0  0  0  0  0  0  0  0  0  0  0
   22.2530   -5.9663  -13.6388 C   0  0  0  0  0  0  0  0  0  0  0  0
   22.9985   -5.0323  -13.9763 O   0  0  0  0  0  0  0  0  0  0  0  0
   21.6864   -6.8957  -14.6164 C   0  0  0  0  0  0  0  0  0  0  0  0
   20.5427   -6.3307  -15.3506 C   0  0  2  0  0  0  0  0  0  0  0  0
   19.9837   -7.2197  -16.3517 N   0  0  0  0  0  0  0  0  0  0  0  0
   20.9094   -5.0628  -16.0076 C   0  0  0  0  0  0  0  0  0  0  0  0
   20.8358   -3.8370  -15.2875 O   0  0  0  0  0  0  0  0  0  0  0  0
   21.2991   -4.9177  -17.1843 O   0  0  0  0  0  0  0  0  0  0  0  0
  1  2  1  0
  2  3  1  0
  3  5  1  0
  3  4  1  1
  5 11  1  0
  6  5  2  0
  8  9  1  0
  8  7  1  6
 10 11  1  1
 10 12  1  0
 10  8  1  0
 12 19  1  0
 12 13  2  0
 15 14  1  0
 15 16  2  0
 17 15  1  0
 18 17  1  6
 18 20  1  0
 19 18  1  0
 20 22  2  0
 20 21  1  0
M  END
$$$$
