MRG.pdb
     RDKit          3D

 24 23  0  0  1  0  0  0  0  0999 V2000
   10.2371  -13.8591   30.2892 C   0  0  0  0  0  0  0  0  0  0  0  0
   10.3214  -13.8301   28.4892 S   0  0  0  0  0  0  0  0  0  0  0  0
    8.7365  -14.2720   27.7252 C   0  0  0  0  0  0  0  0  0  0  0  0
    8.6924  -15.7606   27.4257 C   0  0  0  0  0  0  0  0  0  0  0  0
    9.8855  -16.0648   26.5623 C   0  0  2  0  0  0  0  0  0  0  0  0
   10.6525  -14.8519   26.4079 N   0  0  0  0  0  0  0  0  0  0  0  0
    9.3914  -16.5777   25.2570 C   0  0  0  0  0  0  0  0  0  0  0  0
    8.7517  -17.6519   25.1988 O   0  0  0  0  0  0  0  0  0  0  0  0
    7.5952  -12.0270   19.0997 N   0  0  0  0  0  0  0  0  0  0  0  0
    8.6359  -12.9510   18.7322 C   0  0  0  0  0  0  0  0  0  0  0  0
    9.8187  -12.4872   18.5520 N   0  0  0  0  0  0  0  0  0  0  0  0
    8.3640  -14.3277   18.5755 N   0  0  0  0  0  0  0  0  0  0  0  0
    7.8727  -15.0928   19.7433 C   0  0  0  0  0  0  0  0  0  0  0  0
    8.5489  -14.6048   20.9729 C   0  0  0  0  0  0  0  0  0  0  0  0
    8.3778  -15.3388   22.2250 C   0  0  0  0  0  0  0  0  0  0  0  0
    9.3005  -16.3745   22.7222 C   0  0  2  0  0  0  0  0  0  0  0  0
    9.6597  -15.8295   24.0973 N   0  0  0  0  0  0  0  0  0  0  0  0
   10.5941  -16.5742   22.0897 C   0  0  0  0  0  0  0  0  0  0  0  0
   10.6638  -17.0987   20.9105 O   0  0  0  0  0  0  0  0  0  0  0  0
   10.6199  -13.0510   18.2181 N   0  0  0  0  0  0  0  0  0  0  0  0
   11.8769  -16.2470   22.6090 C   0  0  0  0  0  0  0  0  0  0  0  0
   13.1032  -16.4815   21.8800 C   0  0  0  0  0  0  0  0  0  0  0  0
   14.2905  -16.0035   22.6084 O   0  0  0  0  0  0  0  0  0  0  0  0
   15.5501  -16.0012   22.0442 O   0  0  0  0  0  0  0  0  0  0  0  0
  2  1  1  0
  3  2  1  0
  4  3  1  0
  5  4  1  0
  5  6  1  6
  7  5  1  0
  7  8  2  0
 10  9  1  0
 11 10  2  0
 12 10  1  0
 13 14  1  0
 13 12  1  0
 14 15  1  0
 16 15  1  6
 16 17  1  0
 17  7  1  0
 18 16  1  0
 19 18  2  0
 20 18  1  0
 21 20  1  0
 22 21  1  0
 22 23  1  0
 24 22  2  0
M  END
$$$$
