MRG.pdb
     RDKit          3D

 24 23  0  0  1  0  0  0  0  0999 V2000
    5.9700  -11.1515   27.2649 C   0  0  0  0  0  0  0  0  0  0  0  0
    6.6519  -12.5528   26.3598 S   0  0  0  0  0  0  0  0  0  0  0  0
    7.4616  -13.7463   27.4600 C   0  0  0  0  0  0  0  0  0  0  0  0
    8.1430  -14.8343   26.6478 C   0  0  0  0  0  0  0  0  0  0  0  0
    7.0776  -15.4762   25.8027 C   0  0  2  0  0  0  0  0  0  0  0  0
    6.3724  -16.4367   26.6173 N   0  0  0  0  0  0  0  0  0  0  0  0
    7.7391  -16.1188   24.6363 C   0  0  0  0  0  0  0  0  0  0  0  0
    8.0433  -17.3324   24.6690 O   0  0  0  0  0  0  0  0  0  0  0  0
    8.4842  -14.6519   14.9588 N   0  0  0  0  0  0  0  0  0  0  0  0
    8.3245  -14.1544   16.3001 C   0  0  0  0  0  0  0  0  0  0  0  0
    8.1342  -12.8953   16.4581 N   0  0  0  0  0  0  0  0  0  0  0  0
    8.3746  -15.0261   17.4097 N   0  0  0  0  0  0  0  0  0  0  0  0
    8.1390  -14.4709   18.7613 C   0  0  0  0  0  0  0  0  0  0  0  0
    8.3091  -15.5458   19.7728 C   0  0  0  0  0  0  0  0  0  0  0  0
    8.0743  -15.2466   21.1839 C   0  0  0  0  0  0  0  0  0  0  0  0
    8.7452  -15.9242   22.3073 C   0  0  2  0  0  0  0  0  0  0  0  0
    8.0122  -15.3328   23.5030 N   0  0  0  0  0  0  0  0  0  0  0  0
   10.1432  -15.6550   22.6014 C   0  0  0  0  0  0  0  0  0  0  0  0
   10.4593  -14.7620   23.4806 O   0  0  0  0  0  0  0  0  0  0  0  0
    8.0929  -12.4242   17.3788 N   0  0  0  0  0  0  0  0  0  0  0  0
   11.2880  -16.2779   22.0324 C   0  0  0  0  0  0  0  0  0  0  0  0
   12.6376  -15.8285   22.2914 C   0  0  0  0  0  0  0  0  0  0  0  0
   13.6479  -16.6759   21.6358 O   0  0  0  0  0  0  0  0  0  0  0  0
   14.9049  -16.8726   22.1709 O   0  0  0  0  0  0  0  0  0  0  0  0
  2  1  1  0
  3  2  1  0
  4  3  1  0
  5  4  1  0
  5  6  1  1
  7  5  1  0
  7  8  2  0
 10  9  1  0
 11 10  2  0
 12 10  1  0
 13 14  1  0
 13 12  1  0
 14 15  1  0
 16 15  1  6
 16 17  1  0
 17  7  1  0
 18 16  1  0
 19 18  2  0
 20 18  1  0
 21 20  1  0
 22 21  1  0
 22 23  1  0
 24 22  2  0
M  END
$$$$
