MRG.pdb
     RDKit          3D

 24 23  0  0  1  0  0  0  0  0999 V2000
    6.1461  -11.7849   27.6891 C   0  0  0  0  0  0  0  0  0  0  0  0
    7.2185  -13.0243   26.9398 S   0  0  0  0  0  0  0  0  0  0  0  0
    6.9698  -14.6687   27.6641 C   0  0  0  0  0  0  0  0  0  0  0  0
    7.9200  -15.6721   27.0333 C   0  0  0  0  0  0  0  0  0  0  0  0
    7.0700  -16.6734   26.3009 C   0  0  2  0  0  0  0  0  0  0  0  0
    7.1460  -17.9312   27.0048 N   0  0  0  0  0  0  0  0  0  0  0  0
    7.5838  -16.7850   24.9101 C   0  0  0  0  0  0  0  0  0  0  0  0
    7.8749  -17.9033   24.4294 O   0  0  0  0  0  0  0  0  0  0  0  0
    8.3121  -14.7246   17.7199 N   0  0  0  0  0  0  0  0  0  0  0  0
    8.4812  -13.3029   17.8683 C   0  0  0  0  0  0  0  0  0  0  0  0
    9.2091  -12.6887   17.0083 N   0  0  0  0  0  0  0  0  0  0  0  0
    7.8635  -12.6038   18.9283 N   0  0  0  0  0  0  0  0  0  0  0  0
    7.0453  -13.3636   19.8998 C   0  0  0  0  0  0  0  0  0  0  0  0
    7.8613  -13.6626   21.1048 C   0  0  0  0  0  0  0  0  0  0  0  0
    7.3819  -14.6512   22.0685 C   0  0  0  0  0  0  0  0  0  0  0  0
    8.2275  -15.6698   22.7155 C   0  0  2  0  0  0  0  0  0  0  0  0
    7.7331  -15.6092   24.1538 N   0  0  0  0  0  0  0  0  0  0  0  0
    9.6612  -15.4651   22.8423 C   0  0  0  0  0  0  0  0  0  0  0  0
   10.1151  -14.4985   23.5704 O   0  0  0  0  0  0  0  0  0  0  0  0
    9.4090  -11.6735   17.0346 N   0  0  0  0  0  0  0  0  0  0  0  0
   10.7051  -16.2285   22.2510 C   0  0  0  0  0  0  0  0  0  0  0  0
   12.1060  -15.9626   22.4905 C   0  0  0  0  0  0  0  0  0  0  0  0
   12.7835  -15.4083   21.3063 O   0  0  0  0  0  0  0  0  0  0  0  0
   12.1318  -15.2208   20.1043 O   0  0  0  0  0  0  0  0  0  0  0  0
  2  1  1  0
  3  2  1  0
  4  3  1  0
  5  4  1  0
  5  6  1  1
  7  5  1  0
  7  8  2  0
 10  9  1  0
 11 10  2  0
 12 10  1  0
 13 14  1  0
 13 12  1  0
 14 15  1  0
 16 15  1  6
 16 17  1  0
 17  7  1  0
 18 16  1  0
 19 18  2  0
 20 18  1  0
 21 20  1  0
 22 21  1  0
 22 23  1  0
 24 22  2  0
M  END
$$$$
