MRG.pdb
     RDKit          3D

 24 23  0  0  1  0  0  0  0  0999 V2000
    7.5525  -11.3655   26.2439 C   0  0  0  0  0  0  0  0  0  0  0  0
    6.1388  -12.1428   27.0470 S   0  0  0  0  0  0  0  0  0  0  0  0
    6.0698  -13.9273   26.7283 C   0  0  0  0  0  0  0  0  0  0  0  0
    6.7588  -14.2554   25.4148 C   0  0  0  0  0  0  0  0  0  0  0  0
    6.5189  -15.7166   25.1523 C   0  0  2  0  0  0  0  0  0  0  0  0
    7.1068  -16.4722   26.2325 N   0  0  0  0  0  0  0  0  0  0  0  0
    7.1318  -16.0563   23.8409 C   0  0  0  0  0  0  0  0  0  0  0  0
    6.7157  -17.0350   23.1809 O   0  0  0  0  0  0  0  0  0  0  0  0
    7.6574  -13.3059   16.2645 N   0  0  0  0  0  0  0  0  0  0  0  0
    8.4754  -13.9540   17.2558 C   0  0  0  0  0  0  0  0  0  0  0  0
    8.9789  -15.0988   16.9683 N   0  0  0  0  0  0  0  0  0  0  0  0
    8.7180  -13.3478   18.5078 N   0  0  0  0  0  0  0  0  0  0  0  0
    7.5625  -12.9938   19.3623 C   0  0  0  0  0  0  0  0  0  0  0  0
    7.4397  -13.9856   20.4616 C   0  0  0  0  0  0  0  0  0  0  0  0
    8.5998  -14.2708   21.3034 C   0  0  0  0  0  0  0  0  0  0  0  0
    8.8272  -15.5409   22.0149 C   0  0  2  0  0  0  0  0  0  0  0  0
    8.1841  -15.2549   23.3645 N   0  0  0  0  0  0  0  0  0  0  0  0
   10.1750  -15.9586   22.3649 C   0  0  0  0  0  0  0  0  0  0  0  0
   10.8889  -15.2371   23.1650 O   0  0  0  0  0  0  0  0  0  0  0  0
    9.5860  -15.6437   17.6052 N   0  0  0  0  0  0  0  0  0  0  0  0
   10.8640  -17.1258   21.9345 C   0  0  0  0  0  0  0  0  0  0  0  0
   12.1883  -17.4731   22.3992 C   0  0  0  0  0  0  0  0  0  0  0  0
   13.2323  -17.1564   21.4101 O   0  0  0  0  0  0  0  0  0  0  0  0
   14.5664  -17.4313   21.6326 O   0  0  0  0  0  0  0  0  0  0  0  0
  2  1  1  0
  3  2  1  0
  4  3  1  0
  5  4  1  0
  5  6  1  1
  7  5  1  0
  7  8  2  0
 10  9  1  0
 11 10  2  0
 12 10  1  0
 13 14  1  0
 13 12  1  0
 14 15  1  0
 16 15  1  6
 16 17  1  0
 17  7  1  0
 18 16  1  0
 19 18  2  0
 20 18  1  0
 21 20  1  0
 22 21  1  0
 22 23  1  0
 24 22  2  0
M  END
$$$$
