MRG.pdb
     RDKit          3D

 24 23  0  0  1  0  0  0  0  0999 V2000
    7.3760  -11.1422   20.2774 C   0  0  0  0  0  0  0  0  0  0  0  0
    6.6479  -12.6653   19.6464 S   0  0  0  0  0  0  0  0  0  0  0  0
    7.8675  -13.7008   18.7914 C   0  0  0  0  0  0  0  0  0  0  0  0
    9.2582  -13.1073   18.9374 C   0  0  0  0  0  0  0  0  0  0  0  0
   10.2062  -14.0486   18.2470 C   0  0  2  0  0  0  0  0  0  0  0  0
    9.5996  -15.3580   18.2153 N   0  0  0  0  0  0  0  0  0  0  0  0
   11.4869  -14.0497   19.0025 C   0  0  0  0  0  0  0  0  0  0  0  0
   12.2145  -13.0314   19.0185 O   0  0  0  0  0  0  0  0  0  0  0  0
   13.8439  -18.5736   25.3193 N   0  0  0  0  0  0  0  0  0  0  0  0
   15.1533  -18.1026   24.9513 C   0  0  0  0  0  0  0  0  0  0  0  0
   16.1632  -18.8395   25.2405 N   0  0  0  0  0  0  0  0  0  0  0  0
   15.3221  -16.8663   24.2901 N   0  0  0  0  0  0  0  0  0  0  0  0
   14.1556  -16.2569   23.6132 C   0  0  0  0  0  0  0  0  0  0  0  0
   13.9425  -16.9228   22.3023 C   0  0  0  0  0  0  0  0  0  0  0  0
   12.9454  -16.3856   21.3785 C   0  0  0  0  0  0  0  0  0  0  0  0
   13.1953  -15.2999   20.4141 C   0  0  2  0  0  0  0  0  0  0  0  0
   11.8570  -15.2166   19.6939 N   0  0  0  0  0  0  0  0  0  0  0  0
   14.1501  -15.4800   19.3327 C   0  0  0  0  0  0  0  0  0  0  0  0
   14.1458  -16.5715   18.6406 O   0  0  0  0  0  0  0  0  0  0  0  0
   17.1438  -18.5976   25.0140 N   0  0  0  0  0  0  0  0  0  0  0  0
   15.1469  -14.5672   18.8907 C   0  0  0  0  0  0  0  0  0  0  0  0
   16.4332  -14.9922   18.3853 C   0  0  0  0  0  0  0  0  0  0  0  0
   17.3245  -13.8575   18.0912 O   0  0  0  0  0  0  0  0  0  0  0  0
   18.5976  -14.0312   17.5871 O   0  0  0  0  0  0  0  0  0  0  0  0
  2  1  1  0
  3  2  1  0
  4  3  1  0
  5  4  1  0
  5  6  1  1
  7  5  1  0
  7  8  2  0
 10  9  1  0
 11 10  2  0
 12 10  1  0
 13 14  1  0
 13 12  1  0
 14 15  1  0
 16 15  1  1
 16 17  1  0
 17  7  1  0
 18 16  1  0
 19 18  2  0
 20 18  1  0
 21 20  1  0
 22 21  1  0
 22 23  1  0
 24 22  2  0
M  END
$$$$
