MRG.pdb
     RDKit          3D

 24 23  0  0  1  0  0  0  0  0999 V2000
    8.3498  -12.1964   28.0777 C   0  0  0  0  0  0  0  0  0  0  0  0
    7.0474  -11.6632   26.9519 S   0  0  0  0  0  0  0  0  0  0  0  0
    5.6706  -12.8430   26.8945 C   0  0  0  0  0  0  0  0  0  0  0  0
    5.7522  -13.6879   25.6348 C   0  0  0  0  0  0  0  0  0  0  0  0
    6.7191  -14.8032   25.9224 C   0  0  2  0  0  0  0  0  0  0  0  0
    7.8784  -14.2398   26.5721 N   0  0  0  0  0  0  0  0  0  0  0  0
    7.0690  -15.4545   24.6324 C   0  0  0  0  0  0  0  0  0  0  0  0
    6.1762  -15.9548   23.9119 O   0  0  0  0  0  0  0  0  0  0  0  0
    8.3686  -12.7292   18.4673 N   0  0  0  0  0  0  0  0  0  0  0  0
    8.3368  -13.9559   17.7150 C   0  0  0  0  0  0  0  0  0  0  0  0
    8.0098  -13.8956   16.4756 N   0  0  0  0  0  0  0  0  0  0  0  0
    8.6572  -15.1898   18.3222 N   0  0  0  0  0  0  0  0  0  0  0  0
    8.1539  -15.4626   19.6870 C   0  0  0  0  0  0  0  0  0  0  0  0
    8.7814  -14.5140   20.6429 C   0  0  0  0  0  0  0  0  0  0  0  0
    8.5433  -14.6770   22.0757 C   0  0  0  0  0  0  0  0  0  0  0  0
    8.8110  -15.9112   22.8348 C   0  0  2  0  0  0  0  0  0  0  0  0
    8.4201  -15.4936   24.2453 N   0  0  0  0  0  0  0  0  0  0  0  0
   10.1713  -16.3994   22.9920 C   0  0  0  0  0  0  0  0  0  0  0  0
   11.1234  -15.5777   23.2899 O   0  0  0  0  0  0  0  0  0  0  0  0
    8.0026  -14.7090   15.8356 N   0  0  0  0  0  0  0  0  0  0  0  0
   10.6358  -17.7375   22.8665 C   0  0  0  0  0  0  0  0  0  0  0  0
   11.1364  -18.2826   21.6244 C   0  0  0  0  0  0  0  0  0  0  0  0
   12.5324  -17.8941   21.3620 O   0  0  0  0  0  0  0  0  0  0  0  0
   13.4029  -18.7021   20.6590 O   0  0  0  0  0  0  0  0  0  0  0  0
  2  1  1  0
  3  2  1  0
  4  3  1  0
  5  4  1  0
  5  6  1  6
  7  5  1  0
  7  8  2  0
 10  9  1  0
 11 10  2  0
 12 10  1  0
 13 14  1  0
 13 12  1  0
 14 15  1  0
 16 15  1  6
 16 17  1  0
 17  7  1  0
 18 16  1  0
 19 18  2  0
 20 18  1  0
 21 20  1  0
 22 21  1  0
 22 23  1  0
 24 22  2  0
M  END
$$$$
