FEF.pdb
     RDKit          3D

 32 33  0  0  1  0  0  0  0  0999 V2000
    5.6268  -17.5467   21.9274 N   0  0  0  0  0  0  0  0  0  0  0  0
    6.7493  -16.6416   21.8190 C   0  0  1  0  0  0  0  0  0  0  0  0
    6.3850  -15.2221   22.1235 C   0  0  0  0  0  0  0  0  0  0  0  0
    7.1062  -14.2301   21.3072 C   0  0  0  0  0  0  0  0  0  0  0  0
    7.1373  -14.4155   19.9340 C   0  0  0  0  0  0  0  0  0  0  0  0
    7.7870  -13.5407   19.0879 C   0  0  0  0  0  0  0  0  0  0  0  0
    8.4369  -12.4345   19.5965 C   0  0  0  0  0  0  0  0  0  0  0  0
    8.3922  -12.2707   20.9686 C   0  0  0  0  0  0  0  0  0  0  0  0
    7.7481  -13.1361   21.8178 C   0  0  0  0  0  0  0  0  0  0  0  0
    7.7697  -17.0592   22.8345 C   0  0  0  0  0  0  0  0  0  0  0  0
    7.3889  -17.4626   23.9483 O   0  0  0  0  0  0  0  0  0  0  0  0
    9.1390  -16.9960   22.5326 N   0  0  0  0  0  0  0  0  0  0  0  0
   10.1897  -17.3971   23.3938 C   0  0  1  0  0  0  0  0  0  0  0  0
   11.5456  -17.6051   22.7362 C   0  0  0  0  0  0  0  0  0  0  0  0
   12.5935  -18.1301   23.6790 C   0  0  0  0  0  0  0  0  0  0  0  0
   13.8358  -18.3455   22.8616 C   0  0  0  0  0  0  0  0  0  0  0  0
   14.0879  -19.4975   22.4577 O   0  0  0  0  0  0  0  0  0  0  0  0
   10.3782  -16.6113   24.6113 C   0  0  0  0  0  0  0  0  0  0  0  0
   10.8722  -15.4323   24.4897 O   0  0  0  0  0  0  0  0  0  0  0  0
   14.6961  -17.3112   22.5497 O   0  0  0  0  0  0  0  0  0  0  0  0
   10.0695  -17.0197   25.9140 N   0  0  0  0  0  0  0  0  0  0  0  0
   10.3112  -16.1799   27.0923 C   0  0  1  0  0  0  0  0  0  0  0  0
    8.9415  -15.9491   27.7236 C   0  0  0  0  0  0  0  0  0  0  0  0
    8.1842  -14.9095   26.9979 C   0  0  0  0  0  0  0  0  0  0  0  0
    7.1804  -15.1855   26.1142 C   0  0  0  0  0  0  0  0  0  0  0  0
    6.5322  -14.1340   25.4856 C   0  0  0  0  0  0  0  0  0  0  0  0
    6.8639  -12.8159   25.7196 C   0  0  0  0  0  0  0  0  0  0  0  0
    7.8766  -12.5330   26.6108 C   0  0  0  0  0  0  0  0  0  0  0  0
    8.5179  -13.5941   27.2337 C   0  0  0  0  0  0  0  0  0  0  0  0
   11.1212  -16.9079   28.1010 C   0  0  0  0  0  0  0  0  0  0  0  0
   11.3593  -18.1248   27.8913 O   0  0  0  0  0  0  0  0  0  0  0  0
   11.6230  -16.3446   29.2379 O   0  0  0  0  0  0  0  0  0  0  0  0
  2  1  1  1
  3  2  1  0
  4  5  2  0
  4  3  1  0
  6  5  1  0
  7  6  2  0
  8  7  1  0
  8  9  2  0
  9  4  1  0
 10 12  1  0
 10  2  1  0
 11 10  2  0
 13 12  1  0
 14 15  1  0
 13 14  1  6
 15 16  1  0
 16 17  2  0
 18 21  1  0
 18 13  1  0
 19 18  2  0
 20 16  1  0
 22 21  1  0
 22 30  1  0
 23 24  1  0
 22 23  1  1
 24 29  1  0
 25 24  2  0
 25 26  1  0
 26 27  2  0
 27 28  1  0
 29 28  2  0
 30 32  1  0
 31 30  2  0
M  END
$$$$
