FEF.pdb
     RDKit          3D

 32 33  0  0  1  0  0  0  0  0999 V2000
    5.8795  -16.8080   25.0408 N   0  0  0  0  0  0  0  0  0  0  0  0
    6.9717  -16.0285   24.5019 C   0  0  1  0  0  0  0  0  0  0  0  0
    7.4341  -14.9515   25.4328 C   0  0  0  0  0  0  0  0  0  0  0  0
    6.7132  -13.6759   25.2783 C   0  0  0  0  0  0  0  0  0  0  0  0
    7.2073  -12.7545   24.3684 C   0  0  0  0  0  0  0  0  0  0  0  0
    6.6013  -11.5338   24.1545 C   0  0  0  0  0  0  0  0  0  0  0  0
    5.4632  -11.1900   24.8553 C   0  0  0  0  0  0  0  0  0  0  0  0
    4.9891  -12.1247   25.7569 C   0  0  0  0  0  0  0  0  0  0  0  0
    5.5858  -13.3416   25.9760 C   0  0  0  0  0  0  0  0  0  0  0  0
    8.1317  -16.9548   24.2936 C   0  0  0  0  0  0  0  0  0  0  0  0
    8.2401  -17.9644   25.0128 O   0  0  0  0  0  0  0  0  0  0  0  0
    9.0848  -16.6865   23.2987 N   0  0  0  0  0  0  0  0  0  0  0  0
   10.3878  -17.2388   23.2387 C   0  0  1  0  0  0  0  0  0  0  0  0
   11.2291  -16.8287   22.0395 C   0  0  0  0  0  0  0  0  0  0  0  0
   12.4469  -17.6890   21.8408 C   0  0  0  0  0  0  0  0  0  0  0  0
   12.9508  -17.4044   20.4541 C   0  0  0  0  0  0  0  0  0  0  0  0
   14.1018  -16.9440   20.3239 O   0  0  0  0  0  0  0  0  0  0  0  0
   11.2068  -17.1235   24.4434 C   0  0  0  0  0  0  0  0  0  0  0  0
   12.0754  -16.1787   24.4860 O   0  0  0  0  0  0  0  0  0  0  0  0
   12.1798  -17.6373   19.3323 O   0  0  0  0  0  0  0  0  0  0  0  0
   11.1383  -17.9499   25.5710 N   0  0  0  0  0  0  0  0  0  0  0  0
   12.1236  -17.9023   26.6567 C   0  0  1  0  0  0  0  0  0  0  0  0
   11.3179  -17.7117   27.9383 C   0  0  0  0  0  0  0  0  0  0  0  0
   10.8501  -16.3177   28.0759 C   0  0  0  0  0  0  0  0  0  0  0  0
   11.6245  -15.3071   28.5693 C   0  0  0  0  0  0  0  0  0  0  0  0
   11.0879  -14.0322   28.6566 C   0  0  0  0  0  0  0  0  0  0  0  0
    9.7977  -13.7451   28.2628 C   0  0  0  0  0  0  0  0  0  0  0  0
    9.0126  -14.7625   27.7642 C   0  0  0  0  0  0  0  0  0  0  0  0
    9.5611  -16.0343   27.6817 C   0  0  0  0  0  0  0  0  0  0  0  0
   12.8235  -19.2046   26.7906 C   0  0  0  0  0  0  0  0  0  0  0  0
   13.7986  -19.2651   27.5824 O   0  0  0  0  0  0  0  0  0  0  0  0
   12.4789  -20.3373   26.1125 O   0  0  0  0  0  0  0  0  0  0  0  0
  2  1  1  1
  3  2  1  0
  4  5  2  0
  4  3  1  0
  6  5  1  0
  7  6  2  0
  8  7  1  0
  8  9  2  0
  9  4  1  0
 10 12  1  0
 10  2  1  0
 11 10  2  0
 13 12  1  0
 14 15  1  0
 13 14  1  6
 15 16  1  0
 16 17  2  0
 18 21  1  0
 18 13  1  0
 19 18  2  0
 20 16  1  0
 22 21  1  0
 22 30  1  0
 23 24  1  0
 22 23  1  1
 24 29  1  0
 25 24  2  0
 25 26  1  0
 26 27  2  0
 27 28  1  0
 29 28  2  0
 30 32  1  0
 31 30  2  0
M  END
$$$$
