FEF.pdb
     RDKit          3D

 32 33  0  0  1  0  0  0  0  0999 V2000
    6.2629  -18.3707   21.4238 N   0  0  0  0  0  0  0  0  0  0  0  0
    7.0002  -17.1276   21.4710 C   0  0  1  0  0  0  0  0  0  0  0  0
    6.1293  -15.9439   21.7554 C   0  0  0  0  0  0  0  0  0  0  0  0
    6.8391  -14.6535   21.7109 C   0  0  0  0  0  0  0  0  0  0  0  0
    7.1370  -14.1165   20.4684 C   0  0  0  0  0  0  0  0  0  0  0  0
    7.7984  -12.9143   20.3257 C   0  0  0  0  0  0  0  0  0  0  0  0
    8.1894  -12.1991   21.4394 C   0  0  0  0  0  0  0  0  0  0  0  0
    7.8815  -12.7545   22.6674 C   0  0  0  0  0  0  0  0  0  0  0  0
    7.2237  -13.9501   22.8185 C   0  0  0  0  0  0  0  0  0  0  0  0
    7.9859  -17.2262   22.5960 C   0  0  0  0  0  0  0  0  0  0  0  0
    7.6473  -17.7884   23.6532 O   0  0  0  0  0  0  0  0  0  0  0  0
    9.2760  -16.6906   22.4586 N   0  0  0  0  0  0  0  0  0  0  0  0
   10.3739  -16.9629   23.3113 C   0  0  1  0  0  0  0  0  0  0  0  0
   11.7426  -16.9809   22.6476 C   0  0  0  0  0  0  0  0  0  0  0  0
   11.8880  -18.0559   21.6055 C   0  0  0  0  0  0  0  0  0  0  0  0
   13.2802  -17.9322   21.0540 C   0  0  0  0  0  0  0  0  0  0  0  0
   14.1908  -17.5604   21.8197 O   0  0  0  0  0  0  0  0  0  0  0  0
   10.4626  -16.1774   24.5403 C   0  0  0  0  0  0  0  0  0  0  0  0
   11.1298  -15.0810   24.5006 O   0  0  0  0  0  0  0  0  0  0  0  0
   13.5738  -18.2167   19.7349 O   0  0  0  0  0  0  0  0  0  0  0  0
    9.8849  -16.5039   25.7727 N   0  0  0  0  0  0  0  0  0  0  0  0
   10.1597  -15.7581   27.0057 C   0  0  1  0  0  0  0  0  0  0  0  0
    8.7945  -15.4016   27.5862 C   0  0  0  0  0  0  0  0  0  0  0  0
    8.0877  -14.4239   26.7344 C   0  0  0  0  0  0  0  0  0  0  0  0
    7.0954  -14.7633   25.8598 C   0  0  0  0  0  0  0  0  0  0  0  0
    6.4959  -13.7666   25.1060 C   0  0  0  0  0  0  0  0  0  0  0  0
    6.8647  -12.4415   25.2063 C   0  0  0  0  0  0  0  0  0  0  0  0
    7.8659  -12.0947   26.0880 C   0  0  0  0  0  0  0  0  0  0  0  0
    8.4584  -13.1013   26.8369 C   0  0  0  0  0  0  0  0  0  0  0  0
   10.8287  -16.6251   28.0079 C   0  0  0  0  0  0  0  0  0  0  0  0
   11.1832  -16.0975   29.0930 O   0  0  0  0  0  0  0  0  0  0  0  0
   11.0835  -17.9535   27.8292 O   0  0  0  0  0  0  0  0  0  0  0  0
  2  1  1  1
  3  2  1  0
  4  5  2  0
  4  3  1  0
  6  5  1  0
  7  6  2  0
  8  7  1  0
  8  9  2  0
  9  4  1  0
 10 12  1  0
 10  2  1  0
 11 10  2  0
 13 12  1  0
 14 15  1  0
 13 14  1  6
 15 16  1  0
 16 17  2  0
 18 21  1  0
 18 13  1  0
 19 18  2  0
 20 16  1  0
 22 21  1  0
 22 30  1  0
 23 24  1  0
 22 23  1  1
 24 29  1  0
 25 24  2  0
 25 26  1  0
 26 27  2  0
 27 28  1  0
 29 28  2  0
 30 32  1  0
 31 30  2  0
M  END
$$$$
