FEF.pdb
     RDKit          3D

 32 33  0  0  1  0  0  0  0  0999 V2000
    6.0478  -18.8116   21.4339 N   0  0  0  0  0  0  0  0  0  0  0  0
    6.8820  -17.6324   21.3676 C   0  0  1  0  0  0  0  0  0  0  0  0
    6.2386  -16.4280   21.9809 C   0  0  0  0  0  0  0  0  0  0  0  0
    6.9965  -15.1796   21.7864 C   0  0  0  0  0  0  0  0  0  0  0  0
    7.3050  -14.4238   22.9065 C   0  0  0  0  0  0  0  0  0  0  0  0
    8.0105  -13.2411   22.8247 C   0  0  0  0  0  0  0  0  0  0  0  0
    8.4370  -12.7689   21.6000 C   0  0  0  0  0  0  0  0  0  0  0  0
    8.1176  -13.5396   20.4976 C   0  0  0  0  0  0  0  0  0  0  0  0
    7.4160  -14.7175   20.5699 C   0  0  0  0  0  0  0  0  0  0  0  0
    8.1272  -17.9117   22.1541 C   0  0  0  0  0  0  0  0  0  0  0  0
    8.0276  -18.3191   23.3256 O   0  0  0  0  0  0  0  0  0  0  0  0
    9.3911  -17.7159   21.5758 N   0  0  0  0  0  0  0  0  0  0  0  0
   10.6309  -17.8371   22.2501 C   0  0  1  0  0  0  0  0  0  0  0  0
   11.8741  -17.6317   21.3977 C   0  0  0  0  0  0  0  0  0  0  0  0
   11.9452  -16.2704   20.7617 C   0  0  0  0  0  0  0  0  0  0  0  0
   13.1159  -16.2982   19.8201 C   0  0  0  0  0  0  0  0  0  0  0  0
   14.2599  -16.1468   20.2913 O   0  0  0  0  0  0  0  0  0  0  0  0
   10.7836  -17.0750   23.4875 C   0  0  0  0  0  0  0  0  0  0  0  0
   11.6494  -16.1267   23.5010 O   0  0  0  0  0  0  0  0  0  0  0  0
   12.9587  -16.4852   18.4609 O   0  0  0  0  0  0  0  0  0  0  0  0
   10.0709  -17.2767   24.6751 N   0  0  0  0  0  0  0  0  0  0  0  0
    9.9680  -16.2594   25.7270 C   0  0  1  0  0  0  0  0  0  0  0  0
    9.2355  -15.0811   25.0923 C   0  0  0  0  0  0  0  0  0  0  0  0
    8.8753  -14.0659   26.1026 C   0  0  0  0  0  0  0  0  0  0  0  0
    9.7658  -13.5383   26.9932 C   0  0  0  0  0  0  0  0  0  0  0  0
    9.3238  -12.5894   27.9015 C   0  0  0  0  0  0  0  0  0  0  0  0
    8.0148  -12.1567   27.9398 C   0  0  0  0  0  0  0  0  0  0  0  0
    7.1127  -12.6868   27.0424 C   0  0  0  0  0  0  0  0  0  0  0  0
    7.5672  -13.6359   26.1381 C   0  0  0  0  0  0  0  0  0  0  0  0
    9.1097  -16.7372   26.8399 C   0  0  0  0  0  0  0  0  0  0  0  0
    9.1954  -16.1384   27.9425 O   0  0  0  0  0  0  0  0  0  0  0  0
    8.2360  -17.7809   26.7452 O   0  0  0  0  0  0  0  0  0  0  0  0
  2  1  1  1
  3  2  1  0
  4  5  2  0
  4  3  1  0
  6  5  1  0
  7  6  2  0
  8  7  1  0
  8  9  2  0
  9  4  1  0
 10 12  1  0
 10  2  1  0
 11 10  2  0
 13 12  1  0
 14 15  1  0
 13 14  1  6
 15 16  1  0
 16 17  2  0
 18 21  1  0
 18 13  1  0
 19 18  2  0
 20 16  1  0
 22 21  1  0
 22 30  1  0
 23 24  1  0
 22 23  1  6
 24 29  1  0
 25 24  2  0
 25 26  1  0
 26 27  2  0
 27 28  1  0
 29 28  2  0
 30 32  1  0
 31 30  2  0
M  END
$$$$
