FEF.pdb
     RDKit          3D

 32 33  0  0  1  0  0  0  0  0999 V2000
    5.6714  -17.7189   21.8887 N   0  0  0  0  0  0  0  0  0  0  0  0
    6.6149  -16.6735   21.5604 C   0  0  1  0  0  0  0  0  0  0  0  0
    6.0141  -15.3041   21.6270 C   0  0  0  0  0  0  0  0  0  0  0  0
    6.8804  -14.2429   21.0848 C   0  0  0  0  0  0  0  0  0  0  0  0
    7.4582  -13.3541   21.9776 C   0  0  0  0  0  0  0  0  0  0  0  0
    8.2833  -12.3284   21.5649 C   0  0  0  0  0  0  0  0  0  0  0  0
    8.5613  -12.1559   20.2241 C   0  0  0  0  0  0  0  0  0  0  0  0
    7.9737  -13.0543   19.3528 C   0  0  0  0  0  0  0  0  0  0  0  0
    7.1516  -14.0777   19.7548 C   0  0  0  0  0  0  0  0  0  0  0  0
    7.7152  -16.7186   22.5774 C   0  0  0  0  0  0  0  0  0  0  0  0
    7.4424  -17.0120   23.7554 O   0  0  0  0  0  0  0  0  0  0  0  0
    9.0382  -16.4334   22.2051 N   0  0  0  0  0  0  0  0  0  0  0  0
   10.1899  -16.7244   22.9768 C   0  0  1  0  0  0  0  0  0  0  0  0
   11.5270  -16.4619   22.3005 C   0  0  0  0  0  0  0  0  0  0  0  0
   12.6981  -17.0421   23.0452 C   0  0  0  0  0  0  0  0  0  0  0  0
   13.8306  -17.1293   22.0615 C   0  0  0  0  0  0  0  0  0  0  0  0
   14.6441  -18.0668   22.1749 O   0  0  0  0  0  0  0  0  0  0  0  0
   10.2341  -16.1684   24.3275 C   0  0  0  0  0  0  0  0  0  0  0  0
   10.7626  -15.0077   24.4777 O   0  0  0  0  0  0  0  0  0  0  0  0
   13.9916  -16.2074   21.0459 O   0  0  0  0  0  0  0  0  0  0  0  0
    9.7510  -16.7815   25.4893 N   0  0  0  0  0  0  0  0  0  0  0  0
   10.1274  -16.3444   26.8381 C   0  0  1  0  0  0  0  0  0  0  0  0
    8.8249  -16.2786   27.6299 C   0  0  0  0  0  0  0  0  0  0  0  0
    8.0587  -15.0592   27.3026 C   0  0  0  0  0  0  0  0  0  0  0  0
    6.8358  -15.0766   26.6953 C   0  0  0  0  0  0  0  0  0  0  0  0
    6.2003  -13.8734   26.4323 C   0  0  0  0  0  0  0  0  0  0  0  0
    6.7581  -12.6558   26.7617 C   0  0  0  0  0  0  0  0  0  0  0  0
    7.9925  -12.6339   27.3749 C   0  0  0  0  0  0  0  0  0  0  0  0
    8.6185  -13.8449   27.6329 C   0  0  0  0  0  0  0  0  0  0  0  0
   10.9735  -17.3651   27.5058 C   0  0  0  0  0  0  0  0  0  0  0  0
   11.3637  -17.1252   28.6770 O   0  0  0  0  0  0  0  0  0  0  0  0
   11.3547  -18.5435   26.9334 O   0  0  0  0  0  0  0  0  0  0  0  0
  2  1  1  1
  3  2  1  0
  4  5  2  0
  4  3  1  0
  6  5  1  0
  7  6  2  0
  8  7  1  0
  8  9  2  0
  9  4  1  0
 10 12  1  0
 10  2  1  0
 11 10  2  0
 13 12  1  0
 14 15  1  0
 13 14  1  6
 15 16  1  0
 16 17  2  0
 18 21  1  0
 18 13  1  0
 19 18  2  0
 20 16  1  0
 22 21  1  0
 22 30  1  0
 23 24  1  0
 22 23  1  1
 24 29  1  0
 25 24  2  0
 25 26  1  0
 26 27  2  0
 27 28  1  0
 29 28  2  0
 30 32  1  0
 31 30  2  0
M  END
$$$$
