FEF.pdb
     RDKit          3D

 32 33  0  0  1  0  0  0  0  0999 V2000
    6.3780  -17.2348   21.6692 N   0  0  0  0  0  0  0  0  0  0  0  0
    7.1149  -16.2479   22.4268 C   0  0  1  0  0  0  0  0  0  0  0  0
    6.3587  -15.7415   23.6151 C   0  0  0  0  0  0  0  0  0  0  0  0
    7.0242  -14.6325   24.3207 C   0  0  0  0  0  0  0  0  0  0  0  0
    6.8517  -14.5364   25.6925 C   0  0  0  0  0  0  0  0  0  0  0  0
    7.4346  -13.5334   26.4390 C   0  0  0  0  0  0  0  0  0  0  0  0
    8.2216  -12.5788   25.8273 C   0  0  0  0  0  0  0  0  0  0  0  0
    8.3791  -12.6952   24.4587 C   0  0  0  0  0  0  0  0  0  0  0  0
    7.8027  -13.6900   23.7082 C   0  0  0  0  0  0  0  0  0  0  0  0
    8.3562  -16.9080   22.9467 C   0  0  0  0  0  0  0  0  0  0  0  0
    8.2585  -17.9787   23.5731 O   0  0  0  0  0  0  0  0  0  0  0  0
    9.6145  -16.3251   22.7294 N   0  0  0  0  0  0  0  0  0  0  0  0
   10.8609  -16.9197   23.0447 C   0  0  1  0  0  0  0  0  0  0  0  0
   12.0512  -16.4420   22.2265 C   0  0  0  0  0  0  0  0  0  0  0  0
   13.3169  -17.2033   22.5111 C   0  0  0  0  0  0  0  0  0  0  0  0
   14.1884  -17.0548   21.2961 C   0  0  0  0  0  0  0  0  0  0  0  0
   14.3821  -18.0558   20.5790 O   0  0  0  0  0  0  0  0  0  0  0  0
   11.2427  -16.9381   24.4551 C   0  0  0  0  0  0  0  0  0  0  0  0
   12.3376  -16.3537   24.7844 O   0  0  0  0  0  0  0  0  0  0  0  0
   14.7739  -15.8509   20.9571 O   0  0  0  0  0  0  0  0  0  0  0  0
   10.5248  -17.5360   25.4974 N   0  0  0  0  0  0  0  0  0  0  0  0
   11.0667  -17.6954   26.8512 C   0  0  1  0  0  0  0  0  0  0  0  0
    9.9171  -17.3646   27.7982 C   0  0  0  0  0  0  0  0  0  0  0  0
    9.6214  -15.9176   27.7987 C   0  0  0  0  0  0  0  0  0  0  0  0
    8.9983  -15.2744   26.7678 C   0  0  0  0  0  0  0  0  0  0  0  0
    8.7678  -13.9115   26.8691 C   0  0  0  0  0  0  0  0  0  0  0  0
    9.1451  -13.1785   27.9748 C   0  0  0  0  0  0  0  0  0  0  0  0
    9.7744  -13.8241   29.0175 C   0  0  0  0  0  0  0  0  0  0  0  0
    9.9995  -15.1885   28.9044 C   0  0  0  0  0  0  0  0  0  0  0  0
   11.4297  -19.1113   27.1101 C   0  0  0  0  0  0  0  0  0  0  0  0
   11.9846  -19.3812   28.2059 O   0  0  0  0  0  0  0  0  0  0  0  0
   11.2013  -20.1365   26.2392 O   0  0  0  0  0  0  0  0  0  0  0  0
  2  1  1  1
  3  2  1  0
  4  5  2  0
  4  3  1  0
  6  5  1  0
  7  6  2  0
  8  7  1  0
  8  9  2  0
  9  4  1  0
 10 12  1  0
 10  2  1  0
 11 10  2  0
 13 12  1  0
 14 15  1  0
 13 14  1  6
 15 16  1  0
 16 17  2  0
 18 21  1  0
 18 13  1  0
 19 18  2  0
 20 16  1  0
 22 21  1  0
 22 30  1  0
 23 24  1  0
 22 23  1  1
 24 29  1  0
 25 24  2  0
 25 26  1  0
 26 27  2  0
 27 28  1  0
 29 28  2  0
 30 32  1  0
 31 30  2  0
M  END
$$$$
