PYH.pdb
     RDKit          3D

 30 32  0  0  1  0  0  0  0  0999 V2000
   25.3993  -11.7338  -20.6071 N   0  0  0  0  0  0  0  0  0  0  0  0
   25.5159  -12.7573  -21.6579 C   0  0  0  0  0  0  0  0  0  0  0  0
   25.8058  -13.9827  -20.8163 C   0  0  0  0  0  0  0  0  0  0  0  0
   24.9868  -13.7537  -19.5431 C   0  0  0  0  0  0  0  0  0  0  0  0
   24.4137  -12.3642  -19.7520 C   0  0  1  0  0  0  0  0  0  0  0  0
   24.2430  -11.6663  -18.4556 C   0  0  0  0  0  0  0  0  0  0  0  0
   23.5717  -12.1933  -17.5308 O   0  0  0  0  0  0  0  0  0  0  0  0
   30.0771  -13.1904  -16.2803 O   0  0  0  0  0  0  0  0  0  0  0  0
   29.1001  -12.1947  -16.3553 C   0  0  0  0  0  0  0  0  0  0  0  0
   29.0583  -11.3230  -17.4371 C   0  0  0  0  0  0  0  0  0  0  0  0
   28.0972  -10.3417  -17.5135 C   0  0  0  0  0  0  0  0  0  0  0  0
   27.1415  -10.1763  -16.5350 C   0  0  0  0  0  0  0  0  0  0  0  0
   26.1117   -9.1098  -16.6383 C   0  0  0  0  0  0  0  0  0  0  0  0
   24.7729   -9.6672  -17.0649 C   0  0  2  0  0  0  0  0  0  0  0  0
   24.8558  -10.4046  -18.3035 N   0  0  0  0  0  0  0  0  0  0  0  0
   23.8298   -8.5296  -17.2048 C   0  0  0  0  0  0  0  0  0  0  0  0
   23.7765   -7.9210  -18.3009 O   0  0  0  0  0  0  0  0  0  0  0  0
   27.1806  -11.0382  -15.4625 C   0  0  0  0  0  0  0  0  0  0  0  0
   28.1517  -12.0393  -15.3729 C   0  0  0  0  0  0  0  0  0  0  0  0
   22.9833   -8.0884  -16.1715 N   0  0  0  0  0  0  0  0  0  0  0  0
   21.9439   -7.0881  -16.3085 C   0  0  1  0  0  0  0  0  0  0  0  0
   20.8574   -7.5701  -17.2661 C   0  0  0  0  0  0  0  0  0  0  0  0
   19.8510   -6.4767  -17.4126 C   0  0  0  0  0  0  0  0  0  0  0  0
   19.8375   -5.2341  -16.8289 C   0  0  0  0  0  0  0  0  0  0  0  0
   18.7430   -4.5339  -17.2209 N   0  0  0  0  0  0  0  0  0  0  0  0
   18.0785   -5.3557  -18.0538 C   0  0  0  0  0  0  0  0  0  0  0  0
   18.7299   -6.5277  -18.1808 N   0  0  0  0  0  0  0  0  0  0  0  0
   21.3260   -6.9282  -14.9516 C   0  0  0  0  0  0  0  0  0  0  0  0
   21.5690   -7.8719  -13.9641 O   0  0  0  0  0  0  0  0  0  0  0  0
   20.5807   -5.9603  -14.6528 O   0  0  0  0  0  0  0  0  0  0  0  0
  1  5  1  0
  2  3  1  0
  2  1  1  0
  3  4  1  0
  4  5  1  0
  5  6  1  1
  6  7  2  0
  8  9  1  0
  9 10  2  0
  9 19  1  0
 10 11  1  0
 11 12  2  0
 12 13  1  0
 14 13  1  6
 14 16  1  0
 15  6  1  0
 15 14  1  0
 16 17  2  0
 18 12  1  0
 19 18  2  0
 20 21  1  0
 20 16  1  0
 21 28  1  0
 21 22  1  6
 23 24  2  0
 23 22  1  0
 25 24  1  0
 26 27  2  0
 26 25  1  0
 27 23  1  0
 28 30  2  0
 28 29  1  0
M  END
$$$$
