PYH.pdb
     RDKit          3D

 30 32  0  0  1  0  0  0  0  0999 V2000
   22.0771  -10.9692  -15.9192 N   0  0  0  0  0  0  0  0  0  0  0  0
   22.6383  -12.3075  -15.6753 C   0  0  0  0  0  0  0  0  0  0  0  0
   23.9640  -11.9380  -15.0428 C   0  0  0  0  0  0  0  0  0  0  0  0
   23.6442  -10.6785  -14.2332 C   0  0  0  0  0  0  0  0  0  0  0  0
   22.1954  -10.4025  -14.5906 C   0  0  1  0  0  0  0  0  0  0  0  0
   21.9142   -8.9477  -14.5564 C   0  0  0  0  0  0  0  0  0  0  0  0
   22.0600   -8.2945  -13.4906 O   0  0  0  0  0  0  0  0  0  0  0  0
   22.7598   -9.3516  -21.5368 O   0  0  0  0  0  0  0  0  0  0  0  0
   22.5957   -8.5851  -20.3806 C   0  0  0  0  0  0  0  0  0  0  0  0
   21.4691   -7.7886  -20.2123 C   0  0  0  0  0  0  0  0  0  0  0  0
   21.3051   -7.0328  -19.0745 C   0  0  0  0  0  0  0  0  0  0  0  0
   22.2364   -7.0278  -18.0593 C   0  0  0  0  0  0  0  0  0  0  0  0
   22.0385   -6.2042  -16.8382 C   0  0  0  0  0  0  0  0  0  0  0  0
   21.1894   -6.9215  -15.8137 C   0  0  2  0  0  0  0  0  0  0  0  0
   21.4825   -8.3340  -15.7512 N   0  0  0  0  0  0  0  0  0  0  0  0
   19.7651   -6.7064  -16.1717 C   0  0  0  0  0  0  0  0  0  0  0  0
   19.2597   -7.4048  -17.0836 O   0  0  0  0  0  0  0  0  0  0  0  0
   23.3532   -7.8156  -18.2234 C   0  0  0  0  0  0  0  0  0  0  0  0
   23.5318   -8.5881  -19.3743 C   0  0  0  0  0  0  0  0  0  0  0  0
   18.9392   -5.7567  -15.5434 N   0  0  0  0  0  0  0  0  0  0  0  0
   17.5366   -5.5405  -15.8361 C   0  0  1  0  0  0  0  0  0  0  0  0
   16.6625   -6.0900  -14.7120 C   0  0  0  0  0  0  0  0  0  0  0  0
   16.6855   -7.5808  -14.7940 C   0  0  0  0  0  0  0  0  0  0  0  0
   17.2602   -8.4824  -13.9327 C   0  0  0  0  0  0  0  0  0  0  0  0
   17.0570   -9.7527  -14.3653 N   0  0  0  0  0  0  0  0  0  0  0  0
   16.3504   -9.6287  -15.5037 C   0  0  0  0  0  0  0  0  0  0  0  0
   16.1180   -8.3304  -15.7767 N   0  0  0  0  0  0  0  0  0  0  0  0
   17.3377   -4.0553  -15.8920 C   0  0  0  0  0  0  0  0  0  0  0  0
   16.0717   -3.5339  -16.1160 O   0  0  0  0  0  0  0  0  0  0  0  0
   18.2802   -3.2361  -15.7427 O   0  0  0  0  0  0  0  0  0  0  0  0
  1  5  1  0
  2  3  1  0
  2  1  1  0
  3  4  1  0
  4  5  1  0
  5  6  1  6
  6  7  2  0
  8  9  1  0
  9 10  2  0
  9 19  1  0
 10 11  1  0
 11 12  2  0
 12 13  1  0
 14 13  1  6
 14 16  1  0
 15  6  1  0
 15 14  1  0
 16 17  2  0
 18 12  1  0
 19 18  2  0
 20 21  1  0
 20 16  1  0
 21 28  1  0
 21 22  1  1
 23 24  2  0
 23 22  1  0
 25 24  1  0
 26 27  2  0
 26 25  1  0
 27 23  1  0
 28 30  2  0
 28 29  1  0
M  END
$$$$
