PYH.pdb
     RDKit          3D

 30 32  0  0  1  0  0  0  0  0999 V2000
   11.6349  -22.2530  -10.4649 N   0  0  0  0  0  0  0  0  0  0  0  0
   12.1611  -22.5798  -11.7998 C   0  0  0  0  0  0  0  0  0  0  0  0
   12.0450  -21.2306  -12.4782 C   0  0  0  0  0  0  0  0  0  0  0  0
   12.3409  -20.2310  -11.3569 C   0  0  0  0  0  0  0  0  0  0  0  0
   12.4764  -21.1203  -10.1347 C   0  0  1  0  0  0  0  0  0  0  0  0
   12.0312  -20.4067   -8.9143 C   0  0  0  0  0  0  0  0  0  0  0  0
   12.5833  -19.3304   -8.5674 O   0  0  0  0  0  0  0  0  0  0  0  0
    9.8090  -14.9543  -10.5760 O   0  0  0  0  0  0  0  0  0  0  0  0
    9.6286  -16.0942   -9.7891 C   0  0  0  0  0  0  0  0  0  0  0  0
    9.3150  -17.3160  -10.3730 C   0  0  0  0  0  0  0  0  0  0  0  0
    9.1368  -18.4402   -9.6004 C   0  0  0  0  0  0  0  0  0  0  0  0
    9.2586  -18.4115   -8.2283 C   0  0  0  0  0  0  0  0  0  0  0  0
    9.0627  -19.6385   -7.4131 C   0  0  0  0  0  0  0  0  0  0  0  0
   10.3811  -20.2833   -7.0507 C   0  0  2  0  0  0  0  0  0  0  0  0
   10.9777  -20.9760   -8.1683 N   0  0  0  0  0  0  0  0  0  0  0  0
   10.1340  -21.2271   -5.9321 C   0  0  0  0  0  0  0  0  0  0  0  0
    9.7639  -22.3960   -6.1990 O   0  0  0  0  0  0  0  0  0  0  0  0
    9.5690  -17.2028   -7.6474 C   0  0  0  0  0  0  0  0  0  0  0  0
    9.7526  -16.0534   -8.4209 C   0  0  0  0  0  0  0  0  0  0  0  0
   10.2918  -20.8860   -4.5764 N   0  0  0  0  0  0  0  0  0  0  0  0
   10.0796  -21.7806   -3.4565 C   0  0  1  0  0  0  0  0  0  0  0  0
   11.0887  -21.5000   -2.3462 C   0  0  0  0  0  0  0  0  0  0  0  0
   12.3900  -22.1201   -2.7356 C   0  0  0  0  0  0  0  0  0  0  0  0
   12.6822  -22.8932   -3.8320 C   0  0  0  0  0  0  0  0  0  0  0  0
   13.9879  -23.2635   -3.8211 N   0  0  0  0  0  0  0  0  0  0  0  0
   14.5016  -22.7118   -2.7065 C   0  0  0  0  0  0  0  0  0  0  0  0
   13.5555  -22.0210   -2.0419 N   0  0  0  0  0  0  0  0  0  0  0  0
    8.7108  -21.4782   -2.9239 C   0  0  0  0  0  0  0  0  0  0  0  0
    8.1601  -22.2791   -1.9339 O   0  0  0  0  0  0  0  0  0  0  0  0
    8.0177  -20.5132   -3.3364 O   0  0  0  0  0  0  0  0  0  0  0  0
  1  5  1  0
  2  3  1  0
  2  1  1  0
  3  4  1  0
  4  5  1  0
  5  6  1  1
  6  7  2  0
  8  9  1  0
  9 10  2  0
  9 19  1  0
 10 11  1  0
 11 12  2  0
 12 13  1  0
 14 13  1  6
 14 16  1  0
 15  6  1  0
 15 14  1  0
 16 17  2  0
 18 12  1  0
 19 18  2  0
 20 21  1  0
 20 16  1  0
 21 28  1  0
 21 22  1  1
 23 24  2  0
 23 22  1  0
 25 24  1  0
 26 27  2  0
 26 25  1  0
 27 23  1  0
 28 30  2  0
 28 29  1  0
M  END
$$$$
