PYH.pdb
     RDKit          3D

 30 32  0  0  1  0  0  0  0  0999 V2000
   31.4826  -29.7451  -20.1019 N   0  0  0  0  0  0  0  0  0  0  0  0
   31.1954  -28.6821  -21.0782 C   0  0  0  0  0  0  0  0  0  0  0  0
   29.8900  -28.1481  -20.5261 C   0  0  0  0  0  0  0  0  0  0  0  0
   30.0533  -28.2800  -19.0095 C   0  0  0  0  0  0  0  0  0  0  0  0
   31.3894  -28.9861  -18.8710 C   0  0  1  0  0  0  0  0  0  0  0  0
   31.4075  -29.8428  -17.6616 C   0  0  0  0  0  0  0  0  0  0  0  0
   31.0780  -29.3728  -16.5418 O   0  0  0  0  0  0  0  0  0  0  0  0
   25.2555  -31.6333  -16.7246 O   0  0  0  0  0  0  0  0  0  0  0  0
   26.5896  -32.0322  -16.8362 C   0  0  0  0  0  0  0  0  0  0  0  0
   27.3217  -32.3811  -15.7074 C   0  0  0  0  0  0  0  0  0  0  0  0
   28.6357  -32.7744  -15.8146 C   0  0  0  0  0  0  0  0  0  0  0  0
   29.2824  -32.8410  -17.0293 C   0  0  0  0  0  0  0  0  0  0  0  0
   30.7023  -33.2694  -17.1221 C   0  0  0  0  0  0  0  0  0  0  0  0
   31.6478  -32.1500  -16.7504 C   0  0  2  0  0  0  0  0  0  0  0  0
   31.8038  -31.1880  -17.8158 N   0  0  0  0  0  0  0  0  0  0  0  0
   32.9586  -32.7561  -16.4076 C   0  0  0  0  0  0  0  0  0  0  0  0
   33.8828  -32.7151  -17.2554 O   0  0  0  0  0  0  0  0  0  0  0  0
   28.5597  -32.4958  -18.1489 C   0  0  0  0  0  0  0  0  0  0  0  0
   27.2243  -32.0947  -18.0537 C   0  0  0  0  0  0  0  0  0  0  0  0
   33.2297  -33.3800  -15.1763 N   0  0  0  0  0  0  0  0  0  0  0  0
   34.5033  -33.9520  -14.7885 C   0  0  1  0  0  0  0  0  0  0  0  0
   34.5015  -34.3105  -13.3048 C   0  0  0  0  0  0  0  0  0  0  0  0
   35.8351  -34.8911  -12.9671 C   0  0  0  0  0  0  0  0  0  0  0  0
   36.9656  -34.9617  -13.7430 C   0  0  0  0  0  0  0  0  0  0  0  0
   37.9730  -35.5684  -13.0654 N   0  0  0  0  0  0  0  0  0  0  0  0
   37.4548  -35.8730  -11.8616 C   0  0  0  0  0  0  0  0  0  0  0  0
   36.1709  -35.4733  -11.7848 N   0  0  0  0  0  0  0  0  0  0  0  0
   34.6549  -35.2224  -15.5705 C   0  0  0  0  0  0  0  0  0  0  0  0
   35.9073  -35.8018  -15.7148 O   0  0  0  0  0  0  0  0  0  0  0  0
   33.6836  -35.8059  -16.1162 O   0  0  0  0  0  0  0  0  0  0  0  0
  1  5  1  0
  2  3  1  0
  2  1  1  0
  3  4  1  0
  4  5  1  0
  5  6  1  1
  6  7  2  0
  8  9  1  0
  9 10  2  0
  9 19  1  0
 10 11  1  0
 11 12  2  0
 12 13  1  0
 14 13  1  6
 14 16  1  0
 15  6  1  0
 15 14  1  0
 16 17  2  0
 18 12  1  0
 19 18  2  0
 20 21  1  0
 20 16  1  0
 21 28  1  0
 21 22  1  1
 23 24  2  0
 23 22  1  0
 25 24  1  0
 26 27  2  0
 26 25  1  0
 27 23  1  0
 28 30  2  0
 28 29  1  0
M  END
$$$$
