PYH.pdb
     RDKit          3D

 30 32  0  0  1  0  0  0  0  0999 V2000
   28.2666  -20.8719  -17.1986 N   0  0  0  0  0  0  0  0  0  0  0  0
   29.2429  -21.1414  -18.2662 C   0  0  0  0  0  0  0  0  0  0  0  0
   30.1246  -22.1640  -17.5799 C   0  0  0  0  0  0  0  0  0  0  0  0
   29.1500  -22.9603  -16.7078 C   0  0  0  0  0  0  0  0  0  0  0  0
   27.8375  -22.2245  -16.9047 C   0  0  1  0  0  0  0  0  0  0  0  0
   26.9986  -22.3121  -15.6859 C   0  0  0  0  0  0  0  0  0  0  0  0
   26.5298  -23.4186  -15.3122 O   0  0  0  0  0  0  0  0  0  0  0  0
   23.8751  -20.6253   -7.7088 O   0  0  0  0  0  0  0  0  0  0  0  0
   24.5256  -20.5068   -8.9393 C   0  0  0  0  0  0  0  0  0  0  0  0
   25.7148  -21.1847   -9.1803 C   0  0  0  0  0  0  0  0  0  0  0  0
   26.3574  -21.0698  -10.3914 C   0  0  0  0  0  0  0  0  0  0  0  0
   25.8610  -20.2879  -11.4114 C   0  0  0  0  0  0  0  0  0  0  0  0
   26.5713  -20.1790  -12.7122 C   0  0  0  0  0  0  0  0  0  0  0  0
   25.9903  -21.1176  -13.7449 C   0  0  2  0  0  0  0  0  0  0  0  0
   26.7510  -21.1206  -14.9722 N   0  0  0  0  0  0  0  0  0  0  0  0
   24.5913  -20.6964  -14.0070 C   0  0  0  0  0  0  0  0  0  0  0  0
   24.3898  -19.6677  -14.6968 O   0  0  0  0  0  0  0  0  0  0  0  0
   24.6834  -19.6154  -11.1754 C   0  0  0  0  0  0  0  0  0  0  0  0
   24.0207  -19.7236   -9.9496 C   0  0  0  0  0  0  0  0  0  0  0  0
   23.4663  -21.3887  -13.5236 N   0  0  0  0  0  0  0  0  0  0  0  0
   22.0862  -21.0236  -13.7723 C   0  0  1  0  0  0  0  0  0  0  0  0
   21.2260  -22.2707  -13.9588 C   0  0  0  0  0  0  0  0  0  0  0  0
   21.2317  -22.6244  -15.4096 C   0  0  0  0  0  0  0  0  0  0  0  0
   21.7174  -21.9013  -16.4709 C   0  0  0  0  0  0  0  0  0  0  0  0
   21.5301  -22.5752  -17.6338 N   0  0  0  0  0  0  0  0  0  0  0  0
   20.9233  -23.7236  -17.2821 C   0  0  0  0  0  0  0  0  0  0  0  0
   20.7361  -23.7701  -15.9491 N   0  0  0  0  0  0  0  0  0  0  0  0
   21.6065  -20.3113  -12.5431 C   0  0  0  0  0  0  0  0  0  0  0  0
   20.4502  -19.5462  -12.5927 O   0  0  0  0  0  0  0  0  0  0  0  0
   22.2107  -20.3716  -11.4418 O   0  0  0  0  0  0  0  0  0  0  0  0
  1  5  1  0
  2  3  1  0
  2  1  1  0
  3  4  1  0
  4  5  1  0
  5  6  1  1
  6  7  2  0
  8  9  1  0
  9 10  2  0
  9 19  1  0
 10 11  1  0
 11 12  2  0
 12 13  1  0
 14 13  1  1
 14 16  1  0
 15  6  1  0
 15 14  1  0
 16 17  2  0
 18 12  1  0
 19 18  2  0
 20 21  1  0
 20 16  1  0
 21 28  1  0
 21 22  1  1
 23 24  2  0
 23 22  1  0
 25 24  1  0
 26 27  2  0
 26 25  1  0
 27 23  1  0
 28 30  2  0
 28 29  1  0
M  END
$$$$
