PYH.pdb
     RDKit          3D

 30 32  0  0  1  0  0  0  0  0999 V2000
   29.9218  -20.3236  -11.0171 N   0  0  0  0  0  0  0  0  0  0  0  0
   31.3587  -20.5586  -11.2307 C   0  0  0  0  0  0  0  0  0  0  0  0
   31.7054  -21.3091   -9.9616 C   0  0  0  0  0  0  0  0  0  0  0  0
   30.4517  -22.1396   -9.6740 C   0  0  0  0  0  0  0  0  0  0  0  0
   29.4840  -21.6786  -10.7482 C   0  0  1  0  0  0  0  0  0  0  0  0
   28.0862  -21.7476  -10.2601 C   0  0  0  0  0  0  0  0  0  0  0  0
   27.6002  -22.8404   -9.8688 O   0  0  0  0  0  0  0  0  0  0  0  0
   28.6005  -20.3044   -3.8788 O   0  0  0  0  0  0  0  0  0  0  0  0
   27.9016  -20.0897   -5.0691 C   0  0  0  0  0  0  0  0  0  0  0  0
   28.2710  -19.0654   -5.9329 C   0  0  0  0  0  0  0  0  0  0  0  0
   27.5845  -18.8519   -7.1059 C   0  0  0  0  0  0  0  0  0  0  0  0
   26.5114  -19.6320   -7.4775 C   0  0  0  0  0  0  0  0  0  0  0  0
   25.7846  -19.3842   -8.7498 C   0  0  0  0  0  0  0  0  0  0  0  0
   25.9861  -20.5123   -9.7357 C   0  0  2  0  0  0  0  0  0  0  0  0
   27.3337  -20.5542  -10.2525 N   0  0  0  0  0  0  0  0  0  0  0  0
   25.0152  -20.3279  -10.8432 C   0  0  0  0  0  0  0  0  0  0  0  0
   25.0419  -19.2574  -11.4975 O   0  0  0  0  0  0  0  0  0  0  0  0
   26.1434  -20.6472   -6.6239 C   0  0  0  0  0  0  0  0  0  0  0  0
   26.8325  -20.8746   -5.4294 C   0  0  0  0  0  0  0  0  0  0  0  0
   24.0571  -21.2914  -11.2072 N   0  0  0  0  0  0  0  0  0  0  0  0
   23.1318  -21.1766  -12.3163 C   0  0  1  0  0  0  0  0  0  0  0  0
   22.4293  -22.5079  -12.5696 C   0  0  0  0  0  0  0  0  0  0  0  0
   21.4186  -22.3001  -13.6490 C   0  0  0  0  0  0  0  0  0  0  0  0
   21.6223  -22.0353  -14.9807 C   0  0  0  0  0  0  0  0  0  0  0  0
   20.4369  -21.9133  -15.6303 N   0  0  0  0  0  0  0  0  0  0  0  0
   19.4966  -22.1052  -14.6871 C   0  0  0  0  0  0  0  0  0  0  0  0
   20.0685  -22.3390  -13.4903 N   0  0  0  0  0  0  0  0  0  0  0  0
   22.0930  -20.1777  -11.9022 C   0  0  0  0  0  0  0  0  0  0  0  0
   21.4927  -19.3671  -12.8548 O   0  0  0  0  0  0  0  0  0  0  0  0
   21.7271  -20.0315  -10.7078 O   0  0  0  0  0  0  0  0  0  0  0  0
  1  5  1  0
  2  3  1  0
  2  1  1  0
  3  4  1  0
  4  5  1  0
  5  6  1  1
  6  7  2  0
  8  9  1  0
  9 10  2  0
  9 19  1  0
 10 11  1  0
 11 12  2  0
 12 13  1  0
 14 13  1  1
 14 16  1  0
 15  6  1  0
 15 14  1  0
 16 17  2  0
 18 12  1  0
 19 18  2  0
 20 21  1  0
 20 16  1  0
 21 28  1  0
 21 22  1  1
 23 24  2  0
 23 22  1  0
 25 24  1  0
 26 27  2  0
 26 25  1  0
 27 23  1  0
 28 30  2  0
 28 29  1  0
M  END
$$$$
