PYH.pdb
     RDKit          3D

 30 32  0  0  1  0  0  0  0  0999 V2000
   26.3042  -19.6016  -15.2778 N   0  0  0  0  0  0  0  0  0  0  0  0
   27.1703  -19.5066  -16.4637 C   0  0  0  0  0  0  0  0  0  0  0  0
   28.2855  -20.4507  -16.0651 C   0  0  0  0  0  0  0  0  0  0  0  0
   27.5704  -21.5456  -15.2687 C   0  0  0  0  0  0  0  0  0  0  0  0
   26.1414  -21.0396  -15.2014 C   0  0  1  0  0  0  0  0  0  0  0  0
   25.4867  -21.4806  -13.9469 C   0  0  0  0  0  0  0  0  0  0  0  0
   25.2467  -22.6997  -13.7470 O   0  0  0  0  0  0  0  0  0  0  0  0
   30.9897  -21.1728  -11.2178 O   0  0  0  0  0  0  0  0  0  0  0  0
   29.6210  -20.9362  -11.0695 C   0  0  0  0  0  0  0  0  0  0  0  0
   28.8747  -21.6516  -10.1404 C   0  0  0  0  0  0  0  0  0  0  0  0
   27.5266  -21.4205   -9.9923 C   0  0  0  0  0  0  0  0  0  0  0  0
   26.8584  -20.4814  -10.7472 C   0  0  0  0  0  0  0  0  0  0  0  0
   25.4016  -20.2474  -10.5700 C   0  0  0  0  0  0  0  0  0  0  0  0
   24.6000  -20.8350  -11.7090 C   0  0  2  0  0  0  0  0  0  0  0  0
   25.1488  -20.4912  -12.9996 N   0  0  0  0  0  0  0  0  0  0  0  0
   23.2076  -20.3346  -11.5915 C   0  0  0  0  0  0  0  0  0  0  0  0
   22.9596  -19.4296  -10.7584 O   0  0  0  0  0  0  0  0  0  0  0  0
   27.5950  -19.7715  -11.6681 C   0  0  0  0  0  0  0  0  0  0  0  0
   28.9650  -19.9966  -11.8284 C   0  0  0  0  0  0  0  0  0  0  0  0
   22.1382  -20.8192  -12.3664 N   0  0  0  0  0  0  0  0  0  0  0  0
   21.0997  -20.0049  -12.9648 C   0  0  1  0  0  0  0  0  0  0  0  0
   21.7037  -18.9877  -13.9293 C   0  0  0  0  0  0  0  0  0  0  0  0
   20.5995  -18.1223  -14.4408 C   0  0  0  0  0  0  0  0  0  0  0  0
   19.7737  -17.2764  -13.7426 C   0  0  0  0  0  0  0  0  0  0  0  0
   18.8955  -16.6676  -14.5793 N   0  0  0  0  0  0  0  0  0  0  0  0
   19.1859  -17.1451  -15.8033 C   0  0  0  0  0  0  0  0  0  0  0  0
   20.2074  -18.0205  -15.7391 N   0  0  0  0  0  0  0  0  0  0  0  0
   20.2332  -20.9363  -13.7587 C   0  0  0  0  0  0  0  0  0  0  0  0
   18.8683  -20.7045  -13.8494 O   0  0  0  0  0  0  0  0  0  0  0  0
   20.6885  -21.9414  -14.3621 O   0  0  0  0  0  0  0  0  0  0  0  0
  1  5  1  0
  2  3  1  0
  2  1  1  0
  3  4  1  0
  4  5  1  0
  5  6  1  1
  6  7  2  0
  8  9  1  0
  9 10  2  0
  9 19  1  0
 10 11  1  0
 11 12  2  0
 12 13  1  0
 14 13  1  1
 14 16  1  0
 15  6  1  0
 15 14  1  0
 16 17  2  0
 18 12  1  0
 19 18  2  0
 20 21  1  0
 20 16  1  0
 21 28  1  0
 21 22  1  6
 23 24  2  0
 23 22  1  0
 25 24  1  0
 26 27  2  0
 26 25  1  0
 27 23  1  0
 28 30  2  0
 28 29  1  0
M  END
$$$$
