PYH.pdb
     RDKit          3D

 30 32  0  0  1  0  0  0  0  0999 V2000
   28.6449  -20.7531  -17.1034 N   0  0  0  0  0  0  0  0  0  0  0  0
   29.6831  -21.0093  -18.1144 C   0  0  0  0  0  0  0  0  0  0  0  0
   30.3974  -22.1857  -17.4821 C   0  0  0  0  0  0  0  0  0  0  0  0
   29.2765  -22.9629  -16.7865 C   0  0  0  0  0  0  0  0  0  0  0  0
   28.0635  -22.0766  -17.0009 C   0  0  1  0  0  0  0  0  0  0  0  0
   27.1138  -22.2039  -15.8702 C   0  0  0  0  0  0  0  0  0  0  0  0
   26.4934  -23.2815  -15.6763 O   0  0  0  0  0  0  0  0  0  0  0  0
   23.2094  -20.7692   -8.1500 O   0  0  0  0  0  0  0  0  0  0  0  0
   24.0232  -20.6490   -9.2789 C   0  0  0  0  0  0  0  0  0  0  0  0
   25.2951  -21.2093   -9.2986 C   0  0  0  0  0  0  0  0  0  0  0  0
   26.0985  -21.0923  -10.4093 C   0  0  0  0  0  0  0  0  0  0  0  0
   25.6881  -20.4233  -11.5416 C   0  0  0  0  0  0  0  0  0  0  0  0
   26.5722  -20.3099  -12.7307 C   0  0  0  0  0  0  0  0  0  0  0  0
   26.0491  -21.1217  -13.8937 C   0  0  2  0  0  0  0  0  0  0  0  0
   26.9366  -21.0829  -15.0321 N   0  0  0  0  0  0  0  0  0  0  0  0
   24.7157  -20.5834  -14.2615 C   0  0  0  0  0  0  0  0  0  0  0  0
   24.6500  -19.4576  -14.8119 O   0  0  0  0  0  0  0  0  0  0  0  0
   24.4290  -19.8674  -11.5248 C   0  0  0  0  0  0  0  0  0  0  0  0
   23.6029  -19.9791  -10.4030 C   0  0  0  0  0  0  0  0  0  0  0  0
   23.5086  -21.2668  -14.0276 N   0  0  0  0  0  0  0  0  0  0  0  0
   22.2015  -20.8411  -14.4856 C   0  0  1  0  0  0  0  0  0  0  0  0
   21.6877  -21.7703  -15.5822 C   0  0  0  0  0  0  0  0  0  0  0  0
   20.3743  -21.2429  -16.0583 C   0  0  0  0  0  0  0  0  0  0  0  0
   19.6771  -20.1442  -15.6204 C   0  0  0  0  0  0  0  0  0  0  0  0
   18.5192  -20.0054  -16.3145 N   0  0  0  0  0  0  0  0  0  0  0  0
   18.5062  -21.0296  -17.1871 C   0  0  0  0  0  0  0  0  0  0  0  0
   19.6134  -21.7836  -17.0473 N   0  0  0  0  0  0  0  0  0  0  0  0
   21.2790  -20.9602  -13.3095 C   0  0  0  0  0  0  0  0  0  0  0  0
   21.3555  -22.0685  -12.4785 O   0  0  0  0  0  0  0  0  0  0  0  0
   20.4181  -20.0875  -13.0285 O   0  0  0  0  0  0  0  0  0  0  0  0
  1  5  1  0
  2  3  1  0
  2  1  1  0
  3  4  1  0
  4  5  1  0
  5  6  1  1
  6  7  2  0
  8  9  1  0
  9 10  2  0
  9 19  1  0
 10 11  1  0
 11 12  2  0
 12 13  1  0
 14 13  1  1
 14 16  1  0
 15  6  1  0
 15 14  1  0
 16 17  2  0
 18 12  1  0
 19 18  2  0
 20 21  1  0
 20 16  1  0
 21 28  1  0
 21 22  1  6
 23 24  2  0
 23 22  1  0
 25 24  1  0
 26 27  2  0
 26 25  1  0
 27 23  1  0
 28 30  2  0
 28 29  1  0
M  END
$$$$
