PYH.pdb
     RDKit          3D

 30 32  0  0  1  0  0  0  0  0999 V2000
   28.2056  -20.9762  -17.0724 N   0  0  0  0  0  0  0  0  0  0  0  0
   29.2707  -21.2656  -18.0457 C   0  0  0  0  0  0  0  0  0  0  0  0
   30.0866  -22.2765  -17.2669 C   0  0  0  0  0  0  0  0  0  0  0  0
   29.0377  -23.0562  -16.4694 C   0  0  0  0  0  0  0  0  0  0  0  0
   27.7491  -22.3230  -16.7932 C   0  0  1  0  0  0  0  0  0  0  0  0
   26.8068  -22.3881  -15.6511 C   0  0  0  0  0  0  0  0  0  0  0  0
   26.3597  -23.4958  -15.2551 O   0  0  0  0  0  0  0  0  0  0  0  0
   23.0508  -20.7637   -7.9988 O   0  0  0  0  0  0  0  0  0  0  0  0
   23.7990  -20.6356   -9.1715 C   0  0  0  0  0  0  0  0  0  0  0  0
   23.2842  -19.9572  -10.2699 C   0  0  0  0  0  0  0  0  0  0  0  0
   24.0190  -19.8296  -11.4260 C   0  0  0  0  0  0  0  0  0  0  0  0
   25.2842  -20.3605  -11.5507 C   0  0  0  0  0  0  0  0  0  0  0  0
   26.0608  -20.2099  -12.8088 C   0  0  0  0  0  0  0  0  0  0  0  0
   25.5609  -21.1435  -13.8875 C   0  0  2  0  0  0  0  0  0  0  0  0
   26.4370  -21.1739  -15.0349 N   0  0  0  0  0  0  0  0  0  0  0  0
   24.2043  -20.6928  -14.2870 C   0  0  0  0  0  0  0  0  0  0  0  0
   24.0854  -19.6013  -14.8945 O   0  0  0  0  0  0  0  0  0  0  0  0
   25.7964  -21.0329  -10.4643 C   0  0  0  0  0  0  0  0  0  0  0  0
   25.0603  -21.1696   -9.2842 C   0  0  0  0  0  0  0  0  0  0  0  0
   23.0318  -21.4237  -14.0228 N   0  0  0  0  0  0  0  0  0  0  0  0
   21.6891  -21.0132  -14.3808 C   0  0  1  0  0  0  0  0  0  0  0  0
   20.9423  -22.1559  -15.0637 C   0  0  0  0  0  0  0  0  0  0  0  0
   21.4087  -22.2328  -16.4802 C   0  0  0  0  0  0  0  0  0  0  0  0
   22.2726  -21.4014  -17.1492 C   0  0  0  0  0  0  0  0  0  0  0  0
   22.4383  -21.8160  -18.4308 N   0  0  0  0  0  0  0  0  0  0  0  0
   21.6680  -22.9130  -18.5489 C   0  0  0  0  0  0  0  0  0  0  0  0
   21.0419  -23.1782  -17.3863 N   0  0  0  0  0  0  0  0  0  0  0  0
   20.9823  -20.7024  -13.0954 C   0  0  0  0  0  0  0  0  0  0  0  0
   19.9208  -19.8091  -13.0869 O   0  0  0  0  0  0  0  0  0  0  0  0
   21.3077  -21.2212  -11.9969 O   0  0  0  0  0  0  0  0  0  0  0  0
  1  5  1  0
  2  3  1  0
  2  1  1  0
  3  4  1  0
  4  5  1  0
  5  6  1  1
  6  7  2  0
  8  9  1  0
  9 10  2  0
  9 19  1  0
 10 11  1  0
 11 12  2  0
 12 13  1  0
 14 13  1  1
 14 16  1  0
 15  6  1  0
 15 14  1  0
 16 17  2  0
 18 12  1  0
 19 18  2  0
 20 21  1  0
 20 16  1  0
 21 28  1  0
 21 22  1  1
 23 24  2  0
 23 22  1  0
 25 24  1  0
 26 27  2  0
 26 25  1  0
 27 23  1  0
 28 30  2  0
 28 29  1  0
M  END
$$$$
