PYH.pdb
     RDKit          3D

 30 32  0  0  1  0  0  0  0  0999 V2000
   23.0373  -10.9324  -20.7969 N   0  0  0  0  0  0  0  0  0  0  0  0
   23.2621  -12.1354  -21.6141 C   0  0  0  0  0  0  0  0  0  0  0  0
   23.9389  -13.0336  -20.5997 C   0  0  0  0  0  0  0  0  0  0  0  0
   23.2551  -12.6727  -19.2782 C   0  0  0  0  0  0  0  0  0  0  0  0
   22.3455  -11.5223  -19.6684 C   0  0  1  0  0  0  0  0  0  0  0  0
   22.1771  -10.5793  -18.5374 C   0  0  0  0  0  0  0  0  0  0  0  0
   21.5280  -10.9194  -17.5143 O   0  0  0  0  0  0  0  0  0  0  0  0
   22.5099   -2.7943  -14.3425 O   0  0  0  0  0  0  0  0  0  0  0  0
   22.8087   -3.8892  -15.1569 C   0  0  0  0  0  0  0  0  0  0  0  0
   23.0460   -5.1413  -14.6020 C   0  0  0  0  0  0  0  0  0  0  0  0
   23.3404   -6.2212  -15.4018 C   0  0  0  0  0  0  0  0  0  0  0  0
   23.4137   -6.1169  -16.7736 C   0  0  0  0  0  0  0  0  0  0  0  0
   23.7324   -7.2971  -17.6186 C   0  0  0  0  0  0  0  0  0  0  0  0
   22.5972   -8.2952  -17.6331 C   0  0  2  0  0  0  0  0  0  0  0  0
   22.7665   -9.3027  -18.6535 N   0  0  0  0  0  0  0  0  0  0  0  0
   21.3350   -7.5460  -17.8533 C   0  0  0  0  0  0  0  0  0  0  0  0
   21.0628   -7.1493  -19.0122 O   0  0  0  0  0  0  0  0  0  0  0  0
   23.1791   -4.8780  -17.3258 C   0  0  0  0  0  0  0  0  0  0  0  0
   22.8791   -3.7730  -16.5245 C   0  0  0  0  0  0  0  0  0  0  0  0
   20.4159   -7.2511  -16.8299 N   0  0  0  0  0  0  0  0  0  0  0  0
   19.1705   -6.5311  -17.0032 C   0  0  1  0  0  0  0  0  0  0  0  0
   17.9977   -7.3509  -16.4717 C   0  0  0  0  0  0  0  0  0  0  0  0
   16.7390   -6.6040  -16.7672 C   0  0  0  0  0  0  0  0  0  0  0  0
   16.5814   -5.4018  -17.4113 C   0  0  0  0  0  0  0  0  0  0  0  0
   15.2687   -5.0638  -17.4776 N   0  0  0  0  0  0  0  0  0  0  0  0
   14.6145   -6.0692  -16.8679 C   0  0  0  0  0  0  0  0  0  0  0  0
   15.4823   -7.0037  -16.4348 N   0  0  0  0  0  0  0  0  0  0  0  0
   19.2789   -5.2876  -16.1722 C   0  0  0  0  0  0  0  0  0  0  0  0
   18.7759   -4.0872  -16.6528 O   0  0  0  0  0  0  0  0  0  0  0  0
   19.8143   -5.2737  -15.0344 O   0  0  0  0  0  0  0  0  0  0  0  0
  1  5  1  0
  2  3  1  0
  2  1  1  0
  3  4  1  0
  4  5  1  0
  5  6  1  1
  6  7  2  0
  8  9  1  0
  9 10  2  0
  9 19  1  0
 10 11  1  0
 11 12  2  0
 12 13  1  0
 14 13  1  6
 14 16  1  0
 15  6  1  0
 15 14  1  0
 16 17  2  0
 18 12  1  0
 19 18  2  0
 20 21  1  0
 20 16  1  0
 21 28  1  0
 21 22  1  1
 23 24  2  0
 23 22  1  0
 25 24  1  0
 26 27  2  0
 26 25  1  0
 27 23  1  0
 28 30  2  0
 28 29  1  0
M  END
$$$$
