PYH.pdb
     RDKit          3D

 30 32  0  0  1  0  0  0  0  0999 V2000
   28.9484  -19.9416  -18.2513 N   0  0  0  0  0  0  0  0  0  0  0  0
   29.8417  -19.9934  -19.4196 C   0  0  0  0  0  0  0  0  0  0  0  0
   30.9372  -20.8939  -18.8875 C   0  0  0  0  0  0  0  0  0  0  0  0
   30.1923  -21.8819  -17.9857 C   0  0  0  0  0  0  0  0  0  0  0  0
   28.7679  -21.3594  -18.0114 C   0  0  1  0  0  0  0  0  0  0  0  0
   28.0806  -21.6452  -16.7297 C   0  0  0  0  0  0  0  0  0  0  0  0
   27.8131  -22.8296  -16.3995 O   0  0  0  0  0  0  0  0  0  0  0  0
   24.5982  -20.7683   -8.7390 O   0  0  0  0  0  0  0  0  0  0  0  0
   25.3012  -20.5362   -9.9237 C   0  0  0  0  0  0  0  0  0  0  0  0
   26.3958  -21.3223  -10.2637 C   0  0  0  0  0  0  0  0  0  0  0  0
   27.0898  -21.0960  -11.4299 C   0  0  0  0  0  0  0  0  0  0  0  0
   26.7391  -20.0926  -12.3066 C   0  0  0  0  0  0  0  0  0  0  0  0
   27.5024  -19.8663  -13.5614 C   0  0  0  0  0  0  0  0  0  0  0  0
   26.9801  -20.7212  -14.6934 C   0  0  2  0  0  0  0  0  0  0  0  0
   27.7437  -20.5498  -15.9069 N   0  0  0  0  0  0  0  0  0  0  0  0
   25.5600  -20.3555  -14.9224 C   0  0  0  0  0  0  0  0  0  0  0  0
   25.3007  -19.2620  -15.4807 O   0  0  0  0  0  0  0  0  0  0  0  0
   25.6554  -19.3125  -11.9722 C   0  0  0  0  0  0  0  0  0  0  0  0
   24.9420  -19.5321  -10.7906 C   0  0  0  0  0  0  0  0  0  0  0  0
   24.4760  -21.1698  -14.5472 N   0  0  0  0  0  0  0  0  0  0  0  0
   23.0771  -20.8463  -14.7424 C   0  0  1  0  0  0  0  0  0  0  0  0
   22.3453  -22.0077  -15.4099 C   0  0  0  0  0  0  0  0  0  0  0  0
   20.9132  -21.6187  -15.5755 C   0  0  0  0  0  0  0  0  0  0  0  0
   19.8770  -21.7462  -14.6838 C   0  0  0  0  0  0  0  0  0  0  0  0
   18.7243  -21.2708  -15.2197 N   0  0  0  0  0  0  0  0  0  0  0  0
   19.0571  -20.8474  -16.4528 C   0  0  0  0  0  0  0  0  0  0  0  0
   20.3687  -21.0487  -16.6837 N   0  0  0  0  0  0  0  0  0  0  0  0
   22.4901  -20.6547  -13.3759 C   0  0  0  0  0  0  0  0  0  0  0  0
   21.4974  -19.7065  -13.1751 O   0  0  0  0  0  0  0  0  0  0  0  0
   22.8581  -21.3242  -12.3770 O   0  0  0  0  0  0  0  0  0  0  0  0
  1  5  1  0
  2  3  1  0
  2  1  1  0
  3  4  1  0
  4  5  1  0
  5  6  1  1
  6  7  2  0
  8  9  1  0
  9 10  2  0
  9 19  1  0
 10 11  1  0
 11 12  2  0
 12 13  1  0
 14 13  1  1
 14 16  1  0
 15  6  1  0
 15 14  1  0
 16 17  2  0
 18 12  1  0
 19 18  2  0
 20 21  1  0
 20 16  1  0
 21 28  1  0
 21 22  1  1
 23 24  2  0
 23 22  1  0
 25 24  1  0
 26 27  2  0
 26 25  1  0
 27 23  1  0
 28 30  2  0
 28 29  1  0
M  END
$$$$
