PYH.pdb
     RDKit          3D

 30 32  0  0  1  0  0  0  0  0999 V2000
   28.4137  -20.8742  -17.5285 N   0  0  0  0  0  0  0  0  0  0  0  0
   29.4174  -21.1497  -18.5688 C   0  0  0  0  0  0  0  0  0  0  0  0
   30.3669  -22.0474  -17.8029 C   0  0  0  0  0  0  0  0  0  0  0  0
   29.4469  -22.8464  -16.8759 C   0  0  0  0  0  0  0  0  0  0  0  0
   28.0847  -22.2291  -17.1333 C   0  0  1  0  0  0  0  0  0  0  0  0
   27.2434  -22.2868  -15.9144 C   0  0  0  0  0  0  0  0  0  0  0  0
   26.6672  -23.3566  -15.5869 O   0  0  0  0  0  0  0  0  0  0  0  0
   24.2055  -20.4550   -7.9094 O   0  0  0  0  0  0  0  0  0  0  0  0
   24.8857  -20.3889   -9.1277 C   0  0  0  0  0  0  0  0  0  0  0  0
   24.5142  -19.4651  -10.0975 C   0  0  0  0  0  0  0  0  0  0  0  0
   25.1825  -19.3978  -11.2982 C   0  0  0  0  0  0  0  0  0  0  0  0
   26.2387  -20.2312  -11.5950 C   0  0  0  0  0  0  0  0  0  0  0  0
   26.9472  -20.1405  -12.8982 C   0  0  0  0  0  0  0  0  0  0  0  0
   26.3551  -21.0829  -13.9212 C   0  0  2  0  0  0  0  0  0  0  0  0
   27.1171  -21.1094  -15.1474 N   0  0  0  0  0  0  0  0  0  0  0  0
   24.9621  -20.6465  -14.1897 C   0  0  0  0  0  0  0  0  0  0  0  0
   24.7747  -19.6232  -14.8914 O   0  0  0  0  0  0  0  0  0  0  0  0
   26.6087  -21.1471  -10.6363 C   0  0  0  0  0  0  0  0  0  0  0  0
   25.9381  -21.2257   -9.4126 C   0  0  0  0  0  0  0  0  0  0  0  0
   23.8275  -21.3185  -13.6997 N   0  0  0  0  0  0  0  0  0  0  0  0
   22.4531  -20.9767  -14.0057 C   0  0  1  0  0  0  0  0  0  0  0  0
   21.6319  -22.2364  -14.2677 C   0  0  0  0  0  0  0  0  0  0  0  0
   20.2613  -21.8170  -14.6863 C   0  0  0  0  0  0  0  0  0  0  0  0
   19.7651  -20.5494  -14.8654 C   0  0  0  0  0  0  0  0  0  0  0  0
   18.4648  -20.5954  -15.2511 N   0  0  0  0  0  0  0  0  0  0  0  0
   18.1604  -21.9048  -15.3092 C   0  0  0  0  0  0  0  0  0  0  0  0
   19.2281  -22.6536  -14.9729 N   0  0  0  0  0  0  0  0  0  0  0  0
   21.8982  -20.3097  -12.7828 C   0  0  0  0  0  0  0  0  0  0  0  0
   20.9810  -19.2768  -12.9129 O   0  0  0  0  0  0  0  0  0  0  0  0
   22.2273  -20.6446  -11.6161 O   0  0  0  0  0  0  0  0  0  0  0  0
  1  5  1  0
  2  3  1  0
  2  1  1  0
  3  4  1  0
  4  5  1  0
  5  6  1  1
  6  7  2  0
  8  9  1  0
  9 10  2  0
  9 19  1  0
 10 11  1  0
 11 12  2  0
 12 13  1  0
 14 13  1  1
 14 16  1  0
 15  6  1  0
 15 14  1  0
 16 17  2  0
 18 12  1  0
 19 18  2  0
 20 21  1  0
 20 16  1  0
 21 28  1  0
 21 22  1  1
 23 24  2  0
 23 22  1  0
 25 24  1  0
 26 27  2  0
 26 25  1  0
 27 23  1  0
 28 30  2  0
 28 29  1  0
M  END
$$$$
