TTE.pdb
     RDKit          3D

 24 23  0  0  1  0  0  0  0  0999 V2000
   22.6336  -11.2438  -20.3495 C   0  0  0  0  0  0  0  0  0  0  0  0
   22.8726  -12.6318  -19.7720 C   0  0  1  0  0  0  0  0  0  0  0  0
   22.8038  -13.6063  -20.7394 O   0  0  0  0  0  0  0  0  0  0  0  0
   24.1865  -12.6106  -19.0268 C   0  0  2  0  0  0  0  0  0  0  0  0
   24.4589  -13.9577  -18.5686 N   0  0  0  0  0  0  0  0  0  0  0  0
   24.1744  -11.6998  -17.8754 C   0  0  0  0  0  0  0  0  0  0  0  0
   23.4295  -11.9452  -16.8948 O   0  0  0  0  0  0  0  0  0  0  0  0
   27.2068  -10.4386  -15.9430 C   0  0  0  0  0  0  0  0  0  0  0  0
   26.3967   -9.2209  -16.3788 C   0  0  1  0  0  0  0  0  0  0  0  0
   26.9832   -8.5968  -17.4768 O   0  0  0  0  0  0  0  0  0  0  0  0
   24.9533   -9.6084  -16.6815 C   0  0  2  0  0  0  0  0  0  0  0  0
   24.9682  -10.5238  -17.7853 N   0  0  0  0  0  0  0  0  0  0  0  0
   24.2177   -8.3598  -16.9747 C   0  0  0  0  0  0  0  0  0  0  0  0
   23.8760   -8.1337  -18.1557 O   0  0  0  0  0  0  0  0  0  0  0  0
   23.9040   -7.4440  -15.9673 N   0  0  0  0  0  0  0  0  0  0  0  0
   23.0697   -6.2723  -16.1422 C   0  0  1  0  0  0  0  0  0  0  0  0
   21.6502   -6.7329  -16.3761 C   0  0  0  0  0  0  0  0  0  0  0  0
   20.6684   -5.6373  -16.5917 C   0  0  0  0  0  0  0  0  0  0  0  0
   19.2762   -6.0513  -16.7659 C   0  0  0  0  0  0  0  0  0  0  0  0
   18.3494   -5.2231  -16.9021 O   0  0  0  0  0  0  0  0  0  0  0  0
   23.0325   -5.4675  -14.8659 C   0  0  0  0  0  0  0  0  0  0  0  0
   22.7073   -4.2758  -14.8397 O   0  0  0  0  0  0  0  0  0  0  0  0
   18.9738   -7.3978  -16.7806 O   0  0  0  0  0  0  0  0  0  0  0  0
   23.3789   -6.0992  -13.6786 O   0  0  0  0  0  0  0  0  0  0  0  0
  2  1  1  6
  2  3  1  0
  4  5  1  1
  4  2  1  0
  4  6  1  0
  6  7  2  0
  9  8  1  6
  9 11  1  0
 10  9  1  0
 11 13  1  0
 12  6  1  0
 11 12  1  6
 13 15  1  0
 13 14  2  0
 15 16  1  0
 16 21  1  0
 16 17  1  1
 18 19  1  0
 18 17  1  0
 19 20  2  0
 21 22  2  0
 21 24  1  0
 23 19  1  0
M  END
$$$$
