TTE.pdb
     RDKit          3D

 24 23  0  0  1  0  0  0  0  0999 V2000
   16.9701  -10.9064  -11.1078 C   0  0  0  0  0  0  0  0  0  0  0  0
   15.6561  -11.6681  -11.2102 C   0  0  1  0  0  0  0  0  0  0  0  0
   15.8575  -13.0259  -11.2876 O   0  0  0  0  0  0  0  0  0  0  0  0
   14.7801  -11.2513  -10.0522 C   0  0  2  0  0  0  0  0  0  0  0  0
   13.5232  -11.9622  -10.1679 N   0  0  0  0  0  0  0  0  0  0  0  0
   14.5195   -9.8066  -10.0255 C   0  0  0  0  0  0  0  0  0  0  0  0
   13.5717   -9.3320  -10.6985 O   0  0  0  0  0  0  0  0  0  0  0  0
   15.5596   -5.3466   -8.0825 C   0  0  0  0  0  0  0  0  0  0  0  0
   15.2647   -6.8424   -8.0134 C   0  0  1  0  0  0  0  0  0  0  0  0
   14.0824   -7.0875   -7.3198 O   0  0  0  0  0  0  0  0  0  0  0  0
   15.2105   -7.4507   -9.4106 C   0  0  2  0  0  0  0  0  0  0  0  0
   15.2845   -8.8760   -9.2705 N   0  0  0  0  0  0  0  0  0  0  0  0
   16.3406   -6.8849  -10.1779 C   0  0  0  0  0  0  0  0  0  0  0  0
   17.5036   -7.1150   -9.7814 O   0  0  0  0  0  0  0  0  0  0  0  0
   16.1309   -6.1096  -11.3210 N   0  0  0  0  0  0  0  0  0  0  0  0
   17.1802   -5.5095  -12.1200 C   0  0  1  0  0  0  0  0  0  0  0  0
   17.6278   -6.5204  -13.1494 C   0  0  0  0  0  0  0  0  0  0  0  0
   16.5488   -7.0172  -14.0435 C   0  0  0  0  0  0  0  0  0  0  0  0
   16.9839   -7.8231  -15.1843 C   0  0  0  0  0  0  0  0  0  0  0  0
   17.2765   -9.0332  -15.0690 O   0  0  0  0  0  0  0  0  0  0  0  0
   16.6310   -4.3434  -12.9052 C   0  0  0  0  0  0  0  0  0  0  0  0
   15.4269   -4.0672  -12.9324 O   0  0  0  0  0  0  0  0  0  0  0  0
   17.0751   -7.2312  -16.4277 O   0  0  0  0  0  0  0  0  0  0  0  0
   17.5211   -3.5549  -13.6226 O   0  0  0  0  0  0  0  0  0  0  0  0
  2  1  1  1
  2  3  1  0
  4  5  1  6
  4  2  1  0
  4  6  1  0
  6  7  2  0
  9  8  1  6
  9 11  1  0
 10  9  1  0
 11 13  1  0
 12  6  1  0
 11 12  1  1
 13 15  1  0
 13 14  2  0
 15 16  1  0
 16 21  1  0
 16 17  1  6
 18 19  1  0
 18 17  1  0
 19 20  2  0
 21 22  2  0
 21 24  1  0
 23 19  1  0
M  END
$$$$
