TTE.pdb
     RDKit          3D

 24 23  0  0  1  0  0  0  0  0999 V2000
   20.1746  -13.0603  -18.1739 C   0  0  0  0  0  0  0  0  0  0  0  0
   20.0673  -14.2447  -17.2237 C   0  0  1  0  0  0  0  0  0  0  0  0
   19.3650  -15.2860  -17.7827 O   0  0  0  0  0  0  0  0  0  0  0  0
   21.4625  -14.6225  -16.7846 C   0  0  2  0  0  0  0  0  0  0  0  0
   21.3567  -15.7732  -15.9108 N   0  0  0  0  0  0  0  0  0  0  0  0
   22.1508  -13.5367  -16.0755 C   0  0  0  0  0  0  0  0  0  0  0  0
   21.7402  -13.1713  -14.9466 O   0  0  0  0  0  0  0  0  0  0  0  0
   25.9545  -13.1501  -15.3268 C   0  0  0  0  0  0  0  0  0  0  0  0
   25.4495  -11.9491  -16.1216 C   0  0  1  0  0  0  0  0  0  0  0  0
   25.7630  -12.0758  -17.4724 O   0  0  0  0  0  0  0  0  0  0  0  0
   23.9488  -11.7614  -15.9278 C   0  0  2  0  0  0  0  0  0  0  0  0
   23.2831  -12.8465  -16.5882 N   0  0  0  0  0  0  0  0  0  0  0  0
   23.5975  -10.4393  -16.4888 C   0  0  0  0  0  0  0  0  0  0  0  0
   23.3011  -10.3670  -17.7012 O   0  0  0  0  0  0  0  0  0  0  0  0
   23.5920   -9.2886  -15.6966 N   0  0  0  0  0  0  0  0  0  0  0  0
   23.2866   -7.9549  -16.1735 C   0  0  1  0  0  0  0  0  0  0  0  0
   23.0140   -7.0752  -14.9762 C   0  0  0  0  0  0  0  0  0  0  0  0
   22.5163   -5.7133  -15.3054 C   0  0  0  0  0  0  0  0  0  0  0  0
   22.2828   -4.8252  -14.1666 C   0  0  0  0  0  0  0  0  0  0  0  0
   21.9461   -3.6302  -14.3149 O   0  0  0  0  0  0  0  0  0  0  0  0
   24.4953   -7.3577  -16.8520 C   0  0  0  0  0  0  0  0  0  0  0  0
   25.6516   -7.6262  -16.5092 O   0  0  0  0  0  0  0  0  0  0  0  0
   22.4384   -5.3196  -12.8876 O   0  0  0  0  0  0  0  0  0  0  0  0
   24.2906   -6.4722  -17.9022 O   0  0  0  0  0  0  0  0  0  0  0  0
  2  1  1  6
  2  3  1  0
  4  5  1  1
  4  2  1  0
  4  6  1  0
  6  7  2  0
  9  8  1  1
  9 11  1  0
 10  9  1  0
 11 13  1  0
 12  6  1  0
 11 12  1  6
 13 15  1  0
 13 14  2  0
 15 16  1  0
 16 21  1  0
 16 17  1  1
 18 19  1  0
 18 17  1  0
 19 20  2  0
 21 22  2  0
 21 24  1  0
 23 19  1  0
M  END
$$$$
