TTE.pdb
     RDKit          3D

 24 23  0  0  1  0  0  0  0  0999 V2000
   22.3964  -10.4286  -18.4815 C   0  0  0  0  0  0  0  0  0  0  0  0
   21.1466  -11.2877  -18.6126 C   0  0  1  0  0  0  0  0  0  0  0  0
   21.4037  -12.4661  -19.2723 O   0  0  0  0  0  0  0  0  0  0  0  0
   20.5628  -11.4814  -17.2328 C   0  0  2  0  0  0  0  0  0  0  0  0
   19.4813  -12.4393  -17.3387 N   0  0  0  0  0  0  0  0  0  0  0  0
   20.0513  -10.2347  -16.6499 C   0  0  0  0  0  0  0  0  0  0  0  0
   19.1369   -9.6030  -17.2341 O   0  0  0  0  0  0  0  0  0  0  0  0
   18.4636   -9.5806  -13.3078 C   0  0  0  0  0  0  0  0  0  0  0  0
   19.7081   -8.7031  -13.4094 C   0  0  1  0  0  0  0  0  0  0  0  0
   20.7801   -9.2752  -12.7293 O   0  0  0  0  0  0  0  0  0  0  0  0
   20.0688   -8.4383  -14.8670 C   0  0  2  0  0  0  0  0  0  0  0  0
   20.5294   -9.6719  -15.4350 N   0  0  0  0  0  0  0  0  0  0  0  0
   21.0978   -7.3766  -14.8768 C   0  0  0  0  0  0  0  0  0  0  0  0
   22.2947   -7.7091  -15.0174 O   0  0  0  0  0  0  0  0  0  0  0  0
   20.7574   -6.0292  -14.7336 N   0  0  0  0  0  0  0  0  0  0  0  0
   21.6870   -4.9230  -14.8415 C   0  0  1  0  0  0  0  0  0  0  0  0
   21.7082   -4.4613  -16.2796 C   0  0  0  0  0  0  0  0  0  0  0  0
   22.6388   -3.3357  -16.5579 C   0  0  0  0  0  0  0  0  0  0  0  0
   22.6709   -2.8593  -17.9407 C   0  0  0  0  0  0  0  0  0  0  0  0
   22.6747   -3.6449  -18.9135 O   0  0  0  0  0  0  0  0  0  0  0  0
   21.1858   -3.7450  -14.0421 C   0  0  0  0  0  0  0  0  0  0  0  0
   19.9923   -3.5899  -13.7622 O   0  0  0  0  0  0  0  0  0  0  0  0
   22.6980   -1.5007  -18.1816 O   0  0  0  0  0  0  0  0  0  0  0  0
   22.1092   -2.8029  -13.6079 O   0  0  0  0  0  0  0  0  0  0  0  0
  2  1  1  1
  2  3  1  0
  4  5  1  6
  4  2  1  0
  4  6  1  0
  6  7  2  0
  9  8  1  6
  9 11  1  0
 10  9  1  0
 11 13  1  0
 12  6  1  0
 11 12  1  1
 13 15  1  0
 13 14  2  0
 15 16  1  0
 16 21  1  0
 16 17  1  6
 18 19  1  0
 18 17  1  0
 19 20  2  0
 21 22  2  0
 21 24  1  0
 23 19  1  0
M  END
$$$$
