TTE.pdb
     RDKit          3D

 24 23  0  0  1  0  0  0  0  0999 V2000
   22.1156  -14.1676  -19.6169 C   0  0  0  0  0  0  0  0  0  0  0  0
   21.2665  -12.9615  -19.2407 C   0  0  1  0  0  0  0  0  0  0  0  0
   20.1876  -13.3179  -18.4666 O   0  0  0  0  0  0  0  0  0  0  0  0
   22.1667  -11.9379  -18.5896 C   0  0  2  0  0  0  0  0  0  0  0  0
   22.7766  -12.5564  -17.4303 N   0  0  0  0  0  0  0  0  0  0  0  0
   21.4465  -10.7287  -18.1717 C   0  0  0  0  0  0  0  0  0  0  0  0
   20.9286   -9.9815  -19.0377 O   0  0  0  0  0  0  0  0  0  0  0  0
   18.4964  -10.4040  -15.6988 C   0  0  0  0  0  0  0  0  0  0  0  0
   19.6801   -9.5699  -15.2169 C   0  0  1  0  0  0  0  0  0  0  0  0
   20.4131  -10.2536  -14.2503 O   0  0  0  0  0  0  0  0  0  0  0  0
   20.5702   -9.1633  -16.3863 C   0  0  2  0  0  0  0  0  0  0  0  0
   21.2868  -10.3285  -16.8169 N   0  0  0  0  0  0  0  0  0  0  0  0
   21.4575   -8.0828  -15.9053 C   0  0  0  0  0  0  0  0  0  0  0  0
   22.6004   -8.3873  -15.5003 O   0  0  0  0  0  0  0  0  0  0  0  0
   21.0440   -6.7484  -15.8970 N   0  0  0  0  0  0  0  0  0  0  0  0
   21.8872   -5.6210  -15.5546 C   0  0  1  0  0  0  0  0  0  0  0  0
   21.1400   -4.3519  -15.8905 C   0  0  0  0  0  0  0  0  0  0  0  0
   21.8438   -3.0975  -15.5143 C   0  0  0  0  0  0  0  0  0  0  0  0
   21.1040   -1.8561  -15.7418 C   0  0  0  0  0  0  0  0  0  0  0  0
   21.4811   -0.7622  -15.2678 O   0  0  0  0  0  0  0  0  0  0  0  0
   22.1145   -5.5780  -14.0631 C   0  0  0  0  0  0  0  0  0  0  0  0
   21.3147   -6.0597  -13.2537 O   0  0  0  0  0  0  0  0  0  0  0  0
   19.9535   -1.8910  -16.5032 O   0  0  0  0  0  0  0  0  0  0  0  0
   23.2708   -4.9712  -13.5903 O   0  0  0  0  0  0  0  0  0  0  0  0
  2  1  1  1
  2  3  1  0
  4  5  1  1
  4  2  1  0
  4  6  1  0
  6  7  2  0
  9  8  1  6
  9 11  1  0
 10  9  1  0
 11 13  1  0
 12  6  1  0
 11 12  1  1
 13 15  1  0
 13 14  2  0
 15 16  1  0
 16 21  1  0
 16 17  1  1
 18 19  1  0
 18 17  1  0
 19 20  2  0
 21 22  2  0
 21 24  1  0
 23 19  1  0
M  END
$$$$
