TTE.pdb
     RDKit          3D

 24 23  0  0  1  0  0  0  0  0999 V2000
   12.4521  -10.5523  -15.1913 C   0  0  0  0  0  0  0  0  0  0  0  0
   12.3789  -11.7383  -14.2400 C   0  0  1  0  0  0  0  0  0  0  0  0
   11.1900  -12.4179  -14.3615 O   0  0  0  0  0  0  0  0  0  0  0  0
   13.5962  -12.6023  -14.4717 C   0  0  2  0  0  0  0  0  0  0  0  0
   13.5196  -13.7298  -13.5653 N   0  0  0  0  0  0  0  0  0  0  0  0
   14.8567  -11.8838  -14.2467 C   0  0  0  0  0  0  0  0  0  0  0  0
   15.1821  -11.5465  -13.0818 O   0  0  0  0  0  0  0  0  0  0  0  0
   18.2558  -12.9905  -14.7547 C   0  0  0  0  0  0  0  0  0  0  0  0
   18.1253  -11.7293  -15.6039 C   0  0  1  0  0  0  0  0  0  0  0  0
   17.9235  -12.0476  -16.9445 O   0  0  0  0  0  0  0  0  0  0  0  0
   17.0039  -10.8370  -15.0830 C   0  0  2  0  0  0  0  0  0  0  0  0
   15.7645  -11.5304  -15.2821 N   0  0  0  0  0  0  0  0  0  0  0  0
   17.0793   -9.5611  -15.8263 C   0  0  0  0  0  0  0  0  0  0  0  0
   16.2546   -9.3570  -16.7433 O   0  0  0  0  0  0  0  0  0  0  0  0
   18.0431   -8.5961  -15.5235 N   0  0  0  0  0  0  0  0  0  0  0  0
   18.1903   -7.3277  -16.2082 C   0  0  1  0  0  0  0  0  0  0  0  0
   17.0031   -6.4612  -15.8595 C   0  0  0  0  0  0  0  0  0  0  0  0
   16.8668   -6.1457  -14.4130 C   0  0  0  0  0  0  0  0  0  0  0  0
   15.8915   -5.1095  -14.0735 C   0  0  0  0  0  0  0  0  0  0  0  0
   15.3025   -4.4397  -14.9498 O   0  0  0  0  0  0  0  0  0  0  0  0
   19.3998   -6.5929  -15.6837 C   0  0  0  0  0  0  0  0  0  0  0  0
   19.8020   -5.5344  -16.1784 O   0  0  0  0  0  0  0  0  0  0  0  0
   15.6113   -4.8616  -12.7451 O   0  0  0  0  0  0  0  0  0  0  0  0
   20.0818   -7.1348  -14.6020 O   0  0  0  0  0  0  0  0  0  0  0  0
  2  1  1  6
  2  3  1  0
  4  5  1  1
  4  2  1  0
  4  6  1  0
  6  7  2  0
  9  8  1  1
  9 11  1  0
 10  9  1  0
 11 13  1  0
 12  6  1  0
 11 12  1  6
 13 15  1  0
 13 14  2  0
 15 16  1  0
 16 21  1  0
 16 17  1  1
 18 19  1  0
 18 17  1  0
 19 20  2  0
 21 22  2  0
 21 24  1  0
 23 19  1  0
M  END
$$$$
