PAS.pdb
     RDKit          3D

 19 19  0  0  1  0  0  0  0  0999 V2000
    7.8474  -14.8827   19.3972 N   0  0  0  0  0  0  0  0  0  0  0  0
    6.7552  -13.9380   19.2299 C   0  0  0  0  0  0  0  0  0  0  0  0
    7.4787  -12.6151   19.0503 C   0  0  0  0  0  0  0  0  0  0  0  0
    8.5960  -12.7408   20.0737 C   0  0  0  0  0  0  0  0  0  0  0  0
    8.8814  -14.2046   20.1125 C   0  0  1  0  0  0  0  0  0  0  0  0
    9.0473  -14.7258   21.5024 C   0  0  0  0  0  0  0  0  0  0  0  0
    9.9923  -14.3178   22.2244 O   0  0  0  0  0  0  0  0  0  0  0  0
    6.9885  -16.7945   23.9116 C   0  0  0  0  0  0  0  0  0  0  0  0
    8.2792  -16.2031   23.3915 C   0  0  2  0  0  0  0  0  0  0  0  0
    8.1612  -15.6897   22.0638 N   0  0  0  0  0  0  0  0  0  0  0  0
    9.3375  -17.2244   23.5340 C   0  0  0  0  0  0  0  0  0  0  0  0
    9.7835  -17.9308   22.6149 O   0  0  0  0  0  0  0  0  0  0  0  0
   11.5306  -17.0374   26.9877 O   0  0  0  0  0  0  0  0  0  0  0  0
   12.0700  -17.7590   25.9223 C   0  0  0  0  0  0  0  0  0  0  0  0
   10.9312  -18.3452   25.1299 C   0  0  2  0  0  0  0  0  0  0  0  0
    9.8947  -17.4165   24.8361 N   0  0  0  0  0  0  0  0  0  0  0  0
   10.3764  -19.4733   25.9096 C   0  0  0  0  0  0  0  0  0  0  0  0
   11.1330  -20.6041   26.1178 O   0  0  0  0  0  0  0  0  0  0  0  0
    9.2143  -19.3809   26.3733 O   0  0  0  0  0  0  0  0  0  0  0  0
  1  5  1  0
  1  2  1  0
  2  3  1  0
  4  3  1  0
  5  4  1  0
  6 10  1  0
  5  6  1  1
  7  6  2  0
  9  8  1  6
  9 10  1  0
  9 11  1  0
 11 16  1  0
 12 11  2  0
 14 13  1  0
 15 14  1  1
 15 17  1  0
 16 15  1  0
 17 18  1  0
 19 17  2  0
M  END
$$$$
