PAS.pdb
     RDKit          3D

 19 19  0  0  1  0  0  0  0  0999 V2000
    7.6894  -14.8003   18.7298 N   0  0  0  0  0  0  0  0  0  0  0  0
    6.9638  -13.6153   18.3023 C   0  0  0  0  0  0  0  0  0  0  0  0
    7.8184  -12.4833   18.8445 C   0  0  0  0  0  0  0  0  0  0  0  0
    8.2081  -13.0266   20.2099 C   0  0  0  0  0  0  0  0  0  0  0  0
    8.2621  -14.5032   20.0044 C   0  0  1  0  0  0  0  0  0  0  0  0
    7.6121  -15.2664   21.1116 C   0  0  0  0  0  0  0  0  0  0  0  0
    6.8401  -14.6843   21.9155 O   0  0  0  0  0  0  0  0  0  0  0  0
    7.0419  -18.8363   22.1133 C   0  0  0  0  0  0  0  0  0  0  0  0
    7.3566  -17.3930   22.4359 C   0  0  2  0  0  0  0  0  0  0  0  0
    7.8316  -16.6605   21.3052 N   0  0  0  0  0  0  0  0  0  0  0  0
    8.2904  -17.3759   23.5808 C   0  0  0  0  0  0  0  0  0  0  0  0
    9.5297  -17.3687   23.4979 O   0  0  0  0  0  0  0  0  0  0  0  0
    8.6719  -15.0325   26.1366 O   0  0  0  0  0  0  0  0  0  0  0  0
    8.3278  -16.1306   26.9256 C   0  0  0  0  0  0  0  0  0  0  0  0
    8.4872  -17.3746   26.0916 C   0  0  2  0  0  0  0  0  0  0  0  0
    7.7225  -17.3669   24.8923 N   0  0  0  0  0  0  0  0  0  0  0  0
    8.0850  -18.5282   26.9258 C   0  0  0  0  0  0  0  0  0  0  0  0
    8.7855  -18.8256   28.0727 O   0  0  0  0  0  0  0  0  0  0  0  0
    7.1029  -19.2238   26.5717 O   0  0  0  0  0  0  0  0  0  0  0  0
  1  5  1  0
  1  2  1  0
  2  3  1  0
  4  3  1  0
  5  4  1  0
  6 10  1  0
  5  6  1  1
  7  6  2  0
  9  8  1  6
  9 10  1  0
  9 11  1  0
 11 16  1  0
 12 11  2  0
 14 13  1  0
 15 14  1  1
 15 17  1  0
 16 15  1  0
 17 18  1  0
 19 17  2  0
M  END
$$$$
