PAS.pdb
     RDKit          3D

 19 19  0  0  1  0  0  0  0  0999 V2000
    8.9530  -14.8896   19.3139 N   0  0  0  0  0  0  0  0  0  0  0  0
    7.9486  -15.0775   18.2799 C   0  0  0  0  0  0  0  0  0  0  0  0
    7.6043  -13.6532   17.8820 C   0  0  0  0  0  0  0  0  0  0  0  0
    7.5861  -12.9581   19.2340 C   0  0  0  0  0  0  0  0  0  0  0  0
    8.5953  -13.7097   20.0354 C   0  0  1  0  0  0  0  0  0  0  0  0
    8.1269  -14.0108   21.4214 C   0  0  0  0  0  0  0  0  0  0  0  0
    7.5809  -13.1154   22.1150 O   0  0  0  0  0  0  0  0  0  0  0  0
    8.1868  -17.0424   23.7324 C   0  0  0  0  0  0  0  0  0  0  0  0
    7.8421  -15.6256   23.3325 C   0  0  2  0  0  0  0  0  0  0  0  0
    8.2738  -15.2994   22.0105 N   0  0  0  0  0  0  0  0  0  0  0  0
    8.3800  -14.7174   24.3664 C   0  0  0  0  0  0  0  0  0  0  0  0
    9.5724  -14.3917   24.4875 O   0  0  0  0  0  0  0  0  0  0  0  0
    5.5410  -13.0366   26.9325 O   0  0  0  0  0  0  0  0  0  0  0  0
    6.6644  -12.2629   26.6389 C   0  0  0  0  0  0  0  0  0  0  0  0
    7.7941  -13.1937   26.2842 C   0  0  2  0  0  0  0  0  0  0  0  0
    7.4532  -14.1677   25.3054 N   0  0  0  0  0  0  0  0  0  0  0  0
    8.2229  -13.8722   27.5269 C   0  0  0  0  0  0  0  0  0  0  0  0
    8.7484  -13.1380   28.5658 O   0  0  0  0  0  0  0  0  0  0  0  0
    8.0998  -15.1176   27.6153 O   0  0  0  0  0  0  0  0  0  0  0  0
  1  5  1  0
  1  2  1  0
  2  3  1  0
  4  3  1  0
  5  4  1  0
  6 10  1  0
  5  6  1  1
  7  6  2  0
  9  8  1  1
  9 10  1  0
  9 11  1  0
 11 16  1  0
 12 11  2  0
 14 13  1  0
 15 14  1  1
 15 17  1  0
 16 15  1  0
 17 18  1  0
 19 17  2  0
M  END
$$$$
