PAS.pdb
     RDKit          3D

 19 19  0  0  1  0  0  0  0  0999 V2000
    9.0832  -14.2035   18.8533 N   0  0  0  0  0  0  0  0  0  0  0  0
    8.1216  -14.0994   17.7681 C   0  0  0  0  0  0  0  0  0  0  0  0
    7.3579  -12.8337   18.1151 C   0  0  0  0  0  0  0  0  0  0  0  0
    7.2126  -12.9724   19.6221 C   0  0  0  0  0  0  0  0  0  0  0  0
    8.4386  -13.7173   20.0318 C   0  0  1  0  0  0  0  0  0  0  0  0
    8.1541  -14.8055   21.0145 C   0  0  0  0  0  0  0  0  0  0  0  0
    7.6400  -14.5348   22.1296 O   0  0  0  0  0  0  0  0  0  0  0  0
    7.6144  -18.4715   20.9279 C   0  0  0  0  0  0  0  0  0  0  0  0
    8.1479  -17.2460   21.6348 C   0  0  2  0  0  0  0  0  0  0  0  0
    8.4455  -16.1727   20.7406 N   0  0  0  0  0  0  0  0  0  0  0  0
    9.3027  -17.6620   22.4574 C   0  0  0  0  0  0  0  0  0  0  0  0
    9.3591  -18.6924   23.1487 O   0  0  0  0  0  0  0  0  0  0  0  0
   13.9213  -16.6221   23.5279 O   0  0  0  0  0  0  0  0  0  0  0  0
   12.8398  -16.3031   22.7061 C   0  0  0  0  0  0  0  0  0  0  0  0
   11.6419  -17.0795   23.1865 C   0  0  2  0  0  0  0  0  0  0  0  0
   10.4500  -16.8097   22.4588 N   0  0  0  0  0  0  0  0  0  0  0  0
   11.4349  -16.7471   24.6131 C   0  0  0  0  0  0  0  0  0  0  0  0
   12.2802  -17.2623   25.5695 O   0  0  0  0  0  0  0  0  0  0  0  0
   10.4836  -15.9940   24.9319 O   0  0  0  0  0  0  0  0  0  0  0  0
  1  5  1  0
  1  2  1  0
  2  3  1  0
  4  3  1  0
  5  4  1  0
  6 10  1  0
  5  6  1  1
  7  6  2  0
  9  8  1  6
  9 10  1  0
  9 11  1  0
 11 16  1  0
 12 11  2  0
 14 13  1  0
 15 14  1  6
 15 17  1  0
 16 15  1  0
 17 18  1  0
 19 17  2  0
M  END
$$$$
