PAS.pdb
     RDKit          3D

 19 19  0  0  1  0  0  0  0  0999 V2000
    9.2110  -17.9535   18.2975 N   0  0  0  0  0  0  0  0  0  0  0  0
    9.9430  -18.9221   17.4980 C   0  0  0  0  0  0  0  0  0  0  0  0
    9.6165  -20.2383   18.1812 C   0  0  0  0  0  0  0  0  0  0  0  0
    9.6803  -19.8412   19.6474 C   0  0  0  0  0  0  0  0  0  0  0  0
    9.2483  -18.4132   19.6495 C   0  0  1  0  0  0  0  0  0  0  0  0
   10.1024  -17.5509   20.5200 C   0  0  0  0  0  0  0  0  0  0  0  0
   11.2112  -17.1293   20.1031 O   0  0  0  0  0  0  0  0  0  0  0  0
    9.7237  -15.8729   23.9145 C   0  0  0  0  0  0  0  0  0  0  0  0
   10.4811  -16.3227   22.6855 C   0  0  2  0  0  0  0  0  0  0  0  0
    9.7094  -17.1732   21.8361 N   0  0  0  0  0  0  0  0  0  0  0  0
   11.7502  -16.9339   23.1316 C   0  0  0  0  0  0  0  0  0  0  0  0
   11.9247  -18.1419   23.3615 O   0  0  0  0  0  0  0  0  0  0  0  0
   16.4947  -16.0408   23.5723 O   0  0  0  0  0  0  0  0  0  0  0  0
   15.2411  -15.4409   23.4480 C   0  0  0  0  0  0  0  0  0  0  0  0
   14.1933  -16.5151   23.5775 C   0  0  2  0  0  0  0  0  0  0  0  0
   12.8701  -16.0648   23.3140 N   0  0  0  0  0  0  0  0  0  0  0  0
   14.2674  -17.0499   24.9548 C   0  0  0  0  0  0  0  0  0  0  0  0
   13.4105  -16.5783   25.9233 O   0  0  0  0  0  0  0  0  0  0  0  0
   15.1177  -17.9330   25.2211 O   0  0  0  0  0  0  0  0  0  0  0  0
  1  5  1  0
  1  2  1  0
  2  3  1  0
  4  3  1  0
  5  4  1  0
  6 10  1  0
  5  6  1  1
  7  6  2  0
  9  8  1  1
  9 10  1  0
  9 11  1  0
 11 16  1  0
 12 11  2  0
 14 13  1  0
 15 14  1  1
 15 17  1  0
 16 15  1  0
 17 18  1  0
 19 17  2  0
M  END
$$$$
