PAS.pdb
     RDKit          3D

 19 19  0  0  1  0  0  0  0  0999 V2000
    7.6401  -15.0834   19.0732 N   0  0  0  0  0  0  0  0  0  0  0  0
    6.7595  -14.0360   18.5826 C   0  0  0  0  0  0  0  0  0  0  0  0
    7.6853  -13.1923   17.7242 C   0  0  0  0  0  0  0  0  0  0  0  0
    8.9489  -13.1758   18.5694 C   0  0  0  0  0  0  0  0  0  0  0  0
    8.9242  -14.4906   19.2740 C   0  0  1  0  0  0  0  0  0  0  0  0
    9.2793  -14.3795   20.7205 C   0  0  0  0  0  0  0  0  0  0  0  0
   10.4290  -14.0041   21.0645 O   0  0  0  0  0  0  0  0  0  0  0  0
    7.3488  -14.0730   23.9081 C   0  0  0  0  0  0  0  0  0  0  0  0
    8.5980  -14.4491   23.1437 C   0  0  2  0  0  0  0  0  0  0  0  0
    8.3518  -14.6871   21.7570 N   0  0  0  0  0  0  0  0  0  0  0  0
    9.2256  -15.5952   23.8336 C   0  0  0  0  0  0  0  0  0  0  0  0
    9.4587  -15.6612   25.0518 O   0  0  0  0  0  0  0  0  0  0  0  0
    9.4418  -18.7301   21.4820 O   0  0  0  0  0  0  0  0  0  0  0  0
    9.9010  -19.1389   22.7345 C   0  0  0  0  0  0  0  0  0  0  0  0
   10.1840  -17.9073   23.5541 C   0  0  2  0  0  0  0  0  0  0  0  0
    9.5954  -16.7211   23.0348 N   0  0  0  0  0  0  0  0  0  0  0  0
   11.6524  -17.7410   23.6209 C   0  0  0  0  0  0  0  0  0  0  0  0
   12.4391  -18.7602   24.1076 O   0  0  0  0  0  0  0  0  0  0  0  0
   12.1626  -16.6638   23.2293 O   0  0  0  0  0  0  0  0  0  0  0  0
  1  5  1  0
  1  2  1  0
  2  3  1  0
  4  3  1  0
  5  4  1  0
  6 10  1  0
  5  6  1  1
  7  6  2  0
  9  8  1  1
  9 10  1  0
  9 11  1  0
 11 16  1  0
 12 11  2  0
 14 13  1  0
 15 14  1  6
 15 17  1  0
 16 15  1  0
 17 18  1  0
 19 17  2  0
M  END
$$$$
