PAS.pdb
     RDKit          3D

 19 19  0  0  1  0  0  0  0  0999 V2000
    7.6031  -16.0097   14.8834 N   0  0  0  0  0  0  0  0  0  0  0  0
    6.6237  -15.2240   14.1508 C   0  0  0  0  0  0  0  0  0  0  0  0
    7.3587  -14.8817   12.8670 C   0  0  0  0  0  0  0  0  0  0  0  0
    8.7536  -14.5777   13.3897 C   0  0  0  0  0  0  0  0  0  0  0  0
    8.8879  -15.4619   14.5838 C   0  0  1  0  0  0  0  0  0  0  0  0
    9.4961  -14.7640   15.7560 C   0  0  0  0  0  0  0  0  0  0  0  0
   10.6968  -14.3925   15.7202 O   0  0  0  0  0  0  0  0  0  0  0  0
    8.2937  -13.4249   19.1022 C   0  0  0  0  0  0  0  0  0  0  0  0
    9.3326  -13.9286   18.1259 C   0  0  2  0  0  0  0  0  0  0  0  0
    8.7600  -14.4922   16.9449 N   0  0  0  0  0  0  0  0  0  0  0  0
   10.2225  -14.8604   18.8491 C   0  0  0  0  0  0  0  0  0  0  0  0
   10.0581  -16.0882   18.9383 O   0  0  0  0  0  0  0  0  0  0  0  0
   14.2150  -14.4403   19.0415 O   0  0  0  0  0  0  0  0  0  0  0  0
   13.6743  -14.4489   20.3277 C   0  0  0  0  0  0  0  0  0  0  0  0
   12.3022  -15.0657   20.2546 C   0  0  2  0  0  0  0  0  0  0  0  0
   11.3671  -14.3046   19.5000 N   0  0  0  0  0  0  0  0  0  0  0  0
   11.8070  -15.2230   21.6396 C   0  0  0  0  0  0  0  0  0  0  0  0
   12.4671  -16.0537   22.5164 O   0  0  0  0  0  0  0  0  0  0  0  0
   10.7838  -14.5910   21.9969 O   0  0  0  0  0  0  0  0  0  0  0  0
  1  5  1  0
  1  2  1  0
  2  3  1  0
  4  3  1  0
  5  4  1  0
  6 10  1  0
  5  6  1  1
  7  6  2  0
  9  8  1  1
  9 10  1  0
  9 11  1  0
 11 16  1  0
 12 11  2  0
 14 13  1  0
 15 14  1  1
 15 17  1  0
 16 15  1  0
 17 18  1  0
 19 17  2  0
M  END
$$$$
