PAS.pdb
     RDKit          3D

 19 19  0  0  1  0  0  0  0  0999 V2000
    7.3489  -14.8464   19.9699 N   0  0  0  0  0  0  0  0  0  0  0  0
    6.6192  -13.6742   19.5150 C   0  0  0  0  0  0  0  0  0  0  0  0
    7.6553  -12.9320   18.6896 C   0  0  0  0  0  0  0  0  0  0  0  0
    8.9038  -13.1140   19.5378 C   0  0  0  0  0  0  0  0  0  0  0  0
    8.6991  -14.4377   20.1948 C   0  0  1  0  0  0  0  0  0  0  0  0
    9.0556  -14.4259   21.6452 C   0  0  0  0  0  0  0  0  0  0  0  0
   10.2612  -14.4198   22.0021 O   0  0  0  0  0  0  0  0  0  0  0  0
    7.3823  -13.7669   24.9323 C   0  0  0  0  0  0  0  0  0  0  0  0
    8.3643  -14.5213   24.0647 C   0  0  2  0  0  0  0  0  0  0  0  0
    8.0673  -14.4213   22.6711 N   0  0  0  0  0  0  0  0  0  0  0  0
    8.4259  -15.9145   24.5532 C   0  0  0  0  0  0  0  0  0  0  0  0
    7.4782  -16.7173   24.5582 O   0  0  0  0  0  0  0  0  0  0  0  0
   12.0377  -17.6627   24.5390 O   0  0  0  0  0  0  0  0  0  0  0  0
   10.9145  -18.4712   24.7167 C   0  0  0  0  0  0  0  0  0  0  0  0
    9.9075  -17.7014   25.5302 C   0  0  2  0  0  0  0  0  0  0  0  0
    9.6785  -16.3780   25.0621 N   0  0  0  0  0  0  0  0  0  0  0  0
   10.4000  -17.6533   26.9243 C   0  0  0  0  0  0  0  0  0  0  0  0
   10.6241  -18.8222   27.6158 O   0  0  0  0  0  0  0  0  0  0  0  0
   10.6077  -16.5378   27.4595 O   0  0  0  0  0  0  0  0  0  0  0  0
  1  5  1  0
  1  2  1  0
  2  3  1  0
  4  3  1  0
  5  4  1  0
  6 10  1  0
  5  6  1  1
  7  6  2  0
  9  8  1  1
  9 10  1  0
  9 11  1  0
 11 16  1  0
 12 11  2  0
 14 13  1  0
 15 14  1  6
 15 17  1  0
 16 15  1  0
 17 18  1  0
 19 17  2  0
M  END
$$$$
