PAS.pdb
     RDKit          3D

 19 19  0  0  1  0  0  0  0  0999 V2000
    8.9560  -14.7743   19.8282 N   0  0  0  0  0  0  0  0  0  0  0  0
    7.8111  -14.9216   18.9446 C   0  0  0  0  0  0  0  0  0  0  0  0
    7.3516  -13.4879   18.7469 C   0  0  0  0  0  0  0  0  0  0  0  0
    7.5163  -12.9223   20.1485 C   0  0  0  0  0  0  0  0  0  0  0  0
    8.6677  -13.6875   20.7092 C   0  0  1  0  0  0  0  0  0  0  0  0
    8.4337  -14.1402   22.1132 C   0  0  0  0  0  0  0  0  0  0  0  0
    8.0253  -13.3281   22.9820 O   0  0  0  0  0  0  0  0  0  0  0  0
    8.4492  -17.4499   23.9773 C   0  0  0  0  0  0  0  0  0  0  0  0
    8.5049  -15.9427   23.8702 C   0  0  2  0  0  0  0  0  0  0  0  0
    8.6576  -15.4852   22.5257 N   0  0  0  0  0  0  0  0  0  0  0  0
    9.5664  -15.4611   24.7783 C   0  0  0  0  0  0  0  0  0  0  0  0
   10.7646  -15.3307   24.4784 O   0  0  0  0  0  0  0  0  0  0  0  0
    8.2282  -13.3728   27.9428 O   0  0  0  0  0  0  0  0  0  0  0  0
    9.5851  -13.2415   27.6456 C   0  0  0  0  0  0  0  0  0  0  0  0
   10.0670  -14.5479   27.0713 C   0  0  2  0  0  0  0  0  0  0  0  0
    9.1845  -15.1166   26.1118 N   0  0  0  0  0  0  0  0  0  0  0  0
   10.2482  -15.4921   28.1956 C   0  0  0  0  0  0  0  0  0  0  0  0
   11.1141  -15.1841   29.2204 O   0  0  0  0  0  0  0  0  0  0  0  0
    9.6041  -16.5686   28.1977 O   0  0  0  0  0  0  0  0  0  0  0  0
  1  5  1  0
  1  2  1  0
  2  3  1  0
  4  3  1  0
  5  4  1  0
  6 10  1  0
  5  6  1  1
  7  6  2  0
  9  8  1  6
  9 10  1  0
  9 11  1  0
 11 16  1  0
 12 11  2  0
 14 13  1  0
 15 14  1  1
 15 17  1  0
 16 15  1  0
 17 18  1  0
 19 17  2  0
M  END
$$$$
