PAS.pdb
     RDKit          3D

 19 19  0  0  1  0  0  0  0  0999 V2000
    7.3466  -21.5737   18.8241 N   0  0  0  0  0  0  0  0  0  0  0  0
    7.3669  -20.2007   18.3470 C   0  0  0  0  0  0  0  0  0  0  0  0
    8.7944  -20.0357   17.8563 C   0  0  0  0  0  0  0  0  0  0  0  0
    9.5716  -20.7720   18.9358 C   0  0  0  0  0  0  0  0  0  0  0  0
    8.6328  -21.8408   19.3854 C   0  0  1  0  0  0  0  0  0  0  0  0
    8.5863  -21.9836   20.8714 C   0  0  0  0  0  0  0  0  0  0  0  0
    8.1132  -21.0611   21.5829 O   0  0  0  0  0  0  0  0  0  0  0  0
    8.6645  -24.7564   23.3444 C   0  0  0  0  0  0  0  0  0  0  0  0
    9.0062  -23.3364   22.9534 C   0  0  2  0  0  0  0  0  0  0  0  0
    9.0656  -23.1472   21.5388 N   0  0  0  0  0  0  0  0  0  0  0  0
   10.2548  -22.9611   23.6487 C   0  0  0  0  0  0  0  0  0  0  0  0
   11.4039  -23.1718   23.2270 O   0  0  0  0  0  0  0  0  0  0  0  0
   10.1150  -19.8119   26.1104 O   0  0  0  0  0  0  0  0  0  0  0  0
   11.3506  -20.3296   25.7207 C   0  0  0  0  0  0  0  0  0  0  0  0
   11.2356  -21.8306   25.6743 C   0  0  2  0  0  0  0  0  0  0  0  0
   10.1319  -22.3012   24.9105 N   0  0  0  0  0  0  0  0  0  0  0  0
   11.1139  -22.3142   27.0670 C   0  0  0  0  0  0  0  0  0  0  0  0
   12.1785  -22.1977   27.9316 O   0  0  0  0  0  0  0  0  0  0  0  0
   10.0323  -22.8275   27.4419 O   0  0  0  0  0  0  0  0  0  0  0  0
  1  5  1  0
  1  2  1  0
  2  3  1  0
  4  3  1  0
  5  4  1  0
  6 10  1  0
  5  6  1  1
  7  6  2  0
  9  8  1  6
  9 10  1  0
  9 11  1  0
 11 16  1  0
 12 11  2  0
 14 13  1  0
 15 14  1  1
 15 17  1  0
 16 15  1  0
 17 18  1  0
 19 17  2  0
M  END
$$$$
