PAS.pdb
     RDKit          3D

 19 19  0  0  1  0  0  0  0  0999 V2000
    9.0409  -17.6186   18.2446 N   0  0  0  0  0  0  0  0  0  0  0  0
    9.1788  -18.9406   18.8334 C   0  0  0  0  0  0  0  0  0  0  0  0
    7.7497  -19.2946   19.2050 C   0  0  0  0  0  0  0  0  0  0  0  0
    7.2396  -17.9666   19.7412 C   0  0  0  0  0  0  0  0  0  0  0  0
    7.9993  -16.9496   18.9574 C   0  0  1  0  0  0  0  0  0  0  0  0
    8.5161  -15.8331   19.8043 C   0  0  0  0  0  0  0  0  0  0  0  0
    9.7131  -15.8304   20.1892 O   0  0  0  0  0  0  0  0  0  0  0  0
    7.2667  -12.4272   20.8946 C   0  0  0  0  0  0  0  0  0  0  0  0
    8.1566  -13.6452   20.9981 C   0  0  2  0  0  0  0  0  0  0  0  0
    7.6945  -14.7414   20.2074 N   0  0  0  0  0  0  0  0  0  0  0  0
    8.3084  -13.9773   22.4299 C   0  0  0  0  0  0  0  0  0  0  0  0
    8.7169  -13.2005   23.3087 O   0  0  0  0  0  0  0  0  0  0  0  0
    6.3398  -17.3297   23.5822 O   0  0  0  0  0  0  0  0  0  0  0  0
    6.7054  -16.4565   24.6073 C   0  0  0  0  0  0  0  0  0  0  0  0
    7.9662  -15.7462   24.1896 C   0  0  2  0  0  0  0  0  0  0  0  0
    7.9567  -15.3008   22.8388 N   0  0  0  0  0  0  0  0  0  0  0  0
    9.0953  -16.6800   24.3933 C   0  0  0  0  0  0  0  0  0  0  0  0
    9.3548  -17.1829   25.6480 O   0  0  0  0  0  0  0  0  0  0  0  0
    9.8054  -17.0019   23.4104 O   0  0  0  0  0  0  0  0  0  0  0  0
  1  5  1  0
  1  2  1  0
  2  3  1  0
  4  3  1  0
  5  4  1  0
  6 10  1  0
  5  6  1  1
  7  6  2  0
  9  8  1  1
  9 10  1  0
  9 11  1  0
 11 16  1  0
 12 11  2  0
 14 13  1  0
 15 14  1  6
 15 17  1  0
 16 15  1  0
 17 18  1  0
 19 17  2  0
M  END
$$$$
