PAS.pdb
     RDKit          3D

 19 19  0  0  1  0  0  0  0  0999 V2000
    7.6372  -14.9801   19.8473 N   0  0  0  0  0  0  0  0  0  0  0  0
    6.6475  -13.9921   19.4501 C   0  0  0  0  0  0  0  0  0  0  0  0
    7.4900  -12.9238   18.7757 C   0  0  0  0  0  0  0  0  0  0  0  0
    8.7009  -12.8705   19.6934 C   0  0  0  0  0  0  0  0  0  0  0  0
    8.8204  -14.2656   20.2082 C   0  0  1  0  0  0  0  0  0  0  0  0
    9.0923  -14.3203   21.6759 C   0  0  0  0  0  0  0  0  0  0  0  0
   10.1459  -13.8193   22.1449 O   0  0  0  0  0  0  0  0  0  0  0  0
    7.0346  -14.8406   24.7547 C   0  0  0  0  0  0  0  0  0  0  0  0
    8.3511  -14.8944   24.0130 C   0  0  2  0  0  0  0  0  0  0  0  0
    8.1899  -14.9299   22.5941 N   0  0  0  0  0  0  0  0  0  0  0  0
    9.1264  -16.0345   24.5444 C   0  0  0  0  0  0  0  0  0  0  0  0
    9.3213  -16.2730   25.7476 O   0  0  0  0  0  0  0  0  0  0  0  0
   11.2261  -18.2637   21.7271 O   0  0  0  0  0  0  0  0  0  0  0  0
   10.7530  -19.0105   22.8066 C   0  0  0  0  0  0  0  0  0  0  0  0
   10.4911  -18.0660   23.9502 C   0  0  2  0  0  0  0  0  0  0  0  0
    9.6997  -16.9382   23.5971 N   0  0  0  0  0  0  0  0  0  0  0  0
   11.8012  -17.6085   24.4628 C   0  0  0  0  0  0  0  0  0  0  0  0
   12.1485  -16.2795   24.3751 O   0  0  0  0  0  0  0  0  0  0  0  0
   12.5824  -18.4465   24.9741 O   0  0  0  0  0  0  0  0  0  0  0  0
  1  5  1  0
  1  2  1  0
  2  3  1  0
  4  3  1  0
  5  4  1  0
  6 10  1  0
  5  6  1  1
  7  6  2  0
  9  8  1  1
  9 10  1  0
  9 11  1  0
 11 16  1  0
 12 11  2  0
 14 13  1  0
 15 14  1  6
 15 17  1  0
 16 15  1  0
 17 18  1  0
 19 17  2  0
M  END
$$$$
