QGS.pdb
     RDKit          3D

 20 19  0  0  1  0  0  0  0  0999 V2000
    9.8366  -14.6299   14.5455 N   0  0  0  0  0  0  0  0  0  0  0  0
    8.4753  -14.3734   14.2051 C   0  0  0  0  0  0  0  0  0  0  0  0
    8.1338  -14.5942   13.0293 O   0  0  0  0  0  0  0  0  0  0  0  0
    7.5646  -13.8743   15.2205 C   0  0  0  0  0  0  0  0  0  0  0  0
    8.0442  -13.7887   16.6152 C   0  0  0  0  0  0  0  0  0  0  0  0
    8.4298  -15.0492   17.2996 C   0  0  2  0  0  0  0  0  0  0  0  0
    7.4527  -16.0952   17.3119 N   0  0  0  0  0  0  0  0  0  0  0  0
    8.7683  -14.7015   18.7063 C   0  0  0  0  0  0  0  0  0  0  0  0
    9.7031  -13.8532   18.8501 O   0  0  0  0  0  0  0  0  0  0  0  0
    8.1598  -15.2175   19.8545 N   0  0  0  0  0  0  0  0  0  0  0  0
    8.5798  -14.8162   21.1932 C   0  0  0  0  0  0  0  0  0  0  0  0
    9.5814  -15.7962   21.6840 C   0  0  0  0  0  0  0  0  0  0  0  0
    9.4332  -17.0501   21.4856 O   0  0  0  0  0  0  0  0  0  0  0  0
   11.0461  -17.0236   25.6418 O   0  0  0  0  0  0  0  0  0  0  0  0
   10.3778  -16.3120   24.6461 C   0  0  0  0  0  0  0  0  0  0  0  0
   11.3118  -16.2202   23.4571 C   0  0  2  0  0  0  0  0  0  0  0  0
   10.7474  -15.4217   22.3915 N   0  0  0  0  0  0  0  0  0  0  0  0
   11.6418  -17.5531   22.9263 C   0  0  0  0  0  0  0  0  0  0  0  0
   12.8351  -17.9107   22.8515 O   0  0  0  0  0  0  0  0  0  0  0  0
   10.6453  -18.4057   22.5130 O   0  0  0  0  0  0  0  0  0  0  0  0
  2  3  2  0
  2  1  1  0
  4  2  1  0
  5  4  1  0
  6  5  1  0
  6  7  1  1
  8  6  1  0
  8  9  2  0
 10  8  1  0
 11 10  1  0
 11 12  1  0
 12 17  1  0
 13 12  2  0
 14 15  1  0
 16 15  1  1
 16 18  1  0
 17 16  1  0
 18 20  1  0
 19 18  2  0
M  END
$$$$
