QGS.pdb
     RDKit          3D

 20 19  0  0  1  0  0  0  0  0999 V2000
    9.5361  -15.0245   16.3340 N   0  0  0  0  0  0  0  0  0  0  0  0
    8.1676  -14.6606   16.1619 C   0  0  0  0  0  0  0  0  0  0  0  0
    7.5265  -15.2652   15.2835 O   0  0  0  0  0  0  0  0  0  0  0  0
    7.5918  -13.6217   16.9977 C   0  0  0  0  0  0  0  0  0  0  0  0
    8.4286  -13.0303   18.0619 C   0  0  0  0  0  0  0  0  0  0  0  0
    8.9670  -13.9344   19.1102 C   0  0  2  0  0  0  0  0  0  0  0  0
    8.9782  -15.3328   18.8047 N   0  0  0  0  0  0  0  0  0  0  0  0
    8.1494  -13.7246   20.3358 C   0  0  0  0  0  0  0  0  0  0  0  0
    8.0670  -12.5226   20.7390 O   0  0  0  0  0  0  0  0  0  0  0  0
    7.4816  -14.7144   21.0632 N   0  0  0  0  0  0  0  0  0  0  0  0
    6.6184  -14.3869   22.1934 C   0  0  0  0  0  0  0  0  0  0  0  0
    7.4721  -14.1762   23.3898 C   0  0  0  0  0  0  0  0  0  0  0  0
    8.7309  -14.3941   23.3517 O   0  0  0  0  0  0  0  0  0  0  0  0
    5.8403  -12.7850   26.8588 O   0  0  0  0  0  0  0  0  0  0  0  0
    7.1600  -12.3770   26.6687 C   0  0  0  0  0  0  0  0  0  0  0  0
    7.8149  -13.3901   25.7526 C   0  0  2  0  0  0  0  0  0  0  0  0
    6.9654  -13.7285   24.6321 N   0  0  0  0  0  0  0  0  0  0  0  0
    8.1612  -14.6254   26.4745 C   0  0  0  0  0  0  0  0  0  0  0  0
    7.5859  -15.6938   26.1831 O   0  0  0  0  0  0  0  0  0  0  0  0
    9.1131  -14.6100   27.4667 O   0  0  0  0  0  0  0  0  0  0  0  0
  2  3  2  0
  2  1  1  0
  4  2  1  0
  5  4  1  0
  6  5  1  0
  6  7  1  6
  8  6  1  0
  8  9  2  0
 10  8  1  0
 11 10  1  0
 11 12  1  0
 12 17  1  0
 13 12  2  0
 14 15  1  0
 16 15  1  1
 16 18  1  0
 17 16  1  0
 18 20  1  0
 19 18  2  0
M  END
$$$$
