QGS.pdb
     RDKit          3D

 20 19  0  0  1  0  0  0  0  0999 V2000
    8.6776  -12.3577   17.7936 N   0  0  0  0  0  0  0  0  0  0  0  0
    7.9210  -13.5450   18.0233 C   0  0  0  0  0  0  0  0  0  0  0  0
    7.6770  -14.2615   17.0358 O   0  0  0  0  0  0  0  0  0  0  0  0
    7.4744  -13.8610   19.3687 C   0  0  0  0  0  0  0  0  0  0  0  0
    8.4795  -14.2978   20.3594 C   0  0  0  0  0  0  0  0  0  0  0  0
    8.5242  -15.7378   20.7204 C   0  0  2  0  0  0  0  0  0  0  0  0
    7.6721  -16.6115   19.9724 N   0  0  0  0  0  0  0  0  0  0  0  0
    8.1627  -15.8430   22.1601 C   0  0  0  0  0  0  0  0  0  0  0  0
    6.9485  -15.5933   22.4386 O   0  0  0  0  0  0  0  0  0  0  0  0
    9.0254  -16.1844   23.2061 N   0  0  0  0  0  0  0  0  0  0  0  0
    8.5616  -16.2734   24.5868 C   0  0  0  0  0  0  0  0  0  0  0  0
    9.5572  -15.6022   25.4602 C   0  0  0  0  0  0  0  0  0  0  0  0
   10.7203  -15.2981   25.0262 O   0  0  0  0  0  0  0  0  0  0  0  0
    8.4846  -13.6304   28.7773 O   0  0  0  0  0  0  0  0  0  0  0  0
    9.7635  -13.3621   28.2906 C   0  0  0  0  0  0  0  0  0  0  0  0
   10.2829  -14.6408   27.6664 C   0  0  2  0  0  0  0  0  0  0  0  0
    9.2967  -15.2578   26.8070 N   0  0  0  0  0  0  0  0  0  0  0  0
   10.6924  -15.6141   28.6922 C   0  0  0  0  0  0  0  0  0  0  0  0
   10.0859  -16.7002   28.7912 O   0  0  0  0  0  0  0  0  0  0  0  0
   11.7375  -15.3347   29.5411 O   0  0  0  0  0  0  0  0  0  0  0  0
  2  3  2  0
  2  1  1  0
  4  2  1  0
  5  4  1  0
  6  5  1  0
  6  7  1  6
  8  6  1  0
  8  9  2  0
 10  8  1  0
 11 10  1  0
 11 12  1  0
 12 17  1  0
 13 12  2  0
 14 15  1  0
 16 15  1  1
 16 18  1  0
 17 16  1  0
 18 20  1  0
 19 18  2  0
M  END
$$$$
