QGS.pdb
     RDKit          3D

 20 19  0  0  1  0  0  0  0  0999 V2000
    6.5153  -13.0643   18.8486 N   0  0  0  0  0  0  0  0  0  0  0  0
    7.8483  -13.5494   18.6982 C   0  0  0  0  0  0  0  0  0  0  0  0
    8.7630  -12.7060   18.7096 O   0  0  0  0  0  0  0  0  0  0  0  0
    8.0786  -14.9745   18.5391 C   0  0  0  0  0  0  0  0  0  0  0  0
    6.9263  -15.8913   18.6593 C   0  0  0  0  0  0  0  0  0  0  0  0
    6.8708  -16.7919   19.8391 C   0  0  2  0  0  0  0  0  0  0  0  0
    6.2363  -16.2714   21.0119 N   0  0  0  0  0  0  0  0  0  0  0  0
    8.2722  -17.1567   20.1818 C   0  0  0  0  0  0  0  0  0  0  0  0
    8.9681  -17.6150   19.2226 O   0  0  0  0  0  0  0  0  0  0  0  0
    8.8723  -17.0411   21.4392 N   0  0  0  0  0  0  0  0  0  0  0  0
   10.2515  -17.4564   21.6737 C   0  0  0  0  0  0  0  0  0  0  0  0
   10.5886  -17.1832   23.0936 C   0  0  0  0  0  0  0  0  0  0  0  0
   11.7606  -17.4089   23.5511 O   0  0  0  0  0  0  0  0  0  0  0  0
    8.6731  -14.2709   24.8065 O   0  0  0  0  0  0  0  0  0  0  0  0
    9.0004  -15.1511   25.8373 C   0  0  0  0  0  0  0  0  0  0  0  0
   10.0477  -16.1033   25.2980 C   0  0  2  0  0  0  0  0  0  0  0  0
    9.6576  -16.6644   24.0233 N   0  0  0  0  0  0  0  0  0  0  0  0
   10.3115  -17.2041   26.2392 C   0  0  0  0  0  0  0  0  0  0  0  0
   10.1742  -18.3860   25.8626 O   0  0  0  0  0  0  0  0  0  0  0  0
   10.7079  -16.9393   27.5290 O   0  0  0  0  0  0  0  0  0  0  0  0
  2  3  2  0
  2  1  1  0
  4  2  1  0
  5  4  1  0
  6  5  1  0
  6  7  1  1
  8  6  1  0
  8  9  2  0
 10  8  1  0
 11 10  1  0
 11 12  1  0
 12 17  1  0
 13 12  2  0
 14 15  1  0
 16 15  1  1
 16 18  1  0
 17 16  1  0
 18 20  1  0
 19 18  2  0
M  END
$$$$
