YQK.pdb
     RDKit          3D

 31 31  0  0  1  0  0  0  0  0999 V2000
   26.2235  -21.2281   -7.7196 O   0  0  0  0  0  0  0  0  0  0  0  0
   25.7799  -20.9830   -9.0160 C   0  0  0  0  0  0  0  0  0  0  0  0
   25.9652  -21.9681   -9.9463 C   0  0  0  0  0  0  0  0  0  0  0  0
   25.5562  -21.7936  -11.2274 C   0  0  0  0  0  0  0  0  0  0  0  0
   24.9496  -20.6227  -11.6069 C   0  0  0  0  0  0  0  0  0  0  0  0
   24.5027  -20.4330  -13.0085 C   0  0  0  0  0  0  0  0  0  0  0  0
   22.9936  -20.1851  -13.0240 C   0  0  2  0  0  0  0  0  0  0  0  0
   22.3131  -21.4075  -12.7146 N   0  0  0  0  0  0  0  0  0  0  0  0
   22.6809  -19.7403  -14.4278 C   0  0  0  0  0  0  0  0  0  0  0  0
   22.2189  -20.5261  -15.2882 O   0  0  0  0  0  0  0  0  0  0  0  0
   24.7613  -19.6346  -10.6831 C   0  0  0  0  0  0  0  0  0  0  0  0
   25.1710  -19.8099   -9.4009 C   0  0  0  0  0  0  0  0  0  0  0  0
   22.0749  -13.7231  -15.5475 N   0  0  0  0  0  0  0  0  0  0  0  0
   21.9049  -14.1761  -16.8694 C   0  0  0  0  0  0  0  0  0  0  0  0
   21.6458  -13.3441  -17.7666 O   0  0  0  0  0  0  0  0  0  0  0  0
   22.0258  -15.6371  -17.2386 C   0  0  0  0  0  0  0  0  0  0  0  0
   22.3544  -16.3827  -16.0112 C   0  0  0  0  0  0  0  0  0  0  0  0
   22.4806  -17.8582  -16.1169 C   0  0  2  0  0  0  0  0  0  0  0  0
   22.9073  -18.4001  -14.8094 N   0  0  0  0  0  0  0  0  0  0  0  0
   23.4195  -18.4023  -17.0877 C   0  0  0  0  0  0  0  0  0  0  0  0
   24.6309  -18.5235  -16.7827 O   0  0  0  0  0  0  0  0  0  0  0  0
   23.0059  -18.8080  -18.3706 N   0  0  0  0  0  0  0  0  0  0  0  0
   23.9998  -19.3812  -19.3428 C   0  0  1  0  0  0  0  0  0  0  0  0
   23.2135  -20.1775  -20.2966 C   0  0  0  0  0  0  0  0  0  0  0  0
   23.7636  -20.8813  -21.4339 C   0  0  0  0  0  0  0  0  0  0  0  0
   23.0225  -21.7609  -22.3276 C   0  0  0  0  0  0  0  0  0  0  0  0
   23.8234  -22.4428  -23.3645 C   0  0  0  0  0  0  0  0  0  0  0  0
   23.0233  -23.4313  -24.1071 N   0  0  0  0  0  0  0  0  0  0  0  0
   24.6606  -18.2427  -20.0311 C   0  0  0  0  0  0  0  0  0  0  0  0
   25.6537  -18.4761  -20.7598 O   0  0  0  0  0  0  0  0  0  0  0  0
   24.1803  -16.9399  -19.8655 O   0  0  0  0  0  0  0  0  0  0  0  0
  2  1  1  0
  3  2  2  0
  4  3  1  0
  5 11  1  0
  5  4  2  0
  6  5  1  0
  7  9  1  0
  7  6  1  0
  7  8  1  6
  9 10  2  0
 11 12  2  0
 12  2  1  0
 13 14  1  0
 14 15  2  0
 16 14  1  0
 17 16  1  0
 18 17  1  1
 19 18  1  0
 19  9  1  0
 20 18  1  0
 21 20  2  0
 22 20  1  0
 23 29  1  0
 23 22  1  0
 23 24  1  6
 25 24  1  0
 26 25  1  0
 26 27  1  0
 27 28  1  0
 29 31  1  0
 30 29  2  0
M  END
$$$$
