YQK.pdb
     RDKit          3D

 31 31  0  0  1  0  0  0  0  0999 V2000
   14.3285  -14.0307  -20.3539 O   0  0  0  0  0  0  0  0  0  0  0  0
   14.9426  -13.0387  -19.5947 C   0  0  0  0  0  0  0  0  0  0  0  0
   14.4039  -12.7524  -18.3707 C   0  0  0  0  0  0  0  0  0  0  0  0
   14.9536  -11.7970  -17.5809 C   0  0  0  0  0  0  0  0  0  0  0  0
   16.0606  -11.1038  -18.0016 C   0  0  0  0  0  0  0  0  0  0  0  0
   16.6611  -10.0588  -17.1368 C   0  0  0  0  0  0  0  0  0  0  0  0
   18.0519  -10.5144  -16.6927 C   0  0  2  0  0  0  0  0  0  0  0  0
   17.9209  -11.6474  -15.8255 N   0  0  0  0  0  0  0  0  0  0  0  0
   18.6344   -9.3400  -15.9527 C   0  0  0  0  0  0  0  0  0  0  0  0
   18.3222   -9.0783  -14.7672 O   0  0  0  0  0  0  0  0  0  0  0  0
   16.6039  -11.3844  -19.2228 C   0  0  0  0  0  0  0  0  0  0  0  0
   16.0531  -12.3409  -20.0129 C   0  0  0  0  0  0  0  0  0  0  0  0
   24.2371   -8.4092  -15.4190 N   0  0  0  0  0  0  0  0  0  0  0  0
   23.3284   -9.0660  -14.5679 C   0  0  0  0  0  0  0  0  0  0  0  0
   23.7617   -9.9142  -13.7572 O   0  0  0  0  0  0  0  0  0  0  0  0
   21.8446   -8.7783  -14.6033 C   0  0  0  0  0  0  0  0  0  0  0  0
   21.6188   -7.7157  -15.5985 C   0  0  0  0  0  0  0  0  0  0  0  0
   20.2131   -7.3546  -15.9107 C   0  0  2  0  0  0  0  0  0  0  0  0
   19.5637   -8.4930  -16.5946 N   0  0  0  0  0  0  0  0  0  0  0  0
   19.9709   -6.1998  -16.7639 C   0  0  0  0  0  0  0  0  0  0  0  0
   19.9285   -6.3436  -18.0100 O   0  0  0  0  0  0  0  0  0  0  0  0
   19.7737   -4.9127  -16.2291 N   0  0  0  0  0  0  0  0  0  0  0  0
   19.4824   -3.7498  -17.1371 C   0  0  1  0  0  0  0  0  0  0  0  0
   18.3775   -3.0146  -16.5042 C   0  0  0  0  0  0  0  0  0  0  0  0
   17.8557   -1.7487  -16.9696 C   0  0  0  0  0  0  0  0  0  0  0  0
   16.7495   -1.0145  -16.3707 C   0  0  0  0  0  0  0  0  0  0  0  0
   17.0266    0.3957  -16.0299 C   0  0  0  0  0  0  0  0  0  0  0  0
   17.4004    0.5498  -14.6138 N   0  0  0  0  0  0  0  0  0  0  0  0
   20.7057   -2.9091  -17.1942 C   0  0  0  0  0  0  0  0  0  0  0  0
   20.8482   -2.1207  -18.1586 O   0  0  0  0  0  0  0  0  0  0  0  0
   21.6748   -2.9998  -16.1902 O   0  0  0  0  0  0  0  0  0  0  0  0
  2  1  1  0
  3  2  2  0
  4  3  1  0
  5 11  1  0
  5  4  2  0
  6  5  1  0
  7  9  1  0
  7  6  1  0
  7  8  1  1
  9 10  2  0
 11 12  2  0
 12  2  1  0
 13 14  1  0
 14 15  2  0
 16 14  1  0
 17 16  1  0
 18 17  1  6
 19 18  1  0
 19  9  1  0
 20 18  1  0
 21 20  2  0
 22 20  1  0
 23 29  1  0
 23 22  1  0
 23 24  1  1
 25 24  1  0
 26 25  1  0
 26 27  1  0
 27 28  1  0
 29 31  1  0
 30 29  2  0
M  END
$$$$
