YQK.pdb
     RDKit          3D

 31 31  0  0  1  0  0  0  0  0999 V2000
   31.2769  -21.3336  -10.2734 O   0  0  0  0  0  0  0  0  0  0  0  0
   30.0126  -21.0637  -10.7894 C   0  0  0  0  0  0  0  0  0  0  0  0
   29.9205  -20.7748  -12.1230 C   0  0  0  0  0  0  0  0  0  0  0  0
   28.7187  -20.5025  -12.6890 C   0  0  0  0  0  0  0  0  0  0  0  0
   27.5769  -20.5136  -11.9281 C   0  0  0  0  0  0  0  0  0  0  0  0
   26.2628  -20.2156  -12.5484 C   0  0  0  0  0  0  0  0  0  0  0  0
   25.4340  -21.4996  -12.6076 C   0  0  2  0  0  0  0  0  0  0  0  0
   26.0976  -22.4492  -13.4507 N   0  0  0  0  0  0  0  0  0  0  0  0
   24.1128  -21.0898  -13.2016 C   0  0  0  0  0  0  0  0  0  0  0  0
   23.8595  -21.2274  -14.4215 O   0  0  0  0  0  0  0  0  0  0  0  0
   27.6612  -20.8013  -10.5957 C   0  0  0  0  0  0  0  0  0  0  0  0
   28.8646  -21.0737  -10.0297 C   0  0  0  0  0  0  0  0  0  0  0  0
   20.1915  -21.8706   -8.8066 N   0  0  0  0  0  0  0  0  0  0  0  0
   19.2445  -21.8417   -9.8478 C   0  0  0  0  0  0  0  0  0  0  0  0
   18.0617  -22.1644   -9.6003 O   0  0  0  0  0  0  0  0  0  0  0  0
   19.6126  -21.4328  -11.2559 C   0  0  0  0  0  0  0  0  0  0  0  0
   21.0535  -21.1262  -11.2703 C   0  0  0  0  0  0  0  0  0  0  0  0
   21.6717  -20.7927  -12.5782 C   0  0  2  0  0  0  0  0  0  0  0  0
   23.1126  -20.5304  -12.3771 N   0  0  0  0  0  0  0  0  0  0  0  0
   21.1649  -19.6381  -13.3062 C   0  0  0  0  0  0  0  0  0  0  0  0
   21.1580  -18.5094  -12.7575 O   0  0  0  0  0  0  0  0  0  0  0  0
   20.6827  -19.7472  -14.6242 N   0  0  0  0  0  0  0  0  0  0  0  0
   20.1271  -18.5421  -15.3316 C   0  0  1  0  0  0  0  0  0  0  0  0
   20.4441  -18.7317  -16.7548 C   0  0  0  0  0  0  0  0  0  0  0  0
   20.0271  -17.8444  -17.8179 C   0  0  0  0  0  0  0  0  0  0  0  0
   20.3296  -18.0136  -19.2327 C   0  0  0  0  0  0  0  0  0  0  0  0
   19.8937  -16.9136  -20.1168 C   0  0  0  0  0  0  0  0  0  0  0  0
   20.4144  -17.0764  -21.4848 N   0  0  0  0  0  0  0  0  0  0  0  0
   18.6569  -18.5365  -15.1191 C   0  0  0  0  0  0  0  0  0  0  0  0
   18.0843  -19.6197  -14.8535 O   0  0  0  0  0  0  0  0  0  0  0  0
   17.9321  -17.3445  -15.2150 O   0  0  0  0  0  0  0  0  0  0  0  0
  2  1  1  0
  3  2  2  0
  4  3  1  0
  5 11  1  0
  5  4  2  0
  6  5  1  0
  7  9  1  0
  7  6  1  0
  7  8  1  6
  9 10  2  0
 11 12  2  0
 12  2  1  0
 13 14  1  0
 14 15  2  0
 16 14  1  0
 17 16  1  0
 18 17  1  1
 19 18  1  0
 19  9  1  0
 20 18  1  0
 21 20  2  0
 22 20  1  0
 23 29  1  0
 23 22  1  0
 23 24  1  6
 25 24  1  0
 26 25  1  0
 26 27  1  0
 27 28  1  0
 29 31  1  0
 30 29  2  0
M  END
$$$$
