YQK.pdb
     RDKit          3D

 31 31  0  0  1  0  0  0  0  0999 V2000
   24.0440  -15.7322  -22.2469 O   0  0  0  0  0  0  0  0  0  0  0  0
   23.7363  -16.6342  -21.2322 C   0  0  0  0  0  0  0  0  0  0  0  0
   24.0975  -16.3003  -19.9561 C   0  0  0  0  0  0  0  0  0  0  0  0
   23.8275  -17.1343  -18.9216 C   0  0  0  0  0  0  0  0  0  0  0  0
   23.1865  -18.3272  -19.1434 C   0  0  0  0  0  0  0  0  0  0  0  0
   22.8916  -19.2387  -18.0109 C   0  0  0  0  0  0  0  0  0  0  0  0
   24.1830  -19.9348  -17.5787 C   0  0  2  0  0  0  0  0  0  0  0  0
   24.5737  -20.8712  -18.5904 N   0  0  0  0  0  0  0  0  0  0  0  0
   23.8385  -20.6458  -16.2973 C   0  0  0  0  0  0  0  0  0  0  0  0
   23.4284  -21.8302  -16.2821 O   0  0  0  0  0  0  0  0  0  0  0  0
   22.8228  -18.6671  -20.4151 C   0  0  0  0  0  0  0  0  0  0  0  0
   23.0935  -17.8318  -21.4503 C   0  0  0  0  0  0  0  0  0  0  0  0
   26.1399  -22.1797  -12.0312 N   0  0  0  0  0  0  0  0  0  0  0  0
   25.2612  -21.6532  -11.0657 C   0  0  0  0  0  0  0  0  0  0  0  0
   25.1810  -22.2127   -9.9499 O   0  0  0  0  0  0  0  0  0  0  0  0
   24.4112  -20.4324  -11.3353 C   0  0  0  0  0  0  0  0  0  0  0  0
   24.6242  -20.0404  -12.7393 C   0  0  0  0  0  0  0  0  0  0  0  0
   23.7308  -20.6393  -13.7627 C   0  0  2  0  0  0  0  0  0  0  0  0
   23.9739  -19.9766  -15.0616 N   0  0  0  0  0  0  0  0  0  0  0  0
   22.2921  -20.5635  -13.5515 C   0  0  0  0  0  0  0  0  0  0  0  0
   21.6895  -19.4804  -13.7490 O   0  0  0  0  0  0  0  0  0  0  0  0
   21.5453  -21.6814  -13.1344 N   0  0  0  0  0  0  0  0  0  0  0  0
   20.0676  -21.5569  -12.8842 C   0  0  1  0  0  0  0  0  0  0  0  0
   19.6026  -22.9110  -12.5496 C   0  0  0  0  0  0  0  0  0  0  0  0
   18.2271  -23.2679  -12.2814 C   0  0  0  0  0  0  0  0  0  0  0  0
   17.7487  -24.5967  -11.9250 C   0  0  0  0  0  0  0  0  0  0  0  0
   16.2921  -24.7172  -11.7119 C   0  0  0  0  0  0  0  0  0  0  0  0
   15.9302  -26.0339  -11.1602 N   0  0  0  0  0  0  0  0  0  0  0  0
   19.8847  -20.6405  -11.7296 C   0  0  0  0  0  0  0  0  0  0  0  0
   20.7006  -20.7010  -10.7796 O   0  0  0  0  0  0  0  0  0  0  0  0
   18.8223  -19.7314  -11.7084 O   0  0  0  0  0  0  0  0  0  0  0  0
  2  1  1  0
  3  2  2  0
  4  3  1  0
  5 11  1  0
  5  4  2  0
  6  5  1  0
  7  9  1  0
  7  6  1  0
  7  8  1  6
  9 10  2  0
 11 12  2  0
 12  2  1  0
 13 14  1  0
 14 15  2  0
 16 14  1  0
 17 16  1  0
 18 17  1  1
 19 18  1  0
 19  9  1  0
 20 18  1  0
 21 20  2  0
 22 20  1  0
 23 29  1  0
 23 22  1  0
 23 24  1  1
 25 24  1  0
 26 25  1  0
 26 27  1  0
 27 28  1  0
 29 31  1  0
 30 29  2  0
M  END
$$$$
