YQK.pdb
     RDKit          3D

 31 31  0  0  1  0  0  0  0  0999 V2000
   28.8446  -14.6861  -19.8819 O   0  0  0  0  0  0  0  0  0  0  0  0
   27.9851  -15.5324  -19.1871 C   0  0  0  0  0  0  0  0  0  0  0  0
   27.2880  -16.4607  -19.9101 C   0  0  0  0  0  0  0  0  0  0  0  0
   26.4340  -17.3156  -19.2948 C   0  0  0  0  0  0  0  0  0  0  0  0
   26.2585  -17.2594  -17.9350 C   0  0  0  0  0  0  0  0  0  0  0  0
   25.3240  -18.1952  -17.2630 C   0  0  0  0  0  0  0  0  0  0  0  0
   26.1303  -19.2690  -16.5310 C   0  0  2  0  0  0  0  0  0  0  0  0
   26.7902  -20.0996  -17.4941 N   0  0  0  0  0  0  0  0  0  0  0  0
   25.1159  -20.0601  -15.7492 C   0  0  0  0  0  0  0  0  0  0  0  0
   24.5963  -21.1077  -16.2008 O   0  0  0  0  0  0  0  0  0  0  0  0
   26.9513  -16.3350  -17.2066 C   0  0  0  0  0  0  0  0  0  0  0  0
   27.8060  -15.4794  -17.8232 C   0  0  0  0  0  0  0  0  0  0  0  0
   25.5038  -20.4870   -9.7981 N   0  0  0  0  0  0  0  0  0  0  0  0
   24.1986  -21.0059   -9.8914 C   0  0  0  0  0  0  0  0  0  0  0  0
   23.6567  -21.4716   -8.8649 O   0  0  0  0  0  0  0  0  0  0  0  0
   23.4313  -21.0177  -11.1939 C   0  0  0  0  0  0  0  0  0  0  0  0
   24.2997  -20.4322  -12.2299 C   0  0  0  0  0  0  0  0  0  0  0  0
   23.7777  -20.3873  -13.6190 C   0  0  2  0  0  0  0  0  0  0  0  0
   24.7224  -19.6270  -14.4644 N   0  0  0  0  0  0  0  0  0  0  0  0
   22.4754  -19.7773  -13.8469 C   0  0  0  0  0  0  0  0  0  0  0  0
   22.3529  -18.5296  -13.7885 O   0  0  0  0  0  0  0  0  0  0  0  0
   21.3367  -20.5510  -14.1409 N   0  0  0  0  0  0  0  0  0  0  0  0
   19.9884  -19.8981  -14.2727 C   0  0  1  0  0  0  0  0  0  0  0  0
   19.1648  -20.8339  -15.0523 C   0  0  0  0  0  0  0  0  0  0  0  0
   17.7793  -20.6165  -15.4050 C   0  0  0  0  0  0  0  0  0  0  0  0
   16.9211  -21.5659  -16.1004 C   0  0  0  0  0  0  0  0  0  0  0  0
   15.6036  -21.0485  -16.5224 C   0  0  0  0  0  0  0  0  0  0  0  0
   14.8546  -22.0439  -17.3080 N   0  0  0  0  0  0  0  0  0  0  0  0
   19.4366  -19.7303  -12.9039 C   0  0  0  0  0  0  0  0  0  0  0  0
   19.8341  -20.5000  -11.9975 O   0  0  0  0  0  0  0  0  0  0  0  0
   18.4932  -18.7329  -12.6379 O   0  0  0  0  0  0  0  0  0  0  0  0
  2  1  1  0
  3  2  2  0
  4  3  1  0
  5 11  1  0
  5  4  2  0
  6  5  1  0
  7  9  1  0
  7  6  1  0
  7  8  1  6
  9 10  2  0
 11 12  2  0
 12  2  1  0
 13 14  1  0
 14 15  2  0
 16 14  1  0
 17 16  1  0
 18 17  1  1
 19 18  1  0
 19  9  1  0
 20 18  1  0
 21 20  2  0
 22 20  1  0
 23 29  1  0
 23 22  1  0
 23 24  1  6
 25 24  1  0
 26 25  1  0
 26 27  1  0
 27 28  1  0
 29 31  1  0
 30 29  2  0
M  END
$$$$
