YQK.pdb
     RDKit          3D

 31 31  0  0  1  0  0  0  0  0999 V2000
   31.7776  -10.2415  -18.2111 O   0  0  0  0  0  0  0  0  0  0  0  0
   30.5913  -10.7801  -17.7211 C   0  0  0  0  0  0  0  0  0  0  0  0
   29.7526   -9.9462  -17.0343 C   0  0  0  0  0  0  0  0  0  0  0  0
   28.5810  -10.4072  -16.5305 C   0  0  0  0  0  0  0  0  0  0  0  0
   28.2218  -11.7201  -16.7043 C   0  0  0  0  0  0  0  0  0  0  0  0
   26.9399  -12.2232  -16.1528 C   0  0  0  0  0  0  0  0  0  0  0  0
   25.9233  -12.3543  -17.2878 C   0  0  2  0  0  0  0  0  0  0  0  0
   25.5241  -11.0462  -17.7150 N   0  0  0  0  0  0  0  0  0  0  0  0
   24.7593  -13.0996  -16.6911 C   0  0  0  0  0  0  0  0  0  0  0  0
   24.1150  -12.6550  -15.7121 O   0  0  0  0  0  0  0  0  0  0  0  0
   29.0544  -12.5585  -17.3891 C   0  0  0  0  0  0  0  0  0  0  0  0
   30.2270  -12.0964  -17.8931 C   0  0  0  0  0  0  0  0  0  0  0  0
   19.9726  -14.1975  -19.1770 N   0  0  0  0  0  0  0  0  0  0  0  0
   19.7105  -15.1120  -18.1394 C   0  0  0  0  0  0  0  0  0  0  0  0
   18.5480  -15.5511  -17.9979 O   0  0  0  0  0  0  0  0  0  0  0  0
   20.7904  -15.5799  -17.1906 C   0  0  0  0  0  0  0  0  0  0  0  0
   22.0096  -14.8067  -17.4844 C   0  0  0  0  0  0  0  0  0  0  0  0
   23.2294  -15.1232  -16.6997 C   0  0  2  0  0  0  0  0  0  0  0  0
   24.3634  -14.3406  -17.2354 N   0  0  0  0  0  0  0  0  0  0  0  0
   23.6908  -16.5039  -16.6691 C   0  0  0  0  0  0  0  0  0  0  0  0
   24.3850  -16.9501  -17.6147 O   0  0  0  0  0  0  0  0  0  0  0  0
   23.3851  -17.3629  -15.5966 N   0  0  0  0  0  0  0  0  0  0  0  0
   23.8800  -18.7830  -15.5964 C   0  0  1  0  0  0  0  0  0  0  0  0
   24.3501  -19.0431  -14.2277 C   0  0  0  0  0  0  0  0  0  0  0  0
   24.8443  -20.3167  -13.7535 C   0  0  0  0  0  0  0  0  0  0  0  0
   25.3680  -20.5811  -12.4203 C   0  0  0  0  0  0  0  0  0  0  0  0
   25.8760  -21.9491  -12.1914 C   0  0  0  0  0  0  0  0  0  0  0  0
   26.4006  -22.1129  -10.8251 N   0  0  0  0  0  0  0  0  0  0  0  0
   22.7274  -19.6588  -15.9292 C   0  0  0  0  0  0  0  0  0  0  0  0
   21.5685  -19.2411  -15.6958 O   0  0  0  0  0  0  0  0  0  0  0  0
   22.9369  -20.9221  -16.4910 O   0  0  0  0  0  0  0  0  0  0  0  0
  2  1  1  0
  3  2  2  0
  4  3  1  0
  5 11  1  0
  5  4  2  0
  6  5  1  0
  7  9  1  0
  7  6  1  0
  7  8  1  1
  9 10  2  0
 11 12  2  0
 12  2  1  0
 13 14  1  0
 14 15  2  0
 16 14  1  0
 17 16  1  0
 18 17  1  6
 19 18  1  0
 19  9  1  0
 20 18  1  0
 21 20  2  0
 22 20  1  0
 23 29  1  0
 23 22  1  0
 23 24  1  1
 25 24  1  0
 26 25  1  0
 26 27  1  0
 27 28  1  0
 29 31  1  0
 30 29  2  0
M  END
$$$$
