YQK.pdb
     RDKit          3D

 31 31  0  0  1  0  0  0  0  0999 V2000
   18.2809  -17.6025  -17.5447 O   0  0  0  0  0  0  0  0  0  0  0  0
   18.7585  -16.3252  -17.2651 C   0  0  0  0  0  0  0  0  0  0  0  0
   18.4841  -15.8017  -16.0318 C   0  0  0  0  0  0  0  0  0  0  0  0
   18.9200  -14.5625  -15.6953 C   0  0  0  0  0  0  0  0  0  0  0  0
   19.6441  -13.8166  -16.5911 C   0  0  0  0  0  0  0  0  0  0  0  0
   20.1204  -12.4611  -16.2219 C   0  0  0  0  0  0  0  0  0  0  0  0
   18.9448  -11.4845  -16.2777 C   0  0  2  0  0  0  0  0  0  0  0  0
   18.4547  -11.4150  -17.6223 N   0  0  0  0  0  0  0  0  0  0  0  0
   19.5124  -10.1584  -15.8470 C   0  0  0  0  0  0  0  0  0  0  0  0
   20.0082   -9.9839  -14.7090 O   0  0  0  0  0  0  0  0  0  0  0  0
   19.9218  -14.3330  -17.8245 C   0  0  0  0  0  0  0  0  0  0  0  0
   19.4851  -15.5735  -18.1607 C   0  0  0  0  0  0  0  0  0  0  0  0
   23.3246   -6.6422  -18.6647 N   0  0  0  0  0  0  0  0  0  0  0  0
   23.5607   -7.5884  -17.6495 C   0  0  0  0  0  0  0  0  0  0  0  0
   24.7053   -8.0787  -17.5325 O   0  0  0  0  0  0  0  0  0  0  0  0
   22.4739   -8.0304  -16.6962 C   0  0  0  0  0  0  0  0  0  0  0  0
   21.2115   -7.4148  -17.1410 C   0  0  0  0  0  0  0  0  0  0  0  0
   19.9862   -7.7195  -16.3601 C   0  0  2  0  0  0  0  0  0  0  0  0
   19.4963   -9.0624  -16.7368 N   0  0  0  0  0  0  0  0  0  0  0  0
   18.8393   -6.8338  -16.5028 C   0  0  0  0  0  0  0  0  0  0  0  0
   18.0515   -6.9851  -17.4680 O   0  0  0  0  0  0  0  0  0  0  0  0
   18.5790   -5.8049  -15.5781 N   0  0  0  0  0  0  0  0  0  0  0  0
   17.4153   -4.8750  -15.7846 C   0  0  1  0  0  0  0  0  0  0  0  0
   16.2129   -5.7193  -15.7276 C   0  0  0  0  0  0  0  0  0  0  0  0
   14.8565   -5.2204  -15.6762 C   0  0  0  0  0  0  0  0  0  0  0  0
   13.6523   -6.0384  -15.6272 C   0  0  0  0  0  0  0  0  0  0  0  0
   12.3765   -5.2968  -15.5650 C   0  0  0  0  0  0  0  0  0  0  0  0
   11.2286   -6.2030  -15.3913 N   0  0  0  0  0  0  0  0  0  0  0  0
   17.4209   -3.8960  -14.6674 C   0  0  0  0  0  0  0  0  0  0  0  0
   17.7453   -4.2923  -13.5231 O   0  0  0  0  0  0  0  0  0  0  0  0
   17.0703   -2.5613  -14.8937 O   0  0  0  0  0  0  0  0  0  0  0  0
  2  1  1  0
  3  2  2  0
  4  3  1  0
  5 11  1  0
  5  4  2  0
  6  5  1  0
  7  9  1  0
  7  6  1  0
  7  8  1  6
  9 10  2  0
 11 12  2  0
 12  2  1  0
 13 14  1  0
 14 15  2  0
 16 14  1  0
 17 16  1  0
 18 17  1  6
 19 18  1  0
 19  9  1  0
 20 18  1  0
 21 20  2  0
 22 20  1  0
 23 29  1  0
 23 22  1  0
 23 24  1  1
 25 24  1  0
 26 25  1  0
 26 27  1  0
 27 28  1  0
 29 31  1  0
 30 29  2  0
M  END
$$$$
