YQK.pdb
     RDKit          3D

 31 31  0  0  1  0  0  0  0  0999 V2000
   28.3793  -28.4184  -18.4369 O   0  0  0  0  0  0  0  0  0  0  0  0
   27.6351  -27.4584  -17.7571 C   0  0  0  0  0  0  0  0  0  0  0  0
   27.8970  -27.2781  -16.4270 C   0  0  0  0  0  0  0  0  0  0  0  0
   27.2080  -26.3591  -15.7061 C   0  0  0  0  0  0  0  0  0  0  0  0
   26.2368  -25.5965  -16.3046 C   0  0  0  0  0  0  0  0  0  0  0  0
   25.4839  -24.5914  -15.5150 C   0  0  0  0  0  0  0  0  0  0  0  0
   25.8576  -23.1903  -16.0008 C   0  0  2  0  0  0  0  0  0  0  0  0
   27.2625  -22.9850  -15.8081 N   0  0  0  0  0  0  0  0  0  0  0  0
   25.0575  -22.2480  -15.1417 C   0  0  0  0  0  0  0  0  0  0  0  0
   25.4876  -21.8176  -14.0458 O   0  0  0  0  0  0  0  0  0  0  0  0
   25.9700  -25.7711  -17.6326 C   0  0  0  0  0  0  0  0  0  0  0  0
   26.6600  -26.6913  -18.3535 C   0  0  0  0  0  0  0  0  0  0  0  0
   21.3942  -18.1530  -17.2164 N   0  0  0  0  0  0  0  0  0  0  0  0
   21.2458  -17.8324  -15.8538 C   0  0  0  0  0  0  0  0  0  0  0  0
   20.4970  -16.8836  -15.5324 O   0  0  0  0  0  0  0  0  0  0  0  0
   21.9635  -18.5994  -14.7665 C   0  0  0  0  0  0  0  0  0  0  0  0
   22.7989  -19.6230  -15.4181 C   0  0  0  0  0  0  0  0  0  0  0  0
   22.9194  -20.9411  -14.7459 C   0  0  2  0  0  0  0  0  0  0  0  0
   23.7793  -21.8223  -15.5640 N   0  0  0  0  0  0  0  0  0  0  0  0
   21.7037  -21.7040  -14.5006 C   0  0  0  0  0  0  0  0  0  0  0  0
   20.8156  -21.2359  -13.7475 O   0  0  0  0  0  0  0  0  0  0  0  0
   21.4869  -22.9620  -15.0938 N   0  0  0  0  0  0  0  0  0  0  0  0
   20.1699  -23.6668  -14.9195 C   0  0  1  0  0  0  0  0  0  0  0  0
   20.3023  -24.9453  -15.6333 C   0  0  0  0  0  0  0  0  0  0  0  0
   20.3152  -25.0890  -17.0723 C   0  0  0  0  0  0  0  0  0  0  0  0
   20.3788  -26.3497  -17.7991 C   0  0  0  0  0  0  0  0  0  0  0  0
   20.4458  -26.2381  -19.2704 C   0  0  0  0  0  0  0  0  0  0  0  0
   20.4229  -27.5606  -19.9178 N   0  0  0  0  0  0  0  0  0  0  0  0
   19.9744  -23.8971  -13.4651 C   0  0  0  0  0  0  0  0  0  0  0  0
   20.9496  -24.2914  -12.7830 O   0  0  0  0  0  0  0  0  0  0  0  0
   18.7260  -23.6770  -12.8748 O   0  0  0  0  0  0  0  0  0  0  0  0
  2  1  1  0
  3  2  2  0
  4  3  1  0
  5 11  1  0
  5  4  2  0
  6  5  1  0
  7  9  1  0
  7  6  1  0
  7  8  1  1
  9 10  2  0
 11 12  2  0
 12  2  1  0
 13 14  1  0
 14 15  2  0
 16 14  1  0
 17 16  1  0
 18 17  1  6
 19 18  1  0
 19  9  1  0
 20 18  1  0
 21 20  2  0
 22 20  1  0
 23 29  1  0
 23 22  1  0
 23 24  1  6
 25 24  1  0
 26 25  1  0
 26 27  1  0
 27 28  1  0
 29 31  1  0
 30 29  2  0
M  END
$$$$
