YQK.pdb
     RDKit          3D

 31 31  0  0  1  0  0  0  0  0999 V2000
   24.4946  -21.1248   -7.5953 O   0  0  0  0  0  0  0  0  0  0  0  0
   24.7443  -20.7654   -8.9167 C   0  0  0  0  0  0  0  0  0  0  0  0
   23.6661  -20.5212   -9.7218 C   0  0  0  0  0  0  0  0  0  0  0  0
   23.8394  -20.1669  -11.0192 C   0  0  0  0  0  0  0  0  0  0  0  0
   25.1028  -20.0487  -11.5415 C   0  0  0  0  0  0  0  0  0  0  0  0
   25.2912  -19.6611  -12.9609 C   0  0  0  0  0  0  0  0  0  0  0  0
   24.6322  -20.7095  -13.8583 C   0  0  2  0  0  0  0  0  0  0  0  0
   25.4241  -21.9036  -13.8460 N   0  0  0  0  0  0  0  0  0  0  0  0
   24.6122  -20.0963  -15.2330 C   0  0  0  0  0  0  0  0  0  0  0  0
   25.6620  -19.7464  -15.8218 O   0  0  0  0  0  0  0  0  0  0  0  0
   26.1842  -20.2910  -10.7434 C   0  0  0  0  0  0  0  0  0  0  0  0
   26.0100  -20.6457   -9.4447 C   0  0  0  0  0  0  0  0  0  0  0  0
   25.4476  -18.3466  -19.8433 N   0  0  0  0  0  0  0  0  0  0  0  0
   26.2361  -19.0200  -18.8912 C   0  0  0  0  0  0  0  0  0  0  0  0
   27.4672  -18.8018  -18.8604 O   0  0  0  0  0  0  0  0  0  0  0  0
   25.6410  -19.9988  -17.9047 C   0  0  0  0  0  0  0  0  0  0  0  0
   24.1928  -20.0715  -18.1650 C   0  0  0  0  0  0  0  0  0  0  0  0
   23.2928  -19.3186  -17.2555 C   0  0  2  0  0  0  0  0  0  0  0  0
   23.3830  -19.8995  -15.8991 N   0  0  0  0  0  0  0  0  0  0  0  0
   21.8712  -19.2809  -17.5678 C   0  0  0  0  0  0  0  0  0  0  0  0
   21.1544  -20.2837  -17.3318 O   0  0  0  0  0  0  0  0  0  0  0  0
   21.2661  -18.1393  -18.1266 N   0  0  0  0  0  0  0  0  0  0  0  0
   19.8016  -18.1466  -18.4685 C   0  0  1  0  0  0  0  0  0  0  0  0
   19.1579  -17.2560  -17.4917 C   0  0  0  0  0  0  0  0  0  0  0  0
   18.2637  -17.6919  -16.4421 C   0  0  0  0  0  0  0  0  0  0  0  0
   17.5366  -16.8200  -15.5296 C   0  0  0  0  0  0  0  0  0  0  0  0
   16.6899  -17.5023  -14.5300 C   0  0  0  0  0  0  0  0  0  0  0  0
   16.0051  -16.5404  -13.6498 N   0  0  0  0  0  0  0  0  0  0  0  0
   19.6603  -17.6042  -19.8441 C   0  0  0  0  0  0  0  0  0  0  0  0
   20.5861  -16.8982  -20.3093 O   0  0  0  0  0  0  0  0  0  0  0  0
   18.5160  -17.8786  -20.5995 O   0  0  0  0  0  0  0  0  0  0  0  0
  2  1  1  0
  3  2  2  0
  4  3  1  0
  5 11  1  0
  5  4  2  0
  6  5  1  0
  7  9  1  0
  7  6  1  0
  7  8  1  6
  9 10  2  0
 11 12  2  0
 12  2  1  0
 13 14  1  0
 14 15  2  0
 16 14  1  0
 17 16  1  0
 18 17  1  6
 19 18  1  0
 19  9  1  0
 20 18  1  0
 21 20  2  0
 22 20  1  0
 23 29  1  0
 23 22  1  0
 23 24  1  1
 25 24  1  0
 26 25  1  0
 26 27  1  0
 27 28  1  0
 29 31  1  0
 30 29  2  0
M  END
$$$$
