EPQ.pdb
     RDKit          3D

 26 26  0  0  1  0  0  0  0  0999 V2000
    9.9239  -15.6622   15.1593 N   0  0  0  0  0  0  0  0  0  0  0  0
    8.8893  -15.3613   16.1361 C   0  0  1  0  0  0  0  0  0  0  0  0
    8.0125  -16.5728   16.2292 C   0  0  0  0  0  0  0  0  0  0  0  0
    8.6448  -17.7831   16.8162 C   0  0  0  0  0  0  0  0  0  0  0  0
    7.6472  -18.8285   17.1057 C   0  0  0  0  0  0  0  0  0  0  0  0
    6.4273  -18.7681   16.9154 O   0  0  0  0  0  0  0  0  0  0  0  0
    9.5136  -14.9799   17.4268 C   0  0  0  0  0  0  0  0  0  0  0  0
   10.7305  -15.2842   17.5595 O   0  0  0  0  0  0  0  0  0  0  0  0
    8.1504  -20.0173   17.6571 O   0  0  0  0  0  0  0  0  0  0  0  0
    8.8317  -14.3194   18.4667 N   0  0  0  0  0  0  0  0  0  0  0  0
    7.4136  -14.0204   18.5488 C   0  0  0  0  0  0  0  0  0  0  0  0
    7.2048  -13.2089   19.7938 C   0  0  0  0  0  0  0  0  0  0  0  0
    8.5823  -12.6281   20.0646 C   0  0  0  0  0  0  0  0  0  0  0  0
    9.4534  -13.8089   19.6763 C   0  0  1  0  0  0  0  0  0  0  0  0
    9.3599  -14.7892   20.7917 C   0  0  0  0  0  0  0  0  0  0  0  0
    8.5450  -15.7238   20.8337 O   0  0  0  0  0  0  0  0  0  0  0  0
   14.9643  -16.1047   22.1120 N   0  0  0  0  0  0  0  0  0  0  0  0
   14.0929  -17.0399   22.7518 C   0  0  0  0  0  0  0  0  0  0  0  0
   14.2239  -18.2759   22.6177 O   0  0  0  0  0  0  0  0  0  0  0  0
   12.9815  -16.5044   23.6154 C   0  0  0  0  0  0  0  0  0  0  0  0
   12.2987  -15.3875   22.8946 C   0  0  0  0  0  0  0  0  0  0  0  0
   10.8734  -15.7549   22.5542 C   0  0  2  0  0  0  0  0  0  0  0  0
   10.2713  -14.6305   21.8729 N   0  0  0  0  0  0  0  0  0  0  0  0
   10.0791  -16.0142   23.7997 C   0  0  0  0  0  0  0  0  0  0  0  0
   10.2689  -17.0530   24.4999 O   0  0  0  0  0  0  0  0  0  0  0  0
    9.1028  -15.1356   24.2453 O   0  0  0  0  0  0  0  0  0  0  0  0
  2  3  1  0
  2  1  1  6
  4  5  1  0
  4  3  1  0
  5  9  1  0
  6  5  2  0
  7  2  1  0
  8  7  2  0
 10  7  1  0
 11 10  1  0
 12 13  1  0
 12 11  1  0
 13 14  1  0
 14 15  1  1
 14 10  1  0
 15 23  1  0
 16 15  2  0
 17 18  1  0
 18 19  2  0
 18 20  1  0
 20 21  1  0
 22 21  1  1
 22 24  1  0
 23 22  1  0
 24 25  2  0
 24 26  1  0
M  END
$$$$
