EPQ.pdb
     RDKit          3D

 26 26  0  0  1  0  0  0  0  0999 V2000
    9.9800  -15.9324   15.5460 N   0  0  0  0  0  0  0  0  0  0  0  0
    8.9113  -15.4741   16.4195 C   0  0  1  0  0  0  0  0  0  0  0  0
    7.8469  -16.5286   16.3958 C   0  0  0  0  0  0  0  0  0  0  0  0
    8.2272  -17.8420   16.9785 C   0  0  0  0  0  0  0  0  0  0  0  0
    7.1083  -18.7999   16.9298 C   0  0  0  0  0  0  0  0  0  0  0  0
    5.9870  -18.6125   16.4442 O   0  0  0  0  0  0  0  0  0  0  0  0
    9.4514  -15.2064   17.7752 C   0  0  0  0  0  0  0  0  0  0  0  0
   10.5987  -15.6741   18.0116 O   0  0  0  0  0  0  0  0  0  0  0  0
    7.3560  -20.0583   17.5002 O   0  0  0  0  0  0  0  0  0  0  0  0
    8.7642  -14.4816   18.7677 N   0  0  0  0  0  0  0  0  0  0  0  0
    7.4204  -13.9369   18.6988 C   0  0  0  0  0  0  0  0  0  0  0  0
    7.1945  -13.1578   19.9614 C   0  0  0  0  0  0  0  0  0  0  0  0
    8.6044  -12.8465   20.4341 C   0  0  0  0  0  0  0  0  0  0  0  0
    9.3019  -14.1458   20.0748 C   0  0  1  0  0  0  0  0  0  0  0  0
    8.8965  -15.1425   21.1024 C   0  0  0  0  0  0  0  0  0  0  0  0
    7.9137  -15.8927   20.9984 O   0  0  0  0  0  0  0  0  0  0  0  0
   12.4961  -18.2724   19.7226 N   0  0  0  0  0  0  0  0  0  0  0  0
   12.5603  -18.9117   20.9996 C   0  0  0  0  0  0  0  0  0  0  0  0
   13.2823  -19.9100   21.2120 O   0  0  0  0  0  0  0  0  0  0  0  0
   11.7240  -18.3532   22.1203 C   0  0  0  0  0  0  0  0  0  0  0  0
   11.1136  -17.0631   21.6771 C   0  0  0  0  0  0  0  0  0  0  0  0
   10.2361  -16.4798   22.7597 C   0  0  2  0  0  0  0  0  0  0  0  0
    9.6984  -15.2282   22.2748 N   0  0  0  0  0  0  0  0  0  0  0  0
   11.0373  -16.1866   23.9933 C   0  0  0  0  0  0  0  0  0  0  0  0
   11.2858  -17.0873   24.8491 O   0  0  0  0  0  0  0  0  0  0  0  0
   11.5433  -14.9227   24.2581 O   0  0  0  0  0  0  0  0  0  0  0  0
  2  3  1  0
  2  1  1  6
  4  5  1  0
  4  3  1  0
  5  9  1  0
  6  5  2  0
  7  2  1  0
  8  7  2  0
 10  7  1  0
 11 10  1  0
 12 13  1  0
 12 11  1  0
 13 14  1  0
 14 15  1  1
 14 10  1  0
 15 23  1  0
 16 15  2  0
 17 18  1  0
 18 19  2  0
 18 20  1  0
 20 21  1  0
 22 21  1  6
 22 24  1  0
 23 22  1  0
 24 25  2  0
 24 26  1  0
M  END
$$$$
