EPQ.pdb
     RDKit          3D

 26 26  0  0  1  0  0  0  0  0999 V2000
    9.8243  -17.8661   18.4558 N   0  0  0  0  0  0  0  0  0  0  0  0
    8.6834  -17.0305   18.7952 C   0  0  1  0  0  0  0  0  0  0  0  0
    7.5504  -17.9538   19.1260 C   0  0  0  0  0  0  0  0  0  0  0  0
    7.7470  -18.8132   20.3226 C   0  0  0  0  0  0  0  0  0  0  0  0
    6.5223  -19.5607   20.6591 C   0  0  0  0  0  0  0  0  0  0  0  0
    5.3561  -19.1610   20.5678 O   0  0  0  0  0  0  0  0  0  0  0  0
    9.0451  -16.1138   19.9043 C   0  0  0  0  0  0  0  0  0  0  0  0
   10.0962  -16.4057   20.5375 O   0  0  0  0  0  0  0  0  0  0  0  0
    6.7152  -20.8676   21.1337 O   0  0  0  0  0  0  0  0  0  0  0  0
    8.2942  -14.9783   20.2641 N   0  0  0  0  0  0  0  0  0  0  0  0
    7.0537  -14.5106   19.6729 C   0  0  0  0  0  0  0  0  0  0  0  0
    6.7166  -13.2041   20.3299 C   0  0  0  0  0  0  0  0  0  0  0  0
    8.0563  -12.7298   20.8668 C   0  0  0  0  0  0  0  0  0  0  0  0
    8.6455  -14.0511   21.3258 C   0  0  1  0  0  0  0  0  0  0  0  0
    7.9622  -14.3995   22.6008 C   0  0  0  0  0  0  0  0  0  0  0  0
    6.7440  -14.2710   22.7981 O   0  0  0  0  0  0  0  0  0  0  0  0
    5.6318  -18.4435   23.6993 N   0  0  0  0  0  0  0  0  0  0  0  0
    6.9890  -18.8385   23.9126 C   0  0  0  0  0  0  0  0  0  0  0  0
    7.3768  -20.0154   23.7470 O   0  0  0  0  0  0  0  0  0  0  0  0
    7.9767  -17.7903   24.3523 C   0  0  0  0  0  0  0  0  0  0  0  0
    7.2514  -16.5050   24.5876 C   0  0  0  0  0  0  0  0  0  0  0  0
    8.2187  -15.3875   24.9003 C   0  0  2  0  0  0  0  0  0  0  0  0
    8.7727  -14.9120   23.6521 N   0  0  0  0  0  0  0  0  0  0  0  0
    9.3537  -15.8871   25.7440 C   0  0  0  0  0  0  0  0  0  0  0  0
    9.1722  -16.2607   26.9410 O   0  0  0  0  0  0  0  0  0  0  0  0
   10.6510  -15.9648   25.2598 O   0  0  0  0  0  0  0  0  0  0  0  0
  2  3  1  0
  2  1  1  1
  4  5  1  0
  4  3  1  0
  5  9  1  0
  6  5  2  0
  7  2  1  0
  8  7  2  0
 10  7  1  0
 11 10  1  0
 12 13  1  0
 12 11  1  0
 13 14  1  0
 14 15  1  1
 14 10  1  0
 15 23  1  0
 16 15  2  0
 17 18  1  0
 18 19  2  0
 18 20  1  0
 20 21  1  0
 22 21  1  6
 22 24  1  0
 23 22  1  0
 24 25  2  0
 24 26  1  0
M  END
$$$$
