EPQ.pdb
     RDKit          3D

 26 26  0  0  1  0  0  0  0  0999 V2000
    9.6389  -15.5600   15.1869 N   0  0  0  0  0  0  0  0  0  0  0  0
    8.7324  -15.5908   16.3238 C   0  0  1  0  0  0  0  0  0  0  0  0
    8.2938  -17.0137   16.4926 C   0  0  0  0  0  0  0  0  0  0  0  0
    7.5475  -17.5987   15.3481 C   0  0  0  0  0  0  0  0  0  0  0  0
    7.0850  -18.9660   15.6458 C   0  0  0  0  0  0  0  0  0  0  0  0
    7.2122  -19.5807   16.7107 O   0  0  0  0  0  0  0  0  0  0  0  0
    9.4090  -15.0324   17.5202 C   0  0  0  0  0  0  0  0  0  0  0  0
   10.6693  -15.0843   17.5129 O   0  0  0  0  0  0  0  0  0  0  0  0
    6.4304  -19.6314   14.5975 O   0  0  0  0  0  0  0  0  0  0  0  0
    8.7301  -14.4700   18.6182 N   0  0  0  0  0  0  0  0  0  0  0  0
    7.2960  -14.3855   18.8265 C   0  0  0  0  0  0  0  0  0  0  0  0
    7.0785  -13.6008   20.0871 C   0  0  0  0  0  0  0  0  0  0  0  0
    8.3718  -12.8175   20.2359 C   0  0  0  0  0  0  0  0  0  0  0  0
    9.3724  -13.8589   19.7690 C   0  0  1  0  0  0  0  0  0  0  0  0
    9.5257  -14.8299   20.8859 C   0  0  0  0  0  0  0  0  0  0  0  0
    8.7765  -15.8006   21.0752 O   0  0  0  0  0  0  0  0  0  0  0  0
   15.2539  -15.3089   22.3246 N   0  0  0  0  0  0  0  0  0  0  0  0
   14.8168  -16.2569   23.3011 C   0  0  0  0  0  0  0  0  0  0  0  0
   15.6005  -17.0626   23.8485 O   0  0  0  0  0  0  0  0  0  0  0  0
   13.3583  -16.2756   23.6751 C   0  0  0  0  0  0  0  0  0  0  0  0
   12.6405  -15.2246   22.8917 C   0  0  0  0  0  0  0  0  0  0  0  0
   11.2680  -15.7014   22.4780 C   0  0  2  0  0  0  0  0  0  0  0  0
   10.6066  -14.6172   21.7866 N   0  0  0  0  0  0  0  0  0  0  0  0
   10.4413  -16.0498   23.6799 C   0  0  0  0  0  0  0  0  0  0  0  0
    9.5906  -15.2393   24.1540 O   0  0  0  0  0  0  0  0  0  0  0  0
   10.5654  -17.2690   24.3293 O   0  0  0  0  0  0  0  0  0  0  0  0
  2  3  1  0
  2  1  1  6
  4  5  1  0
  4  3  1  0
  5  9  1  0
  6  5  2  0
  7  2  1  0
  8  7  2  0
 10  7  1  0
 11 10  1  0
 12 13  1  0
 12 11  1  0
 13 14  1  0
 14 15  1  1
 14 10  1  0
 15 23  1  0
 16 15  2  0
 17 18  1  0
 18 19  2  0
 18 20  1  0
 20 21  1  0
 22 21  1  1
 22 24  1  0
 23 22  1  0
 24 25  2  0
 24 26  1  0
M  END
$$$$
