EPQ.pdb
     RDKit          3D

 26 26  0  0  1  0  0  0  0  0999 V2000
    7.9552  -13.5846   20.1116 N   0  0  0  0  0  0  0  0  0  0  0  0
    7.1398  -13.8374   21.2890 C   0  0  1  0  0  0  0  0  0  0  0  0
    6.5410  -15.2006   21.1196 C   0  0  0  0  0  0  0  0  0  0  0  0
    7.5060  -16.3015   20.8629 C   0  0  0  0  0  0  0  0  0  0  0  0
    6.8378  -17.6150   20.8508 C   0  0  0  0  0  0  0  0  0  0  0  0
    6.8560  -18.4524   19.9417 O   0  0  0  0  0  0  0  0  0  0  0  0
    7.9684  -13.7010   22.5120 C   0  0  0  0  0  0  0  0  0  0  0  0
    9.2169  -13.7413   22.3369 O   0  0  0  0  0  0  0  0  0  0  0  0
    6.1043  -17.9379   22.0032 O   0  0  0  0  0  0  0  0  0  0  0  0
    7.4403  -13.5351   23.8067 N   0  0  0  0  0  0  0  0  0  0  0  0
    6.0426  -13.4934   24.1965 C   0  0  0  0  0  0  0  0  0  0  0  0
    6.0029  -13.1859   25.6649 C   0  0  0  0  0  0  0  0  0  0  0  0
    7.3509  -12.5330   25.9194 C   0  0  0  0  0  0  0  0  0  0  0  0
    8.2323  -13.3735   25.0137 C   0  0  1  0  0  0  0  0  0  0  0  0
    8.4368  -14.6731   25.7086 C   0  0  0  0  0  0  0  0  0  0  0  0
    7.8529  -15.7256   25.4074 O   0  0  0  0  0  0  0  0  0  0  0  0
   11.5243  -15.2407   31.0260 N   0  0  0  0  0  0  0  0  0  0  0  0
   11.7503  -16.5528   30.5058 C   0  0  0  0  0  0  0  0  0  0  0  0
   12.2165  -17.4783   31.2053 O   0  0  0  0  0  0  0  0  0  0  0  0
   11.4108  -16.8168   29.0627 C   0  0  0  0  0  0  0  0  0  0  0  0
   10.8213  -15.5798   28.4663 C   0  0  0  0  0  0  0  0  0  0  0  0
   10.0153  -15.9062   27.2309 C   0  0  2  0  0  0  0  0  0  0  0  0
    9.3654  -14.6932   26.7866 N   0  0  0  0  0  0  0  0  0  0  0  0
    8.9460  -16.9104   27.5435 C   0  0  0  0  0  0  0  0  0  0  0  0
    7.8039  -16.5516   27.9587 O   0  0  0  0  0  0  0  0  0  0  0  0
    9.1518  -18.2739   27.3948 O   0  0  0  0  0  0  0  0  0  0  0  0
  2  3  1  0
  2  1  1  6
  4  5  1  0
  4  3  1  0
  5  9  1  0
  6  5  2  0
  7  2  1  0
  8  7  2  0
 10  7  1  0
 11 10  1  0
 12 13  1  0
 12 11  1  0
 13 14  1  0
 14 15  1  1
 14 10  1  0
 15 23  1  0
 16 15  2  0
 17 18  1  0
 18 19  2  0
 18 20  1  0
 20 21  1  0
 22 21  1  1
 22 24  1  0
 23 22  1  0
 24 25  2  0
 24 26  1  0
M  END
$$$$
