AGS.pdb
     RDKit          3D

 16 15  0  0  1  0  0  0  0  0999 V2000
    9.7331  -17.7271   16.5189 C   0  0  0  0  0  0  0  0  0  0  0  0
   11.1738  -17.9437   16.8881 C   0  0  2  0  0  0  0  0  0  0  0  0
   11.2852  -18.5331   18.1936 N   0  0  0  0  0  0  0  0  0  0  0  0
   11.8775  -16.6493   16.8407 C   0  0  0  0  0  0  0  0  0  0  0  0
   12.0049  -16.0208   15.7585 O   0  0  0  0  0  0  0  0  0  0  0  0
   12.4232  -16.0959   18.0301 N   0  0  0  0  0  0  0  0  0  0  0  0
   13.1115  -14.8065   17.9834 C   0  0  0  0  0  0  0  0  0  0  0  0
   13.5674  -14.4395   19.3312 C   0  0  0  0  0  0  0  0  0  0  0  0
   14.2085  -13.3817   19.5423 O   0  0  0  0  0  0  0  0  0  0  0  0
   11.6444  -15.5065   22.4427 O   0  0  0  0  0  0  0  0  0  0  0  0
   12.9867  -15.7332   22.7522 C   0  0  0  0  0  0  0  0  0  0  0  0
   13.8114  -14.9654   21.7584 C   0  0  2  0  0  0  0  0  0  0  0  0
   13.2862  -15.2845   20.4227 N   0  0  0  0  0  0  0  0  0  0  0  0
   15.2498  -15.3443   21.8446 C   0  0  0  0  0  0  0  0  0  0  0  0
   15.8269  -15.9404   20.7442 O   0  0  0  0  0  0  0  0  0  0  0  0
   15.9538  -15.1460   22.8678 O   0  0  0  0  0  0  0  0  0  0  0  0
  2  1  1  1
  2  3  1  0
  4  5  2  0
  4  2  1  0
  6  4  1  0
  7  6  1  0
  8  7  1  0
  9  8  2  0
 10 11  1  0
 12 11  1  1
 12 14  1  0
 12 13  1  0
 13  8  1  0
 14 15  1  0
 16 14  2  0
M  END
$$$$
