AGS.pdb
     RDKit          3D

 16 15  0  0  1  0  0  0  0  0999 V2000
    7.6924  -12.6305   18.8594 C   0  0  0  0  0  0  0  0  0  0  0  0
    8.1192  -13.8260   19.6640 C   0  0  2  0  0  0  0  0  0  0  0  0
    7.3012  -14.9672   19.3596 N   0  0  0  0  0  0  0  0  0  0  0  0
    8.0321  -13.4917   21.0970 C   0  0  0  0  0  0  0  0  0  0  0  0
    8.8322  -12.6747   21.6211 O   0  0  0  0  0  0  0  0  0  0  0  0
    7.0326  -14.0964   21.9058 N   0  0  0  0  0  0  0  0  0  0  0  0
    6.8755  -13.6821   23.2994 C   0  0  0  0  0  0  0  0  0  0  0  0
    7.3809  -14.7363   24.1894 C   0  0  0  0  0  0  0  0  0  0  0  0
    7.2452  -14.6654   25.4348 O   0  0  0  0  0  0  0  0  0  0  0  0
    8.0038  -19.2977   24.5843 O   0  0  0  0  0  0  0  0  0  0  0  0
    7.3997  -18.0891   24.2332 C   0  0  0  0  0  0  0  0  0  0  0  0
    8.3915  -16.9953   24.5109 C   0  0  2  0  0  0  0  0  0  0  0  0
    8.0355  -15.8598   23.6473 N   0  0  0  0  0  0  0  0  0  0  0  0
    9.7825  -17.4420   24.2181 C   0  0  0  0  0  0  0  0  0  0  0  0
   10.4141  -18.2373   25.1497 O   0  0  0  0  0  0  0  0  0  0  0  0
   10.3996  -17.1282   23.1681 O   0  0  0  0  0  0  0  0  0  0  0  0
  2  1  1  6
  2  3  1  0
  4  5  2  0
  4  2  1  0
  6  4  1  0
  7  6  1  0
  8  7  1  0
  9  8  2  0
 10 11  1  0
 12 11  1  6
 12 14  1  0
 12 13  1  0
 13  8  1  0
 14 15  1  0
 16 14  2  0
M  END
$$$$
