AGS.pdb
     RDKit          3D

 16 15  0  0  1  0  0  0  0  0999 V2000
    4.9726  -19.7145   19.7497 C   0  0  0  0  0  0  0  0  0  0  0  0
    6.2761  -19.1986   20.2915 C   0  0  2  0  0  0  0  0  0  0  0  0
    6.2990  -19.2704   21.7262 N   0  0  0  0  0  0  0  0  0  0  0  0
    6.4638  -17.8087   19.8379 C   0  0  0  0  0  0  0  0  0  0  0  0
    6.7438  -17.5511   18.6388 O   0  0  0  0  0  0  0  0  0  0  0  0
    6.3284  -16.7377   20.7617 N   0  0  0  0  0  0  0  0  0  0  0  0
    6.5570  -15.3626   20.3199 C   0  0  0  0  0  0  0  0  0  0  0  0
    7.4916  -14.6966   21.2374 C   0  0  0  0  0  0  0  0  0  0  0  0
    7.9131  -13.5354   21.0171 O   0  0  0  0  0  0  0  0  0  0  0  0
    7.3097  -14.9642   24.9320 O   0  0  0  0  0  0  0  0  0  0  0  0
    8.1885  -14.0370   24.3692 C   0  0  0  0  0  0  0  0  0  0  0  0
    8.9369  -14.7385   23.2713 C   0  0  2  0  0  0  0  0  0  0  0  0
    7.9346  -15.3640   22.3963 N   0  0  0  0  0  0  0  0  0  0  0  0
    9.8525  -15.7771   23.8217 C   0  0  0  0  0  0  0  0  0  0  0  0
   11.0150  -15.3554   24.4300 O   0  0  0  0  0  0  0  0  0  0  0  0
    9.6134  -17.0102   23.7562 O   0  0  0  0  0  0  0  0  0  0  0  0
  2  1  1  1
  2  3  1  0
  4  5  2  0
  4  2  1  0
  6  4  1  0
  7  6  1  0
  8  7  1  0
  9  8  2  0
 10 11  1  0
 12 11  1  1
 12 14  1  0
 12 13  1  0
 13  8  1  0
 14 15  1  0
 16 14  2  0
M  END
$$$$
