AGS.pdb
     RDKit          3D

 16 15  0  0  1  0  0  0  0  0999 V2000
    7.4374  -13.0055   18.9668 C   0  0  0  0  0  0  0  0  0  0  0  0
    7.5492  -14.4547   19.3492 C   0  0  2  0  0  0  0  0  0  0  0  0
    6.6339  -14.7771   20.4087 N   0  0  0  0  0  0  0  0  0  0  0  0
    8.9374  -14.7336   19.7590 C   0  0  0  0  0  0  0  0  0  0  0  0
    9.8739  -14.7284   18.9192 O   0  0  0  0  0  0  0  0  0  0  0  0
    9.2312  -15.0134   21.1207 N   0  0  0  0  0  0  0  0  0  0  0  0
   10.6076  -15.2987   21.5241 C   0  0  0  0  0  0  0  0  0  0  0  0
   10.6431  -15.6474   22.9510 C   0  0  0  0  0  0  0  0  0  0  0  0
   11.7191  -15.9291   23.5317 O   0  0  0  0  0  0  0  0  0  0  0  0
    7.1702  -15.4939   24.9526 O   0  0  0  0  0  0  0  0  0  0  0  0
    8.2403  -14.8773   25.6033 C   0  0  0  0  0  0  0  0  0  0  0  0
    9.4949  -15.5787   25.1656 C   0  0  2  0  0  0  0  0  0  0  0  0
    9.4494  -15.6704   23.6989 N   0  0  0  0  0  0  0  0  0  0  0  0
    9.5849  -16.9424   25.7592 C   0  0  0  0  0  0  0  0  0  0  0  0
    9.5810  -18.0209   24.9012 O   0  0  0  0  0  0  0  0  0  0  0  0
    9.6634  -17.1506   26.9970 O   0  0  0  0  0  0  0  0  0  0  0  0
  2  1  1  1
  2  3  1  0
  4  5  2  0
  4  2  1  0
  6  4  1  0
  7  6  1  0
  8  7  1  0
  9  8  2  0
 10 11  1  0
 12 11  1  1
 12 14  1  0
 12 13  1  0
 13  8  1  0
 14 15  1  0
 16 14  2  0
M  END
$$$$
