AGS.pdb
     RDKit          3D

 16 15  0  0  1  0  0  0  0  0999 V2000
    7.7674  -13.1541   18.2745 C   0  0  0  0  0  0  0  0  0  0  0  0
    8.3063  -14.1002   19.3105 C   0  0  2  0  0  0  0  0  0  0  0  0
    7.6324  -15.3675   19.2470 N   0  0  0  0  0  0  0  0  0  0  0  0
    8.1430  -13.4911   20.6428 C   0  0  0  0  0  0  0  0  0  0  0  0
    8.8688  -12.5313   21.0094 O   0  0  0  0  0  0  0  0  0  0  0  0
    7.1537  -13.9891   21.5328 N   0  0  0  0  0  0  0  0  0  0  0  0
    6.9536  -13.3468   22.8312 C   0  0  0  0  0  0  0  0  0  0  0  0
    7.2276  -14.3092   23.9072 C   0  0  0  0  0  0  0  0  0  0  0  0
    6.7096  -14.1889   25.0436 O   0  0  0  0  0  0  0  0  0  0  0  0
    6.2370  -17.3245   24.3754 O   0  0  0  0  0  0  0  0  0  0  0  0
    7.5984  -17.6330   24.3674 C   0  0  0  0  0  0  0  0  0  0  0  0
    8.3433  -16.3815   24.7367 C   0  0  2  0  0  0  0  0  0  0  0  0
    8.0901  -15.3983   23.6733 N   0  0  0  0  0  0  0  0  0  0  0  0
    9.8060  -16.6399   24.8544 C   0  0  0  0  0  0  0  0  0  0  0  0
   10.2358  -17.4630   25.8728 O   0  0  0  0  0  0  0  0  0  0  0  0
   10.6576  -16.1447   24.0725 O   0  0  0  0  0  0  0  0  0  0  0  0
  2  1  1  6
  2  3  1  0
  4  5  2  0
  4  2  1  0
  6  4  1  0
  7  6  1  0
  8  7  1  0
  9  8  2  0
 10 11  1  0
 12 11  1  6
 12 14  1  0
 12 13  1  0
 13  8  1  0
 14 15  1  0
 16 14  2  0
M  END
$$$$
