AGS.pdb
     RDKit          3D

 16 15  0  0  1  0  0  0  0  0999 V2000
    5.7969  -21.8417   20.5779 C   0  0  0  0  0  0  0  0  0  0  0  0
    5.0698  -20.6598   21.1552 C   0  0  2  0  0  0  0  0  0  0  0  0
    5.4424  -19.4485   20.4784 N   0  0  0  0  0  0  0  0  0  0  0  0
    5.3779  -20.5670   22.5937 C   0  0  0  0  0  0  0  0  0  0  0  0
    5.0351  -21.4790   23.3895 O   0  0  0  0  0  0  0  0  0  0  0  0
    6.0720  -19.4343   23.0977 N   0  0  0  0  0  0  0  0  0  0  0  0
    6.3375  -19.3224   24.5314 C   0  0  0  0  0  0  0  0  0  0  0  0
    7.5830  -18.5732   24.7473 C   0  0  0  0  0  0  0  0  0  0  0  0
    8.5858  -19.1061   25.2809 O   0  0  0  0  0  0  0  0  0  0  0  0
    8.3673  -15.2589   22.6605 O   0  0  0  0  0  0  0  0  0  0  0  0
    8.6968  -15.0926   24.0068 C   0  0  0  0  0  0  0  0  0  0  0  0
    8.9038  -16.4619   24.5897 C   0  0  2  0  0  0  0  0  0  0  0  0
    7.6692  -17.2240   24.3515 N   0  0  0  0  0  0  0  0  0  0  0  0
    9.1838  -16.3886   26.0513 C   0  0  0  0  0  0  0  0  0  0  0  0
   10.3698  -15.8130   26.4528 O   0  0  0  0  0  0  0  0  0  0  0  0
    8.3928  -16.8249   26.9264 O   0  0  0  0  0  0  0  0  0  0  0  0
  2  1  1  6
  2  3  1  0
  4  5  2  0
  4  2  1  0
  6  4  1  0
  7  6  1  0
  8  7  1  0
  9  8  2  0
 10 11  1  0
 12 11  1  1
 12 14  1  0
 12 13  1  0
 13  8  1  0
 14 15  1  0
 16 14  2  0
M  END
$$$$
