AGS.pdb
     RDKit          3D

 16 15  0  0  1  0  0  0  0  0999 V2000
    6.6500  -18.7352   19.2051 C   0  0  0  0  0  0  0  0  0  0  0  0
    6.8403  -18.0826   20.5455 C   0  0  2  0  0  0  0  0  0  0  0  0
    5.5739  -17.8031   21.1638 N   0  0  0  0  0  0  0  0  0  0  0  0
    7.6156  -16.8418   20.3655 C   0  0  0  0  0  0  0  0  0  0  0  0
    8.8170  -16.8771   19.9942 O   0  0  0  0  0  0  0  0  0  0  0  0
    7.0049  -15.5830   20.6128 N   0  0  0  0  0  0  0  0  0  0  0  0
    7.7814  -14.3540   20.4540 C   0  0  0  0  0  0  0  0  0  0  0  0
    8.0647  -13.7733   21.7736 C   0  0  0  0  0  0  0  0  0  0  0  0
    8.7453  -12.7265   21.8982 O   0  0  0  0  0  0  0  0  0  0  0  0
    6.9047  -13.1593   26.2615 O   0  0  0  0  0  0  0  0  0  0  0  0
    6.5991  -13.6758   25.0011 C   0  0  0  0  0  0  0  0  0  0  0  0
    7.8956  -13.8503   24.2622 C   0  0  2  0  0  0  0  0  0  0  0  0
    7.5675  -14.3943   22.9363 N   0  0  0  0  0  0  0  0  0  0  0  0
    8.8063  -14.7824   24.9846 C   0  0  0  0  0  0  0  0  0  0  0  0
    9.4612  -14.3086   26.1008 O   0  0  0  0  0  0  0  0  0  0  0  0
    9.0019  -15.9713   24.6238 O   0  0  0  0  0  0  0  0  0  0  0  0
  2  1  1  6
  2  3  1  0
  4  5  2  0
  4  2  1  0
  6  4  1  0
  7  6  1  0
  8  7  1  0
  9  8  2  0
 10 11  1  0
 12 11  1  1
 12 14  1  0
 12 13  1  0
 13  8  1  0
 14 15  1  0
 16 14  2  0
M  END
$$$$
