ISY.pdb
     RDKit          3D

 27 27  0  0  1  0  0  0  0  0999 V2000
    7.7789  -11.4274   19.7349 C   0  0  0  0  0  0  0  0  0  0  0  0
    8.2654  -12.7789   19.3348 C   0  0  0  0  0  0  0  0  0  0  0  0
    8.0537  -13.8725   20.3209 C   0  0  2  0  0  0  0  0  0  0  0  0
    8.6103  -13.5424   21.6918 C   0  0  0  0  0  0  0  0  0  0  0  0
    8.5249  -15.2151   19.8792 C   0  0  2  0  0  0  0  0  0  0  0  0
    7.9439  -15.6114   18.6347 N   0  0  0  0  0  0  0  0  0  0  0  0
    8.3008  -16.2724   20.8924 C   0  0  0  0  0  0  0  0  0  0  0  0
    7.1456  -16.8087   21.0257 O   0  0  0  0  0  0  0  0  0  0  0  0
   11.2403  -18.5106   21.8822 O   0  0  0  0  0  0  0  0  0  0  0  0
   10.0229  -18.8967   22.3986 C   0  0  0  0  0  0  0  0  0  0  0  0
    9.1493  -17.7004   22.7822 C   0  0  2  0  0  0  0  0  0  0  0  0
    9.3393  -16.7037   21.7204 N   0  0  0  0  0  0  0  0  0  0  0  0
    9.6718  -17.0780   24.0456 C   0  0  0  0  0  0  0  0  0  0  0  0
   10.6715  -16.3097   24.0347 O   0  0  0  0  0  0  0  0  0  0  0  0
    6.0929  -11.5693   25.2624 O   0  0  0  0  0  0  0  0  0  0  0  0
    6.7156  -12.6908   25.7916 C   0  0  0  0  0  0  0  0  0  0  0  0
    8.0304  -12.6879   26.2062 C   0  0  0  0  0  0  0  0  0  0  0  0
    8.6410  -13.8238   26.7359 C   0  0  0  0  0  0  0  0  0  0  0  0
    7.9381  -15.0040   26.8635 C   0  0  0  0  0  0  0  0  0  0  0  0
    8.5220  -16.2188   27.4002 C   0  0  0  0  0  0  0  0  0  0  0  0
    9.6203  -16.7420   26.5341 C   0  0  2  0  0  0  0  0  0  0  0  0
    9.0621  -17.3292   25.3010 N   0  0  0  0  0  0  0  0  0  0  0  0
   10.3676  -17.8010   27.2140 C   0  0  0  0  0  0  0  0  0  0  0  0
   11.1606  -17.5288   28.1401 O   0  0  0  0  0  0  0  0  0  0  0  0
    6.6047  -14.9939   26.4393 C   0  0  0  0  0  0  0  0  0  0  0  0
    6.0052  -13.8658   25.9155 C   0  0  0  0  0  0  0  0  0  0  0  0
   10.2104  -19.1199   26.8490 O   0  0  0  0  0  0  0  0  0  0  0  0
  1  2  1  0
  2  3  1  0
  3  4  1  1
  5  3  1  0
  5  6  1  6
  7  5  1  0
  8  7  2  0
  9 10  1  0
 11 10  1  6
 11 12  1  0
 12  7  1  0
 13 22  1  0
 13 11  1  0
 14 13  2  0
 16 15  1  0
 17 16  2  0
 18 17  1  0
 19 25  1  0
 19 18  2  0
 21 20  1  1
 20 19  1  0
 21 22  1  0
 23 21  1  0
 24 23  2  0
 25 26  2  0
 26 16  1  0
 27 23  1  0
M  END
$$$$
