ISY.pdb
     RDKit          3D

 27 27  0  0  1  0  0  0  0  0999 V2000
    6.1541  -11.4343   26.3606 C   0  0  0  0  0  0  0  0  0  0  0  0
    5.7996  -12.8368   25.9991 C   0  0  0  0  0  0  0  0  0  0  0  0
    6.9090  -13.6836   25.4840 C   0  0  2  0  0  0  0  0  0  0  0  0
    7.5985  -13.0773   24.2776 C   0  0  0  0  0  0  0  0  0  0  0  0
    6.5418  -15.1018   25.2133 C   0  0  2  0  0  0  0  0  0  0  0  0
    5.8735  -15.7100   26.3209 N   0  0  0  0  0  0  0  0  0  0  0  0
    7.6984  -15.9354   24.8109 C   0  0  0  0  0  0  0  0  0  0  0  0
    8.4182  -16.5168   25.6962 O   0  0  0  0  0  0  0  0  0  0  0  0
    8.8441  -15.8986   20.8622 O   0  0  0  0  0  0  0  0  0  0  0  0
    8.9627  -17.1120   21.5036 C   0  0  0  0  0  0  0  0  0  0  0  0
    9.1368  -16.9547   23.0157 C   0  0  2  0  0  0  0  0  0  0  0  0
    8.0274  -16.1031   23.4642 N   0  0  0  0  0  0  0  0  0  0  0  0
   10.3988  -16.1918   23.3022 C   0  0  0  0  0  0  0  0  0  0  0  0
   10.6082  -15.0554   22.7977 O   0  0  0  0  0  0  0  0  0  0  0  0
    9.9804  -17.0179   30.1880 O   0  0  0  0  0  0  0  0  0  0  0  0
   10.5060  -16.4481   29.0370 C   0  0  0  0  0  0  0  0  0  0  0  0
   10.2888  -15.1315   28.6905 C   0  0  0  0  0  0  0  0  0  0  0  0
   10.8244  -14.5745   27.5300 C   0  0  0  0  0  0  0  0  0  0  0  0
   11.5998  -15.3347   26.6794 C   0  0  0  0  0  0  0  0  0  0  0  0
   12.1772  -14.8123   25.4553 C   0  0  0  0  0  0  0  0  0  0  0  0
   12.5783  -15.9019   24.5162 C   0  0  2  0  0  0  0  0  0  0  0  0
   11.4049  -16.7186   24.1512 N   0  0  0  0  0  0  0  0  0  0  0  0
   13.5510  -16.8015   25.1383 C   0  0  0  0  0  0  0  0  0  0  0  0
   14.6507  -16.3698   25.5443 O   0  0  0  0  0  0  0  0  0  0  0  0
   11.8129  -16.6693   27.0423 C   0  0  0  0  0  0  0  0  0  0  0  0
   11.2800  -17.2155   28.1930 C   0  0  0  0  0  0  0  0  0  0  0  0
   13.2733  -18.1419   25.2916 O   0  0  0  0  0  0  0  0  0  0  0  0
  1  2  1  0
  2  3  1  0
  3  4  1  6
  5  3  1  0
  5  6  1  1
  7  5  1  0
  8  7  2  0
  9 10  1  0
 11 10  1  6
 11 12  1  0
 12  7  1  0
 13 22  1  0
 13 11  1  0
 14 13  2  0
 16 15  1  0
 17 16  2  0
 18 17  1  0
 19 25  1  0
 19 18  2  0
 21 20  1  1
 20 19  1  0
 21 22  1  0
 23 21  1  0
 24 23  2  0
 25 26  2  0
 26 16  1  0
 27 23  1  0
M  END
$$$$
