KCQ.pdb
     RDKit          3D

 25 24  0  0  1  0  0  0  0  0999 V2000
    9.8582  -15.5690   20.3848 N   0  0  0  0  0  0  0  0  0  0  0  0
    8.7574  -15.6179   21.3021 C   0  0  1  0  0  0  0  0  0  0  0  0
    7.9324  -16.8330   21.1641 C   0  0  0  0  0  0  0  0  0  0  0  0
    8.6870  -18.1012   21.3276 C   0  0  0  0  0  0  0  0  0  0  0  0
    7.8670  -19.3150   21.1119 C   0  0  0  0  0  0  0  0  0  0  0  0
    8.7672  -20.5671   21.2466 C   0  0  0  0  0  0  0  0  0  0  0  0
    7.9339  -21.7291   20.9857 N   0  0  0  0  0  0  0  0  0  0  0  0
    9.2168  -15.4004   22.7170 C   0  0  0  0  0  0  0  0  0  0  0  0
   10.3757  -15.7385   23.0675 O   0  0  0  0  0  0  0  0  0  0  0  0
    8.3828  -14.8156   23.7039 N   0  0  0  0  0  0  0  0  0  0  0  0
    8.8156  -14.5745   25.0384 C   0  0  1  0  0  0  0  0  0  0  0  0
    7.8672  -13.5653   25.6846 C   0  0  0  0  0  0  0  0  0  0  0  0
    8.5059  -13.0782   27.3035 S   0  0  0  0  0  0  0  0  0  0  0  0
    8.9530  -15.7696   25.8650 C   0  0  0  0  0  0  0  0  0  0  0  0
    8.0281  -16.5941   26.0483 O   0  0  0  0  0  0  0  0  0  0  0  0
   14.1973  -18.9093   26.5125 N   0  0  0  0  0  0  0  0  0  0  0  0
   13.2969  -18.7920   25.4231 C   0  0  0  0  0  0  0  0  0  0  0  0
   13.6959  -19.1388   24.2827 O   0  0  0  0  0  0  0  0  0  0  0  0
   11.9372  -18.2711   25.6704 C   0  0  0  0  0  0  0  0  0  0  0  0
   11.7598  -17.8127   27.1009 C   0  0  0  0  0  0  0  0  0  0  0  0
   10.4000  -17.1952   27.3254 C   0  0  2  0  0  0  0  0  0  0  0  0
   10.1937  -16.0256   26.5017 N   0  0  0  0  0  0  0  0  0  0  0  0
   10.2738  -16.7865   28.7399 C   0  0  0  0  0  0  0  0  0  0  0  0
   10.0909  -15.5855   29.0373 O   0  0  0  0  0  0  0  0  0  0  0  0
   10.3543  -17.7143   29.7583 O   0  0  0  0  0  0  0  0  0  0  0  0
  2  8  1  0
  2  1  1  6
  3  2  1  0
  4  3  1  0
  5  4  1  0
  6  5  1  0
  6  7  1  0
  8  9  2  0
 10 11  1  0
 10  8  1  0
 11 12  1  1
 12 13  1  0
 14 11  1  0
 15 14  2  0
 16 17  1  0
 17 19  1  0
 17 18  2  0
 19 20  1  0
 21 20  1  1
 21 22  1  0
 21 23  1  0
 22 14  1  0
 23 25  1  0
 24 23  2  0
M  END
$$$$
