KCQ.pdb
     RDKit          3D

 25 24  0  0  1  0  0  0  0  0999 V2000
    8.3654  -12.3730   19.8079 N   0  0  0  0  0  0  0  0  0  0  0  0
    7.5407  -13.2969   20.5303 C   0  0  1  0  0  0  0  0  0  0  0  0
    7.4154  -14.6106   19.8712 C   0  0  0  0  0  0  0  0  0  0  0  0
    7.4980  -14.5572   18.3897 C   0  0  0  0  0  0  0  0  0  0  0  0
    7.3890  -15.8824   17.7383 C   0  0  0  0  0  0  0  0  0  0  0  0
    7.5956  -15.7175   16.2131 C   0  0  0  0  0  0  0  0  0  0  0  0
    7.4437  -17.0318   15.6113 N   0  0  0  0  0  0  0  0  0  0  0  0
    7.9836  -13.4189   21.9618 C   0  0  0  0  0  0  0  0  0  0  0  0
    9.1699  -13.7323   22.2350 O   0  0  0  0  0  0  0  0  0  0  0  0
    7.1033  -13.1912   23.0502 N   0  0  0  0  0  0  0  0  0  0  0  0
    7.4556  -13.4692   24.4012 C   0  0  1  0  0  0  0  0  0  0  0  0
    6.3930  -12.8635   25.3175 C   0  0  0  0  0  0  0  0  0  0  0  0
    6.8509  -13.1345   27.0447 S   0  0  0  0  0  0  0  0  0  0  0  0
    7.6659  -14.8816   24.7030 C   0  0  0  0  0  0  0  0  0  0  0  0
    6.9377  -15.7995   24.2601 O   0  0  0  0  0  0  0  0  0  0  0  0
   12.8309  -19.5968   23.9693 N   0  0  0  0  0  0  0  0  0  0  0  0
   11.8724  -18.5868   23.6997 C   0  0  0  0  0  0  0  0  0  0  0  0
   11.9543  -17.9662   22.6097 O   0  0  0  0  0  0  0  0  0  0  0  0
   10.8249  -18.3073   24.7025 C   0  0  0  0  0  0  0  0  0  0  0  0
   10.3005  -16.8928   24.5919 C   0  0  0  0  0  0  0  0  0  0  0  0
    9.2240  -16.6142   25.6137 C   0  0  2  0  0  0  0  0  0  0  0  0
    8.7481  -15.2514   25.5410 N   0  0  0  0  0  0  0  0  0  0  0  0
    9.7650  -16.8381   26.9705 C   0  0  0  0  0  0  0  0  0  0  0  0
   10.1272  -15.8699   27.6746 O   0  0  0  0  0  0  0  0  0  0  0  0
    9.8822  -18.1119   27.4884 O   0  0  0  0  0  0  0  0  0  0  0  0
  2  8  1  0
  2  1  1  6
  3  2  1  0
  4  3  1  0
  5  4  1  0
  6  5  1  0
  6  7  1  0
  8  9  2  0
 10 11  1  0
 10  8  1  0
 11 12  1  1
 12 13  1  0
 14 11  1  0
 15 14  2  0
 16 17  1  0
 17 19  1  0
 17 18  2  0
 19 20  1  0
 21 20  1  6
 21 22  1  0
 21 23  1  0
 22 14  1  0
 23 25  1  0
 24 23  2  0
M  END
$$$$
