KCQ.pdb
     RDKit          3D

 25 24  0  0  1  0  0  0  0  0999 V2000
    9.3542  -15.2441   20.4233 N   0  0  0  0  0  0  0  0  0  0  0  0
    8.2118  -15.1615   21.2858 C   0  0  1  0  0  0  0  0  0  0  0  0
    7.4032  -16.3950   21.3080 C   0  0  0  0  0  0  0  0  0  0  0  0
    7.5754  -17.2558   20.1105 C   0  0  0  0  0  0  0  0  0  0  0  0
    6.3845  -18.0746   19.7885 C   0  0  0  0  0  0  0  0  0  0  0  0
    6.7127  -19.0003   18.5921 C   0  0  0  0  0  0  0  0  0  0  0  0
    5.5212  -19.7843   18.3121 N   0  0  0  0  0  0  0  0  0  0  0  0
    8.6025  -14.7129   22.6665 C   0  0  0  0  0  0  0  0  0  0  0  0
    9.6679  -15.1257   23.1907 O   0  0  0  0  0  0  0  0  0  0  0  0
    7.8051  -13.8212   23.4283 N   0  0  0  0  0  0  0  0  0  0  0  0
    7.9358  -13.6790   24.8387 C   0  0  1  0  0  0  0  0  0  0  0  0
    6.8706  -12.7004   25.3317 C   0  0  0  0  0  0  0  0  0  0  0  0
    7.0211  -12.4850   27.1198 S   0  0  0  0  0  0  0  0  0  0  0  0
    7.8872  -14.9298   25.5893 C   0  0  0  0  0  0  0  0  0  0  0  0
    7.1215  -15.8790   25.3033 O   0  0  0  0  0  0  0  0  0  0  0  0
   11.3230  -18.8243   23.9854 N   0  0  0  0  0  0  0  0  0  0  0  0
   11.8127  -18.6912   25.3098 C   0  0  0  0  0  0  0  0  0  0  0  0
   13.0080  -19.0079   25.5357 O   0  0  0  0  0  0  0  0  0  0  0  0
   10.9056  -18.1897   26.3619 C   0  0  0  0  0  0  0  0  0  0  0  0
   10.2772  -16.8672   25.9822 C   0  0  0  0  0  0  0  0  0  0  0  0
    9.3182  -16.3794   27.0419 C   0  0  2  0  0  0  0  0  0  0  0  0
    8.7464  -15.0955   26.7050 N   0  0  0  0  0  0  0  0  0  0  0  0
   10.0357  -16.2378   28.3259 C   0  0  0  0  0  0  0  0  0  0  0  0
   10.3351  -15.1041   28.7615 O   0  0  0  0  0  0  0  0  0  0  0  0
   10.3896  -17.3455   29.0690 O   0  0  0  0  0  0  0  0  0  0  0  0
  2  8  1  0
  2  1  1  6
  3  2  1  0
  4  3  1  0
  5  4  1  0
  6  5  1  0
  6  7  1  0
  8  9  2  0
 10 11  1  0
 10  8  1  0
 11 12  1  1
 12 13  1  0
 14 11  1  0
 15 14  2  0
 16 17  1  0
 17 19  1  0
 17 18  2  0
 19 20  1  0
 21 20  1  6
 21 22  1  0
 21 23  1  0
 22 14  1  0
 23 25  1  0
 24 23  2  0
M  END
$$$$
