KCQ.pdb
     RDKit          3D

 25 24  0  0  1  0  0  0  0  0999 V2000
    7.7390  -14.2611   19.7356 N   0  0  0  0  0  0  0  0  0  0  0  0
    7.2591  -14.9379   20.9049 C   0  0  1  0  0  0  0  0  0  0  0  0
    7.1073  -16.3934   20.7194 C   0  0  0  0  0  0  0  0  0  0  0  0
    6.2147  -16.7725   19.5950 C   0  0  0  0  0  0  0  0  0  0  0  0
    6.0151  -18.2333   19.4585 C   0  0  0  0  0  0  0  0  0  0  0  0
    5.0818  -18.5084   18.2546 C   0  0  0  0  0  0  0  0  0  0  0  0
    4.8523  -19.9428   18.2041 N   0  0  0  0  0  0  0  0  0  0  0  0
    8.0933  -14.6024   22.1099 C   0  0  0  0  0  0  0  0  0  0  0  0
    9.3480  -14.6016   22.0334 O   0  0  0  0  0  0  0  0  0  0  0  0
    7.5173  -14.2775   23.3645 N   0  0  0  0  0  0  0  0  0  0  0  0
    8.2482  -14.3197   24.5853 C   0  0  1  0  0  0  0  0  0  0  0  0
    7.5598  -13.4058   25.5985 C   0  0  0  0  0  0  0  0  0  0  0  0
    5.7775  -13.7039   25.5762 S   0  0  0  0  0  0  0  0  0  0  0  0
    8.4485  -15.6567   25.1355 C   0  0  0  0  0  0  0  0  0  0  0  0
    7.5968  -16.5718   25.0570 O   0  0  0  0  0  0  0  0  0  0  0  0
   13.3930  -18.7937   24.0091 N   0  0  0  0  0  0  0  0  0  0  0  0
   12.8945  -19.5995   25.0643 C   0  0  0  0  0  0  0  0  0  0  0  0
   13.4763  -20.6870   25.3069 O   0  0  0  0  0  0  0  0  0  0  0  0
   11.7209  -19.1322   25.8296 C   0  0  0  0  0  0  0  0  0  0  0  0
   11.2460  -17.7745   25.3618 C   0  0  0  0  0  0  0  0  0  0  0  0
   10.0394  -17.3058   26.1396 C   0  0  2  0  0  0  0  0  0  0  0  0
    9.6671  -15.9518   25.7974 N   0  0  0  0  0  0  0  0  0  0  0  0
   10.3415  -17.3456   27.5856 C   0  0  0  0  0  0  0  0  0  0  0  0
   10.4429  -16.2844   28.2400 O   0  0  0  0  0  0  0  0  0  0  0  0
   10.5175  -18.5462   28.2428 O   0  0  0  0  0  0  0  0  0  0  0  0
  2  8  1  0
  2  1  1  6
  3  2  1  0
  4  3  1  0
  5  4  1  0
  6  5  1  0
  6  7  1  0
  8  9  2  0
 10 11  1  0
 10  8  1  0
 11 12  1  1
 12 13  1  0
 14 11  1  0
 15 14  2  0
 16 17  1  0
 17 19  1  0
 17 18  2  0
 19 20  1  0
 21 20  1  6
 21 22  1  0
 21 23  1  0
 22 14  1  0
 23 25  1  0
 24 23  2  0
M  END
$$$$
