KCQ.pdb
     RDKit          3D

 25 24  0  0  1  0  0  0  0  0999 V2000
    7.8520  -13.5219   19.9348 N   0  0  0  0  0  0  0  0  0  0  0  0
    7.1334  -14.0437   21.0604 C   0  0  1  0  0  0  0  0  0  0  0  0
    6.5017  -15.3508   20.7983 C   0  0  0  0  0  0  0  0  0  0  0  0
    7.3094  -16.2546   19.9408 C   0  0  0  0  0  0  0  0  0  0  0  0
    6.5955  -17.4866   19.5345 C   0  0  0  0  0  0  0  0  0  0  0  0
    7.5661  -18.4002   18.7475 C   0  0  0  0  0  0  0  0  0  0  0  0
    6.8559  -19.6337   18.4528 N   0  0  0  0  0  0  0  0  0  0  0  0
    7.9929  -14.0649   22.2937 C   0  0  0  0  0  0  0  0  0  0  0  0
    9.2242  -14.3025   22.2057 O   0  0  0  0  0  0  0  0  0  0  0  0
    7.4675  -13.8228   23.5886 N   0  0  0  0  0  0  0  0  0  0  0  0
    8.2586  -13.8938   24.7700 C   0  0  1  0  0  0  0  0  0  0  0  0
    7.6078  -13.0258   25.8464 C   0  0  0  0  0  0  0  0  0  0  0  0
    5.9441  -13.6371   26.1992 S   0  0  0  0  0  0  0  0  0  0  0  0
    8.5057  -15.2450   25.2636 C   0  0  0  0  0  0  0  0  0  0  0  0
    7.6341  -16.1444   25.2834 O   0  0  0  0  0  0  0  0  0  0  0  0
   13.4589  -15.9434   24.1110 N   0  0  0  0  0  0  0  0  0  0  0  0
   12.6310  -16.8322   23.3789 C   0  0  0  0  0  0  0  0  0  0  0  0
   12.8301  -16.9475   22.1431 O   0  0  0  0  0  0  0  0  0  0  0  0
   11.5764  -17.5807   24.0923 C   0  0  0  0  0  0  0  0  0  0  0  0
   11.5614  -17.2638   25.5713 C   0  0  0  0  0  0  0  0  0  0  0  0
   10.1702  -16.9351   26.0583 C   0  0  2  0  0  0  0  0  0  0  0  0
    9.7962  -15.5734   25.7502 N   0  0  0  0  0  0  0  0  0  0  0  0
   10.1106  -17.1050   27.5251 C   0  0  0  0  0  0  0  0  0  0  0  0
    9.8351  -16.1339   28.2636 O   0  0  0  0  0  0  0  0  0  0  0  0
   10.3557  -18.3308   28.1097 O   0  0  0  0  0  0  0  0  0  0  0  0
  2  8  1  0
  2  1  1  6
  3  2  1  0
  4  3  1  0
  5  4  1  0
  6  5  1  0
  6  7  1  0
  8  9  2  0
 10 11  1  0
 10  8  1  0
 11 12  1  1
 12 13  1  0
 14 11  1  0
 15 14  2  0
 16 17  1  0
 17 19  1  0
 17 18  2  0
 19 20  1  0
 21 20  1  1
 21 22  1  0
 21 23  1  0
 22 14  1  0
 23 25  1  0
 24 23  2  0
M  END
$$$$
