KCQ.pdb
     RDKit          3D

 25 24  0  0  1  0  0  0  0  0999 V2000
    7.5056  -14.2975   20.0891 N   0  0  0  0  0  0  0  0  0  0  0  0
    7.0014  -14.9337   21.2709 C   0  0  1  0  0  0  0  0  0  0  0  0
    6.9631  -16.4052   21.1741 C   0  0  0  0  0  0  0  0  0  0  0  0
    6.5726  -16.9158   19.8357 C   0  0  0  0  0  0  0  0  0  0  0  0
    7.6795  -17.5687   19.1003 C   0  0  0  0  0  0  0  0  0  0  0  0
    7.1553  -18.0693   17.7326 C   0  0  0  0  0  0  0  0  0  0  0  0
    8.3079  -18.5011   16.9593 N   0  0  0  0  0  0  0  0  0  0  0  0
    7.7328  -14.4635   22.4974 C   0  0  0  0  0  0  0  0  0  0  0  0
    8.9479  -14.7424   22.6582 O   0  0  0  0  0  0  0  0  0  0  0  0
    7.1007  -13.6988   23.5109 N   0  0  0  0  0  0  0  0  0  0  0  0
    7.6594  -13.5219   24.8082 C   0  0  1  0  0  0  0  0  0  0  0  0
    6.7344  -12.6148   25.6188 C   0  0  0  0  0  0  0  0  0  0  0  0
    7.4357  -12.3401   27.2616 S   0  0  0  0  0  0  0  0  0  0  0  0
    7.9444  -14.7591   25.5283 C   0  0  0  0  0  0  0  0  0  0  0  0
    7.1129  -15.6855   25.6679 O   0  0  0  0  0  0  0  0  0  0  0  0
   11.4320  -18.3883   23.4198 N   0  0  0  0  0  0  0  0  0  0  0  0
   11.8393  -18.7979   24.7150 C   0  0  0  0  0  0  0  0  0  0  0  0
   12.4541  -19.8885   24.8271 O   0  0  0  0  0  0  0  0  0  0  0  0
   11.5271  -17.9334   25.8711 C   0  0  0  0  0  0  0  0  0  0  0  0
   10.8554  -16.6459   25.4480 C   0  0  0  0  0  0  0  0  0  0  0  0
    9.7527  -16.2512   26.4014 C   0  0  2  0  0  0  0  0  0  0  0  0
    9.2265  -14.9378   26.1067 N   0  0  0  0  0  0  0  0  0  0  0  0
   10.2800  -16.2335   27.7818 C   0  0  0  0  0  0  0  0  0  0  0  0
   10.1619  -17.2385   28.5169 O   0  0  0  0  0  0  0  0  0  0  0  0
   10.9107  -15.1153   28.2880 O   0  0  0  0  0  0  0  0  0  0  0  0
  2  8  1  0
  2  1  1  6
  3  2  1  0
  4  3  1  0
  5  4  1  0
  6  5  1  0
  6  7  1  0
  8  9  2  0
 10 11  1  0
 10  8  1  0
 11 12  1  1
 12 13  1  0
 14 11  1  0
 15 14  2  0
 16 17  1  0
 17 19  1  0
 17 18  2  0
 19 20  1  0
 21 20  1  6
 21 22  1  0
 21 23  1  0
 22 14  1  0
 23 25  1  0
 24 23  2  0
M  END
$$$$
