KCQ.pdb
     RDKit          3D

 25 24  0  0  1  0  0  0  0  0999 V2000
    8.6139  -14.9129   20.3488 N   0  0  0  0  0  0  0  0  0  0  0  0
    7.6973  -15.1786   21.4188 C   0  0  1  0  0  0  0  0  0  0  0  0
    7.3546  -16.6067   21.5566 C   0  0  0  0  0  0  0  0  0  0  0  0
    7.8646  -17.4627   20.4558 C   0  0  0  0  0  0  0  0  0  0  0  0
    7.4248  -18.8737   20.5450 C   0  0  0  0  0  0  0  0  0  0  0  0
    7.9414  -19.6462   19.3071 C   0  0  0  0  0  0  0  0  0  0  0  0
    7.4825  -21.0198   19.4318 N   0  0  0  0  0  0  0  0  0  0  0  0
    8.1809  -14.5827   22.7116 C   0  0  0  0  0  0  0  0  0  0  0  0
    9.3841  -14.7026   23.0553 O   0  0  0  0  0  0  0  0  0  0  0  0
    7.3214  -13.8714   23.5873 N   0  0  0  0  0  0  0  0  0  0  0  0
    7.6965  -13.5057   24.9110 C   0  0  1  0  0  0  0  0  0  0  0  0
    6.5939  -12.6312   25.5070 C   0  0  0  0  0  0  0  0  0  0  0  0
    7.0567  -12.1207   27.1777 S   0  0  0  0  0  0  0  0  0  0  0  0
    8.0117  -14.6260   25.7919 C   0  0  0  0  0  0  0  0  0  0  0  0
    7.2553  -15.6108   25.9563 O   0  0  0  0  0  0  0  0  0  0  0  0
   13.4028  -17.2012   26.2017 N   0  0  0  0  0  0  0  0  0  0  0  0
   12.3779  -17.2025   25.2214 C   0  0  0  0  0  0  0  0  0  0  0  0
   12.6604  -17.6125   24.0673 O   0  0  0  0  0  0  0  0  0  0  0  0
   11.0304  -16.7259   25.5933 C   0  0  0  0  0  0  0  0  0  0  0  0
   10.9728  -16.2616   27.0317 C   0  0  0  0  0  0  0  0  0  0  0  0
    9.6162  -15.6989   27.3835 C   0  0  2  0  0  0  0  0  0  0  0  0
    9.2359  -14.6144   26.5069 N   0  0  0  0  0  0  0  0  0  0  0  0
    9.6434  -15.1806   28.7671 C   0  0  0  0  0  0  0  0  0  0  0  0
    9.3956  -13.9762   28.9964 O   0  0  0  0  0  0  0  0  0  0  0  0
    9.9407  -16.0079   29.8309 O   0  0  0  0  0  0  0  0  0  0  0  0
  2  8  1  0
  2  1  1  6
  3  2  1  0
  4  3  1  0
  5  4  1  0
  6  5  1  0
  6  7  1  0
  8  9  2  0
 10 11  1  0
 10  8  1  0
 11 12  1  1
 12 13  1  0
 14 11  1  0
 15 14  2  0
 16 17  1  0
 17 19  1  0
 17 18  2  0
 19 20  1  0
 21 20  1  6
 21 22  1  0
 21 23  1  0
 22 14  1  0
 23 25  1  0
 24 23  2  0
M  END
$$$$
