KCQ.pdb
     RDKit          3D

 25 24  0  0  1  0  0  0  0  0999 V2000
    6.7762  -15.2288   20.7391 N   0  0  0  0  0  0  0  0  0  0  0  0
    8.0921  -14.6611   20.7827 C   0  0  1  0  0  0  0  0  0  0  0  0
    8.2838  -13.5509   19.8304 C   0  0  0  0  0  0  0  0  0  0  0  0
    7.7699  -13.8265   18.4649 C   0  0  0  0  0  0  0  0  0  0  0  0
    8.6306  -13.2924   17.3849 C   0  0  0  0  0  0  0  0  0  0  0  0
    7.9478  -13.5456   16.0189 C   0  0  0  0  0  0  0  0  0  0  0  0
    8.8252  -13.0107   14.9909 N   0  0  0  0  0  0  0  0  0  0  0  0
    8.4749  -14.2793   22.1855 C   0  0  0  0  0  0  0  0  0  0  0  0
    9.6088  -13.7917   22.4240 O   0  0  0  0  0  0  0  0  0  0  0  0
    7.5942  -14.4470   23.2844 N   0  0  0  0  0  0  0  0  0  0  0  0
    8.0490  -14.5841   24.6263 C   0  0  1  0  0  0  0  0  0  0  0  0
    7.1968  -13.6885   25.5247 C   0  0  0  0  0  0  0  0  0  0  0  0
    5.6888  -14.5623   26.0026 S   0  0  0  0  0  0  0  0  0  0  0  0
    8.0789  -15.9545   25.1278 C   0  0  0  0  0  0  0  0  0  0  0  0
    7.1900  -16.8014   24.8798 O   0  0  0  0  0  0  0  0  0  0  0  0
   11.2737  -19.8315   23.0568 N   0  0  0  0  0  0  0  0  0  0  0  0
   11.9862  -18.7413   23.6184 C   0  0  0  0  0  0  0  0  0  0  0  0
   13.1313  -18.4849   23.1677 O   0  0  0  0  0  0  0  0  0  0  0  0
   11.3589  -17.9574   24.7015 C   0  0  0  0  0  0  0  0  0  0  0  0
    9.9989  -18.5019   25.0778 C   0  0  0  0  0  0  0  0  0  0  0  0
    9.4029  -17.7572   26.2486 C   0  0  2  0  0  0  0  0  0  0  0  0
    9.1656  -16.3651   25.9407 N   0  0  0  0  0  0  0  0  0  0  0  0
   10.3330  -17.8198   27.3953 C   0  0  0  0  0  0  0  0  0  0  0  0
   10.6627  -18.9235   27.8827 O   0  0  0  0  0  0  0  0  0  0  0  0
   10.8556  -16.6698   27.9509 O   0  0  0  0  0  0  0  0  0  0  0  0
  2  8  1  0
  2  1  1  1
  3  2  1  0
  4  3  1  0
  5  4  1  0
  6  5  1  0
  6  7  1  0
  8  9  2  0
 10 11  1  0
 10  8  1  0
 11 12  1  1
 12 13  1  0
 14 11  1  0
 15 14  2  0
 16 17  1  0
 17 19  1  0
 17 18  2  0
 19 20  1  0
 21 20  1  6
 21 22  1  0
 21 23  1  0
 22 14  1  0
 23 25  1  0
 24 23  2  0
M  END
$$$$
