KCQ.pdb
     RDKit          3D

 25 24  0  0  1  0  0  0  0  0999 V2000
    7.6997  -16.3152   19.1460 N   0  0  0  0  0  0  0  0  0  0  0  0
    8.5851  -15.2043   19.3399 C   0  0  1  0  0  0  0  0  0  0  0  0
    8.1993  -14.0057   18.5713 C   0  0  0  0  0  0  0  0  0  0  0  0
    8.6825  -14.0031   17.1673 C   0  0  0  0  0  0  0  0  0  0  0  0
    7.6286  -13.6928   16.1746 C   0  0  0  0  0  0  0  0  0  0  0  0
    8.2416  -13.7315   14.7538 C   0  0  0  0  0  0  0  0  0  0  0  0
    7.1581  -13.5159   13.8091 N   0  0  0  0  0  0  0  0  0  0  0  0
    8.7736  -14.9060   20.8013 C   0  0  0  0  0  0  0  0  0  0  0  0
    9.7146  -14.1645   21.1819 O   0  0  0  0  0  0  0  0  0  0  0  0
    7.9173  -15.4356   21.8002 N   0  0  0  0  0  0  0  0  0  0  0  0
    8.0872  -15.1653   23.1874 C   0  0  1  0  0  0  0  0  0  0  0  0
    6.7289  -15.2831   23.8779 C   0  0  0  0  0  0  0  0  0  0  0  0
    6.8649  -14.7228   25.5907 S   0  0  0  0  0  0  0  0  0  0  0  0
    9.0891  -15.9899   23.8557 C   0  0  0  0  0  0  0  0  0  0  0  0
    9.3357  -17.1752   23.5344 O   0  0  0  0  0  0  0  0  0  0  0  0
   12.2251  -14.2356   29.1064 N   0  0  0  0  0  0  0  0  0  0  0  0
   10.8678  -14.6440   29.0580 C   0  0  0  0  0  0  0  0  0  0  0  0
   10.1367  -14.3942   30.0496 O   0  0  0  0  0  0  0  0  0  0  0  0
   10.3718  -15.3409   27.8540 C   0  0  0  0  0  0  0  0  0  0  0  0
   11.4342  -15.4416   26.7821 C   0  0  0  0  0  0  0  0  0  0  0  0
   10.9213  -16.1511   25.5516 C   0  0  2  0  0  0  0  0  0  0  0  0
    9.8318  -15.4345   24.9281 N   0  0  0  0  0  0  0  0  0  0  0  0
   10.4302  -17.4932   25.9275 C   0  0  0  0  0  0  0  0  0  0  0  0
   11.2358  -18.3948   26.2476 O   0  0  0  0  0  0  0  0  0  0  0  0
    9.0804  -17.7807   25.9339 O   0  0  0  0  0  0  0  0  0  0  0  0
  2  8  1  0
  2  1  1  1
  3  2  1  0
  4  3  1  0
  5  4  1  0
  6  5  1  0
  6  7  1  0
  8  9  2  0
 10 11  1  0
 10  8  1  0
 11 12  1  1
 12 13  1  0
 14 11  1  0
 15 14  2  0
 16 17  1  0
 17 19  1  0
 17 18  2  0
 19 20  1  0
 21 20  1  1
 21 22  1  0
 21 23  1  0
 22 14  1  0
 23 25  1  0
 24 23  2  0
M  END
$$$$
