KCQ.pdb
     RDKit          3D

 25 24  0  0  1  0  0  0  0  0999 V2000
    7.3051  -15.5380   21.2546 N   0  0  0  0  0  0  0  0  0  0  0  0
    8.5373  -14.8243   21.4213 C   0  0  1  0  0  0  0  0  0  0  0  0
    8.8980  -13.9962   20.2550 C   0  0  0  0  0  0  0  0  0  0  0  0
    8.0321  -14.2093   19.0679 C   0  0  0  0  0  0  0  0  0  0  0  0
    8.5895  -13.6503   17.8152 C   0  0  0  0  0  0  0  0  0  0  0  0
    7.6015  -13.9200   16.6545 C   0  0  0  0  0  0  0  0  0  0  0  0
    8.1855  -13.3552   15.4492 N   0  0  0  0  0  0  0  0  0  0  0  0
    8.5418  -14.0359   22.7015 C   0  0  0  0  0  0  0  0  0  0  0  0
    9.5272  -13.3146   22.9997 O   0  0  0  0  0  0  0  0  0  0  0  0
    7.4576  -14.0671   23.6152 N   0  0  0  0  0  0  0  0  0  0  0  0
    7.5438  -13.5427   24.9358 C   0  0  1  0  0  0  0  0  0  0  0  0
    6.2395  -12.8142   25.2581 C   0  0  0  0  0  0  0  0  0  0  0  0
    6.1195  -12.5380   27.0401 S   0  0  0  0  0  0  0  0  0  0  0  0
    7.8653  -14.5244   25.9669 C   0  0  0  0  0  0  0  0  0  0  0  0
    8.0224  -14.2328   27.1749 O   0  0  0  0  0  0  0  0  0  0  0  0
    5.6844  -19.2841   24.7015 N   0  0  0  0  0  0  0  0  0  0  0  0
    7.0318  -19.5804   24.3728 C   0  0  0  0  0  0  0  0  0  0  0  0
    7.2509  -20.3605   23.4118 O   0  0  0  0  0  0  0  0  0  0  0  0
    8.1147  -18.9653   25.1666 C   0  0  0  0  0  0  0  0  0  0  0  0
    7.5769  -18.1798   26.3420 C   0  0  0  0  0  0  0  0  0  0  0  0
    8.3540  -16.9041   26.5644 C   0  0  2  0  0  0  0  0  0  0  0  0
    8.0109  -15.8856   25.5980 N   0  0  0  0  0  0  0  0  0  0  0  0
    9.8002  -17.1824   26.4416 C   0  0  0  0  0  0  0  0  0  0  0  0
   10.4039  -17.8021   27.3449 O   0  0  0  0  0  0  0  0  0  0  0  0
   10.5129  -16.7677   25.3351 O   0  0  0  0  0  0  0  0  0  0  0  0
  2  8  1  0
  2  1  1  6
  3  2  1  0
  4  3  1  0
  5  4  1  0
  6  5  1  0
  6  7  1  0
  8  9  2  0
 10 11  1  0
 10  8  1  0
 11 12  1  1
 12 13  1  0
 14 11  1  0
 15 14  2  0
 16 17  1  0
 17 19  1  0
 17 18  2  0
 19 20  1  0
 21 20  1  6
 21 22  1  0
 21 23  1  0
 22 14  1  0
 23 25  1  0
 24 23  2  0
M  END
$$$$
