SYL.pdb
     RDKit          3D

 27 27  0  0  1  0  0  0  0  0999 V2000
   29.2850  -18.6616  -15.2922 O   0  0  0  0  0  0  0  0  0  0  0  0
   29.0346  -19.7069  -14.4013 C   0  0  0  0  0  0  0  0  0  0  0  0
   27.6325  -20.2392  -14.5713 C   0  0  2  0  0  0  0  0  0  0  0  0
   27.0521  -19.6698  -15.7584 N   0  0  0  0  0  0  0  0  0  0  0  0
   26.7909  -19.9679  -13.3877 C   0  0  0  0  0  0  0  0  0  0  0  0
   26.3912  -18.7915  -13.1904 O   0  0  0  0  0  0  0  0  0  0  0  0
   21.0718  -18.7192  -15.4504 O   0  0  0  0  0  0  0  0  0  0  0  0
   21.8565  -19.3849  -14.4860 C   0  0  0  0  0  0  0  0  0  0  0  0
   22.7096  -20.3824  -14.8879 C   0  0  0  0  0  0  0  0  0  0  0  0
   23.4947  -21.0526  -13.9451 C   0  0  0  0  0  0  0  0  0  0  0  0
   23.4251  -20.7257  -12.6105 C   0  0  0  0  0  0  0  0  0  0  0  0
   24.2425  -21.4189  -11.6049 C   0  0  0  0  0  0  0  0  0  0  0  0
   25.5939  -20.7739  -11.3916 C   0  0  2  0  0  0  0  0  0  0  0  0
   26.4610  -21.0350  -12.5148 N   0  0  0  0  0  0  0  0  0  0  0  0
   26.2452  -21.2458  -10.1454 C   0  0  0  0  0  0  0  0  0  0  0  0
   26.8595  -22.3341  -10.0661 O   0  0  0  0  0  0  0  0  0  0  0  0
   22.5650  -19.7255  -12.2345 C   0  0  0  0  0  0  0  0  0  0  0  0
   21.7801  -19.0533  -13.1660 C   0  0  0  0  0  0  0  0  0  0  0  0
   28.3184  -18.0893   -5.9860 C   0  0  0  0  0  0  0  0  0  0  0  0
   28.0575  -19.2706   -6.8969 C   0  0  1  0  0  0  0  0  0  0  0  0
   29.1047  -20.3673   -6.6352 C   0  0  0  0  0  0  0  0  0  0  0  0
   26.7104  -19.8585   -6.6946 C   0  0  0  0  0  0  0  0  0  0  0  0
   26.4038  -20.9817   -7.6384 C   0  0  2  0  0  0  0  0  0  0  0  0
   26.1784  -20.4388   -8.9816 N   0  0  0  0  0  0  0  0  0  0  0  0
   25.1192  -21.6136   -7.2530 C   0  0  0  0  0  0  0  0  0  0  0  0
   24.0367  -21.4076   -7.9037 O   0  0  0  0  0  0  0  0  0  0  0  0
   25.0238  -22.4564   -6.1772 O   0  0  0  0  0  0  0  0  0  0  0  0
  2  3  1  0
  2  1  1  0
  3  4  1  6
  5  6  2  0
  5  3  1  0
  7  8  1  0
  8 18  2  0
  9 10  2  0
  9  8  1  0
 10 11  1  0
 11 12  1  0
 11 17  2  0
 13 12  1  6
 13 14  1  0
 14  5  1  0
 15 13  1  0
 16 15  2  0
 18 17  1  0
 20 22  1  0
 20 19  1  1
 21 20  1  0
 23 22  1  1
 23 24  1  0
 24 15  1  0
 25 23  1  0
 26 25  2  0
 27 25  1  0
M  END
$$$$
