SYL.pdb
     RDKit          3D

 27 27  0  0  1  0  0  0  0  0999 V2000
   35.8792  -38.4932   -7.1928 O   0  0  0  0  0  0  0  0  0  0  0  0
   35.1944  -37.5181   -6.4652 C   0  0  0  0  0  0  0  0  0  0  0  0
   34.1325  -36.8577   -7.3105 C   0  0  2  0  0  0  0  0  0  0  0  0
   34.7663  -36.0536   -8.3214 N   0  0  0  0  0  0  0  0  0  0  0  0
   33.2020  -36.0488   -6.4965 C   0  0  0  0  0  0  0  0  0  0  0  0
   33.5574  -34.8942   -6.1454 O   0  0  0  0  0  0  0  0  0  0  0  0
   26.0021  -32.8886   -2.6644 O   0  0  0  0  0  0  0  0  0  0  0  0
   26.9094  -33.6261   -3.4528 C   0  0  0  0  0  0  0  0  0  0  0  0
   27.6853  -32.9684   -4.3748 C   0  0  0  0  0  0  0  0  0  0  0  0
   28.5899  -33.6841   -5.1647 C   0  0  0  0  0  0  0  0  0  0  0  0
   28.7158  -35.0477   -5.0314 C   0  0  0  0  0  0  0  0  0  0  0  0
   29.6612  -35.8170   -5.8527 C   0  0  0  0  0  0  0  0  0  0  0  0
   31.0656  -35.8237   -5.2913 C   0  0  2  0  0  0  0  0  0  0  0  0
   31.9440  -36.5946   -6.1375 N   0  0  0  0  0  0  0  0  0  0  0  0
   31.1107  -36.3644   -3.9110 C   0  0  0  0  0  0  0  0  0  0  0  0
   31.0122  -37.5858   -3.6527 O   0  0  0  0  0  0  0  0  0  0  0  0
   27.9294  -35.6813   -4.1032 C   0  0  0  0  0  0  0  0  0  0  0  0
   27.0265  -34.9769   -3.3131 C   0  0  0  0  0  0  0  0  0  0  0  0
   35.1319  -35.5393   -0.8718 C   0  0  0  0  0  0  0  0  0  0  0  0
   33.8351  -36.1789   -1.3220 C   0  0  1  0  0  0  0  0  0  0  0  0
   33.7645  -37.6261   -0.8039 C   0  0  0  0  0  0  0  0  0  0  0  0
   32.6402  -35.4512   -0.8282 C   0  0  0  0  0  0  0  0  0  0  0  0
   31.3573  -35.9338   -1.4344 C   0  0  2  0  0  0  0  0  0  0  0  0
   31.2722  -35.4701   -2.8227 N   0  0  0  0  0  0  0  0  0  0  0  0
   30.2128  -35.2965   -0.7400 C   0  0  0  0  0  0  0  0  0  0  0  0
   29.5412  -34.3435   -1.2676 O   0  0  0  0  0  0  0  0  0  0  0  0
   29.8110  -35.6979    0.5067 O   0  0  0  0  0  0  0  0  0  0  0  0
  2  3  1  0
  2  1  1  0
  3  4  1  6
  5  6  2  0
  5  3  1  0
  7  8  1  0
  8 18  2  0
  9 10  2  0
  9  8  1  0
 10 11  1  0
 11 12  1  0
 11 17  2  0
 13 12  1  6
 13 14  1  0
 14  5  1  0
 15 13  1  0
 16 15  2  0
 18 17  1  0
 20 22  1  0
 20 19  1  1
 21 20  1  0
 23 22  1  1
 23 24  1  0
 24 15  1  0
 25 23  1  0
 26 25  2  0
 27 25  1  0
M  END
$$$$
