SYL.pdb
     RDKit          3D

 27 27  0  0  1  0  0  0  0  0999 V2000
   28.9681  -20.4940  -15.1491 O   0  0  0  0  0  0  0  0  0  0  0  0
   28.3720  -21.5553  -14.4653 C   0  0  0  0  0  0  0  0  0  0  0  0
   26.8772  -21.3682  -14.3722 C   0  0  2  0  0  0  0  0  0  0  0  0
   26.4177  -20.6530  -15.5331 N   0  0  0  0  0  0  0  0  0  0  0  0
   26.4838  -20.6710  -13.1305 C   0  0  0  0  0  0  0  0  0  0  0  0
   26.5089  -19.4134  -13.1126 O   0  0  0  0  0  0  0  0  0  0  0  0
   20.9866  -19.0982  -15.0634 O   0  0  0  0  0  0  0  0  0  0  0  0
   21.7516  -19.5773  -13.9798 C   0  0  0  0  0  0  0  0  0  0  0  0
   22.1018  -20.9041  -13.9407 C   0  0  0  0  0  0  0  0  0  0  0  0
   22.8598  -21.3957  -12.8739 C   0  0  0  0  0  0  0  0  0  0  0  0
   23.2636  -20.5642  -11.8548 C   0  0  0  0  0  0  0  0  0  0  0  0
   24.0609  -21.0628  -10.7253 C   0  0  0  0  0  0  0  0  0  0  0  0
   25.5358  -20.7552  -10.8586 C   0  0  2  0  0  0  0  0  0  0  0  0
   26.0920  -21.4356  -12.0029 N   0  0  0  0  0  0  0  0  0  0  0  0
   26.2954  -21.1338   -9.6423 C   0  0  0  0  0  0  0  0  0  0  0  0
   26.6953  -22.3000   -9.4226 O   0  0  0  0  0  0  0  0  0  0  0  0
   22.9010  -19.2429  -11.9172 C   0  0  0  0  0  0  0  0  0  0  0  0
   22.1467  -18.7452  -12.9751 C   0  0  0  0  0  0  0  0  0  0  0  0
   29.7153  -20.1270   -5.5154 C   0  0  0  0  0  0  0  0  0  0  0  0
   28.3916  -19.3936   -5.4585 C   0  0  1  0  0  0  0  0  0  0  0  0
   28.5928  -18.0118   -4.8121 C   0  0  0  0  0  0  0  0  0  0  0  0
   27.7934  -19.1942   -6.8015 C   0  0  0  0  0  0  0  0  0  0  0  0
   27.2591  -20.4564   -7.4080 C   0  0  2  0  0  0  0  0  0  0  0  0
   26.5904  -20.1410   -8.6741 N   0  0  0  0  0  0  0  0  0  0  0  0
   26.1979  -21.0128   -6.5349 C   0  0  0  0  0  0  0  0  0  0  0  0
   24.9588  -20.7502   -6.7174 O   0  0  0  0  0  0  0  0  0  0  0  0
   26.4891  -21.8426   -5.4845 O   0  0  0  0  0  0  0  0  0  0  0  0
  2  3  1  0
  2  1  1  0
  3  4  1  6
  5  6  2  0
  5  3  1  0
  7  8  1  0
  8 18  2  0
  9 10  2  0
  9  8  1  0
 10 11  1  0
 11 12  1  0
 11 17  2  0
 13 12  1  1
 13 14  1  0
 14  5  1  0
 15 13  1  0
 16 15  2  0
 18 17  1  0
 20 22  1  0
 20 19  1  6
 21 20  1  0
 23 22  1  1
 23 24  1  0
 24 15  1  0
 25 23  1  0
 26 25  2  0
 27 25  1  0
M  END
$$$$
