SYL.pdb
     RDKit          3D

 27 27  0  0  1  0  0  0  0  0999 V2000
   30.1032  -23.7192  -16.7910 O   0  0  0  0  0  0  0  0  0  0  0  0
   29.2605  -22.7399  -16.2619 C   0  0  0  0  0  0  0  0  0  0  0  0
   28.6694  -21.8851  -17.3564 C   0  0  2  0  0  0  0  0  0  0  0  0
   29.7023  -21.0549  -17.9169 N   0  0  0  0  0  0  0  0  0  0  0  0
   27.5388  -21.0680  -16.8698 C   0  0  0  0  0  0  0  0  0  0  0  0
   27.7612  -19.8798  -16.5212 O   0  0  0  0  0  0  0  0  0  0  0  0
   19.5584  -17.7691  -15.6640 O   0  0  0  0  0  0  0  0  0  0  0  0
   20.7123  -18.4487  -16.1062 C   0  0  0  0  0  0  0  0  0  0  0  0
   21.8752  -17.7438  -16.2939 C   0  0  0  0  0  0  0  0  0  0  0  0
   23.0283  -18.4018  -16.7319 C   0  0  0  0  0  0  0  0  0  0  0  0
   23.0158  -19.7551  -16.9797 C   0  0  0  0  0  0  0  0  0  0  0  0
   24.2179  -20.4640  -17.4406 C   0  0  0  0  0  0  0  0  0  0  0  0
   25.1497  -20.8473  -16.3125 C   0  0  2  0  0  0  0  0  0  0  0  0
   26.2448  -21.6438  -16.8106 N   0  0  0  0  0  0  0  0  0  0  0  0
   24.4472  -21.5912  -15.2388 C   0  0  0  0  0  0  0  0  0  0  0  0
   23.9045  -22.7048  -15.4224 O   0  0  0  0  0  0  0  0  0  0  0  0
   21.8416  -20.4366  -16.7846 C   0  0  0  0  0  0  0  0  0  0  0  0
   20.6894  -19.7898  -16.3490 C   0  0  0  0  0  0  0  0  0  0  0  0
   25.7087  -20.4335   -9.8462 C   0  0  0  0  0  0  0  0  0  0  0  0
   25.0936  -20.4174  -11.2299 C   0  0  1  0  0  0  0  0  0  0  0  0
   26.1482  -19.9765  -12.2601 C   0  0  0  0  0  0  0  0  0  0  0  0
   24.5748  -21.7463  -11.6376 C   0  0  0  0  0  0  0  0  0  0  0  0
   23.6760  -21.6919  -12.8357 C   0  0  2  0  0  0  0  0  0  0  0  0
   24.3780  -21.0290  -13.9391 N   0  0  0  0  0  0  0  0  0  0  0  0
   22.5101  -20.8254  -12.5392 C   0  0  0  0  0  0  0  0  0  0  0  0
   22.4174  -19.6310  -12.9891 O   0  0  0  0  0  0  0  0  0  0  0  0
   21.4655  -21.2606  -11.7671 O   0  0  0  0  0  0  0  0  0  0  0  0
  2  3  1  0
  2  1  1  0
  3  4  1  1
  5  6  2  0
  5  3  1  0
  7  8  1  0
  8 18  2  0
  9 10  2  0
  9  8  1  0
 10 11  1  0
 11 12  1  0
 11 17  2  0
 13 12  1  6
 13 14  1  0
 14  5  1  0
 15 13  1  0
 16 15  2  0
 18 17  1  0
 20 22  1  0
 20 19  1  1
 21 20  1  0
 23 22  1  1
 23 24  1  0
 24 15  1  0
 25 23  1  0
 26 25  2  0
 27 25  1  0
M  END
$$$$
