SYL.pdb
     RDKit          3D

 27 27  0  0  1  0  0  0  0  0999 V2000
   23.2778   -4.3114  -19.4267 O   0  0  0  0  0  0  0  0  0  0  0  0
   24.1932   -5.2375  -18.9232 C   0  0  0  0  0  0  0  0  0  0  0  0
   23.8000   -6.6459  -19.2970 C   0  0  2  0  0  0  0  0  0  0  0  0
   23.6393   -6.7281  -20.7245 N   0  0  0  0  0  0  0  0  0  0  0  0
   22.5721   -7.0805  -18.5998 C   0  0  0  0  0  0  0  0  0  0  0  0
   21.4932   -7.1143  -19.2459 O   0  0  0  0  0  0  0  0  0  0  0  0
   17.2446  -11.7612  -13.6024 O   0  0  0  0  0  0  0  0  0  0  0  0
   18.3784  -11.1275  -14.1519 C   0  0  0  0  0  0  0  0  0  0  0  0
   19.1541  -10.3273  -13.3503 C   0  0  0  0  0  0  0  0  0  0  0  0
   20.2814   -9.6916  -13.8788 C   0  0  0  0  0  0  0  0  0  0  0  0
   20.6284   -9.8566  -15.1999 C   0  0  0  0  0  0  0  0  0  0  0  0
   21.8097   -9.1966  -15.7733 C   0  0  0  0  0  0  0  0  0  0  0  0
   21.4670   -7.9672  -16.5850 C   0  0  2  0  0  0  0  0  0  0  0  0
   22.6460   -7.4442  -17.2317 N   0  0  0  0  0  0  0  0  0  0  0  0
   20.8487   -6.9060  -15.7536 C   0  0  0  0  0  0  0  0  0  0  0  0
   21.5171   -6.1074  -15.0581 O   0  0  0  0  0  0  0  0  0  0  0  0
   19.8372  -10.6610  -15.9799 C   0  0  0  0  0  0  0  0  0  0  0  0
   18.7135  -11.2974  -15.4622 C   0  0  0  0  0  0  0  0  0  0  0  0
   17.6782   -2.2539  -15.6356 C   0  0  0  0  0  0  0  0  0  0  0  0
   17.4475   -3.6495  -15.0947 C   0  0  1  0  0  0  0  0  0  0  0  0
   15.9579   -4.0141  -15.2217 C   0  0  0  0  0  0  0  0  0  0  0  0
   18.2390   -4.6770  -15.8151 C   0  0  0  0  0  0  0  0  0  0  0  0
   18.7543   -5.7648  -14.9222 C   0  0  2  0  0  0  0  0  0  0  0  0
   19.4370   -6.7767  -15.7345 N   0  0  0  0  0  0  0  0  0  0  0  0
   17.6116   -6.4731  -14.2971 C   0  0  0  0  0  0  0  0  0  0  0  0
   17.0893   -6.0838  -13.1957 O   0  0  0  0  0  0  0  0  0  0  0  0
   17.0513   -7.5845  -14.8695 O   0  0  0  0  0  0  0  0  0  0  0  0
  2  3  1  0
  2  1  1  0
  3  4  1  6
  5  6  2  0
  5  3  1  0
  7  8  1  0
  8 18  2  0
  9 10  2  0
  9  8  1  0
 10 11  1  0
 11 12  1  0
 11 17  2  0
 13 12  1  1
 13 14  1  0
 14  5  1  0
 15 13  1  0
 16 15  2  0
 18 17  1  0
 20 22  1  0
 20 19  1  6
 21 20  1  0
 23 22  1  6
 23 24  1  0
 24 15  1  0
 25 23  1  0
 26 25  2  0
 27 25  1  0
M  END
$$$$
