SYL.pdb
     RDKit          3D

 27 27  0  0  1  0  0  0  0  0999 V2000
   29.4967  -19.3812  -17.9653 O   0  0  0  0  0  0  0  0  0  0  0  0
   28.4444  -18.7562  -17.2936 C   0  0  0  0  0  0  0  0  0  0  0  0
   27.2538  -18.5735  -18.2030 C   0  0  2  0  0  0  0  0  0  0  0  0
   27.5416  -17.5329  -19.1542 N   0  0  0  0  0  0  0  0  0  0  0  0
   26.0210  -18.2732  -17.4462 C   0  0  0  0  0  0  0  0  0  0  0  0
   25.5527  -17.1068  -17.4971 O   0  0  0  0  0  0  0  0  0  0  0  0
   17.9730  -17.9614  -14.6886 O   0  0  0  0  0  0  0  0  0  0  0  0
   19.2402  -18.1617  -15.2744 C   0  0  0  0  0  0  0  0  0  0  0  0
   20.0679  -17.0836  -15.4672 C   0  0  0  0  0  0  0  0  0  0  0  0
   21.3273  -17.2641  -16.0466 C   0  0  0  0  0  0  0  0  0  0  0  0
   21.7535  -18.5150  -16.4295 C   0  0  0  0  0  0  0  0  0  0  0  0
   23.0739  -18.7245  -17.0400 C   0  0  0  0  0  0  0  0  0  0  0  0
   24.1549  -19.0275  -16.0264 C   0  0  2  0  0  0  0  0  0  0  0  0
   25.4063  -19.3025  -16.6898 N   0  0  0  0  0  0  0  0  0  0  0  0
   23.7959  -20.1733  -15.1557 C   0  0  0  0  0  0  0  0  0  0  0  0
   23.6428  -21.3382  -15.5889 O   0  0  0  0  0  0  0  0  0  0  0  0
   20.9080  -19.5758  -16.2262 C   0  0  0  0  0  0  0  0  0  0  0  0
   19.6530  -19.4051  -15.6503 C   0  0  0  0  0  0  0  0  0  0  0  0
   26.0333  -20.3167  -10.2654 C   0  0  0  0  0  0  0  0  0  0  0  0
   25.4049  -20.6788  -11.5949 C   0  0  1  0  0  0  0  0  0  0  0  0
   25.9584  -22.0308  -12.0779 C   0  0  0  0  0  0  0  0  0  0  0  0
   23.9272  -20.7846  -11.5158 C   0  0  0  0  0  0  0  0  0  0  0  0
   23.2776  -21.0427  -12.8415 C   0  0  2  0  0  0  0  0  0  0  0  0
   23.6143  -19.9560  -13.7665 N   0  0  0  0  0  0  0  0  0  0  0  0
   21.8041  -20.9822  -12.6894 C   0  0  0  0  0  0  0  0  0  0  0  0
   21.0989  -22.0268  -12.4677 O   0  0  0  0  0  0  0  0  0  0  0  0
   21.1177  -19.7997  -12.7761 O   0  0  0  0  0  0  0  0  0  0  0  0
  2  3  1  0
  2  1  1  0
  3  4  1  6
  5  6  2  0
  5  3  1  0
  7  8  1  0
  8 18  2  0
  9 10  2  0
  9  8  1  0
 10 11  1  0
 11 12  1  0
 11 17  2  0
 13 12  1  6
 13 14  1  0
 14  5  1  0
 15 13  1  0
 16 15  2  0
 18 17  1  0
 20 22  1  0
 20 19  1  1
 21 20  1  0
 23 22  1  1
 23 24  1  0
 24 15  1  0
 25 23  1  0
 26 25  2  0
 27 25  1  0
M  END
$$$$
