EEG.pdb
     RDKit          3D

 23 22  0  0  1  0  0  0  0  0999 V2000
   11.4353  -19.3334   20.8021 N   0  0  0  0  0  0  0  0  0  0  0  0
   12.2517  -18.9100   21.8880 C   0  0  1  0  0  0  0  0  0  0  0  0
   13.3158  -17.9169   21.6030 C   0  0  0  0  0  0  0  0  0  0  0  0
   14.4649  -18.3548   20.7701 C   0  0  0  0  0  0  0  0  0  0  0  0
   15.5099  -17.3670   20.5381 C   0  0  0  0  0  0  0  0  0  0  0  0
   15.7130  -16.8604   19.4200 O   0  0  0  0  0  0  0  0  0  0  0  0
   11.3989  -18.4673   23.0518 C   0  0  0  0  0  0  0  0  0  0  0  0
   10.2104  -18.1775   22.7855 O   0  0  0  0  0  0  0  0  0  0  0  0
   16.3545  -16.9247   21.5657 O   0  0  0  0  0  0  0  0  0  0  0  0
   11.9209  -18.3876   24.3681 N   0  0  0  0  0  0  0  0  0  0  0  0
   11.0667  -17.9449   25.4899 C   0  0  1  0  0  0  0  0  0  0  0  0
   11.3800  -18.8501   26.6097 C   0  0  0  0  0  0  0  0  0  0  0  0
   10.8328  -18.5495   27.9493 C   0  0  0  0  0  0  0  0  0  0  0  0
   11.1793  -19.5224   29.0122 C   0  0  0  0  0  0  0  0  0  0  0  0
   11.9281  -20.4957   28.7442 O   0  0  0  0  0  0  0  0  0  0  0  0
   11.2591  -16.5180   25.6631 C   0  0  0  0  0  0  0  0  0  0  0  0
   12.1983  -15.9655   24.9818 O   0  0  0  0  0  0  0  0  0  0  0  0
   10.6985  -19.3912   30.3074 O   0  0  0  0  0  0  0  0  0  0  0  0
   10.5134  -15.6519   26.5130 N   0  0  0  0  0  0  0  0  0  0  0  0
   10.5136  -14.2226   26.3606 C   0  0  0  0  0  0  0  0  0  0  0  0
    9.6821  -13.5466   27.3668 C   0  0  0  0  0  0  0  0  0  0  0  0
    9.5388  -12.1717   27.4693 O   0  0  0  0  0  0  0  0  0  0  0  0
    9.0548  -14.2542   28.1944 O   0  0  0  0  0  0  0  0  0  0  0  0
  2  1  1  6
  2  7  1  0
  3  4  1  0
  3  2  1  0
  5  6  2  0
  5  4  1  0
  7 10  1  0
  7  8  2  0
  9  5  1  0
 10 11  1  0
 11 16  1  0
 11 12  1  1
 13 12  1  0
 13 14  1  0
 14 15  2  0
 14 18  1  0
 16 17  2  0
 19 20  1  0
 19 16  1  0
 21 22  1  0
 21 20  1  0
 23 21  2  0
M  END
$$$$
