EEG.pdb
     RDKit          3D

 23 22  0  0  1  0  0  0  0  0999 V2000
    9.1820  -13.4726   18.6762 N   0  0  0  0  0  0  0  0  0  0  0  0
    9.1485  -14.7586   18.0682 C   0  0  1  0  0  0  0  0  0  0  0  0
    8.9205  -14.8223   16.6040 C   0  0  0  0  0  0  0  0  0  0  0  0
    7.9223  -13.8913   16.0186 C   0  0  0  0  0  0  0  0  0  0  0  0
    7.7308  -13.9704   14.5770 C   0  0  0  0  0  0  0  0  0  0  0  0
    7.0597  -13.1339   13.9460 O   0  0  0  0  0  0  0  0  0  0  0  0
   10.3642  -15.5625   18.4599 C   0  0  0  0  0  0  0  0  0  0  0  0
   10.4477  -16.7108   17.9681 O   0  0  0  0  0  0  0  0  0  0  0  0
    8.2937  -14.9989   13.8087 O   0  0  0  0  0  0  0  0  0  0  0  0
   11.3509  -15.0399   19.3346 N   0  0  0  0  0  0  0  0  0  0  0  0
   12.5360  -15.8449   19.6975 C   0  0  1  0  0  0  0  0  0  0  0  0
   13.6997  -14.9796   19.4364 C   0  0  0  0  0  0  0  0  0  0  0  0
   14.2425  -14.9027   18.0638 C   0  0  0  0  0  0  0  0  0  0  0  0
   15.5199  -14.1645   17.9241 C   0  0  0  0  0  0  0  0  0  0  0  0
   16.3829  -14.2370   18.8351 O   0  0  0  0  0  0  0  0  0  0  0  0
   12.3313  -16.3648   21.0358 C   0  0  0  0  0  0  0  0  0  0  0  0
   13.1924  -17.2120   21.4743 O   0  0  0  0  0  0  0  0  0  0  0  0
   15.7964  -13.3879   16.8077 O   0  0  0  0  0  0  0  0  0  0  0  0
   11.2709  -16.0356   21.9277 N   0  0  0  0  0  0  0  0  0  0  0  0
   11.0494  -16.7337   23.1646 C   0  0  0  0  0  0  0  0  0  0  0  0
   11.9102  -16.2451   24.2514 C   0  0  0  0  0  0  0  0  0  0  0  0
   11.8162  -16.6583   25.5712 O   0  0  0  0  0  0  0  0  0  0  0  0
   12.7940  -15.3956   23.9755 O   0  0  0  0  0  0  0  0  0  0  0  0
  2  1  1  6
  2  7  1  0
  3  4  1  0
  3  2  1  0
  5  6  2  0
  5  4  1  0
  7 10  1  0
  7  8  2  0
  9  5  1  0
 10 11  1  0
 11 16  1  0
 11 12  1  1
 13 12  1  0
 13 14  1  0
 14 15  2  0
 14 18  1  0
 16 17  2  0
 19 20  1  0
 19 16  1  0
 21 22  1  0
 21 20  1  0
 23 21  2  0
M  END
$$$$
