EEG.pdb
     RDKit          3D

 23 22  0  0  1  0  0  0  0  0999 V2000
    9.5053  -27.2605   26.5275 N   0  0  0  0  0  0  0  0  0  0  0  0
    8.7382  -26.0625   26.5589 C   0  0  1  0  0  0  0  0  0  0  0  0
    7.3611  -26.1121   26.0104 C   0  0  0  0  0  0  0  0  0  0  0  0
    6.6738  -27.4285   25.9856 C   0  0  0  0  0  0  0  0  0  0  0  0
    5.2956  -27.4305   25.5143 C   0  0  0  0  0  0  0  0  0  0  0  0
    4.6989  -26.3872   25.1925 O   0  0  0  0  0  0  0  0  0  0  0  0
    8.7454  -25.4641   27.9444 C   0  0  0  0  0  0  0  0  0  0  0  0
    8.3838  -24.2686   28.0303 O   0  0  0  0  0  0  0  0  0  0  0  0
    4.5541  -28.6139   25.3939 O   0  0  0  0  0  0  0  0  0  0  0  0
    9.1397  -26.2193   29.0784 N   0  0  0  0  0  0  0  0  0  0  0  0
    9.1355  -25.6107   30.4252 C   0  0  1  0  0  0  0  0  0  0  0  0
    8.4800  -26.5949   31.3043 C   0  0  0  0  0  0  0  0  0  0  0  0
    7.0281  -26.4778   31.5548 C   0  0  0  0  0  0  0  0  0  0  0  0
    6.4641  -27.4636   32.5070 C   0  0  0  0  0  0  0  0  0  0  0  0
    6.5516  -28.6918   32.2550 O   0  0  0  0  0  0  0  0  0  0  0  0
   10.4886  -25.1864   30.7289 C   0  0  0  0  0  0  0  0  0  0  0  0
   11.4191  -26.0651   30.6130 O   0  0  0  0  0  0  0  0  0  0  0  0
    5.8362  -27.0692   33.6801 O   0  0  0  0  0  0  0  0  0  0  0  0
   10.9046  -23.8893   31.1447 N   0  0  0  0  0  0  0  0  0  0  0  0
   12.2829  -23.5493   31.3704 C   0  0  0  0  0  0  0  0  0  0  0  0
   12.4763  -22.1153   31.6295 C   0  0  0  0  0  0  0  0  0  0  0  0
   13.6734  -21.5472   32.0362 O   0  0  0  0  0  0  0  0  0  0  0  0
   11.4962  -21.3442   31.4745 O   0  0  0  0  0  0  0  0  0  0  0  0
  2  1  1  1
  2  7  1  0
  3  4  1  0
  3  2  1  0
  5  6  2  0
  5  4  1  0
  7 10  1  0
  7  8  2  0
  9  5  1  0
 10 11  1  0
 11 16  1  0
 11 12  1  1
 13 12  1  0
 13 14  1  0
 14 15  2  0
 14 18  1  0
 16 17  2  0
 19 20  1  0
 19 16  1  0
 21 22  1  0
 21 20  1  0
 23 21  2  0
M  END
$$$$
