EEG.pdb
     RDKit          3D

 23 22  0  0  1  0  0  0  0  0999 V2000
    2.7555  -24.5186   20.8009 N   0  0  0  0  0  0  0  0  0  0  0  0
    2.6353  -23.2625   21.4585 C   0  0  1  0  0  0  0  0  0  0  0  0
    1.7166  -23.1785   22.6199 C   0  0  0  0  0  0  0  0  0  0  0  0
    2.0316  -24.0067   23.8118 C   0  0  0  0  0  0  0  0  0  0  0  0
    1.0738  -23.9543   24.9079 C   0  0  0  0  0  0  0  0  0  0  0  0
    0.0456  -23.2551   24.8628 O   0  0  0  0  0  0  0  0  0  0  0  0
    3.9973  -22.7140   21.8077 C   0  0  0  0  0  0  0  0  0  0  0  0
    4.8356  -23.5448   22.2252 O   0  0  0  0  0  0  0  0  0  0  0  0
    1.2531  -24.6920   26.0862 O   0  0  0  0  0  0  0  0  0  0  0  0
    4.3021  -21.3360   21.6674 N   0  0  0  0  0  0  0  0  0  0  0  0
    5.6689  -20.8382   21.9285 C   0  0  1  0  0  0  0  0  0  0  0  0
    6.0721  -20.1228   20.7050 C   0  0  0  0  0  0  0  0  0  0  0  0
    6.9286  -20.8148   19.7191 C   0  0  0  0  0  0  0  0  0  0  0  0
    7.2099  -20.0574   18.4766 C   0  0  0  0  0  0  0  0  0  0  0  0
    7.5101  -18.8389   18.5456 O   0  0  0  0  0  0  0  0  0  0  0  0
    5.6513  -20.1220   23.1894 C   0  0  0  0  0  0  0  0  0  0  0  0
    4.5318  -19.6095   23.5576 O   0  0  0  0  0  0  0  0  0  0  0  0
    7.1520  -20.6575   17.2266 O   0  0  0  0  0  0  0  0  0  0  0  0
    6.7491  -19.9229   24.0746 N   0  0  0  0  0  0  0  0  0  0  0  0
    6.6254  -19.2180   25.3213 C   0  0  0  0  0  0  0  0  0  0  0  0
    7.9065  -19.0973   26.0320 C   0  0  0  0  0  0  0  0  0  0  0  0
    9.1064  -19.6226   25.5786 O   0  0  0  0  0  0  0  0  0  0  0  0
    7.9255  -18.4779   27.1251 O   0  0  0  0  0  0  0  0  0  0  0  0
  2  1  1  1
  2  7  1  0
  3  4  1  0
  3  2  1  0
  5  6  2  0
  5  4  1  0
  7 10  1  0
  7  8  2  0
  9  5  1  0
 10 11  1  0
 11 16  1  0
 11 12  1  6
 13 12  1  0
 13 14  1  0
 14 15  2  0
 14 18  1  0
 16 17  2  0
 19 20  1  0
 19 16  1  0
 21 22  1  0
 21 20  1  0
 23 21  2  0
M  END
$$$$
