EEG.pdb
     RDKit          3D

 23 22  0  0  1  0  0  0  0  0999 V2000
   12.5741  -21.9411   14.9319 N   0  0  0  0  0  0  0  0  0  0  0  0
   12.6273  -20.6118   15.4366 C   0  0  1  0  0  0  0  0  0  0  0  0
   11.3962  -19.7898   15.3427 C   0  0  0  0  0  0  0  0  0  0  0  0
   10.8313  -19.5427   13.9915 C   0  0  0  0  0  0  0  0  0  0  0  0
    9.7183  -18.6062   13.9165 C   0  0  0  0  0  0  0  0  0  0  0  0
    9.2456  -18.0494   14.9239 O   0  0  0  0  0  0  0  0  0  0  0  0
   13.1778  -20.5994   16.8417 C   0  0  0  0  0  0  0  0  0  0  0  0
   12.9219  -21.6045   17.5429 O   0  0  0  0  0  0  0  0  0  0  0  0
    9.1090  -18.2735   12.6988 O   0  0  0  0  0  0  0  0  0  0  0  0
   13.9407  -19.5087   17.3318 N   0  0  0  0  0  0  0  0  0  0  0  0
   14.4615  -19.5170   18.7148 C   0  0  1  0  0  0  0  0  0  0  0  0
   15.8564  -19.0519   18.6173 C   0  0  0  0  0  0  0  0  0  0  0  0
   16.8891  -19.9826   18.1155 C   0  0  0  0  0  0  0  0  0  0  0  0
   18.2560  -19.4200   18.0081 C   0  0  0  0  0  0  0  0  0  0  0  0
   18.8519  -19.0318   19.0444 O   0  0  0  0  0  0  0  0  0  0  0  0
   13.5306  -18.7809   19.5482 C   0  0  0  0  0  0  0  0  0  0  0  0
   12.9345  -17.7751   19.0151 O   0  0  0  0  0  0  0  0  0  0  0  0
   18.9054  -19.3072   16.7869 O   0  0  0  0  0  0  0  0  0  0  0  0
   13.1996  -19.0534   20.9064 N   0  0  0  0  0  0  0  0  0  0  0  0
   12.2305  -18.2862   21.6401 C   0  0  0  0  0  0  0  0  0  0  0  0
   12.8489  -17.2573   22.4886 C   0  0  0  0  0  0  0  0  0  0  0  0
   12.1423  -16.3740   23.2898 O   0  0  0  0  0  0  0  0  0  0  0  0
   14.1020  -17.1643   22.4948 O   0  0  0  0  0  0  0  0  0  0  0  0
  2  1  1  1
  2  7  1  0
  3  4  1  0
  3  2  1  0
  5  6  2  0
  5  4  1  0
  7 10  1  0
  7  8  2  0
  9  5  1  0
 10 11  1  0
 11 16  1  0
 11 12  1  6
 13 12  1  0
 13 14  1  0
 14 15  2  0
 14 18  1  0
 16 17  2  0
 19 20  1  0
 19 16  1  0
 21 22  1  0
 21 20  1  0
 23 21  2  0
M  END
$$$$
