EEG.pdb
     RDKit          3D

 23 22  0  0  1  0  0  0  0  0999 V2000
    9.2698  -18.8973   19.8910 N   0  0  0  0  0  0  0  0  0  0  0  0
    9.8754  -19.6046   20.9669 C   0  0  1  0  0  0  0  0  0  0  0  0
   11.3475  -19.5025   21.1161 C   0  0  0  0  0  0  0  0  0  0  0  0
   12.1870  -19.8456   19.9399 C   0  0  0  0  0  0  0  0  0  0  0  0
   13.6278  -19.8521   20.1528 C   0  0  0  0  0  0  0  0  0  0  0  0
   14.3828  -19.0098   19.6345 O   0  0  0  0  0  0  0  0  0  0  0  0
    9.1785  -19.2894   22.2680 C   0  0  0  0  0  0  0  0  0  0  0  0
    8.6736  -18.1475   22.3603 O   0  0  0  0  0  0  0  0  0  0  0  0
   14.2548  -20.8124   20.9587 O   0  0  0  0  0  0  0  0  0  0  0  0
    9.1037  -20.2376   23.3201 N   0  0  0  0  0  0  0  0  0  0  0  0
    8.4783  -19.8806   24.6106 C   0  0  1  0  0  0  0  0  0  0  0  0
    7.4971  -20.9452   24.8851 C   0  0  0  0  0  0  0  0  0  0  0  0
    6.8220  -20.9766   26.1995 C   0  0  0  0  0  0  0  0  0  0  0  0
    5.8757  -22.0988   26.4032 C   0  0  0  0  0  0  0  0  0  0  0  0
    6.0829  -22.9274   27.3253 O   0  0  0  0  0  0  0  0  0  0  0  0
    9.5384  -19.6360   25.5695 C   0  0  0  0  0  0  0  0  0  0  0  0
   10.6087  -20.3376   25.4526 O   0  0  0  0  0  0  0  0  0  0  0  0
    4.7564  -22.2653   25.5999 O   0  0  0  0  0  0  0  0  0  0  0  0
    9.5247  -18.6932   26.6369 N   0  0  0  0  0  0  0  0  0  0  0  0
   10.6268  -18.5301   27.5452 C   0  0  0  0  0  0  0  0  0  0  0  0
   10.4697  -19.3233   28.7729 C   0  0  0  0  0  0  0  0  0  0  0  0
   11.3189  -19.2513   29.8660 O   0  0  0  0  0  0  0  0  0  0  0  0
    9.5035  -20.1233   28.8459 O   0  0  0  0  0  0  0  0  0  0  0  0
  2  1  1  6
  2  7  1  0
  3  4  1  0
  3  2  1  0
  5  6  2  0
  5  4  1  0
  7 10  1  0
  7  8  2  0
  9  5  1  0
 10 11  1  0
 11 16  1  0
 11 12  1  1
 13 12  1  0
 13 14  1  0
 14 15  2  0
 14 18  1  0
 16 17  2  0
 19 20  1  0
 19 16  1  0
 21 22  1  0
 21 20  1  0
 23 21  2  0
M  END
$$$$
