EEG.pdb
     RDKit          3D

 23 22  0  0  1  0  0  0  0  0999 V2000
    4.9807  -21.1035   18.8214 N   0  0  0  0  0  0  0  0  0  0  0  0
    6.0007  -21.6773   19.6306 C   0  0  1  0  0  0  0  0  0  0  0  0
    7.4101  -21.3963   19.2640 C   0  0  0  0  0  0  0  0  0  0  0  0
    7.8242  -21.6544   17.8612 C   0  0  0  0  0  0  0  0  0  0  0  0
    9.2370  -21.4700   17.5588 C   0  0  0  0  0  0  0  0  0  0  0  0
    9.7115  -21.6865   16.4292 O   0  0  0  0  0  0  0  0  0  0  0  0
    5.7529  -21.3772   21.0888 C   0  0  0  0  0  0  0  0  0  0  0  0
    5.2955  -20.2409   21.3477 O   0  0  0  0  0  0  0  0  0  0  0  0
   10.1526  -21.0351   18.5270 O   0  0  0  0  0  0  0  0  0  0  0  0
    6.0244  -22.3327   22.1011 N   0  0  0  0  0  0  0  0  0  0  0  0
    5.7494  -22.0234   23.5199 C   0  0  1  0  0  0  0  0  0  0  0  0
    4.5362  -22.7851   23.8651 C   0  0  0  0  0  0  0  0  0  0  0  0
    3.2730  -22.4793   23.1612 C   0  0  0  0  0  0  0  0  0  0  0  0
    2.1247  -23.3506   23.5054 C   0  0  0  0  0  0  0  0  0  0  0  0
    2.2660  -24.2537   24.3680 O   0  0  0  0  0  0  0  0  0  0  0  0
    6.9662  -22.2580   24.2732 C   0  0  0  0  0  0  0  0  0  0  0  0
    7.7006  -23.2475   23.9086 O   0  0  0  0  0  0  0  0  0  0  0  0
    0.8855  -23.1991   22.8992 O   0  0  0  0  0  0  0  0  0  0  0  0
    7.4428  -21.5040   25.3836 N   0  0  0  0  0  0  0  0  0  0  0  0
    8.6498  -21.8369   26.0896 C   0  0  0  0  0  0  0  0  0  0  0  0
    8.8858  -20.9641   27.2487 C   0  0  0  0  0  0  0  0  0  0  0  0
    9.9527  -21.0954   28.1238 O   0  0  0  0  0  0  0  0  0  0  0  0
    8.0711  -20.0333   27.4694 O   0  0  0  0  0  0  0  0  0  0  0  0
  2  1  1  6
  2  7  1  0
  3  4  1  0
  3  2  1  0
  5  6  2  0
  5  4  1  0
  7 10  1  0
  7  8  2  0
  9  5  1  0
 10 11  1  0
 11 16  1  0
 11 12  1  1
 13 12  1  0
 13 14  1  0
 14 15  2  0
 14 18  1  0
 16 17  2  0
 19 20  1  0
 19 16  1  0
 21 22  1  0
 21 20  1  0
 23 21  2  0
M  END
$$$$
