LIM.pdb
     RDKit          3D

 25 24  0  0  1  0  0  0  0  0999 V2000
   27.4038  -17.5931  -17.2878 C   0  0  0  0  0  0  0  0  0  0  0  0
   28.0877  -18.6667  -16.4823 C   0  0  1  0  0  0  0  0  0  0  0  0
   29.1794  -17.9925  -15.6475 C   0  0  0  0  0  0  0  0  0  0  0  0
   27.1724  -19.3452  -15.5323 C   0  0  0  0  0  0  0  0  0  0  0  0
   27.7531  -20.4137  -14.6740 C   0  0  2  0  0  0  0  0  0  0  0  0
   28.4800  -21.4044  -15.4173 N   0  0  0  0  0  0  0  0  0  0  0  0
   26.7734  -20.9569  -13.7114 C   0  0  0  0  0  0  0  0  0  0  0  0
   26.0746  -21.9583  -14.0130 O   0  0  0  0  0  0  0  0  0  0  0  0
   27.6886  -20.8016   -8.3328 C   0  0  0  0  0  0  0  0  0  0  0  0
   27.1354  -21.2754   -9.6179 C   0  0  0  0  0  0  0  0  0  0  0  0
   25.8727  -20.7454  -10.1343 C   0  0  2  0  0  0  0  0  0  0  0  0
   24.7437  -21.2425   -9.1766 C   0  0  0  0  0  0  0  0  0  0  0  0
   25.4558  -20.9105  -11.5393 C   0  0  2  0  0  0  0  0  0  0  0  0
   26.5555  -20.4073  -12.4223 N   0  0  0  0  0  0  0  0  0  0  0  0
   24.1944  -20.3133  -11.9980 C   0  0  0  0  0  0  0  0  0  0  0  0
   24.0611  -19.1425  -12.4232 O   0  0  0  0  0  0  0  0  0  0  0  0
   22.6533  -18.8270  -17.1744 C   0  0  0  0  0  0  0  0  0  0  0  0
   21.5821  -20.2581  -16.9280 S   0  0  0  0  0  0  0  0  0  0  0  0
   21.0854  -20.3383  -15.1869 C   0  0  0  0  0  0  0  0  0  0  0  0
   22.2465  -20.7385  -14.3023 C   0  0  0  0  0  0  0  0  0  0  0  0
   21.8567  -20.6907  -12.8327 C   0  0  2  0  0  0  0  0  0  0  0  0
   22.9650  -21.0781  -11.9868 N   0  0  0  0  0  0  0  0  0  0  0  0
   20.6446  -21.4834  -12.5645 C   0  0  0  0  0  0  0  0  0  0  0  0
   19.4026  -20.9039  -12.6804 O   0  0  0  0  0  0  0  0  0  0  0  0
   20.7438  -22.6816  -12.2318 O   0  0  0  0  0  0  0  0  0  0  0  0
  2  4  1  0
  2  1  1  1
  2  3  1  0
  5  6  1  6
  5  4  1  0
  7  5  1  0
  8  7  2  0
  9 10  1  0
 10 11  1  0
 11 13  1  0
 11 12  1  1
 13 14  1  6
 14  7  1  0
 15 13  1  0
 15 16  2  0
 18 17  1  0
 19 20  1  0
 19 18  1  0
 21 20  1  6
 21 22  1  0
 22 15  1  0
 23 21  1  0
 24 23  1  0
 25 23  2  0
M  END
$$$$
