LIM.pdb
     RDKit          3D

 25 24  0  0  1  0  0  0  0  0999 V2000
   27.5757  -18.1580  -17.9294 C   0  0  0  0  0  0  0  0  0  0  0  0
   28.1051  -19.1139  -16.8925 C   0  0  1  0  0  0  0  0  0  0  0  0
   28.9950  -18.3134  -15.9383 C   0  0  0  0  0  0  0  0  0  0  0  0
   27.0314  -19.7265  -16.0724 C   0  0  0  0  0  0  0  0  0  0  0  0
   27.4512  -20.6428  -14.9770 C   0  0  2  0  0  0  0  0  0  0  0  0
   28.3328  -21.6868  -15.4189 N   0  0  0  0  0  0  0  0  0  0  0  0
   26.3106  -21.1006  -14.1580 C   0  0  0  0  0  0  0  0  0  0  0  0
   25.7308  -22.1842  -14.4255 O   0  0  0  0  0  0  0  0  0  0  0  0
   26.6160  -20.7848   -8.8015 C   0  0  0  0  0  0  0  0  0  0  0  0
   26.1854  -21.2516  -10.1352 C   0  0  0  0  0  0  0  0  0  0  0  0
   25.0112  -20.6746  -10.7912 C   0  0  2  0  0  0  0  0  0  0  0  0
   23.7773  -21.0086   -9.8941 C   0  0  0  0  0  0  0  0  0  0  0  0
   24.6900  -20.9223  -12.2091 C   0  0  2  0  0  0  0  0  0  0  0  0
   25.8024  -20.3762  -13.0496 N   0  0  0  0  0  0  0  0  0  0  0  0
   23.4196  -20.4343  -12.7624 C   0  0  0  0  0  0  0  0  0  0  0  0
   23.1413  -19.2331  -12.9841 O   0  0  0  0  0  0  0  0  0  0  0  0
   19.3797  -23.9804  -16.5468 C   0  0  0  0  0  0  0  0  0  0  0  0
   18.8675  -22.2759  -16.8443 S   0  0  0  0  0  0  0  0  0  0  0  0
   19.3887  -21.2444  -15.4483 C   0  0  0  0  0  0  0  0  0  0  0  0
   20.6892  -21.7408  -14.8539 C   0  0  0  0  0  0  0  0  0  0  0  0
   21.1259  -20.8680  -13.6870 C   0  0  2  0  0  0  0  0  0  0  0  0
   22.3565  -21.3564  -13.1030 N   0  0  0  0  0  0  0  0  0  0  0  0
   20.0539  -20.7174  -12.6882 C   0  0  0  0  0  0  0  0  0  0  0  0
   19.0902  -19.7499  -12.8522 O   0  0  0  0  0  0  0  0  0  0  0  0
   20.0194  -21.4678  -11.6922 O   0  0  0  0  0  0  0  0  0  0  0  0
  2  4  1  0
  2  1  1  6
  2  3  1  0
  5  6  1  6
  5  4  1  0
  7  5  1  0
  8  7  2  0
  9 10  1  0
 10 11  1  0
 11 13  1  0
 11 12  1  1
 13 14  1  6
 14  7  1  0
 15 13  1  0
 15 16  2  0
 18 17  1  0
 19 20  1  0
 19 18  1  0
 21 20  1  6
 21 22  1  0
 22 15  1  0
 23 21  1  0
 24 23  1  0
 25 23  2  0
M  END
$$$$
