LIM.pdb
     RDKit          3D

 25 24  0  0  1  0  0  0  0  0999 V2000
   14.0956  -15.8268  -17.2585 C   0  0  0  0  0  0  0  0  0  0  0  0
   14.9374  -15.2102  -16.1721 C   0  0  1  0  0  0  0  0  0  0  0  0
   16.1768  -16.0905  -15.9928 C   0  0  0  0  0  0  0  0  0  0  0  0
   15.4181  -13.8501  -16.5180 C   0  0  0  0  0  0  0  0  0  0  0  0
   16.1936  -13.1182  -15.4793 C   0  0  2  0  0  0  0  0  0  0  0  0
   15.6928  -13.3241  -14.1491 N   0  0  0  0  0  0  0  0  0  0  0  0
   16.4263  -11.7055  -15.8418 C   0  0  0  0  0  0  0  0  0  0  0  0
   16.8207  -11.4028  -16.9972 O   0  0  0  0  0  0  0  0  0  0  0  0
   13.8398   -8.5428  -17.4995 C   0  0  0  0  0  0  0  0  0  0  0  0
   13.8885   -8.8914  -16.0649 C   0  0  0  0  0  0  0  0  0  0  0  0
   15.0500   -8.5435  -15.2453 C   0  0  2  0  0  0  0  0  0  0  0  0
   15.2174   -6.9929  -15.3259 C   0  0  0  0  0  0  0  0  0  0  0  0
   16.3595   -9.2042  -15.3998 C   0  0  2  0  0  0  0  0  0  0  0  0
   16.2303  -10.6248  -14.9445 N   0  0  0  0  0  0  0  0  0  0  0  0
   17.5460   -8.6257  -14.7552 C   0  0  0  0  0  0  0  0  0  0  0  0
   17.8705   -8.7905  -13.5565 O   0  0  0  0  0  0  0  0  0  0  0  0
   23.4557  -10.3614  -13.1041 C   0  0  0  0  0  0  0  0  0  0  0  0
   23.2655   -9.5917  -14.7251 S   0  0  0  0  0  0  0  0  0  0  0  0
   22.1100   -8.2018  -14.5934 C   0  0  0  0  0  0  0  0  0  0  0  0
   20.7725   -8.5384  -15.2169 C   0  0  0  0  0  0  0  0  0  0  0  0
   19.7522   -7.4426  -14.9482 C   0  0  2  0  0  0  0  0  0  0  0  0
   18.4601   -7.7867  -15.5015 N   0  0  0  0  0  0  0  0  0  0  0  0
   20.2281   -6.1288  -15.4137 C   0  0  0  0  0  0  0  0  0  0  0  0
   19.5250   -5.4426  -16.3763 O   0  0  0  0  0  0  0  0  0  0  0  0
   21.2699   -5.6373  -14.9348 O   0  0  0  0  0  0  0  0  0  0  0  0
  2  4  1  0
  2  1  1  6
  2  3  1  0
  5  6  1  1
  5  4  1  0
  7  5  1  0
  8  7  2  0
  9 10  1  0
 10 11  1  0
 11 13  1  0
 11 12  1  6
 13 14  1  1
 14  7  1  0
 15 13  1  0
 15 16  2  0
 18 17  1  0
 19 20  1  0
 19 18  1  0
 21 20  1  6
 21 22  1  0
 22 15  1  0
 23 21  1  0
 24 23  1  0
 25 23  2  0
M  END
$$$$
