LIM.pdb
     RDKit          3D

 25 24  0  0  1  0  0  0  0  0999 V2000
   15.5104  -11.5196  -19.6833 C   0  0  0  0  0  0  0  0  0  0  0  0
   16.3808  -12.1268  -18.6143 C   0  0  1  0  0  0  0  0  0  0  0  0
   17.5272  -12.8610  -19.3143 C   0  0  0  0  0  0  0  0  0  0  0  0
   16.9955  -11.1102  -17.7258 C   0  0  0  0  0  0  0  0  0  0  0  0
   17.9281  -11.6007  -16.6743 C   0  0  2  0  0  0  0  0  0  0  0  0
   17.3479  -12.6042  -15.8265 N   0  0  0  0  0  0  0  0  0  0  0  0
   18.5993  -10.4971  -15.9581 C   0  0  0  0  0  0  0  0  0  0  0  0
   18.0672   -9.9837  -14.9406 O   0  0  0  0  0  0  0  0  0  0  0  0
   23.5572  -10.7408  -14.0726 C   0  0  0  0  0  0  0  0  0  0  0  0
   22.1612  -10.3552  -14.3633 C   0  0  0  0  0  0  0  0  0  0  0  0
   21.8606   -9.2239  -15.2418 C   0  0  2  0  0  0  0  0  0  0  0  0
   22.6457   -7.9936  -14.6858 C   0  0  0  0  0  0  0  0  0  0  0  0
   20.4825   -8.8314  -15.5904 C   0  0  2  0  0  0  0  0  0  0  0  0
   19.8485   -9.9536  -16.3525 N   0  0  0  0  0  0  0  0  0  0  0  0
   20.2474   -7.5864  -16.3338 C   0  0  0  0  0  0  0  0  0  0  0  0
   20.6447   -7.3537  -17.4989 O   0  0  0  0  0  0  0  0  0  0  0  0
   15.7582   -1.5527  -18.2533 C   0  0  0  0  0  0  0  0  0  0  0  0
   15.9298   -3.0349  -17.2385 S   0  0  0  0  0  0  0  0  0  0  0  0
   17.6791   -3.5013  -17.1553 C   0  0  0  0  0  0  0  0  0  0  0  0
   17.8575   -4.8469  -16.4856 C   0  0  0  0  0  0  0  0  0  0  0  0
   19.3227   -5.2554  -16.4602 C   0  0  2  0  0  0  0  0  0  0  0  0
   19.5053   -6.4956  -15.7372 N   0  0  0  0  0  0  0  0  0  0  0  0
   20.1806   -4.1753  -15.9439 C   0  0  0  0  0  0  0  0  0  0  0  0
   20.7064   -3.2412  -16.8058 O   0  0  0  0  0  0  0  0  0  0  0  0
   20.4311   -4.1070  -14.7237 O   0  0  0  0  0  0  0  0  0  0  0  0
  2  4  1  0
  2  1  1  6
  2  3  1  0
  5  6  1  1
  5  4  1  0
  7  5  1  0
  8  7  2  0
  9 10  1  0
 10 11  1  0
 11 13  1  0
 11 12  1  1
 13 14  1  6
 14  7  1  0
 15 13  1  0
 15 16  2  0
 18 17  1  0
 19 20  1  0
 19 18  1  0
 21 20  1  1
 21 22  1  0
 22 15  1  0
 23 21  1  0
 24 23  1  0
 25 23  2  0
M  END
$$$$
