LIM.pdb
     RDKit          3D

 25 24  0  0  1  0  0  0  0  0999 V2000
   23.0610  -24.3747  -15.8816 C   0  0  0  0  0  0  0  0  0  0  0  0
   24.5621  -24.4806  -15.8136 C   0  0  1  0  0  0  0  0  0  0  0  0
   24.9360  -24.8184  -14.3682 C   0  0  0  0  0  0  0  0  0  0  0  0
   25.1020  -25.5677  -16.6665 C   0  0  0  0  0  0  0  0  0  0  0  0
   26.5714  -25.8017  -16.6210 C   0  0  2  0  0  0  0  0  0  0  0  0
   27.3409  -24.6330  -16.9443 N   0  0  0  0  0  0  0  0  0  0  0  0
   26.9691  -27.0253  -17.3462 C   0  0  0  0  0  0  0  0  0  0  0  0
   27.0243  -27.0296  -18.6027 O   0  0  0  0  0  0  0  0  0  0  0  0
   31.3754  -28.2479  -18.5260 C   0  0  0  0  0  0  0  0  0  0  0  0
   29.9063  -28.2745  -18.3745 C   0  0  0  0  0  0  0  0  0  0  0  0
   29.2474  -29.3394  -17.6171 C   0  0  2  0  0  0  0  0  0  0  0  0
   29.8226  -30.6940  -18.1396 C   0  0  0  0  0  0  0  0  0  0  0  0
   27.7816  -29.4290  -17.4808 C   0  0  2  0  0  0  0  0  0  0  0  0
   27.3046  -28.2430  -16.7011 N   0  0  0  0  0  0  0  0  0  0  0  0
   27.1786  -30.6327  -16.8930 C   0  0  0  0  0  0  0  0  0  0  0  0
   27.3892  -31.0539  -15.7321 O   0  0  0  0  0  0  0  0  0  0  0  0
   21.1253  -34.1997  -17.8800 C   0  0  0  0  0  0  0  0  0  0  0  0
   21.6336  -32.4693  -17.8190 S   0  0  0  0  0  0  0  0  0  0  0  0
   23.4195  -32.3620  -18.1079 C   0  0  0  0  0  0  0  0  0  0  0  0
   24.1925  -32.4548  -16.8099 C   0  0  0  0  0  0  0  0  0  0  0  0
   25.6798  -32.6393  -17.0707 C   0  0  2  0  0  0  0  0  0  0  0  0
   26.2577  -31.4488  -17.6562 N   0  0  0  0  0  0  0  0  0  0  0  0
   25.9468  -33.8441  -17.8746 C   0  0  0  0  0  0  0  0  0  0  0  0
   25.6306  -35.0875  -17.3787 O   0  0  0  0  0  0  0  0  0  0  0  0
   26.4601  -33.7376  -19.0066 O   0  0  0  0  0  0  0  0  0  0  0  0
  2  4  1  0
  2  1  1  1
  2  3  1  0
  5  6  1  6
  5  4  1  0
  7  5  1  0
  8  7  2  0
  9 10  1  0
 10 11  1  0
 11 13  1  0
 11 12  1  6
 13 14  1  1
 14  7  1  0
 15 13  1  0
 15 16  2  0
 18 17  1  0
 19 20  1  0
 19 18  1  0
 21 20  1  6
 21 22  1  0
 22 15  1  0
 23 21  1  0
 24 23  1  0
 25 23  2  0
M  END
$$$$
