PNL.pdb
     RDKit          3D

 24 24  0  0  1  0  0  0  0  0999 V2000
   26.6034  -21.7379  -15.2815 N   0  0  0  0  0  0  0  0  0  0  0  0
   27.1343  -21.6668  -16.6641 C   0  0  0  0  0  0  0  0  0  0  0  0
   27.0972  -20.1643  -16.8499 C   0  0  0  0  0  0  0  0  0  0  0  0
   27.7115  -19.6721  -15.5624 C   0  0  0  0  0  0  0  0  0  0  0  0
   27.4609  -20.7714  -14.5893 C   0  0  1  0  0  0  0  0  0  0  0  0
   26.7792  -20.3633  -13.3500 C   0  0  0  0  0  0  0  0  0  0  0  0
   27.2322  -19.3389  -12.7462 O   0  0  0  0  0  0  0  0  0  0  0  0
   22.4215  -19.1031  -12.9449 N   0  0  0  0  0  0  0  0  0  0  0  0
   22.7630  -20.4797  -12.8471 C   0  0  0  0  0  0  0  0  0  0  0  0
   22.4203  -21.2658  -13.7659 O   0  0  0  0  0  0  0  0  0  0  0  0
   23.5083  -20.9407  -11.6712 C   0  0  0  0  0  0  0  0  0  0  0  0
   24.9310  -20.4262  -11.7334 C   0  0  2  0  0  0  0  0  0  0  0  0
   25.6685  -21.0481  -12.8156 N   0  0  0  0  0  0  0  0  0  0  0  0
   25.5741  -20.8307  -10.4466 C   0  0  0  0  0  0  0  0  0  0  0  0
   25.8165  -22.0449  -10.2720 O   0  0  0  0  0  0  0  0  0  0  0  0
   29.0967  -20.5601   -6.5148 C   0  0  0  0  0  0  0  0  0  0  0  0
   27.9096  -19.5655   -6.2741 C   0  0  1  0  0  0  0  0  0  0  0  0
   28.5798  -18.3919   -5.6091 C   0  0  0  0  0  0  0  0  0  0  0  0
   27.2715  -19.3083   -7.5795 C   0  0  0  0  0  0  0  0  0  0  0  0
   26.4252  -20.3657   -8.1683 C   0  0  2  0  0  0  0  0  0  0  0  0
   25.8929  -19.8742   -9.4703 N   0  0  0  0  0  0  0  0  0  0  0  0
   25.2326  -20.8120   -7.4426 C   0  0  0  0  0  0  0  0  0  0  0  0
   24.1041  -20.2933   -7.5534 O   0  0  0  0  0  0  0  0  0  0  0  0
   25.2903  -21.8952   -6.5421 O   0  0  0  0  0  0  0  0  0  0  0  0
  1  5  1  0
  1  2  1  0
  3  2  1  0
  4  5  1  0
  4  3  1  0
  6  7  2  0
  5  6  1  1
  8  9  1  0
  9 11  1  0
  9 10  2  0
 12 11  1  1
 12 14  1  0
 12 13  1  0
 13  6  1  0
 14 21  1  0
 15 14  2  0
 17 16  1  6
 17 18  1  0
 20 19  1  1
 19 17  1  0
 20 22  1  0
 21 20  1  0
 22 23  2  0
 22 24  1  0
M  END
$$$$
