PNL.pdb
     RDKit          3D

 24 24  0  0  1  0  0  0  0  0999 V2000
   17.7735  -14.3221  -17.3072 N   0  0  0  0  0  0  0  0  0  0  0  0
   17.6081  -15.6322  -17.9816 C   0  0  0  0  0  0  0  0  0  0  0  0
   17.0061  -15.1483  -19.2842 C   0  0  0  0  0  0  0  0  0  0  0  0
   17.9125  -13.9958  -19.6414 C   0  0  0  0  0  0  0  0  0  0  0  0
   18.4758  -13.5504  -18.3367 C   0  0  1  0  0  0  0  0  0  0  0  0
   18.2963  -12.1205  -18.0359 C   0  0  0  0  0  0  0  0  0  0  0  0
   18.8557  -11.2862  -18.8171 O   0  0  0  0  0  0  0  0  0  0  0  0
   13.9549  -10.6836  -16.6438 N   0  0  0  0  0  0  0  0  0  0  0  0
   15.1038   -9.9277  -17.0040 C   0  0  0  0  0  0  0  0  0  0  0  0
   15.1508   -9.3799  -18.1342 O   0  0  0  0  0  0  0  0  0  0  0  0
   16.2031   -9.8108  -16.0403 C   0  0  0  0  0  0  0  0  0  0  0  0
   17.5047  -10.2192  -16.6974 C   0  0  2  0  0  0  0  0  0  0  0  0
   17.5462  -11.6481  -16.9395 N   0  0  0  0  0  0  0  0  0  0  0  0
   18.5843   -9.8870  -15.7192 C   0  0  0  0  0  0  0  0  0  0  0  0
   18.7099  -10.6235  -14.7164 O   0  0  0  0  0  0  0  0  0  0  0  0
   22.6157  -10.2065  -13.1903 C   0  0  0  0  0  0  0  0  0  0  0  0
   22.8846   -9.6287  -14.6221 C   0  0  1  0  0  0  0  0  0  0  0  0
   23.9699  -10.5285  -15.1527 C   0  0  0  0  0  0  0  0  0  0  0  0
   21.6036   -9.6372  -15.3545 C   0  0  0  0  0  0  0  0  0  0  0  0
   20.5899   -8.6205  -15.0086 C   0  0  2  0  0  0  0  0  0  0  0  0
   19.4263   -8.7831  -15.9250 N   0  0  0  0  0  0  0  0  0  0  0  0
   20.9356   -7.2007  -15.1220 C   0  0  0  0  0  0  0  0  0  0  0  0
   20.7510   -6.5090  -16.1428 O   0  0  0  0  0  0  0  0  0  0  0  0
   21.5191   -6.5044  -14.0439 O   0  0  0  0  0  0  0  0  0  0  0  0
  1  5  1  0
  1  2  1  0
  3  2  1  0
  4  5  1  0
  4  3  1  0
  6  7  2  0
  5  6  1  1
  8  9  1  0
  9 11  1  0
  9 10  2  0
 12 11  1  1
 12 14  1  0
 12 13  1  0
 13  6  1  0
 14 21  1  0
 15 14  2  0
 17 16  1  1
 17 18  1  0
 20 19  1  6
 19 17  1  0
 20 22  1  0
 21 20  1  0
 22 23  2  0
 22 24  1  0
M  END
$$$$
