PNL.pdb
     RDKit          3D

 24 24  0  0  1  0  0  0  0  0999 V2000
   28.1254  -19.3825  -18.6894 N   0  0  0  0  0  0  0  0  0  0  0  0
   29.2498  -19.1719  -19.6326 C   0  0  0  0  0  0  0  0  0  0  0  0
   29.2001  -17.6609  -19.7193 C   0  0  0  0  0  0  0  0  0  0  0  0
   29.0818  -17.2654  -18.2678 C   0  0  0  0  0  0  0  0  0  0  0  0
   28.4724  -18.4542  -17.6093 C   0  0  1  0  0  0  0  0  0  0  0  0
   27.2511  -18.1797  -16.8345 C   0  0  0  0  0  0  0  0  0  0  0  0
   27.3208  -17.2812  -15.9361 O   0  0  0  0  0  0  0  0  0  0  0  0
   23.6511  -17.1973  -19.2948 N   0  0  0  0  0  0  0  0  0  0  0  0
   23.7017  -17.1121  -17.8766 C   0  0  0  0  0  0  0  0  0  0  0  0
   23.7975  -15.9841  -17.3307 O   0  0  0  0  0  0  0  0  0  0  0  0
   23.6402  -18.3496  -17.0920 C   0  0  0  0  0  0  0  0  0  0  0  0
   24.8863  -18.4782  -16.2413 C   0  0  2  0  0  0  0  0  0  0  0  0
   26.0331  -18.8589  -17.0425 N   0  0  0  0  0  0  0  0  0  0  0  0
   24.6144  -19.5833  -15.2731 C   0  0  0  0  0  0  0  0  0  0  0  0
   24.4794  -20.7394  -15.7303 O   0  0  0  0  0  0  0  0  0  0  0  0
   26.3566  -22.2456  -11.1282 C   0  0  0  0  0  0  0  0  0  0  0  0
   25.2360  -21.2359  -10.7027 C   0  0  1  0  0  0  0  0  0  0  0  0
   25.6843  -20.7876   -9.3364 C   0  0  0  0  0  0  0  0  0  0  0  0
   25.1543  -20.1947  -11.7451 C   0  0  0  0  0  0  0  0  0  0  0  0
   24.4031  -20.4950  -12.9806 C   0  0  2  0  0  0  0  0  0  0  0  0
   24.5149  -19.3255  -13.8972 N   0  0  0  0  0  0  0  0  0  0  0  0
   22.9612  -20.7439  -12.8965 C   0  0  0  0  0  0  0  0  0  0  0  0
   22.0931  -19.8506  -12.8417 O   0  0  0  0  0  0  0  0  0  0  0  0
   22.4486  -22.0570  -12.8718 O   0  0  0  0  0  0  0  0  0  0  0  0
  1  5  1  0
  1  2  1  0
  3  2  1  0
  4  5  1  0
  4  3  1  0
  6  7  2  0
  5  6  1  6
  8  9  1  0
  9 11  1  0
  9 10  2  0
 12 11  1  6
 12 14  1  0
 12 13  1  0
 13  6  1  0
 14 21  1  0
 15 14  2  0
 17 16  1  6
 17 18  1  0
 20 19  1  1
 19 17  1  0
 20 22  1  0
 21 20  1  0
 22 23  2  0
 22 24  1  0
M  END
$$$$
