PNL.pdb
     RDKit          3D

 24 24  0  0  1  0  0  0  0  0999 V2000
   28.5846  -22.0147  -15.1703 N   0  0  0  0  0  0  0  0  0  0  0  0
   28.9371  -22.6903  -16.4422 C   0  0  0  0  0  0  0  0  0  0  0  0
   27.7536  -22.2465  -17.2764 C   0  0  0  0  0  0  0  0  0  0  0  0
   27.6828  -20.7719  -16.9637 C   0  0  0  0  0  0  0  0  0  0  0  0
   28.3290  -20.6458  -15.6278 C   0  0  1  0  0  0  0  0  0  0  0  0
   27.5169  -19.9675  -14.6042 C   0  0  0  0  0  0  0  0  0  0  0  0
   27.0952  -18.7981  -14.8759 O   0  0  0  0  0  0  0  0  0  0  0  0
   22.4926  -21.1463  -12.6052 N   0  0  0  0  0  0  0  0  0  0  0  0
   23.5136  -20.2034  -12.9049 C   0  0  0  0  0  0  0  0  0  0  0  0
   23.3283  -18.9895  -12.6373 O   0  0  0  0  0  0  0  0  0  0  0  0
   24.7568  -20.6800  -13.5199 C   0  0  0  0  0  0  0  0  0  0  0  0
   25.9450  -20.1755  -12.7283 C   0  0  2  0  0  0  0  0  0  0  0  0
   27.1951  -20.5488  -13.3606 N   0  0  0  0  0  0  0  0  0  0  0  0
   25.8786  -20.8592  -11.4013 C   0  0  0  0  0  0  0  0  0  0  0  0
   25.8782  -22.1096  -11.3886 O   0  0  0  0  0  0  0  0  0  0  0  0
   28.1924  -18.6109   -7.0045 C   0  0  0  0  0  0  0  0  0  0  0  0
   27.8033  -19.6029   -8.1538 C   0  0  1  0  0  0  0  0  0  0  0  0
   28.9009  -20.6330   -8.0989 C   0  0  0  0  0  0  0  0  0  0  0  0
   26.4341  -20.0825   -7.8847 C   0  0  0  0  0  0  0  0  0  0  0  0
   25.7477  -20.8701   -8.9286 C   0  0  2  0  0  0  0  0  0  0  0  0
   25.8190  -20.1164  -10.2120 N   0  0  0  0  0  0  0  0  0  0  0  0
   24.3221  -21.1725   -8.7728 C   0  0  0  0  0  0  0  0  0  0  0  0
   23.4163  -20.6837   -9.4766 O   0  0  0  0  0  0  0  0  0  0  0  0
   23.8712  -22.0679   -7.7816 O   0  0  0  0  0  0  0  0  0  0  0  0
  1  5  1  0
  1  2  1  0
  3  2  1  0
  4  5  1  0
  4  3  1  0
  6  7  2  0
  5  6  1  1
  8  9  1  0
  9 11  1  0
  9 10  2  0
 12 11  1  6
 12 14  1  0
 12 13  1  0
 13  6  1  0
 14 21  1  0
 15 14  2  0
 17 16  1  1
 17 18  1  0
 20 19  1  1
 19 17  1  0
 20 22  1  0
 21 20  1  0
 22 23  2  0
 22 24  1  0
M  END
$$$$
