PNL.pdb
     RDKit          3D

 24 24  0  0  1  0  0  0  0  0999 V2000
   27.0685  -19.8591  -14.4487 N   0  0  0  0  0  0  0  0  0  0  0  0
   28.2874  -20.6369  -14.1205 C   0  0  0  0  0  0  0  0  0  0  0  0
   28.5362  -21.2619  -15.4773 C   0  0  0  0  0  0  0  0  0  0  0  0
   28.3749  -20.0809  -16.4028 C   0  0  0  0  0  0  0  0  0  0  0  0
   27.4957  -19.1411  -15.6531 C   0  0  1  0  0  0  0  0  0  0  0  0
   26.2893  -18.7056  -16.3759 C   0  0  0  0  0  0  0  0  0  0  0  0
   26.4258  -18.3929  -17.6017 O   0  0  0  0  0  0  0  0  0  0  0  0
   22.9178  -20.4594  -18.9907 N   0  0  0  0  0  0  0  0  0  0  0  0
   23.4351  -21.1774  -17.8780 C   0  0  0  0  0  0  0  0  0  0  0  0
   22.9174  -22.2779  -17.5609 O   0  0  0  0  0  0  0  0  0  0  0  0
   24.5621  -20.6080  -17.1321 C   0  0  0  0  0  0  0  0  0  0  0  0
   24.0458  -19.6582  -16.0718 C   0  0  2  0  0  0  0  0  0  0  0  0
   25.0157  -18.6217  -15.7767 N   0  0  0  0  0  0  0  0  0  0  0  0
   23.8591  -20.4784  -14.8368 C   0  0  0  0  0  0  0  0  0  0  0  0
   24.6013  -21.4724  -14.6788 O   0  0  0  0  0  0  0  0  0  0  0  0
   23.6684  -21.8898  -10.1844 C   0  0  0  0  0  0  0  0  0  0  0  0
   24.1628  -20.4098  -10.3313 C   0  0  1  0  0  0  0  0  0  0  0  0
   25.5944  -20.4829   -9.8689 C   0  0  0  0  0  0  0  0  0  0  0  0
   23.9418  -20.0026  -11.7323 C   0  0  0  0  0  0  0  0  0  0  0  0
   22.9744  -20.7698  -12.5425 C   0  0  2  0  0  0  0  0  0  0  0  0
   22.8812  -20.1388  -13.8892 N   0  0  0  0  0  0  0  0  0  0  0  0
   21.5815  -20.8597  -12.0952 C   0  0  0  0  0  0  0  0  0  0  0  0
   21.1606  -21.6845  -11.2602 O   0  0  0  0  0  0  0  0  0  0  0  0
   20.5963  -19.9867  -12.5999 O   0  0  0  0  0  0  0  0  0  0  0  0
  1  5  1  0
  1  2  1  0
  3  2  1  0
  4  5  1  0
  4  3  1  0
  6  7  2  0
  5  6  1  6
  8  9  1  0
  9 11  1  0
  9 10  2  0
 12 11  1  6
 12 14  1  0
 12 13  1  0
 13  6  1  0
 14 21  1  0
 15 14  2  0
 17 16  1  6
 17 18  1  0
 20 19  1  1
 19 17  1  0
 20 22  1  0
 21 20  1  0
 22 23  2  0
 22 24  1  0
M  END
$$$$
