PNL.pdb
     RDKit          3D

 24 24  0  0  1  0  0  0  0  0999 V2000
   28.3763  -19.4504  -14.6301 N   0  0  0  0  0  0  0  0  0  0  0  0
   28.9559  -18.9546  -15.9016 C   0  0  0  0  0  0  0  0  0  0  0  0
   27.6709  -18.7336  -16.6718 C   0  0  0  0  0  0  0  0  0  0  0  0
   26.8184  -18.0065  -15.6609 C   0  0  0  0  0  0  0  0  0  0  0  0
   27.3764  -18.4178  -14.3427 C   0  0  1  0  0  0  0  0  0  0  0  0
   26.3966  -18.9823  -13.4000 C   0  0  0  0  0  0  0  0  0  0  0  0
   25.3479  -18.2990  -13.1711 O   0  0  0  0  0  0  0  0  0  0  0  0
   25.5367  -22.8595  -14.6689 N   0  0  0  0  0  0  0  0  0  0  0  0
   24.7612  -22.0186  -13.8248 C   0  0  0  0  0  0  0  0  0  0  0  0
   23.8959  -21.2634  -14.3352 O   0  0  0  0  0  0  0  0  0  0  0  0
   24.9970  -22.0594  -12.3778 C   0  0  0  0  0  0  0  0  0  0  0  0
   25.5022  -20.7129  -11.9039 C   0  0  2  0  0  0  0  0  0  0  0  0
   26.5703  -20.2231  -12.7532 N   0  0  0  0  0  0  0  0  0  0  0  0
   26.0670  -20.9396  -10.5392 C   0  0  0  0  0  0  0  0  0  0  0  0
   27.0650  -21.6862  -10.4375 O   0  0  0  0  0  0  0  0  0  0  0  0
   28.3849  -18.0988   -6.5974 C   0  0  0  0  0  0  0  0  0  0  0  0
   28.0434  -19.3745   -7.4413 C   0  0  1  0  0  0  0  0  0  0  0  0
   28.8640  -20.4496   -6.7782 C   0  0  0  0  0  0  0  0  0  0  0  0
   26.5786  -19.5500   -7.4120 C   0  0  0  0  0  0  0  0  0  0  0  0
   26.0000  -20.7375   -8.0722 C   0  0  2  0  0  0  0  0  0  0  0  0
   25.4916  -20.3316   -9.4128 N   0  0  0  0  0  0  0  0  0  0  0  0
   24.8591  -21.4152   -7.4498 C   0  0  0  0  0  0  0  0  0  0  0  0
   24.9498  -22.2343   -6.5142 O   0  0  0  0  0  0  0  0  0  0  0  0
   23.5408  -21.1731   -7.8868 O   0  0  0  0  0  0  0  0  0  0  0  0
  1  5  1  0
  1  2  1  0
  3  2  1  0
  4  5  1  0
  4  3  1  0
  6  7  2  0
  5  6  1  1
  8  9  1  0
  9 11  1  0
  9 10  2  0
 12 11  1  6
 12 14  1  0
 12 13  1  0
 13  6  1  0
 14 21  1  0
 15 14  2  0
 17 16  1  1
 17 18  1  0
 20 19  1  1
 19 17  1  0
 20 22  1  0
 21 20  1  0
 22 23  2  0
 22 24  1  0
M  END
$$$$
