PNL.pdb
     RDKit          3D

 24 24  0  0  1  0  0  0  0  0999 V2000
   18.2095  -15.2649  -16.9900 N   0  0  0  0  0  0  0  0  0  0  0  0
   18.0479  -16.6365  -17.5295 C   0  0  0  0  0  0  0  0  0  0  0  0
   18.0071  -16.3019  -19.0058 C   0  0  0  0  0  0  0  0  0  0  0  0
   19.1693  -15.3494  -19.1455 C   0  0  0  0  0  0  0  0  0  0  0  0
   19.3379  -14.7700  -17.7839 C   0  0  1  0  0  0  0  0  0  0  0  0
   19.3247  -13.2989  -17.7266 C   0  0  0  0  0  0  0  0  0  0  0  0
   20.3664  -12.6908  -18.1321 O   0  0  0  0  0  0  0  0  0  0  0  0
   16.8213  -11.3222  -19.5667 N   0  0  0  0  0  0  0  0  0  0  0  0
   16.1632  -10.6966  -18.4727 C   0  0  0  0  0  0  0  0  0  0  0  0
   14.9666  -10.3338  -18.5999 O   0  0  0  0  0  0  0  0  0  0  0  0
   16.9056  -10.4936  -17.2243 C   0  0  0  0  0  0  0  0  0  0  0  0
   18.2849  -11.1068  -17.3441 C   0  0  2  0  0  0  0  0  0  0  0  0
   18.2279  -12.5524  -17.2495 N   0  0  0  0  0  0  0  0  0  0  0  0
   19.0661  -10.6000  -16.1755 C   0  0  0  0  0  0  0  0  0  0  0  0
   18.6929  -10.9414  -15.0319 O   0  0  0  0  0  0  0  0  0  0  0  0
   24.5338  -10.0934  -14.4614 C   0  0  0  0  0  0  0  0  0  0  0  0
   23.0627  -10.3062  -13.9645 C   0  0  1  0  0  0  0  0  0  0  0  0
   22.8640   -9.1697  -12.9962 C   0  0  0  0  0  0  0  0  0  0  0  0
   22.1882  -10.3211  -15.1530 C   0  0  0  0  0  0  0  0  0  0  0  0
   21.0051   -9.4372  -15.1657 C   0  0  2  0  0  0  0  0  0  0  0  0
   20.1812   -9.7684  -16.3622 N   0  0  0  0  0  0  0  0  0  0  0  0
   21.1985   -7.9873  -15.2577 C   0  0  0  0  0  0  0  0  0  0  0  0
   21.3473   -7.3618  -16.3261 O   0  0  0  0  0  0  0  0  0  0  0  0
   21.2287   -7.1813  -14.1014 O   0  0  0  0  0  0  0  0  0  0  0  0
  1  5  1  0
  1  2  1  0
  3  2  1  0
  4  5  1  0
  4  3  1  0
  6  7  2  0
  5  6  1  6
  8  9  1  0
  9 11  1  0
  9 10  2  0
 12 11  1  1
 12 14  1  0
 12 13  1  0
 13  6  1  0
 14 21  1  0
 15 14  2  0
 17 16  1  6
 17 18  1  0
 20 19  1  6
 19 17  1  0
 20 22  1  0
 21 20  1  0
 22 23  2  0
 22 24  1  0
M  END
$$$$
