PNL.pdb
     RDKit          3D

 24 24  0  0  1  0  0  0  0  0999 V2000
   27.4086  -21.1228  -14.9864 N   0  0  0  0  0  0  0  0  0  0  0  0
   27.9292  -20.9282  -16.3610 C   0  0  0  0  0  0  0  0  0  0  0  0
   27.2475  -19.6150  -16.6836 C   0  0  0  0  0  0  0  0  0  0  0  0
   27.5126  -18.8074  -15.4366 C   0  0  0  0  0  0  0  0  0  0  0  0
   27.7165  -19.8283  -14.3715 C   0  0  1  0  0  0  0  0  0  0  0  0
   26.8583  -19.6716  -13.1857 C   0  0  0  0  0  0  0  0  0  0  0  0
   26.8242  -18.5231  -12.6390 O   0  0  0  0  0  0  0  0  0  0  0  0
   22.3360  -19.1278  -12.6796 N   0  0  0  0  0  0  0  0  0  0  0  0
   23.0611  -20.2922  -13.0531 C   0  0  0  0  0  0  0  0  0  0  0  0
   23.0949  -20.6350  -14.2619 O   0  0  0  0  0  0  0  0  0  0  0  0
   23.7499  -21.0602  -12.0107 C   0  0  0  0  0  0  0  0  0  0  0  0
   25.0658  -20.3931  -11.6694 C   0  0  2  0  0  0  0  0  0  0  0  0
   26.0897  -20.7212  -12.6420 N   0  0  0  0  0  0  0  0  0  0  0  0
   25.4861  -20.9572  -10.3511 C   0  0  0  0  0  0  0  0  0  0  0  0
   25.8850  -22.1420  -10.3239 O   0  0  0  0  0  0  0  0  0  0  0  0
   27.9997  -18.2745   -6.2046 C   0  0  0  0  0  0  0  0  0  0  0  0
   27.6578  -19.3803   -7.2613 C   0  0  1  0  0  0  0  0  0  0  0  0
   28.7893  -20.3619   -7.1033 C   0  0  0  0  0  0  0  0  0  0  0  0
   26.3028  -19.8811   -6.9604 C   0  0  0  0  0  0  0  0  0  0  0  0
   25.6934  -20.8577   -7.8856 C   0  0  2  0  0  0  0  0  0  0  0  0
   25.4324  -20.1774   -9.1854 N   0  0  0  0  0  0  0  0  0  0  0  0
   24.4052  -21.4635   -7.5368 C   0  0  0  0  0  0  0  0  0  0  0  0
   24.2684  -22.4395   -6.7728 O   0  0  0  0  0  0  0  0  0  0  0  0
   23.1974  -20.9612   -8.0626 O   0  0  0  0  0  0  0  0  0  0  0  0
  1  5  1  0
  1  2  1  0
  3  2  1  0
  4  5  1  0
  4  3  1  0
  6  7  2  0
  5  6  1  1
  8  9  1  0
  9 11  1  0
  9 10  2  0
 12 11  1  6
 12 14  1  0
 12 13  1  0
 13  6  1  0
 14 21  1  0
 15 14  2  0
 17 16  1  1
 17 18  1  0
 20 19  1  1
 19 17  1  0
 20 22  1  0
 21 20  1  0
 22 23  2  0
 22 24  1  0
M  END
$$$$
