RVK.pdb
     RDKit          3D

 28 27  0  0  1  0  0  0  0  0999 V2000
   19.2415  -25.0221   -7.8445 N   0  0  0  0  0  0  0  0  0  0  0  0
   18.0421  -24.4924   -8.4291 C   0  0  0  0  0  0  0  0  0  0  0  0
   16.9611  -25.1723   -8.2838 N   0  0  0  0  0  0  0  0  0  0  0  0
   18.1035  -23.2654   -9.1279 N   0  0  0  0  0  0  0  0  0  0  0  0
   19.3225  -22.8415   -9.7510 C   0  0  0  0  0  0  0  0  0  0  0  0
   19.1997  -21.5243  -10.4574 C   0  0  0  0  0  0  0  0  0  0  0  0
   20.4050  -21.0569  -11.1839 C   0  0  0  0  0  0  0  0  0  0  0  0
   21.7210  -21.2566  -10.4807 C   0  0  2  0  0  0  0  0  0  0  0  0
   21.7608  -20.6748   -9.1806 N   0  0  0  0  0  0  0  0  0  0  0  0
   22.7680  -20.6673  -11.3840 C   0  0  0  0  0  0  0  0  0  0  0  0
   23.0154  -19.4311  -11.3305 O   0  0  0  0  0  0  0  0  0  0  0  0
   16.0688  -24.8888   -8.7386 C   0  0  0  0  0  0  0  0  0  0  0  0
   27.0551  -21.2369  -13.5602 C   0  0  2  0  0  0  0  0  0  0  0  0
   25.7591  -21.7605  -13.0482 C   0  0  0  0  0  0  0  0  0  0  0  0
   25.4190  -23.1342  -13.6033 C   0  0  2  0  0  0  0  0  0  0  0  0
   24.6040  -20.8157  -13.1135 N   0  0  0  0  0  0  0  0  0  0  0  0
   23.5169  -21.4213  -12.3167 C   0  0  0  0  0  0  0  0  0  0  0  0
   24.1318  -20.4137  -14.4280 O   0  0  0  0  0  0  0  0  0  0  0  0
   23.3703  -21.2406  -15.0500 N   0  0  0  0  0  0  0  0  0  0  0  0
   24.3909  -19.2269  -15.1330 C   0  0  1  0  0  0  0  0  0  0  0  0
   23.8694  -18.9545  -16.4603 C   0  0  0  0  0  0  0  0  0  0  0  0
   23.5968  -17.4843  -16.6533 C   0  0  0  0  0  0  0  0  0  0  0  0
   23.1060  -17.1391  -18.0410 C   0  0  0  0  0  0  0  0  0  0  0  0
   22.9673  -15.6088  -18.1002 C   0  0  0  0  0  0  0  0  0  0  0  0
   22.4369  -15.2870  -19.4775 N   0  0  0  0  0  0  0  0  0  0  0  0
   22.3361  -13.8584  -19.7014 C   0  0  0  0  0  0  0  0  0  0  0  0
   24.7142  -19.5571  -17.5007 O   0  0  0  0  0  0  0  0  0  0  0  0
   25.9361  -19.7201  -17.4664 O   0  0  0  0  0  0  0  0  0  0  0  0
  2  1  1  0
  2  3  2  0
  4  2  1  0
  5  4  1  0
  6  5  1  0
  7  8  1  0
  7  6  1  0
  8  9  1  1
 10  8  1  0
 11 10  2  0
 13 12  1  1
 13 14  1  0
 15 16  1  6
 15 13  1  0
 16 10  1  0
 17 15  1  0
 18 17  2  0
 19 17  1  0
 20 26  1  0
 20 19  1  0
 21 22  1  0
 20 21  1  6
 23 24  1  0
 23 22  1  0
 25 24  1  0
 26 28  1  0
 27 26  2  0
M  END
$$$$
