RVK.pdb
     RDKit          3D

 28 27  0  0  1  0  0  0  0  0999 V2000
   27.2316  -23.8934  -15.8698 N   0  0  0  0  0  0  0  0  0  0  0  0
   25.9259  -24.4781  -15.9896 C   0  0  0  0  0  0  0  0  0  0  0  0
   25.7951  -25.7114  -15.6522 N   0  0  0  0  0  0  0  0  0  0  0  0
   24.8592  -23.6829  -16.4664 N   0  0  0  0  0  0  0  0  0  0  0  0
   25.0409  -22.2795  -16.6934 C   0  0  0  0  0  0  0  0  0  0  0  0
   25.0273  -21.4688  -15.4317 C   0  0  0  0  0  0  0  0  0  0  0  0
   23.7275  -21.3833  -14.7233 C   0  0  0  0  0  0  0  0  0  0  0  0
   22.7154  -20.4348  -15.3083 C   0  0  2  0  0  0  0  0  0  0  0  0
   23.2461  -19.1411  -15.5822 N   0  0  0  0  0  0  0  0  0  0  0  0
   21.5848  -20.3724  -14.3198 C   0  0  0  0  0  0  0  0  0  0  0  0
   21.7053  -19.6735  -13.2761 O   0  0  0  0  0  0  0  0  0  0  0  0
   24.9198  -26.2423  -15.8404 C   0  0  0  0  0  0  0  0  0  0  0  0
   17.6415  -20.9921  -15.5099 C   0  0  1  0  0  0  0  0  0  0  0  0
   18.1346  -20.2238  -14.3341 C   0  0  0  0  0  0  0  0  0  0  0  0
   18.4322  -18.7700  -14.6640 C   0  0  1  0  0  0  0  0  0  0  0  0
   19.2301  -20.8675  -13.5489 N   0  0  0  0  0  0  0  0  0  0  0  0
   20.3605  -21.0613  -14.4806 C   0  0  0  0  0  0  0  0  0  0  0  0
   18.9201  -22.0951  -12.8352 O   0  0  0  0  0  0  0  0  0  0  0  0
   19.1664  -23.1994  -13.4439 N   0  0  0  0  0  0  0  0  0  0  0  0
   18.3798  -22.2546  -11.5487 C   0  0  1  0  0  0  0  0  0  0  0  0
   18.0799  -23.5480  -10.9613 C   0  0  0  0  0  0  0  0  0  0  0  0
   17.8685  -23.4405   -9.4724 C   0  0  0  0  0  0  0  0  0  0  0  0
   17.9567  -24.7676   -8.7534 C   0  0  0  0  0  0  0  0  0  0  0  0
   17.7114  -24.4869   -7.2616 C   0  0  0  0  0  0  0  0  0  0  0  0
   17.7220  -25.8313   -6.5728 N   0  0  0  0  0  0  0  0  0  0  0  0
   17.5935  -25.7064   -5.1343 C   0  0  0  0  0  0  0  0  0  0  0  0
   16.9918  -24.2232  -11.6819 O   0  0  0  0  0  0  0  0  0  0  0  0
   15.9809  -23.7040  -12.1610 O   0  0  0  0  0  0  0  0  0  0  0  0
  2  1  1  0
  2  3  2  0
  4  2  1  0
  5  4  1  0
  6  5  1  0
  7  8  1  0
  7  6  1  0
  8  9  1  1
 10  8  1  0
 11 10  2  0
 13 12  1  1
 13 14  1  0
 15 16  1  6
 15 13  1  0
 16 10  1  0
 17 15  1  0
 18 17  2  0
 19 17  1  0
 20 26  1  0
 20 19  1  0
 21 22  1  0
 20 21  1  6
 23 24  1  0
 23 22  1  0
 25 24  1  0
 26 28  1  0
 27 26  2  0
M  END
$$$$
