RVK.pdb
     RDKit          3D

 28 27  0  0  1  0  0  0  0  0999 V2000
   22.8194  -16.4497  -21.1598 N   0  0  0  0  0  0  0  0  0  0  0  0
   21.6293  -17.2526  -21.1516 C   0  0  0  0  0  0  0  0  0  0  0  0
   21.4887  -18.1144  -22.0947 N   0  0  0  0  0  0  0  0  0  0  0  0
   20.6800  -17.0617  -20.1220 N   0  0  0  0  0  0  0  0  0  0  0  0
   20.9836  -16.2291  -18.9958 C   0  0  0  0  0  0  0  0  0  0  0  0
   20.9923  -14.7661  -19.3259 C   0  0  0  0  0  0  0  0  0  0  0  0
   21.2140  -13.8405  -18.1889 C   0  0  0  0  0  0  0  0  0  0  0  0
   22.4922  -14.0331  -17.4174 C   0  0  2  0  0  0  0  0  0  0  0  0
   22.5399  -15.2643  -16.7017 N   0  0  0  0  0  0  0  0  0  0  0  0
   22.6030  -12.8513  -16.4953 C   0  0  0  0  0  0  0  0  0  0  0  0
   21.8418  -12.7679  -15.4923 O   0  0  0  0  0  0  0  0  0  0  0  0
   20.6516  -18.7300  -22.1557 C   0  0  0  0  0  0  0  0  0  0  0  0
   26.0010  -10.0775  -16.5387 C   0  0  1  0  0  0  0  0  0  0  0  0
   25.2141  -10.6739  -15.4247 C   0  0  0  0  0  0  0  0  0  0  0  0
   25.8056  -11.9802  -14.9200 C   0  0  1  0  0  0  0  0  0  0  0  0
   23.7391  -10.7613  -15.6436 N   0  0  0  0  0  0  0  0  0  0  0  0
   23.5257  -11.7954  -16.6773 C   0  0  0  0  0  0  0  0  0  0  0  0
   23.0296   -9.5358  -15.9708 O   0  0  0  0  0  0  0  0  0  0  0  0
   23.2096   -9.0569  -17.1494 N   0  0  0  0  0  0  0  0  0  0  0  0
   22.1558   -8.7822  -15.1702 C   0  0  1  0  0  0  0  0  0  0  0  0
   21.4480   -7.6069  -15.6450 C   0  0  0  0  0  0  0  0  0  0  0  0
   19.9652   -7.8607  -15.7454 C   0  0  0  0  0  0  0  0  0  0  0  0
   19.5914   -8.8218  -16.8510 C   0  0  0  0  0  0  0  0  0  0  0  0
   18.0633   -8.9869  -16.8045 C   0  0  0  0  0  0  0  0  0  0  0  0
   17.7240  -10.0543  -17.8181 N   0  0  0  0  0  0  0  0  0  0  0  0
   16.3155  -10.3964  -17.7969 C   0  0  0  0  0  0  0  0  0  0  0  0
   21.8085   -6.4144  -14.8657 O   0  0  0  0  0  0  0  0  0  0  0  0
   22.4684   -6.3762  -13.8247 O   0  0  0  0  0  0  0  0  0  0  0  0
  2  1  1  0
  2  3  2  0
  4  2  1  0
  5  4  1  0
  6  5  1  0
  7  8  1  0
  7  6  1  0
  8  9  1  1
 10  8  1  0
 11 10  2  0
 13 12  1  1
 13 14  1  0
 15 16  1  6
 15 13  1  0
 16 10  1  0
 17 15  1  0
 18 17  2  0
 19 17  1  0
 20 26  1  0
 20 19  1  0
 21 22  1  0
 20 21  1  6
 23 24  1  0
 23 22  1  0
 25 24  1  0
 26 28  1  0
 27 26  2  0
M  END
$$$$
