RVK.pdb
     RDKit          3D

 28 27  0  0  1  0  0  0  0  0999 V2000
   19.9416  -23.2350  -15.5047 N   0  0  0  0  0  0  0  0  0  0  0  0
   19.7692  -23.5692  -14.1192 C   0  0  0  0  0  0  0  0  0  0  0  0
   18.9323  -24.5020  -13.8337 N   0  0  0  0  0  0  0  0  0  0  0  0
   20.5164  -22.8674  -13.1461 N   0  0  0  0  0  0  0  0  0  0  0  0
   21.3724  -21.7829  -13.5266 C   0  0  0  0  0  0  0  0  0  0  0  0
   21.9483  -21.9375  -14.9027 C   0  0  0  0  0  0  0  0  0  0  0  0
   22.7715  -20.8080  -15.3978 C   0  0  0  0  0  0  0  0  0  0  0  0
   23.9745  -20.4507  -14.5662 C   0  0  2  0  0  0  0  0  0  0  0  0
   23.9131  -20.9590  -13.2365 N   0  0  0  0  0  0  0  0  0  0  0  0
   24.0599  -18.9501  -14.5828 C   0  0  0  0  0  0  0  0  0  0  0  0
   23.3014  -18.2729  -13.8356 O   0  0  0  0  0  0  0  0  0  0  0  0
   18.6828  -24.7337  -12.8501 C   0  0  0  0  0  0  0  0  0  0  0  0
   26.9608  -15.3054  -14.5067 C   0  0  1  0  0  0  0  0  0  0  0  0
   26.5108  -16.4172  -15.3882 C   0  0  0  0  0  0  0  0  0  0  0  0
   27.0138  -16.2767  -16.8159 C   0  0  2  0  0  0  0  0  0  0  0  0
   25.0560  -16.7499  -15.3251 N   0  0  0  0  0  0  0  0  0  0  0  0
   24.9554  -18.2222  -15.3999 C   0  0  0  0  0  0  0  0  0  0  0  0
   24.1735  -16.1125  -16.2881 O   0  0  0  0  0  0  0  0  0  0  0  0
   23.6124  -16.8756  -17.1562 N   0  0  0  0  0  0  0  0  0  0  0  0
   23.8357  -14.7548  -16.4106 C   0  0  1  0  0  0  0  0  0  0  0  0
   22.9031  -14.2484  -17.4014 C   0  0  0  0  0  0  0  0  0  0  0  0
   21.4766  -14.3763  -16.9303 C   0  0  0  0  0  0  0  0  0  0  0  0
   20.4617  -13.8970  -17.9433 C   0  0  0  0  0  0  0  0  0  0  0  0
   19.0803  -13.9934  -17.2748 C   0  0  0  0  0  0  0  0  0  0  0  0
   18.0768  -13.5597  -18.3172 N   0  0  0  0  0  0  0  0  0  0  0  0
   16.7141  -13.6510  -17.8315 C   0  0  0  0  0  0  0  0  0  0  0  0
   23.2768  -12.8989  -17.8469 O   0  0  0  0  0  0  0  0  0  0  0  0
   23.7096  -11.9777  -17.1506 O   0  0  0  0  0  0  0  0  0  0  0  0
  2  1  1  0
  2  3  2  0
  4  2  1  0
  5  4  1  0
  6  5  1  0
  7  8  1  0
  7  6  1  0
  8  9  1  1
 10  8  1  0
 11 10  2  0
 13 12  1  1
 13 14  1  0
 15 16  1  6
 15 13  1  0
 16 10  1  0
 17 15  1  0
 18 17  2  0
 19 17  1  0
 20 26  1  0
 20 19  1  0
 21 22  1  0
 20 21  1  6
 23 24  1  0
 23 22  1  0
 25 24  1  0
 26 28  1  0
 27 26  2  0
M  END
$$$$
