RVK.pdb
     RDKit          3D

 28 27  0  0  1  0  0  0  0  0999 V2000
   13.4765  -26.5946   -9.1765 N   0  0  0  0  0  0  0  0  0  0  0  0
   13.4257  -25.2596   -9.7019 C   0  0  0  0  0  0  0  0  0  0  0  0
   12.3129  -24.8635  -10.2085 N   0  0  0  0  0  0  0  0  0  0  0  0
   14.5847  -24.4531   -9.6393 N   0  0  0  0  0  0  0  0  0  0  0  0
   15.8442  -25.0156   -9.2506 C   0  0  0  0  0  0  0  0  0  0  0  0
   15.9285  -25.3232   -7.7852 C   0  0  0  0  0  0  0  0  0  0  0  0
   17.2285  -25.8468   -7.3006 C   0  0  0  0  0  0  0  0  0  0  0  0
   17.9887  -24.9579   -6.3529 C   0  0  2  0  0  0  0  0  0  0  0  0
   19.1379  -24.3560   -6.9422 N   0  0  0  0  0  0  0  0  0  0  0  0
   18.3558  -25.8209   -5.1783 C   0  0  0  0  0  0  0  0  0  0  0  0
   19.5480  -26.2094   -5.0367 O   0  0  0  0  0  0  0  0  0  0  0  0
   12.1954  -23.9034  -10.5929 C   0  0  0  0  0  0  0  0  0  0  0  0
   17.4383  -26.9754   -0.5060 C   0  0  1  0  0  0  0  0  0  0  0  0
   17.3048  -26.2760   -1.8132 C   0  0  0  0  0  0  0  0  0  0  0  0
   15.8989  -25.7529   -2.0598 C   0  0  2  0  0  0  0  0  0  0  0  0
   17.8623  -26.9965   -2.9968 N   0  0  0  0  0  0  0  0  0  0  0  0
   17.4336  -26.2410   -4.1922 C   0  0  0  0  0  0  0  0  0  0  0  0
   17.5595  -28.4116   -3.1322 O   0  0  0  0  0  0  0  0  0  0  0  0
   16.3661  -28.7185   -3.4962 N   0  0  0  0  0  0  0  0  0  0  0  0
   18.3992  -29.5172   -2.9198 C   0  0  1  0  0  0  0  0  0  0  0  0
   17.9451  -30.8939   -2.9989 C   0  0  0  0  0  0  0  0  0  0  0  0
   19.0976  -31.8420   -3.2132 C   0  0  0  0  0  0  0  0  0  0  0  0
   18.6690  -33.2800   -3.3988 C   0  0  0  0  0  0  0  0  0  0  0  0
   19.9506  -34.1290   -3.4360 C   0  0  0  0  0  0  0  0  0  0  0  0
   19.5112  -35.5415   -3.7418 N   0  0  0  0  0  0  0  0  0  0  0  0
   20.6353  -36.4515   -3.8399 C   0  0  0  0  0  0  0  0  0  0  0  0
   17.0794  -31.2375   -1.8623 O   0  0  0  0  0  0  0  0  0  0  0  0
   15.9525  -31.7363   -1.9082 O   0  0  0  0  0  0  0  0  0  0  0  0
  2  1  1  0
  2  3  2  0
  4  2  1  0
  5  4  1  0
  6  5  1  0
  7  8  1  0
  7  6  1  0
  8  9  1  6
 10  8  1  0
 11 10  2  0
 13 12  1  1
 13 14  1  0
 15 16  1  6
 15 13  1  0
 16 10  1  0
 17 15  1  0
 18 17  2  0
 19 17  1  0
 20 26  1  0
 20 19  1  0
 21 22  1  0
 20 21  1  1
 23 24  1  0
 23 22  1  0
 25 24  1  0
 26 28  1  0
 27 26  2  0
M  END
$$$$
