RVK.pdb
     RDKit          3D

 28 27  0  0  1  0  0  0  0  0999 V2000
   27.0646  -18.3328  -20.1446 N   0  0  0  0  0  0  0  0  0  0  0  0
   26.4267  -17.3395  -19.3277 C   0  0  0  0  0  0  0  0  0  0  0  0
   25.4270  -16.7089  -19.8326 N   0  0  0  0  0  0  0  0  0  0  0  0
   26.9199  -17.1032  -18.0244 N   0  0  0  0  0  0  0  0  0  0  0  0
   27.9725  -17.9127  -17.4853 C   0  0  0  0  0  0  0  0  0  0  0  0
   27.4926  -19.2292  -16.9507 C   0  0  0  0  0  0  0  0  0  0  0  0
   27.1376  -19.2603  -15.5113 C   0  0  0  0  0  0  0  0  0  0  0  0
   27.7149  -20.3973  -14.7112 C   0  0  2  0  0  0  0  0  0  0  0  0
   28.4143  -21.3501  -15.5070 N   0  0  0  0  0  0  0  0  0  0  0  0
   26.5574  -21.0241  -13.9854 C   0  0  0  0  0  0  0  0  0  0  0  0
   25.9155  -21.9653  -14.5280 O   0  0  0  0  0  0  0  0  0  0  0  0
   24.9525  -15.9347  -19.3239 C   0  0  0  0  0  0  0  0  0  0  0  0
   24.9983  -19.8561   -9.9379 C   0  0  1  0  0  0  0  0  0  0  0  0
   25.3497  -21.1812  -10.5179 C   0  0  0  0  0  0  0  0  0  0  0  0
   26.7519  -21.6340  -10.1441 C   0  0  1  0  0  0  0  0  0  0  0  0
   25.0635  -21.3510  -11.9741 N   0  0  0  0  0  0  0  0  0  0  0  0
   26.1237  -20.6222  -12.7010 C   0  0  0  0  0  0  0  0  0  0  0  0
   23.7436  -20.9753  -12.4528 O   0  0  0  0  0  0  0  0  0  0  0  0
   23.5722  -19.7445  -12.7792 N   0  0  0  0  0  0  0  0  0  0  0  0
   22.6031  -21.7786  -12.6155 C   0  0  1  0  0  0  0  0  0  0  0  0
   21.3602  -21.2966  -13.1905 C   0  0  0  0  0  0  0  0  0  0  0  0
   20.7906  -22.2845  -14.1767 C   0  0  0  0  0  0  0  0  0  0  0  0
   19.9648  -21.6402  -15.2671 C   0  0  0  0  0  0  0  0  0  0  0  0
   19.2695  -22.7769  -16.0345 C   0  0  0  0  0  0  0  0  0  0  0  0
   18.5117  -22.1204  -17.1643 N   0  0  0  0  0  0  0  0  0  0  0  0
   17.8031  -23.0880  -17.9785 C   0  0  0  0  0  0  0  0  0  0  0  0
   20.4185  -20.8691  -12.1466 O   0  0  0  0  0  0  0  0  0  0  0  0
   20.4885  -21.1050  -10.9382 O   0  0  0  0  0  0  0  0  0  0  0  0
  2  1  1  0
  2  3  2  0
  4  2  1  0
  5  4  1  0
  6  5  1  0
  7  8  1  0
  7  6  1  0
  8  9  1  6
 10  8  1  0
 11 10  2  0
 13 12  1  1
 13 14  1  0
 15 16  1  1
 15 13  1  0
 16 10  1  0
 17 15  1  0
 18 17  2  0
 19 17  1  0
 20 26  1  0
 20 19  1  0
 21 22  1  0
 20 21  1  1
 23 24  1  0
 23 22  1  0
 25 24  1  0
 26 28  1  0
 27 26  2  0
M  END
$$$$
