RVK.pdb
     RDKit          3D

 28 27  0  0  1  0  0  0  0  0999 V2000
   18.8766  -24.5285   -6.7018 N   0  0  0  0  0  0  0  0  0  0  0  0
   18.0203  -25.0660   -7.7211 C   0  0  0  0  0  0  0  0  0  0  0  0
   16.9765  -25.7114   -7.3392 N   0  0  0  0  0  0  0  0  0  0  0  0
   18.3591  -24.8642   -9.0783 N   0  0  0  0  0  0  0  0  0  0  0  0
   19.5293  -24.1175   -9.4344 C   0  0  0  0  0  0  0  0  0  0  0  0
   19.2464  -22.6720   -9.7170 C   0  0  0  0  0  0  0  0  0  0  0  0
   20.4088  -21.8452  -10.1219 C   0  0  0  0  0  0  0  0  0  0  0  0
   21.4882  -21.6683   -9.0876 C   0  0  2  0  0  0  0  0  0  0  0  0
   21.0126  -21.1142   -7.8640 N   0  0  0  0  0  0  0  0  0  0  0  0
   22.5329  -20.7942   -9.7230 C   0  0  0  0  0  0  0  0  0  0  0  0
   22.2761  -19.5805   -9.9537 O   0  0  0  0  0  0  0  0  0  0  0  0
   16.3322  -26.1652   -8.0192 C   0  0  0  0  0  0  0  0  0  0  0  0
   26.8579  -21.7226   -9.9596 C   0  0  1  0  0  0  0  0  0  0  0  0
   26.0507  -20.4937   -9.7270 C   0  0  0  0  0  0  0  0  0  0  0  0
   25.7308  -20.2690   -8.2579 C   0  0  1  0  0  0  0  0  0  0  0  0
   24.8539  -20.3253  -10.6047 N   0  0  0  0  0  0  0  0  0  0  0  0
   23.8203  -21.2483  -10.0917 C   0  0  0  0  0  0  0  0  0  0  0  0
   25.0375  -20.4850  -12.0376 O   0  0  0  0  0  0  0  0  0  0  0  0
   24.8833  -21.6677  -12.5152 N   0  0  0  0  0  0  0  0  0  0  0  0
   25.3650  -19.5141  -12.9982 C   0  0  1  0  0  0  0  0  0  0  0  0
   25.7216  -19.8328  -14.3689 C   0  0  0  0  0  0  0  0  0  0  0  0
   26.0320  -18.5878  -15.1605 C   0  0  0  0  0  0  0  0  0  0  0  0
   26.3030  -18.8554  -16.6237 C   0  0  0  0  0  0  0  0  0  0  0  0
   26.6414  -17.5027  -17.2720 C   0  0  0  0  0  0  0  0  0  0  0  0
   26.8983  -17.7886  -18.7329 N   0  0  0  0  0  0  0  0  0  0  0  0
   27.2412  -16.5883  -19.4698 C   0  0  0  0  0  0  0  0  0  0  0  0
   26.7676  -20.8635  -14.4234 O   0  0  0  0  0  0  0  0  0  0  0  0
   27.7167  -21.0034  -13.6485 O   0  0  0  0  0  0  0  0  0  0  0  0
  2  1  1  0
  2  3  2  0
  4  2  1  0
  5  4  1  0
  6  5  1  0
  7  8  1  0
  7  6  1  0
  8  9  1  1
 10  8  1  0
 11 10  2  0
 13 12  1  1
 13 14  1  0
 15 16  1  1
 15 13  1  0
 16 10  1  0
 17 15  1  0
 18 17  2  0
 19 17  1  0
 20 26  1  0
 20 19  1  0
 21 22  1  0
 20 21  1  1
 23 24  1  0
 23 22  1  0
 25 24  1  0
 26 28  1  0
 27 26  2  0
M  END
$$$$
