RVK.pdb
     RDKit          3D

 28 27  0  0  1  0  0  0  0  0999 V2000
   30.2404  -18.6489  -18.9392 N   0  0  0  0  0  0  0  0  0  0  0  0
   29.3780  -17.5027  -18.9978 C   0  0  0  0  0  0  0  0  0  0  0  0
   29.4783  -16.7369  -20.0251 N   0  0  0  0  0  0  0  0  0  0  0  0
   28.4711  -17.2717  -17.9387 N   0  0  0  0  0  0  0  0  0  0  0  0
   28.3806  -18.1907  -16.8428 C   0  0  0  0  0  0  0  0  0  0  0  0
   27.5049  -19.3734  -17.1323 C   0  0  0  0  0  0  0  0  0  0  0  0
   26.7006  -19.8851  -15.9966 C   0  0  0  0  0  0  0  0  0  0  0  0
   27.3404  -20.9648  -15.1652 C   0  0  2  0  0  0  0  0  0  0  0  0
   27.7887  -22.0781  -15.9333 N   0  0  0  0  0  0  0  0  0  0  0  0
   26.3106  -21.3713  -14.1486 C   0  0  0  0  0  0  0  0  0  0  0  0
   25.4438  -22.2377  -14.4493 O   0  0  0  0  0  0  0  0  0  0  0  0
   28.8809  -15.8925  -20.1410 C   0  0  0  0  0  0  0  0  0  0  0  0
   24.7076  -21.1872   -9.4218 C   0  0  1  0  0  0  0  0  0  0  0  0
   25.6378  -20.8594  -10.5367 C   0  0  0  0  0  0  0  0  0  0  0  0
   26.1892  -19.4456  -10.4467 C   0  0  2  0  0  0  0  0  0  0  0  0
   25.1542  -21.1979  -11.9088 N   0  0  0  0  0  0  0  0  0  0  0  0
   26.2416  -20.8363  -12.8415 C   0  0  0  0  0  0  0  0  0  0  0  0
   23.8846  -20.6348  -12.3370 O   0  0  0  0  0  0  0  0  0  0  0  0
   23.9139  -19.4552  -12.8454 N   0  0  0  0  0  0  0  0  0  0  0  0
   22.6022  -21.2042  -12.2764 C   0  0  1  0  0  0  0  0  0  0  0  0
   21.4021  -20.5236  -12.7285 C   0  0  0  0  0  0  0  0  0  0  0  0
   21.0284  -20.9391  -14.1288 C   0  0  0  0  0  0  0  0  0  0  0  0
   19.7479  -20.3060  -14.6242 C   0  0  0  0  0  0  0  0  0  0  0  0
   19.5096  -20.8316  -16.0495 C   0  0  0  0  0  0  0  0  0  0  0  0
   18.2771  -20.1224  -16.5593 N   0  0  0  0  0  0  0  0  0  0  0  0
   17.0565  -20.7529  -16.0968 C   0  0  0  0  0  0  0  0  0  0  0  0
   20.3151  -20.6482  -11.7477 O   0  0  0  0  0  0  0  0  0  0  0  0
   20.2328  -21.4637  -10.8263 O   0  0  0  0  0  0  0  0  0  0  0  0
  2  1  1  0
  2  3  2  0
  4  2  1  0
  5  4  1  0
  6  5  1  0
  7  8  1  0
  7  6  1  0
  8  9  1  6
 10  8  1  0
 11 10  2  0
 13 12  1  1
 13 14  1  0
 15 16  1  6
 15 13  1  0
 16 10  1  0
 17 15  1  0
 18 17  2  0
 19 17  1  0
 20 26  1  0
 20 19  1  0
 21 22  1  0
 20 21  1  1
 23 24  1  0
 23 22  1  0
 25 24  1  0
 26 28  1  0
 27 26  2  0
M  END
$$$$
