RVK.pdb
     RDKit          3D

 28 27  0  0  1  0  0  0  0  0999 V2000
   20.9702  -20.5204  -18.3915 N   0  0  0  0  0  0  0  0  0  0  0  0
   19.9502  -21.3474  -17.8113 C   0  0  0  0  0  0  0  0  0  0  0  0
   19.1124  -21.9047  -18.6109 N   0  0  0  0  0  0  0  0  0  0  0  0
   19.9140  -21.5089  -16.4077 N   0  0  0  0  0  0  0  0  0  0  0  0
   19.2792  -20.5286  -15.5772 C   0  0  0  0  0  0  0  0  0  0  0  0
   20.1762  -19.3790  -15.2263 C   0  0  0  0  0  0  0  0  0  0  0  0
   20.9477  -19.5121  -13.9670 C   0  0  0  0  0  0  0  0  0  0  0  0
   20.1782  -19.2902  -12.6923 C   0  0  2  0  0  0  0  0  0  0  0  0
   20.5280  -18.0811  -12.0245 N   0  0  0  0  0  0  0  0  0  0  0  0
   20.4423  -20.4946  -11.8328 C   0  0  0  0  0  0  0  0  0  0  0  0
   20.3570  -21.6500  -12.3329 O   0  0  0  0  0  0  0  0  0  0  0  0
   18.3766  -22.5564  -18.2684 C   0  0  0  0  0  0  0  0  0  0  0  0
   22.1568  -20.4862   -7.7045 C   0  0  1  0  0  0  0  0  0  0  0  0
   22.2996  -21.3781   -8.8877 C   0  0  0  0  0  0  0  0  0  0  0  0
   23.4666  -20.9888   -9.7806 C   0  0  1  0  0  0  0  0  0  0  0  0
   21.0490  -21.6371   -9.6623 N   0  0  0  0  0  0  0  0  0  0  0  0
   20.7891  -20.4232  -10.4638 C   0  0  0  0  0  0  0  0  0  0  0  0
   19.8657  -22.0419   -8.9217 O   0  0  0  0  0  0  0  0  0  0  0  0
   19.0528  -21.1109   -8.5708 N   0  0  0  0  0  0  0  0  0  0  0  0
   19.4713  -23.3304   -8.5258 C   0  0  1  0  0  0  0  0  0  0  0  0
   18.2973  -23.5938   -7.7134 C   0  0  0  0  0  0  0  0  0  0  0  0
   17.4164  -24.6428   -8.3431 C   0  0  0  0  0  0  0  0  0  0  0  0
   16.1873  -24.9685   -7.5251 C   0  0  0  0  0  0  0  0  0  0  0  0
   15.5044  -26.1696   -8.1999 C   0  0  0  0  0  0  0  0  0  0  0  0
   14.2593  -26.4541   -7.3933 N   0  0  0  0  0  0  0  0  0  0  0  0
   13.4419  -27.4859   -8.0003 C   0  0  0  0  0  0  0  0  0  0  0  0
   18.6637  -23.8672   -6.3169 O   0  0  0  0  0  0  0  0  0  0  0  0
   19.7652  -24.2234   -5.8918 O   0  0  0  0  0  0  0  0  0  0  0  0
  2  1  1  0
  2  3  2  0
  4  2  1  0
  5  4  1  0
  6  5  1  0
  7  8  1  0
  7  6  1  0
  8  9  1  1
 10  8  1  0
 11 10  2  0
 13 12  1  1
 13 14  1  0
 15 16  1  6
 15 13  1  0
 16 10  1  0
 17 15  1  0
 18 17  2  0
 19 17  1  0
 20 26  1  0
 20 19  1  0
 21 22  1  0
 20 21  1  1
 23 24  1  0
 23 22  1  0
 25 24  1  0
 26 28  1  0
 27 26  2  0
M  END
$$$$
