DCW.pdb
     RDKit          3D

 29 30  0  0  1  0  0  0  0  0999 V2000
   27.6266  -23.1760  -17.2358 N   0  0  0  0  0  0  0  0  0  0  0  0
   28.5500  -22.3527  -16.5302 C   0  0  1  0  0  0  0  0  0  0  0  0
   29.5615  -21.7102  -17.4464 C   0  0  0  0  0  0  0  0  0  0  0  0
   30.4377  -22.6543  -18.1403 C   0  0  0  0  0  0  0  0  0  0  0  0
   30.3321  -23.8981  -18.0263 O   0  0  0  0  0  0  0  0  0  0  0  0
   27.9017  -21.2692  -15.7357 C   0  0  0  0  0  0  0  0  0  0  0  0
   28.1404  -20.0599  -16.0389 O   0  0  0  0  0  0  0  0  0  0  0  0
   31.4600  -22.2101  -18.9844 O   0  0  0  0  0  0  0  0  0  0  0  0
   27.0323  -21.4690  -14.6585 N   0  0  0  0  0  0  0  0  0  0  0  0
   26.1041  -20.5063  -14.1594 C   0  0  1  0  0  0  0  0  0  0  0  0
   25.2083  -19.8957  -15.1724 C   0  0  0  0  0  0  0  0  0  0  0  0
   23.8608  -19.0258  -14.3690 S   0  0  0  0  0  0  0  0  0  0  0  0
   25.3348  -21.0505  -12.9817 C   0  0  0  0  0  0  0  0  0  0  0  0
   24.6978  -22.1238  -13.1291 O   0  0  0  0  0  0  0  0  0  0  0  0
   25.2921  -20.4207  -11.7267 N   0  0  0  0  0  0  0  0  0  0  0  0
   24.5938  -20.9218  -10.5515 C   0  0  1  0  0  0  0  0  0  0  0  0
   25.1062  -20.3423   -9.2961 C   0  0  0  0  0  0  0  0  0  0  0  0
   26.5429  -20.5849   -9.1044 C   0  0  0  0  0  0  0  0  0  0  0  0
   27.3862  -21.3406   -9.9369 C   0  0  0  0  0  0  0  0  0  0  0  0
   28.6281  -21.3797   -9.4299 N   0  0  0  0  0  0  0  0  0  0  0  0
   28.6609  -20.6750   -8.2793 C   0  0  0  0  0  0  0  0  0  0  0  0
   29.6831  -20.3983   -7.4015 C   0  0  0  0  0  0  0  0  0  0  0  0
   29.4617  -19.6192   -6.2885 C   0  0  0  0  0  0  0  0  0  0  0  0
   28.1920  -19.1245   -6.0767 C   0  0  0  0  0  0  0  0  0  0  0  0
   27.1596  -19.3940   -6.9462 C   0  0  0  0  0  0  0  0  0  0  0  0
   27.3849  -20.1792   -8.0655 C   0  0  0  0  0  0  0  0  0  0  0  0
   23.1595  -20.9682  -10.6736 C   0  0  0  0  0  0  0  0  0  0  0  0
   22.4514  -21.6059   -9.6264 O   0  0  0  0  0  0  0  0  0  0  0  0
   22.5076  -20.4976  -11.6141 O   0  0  0  0  0  0  0  0  0  0  0  0
  2  1  1  6
  3  2  1  0
  4  3  1  0
  5  4  2  0
  6  2  1  0
  7  6  2  0
  8  4  1  0
  9  6  1  0
 10  9  1  0
 10 11  1  6
 12 11  1  0
 13 14  2  0
 13 10  1  0
 15 13  1  0
 16 15  1  0
 16 17  1  1
 18 19  2  0
 18 17  1  0
 20 19  1  0
 21 26  2  0
 21 20  1  0
 22 21  1  0
 23 24  1  0
 23 22  2  0
 24 25  2  0
 25 26  1  0
 26 18  1  0
 27 16  1  0
 28 27  1  0
 29 27  2  0
M  END
$$$$
