DCW.pdb
     RDKit          3D

 29 30  0  0  1  0  0  0  0  0999 V2000
   26.4185  -21.0048  -17.9664 N   0  0  0  0  0  0  0  0  0  0  0  0
   27.5509  -20.6365  -17.1852 C   0  0  1  0  0  0  0  0  0  0  0  0
   28.5030  -19.7435  -17.9412 C   0  0  0  0  0  0  0  0  0  0  0  0
   29.2979  -20.4288  -18.9605 C   0  0  0  0  0  0  0  0  0  0  0  0
   29.5307  -19.9402  -20.0912 O   0  0  0  0  0  0  0  0  0  0  0  0
   27.2006  -19.9510  -15.9074 C   0  0  0  0  0  0  0  0  0  0  0  0
   27.1938  -18.6821  -15.8740 O   0  0  0  0  0  0  0  0  0  0  0  0
   29.8514  -21.6905  -18.7226 O   0  0  0  0  0  0  0  0  0  0  0  0
   26.8707  -20.5955  -14.7107 N   0  0  0  0  0  0  0  0  0  0  0  0
   26.3262  -19.9588  -13.5550 C   0  0  1  0  0  0  0  0  0  0  0  0
   25.0027  -19.3150  -13.7426 C   0  0  0  0  0  0  0  0  0  0  0  0
   23.6867  -20.4897  -13.4170 S   0  0  0  0  0  0  0  0  0  0  0  0
   26.3384  -20.8860  -12.3654 C   0  0  0  0  0  0  0  0  0  0  0  0
   25.8127  -22.0210  -12.4876 O   0  0  0  0  0  0  0  0  0  0  0  0
   26.9067  -20.5481  -11.1259 N   0  0  0  0  0  0  0  0  0  0  0  0
   26.8461  -21.3585   -9.9179 C   0  0  1  0  0  0  0  0  0  0  0  0
   28.0596  -21.2347   -9.0893 C   0  0  0  0  0  0  0  0  0  0  0  0
   27.8857  -20.3056   -7.9639 C   0  0  0  0  0  0  0  0  0  0  0  0
   26.9760  -19.2368   -7.8892 C   0  0  0  0  0  0  0  0  0  0  0  0
   27.1247  -18.5788   -6.7292 N   0  0  0  0  0  0  0  0  0  0  0  0
   28.1051  -19.1634   -6.0090 C   0  0  0  0  0  0  0  0  0  0  0  0
   28.6195  -18.8855   -4.7640 C   0  0  0  0  0  0  0  0  0  0  0  0
   29.6224  -19.6618   -4.2289 C   0  0  0  0  0  0  0  0  0  0  0  0
   30.0970  -20.7225   -4.9714 C   0  0  0  0  0  0  0  0  0  0  0  0
   29.5923  -21.0117   -6.2189 C   0  0  0  0  0  0  0  0  0  0  0  0
   28.5832  -20.2282   -6.7556 C   0  0  0  0  0  0  0  0  0  0  0  0
   25.5974  -21.2885   -9.2039 C   0  0  0  0  0  0  0  0  0  0  0  0
   24.7265  -20.2260   -9.5464 O   0  0  0  0  0  0  0  0  0  0  0  0
   25.2330  -22.0784   -8.3240 O   0  0  0  0  0  0  0  0  0  0  0  0
  2  1  1  6
  3  2  1  0
  4  3  1  0
  5  4  2  0
  6  2  1  0
  7  6  2  0
  8  4  1  0
  9  6  1  0
 10  9  1  0
 10 11  1  6
 12 11  1  0
 13 14  2  0
 13 10  1  0
 15 13  1  0
 16 15  1  0
 16 17  1  1
 18 19  2  0
 18 17  1  0
 20 19  1  0
 21 26  2  0
 21 20  1  0
 22 21  1  0
 23 24  1  0
 23 22  2  0
 24 25  2  0
 25 26  1  0
 26 18  1  0
 27 16  1  0
 28 27  1  0
 29 27  2  0
M  END
$$$$
