DCW.pdb
     RDKit          3D

 29 30  0  0  1  0  0  0  0  0999 V2000
   23.9015  -18.6962  -16.2759 N   0  0  0  0  0  0  0  0  0  0  0  0
   24.7273  -18.3976  -15.1547 C   0  0  1  0  0  0  0  0  0  0  0  0
   24.4254  -17.0424  -14.5650 C   0  0  0  0  0  0  0  0  0  0  0  0
   24.7526  -15.9144  -15.4374 C   0  0  0  0  0  0  0  0  0  0  0  0
   25.5518  -15.0054  -15.1115 O   0  0  0  0  0  0  0  0  0  0  0  0
   24.6344  -19.4034  -14.0568 C   0  0  0  0  0  0  0  0  0  0  0  0
   23.5453  -19.5102  -13.4136 O   0  0  0  0  0  0  0  0  0  0  0  0
   24.1795  -15.7880  -16.7064 O   0  0  0  0  0  0  0  0  0  0  0  0
   25.6650  -20.2619  -13.6604 N   0  0  0  0  0  0  0  0  0  0  0  0
   25.5530  -21.2789  -12.6651 C   0  0  1  0  0  0  0  0  0  0  0  0
   26.1876  -22.5771  -13.0021 C   0  0  0  0  0  0  0  0  0  0  0  0
   25.4459  -23.2674  -14.4824 S   0  0  0  0  0  0  0  0  0  0  0  0
   25.9922  -20.7706  -11.3147 C   0  0  0  0  0  0  0  0  0  0  0  0
   27.0613  -20.1138  -11.2427 O   0  0  0  0  0  0  0  0  0  0  0  0
   25.2690  -20.9924  -10.1309 N   0  0  0  0  0  0  0  0  0  0  0  0
   25.7875  -20.8331   -8.7798 C   0  0  1  0  0  0  0  0  0  0  0  0
   26.6991  -19.6810   -8.6533 C   0  0  0  0  0  0  0  0  0  0  0  0
   27.9326  -20.0109   -7.9257 C   0  0  0  0  0  0  0  0  0  0  0  0
   29.0016  -20.7934   -8.3950 C   0  0  0  0  0  0  0  0  0  0  0  0
   29.9411  -20.9166   -7.4448 N   0  0  0  0  0  0  0  0  0  0  0  0
   29.5494  -20.2435   -6.3424 C   0  0  0  0  0  0  0  0  0  0  0  0
   30.1549  -20.0481   -5.1230 C   0  0  0  0  0  0  0  0  0  0  0  0
   29.5478  -19.2851   -4.1513 C   0  0  0  0  0  0  0  0  0  0  0  0
   28.3200  -18.7232   -4.4313 C   0  0  0  0  0  0  0  0  0  0  0  0
   27.7021  -18.9111   -5.6467 C   0  0  0  0  0  0  0  0  0  0  0  0
   28.3149  -19.6802   -6.6229 C   0  0  0  0  0  0  0  0  0  0  0  0
   24.8051  -20.9649   -7.7349 C   0  0  0  0  0  0  0  0  0  0  0  0
   23.4772  -21.2423   -8.1404 O   0  0  0  0  0  0  0  0  0  0  0  0
   25.0324  -20.8553   -6.5236 O   0  0  0  0  0  0  0  0  0  0  0  0
  2  1  1  6
  3  2  1  0
  4  3  1  0
  5  4  2  0
  6  2  1  0
  7  6  2  0
  8  4  1  0
  9  6  1  0
 10  9  1  0
 10 11  1  6
 12 11  1  0
 13 14  2  0
 13 10  1  0
 15 13  1  0
 16 15  1  0
 16 17  1  6
 18 19  2  0
 18 17  1  0
 20 19  1  0
 21 26  2  0
 21 20  1  0
 22 21  1  0
 23 24  1  0
 23 22  2  0
 24 25  2  0
 25 26  1  0
 26 18  1  0
 27 16  1  0
 28 27  1  0
 29 27  2  0
M  END
$$$$
