DCW.pdb
     RDKit          3D

 29 30  0  0  1  0  0  0  0  0999 V2000
   23.0245  -19.5057  -15.8441 N   0  0  0  0  0  0  0  0  0  0  0  0
   23.4256  -18.9657  -14.5888 C   0  0  1  0  0  0  0  0  0  0  0  0
   22.3192  -18.1895  -13.9188 C   0  0  0  0  0  0  0  0  0  0  0  0
   21.0757  -18.1199  -14.6864 C   0  0  0  0  0  0  0  0  0  0  0  0
   20.9558  -18.5925  -15.8413 O   0  0  0  0  0  0  0  0  0  0  0  0
   23.9119  -19.9925  -13.6221 C   0  0  0  0  0  0  0  0  0  0  0  0
   23.0947  -20.4789  -12.7813 O   0  0  0  0  0  0  0  0  0  0  0  0
   19.9319  -17.5103  -14.1620 O   0  0  0  0  0  0  0  0  0  0  0  0
   25.2208  -20.4812  -13.5552 N   0  0  0  0  0  0  0  0  0  0  0  0
   25.6769  -21.4948  -12.6597 C   0  0  1  0  0  0  0  0  0  0  0  0
   26.7163  -22.4056  -13.1997 C   0  0  0  0  0  0  0  0  0  0  0  0
   28.1623  -21.4714  -13.7040 S   0  0  0  0  0  0  0  0  0  0  0  0
   26.0784  -20.9069  -11.3300 C   0  0  0  0  0  0  0  0  0  0  0  0
   26.8569  -19.9202  -11.3241 O   0  0  0  0  0  0  0  0  0  0  0  0
   25.6281  -21.4039  -10.0957 N   0  0  0  0  0  0  0  0  0  0  0  0
   26.0812  -20.9559   -8.7866 C   0  0  1  0  0  0  0  0  0  0  0  0
   26.3061  -19.4996   -8.7310 C   0  0  0  0  0  0  0  0  0  0  0  0
   27.3631  -19.1248   -7.7812 C   0  0  0  0  0  0  0  0  0  0  0  0
   28.4572  -18.2791   -8.0320 C   0  0  0  0  0  0  0  0  0  0  0  0
   29.2404  -18.1960   -6.9455 N   0  0  0  0  0  0  0  0  0  0  0  0
   28.7169  -18.9563   -5.9608 C   0  0  0  0  0  0  0  0  0  0  0  0
   29.1227  -19.1899   -4.6676 C   0  0  0  0  0  0  0  0  0  0  0  0
   28.3868  -20.0039   -3.8365 C   0  0  0  0  0  0  0  0  0  0  0  0
   27.2352  -20.5778   -4.3328 C   0  0  0  0  0  0  0  0  0  0  0  0
   26.8177  -20.3536   -5.6250 C   0  0  0  0  0  0  0  0  0  0  0  0
   27.5607  -19.5343   -6.4598 C   0  0  0  0  0  0  0  0  0  0  0  0
   25.3606  -21.5156   -7.6723 C   0  0  0  0  0  0  0  0  0  0  0  0
   26.1345  -21.9765   -6.5799 O   0  0  0  0  0  0  0  0  0  0  0  0
   24.1301  -21.6222   -7.5992 O   0  0  0  0  0  0  0  0  0  0  0  0
  2  1  1  6
  3  2  1  0
  4  3  1  0
  5  4  2  0
  6  2  1  0
  7  6  2  0
  8  4  1  0
  9  6  1  0
 10  9  1  0
 10 11  1  6
 12 11  1  0
 13 14  2  0
 13 10  1  0
 15 13  1  0
 16 15  1  0
 16 17  1  6
 18 19  2  0
 18 17  1  0
 20 19  1  0
 21 26  2  0
 21 20  1  0
 22 21  1  0
 23 24  1  0
 23 22  2  0
 24 25  2  0
 25 26  1  0
 26 18  1  0
 27 16  1  0
 28 27  1  0
 29 27  2  0
M  END
$$$$
