DCW.pdb
     RDKit          3D

 29 30  0  0  1  0  0  0  0  0999 V2000
   27.2558  -21.9497  -16.4038 N   0  0  0  0  0  0  0  0  0  0  0  0
   27.0050  -20.9861  -15.3855 C   0  0  1  0  0  0  0  0  0  0  0  0
   26.6394  -19.6362  -15.9510 C   0  0  0  0  0  0  0  0  0  0  0  0
   27.6721  -19.0307  -16.7920 C   0  0  0  0  0  0  0  0  0  0  0  0
   28.8711  -19.3962  -16.7751 O   0  0  0  0  0  0  0  0  0  0  0  0
   25.9299  -21.3871  -14.4322 C   0  0  0  0  0  0  0  0  0  0  0  0
   24.9479  -22.0650  -14.8651 O   0  0  0  0  0  0  0  0  0  0  0  0
   27.3703  -17.9912  -17.6770 O   0  0  0  0  0  0  0  0  0  0  0  0
   25.9040  -21.0761  -13.0688 N   0  0  0  0  0  0  0  0  0  0  0  0
   24.8845  -21.4739  -12.1523 C   0  0  1  0  0  0  0  0  0  0  0  0
   25.3086  -21.5936  -10.7355 C   0  0  0  0  0  0  0  0  0  0  0  0
   25.8078  -19.9932  -10.0973 S   0  0  0  0  0  0  0  0  0  0  0  0
   23.6528  -20.6163  -12.3013 C   0  0  0  0  0  0  0  0  0  0  0  0
   23.7881  -19.3671  -12.2737 O   0  0  0  0  0  0  0  0  0  0  0  0
   22.3601  -21.1399  -12.4696 N   0  0  0  0  0  0  0  0  0  0  0  0
   21.1494  -20.3569  -12.6717 C   0  0  1  0  0  0  0  0  0  0  0  0
   21.2800  -19.3821  -13.7703 C   0  0  0  0  0  0  0  0  0  0  0  0
   21.4530  -20.0242  -15.0809 C   0  0  0  0  0  0  0  0  0  0  0  0
   20.7679  -21.1539  -15.5604 C   0  0  0  0  0  0  0  0  0  0  0  0
   21.2126  -21.4843  -16.7826 N   0  0  0  0  0  0  0  0  0  0  0  0
   22.1780  -20.6172  -17.1539 C   0  0  0  0  0  0  0  0  0  0  0  0
   22.9251  -20.5132  -18.3041 C   0  0  0  0  0  0  0  0  0  0  0  0
   23.8494  -19.5040  -18.4525 C   0  0  0  0  0  0  0  0  0  0  0  0
   24.0066  -18.6023  -17.4211 C   0  0  0  0  0  0  0  0  0  0  0  0
   23.2665  -18.6948  -16.2643 C   0  0  0  0  0  0  0  0  0  0  0  0
   22.3373  -19.7122  -16.1170 C   0  0  0  0  0  0  0  0  0  0  0  0
   19.9270  -21.1184  -12.6598 C   0  0  0  0  0  0  0  0  0  0  0  0
   20.0550  -22.5285  -12.6484 O   0  0  0  0  0  0  0  0  0  0  0  0
   18.7868  -20.6380  -12.6586 O   0  0  0  0  0  0  0  0  0  0  0  0
  2  1  1  6
  3  2  1  0
  4  3  1  0
  5  4  2  0
  6  2  1  0
  7  6  2  0
  8  4  1  0
  9  6  1  0
 10  9  1  0
 10 11  1  1
 12 11  1  0
 13 14  2  0
 13 10  1  0
 15 13  1  0
 16 15  1  0
 16 17  1  6
 18 19  2  0
 18 17  1  0
 20 19  1  0
 21 26  2  0
 21 20  1  0
 22 21  1  0
 23 24  1  0
 23 22  2  0
 24 25  2  0
 25 26  1  0
 26 18  1  0
 27 16  1  0
 28 27  1  0
 29 27  2  0
M  END
$$$$
