DCW.pdb
     RDKit          3D

 29 30  0  0  1  0  0  0  0  0999 V2000
   27.5554  -21.3329  -18.2270 N   0  0  0  0  0  0  0  0  0  0  0  0
   28.3720  -21.7188  -17.1258 C   0  0  1  0  0  0  0  0  0  0  0  0
   29.8331  -21.7917  -17.4935 C   0  0  0  0  0  0  0  0  0  0  0  0
   30.1779  -22.8910  -18.3953 C   0  0  0  0  0  0  0  0  0  0  0  0
   30.9573  -22.7604  -19.3683 O   0  0  0  0  0  0  0  0  0  0  0  0
   28.2444  -20.8212  -15.9411 C   0  0  0  0  0  0  0  0  0  0  0  0
   29.1880  -20.0135  -15.6793 O   0  0  0  0  0  0  0  0  0  0  0  0
   29.6456  -24.1713  -18.2159 O   0  0  0  0  0  0  0  0  0  0  0  0
   27.1515  -20.7876  -15.0689 N   0  0  0  0  0  0  0  0  0  0  0  0
   26.9923  -19.8756  -13.9824 C   0  0  1  0  0  0  0  0  0  0  0  0
   26.0579  -18.7487  -14.2241 C   0  0  0  0  0  0  0  0  0  0  0  0
   26.9718  -17.2478  -14.5845 S   0  0  0  0  0  0  0  0  0  0  0  0
   26.6761  -20.6050  -12.7006 C   0  0  0  0  0  0  0  0  0  0  0  0
   25.8408  -21.5434  -12.7381 O   0  0  0  0  0  0  0  0  0  0  0  0
   27.2662  -20.2910  -11.4650 N   0  0  0  0  0  0  0  0  0  0  0  0
   26.8666  -20.8330  -10.1742 C   0  0  1  0  0  0  0  0  0  0  0  0
   27.8791  -20.6086   -9.1258 C   0  0  0  0  0  0  0  0  0  0  0  0
   27.2831  -20.3598   -7.8057 C   0  0  0  0  0  0  0  0  0  0  0  0
   25.9164  -20.3968   -7.4800 C   0  0  0  0  0  0  0  0  0  0  0  0
   25.7364  -20.0782   -6.1889 N   0  0  0  0  0  0  0  0  0  0  0  0
   26.9349  -19.8256   -5.6221 C   0  0  0  0  0  0  0  0  0  0  0  0
   27.2886  -19.4814   -4.3382 C   0  0  0  0  0  0  0  0  0  0  0  0
   28.6100  -19.2986   -3.9985 C   0  0  0  0  0  0  0  0  0  0  0  0
   29.5675  -19.4690   -4.9761 C   0  0  0  0  0  0  0  0  0  0  0  0
   29.2281  -19.8124   -6.2650 C   0  0  0  0  0  0  0  0  0  0  0  0
   27.8971  -19.9951   -6.6046 C   0  0  0  0  0  0  0  0  0  0  0  0
   25.5065  -20.5508   -9.7939 C   0  0  0  0  0  0  0  0  0  0  0  0
   24.7711  -21.6165   -9.2211 O   0  0  0  0  0  0  0  0  0  0  0  0
   24.9395  -19.4594   -9.9286 O   0  0  0  0  0  0  0  0  0  0  0  0
  2  1  1  6
  3  2  1  0
  4  3  1  0
  5  4  2  0
  6  2  1  0
  7  6  2  0
  8  4  1  0
  9  6  1  0
 10  9  1  0
 10 11  1  6
 12 11  1  0
 13 14  2  0
 13 10  1  0
 15 13  1  0
 16 15  1  0
 16 17  1  1
 18 19  2  0
 18 17  1  0
 20 19  1  0
 21 26  2  0
 21 20  1  0
 22 21  1  0
 23 24  1  0
 23 22  2  0
 24 25  2  0
 25 26  1  0
 26 18  1  0
 27 16  1  0
 28 27  1  0
 29 27  2  0
M  END
$$$$
