HAN.pdb
     RDKit          3D

 24 24  0  0  1  0  0  0  0  0999 V2000
   19.0261  -11.7825  -16.7402 N   0  0  0  0  0  0  0  0  0  0  0  0
   20.1111  -11.2071  -17.5267 C   0  0  1  0  0  0  0  0  0  0  0  0
   20.2691  -12.0741  -18.7558 C   0  0  0  0  0  0  0  0  0  0  0  0
   20.4067  -13.4986  -18.3351 C   0  0  0  0  0  0  0  0  0  0  0  0
   21.5085  -14.1430  -17.8088 C   0  0  0  0  0  0  0  0  0  0  0  0
   21.2283  -15.4355  -17.5578 N   0  0  0  0  0  0  0  0  0  0  0  0
   19.9466  -15.6102  -17.9258 C   0  0  0  0  0  0  0  0  0  0  0  0
   19.4381  -14.4586  -18.3944 N   0  0  0  0  0  0  0  0  0  0  0  0
   19.7888   -9.8164  -17.9400 C   0  0  0  0  0  0  0  0  0  0  0  0
   20.5796   -9.1884  -18.6876 O   0  0  0  0  0  0  0  0  0  0  0  0
   16.8617   -7.4268  -17.6217 C   0  0  0  0  0  0  0  0  0  0  0  0
   18.3174   -7.7735  -17.8456 C   0  0  2  0  0  0  0  0  0  0  0  0
   18.6121   -9.1417  -17.5292 N   0  0  0  0  0  0  0  0  0  0  0  0
   19.2231   -6.8251  -17.1399 C   0  0  0  0  0  0  0  0  0  0  0  0
   19.1275   -5.6196  -17.4022 O   0  0  0  0  0  0  0  0  0  0  0  0
   23.0022   -4.8936  -14.0166 N   0  0  0  0  0  0  0  0  0  0  0  0
   22.1977   -5.8483  -13.3528 C   0  0  0  0  0  0  0  0  0  0  0  0
   22.3485   -5.9793  -12.1121 O   0  0  0  0  0  0  0  0  0  0  0  0
   21.2174   -6.6698  -14.0499 C   0  0  0  0  0  0  0  0  0  0  0  0
   21.0996   -6.4124  -15.5123 C   0  0  2  0  0  0  0  0  0  0  0  0
   20.1762   -7.2796  -16.1881 N   0  0  0  0  0  0  0  0  0  0  0  0
   22.4249   -6.3624  -16.1995 C   0  0  0  0  0  0  0  0  0  0  0  0
   22.9193   -7.4348  -16.9463 O   0  0  0  0  0  0  0  0  0  0  0  0
   23.1676   -5.3502  -16.1423 O   0  0  0  0  0  0  0  0  0  0  0  0
  2  1  1  1
  3  2  1  0
  4  5  2  0
  4  3  1  0
  6  5  1  0
  7  8  2  0
  7  6  1  0
  8  4  1  0
  9  2  1  0
 10  9  2  0
 12 11  1  1
 12 14  1  0
 12 13  1  0
 13  9  1  0
 14 21  1  0
 15 14  2  0
 17 18  2  0
 17 16  1  0
 19 17  1  0
 20 19  1  1
 20 22  1  0
 21 20  1  0
 22 24  2  0
 22 23  1  0
M  END
$$$$
