HAN.pdb
     RDKit          3D

 24 24  0  0  1  0  0  0  0  0999 V2000
   22.8370  -14.1732  -16.9579 N   0  0  0  0  0  0  0  0  0  0  0  0
   23.7440  -13.1536  -17.4726 C   0  0  1  0  0  0  0  0  0  0  0  0
   22.9267  -12.2542  -18.3728 C   0  0  0  0  0  0  0  0  0  0  0  0
   22.6083  -12.9838  -19.6343 C   0  0  0  0  0  0  0  0  0  0  0  0
   22.9936  -14.2518  -20.0214 C   0  0  0  0  0  0  0  0  0  0  0  0
   22.4985  -14.5485  -21.2375 N   0  0  0  0  0  0  0  0  0  0  0  0
   21.7982  -13.4664  -21.6215 C   0  0  0  0  0  0  0  0  0  0  0  0
   21.8534  -12.5181  -20.6718 N   0  0  0  0  0  0  0  0  0  0  0  0
   24.3243  -12.3502  -16.3651 C   0  0  0  0  0  0  0  0  0  0  0  0
   23.6182  -12.0623  -15.3664 O   0  0  0  0  0  0  0  0  0  0  0  0
   27.7166  -10.9101  -15.4498 C   0  0  0  0  0  0  0  0  0  0  0  0
   26.2079  -10.9992  -15.3781 C   0  0  2  0  0  0  0  0  0  0  0  0
   25.6608  -11.8787  -16.3710 N   0  0  0  0  0  0  0  0  0  0  0  0
   25.5757   -9.6513  -15.4106 C   0  0  0  0  0  0  0  0  0  0  0  0
   25.9223   -8.8215  -14.5606 O   0  0  0  0  0  0  0  0  0  0  0  0
   23.2863   -5.3256  -19.0315 N   0  0  0  0  0  0  0  0  0  0  0  0
   23.4817   -6.0124  -17.8111 C   0  0  0  0  0  0  0  0  0  0  0  0
   23.0933   -5.4520  -16.7556 O   0  0  0  0  0  0  0  0  0  0  0  0
   24.1079   -7.3258  -17.7409 C   0  0  0  0  0  0  0  0  0  0  0  0
   23.9402   -8.0396  -16.4443 C   0  0  2  0  0  0  0  0  0  0  0  0
   24.5988   -9.3140  -16.3868 N   0  0  0  0  0  0  0  0  0  0  0  0
   22.5130   -8.1277  -16.0127 C   0  0  0  0  0  0  0  0  0  0  0  0
   21.8854   -7.1054  -15.2964 O   0  0  0  0  0  0  0  0  0  0  0  0
   21.7989   -9.1289  -16.2719 O   0  0  0  0  0  0  0  0  0  0  0  0
  2  1  1  1
  3  2  1  0
  4  5  2  0
  4  3  1  0
  6  5  1  0
  7  8  2  0
  7  6  1  0
  8  4  1  0
  9  2  1  0
 10  9  2  0
 12 11  1  6
 12 14  1  0
 12 13  1  0
 13  9  1  0
 14 21  1  0
 15 14  2  0
 17 18  2  0
 17 16  1  0
 19 17  1  0
 20 19  1  6
 20 22  1  0
 21 20  1  0
 22 24  2  0
 22 23  1  0
M  END
$$$$
