HAN.pdb
     RDKit          3D

 24 24  0  0  1  0  0  0  0  0999 V2000
   20.7249  -12.3046  -17.5554 N   0  0  0  0  0  0  0  0  0  0  0  0
   20.3419  -10.9092  -17.3730 C   0  0  1  0  0  0  0  0  0  0  0  0
   19.9836  -10.7402  -15.9134 C   0  0  0  0  0  0  0  0  0  0  0  0
   18.6742  -11.4050  -15.6512 C   0  0  0  0  0  0  0  0  0  0  0  0
   17.9056  -12.1700  -16.5057 C   0  0  0  0  0  0  0  0  0  0  0  0
   16.7862  -12.5924  -15.8886 N   0  0  0  0  0  0  0  0  0  0  0  0
   16.8459  -12.0940  -14.6409 C   0  0  0  0  0  0  0  0  0  0  0  0
   17.9719  -11.3791  -14.4811 N   0  0  0  0  0  0  0  0  0  0  0  0
   21.4667  -10.0000  -17.7152 C   0  0  0  0  0  0  0  0  0  0  0  0
   22.5868  -10.1602  -17.1689 O   0  0  0  0  0  0  0  0  0  0  0  0
   22.1341   -7.2968  -20.2879 C   0  0  0  0  0  0  0  0  0  0  0  0
   22.4248   -8.0696  -19.0200 C   0  0  2  0  0  0  0  0  0  0  0  0
   21.3453   -8.9370  -18.6446 N   0  0  0  0  0  0  0  0  0  0  0  0
   22.8344   -7.1674  -17.9082 C   0  0  0  0  0  0  0  0  0  0  0  0
   23.7744   -6.3868  -18.1040 O   0  0  0  0  0  0  0  0  0  0  0  0
   22.6607   -3.9623  -13.8690 N   0  0  0  0  0  0  0  0  0  0  0  0
   21.9339   -3.7838  -15.0686 C   0  0  0  0  0  0  0  0  0  0  0  0
   21.4167   -2.6577  -15.2774 O   0  0  0  0  0  0  0  0  0  0  0  0
   21.7690   -4.8456  -16.0522 C   0  0  0  0  0  0  0  0  0  0  0  0
   22.3213   -6.1703  -15.6536 C   0  0  2  0  0  0  0  0  0  0  0  0
   22.1716   -7.1923  -16.6509 N   0  0  0  0  0  0  0  0  0  0  0  0
   21.8360   -6.6203  -14.3146 C   0  0  0  0  0  0  0  0  0  0  0  0
   21.2685   -7.8806  -14.1113 O   0  0  0  0  0  0  0  0  0  0  0  0
   21.9128   -5.8869  -13.2969 O   0  0  0  0  0  0  0  0  0  0  0  0
  2  1  1  1
  3  2  1  0
  4  5  2  0
  4  3  1  0
  6  5  1  0
  7  8  2  0
  7  6  1  0
  8  4  1  0
  9  2  1  0
 10  9  2  0
 12 11  1  6
 12 14  1  0
 12 13  1  0
 13  9  1  0
 14 21  1  0
 15 14  2  0
 17 18  2  0
 17 16  1  0
 19 17  1  0
 20 19  1  6
 20 22  1  0
 21 20  1  0
 22 24  2  0
 22 23  1  0
M  END
$$$$
