HAN.pdb
     RDKit          3D

 24 24  0  0  1  0  0  0  0  0999 V2000
   18.7695  -14.4773  -18.0292 N   0  0  0  0  0  0  0  0  0  0  0  0
   18.1681  -13.1498  -17.9723 C   0  0  1  0  0  0  0  0  0  0  0  0
   17.2044  -13.1548  -16.8067 C   0  0  0  0  0  0  0  0  0  0  0  0
   16.0598  -14.0577  -17.1224 C   0  0  0  0  0  0  0  0  0  0  0  0
   15.0435  -13.8784  -18.0395 C   0  0  0  0  0  0  0  0  0  0  0  0
   14.1991  -14.9267  -18.0243 N   0  0  0  0  0  0  0  0  0  0  0  0
   14.6815  -15.7717  -17.0958 C   0  0  0  0  0  0  0  0  0  0  0  0
   15.7974  -15.2662  -16.5447 N   0  0  0  0  0  0  0  0  0  0  0  0
   19.2033  -12.1059  -17.7544 C   0  0  0  0  0  0  0  0  0  0  0  0
   19.9271  -12.1496  -16.7282 O   0  0  0  0  0  0  0  0  0  0  0  0
   20.6528   -9.2046  -19.7299 C   0  0  0  0  0  0  0  0  0  0  0  0
   20.4298  -10.0286  -18.4807 C   0  0  2  0  0  0  0  0  0  0  0  0
   19.4263  -11.0384  -18.6594 N   0  0  0  0  0  0  0  0  0  0  0  0
   20.1575   -9.1681  -17.2961 C   0  0  0  0  0  0  0  0  0  0  0  0
   18.9795   -8.9111  -17.0177 O   0  0  0  0  0  0  0  0  0  0  0  0
   19.9623   -7.0256  -12.8210 N   0  0  0  0  0  0  0  0  0  0  0  0
   21.1437   -7.7996  -12.8885 C   0  0  0  0  0  0  0  0  0  0  0  0
   21.6670   -8.1642  -11.8057 O   0  0  0  0  0  0  0  0  0  0  0  0
   21.7618   -8.1805  -14.1514 C   0  0  0  0  0  0  0  0  0  0  0  0
   21.0065   -7.7831  -15.3722 C   0  0  2  0  0  0  0  0  0  0  0  0
   21.2135   -8.6495  -16.4981 N   0  0  0  0  0  0  0  0  0  0  0  0
   21.1997   -6.3457  -15.7297 C   0  0  0  0  0  0  0  0  0  0  0  0
   20.4801   -5.3198  -15.1120 O   0  0  0  0  0  0  0  0  0  0  0  0
   22.0223   -5.9821  -16.6076 O   0  0  0  0  0  0  0  0  0  0  0  0
  2  1  1  1
  3  2  1  0
  4  5  2  0
  4  3  1  0
  6  5  1  0
  7  8  2  0
  7  6  1  0
  8  4  1  0
  9  2  1  0
 10  9  2  0
 12 11  1  6
 12 14  1  0
 12 13  1  0
 13  9  1  0
 14 21  1  0
 15 14  2  0
 17 18  2  0
 17 16  1  0
 19 17  1  0
 20 19  1  1
 20 22  1  0
 21 20  1  0
 22 24  2  0
 22 23  1  0
M  END
$$$$
