HAN.pdb
     RDKit          3D

 24 24  0  0  1  0  0  0  0  0999 V2000
   42.1170  -22.5074  -17.8267 N   0  0  0  0  0  0  0  0  0  0  0  0
   41.1274  -21.9522  -18.7430 C   0  0  1  0  0  0  0  0  0  0  0  0
   40.1873  -23.0793  -19.1081 C   0  0  0  0  0  0  0  0  0  0  0  0
   40.0618  -23.1499  -20.5928 C   0  0  0  0  0  0  0  0  0  0  0  0
   40.5627  -22.2854  -21.5457 C   0  0  0  0  0  0  0  0  0  0  0  0
   40.2317  -22.6988  -22.7833 N   0  0  0  0  0  0  0  0  0  0  0  0
   39.5199  -23.8272  -22.6141 C   0  0  0  0  0  0  0  0  0  0  0  0
   39.4082  -24.1126  -21.3063 N   0  0  0  0  0  0  0  0  0  0  0  0
   40.3592  -20.8567  -18.0960 C   0  0  0  0  0  0  0  0  0  0  0  0
   39.7440  -21.0755  -17.0225 O   0  0  0  0  0  0  0  0  0  0  0  0
   40.0428  -17.1179  -18.4043 C   0  0  0  0  0  0  0  0  0  0  0  0
   39.5026  -18.4878  -18.0569 C   0  0  2  0  0  0  0  0  0  0  0  0
   40.2788  -19.5478  -18.6335 N   0  0  0  0  0  0  0  0  0  0  0  0
   38.0550  -18.6073  -18.3856 C   0  0  0  0  0  0  0  0  0  0  0  0
   37.2652  -17.8238  -17.8438 O   0  0  0  0  0  0  0  0  0  0  0  0
   33.4972  -20.2968  -20.4115 N   0  0  0  0  0  0  0  0  0  0  0  0
   34.4944  -20.0959  -21.3935 C   0  0  0  0  0  0  0  0  0  0  0  0
   34.1384  -20.1010  -22.5987 O   0  0  0  0  0  0  0  0  0  0  0  0
   35.8964  -19.8870  -21.0576 C   0  0  0  0  0  0  0  0  0  0  0  0
   36.1910  -19.7858  -19.6010 C   0  0  2  0  0  0  0  0  0  0  0  0
   37.5803  -19.5908  -19.2957 N   0  0  0  0  0  0  0  0  0  0  0  0
   35.5968  -20.9058  -18.8113 C   0  0  0  0  0  0  0  0  0  0  0  0
   36.3735  -21.9382  -18.2795 O   0  0  0  0  0  0  0  0  0  0  0  0
   34.3632  -20.9790  -18.5828 O   0  0  0  0  0  0  0  0  0  0  0  0
  2  1  1  1
  3  2  1  0
  4  5  2  0
  4  3  1  0
  6  5  1  0
  7  8  2  0
  7  6  1  0
  8  4  1  0
  9  2  1  0
 10  9  2  0
 12 11  1  6
 12 14  1  0
 12 13  1  0
 13  9  1  0
 14 21  1  0
 15 14  2  0
 17 18  2  0
 17 16  1  0
 19 17  1  0
 20 19  1  6
 20 22  1  0
 21 20  1  0
 22 24  2  0
 22 23  1  0
M  END
$$$$
