HAN.pdb
     RDKit          3D

 24 24  0  0  1  0  0  0  0  0999 V2000
   25.6732  -19.0204  -18.4091 N   0  0  0  0  0  0  0  0  0  0  0  0
   25.6107  -18.3532  -17.1137 C   0  0  1  0  0  0  0  0  0  0  0  0
   24.1950  -17.8472  -16.9493 C   0  0  0  0  0  0  0  0  0  0  0  0
   23.9870  -16.6751  -17.8481 C   0  0  0  0  0  0  0  0  0  0  0  0
   24.9084  -16.0145  -18.6360 C   0  0  0  0  0  0  0  0  0  0  0  0
   24.3241  -15.0018  -19.3031 N   0  0  0  0  0  0  0  0  0  0  0  0
   23.0301  -15.0210  -18.9372 C   0  0  0  0  0  0  0  0  0  0  0  0
   22.8102  -16.0184  -18.0647 N   0  0  0  0  0  0  0  0  0  0  0  0
   25.9296  -19.2989  -16.0125 C   0  0  0  0  0  0  0  0  0  0  0  0
   25.1301  -20.2283  -15.7370 O   0  0  0  0  0  0  0  0  0  0  0  0
   28.8270  -19.9939  -13.6687 C   0  0  0  0  0  0  0  0  0  0  0  0
   27.3672  -20.0000  -14.0660 C   0  0  2  0  0  0  0  0  0  0  0  0
   27.1122  -19.2104  -15.2365 N   0  0  0  0  0  0  0  0  0  0  0  0
   26.4861  -19.6191  -12.9274 C   0  0  0  0  0  0  0  0  0  0  0  0
   25.7405  -18.6412  -13.0660 O   0  0  0  0  0  0  0  0  0  0  0  0
   23.0612  -20.4775   -9.1352 N   0  0  0  0  0  0  0  0  0  0  0  0
   22.9600  -20.8406  -10.4980 C   0  0  0  0  0  0  0  0  0  0  0  0
   21.8367  -21.2101  -10.9232 O   0  0  0  0  0  0  0  0  0  0  0  0
   24.0970  -20.8004  -11.4077 C   0  0  0  0  0  0  0  0  0  0  0  0
   25.3861  -20.3775  -10.7930 C   0  0  2  0  0  0  0  0  0  0  0  0
   26.4917  -20.3508  -11.7086 N   0  0  0  0  0  0  0  0  0  0  0  0
   25.7096  -21.1360   -9.5476 C   0  0  0  0  0  0  0  0  0  0  0  0
   25.7954  -20.5172   -8.2979 O   0  0  0  0  0  0  0  0  0  0  0  0
   25.9224  -22.3746   -9.5579 O   0  0  0  0  0  0  0  0  0  0  0  0
  2  1  1  6
  3  2  1  0
  4  5  2  0
  4  3  1  0
  6  5  1  0
  7  8  2  0
  7  6  1  0
  8  4  1  0
  9  2  1  0
 10  9  2  0
 12 11  1  1
 12 14  1  0
 12 13  1  0
 13  9  1  0
 14 21  1  0
 15 14  2  0
 17 18  2  0
 17 16  1  0
 19 17  1  0
 20 19  1  6
 20 22  1  0
 21 20  1  0
 22 24  2  0
 22 23  1  0
M  END
$$$$
