HAN.pdb
     RDKit          3D

 24 24  0  0  1  0  0  0  0  0999 V2000
   19.0250  -13.2399  -18.0047 N   0  0  0  0  0  0  0  0  0  0  0  0
   18.7578  -12.5582  -16.7433 C   0  0  1  0  0  0  0  0  0  0  0  0
   19.7971  -13.0402  -15.7559 C   0  0  0  0  0  0  0  0  0  0  0  0
   19.5690  -14.4869  -15.4730 C   0  0  0  0  0  0  0  0  0  0  0  0
   18.5798  -15.3183  -15.9591 C   0  0  0  0  0  0  0  0  0  0  0  0
   18.7181  -16.5621  -15.4632 N   0  0  0  0  0  0  0  0  0  0  0  0
   19.7970  -16.5185  -14.6615 C   0  0  0  0  0  0  0  0  0  0  0  0
   20.3199  -15.2813  -14.6555 N   0  0  0  0  0  0  0  0  0  0  0  0
   18.8704  -11.0847  -16.9009 C   0  0  0  0  0  0  0  0  0  0  0  0
   19.8133  -10.5994  -17.5749 O   0  0  0  0  0  0  0  0  0  0  0  0
   16.7016   -8.0664  -16.2373 C   0  0  0  0  0  0  0  0  0  0  0  0
   18.0321   -8.7485  -16.4685 C   0  0  2  0  0  0  0  0  0  0  0  0
   17.9530  -10.1735  -16.3206 N   0  0  0  0  0  0  0  0  0  0  0  0
   19.1079   -8.1544  -15.6273 C   0  0  0  0  0  0  0  0  0  0  0  0
   19.4288   -8.7419  -14.5866 O   0  0  0  0  0  0  0  0  0  0  0  0
   23.0078   -5.0648  -13.9251 N   0  0  0  0  0  0  0  0  0  0  0  0
   22.5318   -4.5455  -15.1511 C   0  0  0  0  0  0  0  0  0  0  0  0
   23.0920   -3.5177  -15.6082 O   0  0  0  0  0  0  0  0  0  0  0  0
   21.4322   -5.1542  -15.8876 C   0  0  0  0  0  0  0  0  0  0  0  0
   20.8266   -6.3541  -15.2456 C   0  0  2  0  0  0  0  0  0  0  0  0
   19.7566   -6.9452  -15.9987 N   0  0  0  0  0  0  0  0  0  0  0  0
   20.4436   -6.1170  -13.8214 C   0  0  0  0  0  0  0  0  0  0  0  0
   21.2733   -6.4752  -12.7559 O   0  0  0  0  0  0  0  0  0  0  0  0
   19.3516   -5.5813  -13.5053 O   0  0  0  0  0  0  0  0  0  0  0  0
  2  1  1  6
  3  2  1  0
  4  5  2  0
  4  3  1  0
  6  5  1  0
  7  8  2  0
  7  6  1  0
  8  4  1  0
  9  2  1  0
 10  9  2  0
 12 11  1  1
 12 14  1  0
 12 13  1  0
 13  9  1  0
 14 21  1  0
 15 14  2  0
 17 18  2  0
 17 16  1  0
 19 17  1  0
 20 19  1  6
 20 22  1  0
 21 20  1  0
 22 24  2  0
 22 23  1  0
M  END
$$$$
