VQP.pdb
     RDKit          3D

 24 24  0  0  1  0  0  0  0  0999 V2000
   20.7557  -17.0911  -14.9162 C   0  0  0  0  0  0  0  0  0  0  0  0
   20.5402  -17.6700  -16.3007 C   0  0  1  0  0  0  0  0  0  0  0  0
   20.9249  -16.6521  -17.3516 C   0  0  0  0  0  0  0  0  0  0  0  0
   21.3736  -18.8977  -16.5311 C   0  0  2  0  0  0  0  0  0  0  0  0
   20.8802  -19.9655  -15.7080 N   0  0  0  0  0  0  0  0  0  0  0  0
   22.8119  -18.6592  -16.1798 C   0  0  0  0  0  0  0  0  0  0  0  0
   23.4622  -17.7390  -16.7320 O   0  0  0  0  0  0  0  0  0  0  0  0
   26.4360  -21.2846  -12.0828 N   0  0  0  0  0  0  0  0  0  0  0  0
   25.1258  -21.7646  -12.2607 C   0  0  0  0  0  0  0  0  0  0  0  0
   24.7805  -22.8997  -11.9064 O   0  0  0  0  0  0  0  0  0  0  0  0
   24.1081  -20.8552  -12.9090 C   0  0  0  0  0  0  0  0  0  0  0  0
   24.7761  -19.5710  -13.2441 C   0  0  0  0  0  0  0  0  0  0  0  0
   24.7791  -19.2679  -14.7279 C   0  0  2  0  0  0  0  0  0  0  0  0
   23.4080  -19.4878  -15.2226 N   0  0  0  0  0  0  0  0  0  0  0  0
   25.7487  -19.9936  -15.5341 C   0  0  0  0  0  0  0  0  0  0  0  0
   25.3900  -21.1684  -15.9164 O   0  0  0  0  0  0  0  0  0  0  0  0
   27.0320  -19.5960  -15.9710 N   0  0  0  0  0  0  0  0  0  0  0  0
   27.5923  -18.2710  -15.7553 C   0  0  0  0  0  0  0  0  0  0  0  0
   28.5237  -18.1126  -16.9905 C   0  0  0  0  0  0  0  0  0  0  0  0
   29.1678  -19.4842  -16.9300 C   0  0  0  0  0  0  0  0  0  0  0  0
   28.0012  -20.3910  -16.7067 C   0  0  1  0  0  0  0  0  0  0  0  0
   28.3484  -21.6342  -16.0116 C   0  0  0  0  0  0  0  0  0  0  0  0
   27.9688  -21.8163  -14.8408 O   0  0  0  0  0  0  0  0  0  0  0  0
   29.0941  -22.6107  -16.6403 O   0  0  0  0  0  0  0  0  0  0  0  0
  2  3  1  6
  2  1  1  0
  4  6  1  0
  4  2  1  0
  4  5  1  1
  6  7  2  0
  8  9  1  0
  9 11  1  0
  9 10  2  0
 11 12  1  0
 13 12  1  1
 14  6  1  0
 14 13  1  0
 15 17  1  0
 15 13  1  0
 16 15  2  0
 17 18  1  0
 19 18  1  0
 20 19  1  0
 21 20  1  0
 21 17  1  0
 22 24  1  0
 21 22  1  1
 23 22  2  0
M  END
$$$$
