VQP.pdb
     RDKit          3D

 24 24  0  0  1  0  0  0  0  0999 V2000
   26.4205  -19.3782  -16.0184 C   0  0  0  0  0  0  0  0  0  0  0  0
   24.9318  -19.6468  -15.9166 C   0  0  1  0  0  0  0  0  0  0  0  0
   24.4317  -20.2754  -17.1984 C   0  0  0  0  0  0  0  0  0  0  0  0
   24.6075  -20.5880  -14.7924 C   0  0  2  0  0  0  0  0  0  0  0  0
   25.3034  -21.8268  -14.9971 N   0  0  0  0  0  0  0  0  0  0  0  0
   23.1378  -20.8795  -14.7267 C   0  0  0  0  0  0  0  0  0  0  0  0
   22.6587  -21.8884  -15.2986 O   0  0  0  0  0  0  0  0  0  0  0  0
   19.5638  -19.9351   -9.9148 N   0  0  0  0  0  0  0  0  0  0  0  0
   20.4397  -21.0101  -10.1516 C   0  0  0  0  0  0  0  0  0  0  0  0
   20.7845  -21.7950   -9.2582 O   0  0  0  0  0  0  0  0  0  0  0  0
   20.9751  -21.2073  -11.5508 C   0  0  0  0  0  0  0  0  0  0  0  0
   20.5490  -20.0510  -12.3808 C   0  0  0  0  0  0  0  0  0  0  0  0
   20.8689  -20.2204  -13.8514 C   0  0  2  0  0  0  0  0  0  0  0  0
   22.3174  -19.9990  -14.0127 N   0  0  0  0  0  0  0  0  0  0  0  0
   20.1076  -19.3965  -14.7779 C   0  0  0  0  0  0  0  0  0  0  0  0
   20.4855  -18.1708  -14.8759 O   0  0  0  0  0  0  0  0  0  0  0  0
   19.0120  -19.7448  -15.5990 N   0  0  0  0  0  0  0  0  0  0  0  0
   18.4828  -21.0940  -15.7230 C   0  0  0  0  0  0  0  0  0  0  0  0
   17.9290  -21.0881  -17.1761 C   0  0  0  0  0  0  0  0  0  0  0  0
   17.2232  -19.7472  -17.1136 C   0  0  0  0  0  0  0  0  0  0  0  0
   18.2383  -18.8662  -16.4604 C   0  0  1  0  0  0  0  0  0  0  0  0
   17.6532  -17.7384  -15.7290 C   0  0  0  0  0  0  0  0  0  0  0  0
   17.6537  -17.7396  -14.4847 O   0  0  0  0  0  0  0  0  0  0  0  0
   17.0989  -16.6696  -16.4040 O   0  0  0  0  0  0  0  0  0  0  0  0
  2  3  1  6
  2  1  1  0
  4  6  1  0
  4  2  1  0
  4  5  1  6
  6  7  2  0
  8  9  1  0
  9 11  1  0
  9 10  2  0
 11 12  1  0
 13 12  1  1
 14  6  1  0
 14 13  1  0
 15 17  1  0
 15 13  1  0
 16 15  2  0
 17 18  1  0
 19 18  1  0
 20 19  1  0
 21 20  1  0
 21 17  1  0
 22 24  1  0
 21 22  1  1
 23 22  2  0
M  END
$$$$
