VQP.pdb
     RDKit          3D

 24 24  0  0  1  0  0  0  0  0999 V2000
   28.5494  -26.0097  -17.9229 C   0  0  0  0  0  0  0  0  0  0  0  0
   27.0796  -25.6420  -17.8669 C   0  0  1  0  0  0  0  0  0  0  0  0
   26.2647  -26.8375  -17.4253 C   0  0  0  0  0  0  0  0  0  0  0  0
   26.8167  -24.5288  -16.8940 C   0  0  2  0  0  0  0  0  0  0  0  0
   27.3745  -24.8749  -15.6173 N   0  0  0  0  0  0  0  0  0  0  0  0
   25.3468  -24.2904  -16.7160 C   0  0  0  0  0  0  0  0  0  0  0  0
   24.6299  -23.9540  -17.6893 O   0  0  0  0  0  0  0  0  0  0  0  0
   22.4162  -26.8953  -12.0618 N   0  0  0  0  0  0  0  0  0  0  0  0
   21.3413  -26.0961  -12.4912 C   0  0  0  0  0  0  0  0  0  0  0  0
   20.2199  -26.1552  -11.9695 O   0  0  0  0  0  0  0  0  0  0  0  0
   21.5718  -25.1324  -13.6320 C   0  0  0  0  0  0  0  0  0  0  0  0
   23.0061  -25.1962  -14.0143 C   0  0  0  0  0  0  0  0  0  0  0  0
   23.3588  -24.2808  -15.1680 C   0  0  2  0  0  0  0  0  0  0  0  0
   24.7976  -24.4525  -15.4391 N   0  0  0  0  0  0  0  0  0  0  0  0
   23.0216  -22.8749  -15.0044 C   0  0  0  0  0  0  0  0  0  0  0  0
   23.7415  -22.2220  -14.1617 O   0  0  0  0  0  0  0  0  0  0  0  0
   22.0196  -22.1107  -15.6430 N   0  0  0  0  0  0  0  0  0  0  0  0
   21.1946  -22.5994  -16.7368 C   0  0  0  0  0  0  0  0  0  0  0  0
   20.9000  -21.2914  -17.5245 C   0  0  0  0  0  0  0  0  0  0  0  0
   20.5541  -20.4172  -16.3345 C   0  0  0  0  0  0  0  0  0  0  0  0
   21.6402  -20.7367  -15.3590 C   0  0  1  0  0  0  0  0  0  0  0  0
   21.2487  -20.5418  -13.9598 C   0  0  0  0  0  0  0  0  0  0  0  0
   20.9947  -21.5277  -13.2444 O   0  0  0  0  0  0  0  0  0  0  0  0
   21.1572  -19.2742  -13.4215 O   0  0  0  0  0  0  0  0  0  0  0  0
  2  3  1  1
  2  1  1  0
  4  6  1  0
  4  2  1  0
  4  5  1  1
  6  7  2  0
  8  9  1  0
  9 11  1  0
  9 10  2  0
 11 12  1  0
 13 12  1  1
 14  6  1  0
 14 13  1  0
 15 17  1  0
 15 13  1  0
 16 15  2  0
 17 18  1  0
 19 18  1  0
 20 19  1  0
 21 20  1  0
 21 17  1  0
 22 24  1  0
 21 22  1  1
 23 22  2  0
M  END
$$$$
