VQP.pdb
     RDKit          3D

 24 24  0  0  1  0  0  0  0  0999 V2000
   17.3129  -11.1106  -17.7051 C   0  0  0  0  0  0  0  0  0  0  0  0
   16.8336  -11.6516  -16.3723 C   0  0  1  0  0  0  0  0  0  0  0  0
   17.6953  -12.8208  -15.9497 C   0  0  0  0  0  0  0  0  0  0  0  0
   16.9088  -10.6163  -15.2872 C   0  0  2  0  0  0  0  0  0  0  0  0
   15.9147   -9.6084  -15.5254 N   0  0  0  0  0  0  0  0  0  0  0  0
   18.2531   -9.9522  -15.2537 C   0  0  0  0  0  0  0  0  0  0  0  0
   19.2568  -10.5598  -14.8087 O   0  0  0  0  0  0  0  0  0  0  0  0
   21.1253  -11.0827  -19.0556 N   0  0  0  0  0  0  0  0  0  0  0  0
   20.9259   -9.6906  -19.0225 C   0  0  0  0  0  0  0  0  0  0  0  0
   20.5705   -9.0467  -20.0187 O   0  0  0  0  0  0  0  0  0  0  0  0
   21.1560   -8.9615  -17.7192 C   0  0  0  0  0  0  0  0  0  0  0  0
   19.9669   -8.1150  -17.4417 C   0  0  0  0  0  0  0  0  0  0  0  0
   19.6572   -7.9847  -15.9649 C   0  0  2  0  0  0  0  0  0  0  0  0
   18.3581   -8.6408  -15.7305 N   0  0  0  0  0  0  0  0  0  0  0  0
   19.6683   -6.6364  -15.4184 C   0  0  0  0  0  0  0  0  0  0  0  0
   18.5796   -5.9664  -15.5617 O   0  0  0  0  0  0  0  0  0  0  0  0
   20.7004   -5.9494  -14.7412 N   0  0  0  0  0  0  0  0  0  0  0  0
   22.0002   -6.5267  -14.4361 C   0  0  0  0  0  0  0  0  0  0  0  0
   22.3853   -5.7756  -13.1300 C   0  0  0  0  0  0  0  0  0  0  0  0
   22.0009   -4.3803  -13.5834 C   0  0  0  0  0  0  0  0  0  0  0  0
   20.6661   -4.5927  -14.2210 C   0  0  1  0  0  0  0  0  0  0  0  0
   20.3456   -3.6045  -15.2554 C   0  0  0  0  0  0  0  0  0  0  0  0
   20.5857   -3.8576  -16.4498 O   0  0  0  0  0  0  0  0  0  0  0  0
   19.7785   -2.3911  -14.9221 O   0  0  0  0  0  0  0  0  0  0  0  0
  2  3  1  1
  2  1  1  0
  4  6  1  0
  4  2  1  0
  4  5  1  6
  6  7  2  0
  8  9  1  0
  9 11  1  0
  9 10  2  0
 11 12  1  0
 13 12  1  6
 14  6  1  0
 14 13  1  0
 15 17  1  0
 15 13  1  0
 16 15  2  0
 17 18  1  0
 19 18  1  0
 20 19  1  0
 21 20  1  0
 21 17  1  0
 22 24  1  0
 21 22  1  6
 23 22  2  0
M  END
$$$$
