VQP.pdb
     RDKit          3D

 24 24  0  0  1  0  0  0  0  0999 V2000
   19.6090  -20.8190  -17.1741 C   0  0  0  0  0  0  0  0  0  0  0  0
   21.0167  -20.5854  -16.6619 C   0  0  1  0  0  0  0  0  0  0  0  0
   21.8993  -20.0889  -17.7857 C   0  0  0  0  0  0  0  0  0  0  0  0
   21.0521  -19.5569  -15.5684 C   0  0  2  0  0  0  0  0  0  0  0  0
   20.4148  -18.3555  -16.0283 N   0  0  0  0  0  0  0  0  0  0  0  0
   22.4599  -19.2215  -15.1750 C   0  0  0  0  0  0  0  0  0  0  0  0
   23.0234  -18.1946  -15.6250 O   0  0  0  0  0  0  0  0  0  0  0  0
   24.4742  -20.6936   -9.7189 N   0  0  0  0  0  0  0  0  0  0  0  0
   25.7568  -20.5084  -10.2658 C   0  0  0  0  0  0  0  0  0  0  0  0
   26.7878  -20.5952   -9.5855 O   0  0  0  0  0  0  0  0  0  0  0  0
   25.8722  -20.1923  -11.7389 C   0  0  0  0  0  0  0  0  0  0  0  0
   24.5095  -20.2197  -12.3303 C   0  0  0  0  0  0  0  0  0  0  0  0
   24.4803  -19.7993  -13.7849 C   0  0  2  0  0  0  0  0  0  0  0  0
   23.1265  -20.0816  -14.2952 N   0  0  0  0  0  0  0  0  0  0  0  0
   25.4965  -20.3829  -14.6472 C   0  0  0  0  0  0  0  0  0  0  0  0
   25.2640  -21.5813  -15.0529 O   0  0  0  0  0  0  0  0  0  0  0  0
   26.7062  -19.8241  -15.1167 N   0  0  0  0  0  0  0  0  0  0  0  0
   27.1365  -18.4624  -14.8401 C   0  0  0  0  0  0  0  0  0  0  0  0
   27.9785  -18.1300  -16.1045 C   0  0  0  0  0  0  0  0  0  0  0  0
   28.7640  -19.4258  -16.1656 C   0  0  0  0  0  0  0  0  0  0  0  0
   27.7117  -20.4643  -15.9482 C   0  0  1  0  0  0  0  0  0  0  0  0
   28.2231  -21.7032  -15.3544 C   0  0  0  0  0  0  0  0  0  0  0  0
   27.9683  -21.9723  -14.1666 O   0  0  0  0  0  0  0  0  0  0  0  0
   28.9873  -22.5802  -16.0974 O   0  0  0  0  0  0  0  0  0  0  0  0
  2  3  1  6
  2  1  1  0
  4  6  1  0
  4  2  1  0
  4  5  1  6
  6  7  2  0
  8  9  1  0
  9 11  1  0
  9 10  2  0
 11 12  1  0
 13 12  1  1
 14  6  1  0
 14 13  1  0
 15 17  1  0
 15 13  1  0
 16 15  2  0
 17 18  1  0
 19 18  1  0
 20 19  1  0
 21 20  1  0
 21 17  1  0
 22 24  1  0
 21 22  1  1
 23 22  2  0
M  END
$$$$
