VQP.pdb
     RDKit          3D

 24 24  0  0  1  0  0  0  0  0999 V2000
   25.2418  -17.7629  -17.4672 C   0  0  0  0  0  0  0  0  0  0  0  0
   26.5285  -18.4110  -17.9394 C   0  0  1  0  0  0  0  0  0  0  0  0
   27.3029  -17.4468  -18.8106 C   0  0  0  0  0  0  0  0  0  0  0  0
   27.4154  -18.7984  -16.7913 C   0  0  2  0  0  0  0  0  0  0  0  0
   28.5620  -19.5000  -17.2951 N   0  0  0  0  0  0  0  0  0  0  0  0
   26.7020  -19.6962  -15.8246 C   0  0  0  0  0  0  0  0  0  0  0  0
   26.4567  -20.8905  -16.1211 O   0  0  0  0  0  0  0  0  0  0  0  0
   27.3036  -21.5683  -11.1491 N   0  0  0  0  0  0  0  0  0  0  0  0
   26.0255  -21.3203  -10.6166 C   0  0  0  0  0  0  0  0  0  0  0  0
   25.5061  -22.0554   -9.7663 O   0  0  0  0  0  0  0  0  0  0  0  0
   25.2647  -20.1099  -11.1058 C   0  0  0  0  0  0  0  0  0  0  0  0
   26.0320  -19.4950  -12.2196 C   0  0  0  0  0  0  0  0  0  0  0  0
   25.5716  -19.9535  -13.5876 C   0  0  2  0  0  0  0  0  0  0  0  0
   26.3183  -19.1681  -14.5869 N   0  0  0  0  0  0  0  0  0  0  0  0
   24.1400  -19.8964  -13.8409 C   0  0  0  0  0  0  0  0  0  0  0  0
   23.6484  -18.7192  -14.0060 O   0  0  0  0  0  0  0  0  0  0  0  0
   23.2023  -20.9482  -13.9419 N   0  0  0  0  0  0  0  0  0  0  0  0
   23.5520  -22.3593  -13.8954 C   0  0  0  0  0  0  0  0  0  0  0  0
   22.4414  -22.9935  -14.7799 C   0  0  0  0  0  0  0  0  0  0  0  0
   21.2641  -22.2430  -14.1878 C   0  0  0  0  0  0  0  0  0  0  0  0
   21.7644  -20.8363  -14.1218 C   0  0  1  0  0  0  0  0  0  0  0  0
   21.1293  -20.0360  -13.0705 C   0  0  0  0  0  0  0  0  0  0  0  0
   21.6980  -19.8907  -11.9734 O   0  0  0  0  0  0  0  0  0  0  0  0
   19.9032  -19.4381  -13.2809 O   0  0  0  0  0  0  0  0  0  0  0  0
  2  3  1  6
  2  1  1  0
  4  6  1  0
  4  2  1  0
  4  5  1  6
  6  7  2  0
  8  9  1  0
  9 11  1  0
  9 10  2  0
 11 12  1  0
 13 12  1  1
 14  6  1  0
 14 13  1  0
 15 17  1  0
 15 13  1  0
 16 15  2  0
 17 18  1  0
 19 18  1  0
 20 19  1  0
 21 20  1  0
 21 17  1  0
 22 24  1  0
 21 22  1  1
 23 22  2  0
M  END
$$$$
