VQP.pdb
     RDKit          3D

 24 24  0  0  1  0  0  0  0  0999 V2000
   18.1390  -15.0710  -17.6008 C   0  0  0  0  0  0  0  0  0  0  0  0
   18.4178  -13.8187  -16.7929 C   0  0  1  0  0  0  0  0  0  0  0  0
   19.9095  -13.5842  -16.7021 C   0  0  0  0  0  0  0  0  0  0  0  0
   17.8036  -12.5996  -17.4184 C   0  0  2  0  0  0  0  0  0  0  0  0
   18.2555  -12.4861  -18.7763 N   0  0  0  0  0  0  0  0  0  0  0  0
   18.1948  -11.3503  -16.6867 C   0  0  0  0  0  0  0  0  0  0  0  0
   17.8151  -11.1533  -15.5070 O   0  0  0  0  0  0  0  0  0  0  0  0
   20.3920   -8.9336  -13.6701 N   0  0  0  0  0  0  0  0  0  0  0  0
   21.1442   -7.9255  -14.2999 C   0  0  0  0  0  0  0  0  0  0  0  0
   21.5436   -6.9203  -13.6972 O   0  0  0  0  0  0  0  0  0  0  0  0
   21.4726   -8.0826  -15.7664 C   0  0  0  0  0  0  0  0  0  0  0  0
   20.8442   -9.3377  -16.2536 C   0  0  0  0  0  0  0  0  0  0  0  0
   19.4180   -9.1479  -16.7265 C   0  0  2  0  0  0  0  0  0  0  0  0
   18.9923  -10.4128  -17.3524 N   0  0  0  0  0  0  0  0  0  0  0  0
   19.1749   -8.0187  -17.6112 C   0  0  0  0  0  0  0  0  0  0  0  0
   19.5812   -8.1611  -18.8234 O   0  0  0  0  0  0  0  0  0  0  0  0
   18.5473   -6.7826  -17.3393 N   0  0  0  0  0  0  0  0  0  0  0  0
   17.8945   -6.4593  -16.0803 C   0  0  0  0  0  0  0  0  0  0  0  0
   16.7905   -5.4646  -16.5385 C   0  0  0  0  0  0  0  0  0  0  0  0
   17.6538   -4.6187  -17.4545 C   0  0  0  0  0  0  0  0  0  0  0  0
   18.4186   -5.6416  -18.2304 C   0  0  1  0  0  0  0  0  0  0  0  0
   19.7159   -5.1613  -18.7158 C   0  0  0  0  0  0  0  0  0  0  0  0
   19.7622   -4.3241  -19.6351 O   0  0  0  0  0  0  0  0  0  0  0  0
   20.8928   -5.6267  -18.1652 O   0  0  0  0  0  0  0  0  0  0  0  0
  2  3  1  6
  2  1  1  0
  4  6  1  0
  4  2  1  0
  4  5  1  6
  6  7  2  0
  8  9  1  0
  9 11  1  0
  9 10  2  0
 11 12  1  0
 13 12  1  6
 14  6  1  0
 14 13  1  0
 15 17  1  0
 15 13  1  0
 16 15  2  0
 17 18  1  0
 19 18  1  0
 20 19  1  0
 21 20  1  0
 21 17  1  0
 22 24  1  0
 21 22  1  1
 23 22  2  0
M  END
$$$$
