VQP.pdb
     RDKit          3D

 24 24  0  0  1  0  0  0  0  0999 V2000
   18.5215  -10.4272  -15.4553 C   0  0  0  0  0  0  0  0  0  0  0  0
   17.4058  -11.4529  -15.4124 C   0  0  1  0  0  0  0  0  0  0  0  0
   17.9734  -12.8417  -15.6056 C   0  0  0  0  0  0  0  0  0  0  0  0
   16.6804  -11.4376  -14.0977 C   0  0  2  0  0  0  0  0  0  0  0  0
   15.6705  -12.4579  -14.1028 N   0  0  0  0  0  0  0  0  0  0  0  0
   16.0132  -10.1168  -13.8537 C   0  0  0  0  0  0  0  0  0  0  0  0
   15.0230   -9.7631  -14.5384 O   0  0  0  0  0  0  0  0  0  0  0  0
   15.6861   -7.6850   -8.4018 N   0  0  0  0  0  0  0  0  0  0  0  0
   15.2279   -6.5457   -9.0880 C   0  0  0  0  0  0  0  0  0  0  0  0
   14.7817   -5.5513   -8.5004 O   0  0  0  0  0  0  0  0  0  0  0  0
   15.2858   -6.5434  -10.5978 C   0  0  0  0  0  0  0  0  0  0  0  0
   15.8123   -7.8582  -11.0468 C   0  0  0  0  0  0  0  0  0  0  0  0
   15.9608   -7.9610  -12.5505 C   0  0  2  0  0  0  0  0  0  0  0  0
   16.5229   -9.2916  -12.8450 N   0  0  0  0  0  0  0  0  0  0  0  0
   16.7341   -6.9118  -13.1971 C   0  0  0  0  0  0  0  0  0  0  0  0
   18.0103   -6.9909  -13.0566 O   0  0  0  0  0  0  0  0  0  0  0  0
   16.2912   -5.8149  -13.9695 N   0  0  0  0  0  0  0  0  0  0  0  0
   14.8961   -5.5507  -14.2854 C   0  0  0  0  0  0  0  0  0  0  0  0
   15.0097   -4.8343  -15.6609 C   0  0  0  0  0  0  0  0  0  0  0  0
   16.1412   -3.8912  -15.3001 C   0  0  0  0  0  0  0  0  0  0  0  0
   17.1066   -4.7845  -14.5906 C   0  0  1  0  0  0  0  0  0  0  0  0
   17.9541   -4.0819  -13.6225 C   0  0  0  0  0  0  0  0  0  0  0  0
   17.7412   -4.2118  -12.4035 O   0  0  0  0  0  0  0  0  0  0  0  0
   18.9904   -3.2743  -14.0456 O   0  0  0  0  0  0  0  0  0  0  0  0
  2  3  1  1
  2  1  1  0
  4  6  1  0
  4  2  1  0
  4  5  1  6
  6  7  2  0
  8  9  1  0
  9 11  1  0
  9 10  2  0
 11 12  1  0
 13 12  1  1
 14  6  1  0
 14 13  1  0
 15 17  1  0
 15 13  1  0
 16 15  2  0
 17 18  1  0
 19 18  1  0
 20 19  1  0
 21 20  1  0
 21 17  1  0
 22 24  1  0
 21 22  1  1
 23 22  2  0
M  END
$$$$
