EIP.pdb
     RDKit          3D

 25 25  0  0  1  0  0  0  0  0999 V2000
   21.6052  -13.5548  -18.7760 N   0  0  0  0  0  0  0  0  0  0  0  0
   21.9333  -12.2035  -19.0260 C   0  0  1  0  0  0  0  0  0  0  0  0
   20.7342  -11.4139  -19.4653 C   0  0  0  0  0  0  0  0  0  0  0  0
   20.0959  -11.8781  -20.7106 C   0  0  0  0  0  0  0  0  0  0  0  0
   19.0005  -12.8296  -20.6394 C   0  0  0  0  0  0  0  0  0  0  0  0
   18.9772  -14.0306  -20.9593 O   0  0  0  0  0  0  0  0  0  0  0  0
   22.4875  -11.4858  -17.8253 C   0  0  0  0  0  0  0  0  0  0  0  0
   22.0066  -11.7587  -16.7084 O   0  0  0  0  0  0  0  0  0  0  0  0
   17.7722  -12.3369  -20.1351 O   0  0  0  0  0  0  0  0  0  0  0  0
   26.2968  -11.8534  -15.5822 C   0  0  0  0  0  0  0  0  0  0  0  0
   26.2586  -11.1757  -16.9399 C   0  0  0  0  0  0  0  0  0  0  0  0
   25.5416   -9.8773  -16.8665 C   0  0  2  0  0  0  0  0  0  0  0  0
   26.2042   -9.0999  -15.7180 C   0  0  0  0  0  0  0  0  0  0  0  0
   24.0552   -9.9402  -16.6088 C   0  0  2  0  0  0  0  0  0  0  0  0
   23.5211  -10.5212  -17.8946 N   0  0  0  0  0  0  0  0  0  0  0  0
   23.4496   -8.6066  -16.5475 C   0  0  0  0  0  0  0  0  0  0  0  0
   23.8615   -7.7838  -17.4792 O   0  0  0  0  0  0  0  0  0  0  0  0
   22.4879   -8.0969  -15.6391 N   0  0  0  0  0  0  0  0  0  0  0  0
   21.6904   -8.6950  -14.6075 C   0  0  0  0  0  0  0  0  0  0  0  0
   21.6541   -7.5579  -13.5620 C   0  0  0  0  0  0  0  0  0  0  0  0
   21.1754   -6.4427  -14.5094 C   0  0  0  0  0  0  0  0  0  0  0  0
   22.0897   -6.6677  -15.6706 C   0  0  1  0  0  0  0  0  0  0  0  0
   23.2974   -5.8455  -15.4702 C   0  0  0  0  0  0  0  0  0  0  0  0
   24.3827   -6.4053  -15.1243 O   0  0  0  0  0  0  0  0  0  0  0  0
   23.3294   -4.4905  -15.6363 O   0  0  0  0  0  0  0  0  0  0  0  0
  2  1  1  1
  2  7  1  0
  3  2  1  0
  4  3  1  0
  5  4  1  0
  6  5  2  0
  7  8  2  0
  9  5  1  0
 11 10  1  0
 11 12  1  0
 12 13  1  1
 14 12  1  0
 15  7  1  0
 14 15  1  6
 16 14  1  0
 16 17  2  0
 18 16  1  0
 19 18  1  0
 20 19  1  0
 21 22  1  0
 21 20  1  0
 22 18  1  0
 22 23  1  1
 24 23  2  0
 25 23  1  0
M  END
$$$$
