EIP.pdb
     RDKit          3D

 25 25  0  0  1  0  0  0  0  0999 V2000
   25.3800  -22.1721  -19.8150 N   0  0  0  0  0  0  0  0  0  0  0  0
   24.5181  -21.6821  -18.8083 C   0  0  1  0  0  0  0  0  0  0  0  0
   23.3845  -22.6292  -18.5397 C   0  0  0  0  0  0  0  0  0  0  0  0
   22.4646  -22.2213  -17.4621 C   0  0  0  0  0  0  0  0  0  0  0  0
   21.3092  -23.0480  -17.1589 C   0  0  0  0  0  0  0  0  0  0  0  0
   21.1187  -23.8154  -16.1998 O   0  0  0  0  0  0  0  0  0  0  0  0
   25.2001  -21.4630  -17.4852 C   0  0  0  0  0  0  0  0  0  0  0  0
   25.9724  -22.3498  -17.0724 O   0  0  0  0  0  0  0  0  0  0  0  0
   20.2330  -22.9845  -18.0774 O   0  0  0  0  0  0  0  0  0  0  0  0
   28.4104  -18.4066  -14.5082 C   0  0  0  0  0  0  0  0  0  0  0  0
   26.9329  -18.1160  -14.3168 C   0  0  0  0  0  0  0  0  0  0  0  0
   26.1353  -18.6444  -15.4525 C   0  0  2  0  0  0  0  0  0  0  0  0
   24.7856  -17.9115  -15.3902 C   0  0  0  0  0  0  0  0  0  0  0  0
   25.8741  -20.1315  -15.4605 C   0  0  2  0  0  0  0  0  0  0  0  0
   25.0133  -20.3093  -16.6867 N   0  0  0  0  0  0  0  0  0  0  0  0
   25.0025  -20.5440  -14.3564 C   0  0  0  0  0  0  0  0  0  0  0  0
   23.7251  -20.3648  -14.5818 O   0  0  0  0  0  0  0  0  0  0  0  0
   25.3464  -21.1099  -13.1029 N   0  0  0  0  0  0  0  0  0  0  0  0
   26.5944  -21.4479  -12.4816 C   0  0  0  0  0  0  0  0  0  0  0  0
   26.2891  -21.1213  -11.0025 C   0  0  0  0  0  0  0  0  0  0  0  0
   24.9959  -21.9489  -10.8873 C   0  0  0  0  0  0  0  0  0  0  0  0
   24.2973  -21.5290  -12.1406 C   0  0  1  0  0  0  0  0  0  0  0  0
   23.4594  -20.3564  -11.8283 C   0  0  0  0  0  0  0  0  0  0  0  0
   23.8542  -19.1992  -12.1688 O   0  0  0  0  0  0  0  0  0  0  0  0
   22.2582  -20.4317  -11.1833 O   0  0  0  0  0  0  0  0  0  0  0  0
  2  1  1  6
  2  7  1  0
  3  2  1  0
  4  3  1  0
  5  4  1  0
  6  5  2  0
  7  8  2  0
  9  5  1  0
 11 10  1  0
 11 12  1  0
 12 13  1  1
 14 12  1  0
 15  7  1  0
 14 15  1  6
 16 14  1  0
 16 17  2  0
 18 16  1  0
 19 18  1  0
 20 19  1  0
 21 22  1  0
 21 20  1  0
 22 18  1  0
 22 23  1  1
 24 23  2  0
 25 23  1  0
M  END
$$$$
