EIP.pdb
     RDKit          3D

 25 25  0  0  1  0  0  0  0  0999 V2000
   22.1897  -20.7042  -10.3978 N   0  0  0  0  0  0  0  0  0  0  0  0
   22.6928  -21.0542  -11.6709 C   0  0  1  0  0  0  0  0  0  0  0  0
   21.6960  -20.7724  -12.7577 C   0  0  0  0  0  0  0  0  0  0  0  0
   20.8422  -21.9118  -13.1405 C   0  0  0  0  0  0  0  0  0  0  0  0
   19.4247  -21.8794  -12.8241 C   0  0  0  0  0  0  0  0  0  0  0  0
   18.5627  -22.7622  -12.9752 O   0  0  0  0  0  0  0  0  0  0  0  0
   23.9440  -20.3095  -12.0501 C   0  0  0  0  0  0  0  0  0  0  0  0
   24.0333  -19.1114  -11.7191 O   0  0  0  0  0  0  0  0  0  0  0  0
   18.9341  -20.6760  -12.2611 O   0  0  0  0  0  0  0  0  0  0  0  0
   28.4503  -21.9440  -10.3555 C   0  0  0  0  0  0  0  0  0  0  0  0
   27.3969  -20.9692  -10.8498 C   0  0  0  0  0  0  0  0  0  0  0  0
   27.3379  -20.9568  -12.3335 C   0  0  2  0  0  0  0  0  0  0  0  0
   28.7166  -20.4639  -12.8011 C   0  0  0  0  0  0  0  0  0  0  0  0
   26.2778  -20.0831  -12.9601 C   0  0  2  0  0  0  0  0  0  0  0  0
   25.0209  -20.8931  -12.7595 N   0  0  0  0  0  0  0  0  0  0  0  0
   26.4175  -20.0063  -14.4174 C   0  0  0  0  0  0  0  0  0  0  0  0
   26.3680  -21.1648  -15.0257 O   0  0  0  0  0  0  0  0  0  0  0  0
   26.5861  -18.8680  -15.2455 N   0  0  0  0  0  0  0  0  0  0  0  0
   26.6355  -17.4579  -14.9868 C   0  0  0  0  0  0  0  0  0  0  0  0
   27.6754  -16.9992  -16.0336 C   0  0  0  0  0  0  0  0  0  0  0  0
   27.0085  -17.6460  -17.2613 C   0  0  0  0  0  0  0  0  0  0  0  0
   26.7101  -19.0064  -16.7178 C   0  0  1  0  0  0  0  0  0  0  0  0
   27.8634  -19.8790  -17.0059 C   0  0  0  0  0  0  0  0  0  0  0  0
   28.6760  -20.1668  -16.0743 O   0  0  0  0  0  0  0  0  0  0  0  0
   28.1231  -20.4129  -18.2357 O   0  0  0  0  0  0  0  0  0  0  0  0
  2  1  1  1
  2  7  1  0
  3  2  1  0
  4  3  1  0
  5  4  1  0
  6  5  2  0
  7  8  2  0
  9  5  1  0
 11 10  1  0
 11 12  1  0
 12 13  1  6
 14 12  1  0
 15  7  1  0
 14 15  1  6
 16 14  1  0
 16 17  2  0
 18 16  1  0
 19 18  1  0
 20 19  1  0
 21 22  1  0
 21 20  1  0
 22 18  1  0
 22 23  1  1
 24 23  2  0
 25 23  1  0
M  END
$$$$
