EIP.pdb
     RDKit          3D

 25 25  0  0  1  0  0  0  0  0999 V2000
   28.5915  -20.7828  -15.7015 N   0  0  0  0  0  0  0  0  0  0  0  0
   27.7412  -19.8973  -15.0021 C   0  0  1  0  0  0  0  0  0  0  0  0
   27.1177  -18.8860  -15.9201 C   0  0  0  0  0  0  0  0  0  0  0  0
   28.0653  -17.9858  -16.6023 C   0  0  0  0  0  0  0  0  0  0  0  0
   28.6193  -18.3742  -17.8879 C   0  0  0  0  0  0  0  0  0  0  0  0
   28.0321  -18.7232  -18.9265 O   0  0  0  0  0  0  0  0  0  0  0  0
   26.5998  -20.5842  -14.3026 C   0  0  0  0  0  0  0  0  0  0  0  0
   26.1707  -21.6475  -14.7910 O   0  0  0  0  0  0  0  0  0  0  0  0
   30.0316  -18.3599  -17.9935 O   0  0  0  0  0  0  0  0  0  0  0  0
   26.3927  -20.4128   -8.9338 C   0  0  0  0  0  0  0  0  0  0  0  0
   26.2524  -21.0558  -10.3016 C   0  0  0  0  0  0  0  0  0  0  0  0
   25.0524  -20.5429  -11.0101 C   0  0  2  0  0  0  0  0  0  0  0  0
   23.8443  -21.1044  -10.2435 C   0  0  0  0  0  0  0  0  0  0  0  0
   24.9147  -20.9199  -12.4657 C   0  0  2  0  0  0  0  0  0  0  0  0
   25.9890  -20.0908  -13.1249 N   0  0  0  0  0  0  0  0  0  0  0  0
   23.6703  -20.4125  -13.0512 C   0  0  0  0  0  0  0  0  0  0  0  0
   23.3510  -19.2003  -12.6724 O   0  0  0  0  0  0  0  0  0  0  0  0
   22.7848  -21.0397  -13.9635 N   0  0  0  0  0  0  0  0  0  0  0  0
   22.8439  -22.2598  -14.7157 C   0  0  0  0  0  0  0  0  0  0  0  0
   21.3620  -22.6968  -14.6916 C   0  0  0  0  0  0  0  0  0  0  0  0
   20.7646  -21.3740  -15.2055 C   0  0  0  0  0  0  0  0  0  0  0  0
   21.5046  -20.3964  -14.3501 C   0  0  1  0  0  0  0  0  0  0  0  0
   20.7138  -20.1658  -13.1270 C   0  0  0  0  0  0  0  0  0  0  0  0
   20.9386  -20.8718  -12.0965 O   0  0  0  0  0  0  0  0  0  0  0  0
   19.7331  -19.2211  -13.0239 O   0  0  0  0  0  0  0  0  0  0  0  0
  2  1  1  6
  2  7  1  0
  3  2  1  0
  4  3  1  0
  5  4  1  0
  6  5  2  0
  7  8  2  0
  9  5  1  0
 11 10  1  0
 11 12  1  0
 12 13  1  1
 14 12  1  0
 15  7  1  0
 14 15  1  6
 16 14  1  0
 16 17  2  0
 18 16  1  0
 19 18  1  0
 20 19  1  0
 21 22  1  0
 21 20  1  0
 22 18  1  0
 22 23  1  1
 24 23  2  0
 25 23  1  0
M  END
$$$$
