EIP.pdb
     RDKit          3D

 25 25  0  0  1  0  0  0  0  0999 V2000
   14.1416  -16.3750    3.6826 N   0  0  0  0  0  0  0  0  0  0  0  0
   14.5695  -16.2963    5.0268 C   0  0  1  0  0  0  0  0  0  0  0  0
   14.2161  -17.5369    5.7949 C   0  0  0  0  0  0  0  0  0  0  0  0
   12.8817  -17.5313    6.4216 C   0  0  0  0  0  0  0  0  0  0  0  0
   12.7097  -16.9216    7.7290 C   0  0  0  0  0  0  0  0  0  0  0  0
   11.9653  -15.9869    8.0713 O   0  0  0  0  0  0  0  0  0  0  0  0
   16.0566  -16.1231    5.1767 C   0  0  0  0  0  0  0  0  0  0  0  0
   16.7960  -16.6726    4.3373 O   0  0  0  0  0  0  0  0  0  0  0  0
   13.4955  -17.4556    8.7793 O   0  0  0  0  0  0  0  0  0  0  0  0
   19.0025  -12.6549    4.5014 C   0  0  0  0  0  0  0  0  0  0  0  0
   17.9592  -12.7261    5.6016 C   0  0  0  0  0  0  0  0  0  0  0  0
   18.3218  -13.7509    6.6132 C   0  0  2  0  0  0  0  0  0  0  0  0
   19.8020  -13.5030    6.9452 C   0  0  0  0  0  0  0  0  0  0  0  0
   18.1574  -15.1942    6.2015 C   0  0  2  0  0  0  0  0  0  0  0  0
   16.6595  -15.3732    6.2149 N   0  0  0  0  0  0  0  0  0  0  0  0
   18.6311  -16.1196    7.2351 C   0  0  0  0  0  0  0  0  0  0  0  0
   18.2334  -15.8238    8.4471 O   0  0  0  0  0  0  0  0  0  0  0  0
   19.4391  -17.2770    7.1035 N   0  0  0  0  0  0  0  0  0  0  0  0
   20.0893  -17.9054    5.9898 C   0  0  0  0  0  0  0  0  0  0  0  0
   21.3801  -18.4316    6.6564 C   0  0  0  0  0  0  0  0  0  0  0  0
   20.7030  -19.1815    7.8181 C   0  0  0  0  0  0  0  0  0  0  0  0
   19.7264  -18.1448    8.2725 C   0  0  1  0  0  0  0  0  0  0  0  0
   20.3777  -17.3241    9.3102 C   0  0  0  0  0  0  0  0  0  0  0  0
   20.8409  -16.1829    9.0034 O   0  0  0  0  0  0  0  0  0  0  0  0
   20.5190  -17.7163   10.6106 O   0  0  0  0  0  0  0  0  0  0  0  0
  2  1  1  6
  2  7  1  0
  3  2  1  0
  4  3  1  0
  5  4  1  0
  6  5  2  0
  7  8  2  0
  9  5  1  0
 11 10  1  0
 11 12  1  0
 12 13  1  6
 14 12  1  0
 15  7  1  0
 14 15  1  1
 16 14  1  0
 16 17  2  0
 18 16  1  0
 19 18  1  0
 20 19  1  0
 21 22  1  0
 21 20  1  0
 22 18  1  0
 22 23  1  1
 24 23  2  0
 25 23  1  0
M  END
$$$$
