EIP.pdb
     RDKit          3D

 25 25  0  0  1  0  0  0  0  0999 V2000
   20.6454  -21.0196  -13.2492 N   0  0  0  0  0  0  0  0  0  0  0  0
   21.7852  -21.3838  -14.0007 C   0  0  1  0  0  0  0  0  0  0  0  0
   21.4850  -21.4413  -15.4707 C   0  0  0  0  0  0  0  0  0  0  0  0
   20.6020  -20.3740  -15.9756 C   0  0  0  0  0  0  0  0  0  0  0  0
   21.1806  -19.1124  -16.4048 C   0  0  0  0  0  0  0  0  0  0  0  0
   22.0853  -18.9002  -17.2303 O   0  0  0  0  0  0  0  0  0  0  0  0
   22.9379  -20.4289  -13.8481 C   0  0  0  0  0  0  0  0  0  0  0  0
   22.7000  -19.2949  -13.3892 O   0  0  0  0  0  0  0  0  0  0  0  0
   20.6504  -17.9428  -15.8074 O   0  0  0  0  0  0  0  0  0  0  0  0
   27.0052  -21.9444  -11.0708 C   0  0  0  0  0  0  0  0  0  0  0  0
   25.9468  -21.0573  -11.7009 C   0  0  0  0  0  0  0  0  0  0  0  0
   26.3423  -20.6495  -13.0729 C   0  0  2  0  0  0  0  0  0  0  0  0
   27.6641  -19.8812  -12.9143 C   0  0  0  0  0  0  0  0  0  0  0  0
   25.3670  -19.7766  -13.8257 C   0  0  2  0  0  0  0  0  0  0  0  0
   24.2726  -20.7469  -14.1959 N   0  0  0  0  0  0  0  0  0  0  0  0
   25.9022  -19.3405  -15.1189 C   0  0  0  0  0  0  0  0  0  0  0  0
   26.2799  -20.3183  -15.9037 O   0  0  0  0  0  0  0  0  0  0  0  0
   26.0553  -18.0278  -15.6318 N   0  0  0  0  0  0  0  0  0  0  0  0
   25.8188  -16.7217  -15.0876 C   0  0  0  0  0  0  0  0  0  0  0  0
   26.9684  -15.9168  -15.7343 C   0  0  0  0  0  0  0  0  0  0  0  0
   26.6914  -16.3262  -17.1924 C   0  0  0  0  0  0  0  0  0  0  0  0
   26.5098  -17.8008  -17.0261 C   0  0  1  0  0  0  0  0  0  0  0  0
   27.8241  -18.4475  -17.1964 C   0  0  0  0  0  0  0  0  0  0  0  0
   28.4577  -18.8515  -16.1736 O   0  0  0  0  0  0  0  0  0  0  0  0
   28.4205  -18.6475  -18.4085 O   0  0  0  0  0  0  0  0  0  0  0  0
  2  1  1  1
  2  7  1  0
  3  2  1  0
  4  3  1  0
  5  4  1  0
  6  5  2  0
  7  8  2  0
  9  5  1  0
 11 10  1  0
 11 12  1  0
 12 13  1  1
 14 12  1  0
 15  7  1  0
 14 15  1  6
 16 14  1  0
 16 17  2  0
 18 16  1  0
 19 18  1  0
 20 19  1  0
 21 22  1  0
 21 20  1  0
 22 18  1  0
 22 23  1  1
 24 23  2  0
 25 23  1  0
M  END
$$$$
