EIP.pdb
     RDKit          3D

 25 25  0  0  1  0  0  0  0  0999 V2000
   29.0962  -19.6155  -15.1037 N   0  0  0  0  0  0  0  0  0  0  0  0
   28.0753  -18.9904  -14.3531 C   0  0  1  0  0  0  0  0  0  0  0  0
   27.2414  -18.0770  -15.2043 C   0  0  0  0  0  0  0  0  0  0  0  0
   27.9998  -17.1585  -16.0730 C   0  0  0  0  0  0  0  0  0  0  0  0
   27.5359  -16.9105  -17.4272 C   0  0  0  0  0  0  0  0  0  0  0  0
   26.5681  -17.4034  -18.0317 O   0  0  0  0  0  0  0  0  0  0  0  0
   27.1154  -19.9591  -13.7175 C   0  0  0  0  0  0  0  0  0  0  0  0
   26.9550  -21.0668  -14.2656 O   0  0  0  0  0  0  0  0  0  0  0  0
   28.2812  -15.9745  -18.1850 O   0  0  0  0  0  0  0  0  0  0  0  0
   26.5806  -20.0519   -8.3286 C   0  0  0  0  0  0  0  0  0  0  0  0
   26.6849  -20.6556   -9.7173 C   0  0  0  0  0  0  0  0  0  0  0  0
   25.4475  -20.4073  -10.4998 C   0  0  2  0  0  0  0  0  0  0  0  0
   24.3540  -21.2548   -9.8300 C   0  0  0  0  0  0  0  0  0  0  0  0
   25.4947  -20.7577  -11.9676 C   0  0  2  0  0  0  0  0  0  0  0  0
   26.3872  -19.6822  -12.5357 N   0  0  0  0  0  0  0  0  0  0  0  0
   24.2066  -20.5316  -12.6300 C   0  0  0  0  0  0  0  0  0  0  0  0
   23.6204  -19.4081  -12.3000 O   0  0  0  0  0  0  0  0  0  0  0  0
   23.5246  -21.3440  -13.5706 N   0  0  0  0  0  0  0  0  0  0  0  0
   23.8701  -22.5491  -14.2678 C   0  0  0  0  0  0  0  0  0  0  0  0
   22.5022  -23.2658  -14.3199 C   0  0  0  0  0  0  0  0  0  0  0  0
   21.6985  -22.0994  -14.9233 C   0  0  0  0  0  0  0  0  0  0  0  0
   22.1746  -20.9734  -14.0629 C   0  0  1  0  0  0  0  0  0  0  0  0
   21.2707  -20.8682  -12.9025 C   0  0  0  0  0  0  0  0  0  0  0  0
   21.5951  -21.4209  -11.8070 O   0  0  0  0  0  0  0  0  0  0  0  0
   20.0801  -20.1998  -12.9257 O   0  0  0  0  0  0  0  0  0  0  0  0
  2  1  1  6
  2  7  1  0
  3  2  1  0
  4  3  1  0
  5  4  1  0
  6  5  2  0
  7  8  2  0
  9  5  1  0
 11 10  1  0
 11 12  1  0
 12 13  1  1
 14 12  1  0
 15  7  1  0
 14 15  1  6
 16 14  1  0
 16 17  2  0
 18 16  1  0
 19 18  1  0
 20 19  1  0
 21 22  1  0
 21 20  1  0
 22 18  1  0
 22 23  1  1
 24 23  2  0
 25 23  1  0
M  END
$$$$
