EIP.pdb
     RDKit          3D

 25 25  0  0  1  0  0  0  0  0999 V2000
   26.1358  -33.8865   -6.1497 N   0  0  0  0  0  0  0  0  0  0  0  0
   25.3214  -34.1432   -5.0240 C   0  0  1  0  0  0  0  0  0  0  0  0
   25.3103  -35.6018   -4.6686 C   0  0  0  0  0  0  0  0  0  0  0  0
   24.7535  -36.4972   -5.6991 C   0  0  0  0  0  0  0  0  0  0  0  0
   24.6697  -37.9234   -5.4357 C   0  0  0  0  0  0  0  0  0  0  0  0
   24.2194  -38.8327   -6.1538 O   0  0  0  0  0  0  0  0  0  0  0  0
   25.7620  -33.4155   -3.7830 C   0  0  0  0  0  0  0  0  0  0  0  0
   26.8768  -32.8585   -3.7974 O   0  0  0  0  0  0  0  0  0  0  0  0
   25.1680  -38.3615   -4.1845 O   0  0  0  0  0  0  0  0  0  0  0  0
   23.1132  -29.4827   -1.9547 C   0  0  0  0  0  0  0  0  0  0  0  0
   24.1997  -30.4753   -2.3267 C   0  0  0  0  0  0  0  0  0  0  0  0
   24.3811  -31.4907   -1.2585 C   0  0  2  0  0  0  0  0  0  0  0  0
   24.6634  -30.6970    0.0272 C   0  0  0  0  0  0  0  0  0  0  0  0
   25.4942  -32.4909   -1.4592 C   0  0  2  0  0  0  0  0  0  0  0  0
   24.9827  -33.3292   -2.6045 N   0  0  0  0  0  0  0  0  0  0  0  0
   25.5907  -33.4392   -0.3454 C   0  0  0  0  0  0  0  0  0  0  0  0
   24.4504  -33.9813    0.0017 O   0  0  0  0  0  0  0  0  0  0  0  0
   26.7316  -33.8503    0.3888 N   0  0  0  0  0  0  0  0  0  0  0  0
   28.1340  -33.5724    0.2710 C   0  0  0  0  0  0  0  0  0  0  0  0
   28.5585  -33.5464    1.7565 C   0  0  0  0  0  0  0  0  0  0  0  0
   27.9614  -34.9100    2.1495 C   0  0  0  0  0  0  0  0  0  0  0  0
   26.6089  -34.8004    1.5222 C   0  0  1  0  0  0  0  0  0  0  0  0
   25.6873  -34.2196    2.5162 C   0  0  0  0  0  0  0  0  0  0  0  0
   25.2904  -34.9312    3.4894 O   0  0  0  0  0  0  0  0  0  0  0  0
   25.2212  -32.9373    2.4612 O   0  0  0  0  0  0  0  0  0  0  0  0
  2  1  1  6
  2  7  1  0
  3  2  1  0
  4  3  1  0
  5  4  1  0
  6  5  2  0
  7  8  2  0
  9  5  1  0
 11 10  1  0
 11 12  1  0
 12 13  1  1
 14 12  1  0
 15  7  1  0
 14 15  1  6
 16 14  1  0
 16 17  2  0
 18 16  1  0
 19 18  1  0
 20 19  1  0
 21 22  1  0
 21 20  1  0
 22 18  1  0
 22 23  1  1
 24 23  2  0
 25 23  1  0
M  END
$$$$
