EIP.pdb
     RDKit          3D

 25 25  0  0  1  0  0  0  0  0999 V2000
   25.7229  -23.9103  -18.8493 N   0  0  0  0  0  0  0  0  0  0  0  0
   25.2050  -22.7588  -18.2152 C   0  0  1  0  0  0  0  0  0  0  0  0
   23.7057  -22.7920  -18.1436 C   0  0  0  0  0  0  0  0  0  0  0  0
   23.0069  -22.1291  -19.2598 C   0  0  0  0  0  0  0  0  0  0  0  0
   23.3287  -22.5031  -20.6262 C   0  0  0  0  0  0  0  0  0  0  0  0
   23.2539  -23.6144  -21.1780 O   0  0  0  0  0  0  0  0  0  0  0  0
   25.6856  -22.5823  -16.8004 C   0  0  0  0  0  0  0  0  0  0  0  0
   25.9860  -23.6046  -16.1539 O   0  0  0  0  0  0  0  0  0  0  0  0
   23.7974  -21.4648  -21.4678 O   0  0  0  0  0  0  0  0  0  0  0  0
   28.9726  -18.4550  -13.9451 C   0  0  0  0  0  0  0  0  0  0  0  0
   28.1195  -19.6852  -13.6946 C   0  0  0  0  0  0  0  0  0  0  0  0
   27.3895  -20.0859  -14.9242 C   0  0  2  0  0  0  0  0  0  0  0  0
   26.5712  -18.8539  -15.3428 C   0  0  0  0  0  0  0  0  0  0  0  0
   26.4539  -21.2644  -14.8005 C   0  0  2  0  0  0  0  0  0  0  0  0
   25.8147  -21.3236  -16.1658 N   0  0  0  0  0  0  0  0  0  0  0  0
   25.3320  -20.9852  -13.8991 C   0  0  0  0  0  0  0  0  0  0  0  0
   24.3127  -20.3966  -14.4729 O   0  0  0  0  0  0  0  0  0  0  0  0
   25.1975  -21.2692  -12.5167 N   0  0  0  0  0  0  0  0  0  0  0  0
   26.0675  -21.8604  -11.5413 C   0  0  0  0  0  0  0  0  0  0  0  0
   25.6950  -21.0500  -10.2796 C   0  0  0  0  0  0  0  0  0  0  0  0
   24.1733  -21.2729  -10.3519 C   0  0  0  0  0  0  0  0  0  0  0  0
   23.9297  -20.9869  -11.7989 C   0  0  1  0  0  0  0  0  0  0  0  0
   23.6279  -19.5502  -11.9385 C   0  0  0  0  0  0  0  0  0  0  0  0
   24.5159  -18.7680  -12.3974 O   0  0  0  0  0  0  0  0  0  0  0  0
   22.4293  -18.9899  -11.6008 O   0  0  0  0  0  0  0  0  0  0  0  0
  2  1  1  1
  2  7  1  0
  3  2  1  0
  4  3  1  0
  5  4  1  0
  6  5  2  0
  7  8  2  0
  9  5  1  0
 11 10  1  0
 11 12  1  0
 12 13  1  1
 14 12  1  0
 15  7  1  0
 14 15  1  6
 16 14  1  0
 16 17  2  0
 18 16  1  0
 19 18  1  0
 20 19  1  0
 21 22  1  0
 21 20  1  0
 22 18  1  0
 22 23  1  1
 24 23  2  0
 25 23  1  0
M  END
$$$$
