WPH.pdb
     RDKit          3D

 32 35  0  0  1  0  0  0  0  0999 V2000
    6.3722  -17.9595   24.3181 N   0  0  0  0  0  0  0  0  0  0  0  0
    6.8728  -16.6439   23.8882 C   0  0  1  0  0  0  0  0  0  0  0  0
    7.6979  -16.1464   25.0711 C   0  0  0  0  0  0  0  0  0  0  0  0
    7.0323  -15.0123   25.7733 C   0  0  0  0  0  0  0  0  0  0  0  0
    5.7144  -15.0801   26.2428 C   0  0  0  0  0  0  0  0  0  0  0  0
    5.4114  -13.9419   26.8576 N   0  0  0  0  0  0  0  0  0  0  0  0
    6.4888  -13.1221   26.8095 C   0  0  0  0  0  0  0  0  0  0  0  0
    6.6493  -11.8477   27.2984 C   0  0  0  0  0  0  0  0  0  0  0  0
    7.8619  -11.2204   27.1016 C   0  0  0  0  0  0  0  0  0  0  0  0
    8.8644  -11.8761   26.4309 C   0  0  0  0  0  0  0  0  0  0  0  0
    8.7098  -13.1606   25.9354 C   0  0  0  0  0  0  0  0  0  0  0  0
    7.4932  -13.7785   26.1393 C   0  0  0  0  0  0  0  0  0  0  0  0
    7.6749  -16.7592   22.6690 C   0  0  0  0  0  0  0  0  0  0  0  0
    8.2486  -17.8896   22.4815 O   0  0  0  0  0  0  0  0  0  0  0  0
    7.8457  -15.7146   21.7076 N   0  0  0  0  0  0  0  0  0  0  0  0
    7.1486  -14.4822   21.7299 C   0  0  0  0  0  0  0  0  0  0  0  0
    7.7563  -13.6658   20.6039 C   0  0  0  0  0  0  0  0  0  0  0  0
    8.2805  -14.7434   19.6389 C   0  0  0  0  0  0  0  0  0  0  0  0
    8.7385  -15.7661   20.6010 C   0  0  1  0  0  0  0  0  0  0  0  0
   10.1668  -15.6490   20.9793 C   0  0  0  0  0  0  0  0  0  0  0  0
   10.4277  -15.0244   22.0355 O   0  0  0  0  0  0  0  0  0  0  0  0
   11.2503  -16.1856   20.2406 N   0  0  0  0  0  0  0  0  0  0  0  0
   12.1757  -17.1606   20.7808 C   0  0  1  0  0  0  0  0  0  0  0  0
   11.4253  -18.4451   21.0904 C   0  0  0  0  0  0  0  0  0  0  0  0
   12.3174  -19.4493   21.7321 C   0  0  0  0  0  0  0  0  0  0  0  0
   13.6513  -19.3040   22.0084 C   0  0  0  0  0  0  0  0  0  0  0  0
   14.0968  -20.4295   22.5861 N   0  0  0  0  0  0  0  0  0  0  0  0
   13.0296  -21.2583   22.6599 C   0  0  0  0  0  0  0  0  0  0  0  0
   11.9504  -20.6684   22.1438 N   0  0  0  0  0  0  0  0  0  0  0  0
   13.2678  -17.4840   19.8465 C   0  0  0  0  0  0  0  0  0  0  0  0
   14.5649  -17.4831   20.3249 O   0  0  0  0  0  0  0  0  0  0  0  0
   13.0774  -17.7592   18.6412 O   0  0  0  0  0  0  0  0  0  0  0  0
  2  3  1  0
  2  1  1  1
  4  5  2  0
  4  3  1  0
  6  5  1  0
  7 12  2  0
  7  6  1  0
  8  7  1  0
  9 10  1  0
  9  8  2  0
 10 11  2  0
 11 12  1  0
 12  4  1  0
 13  2  1  0
 14 13  2  0
 15 13  1  0
 16 15  1  0
 17 16  1  0
 18 19  1  0
 18 17  1  0
 19 15  1  0
 20 22  1  0
 19 20  1  1
 21 20  2  0
 23 22  1  0
 23 30  1  0
 23 24  1  6
 25 29  1  0
 25 24  1  0
 26 25  2  0
 27 26  1  0
 27 28  1  0
 28 29  2  0
 30 31  1  0
 32 30  2  0
M  END
$$$$
