WPH.pdb
     RDKit          3D

 32 35  0  0  1  0  0  0  0  0999 V2000
    6.8097  -18.3901   24.6052 N   0  0  0  0  0  0  0  0  0  0  0  0
    7.0410  -17.0069   24.1586 C   0  0  1  0  0  0  0  0  0  0  0  0
    7.6960  -16.3256   25.3563 C   0  0  0  0  0  0  0  0  0  0  0  0
    6.9177  -15.1392   25.8132 C   0  0  0  0  0  0  0  0  0  0  0  0
    5.5293  -15.1679   25.9958 C   0  0  0  0  0  0  0  0  0  0  0  0
    5.1239  -13.9849   26.4444 N   0  0  0  0  0  0  0  0  0  0  0  0
    6.2018  -13.1732   26.5644 C   0  0  0  0  0  0  0  0  0  0  0  0
    6.2784  -11.8650   26.9786 C   0  0  0  0  0  0  0  0  0  0  0  0
    7.5165  -11.2571   26.9971 C   0  0  0  0  0  0  0  0  0  0  0  0
    8.6261  -11.9647   26.6062 C   0  0  0  0  0  0  0  0  0  0  0  0
    8.5565  -13.2835   26.1877 C   0  0  0  0  0  0  0  0  0  0  0  0
    7.3132  -13.8815   26.1745 C   0  0  0  0  0  0  0  0  0  0  0  0
    7.8973  -16.9737   22.9718 C   0  0  0  0  0  0  0  0  0  0  0  0
    8.6383  -18.0028   22.7875 O   0  0  0  0  0  0  0  0  0  0  0  0
    7.9489  -15.8923   22.0376 N   0  0  0  0  0  0  0  0  0  0  0  0
    7.1150  -14.7490   22.0875 C   0  0  0  0  0  0  0  0  0  0  0  0
    7.6269  -13.8399   20.9851 C   0  0  0  0  0  0  0  0  0  0  0  0
    8.2731  -14.8255   19.9959 C   0  0  0  0  0  0  0  0  0  0  0  0
    8.8437  -15.8131   20.9343 C   0  0  1  0  0  0  0  0  0  0  0  0
   10.2484  -15.5427   21.3220 C   0  0  0  0  0  0  0  0  0  0  0  0
   10.4614  -14.5207   22.0176 O   0  0  0  0  0  0  0  0  0  0  0  0
   11.3594  -16.3470   20.9663 N   0  0  0  0  0  0  0  0  0  0  0  0
   12.2603  -16.9330   21.9377 C   0  0  1  0  0  0  0  0  0  0  0  0
   11.4537  -17.7170   22.9593 C   0  0  0  0  0  0  0  0  0  0  0  0
   12.3431  -18.4165   23.9266 C   0  0  0  0  0  0  0  0  0  0  0  0
   13.7131  -18.4163   23.9298 C   0  0  0  0  0  0  0  0  0  0  0  0
   14.1417  -19.1628   24.9584 N   0  0  0  0  0  0  0  0  0  0  0  0
   13.0282  -19.6158   25.5797 C   0  0  0  0  0  0  0  0  0  0  0  0
   11.9372  -19.1662   24.9579 N   0  0  0  0  0  0  0  0  0  0  0  0
   13.2358  -17.8510   21.3247 C   0  0  0  0  0  0  0  0  0  0  0  0
   13.1238  -18.1240   19.9740 O   0  0  0  0  0  0  0  0  0  0  0  0
   14.1603  -18.3953   21.9680 O   0  0  0  0  0  0  0  0  0  0  0  0
  2  3  1  0
  2  1  1  1
  4  5  2  0
  4  3  1  0
  6  5  1  0
  7 12  2  0
  7  6  1  0
  8  7  1  0
  9 10  1  0
  9  8  2  0
 10 11  2  0
 11 12  1  0
 12  4  1  0
 13  2  1  0
 14 13  2  0
 15 13  1  0
 16 15  1  0
 17 16  1  0
 18 19  1  0
 18 17  1  0
 19 15  1  0
 20 22  1  0
 19 20  1  1
 21 20  2  0
 23 22  1  0
 23 30  1  0
 23 24  1  1
 25 29  1  0
 25 24  1  0
 26 25  2  0
 27 26  1  0
 27 28  1  0
 28 29  2  0
 30 31  1  0
 32 30  2  0
M  END
$$$$
