WPH.pdb
     RDKit          3D

 32 35  0  0  1  0  0  0  0  0999 V2000
    6.0257  -18.6505   24.7900 N   0  0  0  0  0  0  0  0  0  0  0  0
    6.4516  -17.2418   24.7773 C   0  0  1  0  0  0  0  0  0  0  0  0
    6.8773  -16.9608   26.2152 C   0  0  0  0  0  0  0  0  0  0  0  0
    6.9943  -15.4991   26.4831 C   0  0  0  0  0  0  0  0  0  0  0  0
    5.8855  -14.6441   26.5203 C   0  0  0  0  0  0  0  0  0  0  0  0
    6.2923  -13.4152   26.8194 N   0  0  0  0  0  0  0  0  0  0  0  0
    7.6372  -13.4301   26.9814 C   0  0  0  0  0  0  0  0  0  0  0  0
    8.4999  -12.4047   27.2863 C   0  0  0  0  0  0  0  0  0  0  0  0
    9.8460  -12.6901   27.3822 C   0  0  0  0  0  0  0  0  0  0  0  0
   10.2843  -13.9742   27.1731 C   0  0  0  0  0  0  0  0  0  0  0  0
    9.4205  -15.0128   26.8656 C   0  0  0  0  0  0  0  0  0  0  0  0
    8.0764  -14.7158   26.7735 C   0  0  0  0  0  0  0  0  0  0  0  0
    7.5472  -17.0321   23.8294 C   0  0  0  0  0  0  0  0  0  0  0  0
    8.3917  -17.9907   23.7293 O   0  0  0  0  0  0  0  0  0  0  0  0
    7.7193  -15.8559   23.0345 N   0  0  0  0  0  0  0  0  0  0  0  0
    6.8248  -14.7583   23.0222 C   0  0  0  0  0  0  0  0  0  0  0  0
    7.4913  -13.7172   22.1415 C   0  0  0  0  0  0  0  0  0  0  0  0
    8.3807  -14.5651   21.2157 C   0  0  0  0  0  0  0  0  0  0  0  0
    8.8105  -15.6240   22.1514 C   0  0  1  0  0  0  0  0  0  0  0  0
   10.0902  -15.3413   22.8437 C   0  0  0  0  0  0  0  0  0  0  0  0
   10.0356  -14.6285   23.8745 O   0  0  0  0  0  0  0  0  0  0  0  0
   11.3604  -15.8125   22.4289 N   0  0  0  0  0  0  0  0  0  0  0  0
   12.3856  -16.2532   23.3528 C   0  0  1  0  0  0  0  0  0  0  0  0
   11.8974  -17.4892   24.0897 C   0  0  0  0  0  0  0  0  0  0  0  0
   12.9265  -17.9911   25.0412 C   0  0  0  0  0  0  0  0  0  0  0  0
   14.1718  -17.4624   25.2569 C   0  0  0  0  0  0  0  0  0  0  0  0
   14.7970  -18.1983   26.1879 N   0  0  0  0  0  0  0  0  0  0  0  0
   13.9276  -19.1748   26.5368 C   0  0  0  0  0  0  0  0  0  0  0  0
   12.7939  -19.0527   25.8447 N   0  0  0  0  0  0  0  0  0  0  0  0
   13.6493  -16.5944   22.6768 C   0  0  0  0  0  0  0  0  0  0  0  0
   13.6033  -17.4385   21.5829 O   0  0  0  0  0  0  0  0  0  0  0  0
   14.7616  -16.1568   23.0455 O   0  0  0  0  0  0  0  0  0  0  0  0
  2  3  1  0
  2  1  1  1
  4  5  2  0
  4  3  1  0
  6  5  1  0
  7 12  2  0
  7  6  1  0
  8  7  1  0
  9 10  1  0
  9  8  2  0
 10 11  2  0
 11 12  1  0
 12  4  1  0
 13  2  1  0
 14 13  2  0
 15 13  1  0
 16 15  1  0
 17 16  1  0
 18 19  1  0
 18 17  1  0
 19 15  1  0
 20 22  1  0
 19 20  1  1
 21 20  2  0
 23 22  1  0
 23 30  1  0
 23 24  1  6
 25 29  1  0
 25 24  1  0
 26 25  2  0
 27 26  1  0
 27 28  1  0
 28 29  2  0
 30 31  1  0
 32 30  2  0
M  END
$$$$
