WPH.pdb
     RDKit          3D

 32 35  0  0  1  0  0  0  0  0999 V2000
    6.3834  -18.1688   24.5335 N   0  0  0  0  0  0  0  0  0  0  0  0
    6.7904  -16.8173   24.1167 C   0  0  1  0  0  0  0  0  0  0  0  0
    7.4264  -16.2107   25.3637 C   0  0  0  0  0  0  0  0  0  0  0  0
    6.6478  -15.0456   25.8722 C   0  0  0  0  0  0  0  0  0  0  0  0
    5.2903  -15.1290   26.2069 C   0  0  0  0  0  0  0  0  0  0  0  0
    4.8812  -13.9513   26.6662 N   0  0  0  0  0  0  0  0  0  0  0  0
    5.9268  -13.0902   26.6459 C   0  0  0  0  0  0  0  0  0  0  0  0
    5.9868  -11.7677   27.0149 C   0  0  0  0  0  0  0  0  0  0  0  0
    7.1899  -11.1062   26.8814 C   0  0  0  0  0  0  0  0  0  0  0  0
    8.2823  -11.7767   26.3896 C   0  0  0  0  0  0  0  0  0  0  0  0
    8.2292  -13.1097   26.0159 C   0  0  0  0  0  0  0  0  0  0  0  0
    7.0211  -13.7613   26.1549 C   0  0  0  0  0  0  0  0  0  0  0  0
    7.7280  -16.8731   22.9939 C   0  0  0  0  0  0  0  0  0  0  0  0
    8.2770  -18.0110   22.7794 O   0  0  0  0  0  0  0  0  0  0  0  0
    8.0523  -15.7646   22.1507 N   0  0  0  0  0  0  0  0  0  0  0  0
    7.5402  -14.4548   22.3157 C   0  0  0  0  0  0  0  0  0  0  0  0
    8.2645  -13.6154   21.2791 C   0  0  0  0  0  0  0  0  0  0  0  0
    8.6324  -14.6445   20.1961 C   0  0  0  0  0  0  0  0  0  0  0  0
    8.9335  -15.8221   21.0352 C   0  0  1  0  0  0  0  0  0  0  0  0
   10.3619  -15.9541   21.4080 C   0  0  0  0  0  0  0  0  0  0  0  0
   10.9721  -14.9006   21.7106 O   0  0  0  0  0  0  0  0  0  0  0  0
   11.0831  -17.1732   21.4460 N   0  0  0  0  0  0  0  0  0  0  0  0
   12.5195  -17.2422   21.6215 C   0  0  1  0  0  0  0  0  0  0  0  0
   12.8599  -18.4370   22.4965 C   0  0  0  0  0  0  0  0  0  0  0  0
   12.4715  -18.1957   23.9132 C   0  0  0  0  0  0  0  0  0  0  0  0
   12.0186  -17.0198   24.4510 C   0  0  0  0  0  0  0  0  0  0  0  0
   11.7776  -17.2079   25.7570 N   0  0  0  0  0  0  0  0  0  0  0  0
   12.0852  -18.5011   26.0103 C   0  0  0  0  0  0  0  0  0  0  0  0
   12.5057  -19.1025   24.8965 N   0  0  0  0  0  0  0  0  0  0  0  0
   13.2401  -17.3911   20.3453 C   0  0  0  0  0  0  0  0  0  0  0  0
   14.6223  -17.4053   20.3679 O   0  0  0  0  0  0  0  0  0  0  0  0
   12.6609  -17.5052   19.2425 O   0  0  0  0  0  0  0  0  0  0  0  0
  2  3  1  0
  2  1  1  1
  4  5  2  0
  4  3  1  0
  6  5  1  0
  7 12  2  0
  7  6  1  0
  8  7  1  0
  9 10  1  0
  9  8  2  0
 10 11  2  0
 11 12  1  0
 12  4  1  0
 13  2  1  0
 14 13  2  0
 15 13  1  0
 16 15  1  0
 17 16  1  0
 18 19  1  0
 18 17  1  0
 19 15  1  0
 20 22  1  0
 19 20  1  1
 21 20  2  0
 23 22  1  0
 23 30  1  0
 23 24  1  1
 25 29  1  0
 25 24  1  0
 26 25  2  0
 27 26  1  0
 27 28  1  0
 28 29  2  0
 30 31  1  0
 32 30  2  0
M  END
$$$$
