WPH.pdb
     RDKit          3D

 32 35  0  0  1  0  0  0  0  0999 V2000
    5.3122  -18.0403   22.9184 N   0  0  0  0  0  0  0  0  0  0  0  0
    5.8378  -16.6894   23.1730 C   0  0  1  0  0  0  0  0  0  0  0  0
    5.8934  -16.5839   24.6940 C   0  0  0  0  0  0  0  0  0  0  0  0
    6.2677  -15.2120   25.1412 C   0  0  0  0  0  0  0  0  0  0  0  0
    5.4542  -14.0938   24.9183 C   0  0  0  0  0  0  0  0  0  0  0  0
    6.0251  -13.0240   25.4614 N   0  0  0  0  0  0  0  0  0  0  0  0
    7.1923  -13.3998   26.0374 C   0  0  0  0  0  0  0  0  0  0  0  0
    8.1267  -12.6476   26.7080 C   0  0  0  0  0  0  0  0  0  0  0  0
    9.2510  -13.2829   27.1929 C   0  0  0  0  0  0  0  0  0  0  0  0
    9.4062  -14.6326   26.9956 C   0  0  0  0  0  0  0  0  0  0  0  0
    8.4685  -15.3972   26.3208 C   0  0  0  0  0  0  0  0  0  0  0  0
    7.3475  -14.7513   25.8414 C   0  0  0  0  0  0  0  0  0  0  0  0
    7.1565  -16.5143   22.5619 C   0  0  0  0  0  0  0  0  0  0  0  0
    7.9406  -17.5260   22.6238 O   0  0  0  0  0  0  0  0  0  0  0  0
    7.6014  -15.3166   21.9197 N   0  0  0  0  0  0  0  0  0  0  0  0
    6.7975  -14.1684   21.7184 C   0  0  0  0  0  0  0  0  0  0  0  0
    7.7341  -13.1309   21.1267 C   0  0  0  0  0  0  0  0  0  0  0  0
    8.8135  -13.9886   20.4436 C   0  0  0  0  0  0  0  0  0  0  0  0
    8.9093  -15.1112   21.3987 C   0  0  1  0  0  0  0  0  0  0  0  0
    9.9476  -14.9355   22.4416 C   0  0  0  0  0  0  0  0  0  0  0  0
    9.7505  -14.0396   23.2974 O   0  0  0  0  0  0  0  0  0  0  0  0
   11.1374  -15.6985   22.5413 N   0  0  0  0  0  0  0  0  0  0  0  0
   11.7857  -15.9997   23.8013 C   0  0  1  0  0  0  0  0  0  0  0  0
   10.7867  -16.6676   24.7312 C   0  0  0  0  0  0  0  0  0  0  0  0
   11.4355  -17.0979   26.0001 C   0  0  0  0  0  0  0  0  0  0  0  0
   12.7297  -16.8600   26.3816 C   0  0  0  0  0  0  0  0  0  0  0  0
   12.9311  -17.4097   27.5884 N   0  0  0  0  0  0  0  0  0  0  0  0
   11.7557  -17.9816   27.9383 C   0  0  0  0  0  0  0  0  0  0  0  0
   10.8477  -17.7949   26.9793 N   0  0  0  0  0  0  0  0  0  0  0  0
   12.9381  -16.9039   23.6441 C   0  0  0  0  0  0  0  0  0  0  0  0
   12.7609  -18.0787   22.9372 O   0  0  0  0  0  0  0  0  0  0  0  0
   14.0688  -16.6593   24.1197 O   0  0  0  0  0  0  0  0  0  0  0  0
  2  3  1  0
  2  1  1  1
  4  5  2  0
  4  3  1  0
  6  5  1  0
  7 12  2  0
  7  6  1  0
  8  7  1  0
  9 10  1  0
  9  8  2  0
 10 11  2  0
 11 12  1  0
 12  4  1  0
 13  2  1  0
 14 13  2  0
 15 13  1  0
 16 15  1  0
 17 16  1  0
 18 19  1  0
 18 17  1  0
 19 15  1  0
 20 22  1  0
 19 20  1  1
 21 20  2  0
 23 22  1  0
 23 30  1  0
 23 24  1  1
 25 29  1  0
 25 24  1  0
 26 25  2  0
 27 26  1  0
 27 28  1  0
 28 29  2  0
 30 31  1  0
 32 30  2  0
M  END
$$$$
