KTT.pdb
     RDKit          3D

 24 23  0  0  1  0  0  0  0  0999 V2000
    9.7533  -16.1847   18.9036 N   0  0  0  0  0  0  0  0  0  0  0  0
    9.3302  -14.9346   19.5652 C   0  0  1  0  0  0  0  0  0  0  0  0
    8.4425  -14.1881   18.6499 C   0  0  0  0  0  0  0  0  0  0  0  0
    8.5170  -14.5450   17.2244 C   0  0  0  0  0  0  0  0  0  0  0  0
    7.7678  -13.8270   16.1807 C   0  0  0  0  0  0  0  0  0  0  0  0
    7.9808  -14.1258   14.7490 C   0  0  0  0  0  0  0  0  0  0  0  0
    6.8784  -14.9715   14.2245 N   0  0  0  0  0  0  0  0  0  0  0  0
    8.5302  -15.4432   20.7684 C   0  0  0  0  0  0  0  0  0  0  0  0
    7.6345  -16.2832   20.5844 O   0  0  0  0  0  0  0  0  0  0  0  0
    8.4043  -17.7584   22.1238 C   0  0  0  0  0  0  0  0  0  0  0  0
    8.6583  -16.9391   23.3393 C   0  0  1  0  0  0  0  0  0  0  0  0
   10.0453  -16.8466   23.6169 O   0  0  0  0  0  0  0  0  0  0  0  0
    8.1617  -15.5094   23.2702 C   0  0  2  0  0  0  0  0  0  0  0  0
    8.8100  -14.9606   22.0718 N   0  0  0  0  0  0  0  0  0  0  0  0
    8.4720  -14.6957   24.4472 C   0  0  0  0  0  0  0  0  0  0  0  0
    9.6513  -14.2146   24.6107 O   0  0  0  0  0  0  0  0  0  0  0  0
    6.3302  -11.6425   25.8453 C   0  0  0  0  0  0  0  0  0  0  0  0
    6.6455  -12.6823   26.8959 C   0  0  1  0  0  0  0  0  0  0  0  0
    5.6082  -13.6023   26.9514 O   0  0  0  0  0  0  0  0  0  0  0  0
    7.9341  -13.4299   26.5545 C   0  0  2  0  0  0  0  0  0  0  0  0
    7.5584  -14.3664   25.4740 N   0  0  0  0  0  0  0  0  0  0  0  0
    8.3229  -14.2090   27.7315 C   0  0  0  0  0  0  0  0  0  0  0  0
    8.3405  -15.4690   27.7154 O   0  0  0  0  0  0  0  0  0  0  0  0
    8.6937  -13.6065   28.9299 O   0  0  0  0  0  0  0  0  0  0  0  0
  2  1  1  6
  2  8  1  0
  3  2  1  0
  4  3  1  0
  5  6  1  0
  5  4  1  0
  7  6  1  0
  8 14  1  0
  8  9  2  0
 11 12  1  0
 11 10  1  6
 13 11  1  0
 13 14  1  6
 15 13  1  0
 15 16  2  0
 18 17  1  6
 18 20  1  0
 18 19  1  0
 20 21  1  6
 21 15  1  0
 22 20  1  0
 23 22  2  0
 24 22  1  0
M  END
$$$$
