KTT.pdb
     RDKit          3D

 24 23  0  0  1  0  0  0  0  0999 V2000
    8.9014  -16.8717   19.7044 N   0  0  0  0  0  0  0  0  0  0  0  0
    9.1455  -15.6734   20.5315 C   0  0  1  0  0  0  0  0  0  0  0  0
    8.3031  -14.5683   20.0293 C   0  0  0  0  0  0  0  0  0  0  0  0
    8.2357  -14.4037   18.5687 C   0  0  0  0  0  0  0  0  0  0  0  0
    7.4336  -13.3546   17.9190 C   0  0  0  0  0  0  0  0  0  0  0  0
    7.2670  -13.3236   16.4507 C   0  0  0  0  0  0  0  0  0  0  0  0
    8.5399  -13.6824   15.7751 N   0  0  0  0  0  0  0  0  0  0  0  0
    8.6585  -16.1132   21.9155 C   0  0  0  0  0  0  0  0  0  0  0  0
    7.5580  -16.6798   22.0147 O   0  0  0  0  0  0  0  0  0  0  0  0
    8.0680  -18.3697   23.1726 C   0  0  0  0  0  0  0  0  0  0  0  0
    9.0400  -17.8991   24.1958 C   0  0  1  0  0  0  0  0  0  0  0  0
   10.3624  -18.2899   23.8674 O   0  0  0  0  0  0  0  0  0  0  0  0
    9.0968  -16.3977   24.3906 C   0  0  2  0  0  0  0  0  0  0  0  0
    9.4539  -15.8758   23.0648 N   0  0  0  0  0  0  0  0  0  0  0  0
   10.0553  -15.9472   25.4016 C   0  0  0  0  0  0  0  0  0  0  0  0
   11.3147  -15.9555   25.1509 O   0  0  0  0  0  0  0  0  0  0  0  0
   10.1755  -12.6865   27.6012 C   0  0  0  0  0  0  0  0  0  0  0  0
   10.1954  -13.9371   28.4498 C   0  0  1  0  0  0  0  0  0  0  0  0
    8.8977  -14.2518   28.8271 O   0  0  0  0  0  0  0  0  0  0  0  0
   10.7692  -15.1183   27.6678 C   0  0  2  0  0  0  0  0  0  0  0  0
    9.7188  -15.4772   26.6913 N   0  0  0  0  0  0  0  0  0  0  0  0
   10.9364  -16.2329   28.6023 C   0  0  0  0  0  0  0  0  0  0  0  0
   11.7983  -16.2030   29.5212 O   0  0  0  0  0  0  0  0  0  0  0  0
   10.1573  -17.3838   28.5304 O   0  0  0  0  0  0  0  0  0  0  0  0
  2  1  1  6
  2  8  1  0
  3  2  1  0
  4  3  1  0
  5  6  1  0
  5  4  1  0
  7  6  1  0
  8 14  1  0
  8  9  2  0
 11 12  1  0
 11 10  1  6
 13 11  1  0
 13 14  1  6
 15 13  1  0
 15 16  2  0
 18 17  1  6
 18 20  1  0
 18 19  1  0
 20 21  1  6
 21 15  1  0
 22 20  1  0
 23 22  2  0
 24 22  1  0
M  END
$$$$
