KTT.pdb
     RDKit          3D

 24 23  0  0  1  0  0  0  0  0999 V2000
    7.4706  -17.3849   16.3132 N   0  0  0  0  0  0  0  0  0  0  0  0
    6.8257  -16.9355   17.5628 C   0  0  1  0  0  0  0  0  0  0  0  0
    6.2904  -18.1151   18.2737 C   0  0  0  0  0  0  0  0  0  0  0  0
    6.3691  -19.4021   17.5647 C   0  0  0  0  0  0  0  0  0  0  0  0
    5.2020  -20.2757   17.3628 C   0  0  0  0  0  0  0  0  0  0  0  0
    5.3391  -21.5863   16.6936 C   0  0  0  0  0  0  0  0  0  0  0  0
    5.6296  -22.6503   17.6880 N   0  0  0  0  0  0  0  0  0  0  0  0
    7.9954  -16.3381   18.3508 C   0  0  0  0  0  0  0  0  0  0  0  0
    9.1563  -16.5908   17.9897 O   0  0  0  0  0  0  0  0  0  0  0  0
    8.0252  -12.6507   19.4688 C   0  0  0  0  0  0  0  0  0  0  0  0
    8.3300  -13.5364   20.6246 C   0  0  1  0  0  0  0  0  0  0  0  0
    7.1792  -13.7549   21.4229 O   0  0  0  0  0  0  0  0  0  0  0  0
    8.8421  -14.9160   20.2639 C   0  0  2  0  0  0  0  0  0  0  0  0
    7.7540  -15.5091   19.4754 N   0  0  0  0  0  0  0  0  0  0  0  0
    9.1752  -15.7644   21.4098 C   0  0  0  0  0  0  0  0  0  0  0  0
    8.2506  -16.1887   22.1934 O   0  0  0  0  0  0  0  0  0  0  0  0
   10.4929  -19.1645   21.6002 C   0  0  0  0  0  0  0  0  0  0  0  0
   11.4355  -18.2813   22.3850 C   0  0  1  0  0  0  0  0  0  0  0  0
   12.4534  -17.8457   21.5485 O   0  0  0  0  0  0  0  0  0  0  0  0
   10.7057  -17.0557   22.9337 C   0  0  2  0  0  0  0  0  0  0  0  0
   10.4776  -16.1882   21.7585 N   0  0  0  0  0  0  0  0  0  0  0  0
   11.6165  -16.3675   23.8504 C   0  0  0  0  0  0  0  0  0  0  0  0
   12.1700  -15.2785   23.5408 O   0  0  0  0  0  0  0  0  0  0  0  0
   11.9223  -16.8735   25.1103 O   0  0  0  0  0  0  0  0  0  0  0  0
  2  1  1  6
  2  8  1  0
  3  2  1  0
  4  3  1  0
  5  6  1  0
  5  4  1  0
  7  6  1  0
  8 14  1  0
  8  9  2  0
 11 12  1  0
 11 10  1  6
 13 11  1  0
 13 14  1  1
 15 13  1  0
 15 16  2  0
 18 17  1  6
 18 20  1  0
 18 19  1  0
 20 21  1  6
 21 15  1  0
 22 20  1  0
 23 22  2  0
 24 22  1  0
M  END
$$$$
