KTT.pdb
     RDKit          3D

 24 23  0  0  1  0  0  0  0  0999 V2000
    8.7867  -14.8764   15.1712 N   0  0  0  0  0  0  0  0  0  0  0  0
    8.3353  -15.7623   16.2624 C   0  0  1  0  0  0  0  0  0  0  0  0
    8.8220  -17.1318   15.9964 C   0  0  0  0  0  0  0  0  0  0  0  0
    9.9061  -17.2648   15.0104 C   0  0  0  0  0  0  0  0  0  0  0  0
   10.4251  -18.5678   14.5644 C   0  0  0  0  0  0  0  0  0  0  0  0
   11.5011  -18.6532   13.5547 C   0  0  0  0  0  0  0  0  0  0  0  0
   11.9253  -20.0637   13.3647 N   0  0  0  0  0  0  0  0  0  0  0  0
    9.0511  -15.1828   17.4863 C   0  0  0  0  0  0  0  0  0  0  0  0
   10.1701  -14.6647   17.3401 O   0  0  0  0  0  0  0  0  0  0  0  0
    7.5877  -12.6769   19.7400 C   0  0  0  0  0  0  0  0  0  0  0  0
    8.0432  -13.8075   20.5928 C   0  0  1  0  0  0  0  0  0  0  0  0
    6.9653  -14.6635   20.9314 O   0  0  0  0  0  0  0  0  0  0  0  0
    9.0937  -14.7042   19.9699 C   0  0  2  0  0  0  0  0  0  0  0  0
    8.4433  -15.2381   18.7659 N   0  0  0  0  0  0  0  0  0  0  0  0
    9.5611  -15.7908   20.8328 C   0  0  0  0  0  0  0  0  0  0  0  0
    8.9394  -16.9141   20.8561 O   0  0  0  0  0  0  0  0  0  0  0  0
   12.8589  -17.5150   20.9271 C   0  0  0  0  0  0  0  0  0  0  0  0
   12.5598  -17.0542   22.3352 C   0  0  1  0  0  0  0  0  0  0  0  0
   13.1811  -15.8333   22.5562 O   0  0  0  0  0  0  0  0  0  0  0  0
   11.0564  -16.8736   22.5427 C   0  0  2  0  0  0  0  0  0  0  0  0
   10.6866  -15.7275   21.6854 N   0  0  0  0  0  0  0  0  0  0  0  0
   10.8412  -16.4974   23.9412 C   0  0  0  0  0  0  0  0  0  0  0  0
   10.4459  -15.3450   24.2636 O   0  0  0  0  0  0  0  0  0  0  0  0
   11.0595  -17.3858   24.9899 O   0  0  0  0  0  0  0  0  0  0  0  0
  2  1  1  6
  2  8  1  0
  3  2  1  0
  4  3  1  0
  5  6  1  0
  5  4  1  0
  7  6  1  0
  8 14  1  0
  8  9  2  0
 11 12  1  0
 11 10  1  6
 13 11  1  0
 13 14  1  6
 15 13  1  0
 15 16  2  0
 18 17  1  6
 18 20  1  0
 18 19  1  0
 20 21  1  6
 21 15  1  0
 22 20  1  0
 23 22  2  0
 24 22  1  0
M  END
$$$$
