KTT.pdb
     RDKit          3D

 24 23  0  0  1  0  0  0  0  0999 V2000
    8.5485  -17.1231   16.1438 N   0  0  0  0  0  0  0  0  0  0  0  0
    7.6560  -17.0018   17.3134 C   0  0  1  0  0  0  0  0  0  0  0  0
    7.2698  -18.3560   17.7605 C   0  0  0  0  0  0  0  0  0  0  0  0
    7.9674  -19.4835   17.1223 C   0  0  0  0  0  0  0  0  0  0  0  0
    8.6006  -20.5685   17.8890 C   0  0  0  0  0  0  0  0  0  0  0  0
    7.9988  -21.9176   17.9377 C   0  0  0  0  0  0  0  0  0  0  0  0
    8.8476  -22.8373   18.7371 N   0  0  0  0  0  0  0  0  0  0  0  0
    8.5595  -16.3444   18.3612 C   0  0  0  0  0  0  0  0  0  0  0  0
    9.7910  -16.3919   18.2094 O   0  0  0  0  0  0  0  0  0  0  0  0
    7.6719  -12.8137   19.8814 C   0  0  0  0  0  0  0  0  0  0  0  0
    7.9535  -13.8315   20.9292 C   0  0  1  0  0  0  0  0  0  0  0  0
    6.7561  -14.4123   21.4174 O   0  0  0  0  0  0  0  0  0  0  0  0
    8.8172  -14.9943   20.4849 C   0  0  2  0  0  0  0  0  0  0  0  0
    7.9959  -15.6920   19.4867 N   0  0  0  0  0  0  0  0  0  0  0  0
    9.2159  -15.9064   21.5586 C   0  0  0  0  0  0  0  0  0  0  0  0
    8.3553  -16.6961   22.0920 O   0  0  0  0  0  0  0  0  0  0  0  0
   10.8994  -18.9471   21.7319 C   0  0  0  0  0  0  0  0  0  0  0  0
   11.6988  -18.0202   22.6186 C   0  0  1  0  0  0  0  0  0  0  0  0
   12.6878  -17.4075   21.8624 O   0  0  0  0  0  0  0  0  0  0  0  0
   10.8068  -16.9326   23.2163 C   0  0  2  0  0  0  0  0  0  0  0  0
   10.5193  -16.0140   22.0943 N   0  0  0  0  0  0  0  0  0  0  0  0
   11.5935  -16.2114   24.2186 C   0  0  0  0  0  0  0  0  0  0  0  0
   12.0369  -15.0515   24.0033 O   0  0  0  0  0  0  0  0  0  0  0  0
   11.8956  -16.7619   25.4605 O   0  0  0  0  0  0  0  0  0  0  0  0
  2  1  1  6
  2  8  1  0
  3  2  1  0
  4  3  1  0
  5  6  1  0
  5  4  1  0
  7  6  1  0
  8 14  1  0
  8  9  2  0
 11 12  1  0
 11 10  1  6
 13 11  1  0
 13 14  1  6
 15 13  1  0
 15 16  2  0
 18 17  1  6
 18 20  1  0
 18 19  1  0
 20 21  1  6
 21 15  1  0
 22 20  1  0
 23 22  2  0
 24 22  1  0
M  END
$$$$
