KTT.pdb
     RDKit          3D

 24 23  0  0  1  0  0  0  0  0999 V2000
   10.6453  -16.1020   14.7097 N   0  0  0  0  0  0  0  0  0  0  0  0
   10.4732  -15.3295   15.9559 C   0  0  1  0  0  0  0  0  0  0  0  0
    9.1505  -15.6456   16.5335 C   0  0  0  0  0  0  0  0  0  0  0  0
    8.6733  -17.0276   16.3674 C   0  0  0  0  0  0  0  0  0  0  0  0
    7.3097  -17.4505   16.7251 C   0  0  0  0  0  0  0  0  0  0  0  0
    6.8868  -18.8591   16.5790 C   0  0  0  0  0  0  0  0  0  0  0  0
    5.9691  -19.2437   17.6815 N   0  0  0  0  0  0  0  0  0  0  0  0
   11.5815  -15.8866   16.8545 C   0  0  0  0  0  0  0  0  0  0  0  0
   11.9754  -17.0502   16.6738 O   0  0  0  0  0  0  0  0  0  0  0  0
   14.7822  -14.7754   16.7737 C   0  0  0  0  0  0  0  0  0  0  0  0
   14.4376  -14.6528   18.2157 C   0  0  1  0  0  0  0  0  0  0  0  0
   14.0605  -13.3263   18.5435 O   0  0  0  0  0  0  0  0  0  0  0  0
   13.2924  -15.5279   18.6830 C   0  0  2  0  0  0  0  0  0  0  0  0
   12.1477  -15.0837   17.8767 N   0  0  0  0  0  0  0  0  0  0  0  0
   12.9903  -15.4295   20.1122 C   0  0  0  0  0  0  0  0  0  0  0  0
   12.7067  -14.2931   20.6387 O   0  0  0  0  0  0  0  0  0  0  0  0
   10.4305  -17.2346   22.4174 C   0  0  0  0  0  0  0  0  0  0  0  0
   11.8465  -17.4457   22.9021 C   0  0  1  0  0  0  0  0  0  0  0  0
   12.3425  -18.6226   22.3595 O   0  0  0  0  0  0  0  0  0  0  0  0
   12.7510  -16.2946   22.4631 C   0  0  2  0  0  0  0  0  0  0  0  0
   12.9756  -16.5139   21.0184 N   0  0  0  0  0  0  0  0  0  0  0  0
   14.0298  -16.4413   23.1606 C   0  0  0  0  0  0  0  0  0  0  0  0
   15.0750  -16.8051   22.5578 O   0  0  0  0  0  0  0  0  0  0  0  0
   14.1646  -16.1887   24.5224 O   0  0  0  0  0  0  0  0  0  0  0  0
  2  1  1  6
  2  8  1  0
  3  2  1  0
  4  3  1  0
  5  6  1  0
  5  4  1  0
  7  6  1  0
  8 14  1  0
  8  9  2  0
 11 12  1  0
 11 10  1  6
 13 11  1  0
 13 14  1  6
 15 13  1  0
 15 16  2  0
 18 17  1  6
 18 20  1  0
 18 19  1  0
 20 21  1  6
 21 15  1  0
 22 20  1  0
 23 22  2  0
 24 22  1  0
M  END
$$$$
