KTT.pdb
     RDKit          3D

 24 23  0  0  1  0  0  0  0  0999 V2000
   11.1583  -17.7373   19.6746 N   0  0  0  0  0  0  0  0  0  0  0  0
   11.9233  -17.6618   20.9349 C   0  0  1  0  0  0  0  0  0  0  0  0
   13.1315  -16.8415   20.7103 C   0  0  0  0  0  0  0  0  0  0  0  0
   13.7189  -16.8908   19.3621 C   0  0  0  0  0  0  0  0  0  0  0  0
   14.9594  -17.6218   19.0573 C   0  0  0  0  0  0  0  0  0  0  0  0
   15.5831  -17.5381   17.7199 C   0  0  0  0  0  0  0  0  0  0  0  0
   16.7947  -18.3944   17.6564 N   0  0  0  0  0  0  0  0  0  0  0  0
   10.9600  -16.9260   21.8713 C   0  0  0  0  0  0  0  0  0  0  0  0
   10.3872  -15.9027   21.4630 O   0  0  0  0  0  0  0  0  0  0  0  0
    7.8956  -18.0473   23.1026 C   0  0  0  0  0  0  0  0  0  0  0  0
    8.6906  -17.7330   24.3201 C   0  0  1  0  0  0  0  0  0  0  0  0
    9.3044  -18.8963   24.8484 O   0  0  0  0  0  0  0  0  0  0  0  0
    9.8141  -16.7367   24.1186 C   0  0  2  0  0  0  0  0  0  0  0  0
   10.7273  -17.4080   23.1841 N   0  0  0  0  0  0  0  0  0  0  0  0
   10.5167  -16.3500   25.3436 C   0  0  0  0  0  0  0  0  0  0  0  0
   11.7589  -16.6367   25.4972 O   0  0  0  0  0  0  0  0  0  0  0  0
   10.4097  -12.8272   27.3128 C   0  0  0  0  0  0  0  0  0  0  0  0
   10.0827  -14.0288   28.1692 C   0  0  1  0  0  0  0  0  0  0  0  0
    8.7087  -14.2223   28.1763 O   0  0  0  0  0  0  0  0  0  0  0  0
   10.7436  -15.2904   27.6147 C   0  0  2  0  0  0  0  0  0  0  0  0
    9.9382  -15.6552   26.4299 N   0  0  0  0  0  0  0  0  0  0  0  0
   10.6003  -16.3468   28.6182 C   0  0  0  0  0  0  0  0  0  0  0  0
    9.8585  -17.3472   28.4254 O   0  0  0  0  0  0  0  0  0  0  0  0
   11.2715  -16.3078   29.8367 O   0  0  0  0  0  0  0  0  0  0  0  0
  2  1  1  6
  2  8  1  0
  3  2  1  0
  4  3  1  0
  5  6  1  0
  5  4  1  0
  7  6  1  0
  8 14  1  0
  8  9  2  0
 11 12  1  0
 11 10  1  6
 13 11  1  0
 13 14  1  6
 15 13  1  0
 15 16  2  0
 18 17  1  6
 18 20  1  0
 18 19  1  0
 20 21  1  6
 21 15  1  0
 22 20  1  0
 23 22  2  0
 24 22  1  0
M  END
$$$$
