KTT.pdb
     RDKit          3D

 24 23  0  0  1  0  0  0  0  0999 V2000
    8.8205  -18.6150   17.0001 N   0  0  0  0  0  0  0  0  0  0  0  0
    8.3962  -17.5180   17.8923 C   0  0  1  0  0  0  0  0  0  0  0  0
    6.9622  -17.6868   18.2061 C   0  0  0  0  0  0  0  0  0  0  0  0
    6.5318  -19.0340   18.6123 C   0  0  0  0  0  0  0  0  0  0  0  0
    5.1458  -19.3486   18.9944 C   0  0  0  0  0  0  0  0  0  0  0  0
    4.7713  -20.7032   19.4519 C   0  0  0  0  0  0  0  0  0  0  0  0
    3.3160  -20.7711   19.7402 N   0  0  0  0  0  0  0  0  0  0  0  0
    9.2373  -17.7602   19.1492 C   0  0  0  0  0  0  0  0  0  0  0  0
    9.4146  -18.9255   19.5399 O   0  0  0  0  0  0  0  0  0  0  0  0
   12.6530  -16.8182   19.5247 C   0  0  0  0  0  0  0  0  0  0  0  0
   11.9570  -16.2142   20.6926 C   0  0  1  0  0  0  0  0  0  0  0  0
   11.6717  -14.8438   20.4692 O   0  0  0  0  0  0  0  0  0  0  0  0
   10.6309  -16.8514   21.0548 C   0  0  2  0  0  0  0  0  0  0  0  0
    9.8040  -16.6687   19.8546 N   0  0  0  0  0  0  0  0  0  0  0  0
    9.9752  -16.2747   22.2300 C   0  0  0  0  0  0  0  0  0  0  0  0
    9.3917  -15.1334   22.1527 O   0  0  0  0  0  0  0  0  0  0  0  0
    6.9943  -16.7373   24.1640 C   0  0  0  0  0  0  0  0  0  0  0  0
    8.1514  -16.9458   25.1137 C   0  0  1  0  0  0  0  0  0  0  0  0
    8.4934  -18.2905   25.1262 O   0  0  0  0  0  0  0  0  0  0  0  0
    9.3735  -16.1424   24.6698 C   0  0  2  0  0  0  0  0  0  0  0  0
    9.9132  -16.8781   23.5066 N   0  0  0  0  0  0  0  0  0  0  0  0
   10.3587  -16.1948   25.7516 C   0  0  0  0  0  0  0  0  0  0  0  0
   10.1272  -15.6905   26.8831 O   0  0  0  0  0  0  0  0  0  0  0  0
   11.6013  -16.8012   25.5938 O   0  0  0  0  0  0  0  0  0  0  0  0
  2  1  1  6
  2  8  1  0
  3  2  1  0
  4  3  1  0
  5  6  1  0
  5  4  1  0
  7  6  1  0
  8 14  1  0
  8  9  2  0
 11 12  1  0
 11 10  1  6
 13 11  1  0
 13 14  1  6
 15 13  1  0
 15 16  2  0
 18 17  1  6
 18 20  1  0
 18 19  1  0
 20 21  1  6
 21 15  1  0
 22 20  1  0
 23 22  2  0
 24 22  1  0
M  END
$$$$
