KTT.pdb
     RDKit          3D

 24 23  0  0  1  0  0  0  0  0999 V2000
    8.6532  -14.4022   14.9628 N   0  0  0  0  0  0  0  0  0  0  0  0
    8.6296  -15.5364   15.9075 C   0  0  1  0  0  0  0  0  0  0  0  0
    9.5633  -16.5759   15.4273 C   0  0  0  0  0  0  0  0  0  0  0  0
   10.2487  -16.3069   14.1533 C   0  0  0  0  0  0  0  0  0  0  0  0
   10.3372  -17.2980   13.0688 C   0  0  0  0  0  0  0  0  0  0  0  0
   11.6324  -17.9047   12.6963 C   0  0  0  0  0  0  0  0  0  0  0  0
   11.4546  -18.8639   11.5765 N   0  0  0  0  0  0  0  0  0  0  0  0
    9.1647  -14.9112   17.1994 C   0  0  0  0  0  0  0  0  0  0  0  0
   10.1402  -14.1453   17.1387 O   0  0  0  0  0  0  0  0  0  0  0  0
    7.2775  -12.8225   19.5402 C   0  0  0  0  0  0  0  0  0  0  0  0
    7.8173  -13.9737   20.3125 C   0  0  1  0  0  0  0  0  0  0  0  0
    6.8510  -15.0021   20.4461 O   0  0  0  0  0  0  0  0  0  0  0  0
    9.0384  -14.6393   19.7112 C   0  0  2  0  0  0  0  0  0  0  0  0
    8.5537  -15.2040   18.4448 N   0  0  0  0  0  0  0  0  0  0  0  0
    9.6424  -15.6794   20.5462 C   0  0  0  0  0  0  0  0  0  0  0  0
    9.4642  -16.9201   20.2673 O   0  0  0  0  0  0  0  0  0  0  0  0
   13.0733  -17.1953   23.6954 C   0  0  0  0  0  0  0  0  0  0  0  0
   12.4536  -16.2595   22.6831 C   0  0  1  0  0  0  0  0  0  0  0  0
   13.0956  -16.4187   21.4634 O   0  0  0  0  0  0  0  0  0  0  0  0
   10.9695  -16.5695   22.4900 C   0  0  2  0  0  0  0  0  0  0  0  0
   10.4453  -15.4455   21.6856 N   0  0  0  0  0  0  0  0  0  0  0  0
   10.3318  -16.5363   23.8075 C   0  0  0  0  0  0  0  0  0  0  0  0
    9.6404  -15.5522   24.1840 O   0  0  0  0  0  0  0  0  0  0  0  0
   10.4515  -17.5840   24.7156 O   0  0  0  0  0  0  0  0  0  0  0  0
  2  1  1  6
  2  8  1  0
  3  2  1  0
  4  3  1  0
  5  6  1  0
  5  4  1  0
  7  6  1  0
  8 14  1  0
  8  9  2  0
 11 12  1  0
 11 10  1  6
 13 11  1  0
 13 14  1  6
 15 13  1  0
 15 16  2  0
 18 17  1  1
 18 20  1  0
 18 19  1  0
 20 21  1  6
 21 15  1  0
 22 20  1  0
 23 22  2  0
 24 22  1  0
M  END
$$$$
