VRP.pdb
     RDKit          3D

 26 26  0  0  1  0  0  0  0  0999 V2000
   13.9826  -21.3329   24.5091 C   0  0  0  0  0  0  0  0  0  0  0  0
   13.2745  -20.0307   24.7545 C   0  0  1  0  0  0  0  0  0  0  0  0
   14.1264  -19.2080   25.6954 C   0  0  0  0  0  0  0  0  0  0  0  0
   13.1137  -19.2235   23.4593 C   0  0  2  0  0  0  0  0  0  0  0  0
   14.3674  -18.9922   22.8230 N   0  0  0  0  0  0  0  0  0  0  0  0
   12.3094  -18.0141   23.6663 C   0  0  0  0  0  0  0  0  0  0  0  0
   12.9277  -16.9219   23.8128 O   0  0  0  0  0  0  0  0  0  0  0  0
    6.6781  -13.0621   19.8157 N   0  0  0  0  0  0  0  0  0  0  0  0
    7.1712  -12.4847   21.0420 C   0  0  0  0  0  0  0  0  0  0  0  0
    7.1783  -11.2113   21.2276 N   0  0  0  0  0  0  0  0  0  0  0  0
    7.6669  -13.3160   22.0798 N   0  0  0  0  0  0  0  0  0  0  0  0
    7.7591  -14.7748   21.9545 C   0  0  0  0  0  0  0  0  0  0  0  0
    8.2125  -15.3766   23.2493 C   0  0  0  0  0  0  0  0  0  0  0  0
    8.9157  -16.6722   23.1511 C   0  0  0  0  0  0  0  0  0  0  0  0
   10.1499  -16.7493   23.9969 C   0  0  2  0  0  0  0  0  0  0  0  0
   10.9027  -17.9566   23.7171 N   0  0  0  0  0  0  0  0  0  0  0  0
    9.8350  -16.5461   25.4142 C   0  0  0  0  0  0  0  0  0  0  0  0
    9.3577  -17.5111   26.1127 O   0  0  0  0  0  0  0  0  0  0  0  0
    7.6590  -10.7773   22.0581 N   0  0  0  0  0  0  0  0  0  0  0  0
   10.0064  -15.3220   26.1634 C   0  0  0  0  0  0  0  0  0  0  0  0
   10.1914  -13.9984   25.6513 C   0  0  0  0  0  0  0  0  0  0  0  0
    9.9529  -13.0808   26.8670 C   0  0  0  0  0  0  0  0  0  0  0  0
   10.5001  -13.9514   28.0079 C   0  0  1  0  0  0  0  0  0  0  0  0
   10.0050  -15.2970   27.6094 C   0  0  0  0  0  0  0  0  0  0  0  0
    8.6757  -15.6123   28.1695 O   0  0  0  0  0  0  0  0  0  0  0  0
    7.6848  -15.7120   27.4232 O   0  0  0  0  0  0  0  0  0  0  0  0
  2  3  1  1
  2  1  1  0
  4  2  1  0
  4  5  1  1
  6  7  2  0
  6  4  1  0
  9 10  2  0
  9  8  1  0
 11  9  1  0
 12 11  1  0
 13 12  1  0
 13 14  1  0
 15 14  1  6
 15 16  1  0
 16  6  1  0
 17 15  1  0
 18 17  2  0
 19 20  1  0
 19 17  1  0
 21 20  1  0
 22 23  1  0
 22 21  1  0
 23 19  1  0
 23 24  1  1
 25 24  2  0
 26 24  1  0
M  END
$$$$
