VRP.pdb
     RDKit          3D

 26 26  0  0  1  0  0  0  0  0999 V2000
    8.4194  -12.2995   20.5335 C   0  0  0  0  0  0  0  0  0  0  0  0
    7.8838  -13.2771   19.5263 C   0  0  1  0  0  0  0  0  0  0  0  0
    8.6171  -13.0510   18.2229 C   0  0  0  0  0  0  0  0  0  0  0  0
    8.1468  -14.7275   19.9531 C   0  0  2  0  0  0  0  0  0  0  0  0
    7.7532  -15.6537   18.9444 N   0  0  0  0  0  0  0  0  0  0  0  0
    7.5970  -15.0133   21.2829 C   0  0  0  0  0  0  0  0  0  0  0  0
    6.3436  -15.1405   21.3796 O   0  0  0  0  0  0  0  0  0  0  0  0
    7.2651  -21.8139   26.3075 N   0  0  0  0  0  0  0  0  0  0  0  0
    6.3002  -21.1765   25.4455 C   0  0  0  0  0  0  0  0  0  0  0  0
    5.3343  -21.8408   24.9145 N   0  0  0  0  0  0  0  0  0  0  0  0
    6.3971  -19.7901   25.1589 N   0  0  0  0  0  0  0  0  0  0  0  0
    7.5720  -18.9855   25.5118 C   0  0  0  0  0  0  0  0  0  0  0  0
    7.3229  -17.5422   25.1970 C   0  0  0  0  0  0  0  0  0  0  0  0
    7.8318  -17.0654   23.8945 C   0  0  0  0  0  0  0  0  0  0  0  0
    7.7730  -15.5766   23.7373 C   0  0  2  0  0  0  0  0  0  0  0  0
    8.3413  -15.1604   22.4700 N   0  0  0  0  0  0  0  0  0  0  0  0
    8.3378  -14.8972   24.9072 C   0  0  0  0  0  0  0  0  0  0  0  0
    9.5662  -15.0824   25.2288 O   0  0  0  0  0  0  0  0  0  0  0  0
    4.6131  -21.3742   24.3050 N   0  0  0  0  0  0  0  0  0  0  0  0
    7.6400  -13.9927   25.7929 C   0  0  0  0  0  0  0  0  0  0  0  0
    6.2743  -13.5716   25.7188 C   0  0  0  0  0  0  0  0  0  0  0  0
    5.9989  -12.9230   27.0901 C   0  0  0  0  0  0  0  0  0  0  0  0
    7.3692  -12.3061   27.4073 C   0  0  2  0  0  0  0  0  0  0  0  0
    8.2868  -13.3761   26.9300 C   0  0  0  0  0  0  0  0  0  0  0  0
    8.6222  -14.3593   27.9792 O   0  0  0  0  0  0  0  0  0  0  0  0
    8.1787  -15.5206   27.9199 O   0  0  0  0  0  0  0  0  0  0  0  0
  2  3  1  6
  2  1  1  0
  4  2  1  0
  4  5  1  6
  6  7  2  0
  6  4  1  0
  9 10  2  0
  9  8  1  0
 11  9  1  0
 12 11  1  0
 13 12  1  0
 13 14  1  0
 15 14  1  1
 15 16  1  0
 16  6  1  0
 17 15  1  0
 18 17  2  0
 19 20  1  0
 19 17  1  0
 21 20  1  0
 22 23  1  0
 22 21  1  0
 23 19  1  0
 23 24  1  1
 25 24  2  0
 26 24  1  0
M  END
$$$$
