VRP.pdb
     RDKit          3D

 26 26  0  0  1  0  0  0  0  0999 V2000
    6.3730  -10.8191   27.1275 C   0  0  0  0  0  0  0  0  0  0  0  0
    7.0039  -11.9397   26.3506 C   0  0  1  0  0  0  0  0  0  0  0  0
    7.8785  -12.7287   27.2993 C   0  0  0  0  0  0  0  0  0  0  0  0
    5.9480  -12.9038   25.7934 C   0  0  2  0  0  0  0  0  0  0  0  0
    5.1550  -13.4744   26.8307 N   0  0  0  0  0  0  0  0  0  0  0  0
    6.5355  -13.8844   24.8738 C   0  0  0  0  0  0  0  0  0  0  0  0
    6.6866  -15.0644   25.2999 O   0  0  0  0  0  0  0  0  0  0  0  0
    8.1200  -13.0122   17.0571 N   0  0  0  0  0  0  0  0  0  0  0  0
    8.4066  -14.4239   16.9862 C   0  0  0  0  0  0  0  0  0  0  0  0
    8.0746  -15.1243   15.9589 N   0  0  0  0  0  0  0  0  0  0  0  0
    9.0650  -15.0788   18.0593 N   0  0  0  0  0  0  0  0  0  0  0  0
    9.3306  -14.4262   19.3461 C   0  0  0  0  0  0  0  0  0  0  0  0
    8.4869  -15.0410   20.4206 C   0  0  0  0  0  0  0  0  0  0  0  0
    7.7859  -14.0965   21.3146 C   0  0  0  0  0  0  0  0  0  0  0  0
    7.6428  -14.5960   22.7198 C   0  0  2  0  0  0  0  0  0  0  0  0
    6.9495  -13.6314   23.5511 N   0  0  0  0  0  0  0  0  0  0  0  0
    8.9311  -15.0442   23.2570 C   0  0  0  0  0  0  0  0  0  0  0  0
    9.8726  -14.1970   23.4634 O   0  0  0  0  0  0  0  0  0  0  0  0
    8.3003  -16.1509   15.8944 N   0  0  0  0  0  0  0  0  0  0  0  0
    9.2905  -16.4010   23.6023 C   0  0  0  0  0  0  0  0  0  0  0  0
    8.4908  -17.5807   23.4723 C   0  0  0  0  0  0  0  0  0  0  0  0
    9.4910  -18.7417   23.6420 C   0  0  0  0  0  0  0  0  0  0  0  0
   10.4797  -18.1368   24.6498 C   0  0  2  0  0  0  0  0  0  0  0  0
   10.5858  -16.7393   24.1493 C   0  0  0  0  0  0  0  0  0  0  0  0
   11.6698  -16.5602   23.1629 O   0  0  0  0  0  0  0  0  0  0  0  0
   11.4045  -16.3837   21.9599 O   0  0  0  0  0  0  0  0  0  0  0  0
  2  3  1  1
  2  1  1  0
  4  2  1  0
  4  5  1  1
  6  7  2  0
  6  4  1  0
  9 10  2  0
  9  8  1  0
 11  9  1  0
 12 11  1  0
 13 12  1  0
 13 14  1  0
 15 14  1  6
 15 16  1  0
 16  6  1  0
 17 15  1  0
 18 17  2  0
 19 20  1  0
 19 17  1  0
 21 20  1  0
 22 23  1  0
 22 21  1  0
 23 19  1  0
 23 24  1  6
 25 24  2  0
 26 24  1  0
M  END
$$$$
