VRP.pdb
     RDKit          3D

 26 26  0  0  1  0  0  0  0  0999 V2000
    8.8468  -12.9435   18.5426 C   0  0  0  0  0  0  0  0  0  0  0  0
    8.4174  -13.3044   19.9363 C   0  0  1  0  0  0  0  0  0  0  0  0
    7.1247  -12.5755   20.2283 C   0  0  0  0  0  0  0  0  0  0  0  0
    8.1348  -14.8070   20.0680 C   0  0  2  0  0  0  0  0  0  0  0  0
    7.2691  -15.2731   19.0367 N   0  0  0  0  0  0  0  0  0  0  0  0
    7.7053  -15.1647   21.4244 C   0  0  0  0  0  0  0  0  0  0  0  0
    6.4639  -15.1670   21.6603 O   0  0  0  0  0  0  0  0  0  0  0  0
    7.3396  -21.3660   24.4252 N   0  0  0  0  0  0  0  0  0  0  0  0
    6.6543  -20.9290   25.6167 C   0  0  0  0  0  0  0  0  0  0  0  0
    5.6076  -21.5397   26.0497 N   0  0  0  0  0  0  0  0  0  0  0  0
    7.1220  -19.8033   26.3433 N   0  0  0  0  0  0  0  0  0  0  0  0
    8.3164  -19.0457   25.9537 C   0  0  0  0  0  0  0  0  0  0  0  0
    7.9319  -17.6664   25.5131 C   0  0  0  0  0  0  0  0  0  0  0  0
    8.3542  -17.2795   24.1512 C   0  0  0  0  0  0  0  0  0  0  0  0
    8.0848  -15.8420   23.8264 C   0  0  2  0  0  0  0  0  0  0  0  0
    8.5535  -15.5083   22.4955 N   0  0  0  0  0  0  0  0  0  0  0  0
    8.5827  -14.9571   24.8840 C   0  0  0  0  0  0  0  0  0  0  0  0
    9.8277  -14.9625   25.1951 O   0  0  0  0  0  0  0  0  0  0  0  0
    5.1924  -21.3224   26.9928 N   0  0  0  0  0  0  0  0  0  0  0  0
    7.7978  -14.0264   25.6630 C   0  0  0  0  0  0  0  0  0  0  0  0
    6.3852  -13.8044   25.6026 C   0  0  0  0  0  0  0  0  0  0  0  0
    6.0703  -12.9941   26.8759 C   0  0  0  0  0  0  0  0  0  0  0  0
    7.3526  -12.1615   27.0225 C   0  0  2  0  0  0  0  0  0  0  0  0
    8.3920  -13.1626   26.6592 C   0  0  0  0  0  0  0  0  0  0  0  0
    8.8957  -13.9199   27.8223 O   0  0  0  0  0  0  0  0  0  0  0  0
    9.5922  -13.3577   28.6869 O   0  0  0  0  0  0  0  0  0  0  0  0
  2  3  1  6
  2  1  1  0
  4  2  1  0
  4  5  1  6
  6  7  2  0
  6  4  1  0
  9 10  2  0
  9  8  1  0
 11  9  1  0
 12 11  1  0
 13 12  1  0
 13 14  1  0
 15 14  1  1
 15 16  1  0
 16  6  1  0
 17 15  1  0
 18 17  2  0
 19 20  1  0
 19 17  1  0
 21 20  1  0
 22 23  1  0
 22 21  1  0
 23 19  1  0
 23 24  1  1
 25 24  2  0
 26 24  1  0
M  END
$$$$
