VRP.pdb
     RDKit          3D

 26 26  0  0  1  0  0  0  0  0999 V2000
    9.1935  -13.4969   18.3302 C   0  0  0  0  0  0  0  0  0  0  0  0
    8.4823  -13.6098   19.6488 C   0  0  1  0  0  0  0  0  0  0  0  0
    7.1542  -12.8969   19.5237 C   0  0  0  0  0  0  0  0  0  0  0  0
    8.1843  -15.0723   20.0053 C   0  0  2  0  0  0  0  0  0  0  0  0
    7.5615  -15.7621   18.9252 N   0  0  0  0  0  0  0  0  0  0  0  0
    7.4756  -15.1887   21.2846 C   0  0  0  0  0  0  0  0  0  0  0  0
    6.2795  -15.5949   21.2527 O   0  0  0  0  0  0  0  0  0  0  0  0
    6.5717  -21.3243   25.8538 N   0  0  0  0  0  0  0  0  0  0  0  0
    6.7265  -19.9464   26.2506 C   0  0  0  0  0  0  0  0  0  0  0  0
    6.7595  -19.6060   27.4912 N   0  0  0  0  0  0  0  0  0  0  0  0
    6.8442  -18.9251   25.2722 N   0  0  0  0  0  0  0  0  0  0  0  0
    8.1199  -18.5746   24.6383 C   0  0  0  0  0  0  0  0  0  0  0  0
    7.9193  -17.4626   23.6547 C   0  0  0  0  0  0  0  0  0  0  0  0
    6.8627  -16.4851   23.9877 C   0  0  0  0  0  0  0  0  0  0  0  0
    7.2842  -15.0600   23.7984 C   0  0  2  0  0  0  0  0  0  0  0  0
    8.0080  -14.8881   22.5539 N   0  0  0  0  0  0  0  0  0  0  0  0
    7.9848  -14.5525   24.9821 C   0  0  0  0  0  0  0  0  0  0  0  0
    9.1685  -14.9656   25.2563 O   0  0  0  0  0  0  0  0  0  0  0  0
    6.9477  -18.6127   27.7863 N   0  0  0  0  0  0  0  0  0  0  0  0
    7.4760  -13.5890   25.9318 C   0  0  0  0  0  0  0  0  0  0  0  0
    6.1895  -12.9621   25.9420 C   0  0  0  0  0  0  0  0  0  0  0  0
    6.0804  -12.3351   27.3463 C   0  0  0  0  0  0  0  0  0  0  0  0
    7.5425  -11.9474   27.6126 C   0  0  2  0  0  0  0  0  0  0  0  0
    8.2614  -13.1245   27.0538 C   0  0  0  0  0  0  0  0  0  0  0  0
    8.4891  -14.1889   28.0514 O   0  0  0  0  0  0  0  0  0  0  0  0
    7.8870  -15.2745   27.9636 O   0  0  0  0  0  0  0  0  0  0  0  0
  2  3  1  6
  2  1  1  0
  4  2  1  0
  4  5  1  6
  6  7  2  0
  6  4  1  0
  9 10  2  0
  9  8  1  0
 11  9  1  0
 12 11  1  0
 13 12  1  0
 13 14  1  0
 15 14  1  1
 15 16  1  0
 16  6  1  0
 17 15  1  0
 18 17  2  0
 19 20  1  0
 19 17  1  0
 21 20  1  0
 22 23  1  0
 22 21  1  0
 23 19  1  0
 23 24  1  1
 25 24  2  0
 26 24  1  0
M  END
$$$$
