VRP.pdb
     RDKit          3D

 26 26  0  0  1  0  0  0  0  0999 V2000
   11.8362  -16.6215   20.6296 C   0  0  0  0  0  0  0  0  0  0  0  0
   12.3849  -17.2861   21.8603 C   0  0  1  0  0  0  0  0  0  0  0  0
   13.4429  -16.3783   22.4468 C   0  0  0  0  0  0  0  0  0  0  0  0
   11.3008  -17.4753   22.9298 C   0  0  2  0  0  0  0  0  0  0  0  0
   10.4459  -18.5740   22.6257 N   0  0  0  0  0  0  0  0  0  0  0  0
   10.5942  -16.2224   23.2183 C   0  0  0  0  0  0  0  0  0  0  0  0
   11.2653  -15.2787   23.7241 O   0  0  0  0  0  0  0  0  0  0  0  0
    9.1984  -14.9017   18.5988 N   0  0  0  0  0  0  0  0  0  0  0  0
    8.4237  -13.6873   18.5259 C   0  0  0  0  0  0  0  0  0  0  0  0
    8.9573  -12.5728   18.1665 N   0  0  0  0  0  0  0  0  0  0  0  0
    7.0433  -13.6941   18.8547 N   0  0  0  0  0  0  0  0  0  0  0  0
    6.5514  -13.9334   20.2160 C   0  0  0  0  0  0  0  0  0  0  0  0
    7.7017  -14.1684   21.1467 C   0  0  0  0  0  0  0  0  0  0  0  0
    7.3492  -14.4895   22.5450 C   0  0  0  0  0  0  0  0  0  0  0  0
    8.5377  -14.7713   23.4126 C   0  0  2  0  0  0  0  0  0  0  0  0
    9.2281  -15.9716   22.9823 N   0  0  0  0  0  0  0  0  0  0  0  0
    8.1729  -14.7579   24.8325 C   0  0  0  0  0  0  0  0  0  0  0  0
    8.0268  -15.8618   25.4703 O   0  0  0  0  0  0  0  0  0  0  0  0
    8.4137  -11.6709   18.1799 N   0  0  0  0  0  0  0  0  0  0  0  0
    7.9448  -13.5864   25.6478 C   0  0  0  0  0  0  0  0  0  0  0  0
    8.1382  -12.2151   25.2870 C   0  0  0  0  0  0  0  0  0  0  0  0
    7.4060  -11.4226   26.3883 C   0  0  0  0  0  0  0  0  0  0  0  0
    7.6372  -12.3268   27.6082 C   0  0  1  0  0  0  0  0  0  0  0  0
    7.4593  -13.6765   27.0071 C   0  0  0  0  0  0  0  0  0  0  0  0
    6.0642  -14.1563   27.0683 O   0  0  0  0  0  0  0  0  0  0  0  0
    5.3743  -14.2222   26.0347 O   0  0  0  0  0  0  0  0  0  0  0  0
  2  3  1  1
  2  1  1  0
  4  2  1  0
  4  5  1  6
  6  7  2  0
  6  4  1  0
  9 10  2  0
  9  8  1  0
 11  9  1  0
 12 11  1  0
 13 12  1  0
 13 14  1  0
 15 14  1  6
 15 16  1  0
 16  6  1  0
 17 15  1  0
 18 17  2  0
 19 20  1  0
 19 17  1  0
 21 20  1  0
 22 23  1  0
 22 21  1  0
 23 19  1  0
 23 24  1  6
 25 24  2  0
 26 24  1  0
M  END
$$$$
