VRP.pdb
     RDKit          3D

 26 26  0  0  1  0  0  0  0  0999 V2000
    9.3263  -13.1683   18.4451 C   0  0  0  0  0  0  0  0  0  0  0  0
    8.7412  -13.3448   19.8176 C   0  0  1  0  0  0  0  0  0  0  0  0
    7.5544  -12.4151   19.9405 C   0  0  0  0  0  0  0  0  0  0  0  0
    8.2261  -14.7744   20.0314 C   0  0  2  0  0  0  0  0  0  0  0  0
    7.4122  -15.2096   18.9459 N   0  0  0  0  0  0  0  0  0  0  0  0
    7.6100  -14.9407   21.3525 C   0  0  0  0  0  0  0  0  0  0  0  0
    6.3554  -14.8119   21.4301 O   0  0  0  0  0  0  0  0  0  0  0  0
    6.7531  -21.5953   26.0448 N   0  0  0  0  0  0  0  0  0  0  0  0
    7.8027  -20.7103   26.4868 C   0  0  0  0  0  0  0  0  0  0  0  0
    8.8128  -21.1489   27.1526 N   0  0  0  0  0  0  0  0  0  0  0  0
    7.7425  -19.3224   26.1970 N   0  0  0  0  0  0  0  0  0  0  0  0
    6.5416  -18.6738   25.6590 C   0  0  0  0  0  0  0  0  0  0  0  0
    6.8176  -17.2285   25.3778 C   0  0  0  0  0  0  0  0  0  0  0  0
    7.4455  -16.9299   24.0742 C   0  0  0  0  0  0  0  0  0  0  0  0
    7.6337  -15.4652   23.8216 C   0  0  2  0  0  0  0  0  0  0  0  0
    8.2914  -15.2326   22.5505 N   0  0  0  0  0  0  0  0  0  0  0  0
    8.2744  -14.8080   24.9649 C   0  0  0  0  0  0  0  0  0  0  0  0
    9.4674  -15.1325   25.3086 O   0  0  0  0  0  0  0  0  0  0  0  0
    9.5755  -20.5042   27.4870 N   0  0  0  0  0  0  0  0  0  0  0  0
    7.6932  -13.7808   25.7992 C   0  0  0  0  0  0  0  0  0  0  0  0
    6.4068  -13.1674   25.6680 C   0  0  0  0  0  0  0  0  0  0  0  0
    6.1921  -12.4378   27.0091 C   0  0  0  0  0  0  0  0  0  0  0  0
    7.6291  -12.0170   27.3514 C   0  0  2  0  0  0  0  0  0  0  0  0
    8.3920  -13.2257   26.9372 C   0  0  0  0  0  0  0  0  0  0  0  0
    8.5501  -14.2099   28.0265 O   0  0  0  0  0  0  0  0  0  0  0  0
    7.9253  -15.2858   27.9995 O   0  0  0  0  0  0  0  0  0  0  0  0
  2  3  1  6
  2  1  1  0
  4  2  1  0
  4  5  1  6
  6  7  2  0
  6  4  1  0
  9 10  2  0
  9  8  1  0
 11  9  1  0
 12 11  1  0
 13 12  1  0
 13 14  1  0
 15 14  1  1
 15 16  1  0
 16  6  1  0
 17 15  1  0
 18 17  2  0
 19 20  1  0
 19 17  1  0
 21 20  1  0
 22 23  1  0
 22 21  1  0
 23 19  1  0
 23 24  1  1
 25 24  2  0
 26 24  1  0
M  END
$$$$
