VRP.pdb
     RDKit          3D

 26 26  0  0  1  0  0  0  0  0999 V2000
    8.9644  -12.5875   18.6309 C   0  0  0  0  0  0  0  0  0  0  0  0
    8.5159  -13.0595   19.9849 C   0  0  1  0  0  0  0  0  0  0  0  0
    7.2084  -12.3713   20.3079 C   0  0  0  0  0  0  0  0  0  0  0  0
    8.2519  -14.5712   19.9961 C   0  0  2  0  0  0  0  0  0  0  0  0
    7.2990  -14.9475   19.0058 N   0  0  0  0  0  0  0  0  0  0  0  0
    7.9471  -15.0620   21.3446 C   0  0  0  0  0  0  0  0  0  0  0  0
    6.7388  -15.3175   21.6118 O   0  0  0  0  0  0  0  0  0  0  0  0
   10.0801  -20.6182   22.8642 N   0  0  0  0  0  0  0  0  0  0  0  0
    8.8615  -20.9731   23.5491 C   0  0  0  0  0  0  0  0  0  0  0  0
    8.1113  -21.9307   23.1292 N   0  0  0  0  0  0  0  0  0  0  0  0
    8.4573  -20.2654   24.7109 N   0  0  0  0  0  0  0  0  0  0  0  0
    9.2843  -19.2286   25.3382 C   0  0  0  0  0  0  0  0  0  0  0  0
    8.6946  -17.8748   25.0856 C   0  0  0  0  0  0  0  0  0  0  0  0
    9.1309  -17.1985   23.8466 C   0  0  0  0  0  0  0  0  0  0  0  0
    8.5460  -15.8301   23.6735 C   0  0  2  0  0  0  0  0  0  0  0  0
    8.8822  -15.2764   22.3763 N   0  0  0  0  0  0  0  0  0  0  0  0
    8.8801  -14.9633   24.8077 C   0  0  0  0  0  0  0  0  0  0  0  0
   10.0956  -14.8657   25.2074 O   0  0  0  0  0  0  0  0  0  0  0  0
    7.2631  -22.2445   23.6687 N   0  0  0  0  0  0  0  0  0  0  0  0
    7.9549  -14.1595   25.5739 C   0  0  0  0  0  0  0  0  0  0  0  0
    6.5271  -14.1338   25.4781 C   0  0  0  0  0  0  0  0  0  0  0  0
    6.0716  -13.3905   26.7497 C   0  0  0  0  0  0  0  0  0  0  0  0
    7.2224  -12.3908   26.9375 C   0  0  1  0  0  0  0  0  0  0  0  0
    8.3989  -13.2343   26.5929 C   0  0  0  0  0  0  0  0  0  0  0  0
    8.9734  -13.9292   27.7622 O   0  0  0  0  0  0  0  0  0  0  0  0
    8.8173  -15.1554   27.9062 O   0  0  0  0  0  0  0  0  0  0  0  0
  2  3  1  6
  2  1  1  0
  4  2  1  0
  4  5  1  6
  6  7  2  0
  6  4  1  0
  9 10  2  0
  9  8  1  0
 11  9  1  0
 12 11  1  0
 13 12  1  0
 13 14  1  0
 15 14  1  1
 15 16  1  0
 16  6  1  0
 17 15  1  0
 18 17  2  0
 19 20  1  0
 19 17  1  0
 21 20  1  0
 22 23  1  0
 22 21  1  0
 23 19  1  0
 23 24  1  1
 25 24  2  0
 26 24  1  0
M  END
$$$$
