VRP.pdb
     RDKit          3D

 26 26  0  0  1  0  0  0  0  0999 V2000
    8.5257  -12.6921   20.5755 C   0  0  0  0  0  0  0  0  0  0  0  0
    7.9253  -13.7351   19.6762 C   0  0  1  0  0  0  0  0  0  0  0  0
    8.6764  -13.7059   18.3637 C   0  0  0  0  0  0  0  0  0  0  0  0
    8.0842  -15.1444   20.2626 C   0  0  2  0  0  0  0  0  0  0  0  0
    7.6211  -16.1460   19.3611 N   0  0  0  0  0  0  0  0  0  0  0  0
    7.5197  -15.2403   21.6133 C   0  0  0  0  0  0  0  0  0  0  0  0
    6.2669  -15.1245   21.7303 O   0  0  0  0  0  0  0  0  0  0  0  0
    7.5569  -20.0911   27.9103 N   0  0  0  0  0  0  0  0  0  0  0  0
    7.1365  -20.4904   26.5897 C   0  0  0  0  0  0  0  0  0  0  0  0
    7.3982  -21.6632   26.1293 N   0  0  0  0  0  0  0  0  0  0  0  0
    6.4204  -19.5890   25.7598 N   0  0  0  0  0  0  0  0  0  0  0  0
    6.8602  -19.2348   24.4058 C   0  0  0  0  0  0  0  0  0  0  0  0
    6.6561  -17.7705   24.1633 C   0  0  0  0  0  0  0  0  0  0  0  0
    7.7018  -16.8731   24.6963 C   0  0  0  0  0  0  0  0  0  0  0  0
    7.6541  -15.4904   24.1217 C   0  0  2  0  0  0  0  0  0  0  0  0
    8.2492  -15.4509   22.8001 N   0  0  0  0  0  0  0  0  0  0  0  0
    8.1996  -14.5064   25.0617 C   0  0  0  0  0  0  0  0  0  0  0  0
    9.4660  -14.4354   25.2568 O   0  0  0  0  0  0  0  0  0  0  0  0
    7.2193  -21.9133   25.1220 N   0  0  0  0  0  0  0  0  0  0  0  0
    7.4420  -13.5524   25.8395 C   0  0  0  0  0  0  0  0  0  0  0  0
    6.0412  -13.2706   25.7600 C   0  0  0  0  0  0  0  0  0  0  0  0
    5.7402  -12.4620   27.0377 C   0  0  0  0  0  0  0  0  0  0  0  0
    7.0537  -11.6857   27.2140 C   0  0  2  0  0  0  0  0  0  0  0  0
    8.0559  -12.7255   26.8548 C   0  0  0  0  0  0  0  0  0  0  0  0
    8.5090  -13.5163   28.0165 O   0  0  0  0  0  0  0  0  0  0  0  0
    9.1791  -12.9829   28.9194 O   0  0  0  0  0  0  0  0  0  0  0  0
  2  3  1  6
  2  1  1  0
  4  2  1  0
  4  5  1  6
  6  7  2  0
  6  4  1  0
  9 10  2  0
  9  8  1  0
 11  9  1  0
 12 11  1  0
 13 12  1  0
 13 14  1  0
 15 14  1  1
 15 16  1  0
 16  6  1  0
 17 15  1  0
 18 17  2  0
 19 20  1  0
 19 17  1  0
 21 20  1  0
 22 23  1  0
 22 21  1  0
 23 19  1  0
 23 24  1  1
 25 24  2  0
 26 24  1  0
M  END
$$$$
