HNN.pdb
     RDKit          3D

 27 27  0  0  1  0  0  0  0  0999 V2000
   22.2307  -14.6112  -19.2594 N   0  0  0  0  0  0  0  0  0  0  0  0
   21.5662  -13.3416  -19.3688 C   0  0  1  0  0  0  0  0  0  0  0  0
   20.0909  -13.5035  -19.0641 C   0  0  0  0  0  0  0  0  0  0  0  0
   19.5168  -14.3672  -20.1143 C   0  0  0  0  0  0  0  0  0  0  0  0
   19.5218  -14.1038  -21.4579 C   0  0  0  0  0  0  0  0  0  0  0  0
   18.9080  -15.1214  -22.0778 N   0  0  0  0  0  0  0  0  0  0  0  0
   18.5360  -15.9897  -21.1246 C   0  0  0  0  0  0  0  0  0  0  0  0
   18.9061  -15.5330  -19.9216 N   0  0  0  0  0  0  0  0  0  0  0  0
   22.1086  -12.3576  -18.3781 C   0  0  0  0  0  0  0  0  0  0  0  0
   22.5320  -12.7196  -17.2518 O   0  0  0  0  0  0  0  0  0  0  0  0
   24.8536   -6.9488  -18.3805 N   0  0  0  0  0  0  0  0  0  0  0  0
   24.4410   -8.1650  -17.7776 C   0  0  0  0  0  0  0  0  0  0  0  0
   24.6876   -8.3287  -16.5578 O   0  0  0  0  0  0  0  0  0  0  0  0
   23.7495   -9.2127  -18.5227 C   0  0  0  0  0  0  0  0  0  0  0  0
   22.7837  -10.0397  -17.7150 C   0  0  2  0  0  0  0  0  0  0  0  0
   22.1678  -10.9668  -18.6700 N   0  0  0  0  0  0  0  0  0  0  0  0
   21.6794   -9.1721  -17.2307 C   0  0  0  0  0  0  0  0  0  0  0  0
   20.8311   -8.6744  -18.0496 O   0  0  0  0  0  0  0  0  0  0  0  0
   18.2469   -6.4788  -14.4494 N   0  0  0  0  0  0  0  0  0  0  0  0
   18.6555   -7.6188  -13.7212 C   0  0  0  0  0  0  0  0  0  0  0  0
   18.0587   -7.8938  -12.6607 O   0  0  0  0  0  0  0  0  0  0  0  0
   19.7457   -8.4518  -14.1962 C   0  0  0  0  0  0  0  0  0  0  0  0
   20.3967   -7.9665  -15.4642 C   0  0  2  0  0  0  0  0  0  0  0  0
   21.4832   -8.8366  -15.8660 N   0  0  0  0  0  0  0  0  0  0  0  0
   20.8566   -6.5511  -15.3422 C   0  0  0  0  0  0  0  0  0  0  0  0
   20.0177   -5.4735  -15.5704 O   0  0  0  0  0  0  0  0  0  0  0  0
   22.0525   -6.2824  -15.0200 O   0  0  0  0  0  0  0  0  0  0  0  0
  2  1  1  1
  2  9  1  0
  3  2  1  0
  3  4  1  0
  4  5  2  0
  4  8  1  0
  5  6  1  0
  6  7  1  0
  8  7  2  0
  9 10  2  0
 11 12  1  0
 12 14  1  0
 13 12  2  0
 15 14  1  6
 15 17  1  0
 16  9  1  0
 16 15  1  0
 17 18  2  0
 19 20  1  0
 20 22  1  0
 21 20  2  0
 23 22  1  1
 23 25  1  0
 24 17  1  0
 24 23  1  0
 25 27  2  0
 25 26  1  0
M  END
$$$$
