HNN.pdb
     RDKit          3D

 27 27  0  0  1  0  0  0  0  0999 V2000
   16.4983  -12.3469  -16.4360 N   0  0  0  0  0  0  0  0  0  0  0  0
   17.5388  -11.6596  -15.7214 C   0  0  1  0  0  0  0  0  0  0  0  0
   18.8902  -12.0232  -16.3020 C   0  0  0  0  0  0  0  0  0  0  0  0
   19.0483  -13.4845  -16.1677 C   0  0  0  0  0  0  0  0  0  0  0  0
   19.0378  -14.1854  -14.9916 C   0  0  0  0  0  0  0  0  0  0  0  0
   19.2105  -15.4818  -15.2849 N   0  0  0  0  0  0  0  0  0  0  0  0
   19.3241  -15.5665  -16.6194 C   0  0  0  0  0  0  0  0  0  0  0  0
   19.2256  -14.3474  -17.1642 N   0  0  0  0  0  0  0  0  0  0  0  0
   17.3963  -10.1740  -15.8505 C   0  0  0  0  0  0  0  0  0  0  0  0
   17.1481   -9.6279  -16.9547 O   0  0  0  0  0  0  0  0  0  0  0  0
   14.0631   -6.7441  -15.1379 N   0  0  0  0  0  0  0  0  0  0  0  0
   14.8834   -7.7714  -14.6045 C   0  0  0  0  0  0  0  0  0  0  0  0
   14.4525   -8.9496  -14.6496 O   0  0  0  0  0  0  0  0  0  0  0  0
   16.1916   -7.5018  -14.0153 C   0  0  0  0  0  0  0  0  0  0  0  0
   17.3693   -7.8660  -14.8811 C   0  0  2  0  0  0  0  0  0  0  0  0
   17.5365   -9.3147  -14.7259 N   0  0  0  0  0  0  0  0  0  0  0  0
   18.6013   -7.2583  -14.3157 C   0  0  0  0  0  0  0  0  0  0  0  0
   19.4351   -7.9669  -13.6518 O   0  0  0  0  0  0  0  0  0  0  0  0
   22.8739   -4.5332  -13.6142 N   0  0  0  0  0  0  0  0  0  0  0  0
   22.6845   -5.6410  -14.4709 C   0  0  0  0  0  0  0  0  0  0  0  0
   23.6895   -6.1904  -14.9654 O   0  0  0  0  0  0  0  0  0  0  0  0
   21.3501   -6.1290  -14.7695 C   0  0  0  0  0  0  0  0  0  0  0  0
   20.2432   -5.3993  -14.0558 C   0  0  2  0  0  0  0  0  0  0  0  0
   18.9412   -5.8884  -14.4616 N   0  0  0  0  0  0  0  0  0  0  0  0
   20.3459   -3.9213  -14.2427 C   0  0  0  0  0  0  0  0  0  0  0  0
   21.1853   -3.1307  -13.4763 O   0  0  0  0  0  0  0  0  0  0  0  0
   19.6554   -3.3288  -15.1249 O   0  0  0  0  0  0  0  0  0  0  0  0
  2  1  1  6
  2  9  1  0
  3  2  1  0
  3  4  1  0
  4  5  2  0
  4  8  1  0
  5  6  1  0
  6  7  1  0
  8  7  2  0
  9 10  2  0
 11 12  1  0
 12 14  1  0
 13 12  2  0
 15 14  1  1
 15 17  1  0
 16  9  1  0
 16 15  1  0
 17 18  2  0
 19 20  1  0
 20 22  1  0
 21 20  2  0
 23 22  1  6
 23 25  1  0
 24 17  1  0
 24 23  1  0
 25 27  2  0
 25 26  1  0
M  END
$$$$
