HNN.pdb
     RDKit          3D

 27 27  0  0  1  0  0  0  0  0999 V2000
   18.2864  -11.4874  -15.0947 N   0  0  0  0  0  0  0  0  0  0  0  0
   17.3656  -10.5353  -15.6525 C   0  0  1  0  0  0  0  0  0  0  0  0
   15.9714  -11.1273  -15.6905 C   0  0  0  0  0  0  0  0  0  0  0  0
   16.0118  -12.2908  -16.5978 C   0  0  0  0  0  0  0  0  0  0  0  0
   15.9706  -12.2404  -17.9654 C   0  0  0  0  0  0  0  0  0  0  0  0
   16.0285  -13.4985  -18.4242 N   0  0  0  0  0  0  0  0  0  0  0  0
   16.1038  -14.3005  -17.3509 C   0  0  0  0  0  0  0  0  0  0  0  0
   16.0939  -13.5666  -16.2310 N   0  0  0  0  0  0  0  0  0  0  0  0
   17.2889   -9.2975  -14.8124 C   0  0  0  0  0  0  0  0  0  0  0  0
   16.5245   -8.3450  -15.1080 O   0  0  0  0  0  0  0  0  0  0  0  0
   17.0070   -6.5476   -9.8753 N   0  0  0  0  0  0  0  0  0  0  0  0
   18.1215   -7.1621  -10.5022 C   0  0  0  0  0  0  0  0  0  0  0  0
   19.2655   -6.7272  -10.2230 O   0  0  0  0  0  0  0  0  0  0  0  0
   17.9780   -8.2668  -11.4457 C   0  0  0  0  0  0  0  0  0  0  0  0
   18.0635   -7.8805  -12.8992 C   0  0  2  0  0  0  0  0  0  0  0  0
   18.0805   -9.1458  -13.6405 N   0  0  0  0  0  0  0  0  0  0  0  0
   19.3802   -7.2452  -13.1622 C   0  0  0  0  0  0  0  0  0  0  0  0
   20.4219   -7.9595  -13.3687 O   0  0  0  0  0  0  0  0  0  0  0  0
   23.5697   -5.7632  -15.6346 N   0  0  0  0  0  0  0  0  0  0  0  0
   22.3059   -5.1325  -15.6811 C   0  0  0  0  0  0  0  0  0  0  0  0
   22.2126   -4.0268  -16.2514 O   0  0  0  0  0  0  0  0  0  0  0  0
   21.1419   -5.7569  -15.0787 C   0  0  0  0  0  0  0  0  0  0  0  0
   20.8308   -5.2846  -13.6833 C   0  0  2  0  0  0  0  0  0  0  0  0
   19.5820   -5.8413  -13.2038 N   0  0  0  0  0  0  0  0  0  0  0  0
   20.8264   -3.7941  -13.5929 C   0  0  0  0  0  0  0  0  0  0  0  0
   21.9900   -3.0514  -13.4855 O   0  0  0  0  0  0  0  0  0  0  0  0
   19.7377   -3.1456  -13.6112 O   0  0  0  0  0  0  0  0  0  0  0  0
  2  1  1  1
  2  9  1  0
  3  2  1  0
  3  4  1  0
  4  5  2  0
  4  8  1  0
  5  6  1  0
  6  7  1  0
  8  7  2  0
  9 10  2  0
 11 12  1  0
 12 14  1  0
 13 12  2  0
 15 14  1  1
 15 17  1  0
 16  9  1  0
 16 15  1  0
 17 18  2  0
 19 20  1  0
 20 22  1  0
 21 20  2  0
 23 22  1  6
 23 25  1  0
 24 17  1  0
 24 23  1  0
 25 27  2  0
 25 26  1  0
M  END
$$$$
