HNN.pdb
     RDKit          3D

 27 27  0  0  1  0  0  0  0  0999 V2000
   25.1935  -34.2789   -8.7593 N   0  0  0  0  0  0  0  0  0  0  0  0
   25.6236  -33.4138   -7.6954 C   0  0  1  0  0  0  0  0  0  0  0  0
   24.4397  -32.6451   -7.1450 C   0  0  0  0  0  0  0  0  0  0  0  0
   24.1129  -31.5842   -8.1177 C   0  0  0  0  0  0  0  0  0  0  0  0
   23.8483  -31.7725   -9.4478 C   0  0  0  0  0  0  0  0  0  0  0  0
   23.5988  -30.5725   -9.9904 N   0  0  0  0  0  0  0  0  0  0  0  0
   23.7101  -29.6693   -9.0041 C   0  0  0  0  0  0  0  0  0  0  0  0
   24.0245  -30.2831   -7.8564 N   0  0  0  0  0  0  0  0  0  0  0  0
   26.1992  -34.1984   -6.5565 C   0  0  0  0  0  0  0  0  0  0  0  0
   25.8505  -35.3839   -6.3284 O   0  0  0  0  0  0  0  0  0  0  0  0
   29.9273  -35.5174   -6.1070 N   0  0  0  0  0  0  0  0  0  0  0  0
   30.1459  -34.4009   -5.2594 C   0  0  0  0  0  0  0  0  0  0  0  0
   31.2721  -33.8477   -5.2962 O   0  0  0  0  0  0  0  0  0  0  0  0
   29.1161  -33.8861   -4.3618 C   0  0  0  0  0  0  0  0  0  0  0  0
   27.7336  -34.4377   -4.5928 C   0  0  2  0  0  0  0  0  0  0  0  0
   27.1679  -33.6340   -5.6812 N   0  0  0  0  0  0  0  0  0  0  0  0
   26.8871  -34.1552   -3.4053 C   0  0  0  0  0  0  0  0  0  0  0  0
   26.0639  -33.1752   -3.4067 O   0  0  0  0  0  0  0  0  0  0  0  0
   22.2462  -34.8864   -0.6974 N   0  0  0  0  0  0  0  0  0  0  0  0
   23.6054  -34.5538   -0.5005 C   0  0  0  0  0  0  0  0  0  0  0  0
   23.9519  -34.0939    0.6062 O   0  0  0  0  0  0  0  0  0  0  0  0
   24.5774  -34.7429   -1.5623 C   0  0  0  0  0  0  0  0  0  0  0  0
   26.0134  -34.6419   -1.1207 C   0  0  2  0  0  0  0  0  0  0  0  0
   26.9224  -34.9239   -2.2131 N   0  0  0  0  0  0  0  0  0  0  0  0
   26.2931  -35.5207    0.0538 C   0  0  0  0  0  0  0  0  0  0  0  0
   26.9980  -36.7074   -0.0556 O   0  0  0  0  0  0  0  0  0  0  0  0
   25.8873  -35.2052    1.2122 O   0  0  0  0  0  0  0  0  0  0  0  0
  2  1  1  6
  2  9  1  0
  3  2  1  0
  3  4  1  0
  4  5  2  0
  4  8  1  0
  5  6  1  0
  6  7  1  0
  8  7  2  0
  9 10  2  0
 11 12  1  0
 12 14  1  0
 13 12  2  0
 15 14  1  1
 15 17  1  0
 16  9  1  0
 16 15  1  0
 17 18  2  0
 19 20  1  0
 20 22  1  0
 21 20  2  0
 23 22  1  6
 23 25  1  0
 24 17  1  0
 24 23  1  0
 25 27  2  0
 25 26  1  0
M  END
$$$$
