HNN.pdb
     RDKit          3D

 27 27  0  0  1  0  0  0  0  0999 V2000
   22.8746  -12.3303  -15.5901 N   0  0  0  0  0  0  0  0  0  0  0  0
   23.4262  -11.3351  -16.4681 C   0  0  1  0  0  0  0  0  0  0  0  0
   23.9966  -11.9979  -17.7054 C   0  0  0  0  0  0  0  0  0  0  0  0
   24.9831  -12.9986  -17.2536 C   0  0  0  0  0  0  0  0  0  0  0  0
   24.8798  -14.3540  -17.4170 C   0  0  0  0  0  0  0  0  0  0  0  0
   25.9687  -14.9169  -16.8748 N   0  0  0  0  0  0  0  0  0  0  0  0
   26.7218  -13.9178  -16.3895 C   0  0  0  0  0  0  0  0  0  0  0  0
   26.1233  -12.7422  -16.6187 N   0  0  0  0  0  0  0  0  0  0  0  0
   22.3722  -10.3785  -16.9349 C   0  0  0  0  0  0  0  0  0  0  0  0
   22.5984   -9.5369  -17.8402 O   0  0  0  0  0  0  0  0  0  0  0  0
   17.7802  -12.1370  -17.2799 N   0  0  0  0  0  0  0  0  0  0  0  0
   18.3369  -10.8654  -17.5734 C   0  0  0  0  0  0  0  0  0  0  0  0
   18.4730  -10.5488  -18.7805 O   0  0  0  0  0  0  0  0  0  0  0  0
   18.7481   -9.9313  -16.5297 C   0  0  0  0  0  0  0  0  0  0  0  0
   20.1127   -9.3221  -16.7192 C   0  0  2  0  0  0  0  0  0  0  0  0
   21.0661  -10.3809  -16.3718 N   0  0  0  0  0  0  0  0  0  0  0  0
   20.3177   -8.2521  -15.7094 C   0  0  0  0  0  0  0  0  0  0  0  0
   21.0367   -8.4611  -14.6714 O   0  0  0  0  0  0  0  0  0  0  0  0
   21.2412   -3.8368  -13.3420 N   0  0  0  0  0  0  0  0  0  0  0  0
   22.1382   -4.6190  -14.1039 C   0  0  0  0  0  0  0  0  0  0  0  0
   23.3525   -4.3349  -14.0710 O   0  0  0  0  0  0  0  0  0  0  0  0
   21.6576   -5.7287  -14.9074 C   0  0  0  0  0  0  0  0  0  0  0  0
   20.1609   -5.8935  -14.9145 C   0  0  2  0  0  0  0  0  0  0  0  0
   19.7512   -6.9552  -15.8112 N   0  0  0  0  0  0  0  0  0  0  0  0
   19.4659   -4.6131  -15.2420 C   0  0  0  0  0  0  0  0  0  0  0  0
   18.6716   -3.9423  -14.3276 O   0  0  0  0  0  0  0  0  0  0  0  0
   19.5808   -4.0868  -16.3892 O   0  0  0  0  0  0  0  0  0  0  0  0
  2  1  1  1
  2  9  1  0
  3  2  1  0
  3  4  1  0
  4  5  2  0
  4  8  1  0
  5  6  1  0
  6  7  1  0
  8  7  2  0
  9 10  2  0
 11 12  1  0
 12 14  1  0
 13 12  2  0
 15 14  1  1
 15 17  1  0
 16  9  1  0
 16 15  1  0
 17 18  2  0
 19 20  1  0
 20 22  1  0
 21 20  2  0
 23 22  1  6
 23 25  1  0
 24 17  1  0
 24 23  1  0
 25 27  2  0
 25 26  1  0
M  END
$$$$
