HNN.pdb
     RDKit          3D

 27 27  0  0  1  0  0  0  0  0999 V2000
   26.9169  -18.7763  -15.0199 N   0  0  0  0  0  0  0  0  0  0  0  0
   26.0341  -19.6409  -15.7537 C   0  0  1  0  0  0  0  0  0  0  0  0
   26.8413  -20.6152  -16.5872 C   0  0  0  0  0  0  0  0  0  0  0  0
   27.7032  -19.8193  -17.4830 C   0  0  0  0  0  0  0  0  0  0  0  0
   27.2754  -19.0650  -18.5424 C   0  0  0  0  0  0  0  0  0  0  0  0
   28.3523  -18.4976  -19.1035 N   0  0  0  0  0  0  0  0  0  0  0  0
   29.4180  -18.9014  -18.3949 C   0  0  0  0  0  0  0  0  0  0  0  0
   29.0263  -19.7102  -17.4023 N   0  0  0  0  0  0  0  0  0  0  0  0
   25.1844  -20.4595  -14.8307 C   0  0  0  0  0  0  0  0  0  0  0  0
   24.5142  -21.4386  -15.2443 O   0  0  0  0  0  0  0  0  0  0  0  0
   26.4677  -22.0327  -11.2999 N   0  0  0  0  0  0  0  0  0  0  0  0
   25.6792  -21.0851  -10.5979 C   0  0  0  0  0  0  0  0  0  0  0  0
   26.0359  -20.7702   -9.4363 O   0  0  0  0  0  0  0  0  0  0  0  0
   24.4859  -20.4763  -11.1782 C   0  0  0  0  0  0  0  0  0  0  0  0
   24.1694  -20.9074  -12.5864 C   0  0  2  0  0  0  0  0  0  0  0  0
   25.0989  -20.1630  -13.4423 N   0  0  0  0  0  0  0  0  0  0  0  0
   22.8133  -20.4256  -12.9547 C   0  0  0  0  0  0  0  0  0  0  0  0
   22.5230  -19.1805  -12.8962 O   0  0  0  0  0  0  0  0  0  0  0  0
   18.5122  -19.1514  -15.8701 N   0  0  0  0  0  0  0  0  0  0  0  0
   18.7494  -20.4864  -15.4720 C   0  0  0  0  0  0  0  0  0  0  0  0
   17.7839  -21.2750  -15.4266 O   0  0  0  0  0  0  0  0  0  0  0  0
   20.0870  -20.9306  -15.1233 C   0  0  0  0  0  0  0  0  0  0  0  0
   20.4472  -20.7507  -13.6725 C   0  0  2  0  0  0  0  0  0  0  0  0
   21.7655  -21.2794  -13.3866 N   0  0  0  0  0  0  0  0  0  0  0  0
   19.4191  -21.3492  -12.7698 C   0  0  0  0  0  0  0  0  0  0  0  0
   19.6159  -22.5511  -12.1112 O   0  0  0  0  0  0  0  0  0  0  0  0
   18.3107  -20.7673  -12.5721 O   0  0  0  0  0  0  0  0  0  0  0  0
  2  1  1  1
  2  9  1  0
  3  2  1  0
  3  4  1  0
  4  5  2  0
  4  8  1  0
  5  6  1  0
  6  7  1  0
  8  7  2  0
  9 10  2  0
 11 12  1  0
 12 14  1  0
 13 12  2  0
 15 14  1  1
 15 17  1  0
 16  9  1  0
 16 15  1  0
 17 18  2  0
 19 20  1  0
 20 22  1  0
 21 20  2  0
 23 22  1  6
 23 25  1  0
 24 17  1  0
 24 23  1  0
 25 27  2  0
 25 26  1  0
M  END
$$$$
