HNN.pdb
     RDKit          3D

 27 27  0  0  1  0  0  0  0  0999 V2000
   20.0446  -13.9996  -15.8815 N   0  0  0  0  0  0  0  0  0  0  0  0
   19.9796  -12.6186  -16.2743 C   0  0  1  0  0  0  0  0  0  0  0  0
   18.6892  -12.0007  -15.7758 C   0  0  0  0  0  0  0  0  0  0  0  0
   17.5777  -12.6934  -16.4565 C   0  0  0  0  0  0  0  0  0  0  0  0
   17.0739  -13.9209  -16.1190 C   0  0  0  0  0  0  0  0  0  0  0  0
   16.0772  -14.2033  -16.9696 N   0  0  0  0  0  0  0  0  0  0  0  0
   15.9775  -13.1625  -17.8108 C   0  0  0  0  0  0  0  0  0  0  0  0
   16.8932  -12.2360  -17.5012 N   0  0  0  0  0  0  0  0  0  0  0  0
   21.1005  -11.8291  -15.6708 C   0  0  0  0  0  0  0  0  0  0  0  0
   21.2224  -11.7000  -14.4268 O   0  0  0  0  0  0  0  0  0  0  0  0
   26.9361  -10.9060  -16.0125 N   0  0  0  0  0  0  0  0  0  0  0  0
   25.6370  -10.3940  -15.7613 C   0  0  0  0  0  0  0  0  0  0  0  0
   25.5406   -9.3533  -15.0659 O   0  0  0  0  0  0  0  0  0  0  0  0
   24.4306  -11.0317  -16.2798 C   0  0  0  0  0  0  0  0  0  0  0  0
   23.1360  -10.3842  -15.8626 C   0  0  2  0  0  0  0  0  0  0  0  0
   22.0780  -11.1891  -16.4819 N   0  0  0  0  0  0  0  0  0  0  0  0
   23.0347   -9.0407  -16.4882 C   0  0  0  0  0  0  0  0  0  0  0  0
   22.2656   -8.8426  -17.4918 O   0  0  0  0  0  0  0  0  0  0  0  0
   21.6322   -4.6141  -13.4202 N   0  0  0  0  0  0  0  0  0  0  0  0
   21.3997   -5.3745  -14.5883 C   0  0  0  0  0  0  0  0  0  0  0  0
   20.5951   -4.9354  -15.4347 O   0  0  0  0  0  0  0  0  0  0  0  0
   22.0815   -6.6388  -14.7993 C   0  0  0  0  0  0  0  0  0  0  0  0
   23.1101   -6.6187  -15.8988 C   0  0  2  0  0  0  0  0  0  0  0  0
   23.7589   -7.9066  -16.0381 N   0  0  0  0  0  0  0  0  0  0  0  0
   24.1117   -5.5295  -15.6982 C   0  0  0  0  0  0  0  0  0  0  0  0
   23.9598   -4.2680  -16.2484 O   0  0  0  0  0  0  0  0  0  0  0  0
   25.1544   -5.7257  -15.0051 O   0  0  0  0  0  0  0  0  0  0  0  0
  2  1  1  1
  2  9  1  0
  3  2  1  0
  3  4  1  0
  4  5  2  0
  4  8  1  0
  5  6  1  0
  6  7  1  0
  8  7  2  0
  9 10  2  0
 11 12  1  0
 12 14  1  0
 13 12  2  0
 15 14  1  6
 15 17  1  0
 16  9  1  0
 16 15  1  0
 17 18  2  0
 19 20  1  0
 20 22  1  0
 21 20  2  0
 23 22  1  1
 23 25  1  0
 24 17  1  0
 24 23  1  0
 25 27  2  0
 25 26  1  0
M  END
$$$$
