HNN.pdb
     RDKit          3D

 27 27  0  0  1  0  0  0  0  0999 V2000
   17.1995  -12.5257  -15.3492 N   0  0  0  0  0  0  0  0  0  0  0  0
   16.9608  -11.1952  -15.8373 C   0  0  1  0  0  0  0  0  0  0  0  0
   15.5047  -10.8264  -15.6389 C   0  0  0  0  0  0  0  0  0  0  0  0
   14.7174  -11.5983  -16.6202 C   0  0  0  0  0  0  0  0  0  0  0  0
   14.2569  -11.1305  -17.8217 C   0  0  0  0  0  0  0  0  0  0  0  0
   13.5889  -12.1261  -18.4209 N   0  0  0  0  0  0  0  0  0  0  0  0
   13.6433  -13.1827  -17.5952 C   0  0  0  0  0  0  0  0  0  0  0  0
   14.3326  -12.8650  -16.4922 N   0  0  0  0  0  0  0  0  0  0  0  0
   17.7709  -10.1863  -15.0826 C   0  0  0  0  0  0  0  0  0  0  0  0
   17.8096  -10.1765  -13.8266 O   0  0  0  0  0  0  0  0  0  0  0  0
   21.3202   -6.4101  -14.0150 N   0  0  0  0  0  0  0  0  0  0  0  0
   21.5299   -7.0492  -15.2641 C   0  0  0  0  0  0  0  0  0  0  0  0
   22.5746   -6.7663  -15.9000 O   0  0  0  0  0  0  0  0  0  0  0  0
   20.5820   -8.0098  -15.8208 C   0  0  0  0  0  0  0  0  0  0  0  0
   19.3473   -8.2436  -14.9900 C   0  0  2  0  0  0  0  0  0  0  0  0
   18.5334   -9.1926  -15.7565 N   0  0  0  0  0  0  0  0  0  0  0  0
   18.5511   -6.9910  -14.9300 C   0  0  0  0  0  0  0  0  0  0  0  0
   17.8925   -6.5847  -15.9494 O   0  0  0  0  0  0  0  0  0  0  0  0
   16.1473   -2.6170  -13.5168 N   0  0  0  0  0  0  0  0  0  0  0  0
   16.3052   -3.4370  -12.3769 C   0  0  0  0  0  0  0  0  0  0  0  0
   15.7930   -3.0669  -11.3012 O   0  0  0  0  0  0  0  0  0  0  0  0
   17.0471   -4.6825  -12.4552 C   0  0  0  0  0  0  0  0  0  0  0  0
   17.6852   -4.9472  -13.7931 C   0  0  2  0  0  0  0  0  0  0  0  0
   18.4601   -6.1713  -13.7754 N   0  0  0  0  0  0  0  0  0  0  0  0
   18.5138   -3.7912  -14.2481 C   0  0  0  0  0  0  0  0  0  0  0  0
   17.9675   -2.6859  -14.8780 O   0  0  0  0  0  0  0  0  0  0  0  0
   19.7686   -3.7821  -14.0705 O   0  0  0  0  0  0  0  0  0  0  0  0
  2  1  1  1
  2  9  1  0
  3  2  1  0
  3  4  1  0
  4  5  2  0
  4  8  1  0
  5  6  1  0
  6  7  1  0
  8  7  2  0
  9 10  2  0
 11 12  1  0
 12 14  1  0
 13 12  2  0
 15 14  1  6
 15 17  1  0
 16  9  1  0
 16 15  1  0
 17 18  2  0
 19 20  1  0
 20 22  1  0
 21 20  2  0
 23 22  1  1
 23 25  1  0
 24 17  1  0
 24 23  1  0
 25 27  2  0
 25 26  1  0
M  END
$$$$
