HNN.pdb
     RDKit          3D

 27 27  0  0  1  0  0  0  0  0999 V2000
   23.6142  -33.1848   -9.9739 N   0  0  0  0  0  0  0  0  0  0  0  0
   23.8738  -32.3934   -8.8027 C   0  0  1  0  0  0  0  0  0  0  0  0
   22.5896  -31.7513   -8.3189 C   0  0  0  0  0  0  0  0  0  0  0  0
   22.2186  -30.7142   -9.3015 C   0  0  0  0  0  0  0  0  0  0  0  0
   22.9840  -30.3053  -10.3604 C   0  0  0  0  0  0  0  0  0  0  0  0
   22.3048  -29.3522  -11.0138 N   0  0  0  0  0  0  0  0  0  0  0  0
   21.1442  -29.1853  -10.3611 C   0  0  0  0  0  0  0  0  0  0  0  0
   21.0865  -30.0162   -9.3128 N   0  0  0  0  0  0  0  0  0  0  0  0
   24.3865  -33.2397   -7.6781 C   0  0  0  0  0  0  0  0  0  0  0  0
   24.0107  -34.4286   -7.5218 O   0  0  0  0  0  0  0  0  0  0  0  0
   27.2045  -34.9155   -3.5379 N   0  0  0  0  0  0  0  0  0  0  0  0
   27.7876  -33.7811   -4.1590 C   0  0  0  0  0  0  0  0  0  0  0  0
   28.9253  -33.4194   -3.7709 O   0  0  0  0  0  0  0  0  0  0  0  0
   27.1140  -33.0360   -5.2183 C   0  0  0  0  0  0  0  0  0  0  0  0
   25.7596  -33.5662   -5.6102 C   0  0  2  0  0  0  0  0  0  0  0  0
   25.3233  -32.7329   -6.7354 N   0  0  0  0  0  0  0  0  0  0  0  0
   24.7917  -33.2990   -4.5156 C   0  0  0  0  0  0  0  0  0  0  0  0
   24.4802  -32.0995   -4.1958 O   0  0  0  0  0  0  0  0  0  0  0  0
   21.5549  -32.5529   -4.3677 N   0  0  0  0  0  0  0  0  0  0  0  0
   21.0693  -33.7608   -3.8181 C   0  0  0  0  0  0  0  0  0  0  0  0
   19.9257  -34.1435   -4.1380 O   0  0  0  0  0  0  0  0  0  0  0  0
   21.8826  -34.5393   -2.9015 C   0  0  0  0  0  0  0  0  0  0  0  0
   23.2641  -33.9876   -2.6684 C   0  0  2  0  0  0  0  0  0  0  0  0
   24.1559  -34.3189   -3.7612 N   0  0  0  0  0  0  0  0  0  0  0  0
   23.8250  -34.4377   -1.3597 C   0  0  0  0  0  0  0  0  0  0  0  0
   23.3996  -33.9174   -0.1492 O   0  0  0  0  0  0  0  0  0  0  0  0
   24.7263  -35.3273   -1.3110 O   0  0  0  0  0  0  0  0  0  0  0  0
  2  1  1  6
  2  9  1  0
  3  2  1  0
  3  4  1  0
  4  5  2  0
  4  8  1  0
  5  6  1  0
  6  7  1  0
  8  7  2  0
  9 10  2  0
 11 12  1  0
 12 14  1  0
 13 12  2  0
 15 14  1  1
 15 17  1  0
 16  9  1  0
 16 15  1  0
 17 18  2  0
 19 20  1  0
 20 22  1  0
 21 20  2  0
 23 22  1  6
 23 25  1  0
 24 17  1  0
 24 23  1  0
 25 27  2  0
 25 26  1  0
M  END
$$$$
