HNN.pdb
     RDKit          3D

 27 27  0  0  1  0  0  0  0  0999 V2000
   24.4798  -13.2900  -17.3378 N   0  0  0  0  0  0  0  0  0  0  0  0
   24.5859  -12.0639  -16.5956 C   0  0  1  0  0  0  0  0  0  0  0  0
   25.8768  -11.3553  -16.9520 C   0  0  0  0  0  0  0  0  0  0  0  0
   26.9892  -12.2383  -16.5501 C   0  0  0  0  0  0  0  0  0  0  0  0
   27.2897  -12.6131  -15.2681 C   0  0  0  0  0  0  0  0  0  0  0  0
   28.3632  -13.4143  -15.3158 N   0  0  0  0  0  0  0  0  0  0  0  0
   28.7091  -13.5241  -16.6078 C   0  0  0  0  0  0  0  0  0  0  0  0
   27.8716  -12.8065  -17.3671 N   0  0  0  0  0  0  0  0  0  0  0  0
   23.4681  -11.1259  -16.9340 C   0  0  0  0  0  0  0  0  0  0  0  0
   23.1231  -10.9113  -18.1231 O   0  0  0  0  0  0  0  0  0  0  0  0
   19.0060   -8.4205  -16.6223 N   0  0  0  0  0  0  0  0  0  0  0  0
   19.1232   -9.6093  -15.8570 C   0  0  0  0  0  0  0  0  0  0  0  0
   18.0799  -10.0815  -15.3428 O   0  0  0  0  0  0  0  0  0  0  0  0
   20.4001  -10.2872  -15.6546 C   0  0  0  0  0  0  0  0  0  0  0  0
   21.5908   -9.6055  -16.2764 C   0  0  2  0  0  0  0  0  0  0  0  0
   22.7469  -10.4351  -15.9212 N   0  0  0  0  0  0  0  0  0  0  0  0
   21.8148   -8.2992  -15.6058 C   0  0  0  0  0  0  0  0  0  0  0  0
   22.3941   -8.2395  -14.4661 O   0  0  0  0  0  0  0  0  0  0  0  0
   22.3498   -3.2428  -14.5361 N   0  0  0  0  0  0  0  0  0  0  0  0
   22.7481   -3.5598  -15.8544 C   0  0  0  0  0  0  0  0  0  0  0  0
   23.3417   -2.6897  -16.5229 O   0  0  0  0  0  0  0  0  0  0  0  0
   22.4725   -4.8687  -16.4188 C   0  0  0  0  0  0  0  0  0  0  0  0
   21.7470   -5.8087  -15.4929 C   0  0  2  0  0  0  0  0  0  0  0  0
   21.4172   -7.0535  -16.1569 N   0  0  0  0  0  0  0  0  0  0  0  0
   20.5309   -5.1738  -14.9030 C   0  0  0  0  0  0  0  0  0  0  0  0
   20.5372   -4.5676  -13.6582 O   0  0  0  0  0  0  0  0  0  0  0  0
   19.4311   -5.1682  -15.5327 O   0  0  0  0  0  0  0  0  0  0  0  0
  2  1  1  6
  2  9  1  0
  3  2  1  0
  3  4  1  0
  4  5  2  0
  4  8  1  0
  5  6  1  0
  6  7  1  0
  8  7  2  0
  9 10  2  0
 11 12  1  0
 12 14  1  0
 13 12  2  0
 15 14  1  1
 15 17  1  0
 16  9  1  0
 16 15  1  0
 17 18  2  0
 19 20  1  0
 20 22  1  0
 21 20  2  0
 23 22  1  6
 23 25  1  0
 24 17  1  0
 24 23  1  0
 25 27  2  0
 25 26  1  0
M  END
$$$$
