EHE.pdb
     RDKit          3D

 29 29  0  0  1  0  0  0  0  0999 V2000
   21.5475  -17.3442  -17.5024 N   0  0  0  0  0  0  0  0  0  0  0  0
   20.8153  -16.2396  -17.9843 C   0  0  1  0  0  0  0  0  0  0  0  0
   19.4145  -16.4551  -18.4139 C   0  0  0  0  0  0  0  0  0  0  0  0
   19.1877  -17.5827  -19.3679 C   0  0  0  0  0  0  0  0  0  0  0  0
   17.8181  -17.7504  -19.8709 C   0  0  0  0  0  0  0  0  0  0  0  0
   16.8077  -17.1049  -19.5467 O   0  0  0  0  0  0  0  0  0  0  0  0
   20.9269  -15.0663  -17.0361 C   0  0  0  0  0  0  0  0  0  0  0  0
   20.4350  -15.0998  -15.8924 O   0  0  0  0  0  0  0  0  0  0  0  0
   17.6463  -18.7612  -20.8283 O   0  0  0  0  0  0  0  0  0  0  0  0
   21.6033  -13.8660  -17.4160 N   0  0  0  0  0  0  0  0  0  0  0  0
   21.7143  -12.7086  -16.5590 C   0  0  1  0  0  0  0  0  0  0  0  0
   23.1083  -12.1335  -16.5580 C   0  0  0  0  0  0  0  0  0  0  0  0
   23.2250  -10.9884  -15.5988 C   0  0  0  0  0  0  0  0  0  0  0  0
   23.6759  -11.0740  -14.3205 C   0  0  0  0  0  0  0  0  0  0  0  0
   23.6377   -9.8590  -13.7682 N   0  0  0  0  0  0  0  0  0  0  0  0
   23.1638   -9.0306  -14.7075 C   0  0  0  0  0  0  0  0  0  0  0  0
   22.9082   -9.7125  -15.8308 N   0  0  0  0  0  0  0  0  0  0  0  0
   20.6612  -11.7121  -16.7575 C   0  0  0  0  0  0  0  0  0  0  0  0
   20.2293  -11.3181  -17.8647 O   0  0  0  0  0  0  0  0  0  0  0  0
   20.0313  -11.1031  -15.6068 N   0  0  0  0  0  0  0  0  0  0  0  0
   18.9770  -10.1309  -15.7078 C   0  0  1  0  0  0  0  0  0  0  0  0
   17.8378  -10.3560  -14.7850 C   0  0  0  0  0  0  0  0  0  0  0  0
   16.7149   -9.4026  -14.7682 C   0  0  0  0  0  0  0  0  0  0  0  0
   15.5053   -9.8720  -14.1159 C   0  0  0  0  0  0  0  0  0  0  0  0
   15.3930  -10.9954  -13.6081 O   0  0  0  0  0  0  0  0  0  0  0  0
   19.4879   -8.7607  -15.4438 C   0  0  0  0  0  0  0  0  0  0  0  0
   20.5595   -8.6198  -14.8288 O   0  0  0  0  0  0  0  0  0  0  0  0
   14.3631   -9.0330  -14.0306 O   0  0  0  0  0  0  0  0  0  0  0  0
   18.8095   -7.6220  -15.8584 O   0  0  0  0  0  0  0  0  0  0  0  0
  2  1  1  1
  2  7  1  0
  2  3  1  0
  4  3  1  0
  4  5  1  0
  5  6  2  0
  5  9  1  0
  7  8  2  0
 10 11  1  0
 10  7  1  0
 11 12  1  6
 12 13  1  0
 13 14  2  0
 14 15  1  0
 16 15  1  0
 17 13  1  0
 17 16  2  0
 18 20  1  0
 18 11  1  0
 19 18  2  0
 21 22  1  1
 21 20  1  0
 22 23  1  0
 23 24  1  0
 24 28  1  0
 24 25  2  0
 26 21  1  0
 27 26  2  0
 29 26  1  0
M  END
$$$$
