EHE.pdb
     RDKit          3D

 29 29  0  0  1  0  0  0  0  0999 V2000
   20.4543  -13.9143  -17.1080 N   0  0  0  0  0  0  0  0  0  0  0  0
   19.9362  -12.6146  -16.9323 C   0  0  1  0  0  0  0  0  0  0  0  0
   19.2115  -12.3078  -15.6777 C   0  0  0  0  0  0  0  0  0  0  0  0
   18.0318  -13.1732  -15.3740 C   0  0  0  0  0  0  0  0  0  0  0  0
   16.9465  -13.1730  -16.3635 C   0  0  0  0  0  0  0  0  0  0  0  0
   16.8481  -12.4657  -17.3797 O   0  0  0  0  0  0  0  0  0  0  0  0
   20.9906  -11.5714  -17.2292 C   0  0  0  0  0  0  0  0  0  0  0  0
   21.9763  -11.4070  -16.4859 O   0  0  0  0  0  0  0  0  0  0  0  0
   15.9069  -14.0827  -16.1192 O   0  0  0  0  0  0  0  0  0  0  0  0
   20.8977  -10.7277  -18.3790 N   0  0  0  0  0  0  0  0  0  0  0  0
   21.8914   -9.7376  -18.7232 C   0  0  1  0  0  0  0  0  0  0  0  0
   22.2162   -9.7459  -20.1957 C   0  0  0  0  0  0  0  0  0  0  0  0
   22.6645  -11.1023  -20.6476 C   0  0  0  0  0  0  0  0  0  0  0  0
   21.9260  -11.9710  -21.3856 C   0  0  0  0  0  0  0  0  0  0  0  0
   22.6444  -13.0766  -21.5955 N   0  0  0  0  0  0  0  0  0  0  0  0
   23.8215  -12.8849  -20.9865 C   0  0  0  0  0  0  0  0  0  0  0  0
   23.8430  -11.6799  -20.4036 N   0  0  0  0  0  0  0  0  0  0  0  0
   21.6227   -8.4048  -18.1820 C   0  0  0  0  0  0  0  0  0  0  0  0
   20.5371   -8.0234  -17.6883 O   0  0  0  0  0  0  0  0  0  0  0  0
   22.6704   -7.4077  -18.1925 N   0  0  0  0  0  0  0  0  0  0  0  0
   22.5491   -6.1302  -17.5440 C   0  0  1  0  0  0  0  0  0  0  0  0
   22.2921   -6.1995  -16.0849 C   0  0  0  0  0  0  0  0  0  0  0  0
   22.1989   -4.9549  -15.3021 C   0  0  0  0  0  0  0  0  0  0  0  0
   22.0364   -5.1277  -13.8693 C   0  0  0  0  0  0  0  0  0  0  0  0
   21.9823   -6.2331  -13.3147 O   0  0  0  0  0  0  0  0  0  0  0  0
   23.7790   -5.3177  -17.7322 C   0  0  0  0  0  0  0  0  0  0  0  0
   24.8302   -5.8797  -18.0863 O   0  0  0  0  0  0  0  0  0  0  0  0
   21.9297   -3.9973  -13.0169 O   0  0  0  0  0  0  0  0  0  0  0  0
   23.8014   -3.9447  -17.5246 O   0  0  0  0  0  0  0  0  0  0  0  0
  2  1  1  1
  2  7  1  0
  2  3  1  0
  4  3  1  0
  4  5  1  0
  5  6  2  0
  5  9  1  0
  7  8  2  0
 10 11  1  0
 10  7  1  0
 11 12  1  6
 12 13  1  0
 13 14  2  0
 14 15  1  0
 16 15  1  0
 17 13  1  0
 17 16  2  0
 18 20  1  0
 18 11  1  0
 19 18  2  0
 21 22  1  1
 21 20  1  0
 22 23  1  0
 23 24  1  0
 24 28  1  0
 24 25  2  0
 26 21  1  0
 27 26  2  0
 29 26  1  0
M  END
$$$$
