EHE.pdb
     RDKit          3D

 29 29  0  0  1  0  0  0  0  0999 V2000
   18.6389  -10.8027  -17.6117 N   0  0  0  0  0  0  0  0  0  0  0  0
   19.5384  -10.6608  -16.5351 C   0  0  1  0  0  0  0  0  0  0  0  0
   20.9904  -10.6453  -16.8263 C   0  0  0  0  0  0  0  0  0  0  0  0
   21.4501   -9.6207  -17.8121 C   0  0  0  0  0  0  0  0  0  0  0  0
   22.8908   -9.5834  -18.0951 C   0  0  0  0  0  0  0  0  0  0  0  0
   23.4908  -10.1172  -19.0426 O   0  0  0  0  0  0  0  0  0  0  0  0
   19.1407   -9.4984  -15.6525 C   0  0  0  0  0  0  0  0  0  0  0  0
   18.6052   -8.4755  -16.1192 O   0  0  0  0  0  0  0  0  0  0  0  0
   23.6670   -8.8566  -17.1800 O   0  0  0  0  0  0  0  0  0  0  0  0
   19.3650   -9.5265  -14.2413 N   0  0  0  0  0  0  0  0  0  0  0  0
   18.9371   -8.4775  -13.3455 C   0  0  1  0  0  0  0  0  0  0  0  0
   18.4353   -9.0213  -12.0315 C   0  0  0  0  0  0  0  0  0  0  0  0
   17.8121   -7.9437  -11.1977 C   0  0  0  0  0  0  0  0  0  0  0  0
   17.8032   -6.6195  -11.4997 C   0  0  0  0  0  0  0  0  0  0  0  0
   17.1638   -5.9610  -10.5301 N   0  0  0  0  0  0  0  0  0  0  0  0
   16.7817   -6.8812   -9.6355 C   0  0  0  0  0  0  0  0  0  0  0  0
   17.1741   -8.0971  -10.0352 N   0  0  0  0  0  0  0  0  0  0  0  0
   19.8945   -7.3795  -13.2068 C   0  0  0  0  0  0  0  0  0  0  0  0
   21.1392   -7.5007  -13.1457 O   0  0  0  0  0  0  0  0  0  0  0  0
   19.4111   -6.0184  -13.1331 N   0  0  0  0  0  0  0  0  0  0  0  0
   20.2326   -4.8736  -13.4192 C   0  0  1  0  0  0  0  0  0  0  0  0
   20.8940   -4.9036  -14.7464 C   0  0  0  0  0  0  0  0  0  0  0  0
   21.6595   -3.7314  -15.2051 C   0  0  0  0  0  0  0  0  0  0  0  0
   22.2873   -3.8648  -16.5079 C   0  0  0  0  0  0  0  0  0  0  0  0
   22.2557   -2.9835  -17.3767 O   0  0  0  0  0  0  0  0  0  0  0  0
   19.4394   -3.6187  -13.3555 C   0  0  0  0  0  0  0  0  0  0  0  0
   18.2094   -3.6676  -13.5320 O   0  0  0  0  0  0  0  0  0  0  0  0
   22.9872   -5.0518  -16.8499 O   0  0  0  0  0  0  0  0  0  0  0  0
   20.0224   -2.3830  -13.1064 O   0  0  0  0  0  0  0  0  0  0  0  0
  2  1  1  6
  2  7  1  0
  2  3  1  0
  4  3  1  0
  4  5  1  0
  5  6  2  0
  5  9  1  0
  7  8  2  0
 10 11  1  0
 10  7  1  0
 11 12  1  1
 12 13  1  0
 13 14  2  0
 14 15  1  0
 16 15  1  0
 17 13  1  0
 17 16  2  0
 18 20  1  0
 18 11  1  0
 19 18  2  0
 21 22  1  6
 21 20  1  0
 22 23  1  0
 23 24  1  0
 24 28  1  0
 24 25  2  0
 26 21  1  0
 27 26  2  0
 29 26  1  0
M  END
$$$$
