EHE.pdb
     RDKit          3D

 29 29  0  0  1  0  0  0  0  0999 V2000
   22.9951  -14.1265  -16.1175 N   0  0  0  0  0  0  0  0  0  0  0  0
   22.1470  -13.0094  -16.2629 C   0  0  1  0  0  0  0  0  0  0  0  0
   20.8238  -13.0371  -15.5985 C   0  0  0  0  0  0  0  0  0  0  0  0
   19.9417  -14.1931  -15.9429 C   0  0  0  0  0  0  0  0  0  0  0  0
   18.4944  -13.9692  -15.8316 C   0  0  0  0  0  0  0  0  0  0  0  0
   17.9129  -12.9221  -15.5032 O   0  0  0  0  0  0  0  0  0  0  0  0
   22.8902  -11.7275  -15.9581 C   0  0  0  0  0  0  0  0  0  0  0  0
   23.2989  -11.4646  -14.8115 O   0  0  0  0  0  0  0  0  0  0  0  0
   17.6875  -15.0761  -16.1346 O   0  0  0  0  0  0  0  0  0  0  0  0
   23.1538  -10.7614  -16.9777 N   0  0  0  0  0  0  0  0  0  0  0  0
   23.8122   -9.5001  -16.7292 C   0  0  1  0  0  0  0  0  0  0  0  0
   25.1840   -9.4422  -17.3527 C   0  0  0  0  0  0  0  0  0  0  0  0
   26.1195  -10.4163  -16.7039 C   0  0  0  0  0  0  0  0  0  0  0  0
   26.5496  -11.5814  -17.2536 C   0  0  0  0  0  0  0  0  0  0  0  0
   27.3669  -12.1889  -16.3902 N   0  0  0  0  0  0  0  0  0  0  0  0
   27.4370  -11.3965  -15.3131 C   0  0  0  0  0  0  0  0  0  0  0  0
   26.6769  -10.3097  -15.4956 N   0  0  0  0  0  0  0  0  0  0  0  0
   22.9839   -8.3261  -17.0069 C   0  0  0  0  0  0  0  0  0  0  0  0
   22.1757   -8.2119  -17.9564 O   0  0  0  0  0  0  0  0  0  0  0  0
   23.0673   -7.1740  -16.1366 N   0  0  0  0  0  0  0  0  0  0  0  0
   22.3578   -5.9478  -16.3820 C   0  0  1  0  0  0  0  0  0  0  0  0
   22.5369   -4.9101  -15.3374 C   0  0  0  0  0  0  0  0  0  0  0  0
   21.8497   -3.6141  -15.4732 C   0  0  0  0  0  0  0  0  0  0  0  0
   21.0910   -3.1836  -14.3121 C   0  0  0  0  0  0  0  0  0  0  0  0
   21.0924   -3.7868  -13.2311 O   0  0  0  0  0  0  0  0  0  0  0  0
   22.7714   -5.3418  -17.6742 C   0  0  0  0  0  0  0  0  0  0  0  0
   23.9817   -5.2647  -17.9494 O   0  0  0  0  0  0  0  0  0  0  0  0
   20.2895   -2.0132  -14.3712 O   0  0  0  0  0  0  0  0  0  0  0  0
   21.8524   -4.8523  -18.5933 O   0  0  0  0  0  0  0  0  0  0  0  0
  2  1  1  1
  2  7  1  0
  2  3  1  0
  4  3  1  0
  4  5  1  0
  5  6  2  0
  5  9  1  0
  7  8  2  0
 10 11  1  0
 10  7  1  0
 11 12  1  6
 12 13  1  0
 13 14  2  0
 14 15  1  0
 16 15  1  0
 17 13  1  0
 17 16  2  0
 18 20  1  0
 18 11  1  0
 19 18  2  0
 21 22  1  1
 21 20  1  0
 22 23  1  0
 23 24  1  0
 24 28  1  0
 24 25  2  0
 26 21  1  0
 27 26  2  0
 29 26  1  0
M  END
$$$$
