EHE.pdb
     RDKit          3D

 29 29  0  0  1  0  0  0  0  0999 V2000
   28.9042  -37.7445   -7.4360 N   0  0  0  0  0  0  0  0  0  0  0  0
   29.9748  -38.4785   -6.8852 C   0  0  1  0  0  0  0  0  0  0  0  0
   30.9464  -39.1091   -7.8081 C   0  0  0  0  0  0  0  0  0  0  0  0
   30.3912  -40.1326   -8.7448 C   0  0  0  0  0  0  0  0  0  0  0  0
   30.0935  -41.4520   -8.1724 C   0  0  0  0  0  0  0  0  0  0  0  0
   30.7821  -42.1019   -7.3687 O   0  0  0  0  0  0  0  0  0  0  0  0
   30.6756  -37.6801   -5.8083 C   0  0  0  0  0  0  0  0  0  0  0  0
   31.6463  -38.1411   -5.1788 O   0  0  0  0  0  0  0  0  0  0  0  0
   28.8876  -42.0335   -8.5915 O   0  0  0  0  0  0  0  0  0  0  0  0
   30.2500  -36.3591   -5.4673 N   0  0  0  0  0  0  0  0  0  0  0  0
   30.9118  -35.5387   -4.4799 C   0  0  1  0  0  0  0  0  0  0  0  0
   30.8329  -34.0706   -4.8150 C   0  0  0  0  0  0  0  0  0  0  0  0
   31.8712  -33.6850   -5.8241 C   0  0  0  0  0  0  0  0  0  0  0  0
   32.8057  -34.5180   -6.3509 C   0  0  0  0  0  0  0  0  0  0  0  0
   33.5599  -33.8299   -7.2112 N   0  0  0  0  0  0  0  0  0  0  0  0
   33.0875  -32.5770   -7.2112 C   0  0  0  0  0  0  0  0  0  0  0  0
   32.0544  -32.4787   -6.3654 N   0  0  0  0  0  0  0  0  0  0  0  0
   30.5477  -35.8525   -3.0977 C   0  0  0  0  0  0  0  0  0  0  0  0
   29.3913  -36.0999   -2.6864 O   0  0  0  0  0  0  0  0  0  0  0  0
   31.5772  -35.8963   -2.0827 N   0  0  0  0  0  0  0  0  0  0  0  0
   31.3092  -36.1870   -0.7004 C   0  0  1  0  0  0  0  0  0  0  0  0
   32.4791  -36.0426    0.1998 C   0  0  0  0  0  0  0  0  0  0  0  0
   32.3823  -36.4962    1.5981 C   0  0  0  0  0  0  0  0  0  0  0  0
   33.5789  -36.3113    2.4001 C   0  0  0  0  0  0  0  0  0  0  0  0
   33.6496  -36.6015    3.6014 O   0  0  0  0  0  0  0  0  0  0  0  0
   30.2378  -35.3057   -0.1680 C   0  0  0  0  0  0  0  0  0  0  0  0
   30.0142  -34.2166   -0.7249 O   0  0  0  0  0  0  0  0  0  0  0  0
   34.7568  -35.7719    1.8193 O   0  0  0  0  0  0  0  0  0  0  0  0
   29.4715  -35.6522    0.9372 O   0  0  0  0  0  0  0  0  0  0  0  0
  2  1  1  6
  2  7  1  0
  2  3  1  0
  4  3  1  0
  4  5  1  0
  5  6  2  0
  5  9  1  0
  7  8  2  0
 10 11  1  0
 10  7  1  0
 11 12  1  6
 12 13  1  0
 13 14  2  0
 14 15  1  0
 16 15  1  0
 17 13  1  0
 17 16  2  0
 18 20  1  0
 18 11  1  0
 19 18  2  0
 21 22  1  1
 21 20  1  0
 22 23  1  0
 23 24  1  0
 24 28  1  0
 24 25  2  0
 26 21  1  0
 27 26  2  0
 29 26  1  0
M  END
$$$$
