EHE.pdb
     RDKit          3D

 29 29  0  0  1  0  0  0  0  0999 V2000
   19.2862  -11.5758  -17.8709 N   0  0  0  0  0  0  0  0  0  0  0  0
   19.0415  -11.3496  -16.5007 C   0  0  1  0  0  0  0  0  0  0  0  0
   18.6953  -12.5080  -15.6454 C   0  0  0  0  0  0  0  0  0  0  0  0
   17.5651  -13.3609  -16.1232 C   0  0  0  0  0  0  0  0  0  0  0  0
   17.2056  -14.5067  -15.2777 C   0  0  0  0  0  0  0  0  0  0  0  0
   17.7800  -14.8985  -14.2486 O   0  0  0  0  0  0  0  0  0  0  0  0
   20.1490  -10.5223  -15.8866 C   0  0  0  0  0  0  0  0  0  0  0  0
   20.1234  -10.1799  -14.6895 O   0  0  0  0  0  0  0  0  0  0  0  0
   16.0802  -15.2338  -15.6933 O   0  0  0  0  0  0  0  0  0  0  0  0
   21.2741  -10.0972  -16.6586 N   0  0  0  0  0  0  0  0  0  0  0  0
   22.3630   -9.3178  -16.1175 C   0  0  1  0  0  0  0  0  0  0  0  0
   23.7059   -9.8049  -16.6006 C   0  0  0  0  0  0  0  0  0  0  0  0
   23.9099  -11.2532  -16.2754 C   0  0  0  0  0  0  0  0  0  0  0  0
   23.7176  -12.2882  -17.1336 C   0  0  0  0  0  0  0  0  0  0  0  0
   23.9921  -13.4303  -16.4991 N   0  0  0  0  0  0  0  0  0  0  0  0
   24.3519  -13.0948  -15.2537 C   0  0  0  0  0  0  0  0  0  0  0  0
   24.3045  -11.7650  -15.1074 N   0  0  0  0  0  0  0  0  0  0  0  0
   22.1799   -7.8705  -16.2328 C   0  0  0  0  0  0  0  0  0  0  0  0
   22.0339   -7.2368  -17.3027 O   0  0  0  0  0  0  0  0  0  0  0  0
   22.1549   -7.0585  -15.0361 N   0  0  0  0  0  0  0  0  0  0  0  0
   21.8790   -5.6475  -15.0467 C   0  0  1  0  0  0  0  0  0  0  0  0
   20.5947   -5.2734  -15.6874 C   0  0  0  0  0  0  0  0  0  0  0  0
   20.1907   -3.8576  -15.7366 C   0  0  0  0  0  0  0  0  0  0  0  0
   18.8692   -3.6026  -16.2823 C   0  0  0  0  0  0  0  0  0  0  0  0
   18.2733   -2.5247  -16.1577 O   0  0  0  0  0  0  0  0  0  0  0  0
   21.8538   -5.0987  -13.6660 C   0  0  0  0  0  0  0  0  0  0  0  0
   21.7716   -5.8807  -12.7027 O   0  0  0  0  0  0  0  0  0  0  0  0
   18.1835   -4.6134  -17.0058 O   0  0  0  0  0  0  0  0  0  0  0  0
   21.9168   -3.7357  -13.4069 O   0  0  0  0  0  0  0  0  0  0  0  0
  2  1  1  6
  2  7  1  0
  2  3  1  0
  4  3  1  0
  4  5  1  0
  5  6  2  0
  5  9  1  0
  7  8  2  0
 10 11  1  0
 10  7  1  0
 11 12  1  6
 12 13  1  0
 13 14  2  0
 14 15  1  0
 16 15  1  0
 17 13  1  0
 17 16  2  0
 18 20  1  0
 18 11  1  0
 19 18  2  0
 21 22  1  1
 21 20  1  0
 22 23  1  0
 23 24  1  0
 24 28  1  0
 24 25  2  0
 26 21  1  0
 27 26  2  0
 29 26  1  0
M  END
$$$$
