IWG.pdb
     RDKit          3D

 27 28  0  0  1  0  0  0  0  0999 V2000
    6.2818  -12.6132   19.5437 C   0  0  0  0  0  0  0  0  0  0  0  0
    6.9106  -13.9808   19.8055 C   0  0  0  0  0  0  0  0  0  0  0  0
    7.9873  -13.8870   20.8512 C   0  0  2  0  0  0  0  0  0  0  0  0
    9.0054  -12.8565   20.3936 C   0  0  0  0  0  0  0  0  0  0  0  0
    8.6560  -15.1947   21.1289 C   0  0  2  0  0  0  0  0  0  0  0  0
    7.6378  -16.2312   21.1910 N   0  0  0  0  0  0  0  0  0  0  0  0
    9.3562  -15.1521   22.4132 C   0  0  0  0  0  0  0  0  0  0  0  0
   10.2237  -14.2663   22.6267 O   0  0  0  0  0  0  0  0  0  0  0  0
    9.1301  -16.0756   23.4984 N   0  0  0  0  0  0  0  0  0  0  0  0
    9.7788  -15.9371   24.7551 C   0  0  1  0  0  0  0  0  0  0  0  0
    8.9553  -16.0224   25.9764 C   0  0  0  0  0  0  0  0  0  0  0  0
    7.6695  -15.3219   25.9570 C   0  0  0  0  0  0  0  0  0  0  0  0
    6.4137  -15.8179   25.7281 C   0  0  0  0  0  0  0  0  0  0  0  0
    5.5008  -14.8215   25.8176 N   0  0  0  0  0  0  0  0  0  0  0  0
    6.1582  -13.6646   26.1067 C   0  0  0  0  0  0  0  0  0  0  0  0
    5.6983  -12.3772   26.3032 C   0  0  0  0  0  0  0  0  0  0  0  0
    6.5744  -11.3580   26.5934 C   0  0  0  0  0  0  0  0  0  0  0  0
    7.9164  -11.6489   26.6834 C   0  0  0  0  0  0  0  0  0  0  0  0
    8.3627  -12.9330   26.4857 C   0  0  0  0  0  0  0  0  0  0  0  0
    7.4836  -13.9741   26.1911 C   0  0  0  0  0  0  0  0  0  0  0  0
   10.9674  -16.8531   24.8803 C   0  0  0  0  0  0  0  0  0  0  0  0
   11.0429  -17.5193   25.9423 O   0  0  0  0  0  0  0  0  0  0  0  0
   11.9405  -16.9666   23.8804 N   0  0  0  0  0  0  0  0  0  0  0  0
   13.0651  -17.8563   23.9982 C   0  0  0  0  0  0  0  0  0  0  0  0
   13.9057  -17.8716   22.7921 C   0  0  0  0  0  0  0  0  0  0  0  0
   13.4988  -18.4275   21.5945 O   0  0  0  0  0  0  0  0  0  0  0  0
   15.0498  -17.3555   22.8483 O   0  0  0  0  0  0  0  0  0  0  0  0
  1  2  1  0
  3  2  1  0
  3  4  1  6
  5  3  1  0
  5  6  1  1
  7  5  1  0
  7  8  2  0
  9  7  1  0
 10 21  1  0
 10  9  1  0
 10 11  1  1
 12 13  2  0
 12 11  1  0
 14 13  1  0
 15 20  2  0
 15 14  1  0
 16 15  1  0
 17 18  1  0
 17 16  2  0
 18 19  2  0
 19 20  1  0
 20 12  1  0
 21 23  1  0
 22 21  2  0
 23 24  1  0
 24 25  1  0
 25 27  2  0
 25 26  1  0
M  END
$$$$
