IWG.pdb
     RDKit          3D

 27 28  0  0  1  0  0  0  0  0999 V2000
    6.5381  -12.6625   18.8984 C   0  0  0  0  0  0  0  0  0  0  0  0
    7.1865  -14.0230   19.1491 C   0  0  0  0  0  0  0  0  0  0  0  0
    8.0362  -13.9940   20.3896 C   0  0  2  0  0  0  0  0  0  0  0  0
    9.1165  -12.9427   20.2010 C   0  0  0  0  0  0  0  0  0  0  0  0
    8.6472  -15.3181   20.7176 C   0  0  2  0  0  0  0  0  0  0  0  0
    7.5855  -16.3078   20.8092 N   0  0  0  0  0  0  0  0  0  0  0  0
    9.3418  -15.2597   22.0044 C   0  0  0  0  0  0  0  0  0  0  0  0
   10.3054  -14.4666   22.1627 O   0  0  0  0  0  0  0  0  0  0  0  0
    9.0049  -16.0662   23.1523 N   0  0  0  0  0  0  0  0  0  0  0  0
    9.7946  -16.0650   24.3336 C   0  0  1  0  0  0  0  0  0  0  0  0
    9.1002  -16.1019   25.6350 C   0  0  0  0  0  0  0  0  0  0  0  0
    7.8574  -15.3351   25.7430 C   0  0  0  0  0  0  0  0  0  0  0  0
    6.5652  -15.7433   25.5459 C   0  0  0  0  0  0  0  0  0  0  0  0
    5.7167  -14.7107   25.7649 N   0  0  0  0  0  0  0  0  0  0  0  0
    6.4533  -13.6179   26.1079 C   0  0  0  0  0  0  0  0  0  0  0  0
    6.0786  -12.3285   26.4312 C   0  0  0  0  0  0  0  0  0  0  0  0
    7.0255  -11.3845   26.7520 C   0  0  0  0  0  0  0  0  0  0  0  0
    8.3514  -11.7526   26.7436 C   0  0  0  0  0  0  0  0  0  0  0  0
    8.7126  -13.0378   26.4201 C   0  0  0  0  0  0  0  0  0  0  0  0
    7.7613  -14.0031   26.0933 C   0  0  0  0  0  0  0  0  0  0  0  0
   10.8629  -17.1258   24.2991 C   0  0  0  0  0  0  0  0  0  0  0  0
   10.4614  -18.3157   24.3096 O   0  0  0  0  0  0  0  0  0  0  0  0
   12.2282  -16.8197   24.2578 N   0  0  0  0  0  0  0  0  0  0  0  0
   13.2450  -17.8376   24.2388 C   0  0  0  0  0  0  0  0  0  0  0  0
   14.6041  -17.2841   24.3277 C   0  0  0  0  0  0  0  0  0  0  0  0
   15.7308  -18.0685   24.4827 O   0  0  0  0  0  0  0  0  0  0  0  0
   14.7532  -16.0384   24.2600 O   0  0  0  0  0  0  0  0  0  0  0  0
  1  2  1  0
  3  2  1  0
  3  4  1  6
  5  3  1  0
  5  6  1  1
  7  5  1  0
  7  8  2  0
  9  7  1  0
 10 21  1  0
 10  9  1  0
 10 11  1  1
 12 13  2  0
 12 11  1  0
 14 13  1  0
 15 20  2  0
 15 14  1  0
 16 15  1  0
 17 18  1  0
 17 16  2  0
 18 19  2  0
 19 20  1  0
 20 12  1  0
 21 23  1  0
 22 21  2  0
 23 24  1  0
 24 25  1  0
 25 27  2  0
 25 26  1  0
M  END
$$$$
