IWG.pdb
     RDKit          3D

 27 28  0  0  1  0  0  0  0  0999 V2000
    7.1410  -15.5765   18.5649 C   0  0  0  0  0  0  0  0  0  0  0  0
    6.3318  -15.3586   19.8424 C   0  0  0  0  0  0  0  0  0  0  0  0
    7.2165  -14.8993   20.9683 C   0  0  2  0  0  0  0  0  0  0  0  0
    7.7402  -13.5148   20.6265 C   0  0  0  0  0  0  0  0  0  0  0  0
    8.3503  -15.8328   21.2465 C   0  0  2  0  0  0  0  0  0  0  0  0
    7.8109  -17.1675   21.4529 N   0  0  0  0  0  0  0  0  0  0  0  0
    9.0656  -15.4272   22.4571 C   0  0  0  0  0  0  0  0  0  0  0  0
    9.5999  -14.2901   22.5199 O   0  0  0  0  0  0  0  0  0  0  0  0
    9.2185  -16.2520   23.6310 N   0  0  0  0  0  0  0  0  0  0  0  0
    9.9668  -15.8252   24.7611 C   0  0  1  0  0  0  0  0  0  0  0  0
    9.2790  -15.7537   26.0646 C   0  0  0  0  0  0  0  0  0  0  0  0
    7.9426  -15.1554   26.0748 C   0  0  0  0  0  0  0  0  0  0  0  0
    6.7230  -15.7512   25.8927 C   0  0  0  0  0  0  0  0  0  0  0  0
    5.7382  -14.8271   25.9957 N   0  0  0  0  0  0  0  0  0  0  0  0
    6.3117  -13.6178   26.2468 C   0  0  0  0  0  0  0  0  0  0  0  0
    5.7589  -12.3668   26.4381 C   0  0  0  0  0  0  0  0  0  0  0  0
    6.5612  -11.2778   26.6855 C   0  0  0  0  0  0  0  0  0  0  0  0
    7.9238  -11.4622   26.7378 C   0  0  0  0  0  0  0  0  0  0  0  0
    8.4627  -12.7111   26.5457 C   0  0  0  0  0  0  0  0  0  0  0  0
    7.6592  -13.8222   26.2943 C   0  0  0  0  0  0  0  0  0  0  0  0
   11.2534  -16.5936   24.9086 C   0  0  0  0  0  0  0  0  0  0  0  0
   11.3014  -17.4153   25.8572 O   0  0  0  0  0  0  0  0  0  0  0  0
   12.3419  -16.4138   24.0470 N   0  0  0  0  0  0  0  0  0  0  0  0
   13.5882  -17.1102   24.2256 C   0  0  0  0  0  0  0  0  0  0  0  0
   14.5567  -16.8241   23.1571 C   0  0  0  0  0  0  0  0  0  0  0  0
   15.4305  -15.7547   23.1957 O   0  0  0  0  0  0  0  0  0  0  0  0
   14.5953  -17.5861   22.1588 O   0  0  0  0  0  0  0  0  0  0  0  0
  1  2  1  0
  3  2  1  0
  3  4  1  6
  5  3  1  0
  5  6  1  1
  7  5  1  0
  7  8  2  0
  9  7  1  0
 10 21  1  0
 10  9  1  0
 10 11  1  1
 12 13  2  0
 12 11  1  0
 14 13  1  0
 15 20  2  0
 15 14  1  0
 16 15  1  0
 17 18  1  0
 17 16  2  0
 18 19  2  0
 19 20  1  0
 20 12  1  0
 21 23  1  0
 22 21  2  0
 23 24  1  0
 24 25  1  0
 25 27  2  0
 25 26  1  0
M  END
$$$$
