IWG.pdb
     RDKit          3D

 27 28  0  0  1  0  0  0  0  0999 V2000
    6.5750  -12.6437   17.4911 C   0  0  0  0  0  0  0  0  0  0  0  0
    7.4547  -13.8283   17.8877 C   0  0  0  0  0  0  0  0  0  0  0  0
    7.8294  -13.7573   19.3424 C   0  0  2  0  0  0  0  0  0  0  0  0
    8.5722  -12.4534   19.5785 C   0  0  0  0  0  0  0  0  0  0  0  0
    8.6542  -14.9182   19.7968 C   0  0  2  0  0  0  0  0  0  0  0  0
    7.9396  -16.1451   19.4818 N   0  0  0  0  0  0  0  0  0  0  0  0
    8.8684  -14.8623   21.2434 C   0  0  0  0  0  0  0  0  0  0  0  0
    9.5298  -13.9168   21.7445 O   0  0  0  0  0  0  0  0  0  0  0  0
    8.3683  -15.8373   22.1819 N   0  0  0  0  0  0  0  0  0  0  0  0
    8.6284  -15.7460   23.5759 C   0  0  1  0  0  0  0  0  0  0  0  0
    7.4894  -15.8681   24.5058 C   0  0  0  0  0  0  0  0  0  0  0  0
    7.6025  -15.1653   25.7855 C   0  0  0  0  0  0  0  0  0  0  0  0
    8.0928  -15.6146   26.9826 C   0  0  0  0  0  0  0  0  0  0  0  0
    8.0242  -14.6285   27.9085 N   0  0  0  0  0  0  0  0  0  0  0  0
    7.4866  -13.5253   27.3185 C   0  0  0  0  0  0  0  0  0  0  0  0
    7.2088  -12.2672   27.8160 C   0  0  0  0  0  0  0  0  0  0  0  0
    6.6588  -11.3008   27.0070 C   0  0  0  0  0  0  0  0  0  0  0  0
    6.3921  -11.6148   25.6941 C   0  0  0  0  0  0  0  0  0  0  0  0
    6.6723  -12.8695   25.2101 C   0  0  0  0  0  0  0  0  0  0  0  0
    7.2300  -13.8570   26.0209 C   0  0  0  0  0  0  0  0  0  0  0  0
    9.7347  -16.6730   24.0052 C   0  0  0  0  0  0  0  0  0  0  0  0
    9.3799  -17.8080   24.4091 O   0  0  0  0  0  0  0  0  0  0  0  0
   11.0849  -16.3060   23.9629 N   0  0  0  0  0  0  0  0  0  0  0  0
   12.1311  -17.1620   24.4557 C   0  0  0  0  0  0  0  0  0  0  0  0
   13.4747  -16.6315   24.1824 C   0  0  0  0  0  0  0  0  0  0  0  0
   14.6284  -17.1987   24.6883 O   0  0  0  0  0  0  0  0  0  0  0  0
   13.5841  -15.6136   23.4540 O   0  0  0  0  0  0  0  0  0  0  0  0
  1  2  1  0
  3  2  1  0
  3  4  1  6
  5  3  1  0
  5  6  1  1
  7  5  1  0
  7  8  2  0
  9  7  1  0
 10 21  1  0
 10  9  1  0
 10 11  1  1
 12 13  2  0
 12 11  1  0
 14 13  1  0
 15 20  2  0
 15 14  1  0
 16 15  1  0
 17 18  1  0
 17 16  2  0
 18 19  2  0
 19 20  1  0
 20 12  1  0
 21 23  1  0
 22 21  2  0
 23 24  1  0
 24 25  1  0
 25 27  2  0
 25 26  1  0
M  END
$$$$
