IWG.pdb
     RDKit          3D

 27 28  0  0  1  0  0  0  0  0999 V2000
    6.7577  -12.6081   19.2991 C   0  0  0  0  0  0  0  0  0  0  0  0
    7.3390  -13.9918   19.5850 C   0  0  0  0  0  0  0  0  0  0  0  0
    8.1156  -13.9939   20.8728 C   0  0  2  0  0  0  0  0  0  0  0  0
    9.1689  -12.9020   20.7942 C   0  0  0  0  0  0  0  0  0  0  0  0
    8.7513  -15.3122   21.1767 C   0  0  2  0  0  0  0  0  0  0  0  0
    7.7049  -16.3162   21.2866 N   0  0  0  0  0  0  0  0  0  0  0  0
    9.4757  -15.2535   22.4469 C   0  0  0  0  0  0  0  0  0  0  0  0
   10.4441  -14.4619   22.5818 O   0  0  0  0  0  0  0  0  0  0  0  0
    9.1643  -16.0581   23.6032 N   0  0  0  0  0  0  0  0  0  0  0  0
    9.8958  -15.9508   24.8168 C   0  0  1  0  0  0  0  0  0  0  0  0
    9.1422  -15.9440   26.0853 C   0  0  0  0  0  0  0  0  0  0  0  0
    7.8326  -15.2890   26.0727 C   0  0  0  0  0  0  0  0  0  0  0  0
    6.5908  -15.8339   25.8814 C   0  0  0  0  0  0  0  0  0  0  0  0
    5.6455  -14.8674   25.9627 N   0  0  0  0  0  0  0  0  0  0  0  0
    6.2674  -13.6812   26.2087 C   0  0  0  0  0  0  0  0  0  0  0  0
    5.7665  -12.4057   26.3804 C   0  0  0  0  0  0  0  0  0  0  0  0
    6.6118  -11.3495   26.6268 C   0  0  0  0  0  0  0  0  0  0  0  0
    7.9645  -11.5916   26.6981 C   0  0  0  0  0  0  0  0  0  0  0  0
    8.4516  -12.8643   26.5254 C   0  0  0  0  0  0  0  0  0  0  0  0
    7.6041  -13.9426   26.2752 C   0  0  0  0  0  0  0  0  0  0  0  0
   11.0103  -16.9604   24.8948 C   0  0  0  0  0  0  0  0  0  0  0  0
   11.5790  -17.0715   26.0091 O   0  0  0  0  0  0  0  0  0  0  0  0
   11.4019  -17.7374   23.7983 N   0  0  0  0  0  0  0  0  0  0  0  0
   12.4578  -18.7111   23.8827 C   0  0  0  0  0  0  0  0  0  0  0  0
   13.7787  -18.1444   23.5735 C   0  0  0  0  0  0  0  0  0  0  0  0
   13.9717  -16.8193   23.2337 O   0  0  0  0  0  0  0  0  0  0  0  0
   14.7834  -18.8975   23.6194 O   0  0  0  0  0  0  0  0  0  0  0  0
  1  2  1  0
  3  2  1  0
  3  4  1  6
  5  3  1  0
  5  6  1  1
  7  5  1  0
  7  8  2  0
  9  7  1  0
 10 21  1  0
 10  9  1  0
 10 11  1  1
 12 13  2  0
 12 11  1  0
 14 13  1  0
 15 20  2  0
 15 14  1  0
 16 15  1  0
 17 18  1  0
 17 16  2  0
 18 19  2  0
 19 20  1  0
 20 12  1  0
 21 23  1  0
 22 21  2  0
 23 24  1  0
 24 25  1  0
 25 27  2  0
 25 26  1  0
M  END
$$$$
