IWG.pdb
     RDKit          3D

 27 28  0  0  1  0  0  0  0  0999 V2000
    7.3225  -12.2979   20.6170 C   0  0  0  0  0  0  0  0  0  0  0  0
    7.5355  -13.6985   21.1893 C   0  0  0  0  0  0  0  0  0  0  0  0
    8.4767  -14.4945   20.3279 C   0  0  2  0  0  0  0  0  0  0  0  0
    7.8031  -14.7387   18.9883 C   0  0  0  0  0  0  0  0  0  0  0  0
    8.8916  -15.7898   20.9479 C   0  0  2  0  0  0  0  0  0  0  0  0
    7.7019  -16.5925   21.1830 N   0  0  0  0  0  0  0  0  0  0  0  0
    9.5570  -15.5567   22.2303 C   0  0  0  0  0  0  0  0  0  0  0  0
   10.5602  -14.7998   22.2891 O   0  0  0  0  0  0  0  0  0  0  0  0
    9.1470  -16.1443   23.4826 N   0  0  0  0  0  0  0  0  0  0  0  0
    9.8603  -15.9202   24.6910 C   0  0  1  0  0  0  0  0  0  0  0  0
    9.0986  -15.8962   25.9544 C   0  0  0  0  0  0  0  0  0  0  0  0
    7.8093  -15.2022   25.9360 C   0  0  0  0  0  0  0  0  0  0  0  0
    6.5564  -15.7035   25.7030 C   0  0  0  0  0  0  0  0  0  0  0  0
    5.6383  -14.7121   25.7953 N   0  0  0  0  0  0  0  0  0  0  0  0
    6.2894  -13.5531   26.0905 C   0  0  0  0  0  0  0  0  0  0  0  0
    5.8226  -12.2690   26.2917 C   0  0  0  0  0  0  0  0  0  0  0  0
    6.6932  -11.2466   26.5877 C   0  0  0  0  0  0  0  0  0  0  0  0
    8.0365  -11.5312   26.6786 C   0  0  0  0  0  0  0  0  0  0  0  0
    8.4895  -12.8121   26.4761 C   0  0  0  0  0  0  0  0  0  0  0  0
    7.6162  -13.8563   26.1756 C   0  0  0  0  0  0  0  0  0  0  0  0
   11.0412  -16.8442   24.8287 C   0  0  0  0  0  0  0  0  0  0  0  0
   11.0125  -17.6373   25.8020 O   0  0  0  0  0  0  0  0  0  0  0  0
   12.1165  -16.8322   23.9325 N   0  0  0  0  0  0  0  0  0  0  0  0
   13.2348  -17.7285   24.0598 C   0  0  0  0  0  0  0  0  0  0  0  0
   14.3089  -17.4362   23.0994 C   0  0  0  0  0  0  0  0  0  0  0  0
   14.4738  -18.1297   21.9160 O   0  0  0  0  0  0  0  0  0  0  0  0
   15.1182  -16.5121   23.3632 O   0  0  0  0  0  0  0  0  0  0  0  0
  1  2  1  0
  3  2  1  0
  3  4  1  6
  5  3  1  0
  5  6  1  1
  7  5  1  0
  7  8  2  0
  9  7  1  0
 10 21  1  0
 10  9  1  0
 10 11  1  1
 12 13  2  0
 12 11  1  0
 14 13  1  0
 15 20  2  0
 15 14  1  0
 16 15  1  0
 17 18  1  0
 17 16  2  0
 18 19  2  0
 19 20  1  0
 20 12  1  0
 21 23  1  0
 22 21  2  0
 23 24  1  0
 24 25  1  0
 25 27  2  0
 25 26  1  0
M  END
$$$$
