WRD.pdb
     RDKit          3D

 34 35  0  0  1  0  0  0  0  0999 V2000
    7.4042  -17.1245   25.9713 N   0  0  0  0  0  0  0  0  0  0  0  0
    7.6626  -15.9841   25.1403 C   0  0  1  0  0  0  0  0  0  0  0  0
    8.7718  -15.1335   25.7099 C   0  0  0  0  0  0  0  0  0  0  0  0
    8.1788  -14.2242   26.7185 C   0  0  0  0  0  0  0  0  0  0  0  0
    8.4354  -14.2669   28.0781 C   0  0  0  0  0  0  0  0  0  0  0  0
    7.7351  -13.3105   28.6732 N   0  0  0  0  0  0  0  0  0  0  0  0
    7.0334  -12.6517   27.7337 C   0  0  0  0  0  0  0  0  0  0  0  0
    6.1558  -11.5863   27.7963 C   0  0  0  0  0  0  0  0  0  0  0  0
    5.5555  -11.0860   26.6687 C   0  0  0  0  0  0  0  0  0  0  0  0
    5.8118  -11.6358   25.4271 C   0  0  0  0  0  0  0  0  0  0  0  0
    6.6855  -12.6985   25.3541 C   0  0  0  0  0  0  0  0  0  0  0  0
    7.2864  -13.1967   26.4955 C   0  0  0  0  0  0  0  0  0  0  0  0
    7.9930  -16.4214   23.7519 C   0  0  0  0  0  0  0  0  0  0  0  0
    8.6943  -17.4626   23.6272 O   0  0  0  0  0  0  0  0  0  0  0  0
    7.6978  -13.7555   15.4708 N   0  0  0  0  0  0  0  0  0  0  0  0
    8.5518  -13.9000   16.6095 C   0  0  0  0  0  0  0  0  0  0  0  0
    9.2701  -12.8741   16.9331 N   0  0  0  0  0  0  0  0  0  0  0  0
    8.5602  -15.1279   17.2992 N   0  0  0  0  0  0  0  0  0  0  0  0
    9.0967  -15.1437   18.6555 C   0  0  0  0  0  0  0  0  0  0  0  0
    8.1407  -14.3878   19.5424 C   0  0  0  0  0  0  0  0  0  0  0  0
    7.1966  -15.3053   20.2423 C   0  0  0  0  0  0  0  0  0  0  0  0
    7.8799  -16.1273   21.2881 C   0  0  2  0  0  0  0  0  0  0  0  0
    7.5453  -15.7080   22.6162 N   0  0  0  0  0  0  0  0  0  0  0  0
    9.3570  -16.1480   21.0772 C   0  0  0  0  0  0  0  0  0  0  0  0
    9.9819  -15.0663   21.1203 O   0  0  0  0  0  0  0  0  0  0  0  0
    9.8437  -12.8790   17.8026 N   0  0  0  0  0  0  0  0  0  0  0  0
   10.0693  -17.3415   20.8317 C   0  0  1  0  0  0  0  0  0  0  0  0
   11.4900  -17.3318   20.5644 C   0  0  0  0  0  0  0  0  0  0  0  0
   12.0847  -18.5869   21.1918 C   0  0  0  0  0  0  0  0  0  0  0  0
   12.3297  -18.3340   22.6315 O   0  0  0  0  0  0  0  0  0  0  0  0
   12.2102  -17.1650   23.0766 C   0  0  0  0  0  0  0  0  0  0  0  0
   11.7379  -17.3715   19.0919 O   0  0  0  0  0  0  0  0  0  0  0  0
   13.0415  -17.3278   18.6068 O   0  0  0  0  0  0  0  0  0  0  0  0
   12.6894  -19.3252   23.5352 O   0  0  0  0  0  0  0  0  0  0  0  0
  2  1  1  1
  3  2  1  0
  4  3  1  0
  5  4  2  0
  6  5  1  0
  7  6  1  0
  7 12  2  0
  8  7  1  0
  9  8  2  0
  9 10  1  0
 10 11  2  0
 11 12  1  0
 12  4  1  0
 13 14  2  0
 13  2  1  0
 16 15  1  0
 16 18  1  0
 17 16  2  0
 18 19  1  0
 19 20  1  0
 20 21  1  0
 22 21  1  6
 22 24  1  0
 22 23  1  0
 23 13  1  0
 24 25  2  0
 26 27  1  0
 26 24  1  0
 27 28  1  6
 28 29  1  0
 29 33  1  0
 30 29  2  0
 31 27  1  0
 32 31  1  0
 34 31  2  0
M  END
$$$$
