WRD.pdb
     RDKit          3D

 34 35  0  0  1  0  0  0  0  0999 V2000
    6.8494  -16.8805   25.2794 N   0  0  0  0  0  0  0  0  0  0  0  0
    7.5494  -15.7895   24.6649 C   0  0  1  0  0  0  0  0  0  0  0  0
    8.6844  -15.3089   25.5363 C   0  0  0  0  0  0  0  0  0  0  0  0
    8.1204  -14.3998   26.5616 C   0  0  0  0  0  0  0  0  0  0  0  0
    8.1701  -14.6122   27.9285 C   0  0  0  0  0  0  0  0  0  0  0  0
    7.5684  -13.5996   28.5384 N   0  0  0  0  0  0  0  0  0  0  0  0
    7.1316  -12.7394   27.6012 C   0  0  0  0  0  0  0  0  0  0  0  0
    6.4515  -11.5390   27.6767 C   0  0  0  0  0  0  0  0  0  0  0  0
    6.1128  -10.8357   26.5486 C   0  0  0  0  0  0  0  0  0  0  0  0
    6.4438  -11.3093   25.2932 C   0  0  0  0  0  0  0  0  0  0  0  0
    7.1221  -12.5053   25.2073 C   0  0  0  0  0  0  0  0  0  0  0  0
    7.4597  -13.2080   26.3494 C   0  0  0  0  0  0  0  0  0  0  0  0
    8.0520  -16.1918   23.3183 C   0  0  0  0  0  0  0  0  0  0  0  0
    8.0635  -17.4250   23.0522 O   0  0  0  0  0  0  0  0  0  0  0  0
    7.8121  -12.6948   16.7355 N   0  0  0  0  0  0  0  0  0  0  0  0
    7.9317  -14.1148   16.8622 C   0  0  0  0  0  0  0  0  0  0  0  0
    8.5088  -14.7403   15.8880 N   0  0  0  0  0  0  0  0  0  0  0  0
    7.4239  -14.7374   18.0189 N   0  0  0  0  0  0  0  0  0  0  0  0
    6.7158  -13.9053   18.9853 C   0  0  0  0  0  0  0  0  0  0  0  0
    7.5810  -13.7802   20.2132 C   0  0  0  0  0  0  0  0  0  0  0  0
    8.8549  -14.5414   20.0690 C   0  0  0  0  0  0  0  0  0  0  0  0
    8.9749  -15.6368   21.0799 C   0  0  2  0  0  0  0  0  0  0  0  0
    8.4992  -15.2413   22.3719 N   0  0  0  0  0  0  0  0  0  0  0  0
   10.3718  -16.1571   21.1474 C   0  0  0  0  0  0  0  0  0  0  0  0
   10.9098  -16.5629   20.0947 O   0  0  0  0  0  0  0  0  0  0  0  0
    8.5668  -15.7803   15.8836 N   0  0  0  0  0  0  0  0  0  0  0  0
   11.1029  -16.2067   22.3537 C   0  0  1  0  0  0  0  0  0  0  0  0
   12.4656  -16.6880   22.3917 C   0  0  0  0  0  0  0  0  0  0  0  0
   13.3020  -15.6440   23.1218 C   0  0  0  0  0  0  0  0  0  0  0  0
   14.7124  -16.0981   23.1573 O   0  0  0  0  0  0  0  0  0  0  0  0
   15.3361  -16.2433   22.0762 C   0  0  0  0  0  0  0  0  0  0  0  0
   12.5376  -17.9726   23.1507 O   0  0  0  0  0  0  0  0  0  0  0  0
   11.7861  -18.1357   24.3106 O   0  0  0  0  0  0  0  0  0  0  0  0
   15.3998  -16.3782   24.3310 O   0  0  0  0  0  0  0  0  0  0  0  0
  2  1  1  1
  3  2  1  0
  4  3  1  0
  5  4  2  0
  6  5  1  0
  7  6  1  0
  7 12  2  0
  8  7  1  0
  9  8  2  0
  9 10  1  0
 10 11  2  0
 11 12  1  0
 12  4  1  0
 13 14  2  0
 13  2  1  0
 16 15  1  0
 16 18  1  0
 17 16  2  0
 18 19  1  0
 19 20  1  0
 20 21  1  0
 22 21  1  6
 22 24  1  0
 22 23  1  0
 23 13  1  0
 24 25  2  0
 26 27  1  0
 26 24  1  0
 27 28  1  6
 28 29  1  0
 29 33  1  0
 30 29  2  0
 31 27  1  0
 32 31  1  0
 34 31  2  0
M  END
$$$$
