WRD.pdb
     RDKit          3D

 34 35  0  0  1  0  0  0  0  0999 V2000
    7.1593  -18.4016   25.9791 N   0  0  0  0  0  0  0  0  0  0  0  0
    6.5534  -17.3046   25.2811 C   0  0  1  0  0  0  0  0  0  0  0  0
    6.3659  -16.1150   26.1911 C   0  0  0  0  0  0  0  0  0  0  0  0
    7.6350  -15.8953   26.9239 C   0  0  0  0  0  0  0  0  0  0  0  0
    8.4243  -16.8943   27.4672 C   0  0  0  0  0  0  0  0  0  0  0  0
    9.4780  -16.3354   28.0472 N   0  0  0  0  0  0  0  0  0  0  0  0
    9.3897  -15.0022   27.8927 C   0  0  0  0  0  0  0  0  0  0  0  0
   10.2013  -13.9579   28.2923 C   0  0  0  0  0  0  0  0  0  0  0  0
    9.8844  -12.6543   28.0051 C   0  0  0  0  0  0  0  0  0  0  0  0
    8.7358  -12.3435   27.3023 C   0  0  0  0  0  0  0  0  0  0  0  0
    7.9199  -13.3778   26.8993 C   0  0  0  0  0  0  0  0  0  0  0  0
    8.2467  -14.6890   27.1929 C   0  0  0  0  0  0  0  0  0  0  0  0
    7.3740  -16.9340   24.0906 C   0  0  0  0  0  0  0  0  0  0  0  0
    8.2345  -17.7702   23.7008 O   0  0  0  0  0  0  0  0  0  0  0  0
    7.7496  -15.2081   16.0898 N   0  0  0  0  0  0  0  0  0  0  0  0
    7.6899  -14.1187   17.0152 C   0  0  0  0  0  0  0  0  0  0  0  0
    8.0276  -12.9535   16.5662 N   0  0  0  0  0  0  0  0  0  0  0  0
    7.2741  -14.3734   18.3364 N   0  0  0  0  0  0  0  0  0  0  0  0
    8.2903  -14.7658   19.3066 C   0  0  0  0  0  0  0  0  0  0  0  0
    8.2967  -13.7421   20.4128 C   0  0  0  0  0  0  0  0  0  0  0  0
    7.4295  -14.1575   21.5523 C   0  0  0  0  0  0  0  0  0  0  0  0
    7.9426  -15.3862   22.2329 C   0  0  2  0  0  0  0  0  0  0  0  0
    7.2042  -15.7012   23.4193 N   0  0  0  0  0  0  0  0  0  0  0  0
    9.4044  -15.2772   22.5116 C   0  0  0  0  0  0  0  0  0  0  0  0
    9.7700  -14.7807   23.5988 O   0  0  0  0  0  0  0  0  0  0  0  0
    7.9675  -12.1106   17.1753 N   0  0  0  0  0  0  0  0  0  0  0  0
   10.3839  -15.7135   21.5938 C   0  0  1  0  0  0  0  0  0  0  0  0
   11.7570  -15.9204   21.9960 C   0  0  0  0  0  0  0  0  0  0  0  0
   11.8005  -17.1798   22.8530 C   0  0  0  0  0  0  0  0  0  0  0  0
   12.9746  -17.1066   23.7546 O   0  0  0  0  0  0  0  0  0  0  0  0
   13.7566  -16.1273   23.6629 C   0  0  0  0  0  0  0  0  0  0  0  0
   12.6199  -16.1309   20.7950 O   0  0  0  0  0  0  0  0  0  0  0  0
   13.9537  -15.7345   20.8214 O   0  0  0  0  0  0  0  0  0  0  0  0
   13.2700  -18.0694   24.7108 O   0  0  0  0  0  0  0  0  0  0  0  0
  2  1  1  1
  3  2  1  0
  4  3  1  0
  5  4  2  0
  6  5  1  0
  7  6  1  0
  7 12  2  0
  8  7  1  0
  9  8  2  0
  9 10  1  0
 10 11  2  0
 11 12  1  0
 12  4  1  0
 13 14  2  0
 13  2  1  0
 16 15  1  0
 16 18  1  0
 17 16  2  0
 18 19  1  0
 19 20  1  0
 20 21  1  0
 22 21  1  1
 22 24  1  0
 22 23  1  0
 23 13  1  0
 24 25  2  0
 26 27  1  0
 26 24  1  0
 27 28  1  6
 28 29  1  0
 29 33  1  0
 30 29  2  0
 31 27  1  0
 32 31  1  0
 34 31  2  0
M  END
$$$$
