WRD.pdb
     RDKit          3D

 34 35  0  0  1  0  0  0  0  0999 V2000
    6.6487  -17.6373   24.9439 N   0  0  0  0  0  0  0  0  0  0  0  0
    7.2880  -16.4356   24.4908 C   0  0  1  0  0  0  0  0  0  0  0  0
    8.2143  -15.8792   25.5448 C   0  0  0  0  0  0  0  0  0  0  0  0
    7.4357  -14.9436   26.3900 C   0  0  0  0  0  0  0  0  0  0  0  0
    6.7548  -15.2912   27.5440 C   0  0  0  0  0  0  0  0  0  0  0  0
    6.1728  -14.2063   28.0375 N   0  0  0  0  0  0  0  0  0  0  0  0
    6.4600  -13.1678   27.2325 C   0  0  0  0  0  0  0  0  0  0  0  0
    6.1178  -11.8298   27.2728 C   0  0  0  0  0  0  0  0  0  0  0  0
    6.5469  -10.9516   26.3100 C   0  0  0  0  0  0  0  0  0  0  0  0
    7.3401  -11.3811   25.2632 C   0  0  0  0  0  0  0  0  0  0  0  0
    7.6869  -12.7135   25.2140 C   0  0  0  0  0  0  0  0  0  0  0  0
    7.2501  -13.5921   26.1884 C   0  0  0  0  0  0  0  0  0  0  0  0
    8.0281  -16.6923   23.2203 C   0  0  0  0  0  0  0  0  0  0  0  0
    8.3406  -17.8880   22.9668 O   0  0  0  0  0  0  0  0  0  0  0  0
    8.9894  -12.6853   17.6856 N   0  0  0  0  0  0  0  0  0  0  0  0
    8.0850  -13.5276   16.9648 C   0  0  0  0  0  0  0  0  0  0  0  0
    8.4214  -13.8450   15.7568 N   0  0  0  0  0  0  0  0  0  0  0  0
    6.9031  -13.9544   17.6009 N   0  0  0  0  0  0  0  0  0  0  0  0
    7.0192  -14.9640   18.6473 C   0  0  0  0  0  0  0  0  0  0  0  0
    7.5789  -14.2964   19.8773 C   0  0  0  0  0  0  0  0  0  0  0  0
    8.9753  -14.7381   20.1563 C   0  0  0  0  0  0  0  0  0  0  0  0
    9.0213  -15.9122   21.0814 C   0  0  2  0  0  0  0  0  0  0  0  0
    8.3707  -15.6486   22.3300 N   0  0  0  0  0  0  0  0  0  0  0  0
   10.4223  -16.3841   21.2839 C   0  0  0  0  0  0  0  0  0  0  0  0
   11.0482  -16.8371   20.3014 O   0  0  0  0  0  0  0  0  0  0  0  0
    7.7826  -14.4084   15.1572 N   0  0  0  0  0  0  0  0  0  0  0  0
   11.0620  -16.3367   22.5412 C   0  0  1  0  0  0  0  0  0  0  0  0
   12.3639  -16.9298   22.7490 C   0  0  0  0  0  0  0  0  0  0  0  0
   13.3735  -15.7942   22.8655 C   0  0  0  0  0  0  0  0  0  0  0  0
   14.6291  -16.1968   22.1886 O   0  0  0  0  0  0  0  0  0  0  0  0
   14.7021  -17.3347   21.6607 C   0  0  0  0  0  0  0  0  0  0  0  0
   12.3770  -17.7118   24.0217 O   0  0  0  0  0  0  0  0  0  0  0  0
   12.1910  -17.0607   25.2375 O   0  0  0  0  0  0  0  0  0  0  0  0
   15.7495  -15.3811   22.1000 O   0  0  0  0  0  0  0  0  0  0  0  0
  2  1  1  1
  3  2  1  0
  4  3  1  0
  5  4  2  0
  6  5  1  0
  7  6  1  0
  7 12  2  0
  8  7  1  0
  9  8  2  0
  9 10  1  0
 10 11  2  0
 11 12  1  0
 12  4  1  0
 13 14  2  0
 13  2  1  0
 16 15  1  0
 16 18  1  0
 17 16  2  0
 18 19  1  0
 19 20  1  0
 20 21  1  0
 22 21  1  6
 22 24  1  0
 22 23  1  0
 23 13  1  0
 24 25  2  0
 26 27  1  0
 26 24  1  0
 27 28  1  6
 28 29  1  0
 29 33  1  0
 30 29  2  0
 31 27  1  0
 32 31  1  0
 34 31  2  0
M  END
$$$$
