WRD.pdb
     RDKit          3D

 34 35  0  0  1  0  0  0  0  0999 V2000
    6.7104  -18.1332   24.8287 N   0  0  0  0  0  0  0  0  0  0  0  0
    6.9578  -16.7678   24.4646 C   0  0  1  0  0  0  0  0  0  0  0  0
    7.7798  -16.0627   25.5161 C   0  0  0  0  0  0  0  0  0  0  0  0
    6.9335  -15.0124   26.1297 C   0  0  0  0  0  0  0  0  0  0  0  0
    5.6827  -15.2207   26.6848 C   0  0  0  0  0  0  0  0  0  0  0  0
    5.2196  -14.0627   27.1364 N   0  0  0  0  0  0  0  0  0  0  0  0
    6.1384  -13.1126   26.8874 C   0  0  0  0  0  0  0  0  0  0  0  0
    6.1733  -11.7549   27.1412 C   0  0  0  0  0  0  0  0  0  0  0  0
    7.2509  -10.9863   26.7802 C   0  0  0  0  0  0  0  0  0  0  0  0
    8.3422  -11.5503   26.1472 C   0  0  0  0  0  0  0  0  0  0  0  0
    8.3171  -12.9034   25.8897 C   0  0  0  0  0  0  0  0  0  0  0  0
    7.2271  -13.6709   26.2569 C   0  0  0  0  0  0  0  0  0  0  0  0
    7.6335  -16.7025   23.1353 C   0  0  0  0  0  0  0  0  0  0  0  0
    8.4353  -17.6337   22.8499 O   0  0  0  0  0  0  0  0  0  0  0  0
    7.6985  -12.7717   16.2559 N   0  0  0  0  0  0  0  0  0  0  0  0
    8.3829  -13.9431   15.8019 C   0  0  0  0  0  0  0  0  0  0  0  0
    8.6591  -14.0043   14.5396 N   0  0  0  0  0  0  0  0  0  0  0  0
    8.7103  -14.9428   16.7383 N   0  0  0  0  0  0  0  0  0  0  0  0
    7.9136  -15.0212   17.9576 C   0  0  0  0  0  0  0  0  0  0  0  0
    8.5625  -14.1403   18.9944 C   0  0  0  0  0  0  0  0  0  0  0  0
    7.8599  -14.2253   20.3067 C   0  0  0  0  0  0  0  0  0  0  0  0
    8.1733  -15.4943   21.0332 C   0  0  2  0  0  0  0  0  0  0  0  0
    7.3940  -15.6471   22.2253 N   0  0  0  0  0  0  0  0  0  0  0  0
    9.6340  -15.6061   21.3169 C   0  0  0  0  0  0  0  0  0  0  0  0
   10.1408  -14.8304   22.1558 O   0  0  0  0  0  0  0  0  0  0  0  0
    9.2151  -14.7965   14.1543 N   0  0  0  0  0  0  0  0  0  0  0  0
   10.4591  -16.5532   20.6733 C   0  0  2  0  0  0  0  0  0  0  0  0
   11.8972  -16.5244   20.8182 C   0  0  0  0  0  0  0  0  0  0  0  0
   12.3974  -17.9612   20.7295 C   0  0  0  0  0  0  0  0  0  0  0  0
   12.1899  -18.6234   22.0392 O   0  0  0  0  0  0  0  0  0  0  0  0
   12.1380  -17.9201   23.0792 C   0  0  0  0  0  0  0  0  0  0  0  0
   12.5116  -15.7363   19.7078 O   0  0  0  0  0  0  0  0  0  0  0  0
   13.8052  -15.2409   19.8424 O   0  0  0  0  0  0  0  0  0  0  0  0
   12.0471  -19.9963   22.1917 O   0  0  0  0  0  0  0  0  0  0  0  0
  2  1  1  1
  3  2  1  0
  4  3  1  0
  5  4  2  0
  6  5  1  0
  7  6  1  0
  7 12  2  0
  8  7  1  0
  9  8  2  0
  9 10  1  0
 10 11  2  0
 11 12  1  0
 12  4  1  0
 13 14  2  0
 13  2  1  0
 16 15  1  0
 16 18  1  0
 17 16  2  0
 18 19  1  0
 19 20  1  0
 20 21  1  0
 22 21  1  1
 22 24  1  0
 22 23  1  0
 23 13  1  0
 24 25  2  0
 26 27  1  0
 26 24  1  0
 27 28  1  6
 28 29  1  0
 29 33  1  0
 30 29  2  0
 31 27  1  0
 32 31  1  0
 34 31  2  0
M  END
$$$$
