WRD.pdb
     RDKit          3D

 34 35  0  0  1  0  0  0  0  0999 V2000
    6.5667  -17.3895   24.9154 N   0  0  0  0  0  0  0  0  0  0  0  0
    7.3860  -16.3584   24.3467 C   0  0  1  0  0  0  0  0  0  0  0  0
    8.0858  -15.5621   25.4213 C   0  0  0  0  0  0  0  0  0  0  0  0
    7.1206  -14.5759   25.9614 C   0  0  0  0  0  0  0  0  0  0  0  0
    5.9453  -14.8907   26.6212 C   0  0  0  0  0  0  0  0  0  0  0  0
    5.3339  -13.7640   26.9619 N   0  0  0  0  0  0  0  0  0  0  0  0
    6.0836  -12.7304   26.5393 C   0  0  0  0  0  0  0  0  0  0  0  0
    5.9235  -11.3608   26.6263 C   0  0  0  0  0  0  0  0  0  0  0  0
    6.8520  -10.4966   26.1036 C   0  0  0  0  0  0  0  0  0  0  0  0
    7.9839  -10.9727   25.4696 C   0  0  0  0  0  0  0  0  0  0  0  0
    8.1528  -12.3368   25.3777 C   0  0  0  0  0  0  0  0  0  0  0  0
    7.2121  -13.2009   25.9072 C   0  0  0  0  0  0  0  0  0  0  0  0
    8.3761  -16.9498   23.3991 C   0  0  0  0  0  0  0  0  0  0  0  0
    8.9986  -17.9777   23.7832 O   0  0  0  0  0  0  0  0  0  0  0  0
    8.0095  -12.5006   16.9495 N   0  0  0  0  0  0  0  0  0  0  0  0
    8.1951  -13.8353   16.4691 C   0  0  0  0  0  0  0  0  0  0  0  0
    8.3752  -13.9768   15.1961 N   0  0  0  0  0  0  0  0  0  0  0  0
    8.1717  -14.8978   17.3933 N   0  0  0  0  0  0  0  0  0  0  0  0
    8.2070  -14.5664   18.8134 C   0  0  0  0  0  0  0  0  0  0  0  0
    8.1249  -15.8535   19.5934 C   0  0  0  0  0  0  0  0  0  0  0  0
    9.4760  -16.4308   19.8469 C   0  0  0  0  0  0  0  0  0  0  0  0
    9.6279  -16.9139   21.2540 C   0  0  2  0  0  0  0  0  0  0  0  0
    8.6157  -16.3913   22.1224 N   0  0  0  0  0  0  0  0  0  0  0  0
   10.9965  -16.6297   21.7765 C   0  0  0  0  0  0  0  0  0  0  0  0
   11.2115  -15.5239   22.3180 O   0  0  0  0  0  0  0  0  0  0  0  0
    8.5140  -14.9216   14.7800 N   0  0  0  0  0  0  0  0  0  0  0  0
   12.0515  -17.5623   21.6804 C   0  0  1  0  0  0  0  0  0  0  0  0
   13.3885  -17.2385   22.1246 C   0  0  0  0  0  0  0  0  0  0  0  0
   14.0362  -18.5288   22.6125 C   0  0  0  0  0  0  0  0  0  0  0  0
   13.5975  -18.7899   24.0040 O   0  0  0  0  0  0  0  0  0  0  0  0
   12.3721  -18.7445   24.2780 C   0  0  0  0  0  0  0  0  0  0  0  0
   14.1939  -16.7013   20.9869 O   0  0  0  0  0  0  0  0  0  0  0  0
   13.6100  -16.5554   19.7321 O   0  0  0  0  0  0  0  0  0  0  0  0
   14.4711  -19.0864   25.0420 O   0  0  0  0  0  0  0  0  0  0  0  0
  2  1  1  1
  3  2  1  0
  4  3  1  0
  5  4  2  0
  6  5  1  0
  7  6  1  0
  7 12  2  0
  8  7  1  0
  9  8  2  0
  9 10  1  0
 10 11  2  0
 11 12  1  0
 12  4  1  0
 13 14  2  0
 13  2  1  0
 16 15  1  0
 16 18  1  0
 17 16  2  0
 18 19  1  0
 19 20  1  0
 20 21  1  0
 22 21  1  6
 22 24  1  0
 22 23  1  0
 23 13  1  0
 24 25  2  0
 26 27  1  0
 26 24  1  0
 27 28  1  1
 28 29  1  0
 29 33  1  0
 30 29  2  0
 31 27  1  0
 32 31  1  0
 34 31  2  0
M  END
$$$$
