WRD.pdb
     RDKit          3D

 34 35  0  0  1  0  0  0  0  0999 V2000
    6.5706  -18.3287   24.7113 N   0  0  0  0  0  0  0  0  0  0  0  0
    6.8914  -16.9531   24.4606 C   0  0  1  0  0  0  0  0  0  0  0  0
    7.7685  -16.3893   25.5521 C   0  0  0  0  0  0  0  0  0  0  0  0
    7.0393  -15.2690   26.1917 C   0  0  0  0  0  0  0  0  0  0  0  0
    5.8235  -15.3792   26.8442 C   0  0  0  0  0  0  0  0  0  0  0  0
    5.4702  -14.1812   27.2904 N   0  0  0  0  0  0  0  0  0  0  0  0
    6.4257  -13.3007   26.9431 C   0  0  0  0  0  0  0  0  0  0  0  0
    6.5655  -11.9415   27.1488 C   0  0  0  0  0  0  0  0  0  0  0  0
    7.6590  -11.2557   26.6841 C   0  0  0  0  0  0  0  0  0  0  0  0
    8.6613  -11.9075   25.9911 C   0  0  0  0  0  0  0  0  0  0  0  0
    8.5313  -13.2628   25.7808 C   0  0  0  0  0  0  0  0  0  0  0  0
    7.4259  -13.9466   26.2526 C   0  0  0  0  0  0  0  0  0  0  0  0
    7.5499  -16.8113   23.1287 C   0  0  0  0  0  0  0  0  0  0  0  0
    8.4112  -17.6785   22.8162 O   0  0  0  0  0  0  0  0  0  0  0  0
    7.6683  -12.9152   16.2765 N   0  0  0  0  0  0  0  0  0  0  0  0
    7.9669  -14.2980   16.0629 C   0  0  0  0  0  0  0  0  0  0  0  0
    7.3999  -14.8669   15.0490 N   0  0  0  0  0  0  0  0  0  0  0  0
    8.8448  -14.9472   16.9524 N   0  0  0  0  0  0  0  0  0  0  0  0
    8.3448  -15.2798   18.2817 C   0  0  0  0  0  0  0  0  0  0  0  0
    8.3682  -14.0240   19.1149 C   0  0  0  0  0  0  0  0  0  0  0  0
    7.6600  -14.2115   20.4135 C   0  0  0  0  0  0  0  0  0  0  0  0
    7.9816  -15.5277   21.0464 C   0  0  2  0  0  0  0  0  0  0  0  0
    7.2311  -15.7543   22.2452 N   0  0  0  0  0  0  0  0  0  0  0  0
    9.4481  -15.6668   21.2850 C   0  0  0  0  0  0  0  0  0  0  0  0
    9.9874  -14.9287   22.1373 O   0  0  0  0  0  0  0  0  0  0  0  0
    7.6208  -15.8540   14.8004 N   0  0  0  0  0  0  0  0  0  0  0  0
   10.2432  -16.5990   20.5843 C   0  0  2  0  0  0  0  0  0  0  0  0
   11.6443  -16.7786   20.8918 C   0  0  0  0  0  0  0  0  0  0  0  0
   11.8842  -18.2705   21.0899 C   0  0  0  0  0  0  0  0  0  0  0  0
   13.3217  -18.4919   21.3746 O   0  0  0  0  0  0  0  0  0  0  0  0
   13.7475  -19.6678   21.4968 C   0  0  0  0  0  0  0  0  0  0  0  0
   12.4869  -16.3074   19.7519 O   0  0  0  0  0  0  0  0  0  0  0  0
   11.8977  -16.0327   18.5214 O   0  0  0  0  0  0  0  0  0  0  0  0
   14.2438  -17.4633   21.5176 O   0  0  0  0  0  0  0  0  0  0  0  0
  2  1  1  1
  3  2  1  0
  4  3  1  0
  5  4  2  0
  6  5  1  0
  7  6  1  0
  7 12  2  0
  8  7  1  0
  9  8  2  0
  9 10  1  0
 10 11  2  0
 11 12  1  0
 12  4  1  0
 13 14  2  0
 13  2  1  0
 16 15  1  0
 16 18  1  0
 17 16  2  0
 18 19  1  0
 19 20  1  0
 20 21  1  0
 22 21  1  1
 22 24  1  0
 22 23  1  0
 23 13  1  0
 24 25  2  0
 26 27  1  0
 26 24  1  0
 27 28  1  1
 28 29  1  0
 29 33  1  0
 30 29  2  0
 31 27  1  0
 32 31  1  0
 34 31  2  0
M  END
$$$$
