ATD.pdb
     RDKit          3D

 21 20  0  0  1  0  0  0  0  0999 V2000
   18.9337  -12.0100  -18.3638 C   0  0  0  0  0  0  0  0  0  0  0  0
   20.2977  -12.5624  -18.1262 C   0  0  2  0  0  0  0  0  0  0  0  0
   20.3509  -13.9648  -17.8764 N   0  0  0  0  0  0  0  0  0  0  0  0
   20.9401  -11.8671  -16.9658 C   0  0  0  0  0  0  0  0  0  0  0  0
   20.3717  -11.9705  -15.8419 O   0  0  0  0  0  0  0  0  0  0  0  0
   24.8970  -10.0245  -14.7383 C   0  0  0  0  0  0  0  0  0  0  0  0
   24.2059  -10.7862  -15.8402 C   0  0  1  0  0  0  0  0  0  0  0  0
   24.3705  -12.1455  -15.5621 O   0  0  0  0  0  0  0  0  0  0  0  0
   22.7544  -10.4501  -15.9695 C   0  0  2  0  0  0  0  0  0  0  0  0
   22.1324  -11.1178  -17.0863 N   0  0  0  0  0  0  0  0  0  0  0  0
   22.6706   -8.9622  -16.1824 C   0  0  0  0  0  0  0  0  0  0  0  0
   22.7589   -8.4925  -17.3537 O   0  0  0  0  0  0  0  0  0  0  0  0
   22.4962   -8.0708  -15.1168 N   0  0  0  0  0  0  0  0  0  0  0  0
   22.3427   -6.6437  -15.4002 C   0  0  1  0  0  0  0  0  0  0  0  0
   21.0396   -6.4720  -16.1290 C   0  0  0  0  0  0  0  0  0  0  0  0
   19.9231   -6.6884  -15.2022 C   0  0  0  0  0  0  0  0  0  0  0  0
   20.1208   -6.8683  -13.9934 O   0  0  0  0  0  0  0  0  0  0  0  0
   22.4344   -5.8701  -14.1426 C   0  0  0  0  0  0  0  0  0  0  0  0
   22.5307   -4.4647  -14.1864 O   0  0  0  0  0  0  0  0  0  0  0  0
   18.6167   -6.6872  -15.7184 O   0  0  0  0  0  0  0  0  0  0  0  0
   22.4337   -6.3743  -12.9987 O   0  0  0  0  0  0  0  0  0  0  0  0
  2  1  1  1
  3  2  1  0
  4 10  1  0
  4  2  1  0
  5  4  2  0
  7  9  1  0
  7  6  1  1
  8  7  1  0
  9 11  1  0
  9 10  1  6
 11 13  1  0
 12 11  2  0
 13 14  1  0
 14 18  1  0
 14 15  1  1
 16 15  1  0
 16 20  1  0
 17 16  2  0
 18 19  1  0
 21 18  2  0
M  END
$$$$
