ATD.pdb
     RDKit          3D

 21 20  0  0  1  0  0  0  0  0999 V2000
   16.5239  -11.1903  -16.3414 C   0  0  0  0  0  0  0  0  0  0  0  0
   17.4636  -10.1593  -16.8669 C   0  0  2  0  0  0  0  0  0  0  0  0
   18.1464  -10.5140  -18.0669 N   0  0  0  0  0  0  0  0  0  0  0  0
   18.4967   -9.8297  -15.8340 C   0  0  0  0  0  0  0  0  0  0  0  0
   18.0835   -9.5035  -14.6852 O   0  0  0  0  0  0  0  0  0  0  0  0
   23.2854   -9.5343  -14.4672 C   0  0  0  0  0  0  0  0  0  0  0  0
   22.1987  -10.0906  -15.3511 C   0  0  1  0  0  0  0  0  0  0  0  0
   22.1036  -11.4560  -15.0709 O   0  0  0  0  0  0  0  0  0  0  0  0
   20.8759   -9.4218  -15.1523 C   0  0  2  0  0  0  0  0  0  0  0  0
   19.8845   -9.8712  -16.0983 N   0  0  0  0  0  0  0  0  0  0  0  0
   21.1020   -7.9462  -15.3465 C   0  0  0  0  0  0  0  0  0  0  0  0
   21.3570   -7.4997  -16.5023 O   0  0  0  0  0  0  0  0  0  0  0  0
   21.0389   -7.0412  -14.2799 N   0  0  0  0  0  0  0  0  0  0  0  0
   21.3005   -5.6240  -14.5322 C   0  0  1  0  0  0  0  0  0  0  0  0
   19.9766   -4.9135  -14.4966 C   0  0  0  0  0  0  0  0  0  0  0  0
   19.6039   -4.4953  -15.8525 C   0  0  0  0  0  0  0  0  0  0  0  0
   20.3324   -4.7447  -16.8218 O   0  0  0  0  0  0  0  0  0  0  0  0
   22.2832   -5.1133  -13.5515 C   0  0  0  0  0  0  0  0  0  0  0  0
   22.9759   -3.9132  -13.8092 O   0  0  0  0  0  0  0  0  0  0  0  0
   18.3952   -3.8016  -16.0290 O   0  0  0  0  0  0  0  0  0  0  0  0
   22.5641   -5.6756  -12.4710 O   0  0  0  0  0  0  0  0  0  0  0  0
  2  1  1  1
  3  2  1  0
  4 10  1  0
  4  2  1  0
  5  4  2  0
  7  9  1  0
  7  6  1  1
  8  7  1  0
  9 11  1  0
  9 10  1  6
 11 13  1  0
 12 11  2  0
 13 14  1  0
 14 18  1  0
 14 15  1  1
 16 15  1  0
 16 20  1  0
 17 16  2  0
 18 19  1  0
 21 18  2  0
M  END
$$$$
