ATD.pdb
     RDKit          3D

 21 20  0  0  1  0  0  0  0  0999 V2000
   14.1629   -8.9428  -15.6611 C   0  0  0  0  0  0  0  0  0  0  0  0
   14.5969  -10.3630  -15.5315 C   0  0  2  0  0  0  0  0  0  0  0  0
   13.7665  -11.1803  -14.7103 N   0  0  0  0  0  0  0  0  0  0  0  0
   15.9885  -10.4282  -14.9821 C   0  0  0  0  0  0  0  0  0  0  0  0
   16.1177  -10.7649  -13.7709 O   0  0  0  0  0  0  0  0  0  0  0  0
   20.7349  -11.2846  -15.5744 C   0  0  0  0  0  0  0  0  0  0  0  0
   19.2863  -11.2589  -15.9903 C   0  0  1  0  0  0  0  0  0  0  0  0
   18.7782  -12.5431  -15.7789 O   0  0  0  0  0  0  0  0  0  0  0  0
   18.4764  -10.2460  -15.2457 C   0  0  2  0  0  0  0  0  0  0  0  0
   17.1327  -10.1322  -15.7571 N   0  0  0  0  0  0  0  0  0  0  0  0
   19.1756   -8.9233  -15.4125 C   0  0  0  0  0  0  0  0  0  0  0  0
   19.0466   -8.2803  -16.4943 O   0  0  0  0  0  0  0  0  0  0  0  0
   19.9722   -8.3745  -14.4002 N   0  0  0  0  0  0  0  0  0  0  0  0
   20.7660   -7.1797  -14.6879 C   0  0  1  0  0  0  0  0  0  0  0  0
   21.2221   -6.6200  -13.3698 C   0  0  0  0  0  0  0  0  0  0  0  0
   22.0330   -5.4187  -13.5973 C   0  0  0  0  0  0  0  0  0  0  0  0
   22.9521   -5.1120  -12.8268 O   0  0  0  0  0  0  0  0  0  0  0  0
   21.8708   -7.5219  -15.6101 C   0  0  0  0  0  0  0  0  0  0  0  0
   22.5579   -8.7435  -15.4624 O   0  0  0  0  0  0  0  0  0  0  0  0
   21.7428   -4.6188  -14.7149 O   0  0  0  0  0  0  0  0  0  0  0  0
   22.2640   -6.7930  -16.5465 O   0  0  0  0  0  0  0  0  0  0  0  0
  2  1  1  1
  3  2  1  0
  4 10  1  0
  4  2  1  0
  5  4  2  0
  7  9  1  0
  7  6  1  1
  8  7  1  0
  9 11  1  0
  9 10  1  6
 11 13  1  0
 12 11  2  0
 13 14  1  0
 14 18  1  0
 14 15  1  1
 16 15  1  0
 16 20  1  0
 17 16  2  0
 18 19  1  0
 21 18  2  0
M  END
$$$$
