ATD.pdb
     RDKit          3D

 21 20  0  0  1  0  0  0  0  0999 V2000
   13.8202  -12.1799  -15.0823 C   0  0  0  0  0  0  0  0  0  0  0  0
   14.8467  -13.1648  -15.5275 C   0  0  2  0  0  0  0  0  0  0  0  0
   14.7068  -14.4760  -14.9860 N   0  0  0  0  0  0  0  0  0  0  0  0
   16.2178  -12.6718  -15.1815 C   0  0  0  0  0  0  0  0  0  0  0  0
   16.6465  -12.9208  -14.0191 O   0  0  0  0  0  0  0  0  0  0  0  0
   19.6088  -13.5339  -16.3902 C   0  0  0  0  0  0  0  0  0  0  0  0
   19.4080  -12.0579  -16.6201 C   0  0  1  0  0  0  0  0  0  0  0  0
   19.0905  -11.8948  -17.9709 O   0  0  0  0  0  0  0  0  0  0  0  0
   18.3408  -11.4657  -15.7560 C   0  0  2  0  0  0  0  0  0  0  0  0
   17.0263  -11.9546  -16.0922 N   0  0  0  0  0  0  0  0  0  0  0  0
   18.3792   -9.9772  -15.9776 C   0  0  0  0  0  0  0  0  0  0  0  0
   17.4313   -9.4128  -16.5967 O   0  0  0  0  0  0  0  0  0  0  0  0
   19.4395   -9.1874  -15.5166 N   0  0  0  0  0  0  0  0  0  0  0  0
   19.4171   -7.7467  -15.7705 C   0  0  1  0  0  0  0  0  0  0  0  0
   18.1567   -7.2058  -15.1561 C   0  0  0  0  0  0  0  0  0  0  0  0
   18.1571   -5.7409  -15.2367 C   0  0  0  0  0  0  0  0  0  0  0  0
   18.7698   -5.1499  -16.1356 O   0  0  0  0  0  0  0  0  0  0  0  0
   20.6544   -7.1263  -15.2485 C   0  0  0  0  0  0  0  0  0  0  0  0
   20.9238   -5.7675  -15.5079 O   0  0  0  0  0  0  0  0  0  0  0  0
   17.4432   -5.0184  -14.2664 O   0  0  0  0  0  0  0  0  0  0  0  0
   21.5163   -7.7260  -14.5702 O   0  0  0  0  0  0  0  0  0  0  0  0
  2  1  1  1
  3  2  1  0
  4 10  1  0
  4  2  1  0
  5  4  2  0
  7  9  1  0
  7  6  1  1
  8  7  1  0
  9 11  1  0
  9 10  1  6
 11 13  1  0
 12 11  2  0
 13 14  1  0
 14 18  1  0
 14 15  1  1
 16 15  1  0
 16 20  1  0
 17 16  2  0
 18 19  1  0
 21 18  2  0
M  END
$$$$
