ATD.pdb
     RDKit          3D

 21 20  0  0  1  0  0  0  0  0999 V2000
   16.9081  -12.6817  -15.5414 C   0  0  0  0  0  0  0  0  0  0  0  0
   16.8471  -11.2613  -15.0932 C   0  0  2  0  0  0  0  0  0  0  0  0
   15.6176  -10.5913  -15.3607 N   0  0  0  0  0  0  0  0  0  0  0  0
   17.9464  -10.4714  -15.7338 C   0  0  0  0  0  0  0  0  0  0  0  0
   19.0300  -11.0757  -15.9732 O   0  0  0  0  0  0  0  0  0  0  0  0
   18.0011   -8.7246  -19.1079 C   0  0  0  0  0  0  0  0  0  0  0  0
   18.3213   -7.7295  -18.0220 C   0  0  1  0  0  0  0  0  0  0  0  0
   17.1480   -7.0164  -17.7630 O   0  0  0  0  0  0  0  0  0  0  0  0
   18.8341   -8.3666  -16.7700 C   0  0  2  0  0  0  0  0  0  0  0  0
   17.8121   -9.1052  -16.0701 N   0  0  0  0  0  0  0  0  0  0  0  0
   19.3233   -7.2517  -15.8846 C   0  0  0  0  0  0  0  0  0  0  0  0
   18.4976   -6.6125  -15.1706 O   0  0  0  0  0  0  0  0  0  0  0  0
   20.6758   -6.8944  -15.8235 N   0  0  0  0  0  0  0  0  0  0  0  0
   21.0927   -5.8407  -14.8981 C   0  0  1  0  0  0  0  0  0  0  0  0
   21.8358   -6.5044  -13.7729 C   0  0  0  0  0  0  0  0  0  0  0  0
   22.2154   -5.5011  -12.7721 C   0  0  0  0  0  0  0  0  0  0  0  0
   21.9029   -4.3111  -12.9088 O   0  0  0  0  0  0  0  0  0  0  0  0
   21.8839   -4.8218  -15.6222 C   0  0  0  0  0  0  0  0  0  0  0  0
   22.0412   -3.5329  -15.0742 O   0  0  0  0  0  0  0  0  0  0  0  0
   22.9458   -5.9219  -11.6483 O   0  0  0  0  0  0  0  0  0  0  0  0
   22.4477   -5.0118  -16.7216 O   0  0  0  0  0  0  0  0  0  0  0  0
  2  1  1  6
  3  2  1  0
  4 10  1  0
  4  2  1  0
  5  4  2  0
  7  9  1  0
  7  6  1  6
  8  7  1  0
  9 11  1  0
  9 10  1  1
 11 13  1  0
 12 11  2  0
 13 14  1  0
 14 18  1  0
 14 15  1  1
 16 15  1  0
 16 20  1  0
 17 16  2  0
 18 19  1  0
 21 18  2  0
M  END
$$$$
