ATD.pdb
     RDKit          3D

 21 20  0  0  1  0  0  0  0  0999 V2000
   24.1141  -20.4085   -9.3652 C   0  0  0  0  0  0  0  0  0  0  0  0
   25.3694  -20.9630   -9.9473 C   0  0  2  0  0  0  0  0  0  0  0  0
   26.5654  -20.6218   -9.2507 N   0  0  0  0  0  0  0  0  0  0  0  0
   25.5227  -20.5106  -11.3666 C   0  0  0  0  0  0  0  0  0  0  0  0
   26.1482  -19.4308  -11.5659 O   0  0  0  0  0  0  0  0  0  0  0  0
   25.7200  -21.4772  -16.1751 C   0  0  0  0  0  0  0  0  0  0  0  0
   25.6059  -21.9005  -14.7330 C   0  0  1  0  0  0  0  0  0  0  0  0
   26.8657  -22.3609  -14.3419 O   0  0  0  0  0  0  0  0  0  0  0  0
   25.1465  -20.8008  -13.8296 C   0  0  2  0  0  0  0  0  0  0  0  0
   25.0023  -21.2361  -12.4623 N   0  0  0  0  0  0  0  0  0  0  0  0
   23.8048  -20.3499  -14.3422 C   0  0  0  0  0  0  0  0  0  0  0  0
   22.7817  -21.0618  -14.1259 O   0  0  0  0  0  0  0  0  0  0  0  0
   23.6489  -19.1564  -15.0577 N   0  0  0  0  0  0  0  0  0  0  0  0
   22.3214  -18.7911  -15.5524 C   0  0  1  0  0  0  0  0  0  0  0  0
   22.4119  -17.3844  -16.0737 C   0  0  0  0  0  0  0  0  0  0  0  0
   21.0889  -16.9387  -16.5246 C   0  0  0  0  0  0  0  0  0  0  0  0
   20.1049  -17.6870  -16.4586 O   0  0  0  0  0  0  0  0  0  0  0  0
   21.8727  -19.7775  -16.5594 C   0  0  0  0  0  0  0  0  0  0  0  0
   20.6606  -20.4719  -16.3729 O   0  0  0  0  0  0  0  0  0  0  0  0
   20.9613  -15.6366  -17.0361 O   0  0  0  0  0  0  0  0  0  0  0  0
   22.4999  -20.0601  -17.6032 O   0  0  0  0  0  0  0  0  0  0  0  0
  2  1  1  1
  3  2  1  0
  4 10  1  0
  4  2  1  0
  5  4  2  0
  7  9  1  0
  7  6  1  6
  8  7  1  0
  9 11  1  0
  9 10  1  1
 11 13  1  0
 12 11  2  0
 13 14  1  0
 14 18  1  0
 14 15  1  6
 16 15  1  0
 16 20  1  0
 17 16  2  0
 18 19  1  0
 21 18  2  0
M  END
$$$$
