ATD.pdb
     RDKit          3D

 21 20  0  0  1  0  0  0  0  0999 V2000
   17.0134  -10.8874  -17.0608 C   0  0  0  0  0  0  0  0  0  0  0  0
   18.4369  -11.3292  -17.0356 C   0  0  2  0  0  0  0  0  0  0  0  0
   18.6373  -12.7227  -16.8119 N   0  0  0  0  0  0  0  0  0  0  0  0
   19.1888  -10.5839  -15.9765 C   0  0  0  0  0  0  0  0  0  0  0  0
   18.7633  -10.6767  -14.7902 O   0  0  0  0  0  0  0  0  0  0  0  0
   22.7646  -11.0123  -14.9090 C   0  0  0  0  0  0  0  0  0  0  0  0
   22.5483   -9.5630  -15.2620 C   0  0  1  0  0  0  0  0  0  0  0  0
   23.0812   -9.3701  -16.5391 O   0  0  0  0  0  0  0  0  0  0  0  0
   21.1099   -9.1554  -15.2277 C   0  0  2  0  0  0  0  0  0  0  0  0
   20.3308   -9.7995  -16.2562 N   0  0  0  0  0  0  0  0  0  0  0  0
   21.0752   -7.6668  -15.4495 C   0  0  0  0  0  0  0  0  0  0  0  0
   20.5783   -7.2055  -16.5176 O   0  0  0  0  0  0  0  0  0  0  0  0
   21.5792   -6.7656  -14.5038 N   0  0  0  0  0  0  0  0  0  0  0  0
   21.4808   -5.3296  -14.7656 C   0  0  1  0  0  0  0  0  0  0  0  0
   20.0189   -4.9928  -14.8572 C   0  0  0  0  0  0  0  0  0  0  0  0
   19.8556   -3.5452  -15.0315 C   0  0  0  0  0  0  0  0  0  0  0  0
   20.6741   -2.8829  -15.6825 O   0  0  0  0  0  0  0  0  0  0  0  0
   22.2061   -4.5781  -13.7179 C   0  0  0  0  0  0  0  0  0  0  0  0
   22.4512   -3.2000  -13.8825 O   0  0  0  0  0  0  0  0  0  0  0  0
   18.7438   -2.9226  -14.4402 O   0  0  0  0  0  0  0  0  0  0  0  0
   22.6378   -5.0787  -12.6570 O   0  0  0  0  0  0  0  0  0  0  0  0
  2  1  1  1
  3  2  1  0
  4 10  1  0
  4  2  1  0
  5  4  2  0
  7  9  1  0
  7  6  1  6
  8  7  1  0
  9 11  1  0
  9 10  1  6
 11 13  1  0
 12 11  2  0
 13 14  1  0
 14 18  1  0
 14 15  1  1
 16 15  1  0
 16 20  1  0
 17 16  2  0
 18 19  1  0
 21 18  2  0
M  END
$$$$
