AKL.pdb
     RDKit          3D

 23 22  0  0  1  0  0  0  0  0999 V2000
   25.4679  -34.8169  -15.0916 C   0  0  0  0  0  0  0  0  0  0  0  0
   26.7600  -33.9916  -14.9436 C   0  0  2  0  0  0  0  0  0  0  0  0
   26.5194  -33.1561  -13.7754 N   0  0  0  0  0  0  0  0  0  0  0  0
   26.8493  -33.0700  -16.1024 C   0  0  0  0  0  0  0  0  0  0  0  0
   27.0110  -33.6131  -17.2293 O   0  0  0  0  0  0  0  0  0  0  0  0
   26.7597  -31.6591  -15.9927 N   0  0  0  0  0  0  0  0  0  0  0  0
   26.9102  -30.7918  -17.1553 C   0  0  1  0  0  0  0  0  0  0  0  0
   25.9152  -29.6591  -16.9219 C   0  0  0  0  0  0  0  0  0  0  0  0
   24.5034  -30.0390  -17.2057 C   0  0  0  0  0  0  0  0  0  0  0  0
   23.5899  -28.8457  -17.0313 C   0  0  0  0  0  0  0  0  0  0  0  0
   22.1241  -29.1743  -17.1830 C   0  0  0  0  0  0  0  0  0  0  0  0
   21.3342  -27.9653  -17.0326 N   0  0  0  0  0  0  0  0  0  0  0  0
   28.2544  -30.3160  -17.4023 C   0  0  0  0  0  0  0  0  0  0  0  0
   28.9749  -29.9518  -16.4294 O   0  0  0  0  0  0  0  0  0  0  0  0
   33.1852  -30.6017  -18.6030 C   0  0  0  0  0  0  0  0  0  0  0  0
   32.3984  -30.5954  -19.9526 C   0  0  1  0  0  0  0  0  0  0  0  0
   33.0814  -31.6653  -20.7745 C   0  0  0  0  0  0  0  0  0  0  0  0
   30.9715  -30.8062  -19.6361 C   0  0  0  0  0  0  0  0  0  0  0  0
   30.2440  -29.7675  -18.8811 C   0  0  2  0  0  0  0  0  0  0  0  0
   28.8254  -30.2324  -18.6863 N   0  0  0  0  0  0  0  0  0  0  0  0
   30.1438  -28.4176  -19.3743 C   0  0  0  0  0  0  0  0  0  0  0  0
   29.2016  -28.0959  -20.3717 O   0  0  0  0  0  0  0  0  0  0  0  0
   30.8384  -27.4709  -18.9849 O   0  0  0  0  0  0  0  0  0  0  0  0
  2  1  1  6
  2  3  1  0
  2  4  1  0
  4  5  2  0
  6  4  1  0
  6  7  1  0
  7 13  1  0
  7  8  1  1
  9  8  1  0
  9 10  1  0
 10 11  1  0
 11 12  1  0
 13 14  2  0
 16 15  1  1
 16 18  1  0
 17 16  1  0
 19 18  1  6
 19 21  1  0
 20 19  1  0
 20 13  1  0
 21 23  2  0
 21 22  1  0
M  END
$$$$
