AKL.pdb
     RDKit          3D

 23 22  0  0  1  0  0  0  0  0999 V2000
   22.0999  -21.8624  -14.1807 C   0  0  0  0  0  0  0  0  0  0  0  0
   22.0164  -21.4025  -12.7130 C   0  0  2  0  0  0  0  0  0  0  0  0
   21.8490  -19.9584  -12.7993 N   0  0  0  0  0  0  0  0  0  0  0  0
   23.3412  -21.6305  -12.0861 C   0  0  0  0  0  0  0  0  0  0  0  0
   23.7037  -22.8342  -11.9824 O   0  0  0  0  0  0  0  0  0  0  0  0
   24.1808  -20.5863  -11.6218 N   0  0  0  0  0  0  0  0  0  0  0  0
   25.4888  -20.8607  -11.0384 C   0  0  1  0  0  0  0  0  0  0  0  0
   26.4599  -20.0138  -11.8554 C   0  0  0  0  0  0  0  0  0  0  0  0
   26.4305  -20.3146  -13.3137 C   0  0  0  0  0  0  0  0  0  0  0  0
   27.7278  -20.9620  -13.7459 C   0  0  0  0  0  0  0  0  0  0  0  0
   27.8355  -21.1726  -15.2370 C   0  0  0  0  0  0  0  0  0  0  0  0
   29.1502  -21.6955  -15.5630 N   0  0  0  0  0  0  0  0  0  0  0  0
   25.5943  -20.6197   -9.6153 C   0  0  0  0  0  0  0  0  0  0  0  0
   24.7099  -19.9289   -9.0332 O   0  0  0  0  0  0  0  0  0  0  0  0
   27.7106  -21.2360   -4.5258 C   0  0  0  0  0  0  0  0  0  0  0  0
   28.6962  -20.7450   -5.6340 C   0  0  1  0  0  0  0  0  0  0  0  0
   30.0284  -21.3258   -5.2165 C   0  0  0  0  0  0  0  0  0  0  0  0
   28.1552  -21.1840   -6.9360 C   0  0  0  0  0  0  0  0  0  0  0  0
   26.9456  -20.5266   -7.4678 C   0  0  2  0  0  0  0  0  0  0  0  0
   26.6421  -21.1185   -8.8184 N   0  0  0  0  0  0  0  0  0  0  0  0
   26.8904  -19.0987   -7.6506 C   0  0  0  0  0  0  0  0  0  0  0  0
   26.3897  -18.2720   -6.6249 O   0  0  0  0  0  0  0  0  0  0  0  0
   27.2601  -18.5031   -8.6699 O   0  0  0  0  0  0  0  0  0  0  0  0
  2  1  1  6
  2  3  1  0
  2  4  1  0
  4  5  2  0
  6  4  1  0
  6  7  1  0
  7 13  1  0
  7  8  1  6
  9  8  1  0
  9 10  1  0
 10 11  1  0
 11 12  1  0
 13 14  2  0
 16 15  1  1
 16 18  1  0
 17 16  1  0
 19 18  1  6
 19 21  1  0
 20 19  1  0
 20 13  1  0
 21 23  2  0
 21 22  1  0
M  END
$$$$
