AKL.pdb
     RDKit          3D

 23 22  0  0  1  0  0  0  0  0999 V2000
   16.6668  -29.8461   -8.6245 C   0  0  0  0  0  0  0  0  0  0  0  0
   16.3713  -28.3999   -9.0646 C   0  0  2  0  0  0  0  0  0  0  0  0
   17.3577  -28.1327  -10.1021 N   0  0  0  0  0  0  0  0  0  0  0  0
   16.7041  -27.5004   -7.9332 C   0  0  0  0  0  0  0  0  0  0  0  0
   17.8577  -26.9905   -7.9534 O   0  0  0  0  0  0  0  0  0  0  0  0
   15.8073  -27.2032   -6.8757 N   0  0  0  0  0  0  0  0  0  0  0  0
   16.1844  -26.3163   -5.7814 C   0  0  1  0  0  0  0  0  0  0  0  0
   14.9275  -25.4997   -5.4972 C   0  0  0  0  0  0  0  0  0  0  0  0
   15.0905  -24.5242   -4.3836 C   0  0  0  0  0  0  0  0  0  0  0  0
   13.8145  -23.7374   -4.1795 C   0  0  0  0  0  0  0  0  0  0  0  0
   13.8856  -22.7475   -3.0416 C   0  0  0  0  0  0  0  0  0  0  0  0
   12.5908  -22.1155   -2.8621 N   0  0  0  0  0  0  0  0  0  0  0  0
   16.7040  -26.9751   -4.6022 C   0  0  0  0  0  0  0  0  0  0  0  0
   16.2598  -28.1135   -4.2780 O   0  0  0  0  0  0  0  0  0  0  0  0
   20.1094  -26.9205   -0.1317 C   0  0  0  0  0  0  0  0  0  0  0  0
   20.5412  -27.5343   -1.5019 C   0  0  1  0  0  0  0  0  0  0  0  0
   20.3549  -29.0222   -1.3065 C   0  0  0  0  0  0  0  0  0  0  0  0
   19.7267  -26.8920   -2.5529 C   0  0  0  0  0  0  0  0  0  0  0  0
   18.2842  -27.1955   -2.6272 C   0  0  2  0  0  0  0  0  0  0  0  0
   17.6970  -26.4177   -3.7747 N   0  0  0  0  0  0  0  0  0  0  0  0
   17.4107  -26.9513   -1.5079 C   0  0  0  0  0  0  0  0  0  0  0  0
   17.1997  -27.9554   -0.5418 O   0  0  0  0  0  0  0  0  0  0  0  0
   16.8021  -25.8934   -1.3056 O   0  0  0  0  0  0  0  0  0  0  0  0
  2  1  1  1
  2  3  1  0
  2  4  1  0
  4  5  2  0
  6  4  1  0
  6  7  1  0
  7 13  1  0
  7  8  1  1
  9  8  1  0
  9 10  1  0
 10 11  1  0
 11 12  1  0
 13 14  2  0
 16 15  1  1
 16 18  1  0
 17 16  1  0
 19 18  1  1
 19 21  1  0
 20 19  1  0
 20 13  1  0
 21 23  2  0
 21 22  1  0
M  END
$$$$
