AKL.pdb
     RDKit          3D

 23 22  0  0  1  0  0  0  0  0999 V2000
   23.4072  -15.3572  -16.7493 C   0  0  0  0  0  0  0  0  0  0  0  0
   22.4707  -15.0567  -17.9347 C   0  0  2  0  0  0  0  0  0  0  0  0
   23.2396  -15.4502  -19.1072 N   0  0  0  0  0  0  0  0  0  0  0  0
   22.3018  -13.5858  -18.0229 C   0  0  0  0  0  0  0  0  0  0  0  0
   23.2590  -12.9498  -18.5428 O   0  0  0  0  0  0  0  0  0  0  0  0
   21.1488  -12.8986  -17.5655 N   0  0  0  0  0  0  0  0  0  0  0  0
   21.0197  -11.4520  -17.6974 C   0  0  1  0  0  0  0  0  0  0  0  0
   19.5208  -11.2117  -17.8493 C   0  0  0  0  0  0  0  0  0  0  0  0
   18.9622  -11.7265  -19.1303 C   0  0  0  0  0  0  0  0  0  0  0  0
   17.6640  -12.4629  -18.8826 C   0  0  0  0  0  0  0  0  0  0  0  0
   17.0169  -12.9947  -20.1388 C   0  0  0  0  0  0  0  0  0  0  0  0
   15.7697  -13.6581  -19.8028 N   0  0  0  0  0  0  0  0  0  0  0  0
   21.6062  -10.6782  -16.6242 C   0  0  0  0  0  0  0  0  0  0  0  0
   21.2370  -10.8854  -15.4330 O   0  0  0  0  0  0  0  0  0  0  0  0
   26.9668   -9.6563  -16.5398 C   0  0  0  0  0  0  0  0  0  0  0  0
   25.5023  -10.1053  -16.2331 C   0  0  1  0  0  0  0  0  0  0  0  0
   25.6535  -11.0664  -15.0754 C   0  0  0  0  0  0  0  0  0  0  0  0
   24.7056   -8.8862  -15.9887 C   0  0  0  0  0  0  0  0  0  0  0  0
   23.2721   -9.0201  -15.6642 C   0  0  2  0  0  0  0  0  0  0  0  0
   22.5858   -9.6876  -16.8261 N   0  0  0  0  0  0  0  0  0  0  0  0
   22.4665   -7.8679  -15.3498 C   0  0  0  0  0  0  0  0  0  0  0  0
   22.4643   -7.3404  -14.0429 O   0  0  0  0  0  0  0  0  0  0  0  0
   21.7448   -7.2700  -16.1572 O   0  0  0  0  0  0  0  0  0  0  0  0
  2  1  1  1
  2  3  1  0
  2  4  1  0
  4  5  2  0
  6  4  1  0
  6  7  1  0
  7 13  1  0
  7  8  1  1
  9  8  1  0
  9 10  1  0
 10 11  1  0
 11 12  1  0
 13 14  2  0
 16 15  1  1
 16 18  1  0
 17 16  1  0
 19 18  1  6
 19 21  1  0
 20 19  1  0
 20 13  1  0
 21 23  2  0
 21 22  1  0
M  END
$$$$
