AKL.pdb
     RDKit          3D

 23 22  0  0  1  0  0  0  0  0999 V2000
   24.2677  -18.0196  -20.4873 C   0  0  0  0  0  0  0  0  0  0  0  0
   23.7670  -17.3137  -19.2132 C   0  0  2  0  0  0  0  0  0  0  0  0
   24.7846  -16.3091  -18.9370 N   0  0  0  0  0  0  0  0  0  0  0  0
   23.8302  -18.2872  -18.0960 C   0  0  0  0  0  0  0  0  0  0  0  0
   23.0498  -19.2748  -18.1787 O   0  0  0  0  0  0  0  0  0  0  0  0
   24.7029  -18.1540  -16.9863 N   0  0  0  0  0  0  0  0  0  0  0  0
   24.6690  -19.0932  -15.8713 C   0  0  1  0  0  0  0  0  0  0  0  0
   26.0637  -19.0133  -15.2582 C   0  0  0  0  0  0  0  0  0  0  0  0
   27.1365  -19.5364  -16.1491 C   0  0  0  0  0  0  0  0  0  0  0  0
   27.3197  -21.0234  -15.9386 C   0  0  0  0  0  0  0  0  0  0  0  0
   28.4271  -21.6238  -16.7710 C   0  0  0  0  0  0  0  0  0  0  0  0
   28.4513  -23.0638  -16.5865 N   0  0  0  0  0  0  0  0  0  0  0  0
   23.6169  -18.8669  -14.9037 C   0  0  0  0  0  0  0  0  0  0  0  0
   23.5279  -17.7431  -14.3315 O   0  0  0  0  0  0  0  0  0  0  0  0
   19.8411  -16.8900  -12.7326 C   0  0  0  0  0  0  0  0  0  0  0  0
   19.5070  -17.7914  -13.9640 C   0  0  1  0  0  0  0  0  0  0  0  0
   18.7244  -16.8772  -14.8798 C   0  0  0  0  0  0  0  0  0  0  0  0
   20.7823  -18.3243  -14.4837 C   0  0  0  0  0  0  0  0  0  0  0  0
   21.4117  -19.4707  -13.7997 C   0  0  2  0  0  0  0  0  0  0  0  0
   22.6625  -19.8400  -14.5518 N   0  0  0  0  0  0  0  0  0  0  0  0
   20.6990  -20.7074  -13.6045 C   0  0  0  0  0  0  0  0  0  0  0  0
   19.8418  -20.8637  -12.4968 O   0  0  0  0  0  0  0  0  0  0  0  0
   20.7712  -21.6891  -14.3537 O   0  0  0  0  0  0  0  0  0  0  0  0
  2  1  1  6
  2  3  1  0
  2  4  1  0
  4  5  2  0
  6  4  1  0
  6  7  1  0
  7 13  1  0
  7  8  1  1
  9  8  1  0
  9 10  1  0
 10 11  1  0
 11 12  1  0
 13 14  2  0
 16 15  1  1
 16 18  1  0
 17 16  1  0
 19 18  1  6
 19 21  1  0
 20 19  1  0
 20 13  1  0
 21 23  2  0
 21 22  1  0
M  END
$$$$
