AKL.pdb
     RDKit          3D

 23 22  0  0  1  0  0  0  0  0999 V2000
   19.5418  -16.0398  -15.6906 C   0  0  0  0  0  0  0  0  0  0  0  0
   18.8347  -15.5753  -16.9777 C   0  0  2  0  0  0  0  0  0  0  0  0
   19.7226  -16.0049  -18.0491 N   0  0  0  0  0  0  0  0  0  0  0  0
   18.8475  -14.0922  -16.9970 C   0  0  0  0  0  0  0  0  0  0  0  0
   19.8260  -13.5556  -17.5849 O   0  0  0  0  0  0  0  0  0  0  0  0
   17.8388  -13.2901  -16.4054 N   0  0  0  0  0  0  0  0  0  0  0  0
   17.8967  -11.8337  -16.4512 C   0  0  1  0  0  0  0  0  0  0  0  0
   16.4664  -11.3827  -16.1716 C   0  0  0  0  0  0  0  0  0  0  0  0
   16.2819   -9.9068  -16.2481 C   0  0  0  0  0  0  0  0  0  0  0  0
   14.8529   -9.5351  -15.9184 C   0  0  0  0  0  0  0  0  0  0  0  0
   14.5725   -8.0545  -16.0113 C   0  0  0  0  0  0  0  0  0  0  0  0
   13.2267   -7.7815  -15.5395 N   0  0  0  0  0  0  0  0  0  0  0  0
   18.8614  -11.2247  -15.5607 C   0  0  0  0  0  0  0  0  0  0  0  0
   19.0174  -11.6933  -14.3969 O   0  0  0  0  0  0  0  0  0  0  0  0
   23.6512   -8.6100  -15.1150 C   0  0  0  0  0  0  0  0  0  0  0  0
   23.3107  -10.1102  -14.8431 C   0  0  1  0  0  0  0  0  0  0  0  0
   23.3491  -10.2223  -13.3355 C   0  0  0  0  0  0  0  0  0  0  0  0
   22.0209  -10.3994  -15.5012 C   0  0  0  0  0  0  0  0  0  0  0  0
   20.8118   -9.6797  -15.0557 C   0  0  2  0  0  0  0  0  0  0  0  0
   19.6573  -10.1193  -15.9161 N   0  0  0  0  0  0  0  0  0  0  0  0
   20.7603   -8.2400  -15.0463 C   0  0  0  0  0  0  0  0  0  0  0  0
   21.2184   -7.5222  -13.9234 O   0  0  0  0  0  0  0  0  0  0  0  0
   20.3335   -7.5432  -15.9751 O   0  0  0  0  0  0  0  0  0  0  0  0
  2  1  1  1
  2  3  1  0
  2  4  1  0
  4  5  2  0
  6  4  1  0
  6  7  1  0
  7 13  1  0
  7  8  1  1
  9  8  1  0
  9 10  1  0
 10 11  1  0
 11 12  1  0
 13 14  2  0
 16 15  1  1
 16 18  1  0
 17 16  1  0
 19 18  1  6
 19 21  1  0
 20 19  1  0
 20 13  1  0
 21 23  2  0
 21 22  1  0
M  END
$$$$
