SYY.pdb
     RDKit          3D

 31 32  0  0  1  0  0  0  0  0999 V2000
   44.9530  -11.5223   -7.4269 O   0  0  0  0  0  0  0  0  0  0  0  0
   44.1353  -10.5270   -7.9332 C   0  0  0  0  0  0  0  0  0  0  0  0
   43.8182   -9.4721   -6.8799 C   0  0  2  0  0  0  0  0  0  0  0  0
   43.4939  -10.1024   -5.6368 N   0  0  0  0  0  0  0  0  0  0  0  0
   42.7158   -8.6212   -7.3685 C   0  0  0  0  0  0  0  0  0  0  0  0
   42.8778   -7.9143   -8.4131 O   0  0  0  0  0  0  0  0  0  0  0  0
   39.1060  -11.3652  -12.0900 O   0  0  0  0  0  0  0  0  0  0  0  0
   39.0997  -10.5987  -10.9253 C   0  0  0  0  0  0  0  0  0  0  0  0
   38.8619   -9.2307  -10.9533 C   0  0  0  0  0  0  0  0  0  0  0  0
   38.8499   -8.4518   -9.8235 C   0  0  0  0  0  0  0  0  0  0  0  0
   39.0839   -9.0444   -8.5941 C   0  0  0  0  0  0  0  0  0  0  0  0
   39.0835   -8.2617   -7.3331 C   0  0  0  0  0  0  0  0  0  0  0  0
   40.4429   -7.6072   -7.2189 C   0  0  2  0  0  0  0  0  0  0  0  0
   41.4481   -8.5255   -6.7459 N   0  0  0  0  0  0  0  0  0  0  0  0
   40.3939   -6.4644   -6.2354 C   0  0  0  0  0  0  0  0  0  0  0  0
   40.2625   -6.6811   -5.0033 O   0  0  0  0  0  0  0  0  0  0  0  0
   39.3282  -10.4162   -8.5113 C   0  0  0  0  0  0  0  0  0  0  0  0
   39.3282  -11.1492   -9.6812 C   0  0  0  0  0  0  0  0  0  0  0  0
   44.0459   -1.3833  -10.2890 O   0  0  0  0  0  0  0  0  0  0  0  0
   43.5439   -1.9543   -9.1190 C   0  0  0  0  0  0  0  0  0  0  0  0
   42.8632   -1.1885   -8.1968 C   0  0  0  0  0  0  0  0  0  0  0  0
   42.3647   -1.7498   -7.0378 C   0  0  0  0  0  0  0  0  0  0  0  0
   42.5083   -3.0845   -6.7258 C   0  0  0  0  0  0  0  0  0  0  0  0
   41.9835   -3.6908   -5.4828 C   0  0  0  0  0  0  0  0  0  0  0  0
   40.5119   -4.0539   -5.7083 C   0  0  2  0  0  0  0  0  0  0  0  0
   40.4963   -5.1271   -6.6936 N   0  0  0  0  0  0  0  0  0  0  0  0
   39.6908   -2.9165   -6.1347 C   0  0  0  0  0  0  0  0  0  0  0  0
   39.4857   -1.8363   -5.2636 O   0  0  0  0  0  0  0  0  0  0  0  0
   43.2022   -3.8498   -7.6727 C   0  0  0  0  0  0  0  0  0  0  0  0
   43.7006   -3.2925   -8.8303 C   0  0  0  0  0  0  0  0  0  0  0  0
   39.1484   -2.8541   -7.2624 O   0  0  0  0  0  0  0  0  0  0  0  0
  2  1  1  0
  3  5  1  0
  3  2  1  0
  3  4  1  1
  5  6  2  0
  8  7  1  0
  8  9  2  0
 10  9  1  0
 11 10  2  0
 12 11  1  0
 13 12  1  1
 14 13  1  0
 14  5  1  0
 15 16  2  0
 15 13  1  0
 17 18  2  0
 17 11  1  0
 18  8  1  0
 19 20  1  0
 20 30  2  0
 21 22  2  0
 21 20  1  0
 22 23  1  0
 23 24  1  0
 23 29  2  0
 25 24  1  6
 25 27  1  0
 25 26  1  0
 26 15  1  0
 27 28  1  0
 30 29  1  0
 31 27  2  0
M  END
$$$$
