SYY.pdb
     RDKit          3D

 31 32  0  0  1  0  0  0  0  0999 V2000
   16.8249  -10.3235  -12.4301 O   0  0  0  0  0  0  0  0  0  0  0  0
   16.6312  -10.8473  -11.1637 C   0  0  0  0  0  0  0  0  0  0  0  0
   15.2233  -10.5685  -10.6509 C   0  0  2  0  0  0  0  0  0  0  0  0
   14.2559  -11.0269  -11.6005 N   0  0  0  0  0  0  0  0  0  0  0  0
   15.0872   -9.1238  -10.3816 C   0  0  0  0  0  0  0  0  0  0  0  0
   14.4734   -8.3809  -11.2113 O   0  0  0  0  0  0  0  0  0  0  0  0
    9.7282   -7.3941   -6.4741 O   0  0  0  0  0  0  0  0  0  0  0  0
   11.0839   -7.2177   -6.7477 C   0  0  0  0  0  0  0  0  0  0  0  0
   11.6113   -5.9685   -7.0479 C   0  0  0  0  0  0  0  0  0  0  0  0
   12.9407   -5.7654   -7.3213 C   0  0  0  0  0  0  0  0  0  0  0  0
   13.8056   -6.8465   -7.2999 C   0  0  0  0  0  0  0  0  0  0  0  0
   15.2547   -6.6976   -7.5840 C   0  0  0  0  0  0  0  0  0  0  0  0
   15.4585   -7.0553   -9.0400 C   0  0  2  0  0  0  0  0  0  0  0  0
   15.6032   -8.4762   -9.2336 N   0  0  0  0  0  0  0  0  0  0  0  0
   16.7154   -6.4095   -9.5679 C   0  0  0  0  0  0  0  0  0  0  0  0
   17.8260   -6.6156   -9.0144 O   0  0  0  0  0  0  0  0  0  0  0  0
   13.3260   -8.1235   -7.0036 C   0  0  0  0  0  0  0  0  0  0  0  0
   11.9791   -8.2673   -6.7369 C   0  0  0  0  0  0  0  0  0  0  0  0
   22.8340   -4.3216  -15.2320 O   0  0  0  0  0  0  0  0  0  0  0  0
   21.7787   -4.7999  -14.4545 C   0  0  0  0  0  0  0  0  0  0  0  0
   20.5095   -4.9116  -14.9809 C   0  0  0  0  0  0  0  0  0  0  0  0
   19.4626   -5.3845  -14.2148 C   0  0  0  0  0  0  0  0  0  0  0  0
   19.6065   -5.7697  -12.8994 C   0  0  0  0  0  0  0  0  0  0  0  0
   18.4880   -6.2702  -12.0708 C   0  0  0  0  0  0  0  0  0  0  0  0
   17.9062   -5.0908  -11.2841 C   0  0  2  0  0  0  0  0  0  0  0  0
   16.6562   -5.5587  -10.7000 N   0  0  0  0  0  0  0  0  0  0  0  0
   17.7052   -3.8896  -12.1006 C   0  0  0  0  0  0  0  0  0  0  0  0
   16.4107   -3.5212  -12.4960 O   0  0  0  0  0  0  0  0  0  0  0  0
   20.9020   -5.6506  -12.3786 C   0  0  0  0  0  0  0  0  0  0  0  0
   21.9489   -5.1792  -13.1408 C   0  0  0  0  0  0  0  0  0  0  0  0
   18.6491   -3.1553  -12.4742 O   0  0  0  0  0  0  0  0  0  0  0  0
  2  1  1  0
  3  5  1  0
  3  2  1  0
  3  4  1  6
  5  6  2  0
  8  7  1  0
  8  9  2  0
 10  9  1  0
 11 10  2  0
 12 11  1  0
 13 12  1  1
 14 13  1  0
 14  5  1  0
 15 16  2  0
 15 13  1  0
 17 18  2  0
 17 11  1  0
 18  8  1  0
 19 20  1  0
 20 30  2  0
 21 22  2  0
 21 20  1  0
 22 23  1  0
 23 24  1  0
 23 29  2  0
 25 24  1  6
 25 27  1  0
 25 26  1  0
 26 15  1  0
 27 28  1  0
 30 29  1  0
 31 27  2  0
M  END
$$$$
