SYY.pdb
     RDKit          3D

 31 32  0  0  1  0  0  0  0  0999 V2000
   28.9946  -21.8677  -18.0497 O   0  0  0  0  0  0  0  0  0  0  0  0
   28.2965  -21.0770  -17.1536 C   0  0  0  0  0  0  0  0  0  0  0  0
   26.8774  -20.8014  -17.6364 C   0  0  2  0  0  0  0  0  0  0  0  0
   26.8857  -19.7528  -18.6101 N   0  0  0  0  0  0  0  0  0  0  0  0
   26.0312  -20.4660  -16.4748 C   0  0  0  0  0  0  0  0  0  0  0  0
   25.9592  -19.2622  -16.0713 O   0  0  0  0  0  0  0  0  0  0  0  0
   19.6740  -18.5941  -18.0282 O   0  0  0  0  0  0  0  0  0  0  0  0
   20.5085  -19.3628  -17.2178 C   0  0  0  0  0  0  0  0  0  0  0  0
   21.2945  -20.3823  -17.7388 C   0  0  0  0  0  0  0  0  0  0  0  0
   22.1245  -21.1546  -16.9654 C   0  0  0  0  0  0  0  0  0  0  0  0
   22.1903  -20.9166  -15.6029 C   0  0  0  0  0  0  0  0  0  0  0  0
   23.0677  -21.7126  -14.7090 C   0  0  0  0  0  0  0  0  0  0  0  0
   24.4065  -21.0092  -14.6631 C   0  0  2  0  0  0  0  0  0  0  0  0
   25.2664  -21.4099  -15.7482 N   0  0  0  0  0  0  0  0  0  0  0  0
   25.1306  -21.3425  -13.3824 C   0  0  0  0  0  0  0  0  0  0  0  0
   25.5891  -22.4970  -13.1842 O   0  0  0  0  0  0  0  0  0  0  0  0
   21.4204  -19.9034  -15.0294 C   0  0  0  0  0  0  0  0  0  0  0  0
   20.6036  -19.1588  -15.8567 C   0  0  0  0  0  0  0  0  0  0  0  0
   29.0667  -20.4840   -5.5947 O   0  0  0  0  0  0  0  0  0  0  0  0
   28.5822  -20.2962   -6.8897 C   0  0  0  0  0  0  0  0  0  0  0  0
   27.5766  -19.3875   -7.1411 C   0  0  0  0  0  0  0  0  0  0  0  0
   27.0945  -19.1987   -8.4213 C   0  0  0  0  0  0  0  0  0  0  0  0
   27.5718  -19.8887   -9.5146 C   0  0  0  0  0  0  0  0  0  0  0  0
   27.0550  -19.6969  -10.8873 C   0  0  0  0  0  0  0  0  0  0  0  0
   25.9489  -20.7283  -11.1339 C   0  0  2  0  0  0  0  0  0  0  0  0
   25.3021  -20.3513  -12.3839 N   0  0  0  0  0  0  0  0  0  0  0  0
   24.9849  -20.8220  -10.0331 C   0  0  0  0  0  0  0  0  0  0  0  0
   23.7506  -20.1620  -10.1264 O   0  0  0  0  0  0  0  0  0  0  0  0
   28.5937  -20.8085   -9.2432 C   0  0  0  0  0  0  0  0  0  0  0  0
   29.0770  -20.9989   -7.9667 C   0  0  0  0  0  0  0  0  0  0  0  0
   25.2079  -21.4751   -8.9874 O   0  0  0  0  0  0  0  0  0  0  0  0
  2  1  1  0
  3  5  1  0
  3  2  1  0
  3  4  1  6
  5  6  2  0
  8  7  1  0
  8  9  2  0
 10  9  1  0
 11 10  2  0
 12 11  1  0
 13 12  1  1
 14 13  1  0
 14  5  1  0
 15 16  2  0
 15 13  1  0
 17 18  2  0
 17 11  1  0
 18  8  1  0
 19 20  1  0
 20 30  2  0
 21 22  2  0
 21 20  1  0
 22 23  1  0
 23 24  1  0
 23 29  2  0
 25 24  1  1
 25 27  1  0
 25 26  1  0
 26 15  1  0
 27 28  1  0
 30 29  1  0
 31 27  2  0
M  END
$$$$
