SYY.pdb
     RDKit          3D

 31 32  0  0  1  0  0  0  0  0999 V2000
   27.6826  -21.8270  -15.1692 O   0  0  0  0  0  0  0  0  0  0  0  0
   27.5645  -22.3892  -16.4284 C   0  0  0  0  0  0  0  0  0  0  0  0
   27.3112  -21.3293  -17.4940 C   0  0  2  0  0  0  0  0  0  0  0  0
   28.4106  -20.4150  -17.5474 N   0  0  0  0  0  0  0  0  0  0  0  0
   26.0393  -20.6425  -17.1958 C   0  0  0  0  0  0  0  0  0  0  0  0
   25.9913  -19.3718  -17.1972 O   0  0  0  0  0  0  0  0  0  0  0  0
   18.1306  -17.4805  -16.7253 O   0  0  0  0  0  0  0  0  0  0  0  0
   19.2280  -18.2988  -16.9901 C   0  0  0  0  0  0  0  0  0  0  0  0
   19.2198  -19.6529  -16.6818 C   0  0  0  0  0  0  0  0  0  0  0  0
   20.2849  -20.4817  -16.9309 C   0  0  0  0  0  0  0  0  0  0  0  0
   21.4248  -19.9565  -17.5157 C   0  0  0  0  0  0  0  0  0  0  0  0
   22.6116  -20.7964  -17.8141 C   0  0  0  0  0  0  0  0  0  0  0  0
   23.5990  -20.5820  -16.6879 C   0  0  2  0  0  0  0  0  0  0  0  0
   24.8261  -21.3083  -16.8979 N   0  0  0  0  0  0  0  0  0  0  0  0
   23.0192  -21.0668  -15.3824 C   0  0  0  0  0  0  0  0  0  0  0  0
   22.9396  -22.2968  -15.1311 O   0  0  0  0  0  0  0  0  0  0  0  0
   21.4841  -18.6015  -17.8452 C   0  0  0  0  0  0  0  0  0  0  0  0
   20.3823  -17.8160  -17.5712 C   0  0  0  0  0  0  0  0  0  0  0  0
   27.8708  -21.8018  -10.6673 O   0  0  0  0  0  0  0  0  0  0  0  0
   26.6136  -21.2968  -11.0012 C   0  0  0  0  0  0  0  0  0  0  0  0
   26.2990  -20.9972  -12.3095 C   0  0  0  0  0  0  0  0  0  0  0  0
   25.0560  -20.4975  -12.6439 C   0  0  0  0  0  0  0  0  0  0  0  0
   24.0632  -20.2668  -11.7164 C   0  0  0  0  0  0  0  0  0  0  0  0
   22.7321  -19.7247  -12.0666 C   0  0  0  0  0  0  0  0  0  0  0  0
   22.1056  -20.6350  -13.1282 C   0  0  2  0  0  0  0  0  0  0  0  0
   22.5555  -20.1347  -14.4206 N   0  0  0  0  0  0  0  0  0  0  0  0
   20.6427  -20.6965  -13.0519 C   0  0  0  0  0  0  0  0  0  0  0  0
   20.0242  -21.6722  -12.2561 O   0  0  0  0  0  0  0  0  0  0  0  0
   24.3977  -20.5762  -10.3911 C   0  0  0  0  0  0  0  0  0  0  0  0
   25.6373  -21.0753  -10.0544 C   0  0  0  0  0  0  0  0  0  0  0  0
   19.8953  -19.9061  -13.6736 O   0  0  0  0  0  0  0  0  0  0  0  0
  2  1  1  0
  3  5  1  0
  3  2  1  0
  3  4  1  1
  5  6  2  0
  8  7  1  0
  8  9  2  0
 10  9  1  0
 11 10  2  0
 12 11  1  0
 13 12  1  6
 14 13  1  0
 14  5  1  0
 15 16  2  0
 15 13  1  0
 17 18  2  0
 17 11  1  0
 18  8  1  0
 19 20  1  0
 20 30  2  0
 21 22  2  0
 21 20  1  0
 22 23  1  0
 23 24  1  0
 23 29  2  0
 25 24  1  1
 25 27  1  0
 25 26  1  0
 26 15  1  0
 27 28  1  0
 30 29  1  0
 31 27  2  0
M  END
$$$$
