SYY.pdb
     RDKit          3D

 31 32  0  0  1  0  0  0  0  0999 V2000
   22.9314  -25.4987  -19.0879 O   0  0  0  0  0  0  0  0  0  0  0  0
   22.6146  -25.2272  -17.7683 C   0  0  0  0  0  0  0  0  0  0  0  0
   22.6781  -23.7334  -17.4724 C   0  0  2  0  0  0  0  0  0  0  0  0
   23.9887  -23.2330  -17.7542 N   0  0  0  0  0  0  0  0  0  0  0  0
   22.2933  -23.5053  -16.0660 C   0  0  0  0  0  0  0  0  0  0  0  0
   23.1867  -23.2381  -15.2013 O   0  0  0  0  0  0  0  0  0  0  0  0
   15.3097  -23.0816  -17.6027 O   0  0  0  0  0  0  0  0  0  0  0  0
   16.3926  -22.8009  -16.7707 C   0  0  0  0  0  0  0  0  0  0  0  0
   16.3624  -23.0870  -15.4120 C   0  0  0  0  0  0  0  0  0  0  0  0
   17.4128  -22.8217  -14.5696 C   0  0  0  0  0  0  0  0  0  0  0  0
   18.5602  -22.2429  -15.0852 C   0  0  0  0  0  0  0  0  0  0  0  0
   19.7334  -21.9311  -14.2313 C   0  0  0  0  0  0  0  0  0  0  0  0
   20.6270  -23.1520  -14.2452 C   0  0  2  0  0  0  0  0  0  0  0  0
   20.9630  -23.5620  -15.5855 N   0  0  0  0  0  0  0  0  0  0  0  0
   19.9309  -24.3190  -13.5901 C   0  0  0  0  0  0  0  0  0  0  0  0
   19.3547  -25.1963  -14.2834 O   0  0  0  0  0  0  0  0  0  0  0  0
   18.6416  -21.9355  -16.4444 C   0  0  0  0  0  0  0  0  0  0  0  0
   17.5537  -22.2250  -17.2435 C   0  0  0  0  0  0  0  0  0  0  0  0
   17.4452  -30.4189   -7.8628 O   0  0  0  0  0  0  0  0  0  0  0  0
   18.0916  -29.3466   -8.4786 C   0  0  0  0  0  0  0  0  0  0  0  0
   17.8458  -28.0509   -8.0774 C   0  0  0  0  0  0  0  0  0  0  0  0
   18.4837  -26.9870   -8.6842 C   0  0  0  0  0  0  0  0  0  0  0  0
   19.3904  -27.1394   -9.7108 C   0  0  0  0  0  0  0  0  0  0  0  0
   20.0717  -26.0040  -10.3703 C   0  0  0  0  0  0  0  0  0  0  0  0
   19.2357  -25.5788  -11.5821 C   0  0  2  0  0  0  0  0  0  0  0  0
   19.9197  -24.4386  -12.1778 N   0  0  0  0  0  0  0  0  0  0  0  0
   17.8446  -25.2597  -11.2461 C   0  0  0  0  0  0  0  0  0  0  0  0
   17.5004  -23.9567  -10.8565 O   0  0  0  0  0  0  0  0  0  0  0  0
   19.6299  -28.4620  -10.1073 C   0  0  0  0  0  0  0  0  0  0  0  0
   18.9950  -29.5257   -9.5035 C   0  0  0  0  0  0  0  0  0  0  0  0
   16.9230  -26.1073  -11.2885 O   0  0  0  0  0  0  0  0  0  0  0  0
  2  1  1  0
  3  5  1  0
  3  2  1  0
  3  4  1  1
  5  6  2  0
  8  7  1  0
  8  9  2  0
 10  9  1  0
 11 10  2  0
 12 11  1  0
 13 12  1  6
 14 13  1  0
 14  5  1  0
 15 16  2  0
 15 13  1  0
 17 18  2  0
 17 11  1  0
 18  8  1  0
 19 20  1  0
 20 30  2  0
 21 22  2  0
 21 20  1  0
 22 23  1  0
 23 24  1  0
 23 29  2  0
 25 24  1  1
 25 27  1  0
 25 26  1  0
 26 15  1  0
 27 28  1  0
 30 29  1  0
 31 27  2  0
M  END
$$$$
