SYY.pdb
     RDKit          3D

 31 32  0  0  1  0  0  0  0  0999 V2000
   26.7640  -20.9308  -18.6290 O   0  0  0  0  0  0  0  0  0  0  0  0
   28.1031  -20.7595  -18.3241 C   0  0  0  0  0  0  0  0  0  0  0  0
   28.6270  -21.8891  -17.4453 C   0  0  2  0  0  0  0  0  0  0  0  0
   28.5819  -23.1278  -18.1602 N   0  0  0  0  0  0  0  0  0  0  0  0
   27.8299  -21.9416  -16.2043 C   0  0  0  0  0  0  0  0  0  0  0  0
   27.2653  -23.0280  -15.8607 O   0  0  0  0  0  0  0  0  0  0  0  0
   24.4104  -20.8116   -8.3210 O   0  0  0  0  0  0  0  0  0  0  0  0
   25.1425  -20.5958   -9.4877 C   0  0  0  0  0  0  0  0  0  0  0  0
   24.6733  -19.7707  -10.5016 C   0  0  0  0  0  0  0  0  0  0  0  0
   25.3720  -19.5403  -11.6601 C   0  0  0  0  0  0  0  0  0  0  0  0
   26.6014  -20.1519  -11.8383 C   0  0  0  0  0  0  0  0  0  0  0  0
   27.4100  -19.9450  -13.0655 C   0  0  0  0  0  0  0  0  0  0  0  0
   26.9681  -20.9895  -14.0671 C   0  0  2  0  0  0  0  0  0  0  0  0
   27.6368  -20.8410  -15.3353 N   0  0  0  0  0  0  0  0  0  0  0  0
   25.4883  -20.8677  -14.3336 C   0  0  0  0  0  0  0  0  0  0  0  0
   25.0455  -19.9864  -15.1143 O   0  0  0  0  0  0  0  0  0  0  0  0
   27.1181  -20.9907  -10.8494 C   0  0  0  0  0  0  0  0  0  0  0  0
   26.3707  -21.1853   -9.7051 C   0  0  0  0  0  0  0  0  0  0  0  0
   16.8988  -22.2897  -14.8234 O   0  0  0  0  0  0  0  0  0  0  0  0
   18.2688  -22.4493  -14.6125 C   0  0  0  0  0  0  0  0  0  0  0  0
   18.7783  -22.5503  -13.3355 C   0  0  0  0  0  0  0  0  0  0  0  0
   20.1334  -22.7085  -13.1226 C   0  0  0  0  0  0  0  0  0  0  0  0
   21.0534  -22.7749  -14.1466 C   0  0  0  0  0  0  0  0  0  0  0  0
   22.5070  -22.9368  -13.9255 C   0  0  0  0  0  0  0  0  0  0  0  0
   23.1502  -21.5460  -13.9143 C   0  0  2  0  0  0  0  0  0  0  0  0
   24.5771  -21.7511  -13.7026 N   0  0  0  0  0  0  0  0  0  0  0  0
   22.5777  -20.6484  -12.9062 C   0  0  0  0  0  0  0  0  0  0  0  0
   21.6741  -19.6476  -13.2932 O   0  0  0  0  0  0  0  0  0  0  0  0
   20.5205  -22.6710  -15.4385 C   0  0  0  0  0  0  0  0  0  0  0  0
   19.1685  -22.5133  -15.6541 C   0  0  0  0  0  0  0  0  0  0  0  0
   22.8577  -20.7274  -11.6876 O   0  0  0  0  0  0  0  0  0  0  0  0
  2  1  1  0
  3  5  1  0
  3  2  1  0
  3  4  1  6
  5  6  2  0
  8  7  1  0
  8  9  2  0
 10  9  1  0
 11 10  2  0
 12 11  1  0
 13 12  1  1
 14 13  1  0
 14  5  1  0
 15 16  2  0
 15 13  1  0
 17 18  2  0
 17 11  1  0
 18  8  1  0
 19 20  1  0
 20 30  2  0
 21 22  2  0
 21 20  1  0
 22 23  1  0
 23 24  1  0
 23 29  2  0
 25 24  1  1
 25 27  1  0
 25 26  1  0
 26 15  1  0
 27 28  1  0
 30 29  1  0
 31 27  2  0
M  END
$$$$
