SYY.pdb
     RDKit          3D

 31 32  0  0  1  0  0  0  0  0999 V2000
   29.1939  -20.5213  -18.9671 O   0  0  0  0  0  0  0  0  0  0  0  0
   29.0535  -21.7843  -18.4189 C   0  0  0  0  0  0  0  0  0  0  0  0
   27.6863  -21.9651  -17.7702 C   0  0  2  0  0  0  0  0  0  0  0  0
   27.4878  -20.9716  -16.7596 N   0  0  0  0  0  0  0  0  0  0  0  0
   27.5910  -23.3324  -17.2228 C   0  0  0  0  0  0  0  0  0  0  0  0
   27.8119  -23.5357  -15.9871 O   0  0  0  0  0  0  0  0  0  0  0  0
   22.5361  -23.2562  -13.8297 O   0  0  0  0  0  0  0  0  0  0  0  0
   23.3057  -23.9980  -14.7248 C   0  0  0  0  0  0  0  0  0  0  0  0
   24.0556  -25.0911  -14.3107 C   0  0  0  0  0  0  0  0  0  0  0  0
   24.8219  -25.8391  -15.1690 C   0  0  0  0  0  0  0  0  0  0  0  0
   24.8575  -25.4989  -16.5108 C   0  0  0  0  0  0  0  0  0  0  0  0
   25.6635  -26.2655  -17.4934 C   0  0  0  0  0  0  0  0  0  0  0  0
   27.0883  -25.7695  -17.3791 C   0  0  2  0  0  0  0  0  0  0  0  0
   27.2620  -24.4756  -17.9900 N   0  0  0  0  0  0  0  0  0  0  0  0
   28.0311  -26.7163  -18.0793 C   0  0  0  0  0  0  0  0  0  0  0  0
   28.1882  -26.6629  -19.3262 O   0  0  0  0  0  0  0  0  0  0  0  0
   24.1218  -24.4088  -16.9783 C   0  0  0  0  0  0  0  0  0  0  0  0
   23.3691  -23.6931  -16.0687 C   0  0  0  0  0  0  0  0  0  0  0  0
   34.6593  -31.8708  -20.1727 O   0  0  0  0  0  0  0  0  0  0  0  0
   33.7743  -31.0276  -19.4999 C   0  0  0  0  0  0  0  0  0  0  0  0
   33.2123  -31.4085  -18.3001 C   0  0  0  0  0  0  0  0  0  0  0  0
   32.3361  -30.5768  -17.6311 C   0  0  0  0  0  0  0  0  0  0  0  0
   31.9681  -29.3354  -18.1030 C   0  0  0  0  0  0  0  0  0  0  0  0
   31.0245  -28.4426  -17.3954 C   0  0  0  0  0  0  0  0  0  0  0  0
   29.6450  -28.5862  -18.0471 C   0  0  2  0  0  0  0  0  0  0  0  0
   28.7535  -27.6812  -17.3336 N   0  0  0  0  0  0  0  0  0  0  0  0
   29.1382  -29.9621  -18.0390 C   0  0  0  0  0  0  0  0  0  0  0  0
   29.3303  -30.7848  -19.1589 O   0  0  0  0  0  0  0  0  0  0  0  0
   32.5475  -28.9623  -19.3232 C   0  0  0  0  0  0  0  0  0  0  0  0
   33.4224  -29.7900  -19.9930 C   0  0  0  0  0  0  0  0  0  0  0  0
   28.5276  -30.4563  -17.0630 O   0  0  0  0  0  0  0  0  0  0  0  0
  2  1  1  0
  3  5  1  0
  3  2  1  0
  3  4  1  1
  5  6  2  0
  8  7  1  0
  8  9  2  0
 10  9  1  0
 11 10  2  0
 12 11  1  0
 13 12  1  6
 14 13  1  0
 14  5  1  0
 15 16  2  0
 15 13  1  0
 17 18  2  0
 17 11  1  0
 18  8  1  0
 19 20  1  0
 20 30  2  0
 21 22  2  0
 21 20  1  0
 22 23  1  0
 23 24  1  0
 23 29  2  0
 25 24  1  1
 25 27  1  0
 25 26  1  0
 26 15  1  0
 27 28  1  0
 30 29  1  0
 31 27  2  0
M  END
$$$$
