SYY.pdb
     RDKit          3D

 31 32  0  0  1  0  0  0  0  0999 V2000
   16.3585   -8.9213  -14.4306 O   0  0  0  0  0  0  0  0  0  0  0  0
   17.6163   -9.4492  -14.6654 C   0  0  0  0  0  0  0  0  0  0  0  0
   18.7140   -8.4322  -14.3762 C   0  0  2  0  0  0  0  0  0  0  0  0
   19.9949   -8.9939  -14.6788 N   0  0  0  0  0  0  0  0  0  0  0  0
   18.6185   -8.0101  -12.9652 C   0  0  0  0  0  0  0  0  0  0  0  0
   19.0358   -8.7818  -12.0446 O   0  0  0  0  0  0  0  0  0  0  0  0
   22.8971   -4.5994  -14.8593 O   0  0  0  0  0  0  0  0  0  0  0  0
   21.8884   -4.7064  -13.9028 C   0  0  0  0  0  0  0  0  0  0  0  0
   22.0159   -5.5378  -12.7977 C   0  0  0  0  0  0  0  0  0  0  0  0
   21.0399   -5.6630  -11.8411 C   0  0  0  0  0  0  0  0  0  0  0  0
   19.8706   -4.9329  -11.9720 C   0  0  0  0  0  0  0  0  0  0  0  0
   18.7758   -5.0194  -10.9737 C   0  0  0  0  0  0  0  0  0  0  0  0
   18.1172   -6.3693  -11.1561 C   0  0  2  0  0  0  0  0  0  0  0  0
   18.0808   -6.7718  -12.5396 N   0  0  0  0  0  0  0  0  0  0  0  0
   16.6887   -6.3255  -10.6734 C   0  0  0  0  0  0  0  0  0  0  0  0
   15.7491   -6.0624  -11.4672 O   0  0  0  0  0  0  0  0  0  0  0  0
   19.6927   -4.0826  -13.0646 C   0  0  0  0  0  0  0  0  0  0  0  0
   20.7087   -3.9972  -13.9953 C   0  0  0  0  0  0  0  0  0  0  0  0
    9.4969   -7.5085   -5.8122 O   0  0  0  0  0  0  0  0  0  0  0  0
   10.8256   -7.4528   -6.2345 C   0  0  0  0  0  0  0  0  0  0  0  0
   11.3732   -8.4782   -6.9756 C   0  0  0  0  0  0  0  0  0  0  0  0
   12.6876   -8.4267   -7.3956 C   0  0  0  0  0  0  0  0  0  0  0  0
   13.5279   -7.3721   -7.1110 C   0  0  0  0  0  0  0  0  0  0  0  0
   14.9389   -7.3138   -7.5512 C   0  0  0  0  0  0  0  0  0  0  0  0
   14.9946   -6.5757   -8.8930 C   0  0  2  0  0  0  0  0  0  0  0  0
   16.3901   -6.5823   -9.3118 N   0  0  0  0  0  0  0  0  0  0  0  0
   14.4553   -5.2136   -8.8304 C   0  0  0  0  0  0  0  0  0  0  0  0
   15.2971   -4.1428   -8.4947 O   0  0  0  0  0  0  0  0  0  0  0  0
   12.9571   -6.3377   -6.3572 C   0  0  0  0  0  0  0  0  0  0  0  0
   11.6455   -6.3862   -5.9369 C   0  0  0  0  0  0  0  0  0  0  0  0
   13.2542   -4.9462   -9.0658 O   0  0  0  0  0  0  0  0  0  0  0  0
  2  1  1  0
  3  5  1  0
  3  2  1  0
  3  4  1  1
  5  6  2  0
  8  7  1  0
  8  9  2  0
 10  9  1  0
 11 10  2  0
 12 11  1  0
 13 12  1  6
 14 13  1  0
 14  5  1  0
 15 16  2  0
 15 13  1  0
 17 18  2  0
 17 11  1  0
 18  8  1  0
 19 20  1  0
 20 30  2  0
 21 22  2  0
 21 20  1  0
 22 23  1  0
 23 24  1  0
 23 29  2  0
 25 24  1  1
 25 27  1  0
 25 26  1  0
 26 15  1  0
 27 28  1  0
 30 29  1  0
 31 27  2  0
M  END
$$$$
