SYY.pdb
     RDKit          3D

 31 32  0  0  1  0  0  0  0  0999 V2000
   28.9276  -21.8912  -16.4926 O   0  0  0  0  0  0  0  0  0  0  0  0
   27.8297  -21.0503  -16.4366 C   0  0  0  0  0  0  0  0  0  0  0  0
   27.1451  -20.9311  -17.7931 C   0  0  2  0  0  0  0  0  0  0  0  0
   27.9639  -20.1755  -18.6910 N   0  0  0  0  0  0  0  0  0  0  0  0
   25.8173  -20.3137  -17.6087 C   0  0  0  0  0  0  0  0  0  0  0  0
   25.7300  -19.1003  -17.2385 O   0  0  0  0  0  0  0  0  0  0  0  0
   17.6689  -17.5789  -17.8647 O   0  0  0  0  0  0  0  0  0  0  0  0
   18.8129  -18.3472  -18.0764 C   0  0  0  0  0  0  0  0  0  0  0  0
   18.9059  -19.6572  -17.6249 C   0  0  0  0  0  0  0  0  0  0  0  0
   20.0189  -20.4364  -17.8187 C   0  0  0  0  0  0  0  0  0  0  0  0
   21.1046  -19.9042  -18.4934 C   0  0  0  0  0  0  0  0  0  0  0  0
   22.3384  -20.6917  -18.7391 C   0  0  0  0  0  0  0  0  0  0  0  0
   23.3244  -20.3182  -17.6538 C   0  0  2  0  0  0  0  0  0  0  0  0
   24.5902  -20.9876  -17.8183 N   0  0  0  0  0  0  0  0  0  0  0  0
   22.7899  -20.7151  -16.3002 C   0  0  0  0  0  0  0  0  0  0  0  0
   22.8598  -21.9073  -15.9051 O   0  0  0  0  0  0  0  0  0  0  0  0
   21.0620  -18.5922  -18.9677 C   0  0  0  0  0  0  0  0  0  0  0  0
   19.9160  -17.8557  -18.7433 C   0  0  0  0  0  0  0  0  0  0  0  0
   27.2164  -22.1962  -11.4964 O   0  0  0  0  0  0  0  0  0  0  0  0
   26.0805  -21.4881  -11.8906 C   0  0  0  0  0  0  0  0  0  0  0  0
   26.0686  -20.7751  -13.0704 C   0  0  0  0  0  0  0  0  0  0  0  0
   24.9464  -20.0733  -13.4640 C   0  0  0  0  0  0  0  0  0  0  0  0
   23.7847  -20.0349  -12.7237 C   0  0  0  0  0  0  0  0  0  0  0  0
   22.5816  -19.2791  -13.1357 C   0  0  0  0  0  0  0  0  0  0  0  0
   21.7834  -20.1428  -14.1180 C   0  0  2  0  0  0  0  0  0  0  0  0
   22.2000  -19.7418  -15.4554 N   0  0  0  0  0  0  0  0  0  0  0  0
   20.3317  -20.0279  -13.9469 C   0  0  0  0  0  0  0  0  0  0  0  0
   19.6567  -20.9087  -13.0888 O   0  0  0  0  0  0  0  0  0  0  0  0
   23.8121  -20.7643  -11.5275 C   0  0  0  0  0  0  0  0  0  0  0  0
   24.9304  -21.4660  -11.1321 C   0  0  0  0  0  0  0  0  0  0  0  0
   19.6432  -19.1651  -14.5395 O   0  0  0  0  0  0  0  0  0  0  0  0
  2  1  1  0
  3  5  1  0
  3  2  1  0
  3  4  1  6
  5  6  2  0
  8  7  1  0
  8  9  2  0
 10  9  1  0
 11 10  2  0
 12 11  1  0
 13 12  1  6
 14 13  1  0
 14  5  1  0
 15 16  2  0
 15 13  1  0
 17 18  2  0
 17 11  1  0
 18  8  1  0
 19 20  1  0
 20 30  2  0
 21 22  2  0
 21 20  1  0
 22 23  1  0
 23 24  1  0
 23 29  2  0
 25 24  1  1
 25 27  1  0
 25 26  1  0
 26 15  1  0
 27 28  1  0
 30 29  1  0
 31 27  2  0
M  END
$$$$
