YPK.pdb
     RDKit          3D

 29 30  0  0  1  0  0  0  0  0999 V2000
    7.4113  -15.4726   12.9074 O   0  0  0  0  0  0  0  0  0  0  0  0
    8.3559  -15.5429   13.9365 C   0  0  0  0  0  0  0  0  0  0  0  0
    9.4667  -14.7316   13.9600 C   0  0  0  0  0  0  0  0  0  0  0  0
   10.3874  -14.8264   14.9981 C   0  0  0  0  0  0  0  0  0  0  0  0
   10.2183  -15.7281   16.0275 C   0  0  0  0  0  0  0  0  0  0  0  0
   11.1790  -15.8534   17.1451 C   0  0  0  0  0  0  0  0  0  0  0  0
   11.4311  -14.5362   17.8424 C   0  0  2  0  0  0  0  0  0  0  0  0
   12.8614  -14.2634   17.7978 N   0  0  0  0  0  0  0  0  0  0  0  0
   10.9911  -14.7112   19.2692 C   0  0  0  0  0  0  0  0  0  0  0  0
   11.6510  -15.4962   19.9784 O   0  0  0  0  0  0  0  0  0  0  0  0
    9.0959  -16.5282   15.9777 C   0  0  0  0  0  0  0  0  0  0  0  0
    8.1705  -16.4472   14.9533 C   0  0  0  0  0  0  0  0  0  0  0  0
    9.8874  -14.0311   19.8079 N   0  0  0  0  0  0  0  0  0  0  0  0
    9.4532  -12.6506   19.4163 C   0  0  0  0  0  0  0  0  0  0  0  0
    8.0226  -12.9483   19.0403 C   0  0  0  0  0  0  0  0  0  0  0  0
    7.6232  -14.0825   19.9970 C   0  0  0  0  0  0  0  0  0  0  0  0
    8.8975  -14.3004   20.8038 C   0  0  1  0  0  0  0  0  0  0  0  0
    8.9168  -15.5408   21.5297 C   0  0  0  0  0  0  0  0  0  0  0  0
    8.2134  -16.5509   21.4294 O   0  0  0  0  0  0  0  0  0  0  0  0
    9.9366  -15.6468   22.5704 N   0  0  0  0  0  0  0  0  0  0  0  0
   10.0835  -16.8216   23.3604 C   0  0  1  0  0  0  0  0  0  0  0  0
   11.4717  -17.3793   23.1347 C   0  0  0  0  0  0  0  0  0  0  0  0
   11.6435  -17.8994   21.7240 C   0  0  0  0  0  0  0  0  0  0  0  0
   13.0750  -18.3747   21.5732 C   0  0  0  0  0  0  0  0  0  0  0  0
   13.3307  -18.9236   20.1865 C   0  0  0  0  0  0  0  0  0  0  0  0
   14.7434  -19.3005   20.1336 N   0  0  0  0  0  0  0  0  0  0  0  0
    9.8800  -16.6019   24.8063 C   0  0  0  0  0  0  0  0  0  0  0  0
    9.6860  -15.2928   25.2268 O   0  0  0  0  0  0  0  0  0  0  0  0
    9.8692  -17.4977   25.6744 O   0  0  0  0  0  0  0  0  0  0  0  0
  2  3  2  0
  2  1  1  0
  4  3  1  0
  5  4  2  0
  6  5  1  0
  7  6  1  0
  7  8  1  1
  9  7  1  0
 10  9  2  0
 11  5  1  0
 11 12  2  0
 12  2  1  0
 13 17  1  0
 13  9  1  0
 14 15  1  0
 14 13  1  0
 15 16  1  0
 17 16  1  0
 18 20  1  0
 17 18  1  6
 19 18  2  0
 21 27  1  0
 21 20  1  0
 21 22  1  1
 23 22  1  0
 24 23  1  0
 25 24  1  0
 25 26  1  0
 27 28  1  0
 29 27  2  0
M  END
$$$$
