YPK.pdb
     RDKit          3D

 29 30  0  0  1  0  0  0  0  0999 V2000
    6.1639  -10.2101   27.0143 O   0  0  0  0  0  0  0  0  0  0  0  0
    6.5537  -11.5325   26.7785 C   0  0  0  0  0  0  0  0  0  0  0  0
    7.8717  -11.8791   26.5910 C   0  0  0  0  0  0  0  0  0  0  0  0
    8.2263  -13.2038   26.3584 C   0  0  0  0  0  0  0  0  0  0  0  0
    7.2773  -14.2028   26.3088 C   0  0  0  0  0  0  0  0  0  0  0  0
    7.6220  -15.6201   26.0633 C   0  0  0  0  0  0  0  0  0  0  0  0
    6.8385  -16.2164   24.9164 C   0  0  2  0  0  0  0  0  0  0  0  0
    6.0698  -17.3435   25.4270 N   0  0  0  0  0  0  0  0  0  0  0  0
    7.8453  -16.7013   23.9108 C   0  0  0  0  0  0  0  0  0  0  0  0
    8.6324  -17.5965   24.2765 O   0  0  0  0  0  0  0  0  0  0  0  0
    5.9643  -13.8260   26.5002 C   0  0  0  0  0  0  0  0  0  0  0  0
    5.5941  -12.5140   26.7325 C   0  0  0  0  0  0  0  0  0  0  0  0
    7.9186  -16.1863   22.6069 N   0  0  0  0  0  0  0  0  0  0  0  0
    6.7439  -15.7249   21.7974 C   0  0  0  0  0  0  0  0  0  0  0  0
    7.2107  -14.3267   21.4755 C   0  0  0  0  0  0  0  0  0  0  0  0
    8.7366  -14.4690   21.3632 C   0  0  0  0  0  0  0  0  0  0  0  0
    8.9538  -15.9500   21.6494 C   0  0  1  0  0  0  0  0  0  0  0  0
   10.3171  -16.2852   21.9571 C   0  0  0  0  0  0  0  0  0  0  0  0
   11.1675  -15.6914   22.6276 O   0  0  0  0  0  0  0  0  0  0  0  0
   10.8017  -17.5407   21.3887 N   0  0  0  0  0  0  0  0  0  0  0  0
   12.1187  -18.0189   21.6387 C   0  0  1  0  0  0  0  0  0  0  0  0
   12.1032  -19.5295   21.5548 C   0  0  0  0  0  0  0  0  0  0  0  0
   13.4587  -20.1219   21.8739 C   0  0  0  0  0  0  0  0  0  0  0  0
   13.3265  -21.6317   21.8452 C   0  0  0  0  0  0  0  0  0  0  0  0
   14.6076  -22.3060   22.2851 C   0  0  0  0  0  0  0  0  0  0  0  0
   14.3937  -23.7476   22.1563 N   0  0  0  0  0  0  0  0  0  0  0  0
   13.1353  -17.4934   20.7055 C   0  0  0  0  0  0  0  0  0  0  0  0
   14.3665  -17.1417   21.2428 O   0  0  0  0  0  0  0  0  0  0  0  0
   12.9734  -17.3419   19.4779 O   0  0  0  0  0  0  0  0  0  0  0  0
  2  3  2  0
  2  1  1  0
  4  3  1  0
  5  4  2  0
  6  5  1  0
  7  6  1  0
  7  8  1  1
  9  7  1  0
 10  9  2  0
 11  5  1  0
 11 12  2  0
 12  2  1  0
 13 17  1  0
 13  9  1  0
 14 15  1  0
 14 13  1  0
 15 16  1  0
 17 16  1  0
 18 20  1  0
 17 18  1  1
 19 18  2  0
 21 27  1  0
 21 20  1  0
 21 22  1  6
 23 22  1  0
 24 23  1  0
 25 24  1  0
 25 26  1  0
 27 28  1  0
 29 27  2  0
M  END
$$$$
