YPK.pdb
     RDKit          3D

 29 30  0  0  1  0  0  0  0  0999 V2000
    5.4301  -10.4611   28.0606 O   0  0  0  0  0  0  0  0  0  0  0  0
    6.0520  -11.4084   27.2408 C   0  0  0  0  0  0  0  0  0  0  0  0
    7.2098  -12.0481   27.6186 C   0  0  0  0  0  0  0  0  0  0  0  0
    7.8035  -12.9855   26.7799 C   0  0  0  0  0  0  0  0  0  0  0  0
    7.2559  -13.3009   25.5544 C   0  0  0  0  0  0  0  0  0  0  0  0
    7.8629  -14.2925   24.6400 C   0  0  0  0  0  0  0  0  0  0  0  0
    6.8473  -15.2624   24.0810 C   0  0  2  0  0  0  0  0  0  0  0  0
    6.4060  -16.1336   25.1619 N   0  0  0  0  0  0  0  0  0  0  0  0
    7.5556  -16.0730   23.0315 C   0  0  0  0  0  0  0  0  0  0  0  0
    8.0067  -17.1834   23.3753 O   0  0  0  0  0  0  0  0  0  0  0  0
    6.0953  -12.6441   25.2021 C   0  0  0  0  0  0  0  0  0  0  0  0
    5.4918  -11.7096   26.0236 C   0  0  0  0  0  0  0  0  0  0  0  0
    7.7165  -15.6238   21.7112 N   0  0  0  0  0  0  0  0  0  0  0  0
    6.6962  -14.8430   20.9384 C   0  0  0  0  0  0  0  0  0  0  0  0
    7.5443  -13.6548   20.5568 C   0  0  0  0  0  0  0  0  0  0  0  0
    8.9501  -14.2509   20.3852 C   0  0  0  0  0  0  0  0  0  0  0  0
    8.7273  -15.7241   20.7050 C   0  0  1  0  0  0  0  0  0  0  0  0
    9.9408  -16.4489   20.9652 C   0  0  0  0  0  0  0  0  0  0  0  0
   10.8752  -16.2165   21.7386 O   0  0  0  0  0  0  0  0  0  0  0  0
   10.1210  -17.6755   20.1923 N   0  0  0  0  0  0  0  0  0  0  0  0
   11.3229  -18.4349   20.2589 C   0  0  1  0  0  0  0  0  0  0  0  0
   11.3326  -19.4172   19.1082 C   0  0  0  0  0  0  0  0  0  0  0  0
   12.5399  -20.3281   19.1599 C   0  0  0  0  0  0  0  0  0  0  0  0
   12.5047  -21.2194   17.9344 C   0  0  0  0  0  0  0  0  0  0  0  0
   13.6320  -22.2285   17.9536 C   0  0  0  0  0  0  0  0  0  0  0  0
   13.5095  -23.0245   16.7321 N   0  0  0  0  0  0  0  0  0  0  0  0
   12.5523  -17.6185   20.2079 C   0  0  0  0  0  0  0  0  0  0  0  0
   13.5490  -17.9166   21.1277 O   0  0  0  0  0  0  0  0  0  0  0  0
   12.7627  -16.6864   19.4060 O   0  0  0  0  0  0  0  0  0  0  0  0
  2  3  2  0
  2  1  1  0
  4  3  1  0
  5  4  2  0
  6  5  1  0
  7  6  1  0
  7  8  1  1
  9  7  1  0
 10  9  2  0
 11  5  1  0
 11 12  2  0
 12  2  1  0
 13 17  1  0
 13  9  1  0
 14 15  1  0
 14 13  1  0
 15 16  1  0
 17 16  1  0
 18 20  1  0
 17 18  1  1
 19 18  2  0
 21 27  1  0
 21 20  1  0
 21 22  1  6
 23 22  1  0
 24 23  1  0
 25 24  1  0
 25 26  1  0
 27 28  1  0
 29 27  2  0
M  END
$$$$
