YPK.pdb
     RDKit          3D

 29 30  0  0  1  0  0  0  0  0999 V2000
    6.1912  -10.6641   28.0864 O   0  0  0  0  0  0  0  0  0  0  0  0
    6.6924  -11.6792   27.2651 C   0  0  0  0  0  0  0  0  0  0  0  0
    7.9404  -11.6004   26.6917 C   0  0  0  0  0  0  0  0  0  0  0  0
    8.4095  -12.6275   25.8795 C   0  0  0  0  0  0  0  0  0  0  0  0
    7.6462  -13.7471   25.6252 C   0  0  0  0  0  0  0  0  0  0  0  0
    8.1162  -14.8557   24.7662 C   0  0  0  0  0  0  0  0  0  0  0  0
    7.0310  -15.3828   23.8556 C   0  0  2  0  0  0  0  0  0  0  0  0
    6.2758  -16.3932   24.5841 N   0  0  0  0  0  0  0  0  0  0  0  0
    7.7224  -16.0144   22.6795 C   0  0  0  0  0  0  0  0  0  0  0  0
    8.1294  -17.1848   22.8171 O   0  0  0  0  0  0  0  0  0  0  0  0
    6.3995  -13.7989   26.2132 C   0  0  0  0  0  0  0  0  0  0  0  0
    5.9175  -12.7870   27.0232 C   0  0  0  0  0  0  0  0  0  0  0  0
    7.9149  -15.3383   21.4643 N   0  0  0  0  0  0  0  0  0  0  0  0
    6.9090  -14.4374   20.8129 C   0  0  0  0  0  0  0  0  0  0  0  0
    7.7564  -13.1970   20.6711 C   0  0  0  0  0  0  0  0  0  0  0  0
    9.1717  -13.7478   20.4367 C   0  0  0  0  0  0  0  0  0  0  0  0
    8.9534  -15.2553   20.4851 C   0  0  1  0  0  0  0  0  0  0  0  0
   10.1659  -16.0097   20.6474 C   0  0  0  0  0  0  0  0  0  0  0  0
   11.0784  -15.9118   21.4739 O   0  0  0  0  0  0  0  0  0  0  0  0
   10.3757  -17.0827   19.6783 N   0  0  0  0  0  0  0  0  0  0  0  0
   11.5207  -17.9266   19.7291 C   0  0  1  0  0  0  0  0  0  0  0  0
   11.4329  -18.9210   18.5921 C   0  0  0  0  0  0  0  0  0  0  0  0
   12.5112  -19.9783   18.6887 C   0  0  0  0  0  0  0  0  0  0  0  0
   12.3030  -20.9619   17.5543 C   0  0  0  0  0  0  0  0  0  0  0  0
   13.3080  -22.0915   17.6122 C   0  0  0  0  0  0  0  0  0  0  0  0
   13.1093  -22.8981   16.4078 N   0  0  0  0  0  0  0  0  0  0  0  0
   12.8045  -17.2024   19.6399 C   0  0  0  0  0  0  0  0  0  0  0  0
   13.8245  -17.6152   20.4870 O   0  0  0  0  0  0  0  0  0  0  0  0
   13.0415  -16.2533   18.8660 O   0  0  0  0  0  0  0  0  0  0  0  0
  2  3  2  0
  2  1  1  0
  4  3  1  0
  5  4  2  0
  6  5  1  0
  7  6  1  0
  7  8  1  1
  9  7  1  0
 10  9  2  0
 11  5  1  0
 11 12  2  0
 12  2  1  0
 13 17  1  0
 13  9  1  0
 14 15  1  0
 14 13  1  0
 15 16  1  0
 17 16  1  0
 18 20  1  0
 17 18  1  1
 19 18  2  0
 21 27  1  0
 21 20  1  0
 21 22  1  6
 23 22  1  0
 24 23  1  0
 25 24  1  0
 25 26  1  0
 27 28  1  0
 29 27  2  0
M  END
$$$$
