YPK.pdb
     RDKit          3D

 29 30  0  0  1  0  0  0  0  0999 V2000
    5.4706  -10.4739   27.7398 O   0  0  0  0  0  0  0  0  0  0  0  0
    6.1075  -11.4593   26.9784 C   0  0  0  0  0  0  0  0  0  0  0  0
    7.0761  -11.1490   26.0522 C   0  0  0  0  0  0  0  0  0  0  0  0
    7.6904  -12.1529   25.3109 C   0  0  0  0  0  0  0  0  0  0  0  0
    7.3516  -13.4788   25.4789 C   0  0  0  0  0  0  0  0  0  0  0  0
    7.9859  -14.5691   24.7064 C   0  0  0  0  0  0  0  0  0  0  0  0
    7.0110  -15.2727   23.7903 C   0  0  2  0  0  0  0  0  0  0  0  0
    6.2941  -16.2730   24.5697 N   0  0  0  0  0  0  0  0  0  0  0  0
    7.8291  -15.9483   22.7252 C   0  0  0  0  0  0  0  0  0  0  0  0
    8.4731  -16.9630   23.0572 O   0  0  0  0  0  0  0  0  0  0  0  0
    6.3777  -13.7601   26.4142 C   0  0  0  0  0  0  0  0  0  0  0  0
    5.7567  -12.7747   27.1597 C   0  0  0  0  0  0  0  0  0  0  0  0
    7.8835  -15.4788   21.4033 N   0  0  0  0  0  0  0  0  0  0  0  0
    6.7344  -14.8657   20.6607 C   0  0  0  0  0  0  0  0  0  0  0  0
    7.3772  -13.5599   20.2628 C   0  0  0  0  0  0  0  0  0  0  0  0
    8.8536  -13.9302   20.0522 C   0  0  0  0  0  0  0  0  0  0  0  0
    8.8709  -15.4203   20.3710 C   0  0  1  0  0  0  0  0  0  0  0  0
   10.1888  -15.9477   20.5964 C   0  0  0  0  0  0  0  0  0  0  0  0
   11.2162  -15.4106   21.0220 O   0  0  0  0  0  0  0  0  0  0  0  0
   10.3663  -17.3612   20.2728 N   0  0  0  0  0  0  0  0  0  0  0  0
   11.6010  -18.0331   20.4965 C   0  0  1  0  0  0  0  0  0  0  0  0
   11.3210  -19.5128   20.6417 C   0  0  0  0  0  0  0  0  0  0  0  0
   12.5957  -20.3091   20.8176 C   0  0  0  0  0  0  0  0  0  0  0  0
   12.2231  -21.7768   20.8871 C   0  0  0  0  0  0  0  0  0  0  0  0
   13.4225  -22.6349   21.2260 C   0  0  0  0  0  0  0  0  0  0  0  0
   12.9408  -24.0120   21.3370 N   0  0  0  0  0  0  0  0  0  0  0  0
   12.5963  -17.8324   19.4243 C   0  0  0  0  0  0  0  0  0  0  0  0
   12.1144  -17.7106   18.1277 O   0  0  0  0  0  0  0  0  0  0  0  0
   13.8303  -17.7643   19.5935 O   0  0  0  0  0  0  0  0  0  0  0  0
  2  3  2  0
  2  1  1  0
  4  3  1  0
  5  4  2  0
  6  5  1  0
  7  6  1  0
  7  8  1  1
  9  7  1  0
 10  9  2  0
 11  5  1  0
 11 12  2  0
 12  2  1  0
 13 17  1  0
 13  9  1  0
 14 15  1  0
 14 13  1  0
 15 16  1  0
 17 16  1  0
 18 20  1  0
 17 18  1  1
 19 18  2  0
 21 27  1  0
 21 20  1  0
 21 22  1  6
 23 22  1  0
 24 23  1  0
 25 24  1  0
 25 26  1  0
 27 28  1  0
 29 27  2  0
M  END
$$$$
