YPK.pdb
     RDKit          3D

 29 30  0  0  1  0  0  0  0  0999 V2000
    7.3090  -13.0571   15.7834 O   0  0  0  0  0  0  0  0  0  0  0  0
    7.6523  -13.6107   17.0211 C   0  0  0  0  0  0  0  0  0  0  0  0
    7.1280  -13.1350   18.2006 C   0  0  0  0  0  0  0  0  0  0  0  0
    7.4900  -13.7079   19.4152 C   0  0  0  0  0  0  0  0  0  0  0  0
    8.3777  -14.7612   19.4757 C   0  0  0  0  0  0  0  0  0  0  0  0
    8.7827  -15.3918   20.7509 C   0  0  0  0  0  0  0  0  0  0  0  0
    8.1175  -16.7310   20.9717 C   0  0  2  0  0  0  0  0  0  0  0  0
    6.6964  -16.5024   21.1959 N   0  0  0  0  0  0  0  0  0  0  0  0
    8.7381  -17.3238   22.2060 C   0  0  0  0  0  0  0  0  0  0  0  0
    8.4319  -16.8127   23.3012 O   0  0  0  0  0  0  0  0  0  0  0  0
    8.8871  -15.2173   18.2778 C   0  0  0  0  0  0  0  0  0  0  0  0
    8.5381  -14.6595   17.0615 C   0  0  0  0  0  0  0  0  0  0  0  0
    9.6280  -18.4084   22.1573 N   0  0  0  0  0  0  0  0  0  0  0  0
    9.4821  -19.6007   21.2602 C   0  0  0  0  0  0  0  0  0  0  0  0
   10.8258  -19.5499   20.5757 C   0  0  0  0  0  0  0  0  0  0  0  0
   11.7656  -18.9980   21.6590 C   0  0  0  0  0  0  0  0  0  0  0  0
   10.8250  -18.7901   22.8399 C   0  0  1  0  0  0  0  0  0  0  0  0
   11.3703  -17.9520   23.8724 C   0  0  0  0  0  0  0  0  0  0  0  0
   12.1201  -16.9725   23.8113 O   0  0  0  0  0  0  0  0  0  0  0  0
   10.9843  -18.3009   25.2375 N   0  0  0  0  0  0  0  0  0  0  0  0
   11.4063  -17.5300   26.3571 C   0  0  1  0  0  0  0  0  0  0  0  0
   10.4353  -16.3847   26.5427 C   0  0  0  0  0  0  0  0  0  0  0  0
   10.8593  -15.4684   27.6699 C   0  0  0  0  0  0  0  0  0  0  0  0
    9.8047  -14.3895   27.8158 C   0  0  0  0  0  0  0  0  0  0  0  0
   10.1508  -13.4271   28.9310 C   0  0  0  0  0  0  0  0  0  0  0  0
    9.0599  -12.4550   29.0060 N   0  0  0  0  0  0  0  0  0  0  0  0
   11.4946  -18.2977   27.6154 C   0  0  0  0  0  0  0  0  0  0  0  0
   12.3640  -17.8217   28.5879 O   0  0  0  0  0  0  0  0  0  0  0  0
   10.8512  -19.3356   27.8702 O   0  0  0  0  0  0  0  0  0  0  0  0
  2  3  2  0
  2  1  1  0
  4  3  1  0
  5  4  2  0
  6  5  1  0
  7  6  1  0
  7  8  1  1
  9  7  1  0
 10  9  2  0
 11  5  1  0
 11 12  2  0
 12  2  1  0
 13 17  1  0
 13  9  1  0
 14 15  1  0
 14 13  1  0
 15 16  1  0
 17 16  1  0
 18 20  1  0
 17 18  1  1
 19 18  2  0
 21 27  1  0
 21 20  1  0
 21 22  1  1
 23 22  1  0
 24 23  1  0
 25 24  1  0
 25 26  1  0
 27 28  1  0
 29 27  2  0
M  END
$$$$
