YPK.pdb
     RDKit          3D

 29 30  0  0  1  0  0  0  0  0999 V2000
    7.4527  -10.7839   26.6266 O   0  0  0  0  0  0  0  0  0  0  0  0
    7.2422  -12.1615   26.5075 C   0  0  0  0  0  0  0  0  0  0  0  0
    8.2843  -13.0595   26.5183 C   0  0  0  0  0  0  0  0  0  0  0  0
    8.0410  -14.4236   26.3977 C   0  0  0  0  0  0  0  0  0  0  0  0
    6.7598  -14.9153   26.2647 C   0  0  0  0  0  0  0  0  0  0  0  0
    6.4683  -16.3595   26.1343 C   0  0  0  0  0  0  0  0  0  0  0  0
    6.3208  -16.7927   24.6937 C   0  0  2  0  0  0  0  0  0  0  0  0
    5.8626  -18.1754   24.6783 N   0  0  0  0  0  0  0  0  0  0  0  0
    7.6870  -16.7026   24.0731 C   0  0  0  0  0  0  0  0  0  0  0  0
    8.6109  -17.3254   24.6328 O   0  0  0  0  0  0  0  0  0  0  0  0
    5.7350  -13.9920   26.2571 C   0  0  0  0  0  0  0  0  0  0  0  0
    5.9588  -12.6326   26.3759 C   0  0  0  0  0  0  0  0  0  0  0  0
    7.9411  -15.9566   22.9113 N   0  0  0  0  0  0  0  0  0  0  0  0
    6.9082  -15.5662   21.8972 C   0  0  0  0  0  0  0  0  0  0  0  0
    7.1298  -14.0737   21.8936 C   0  0  0  0  0  0  0  0  0  0  0  0
    8.6368  -13.9288   22.1570 C   0  0  0  0  0  0  0  0  0  0  0  0
    9.0912  -15.3772   22.2902 C   0  0  1  0  0  0  0  0  0  0  0  0
   10.3898  -15.5226   22.8887 C   0  0  0  0  0  0  0  0  0  0  0  0
   11.1420  -14.6919   23.4077 O   0  0  0  0  0  0  0  0  0  0  0  0
   10.9332  -16.8787   22.8952 N   0  0  0  0  0  0  0  0  0  0  0  0
   12.2041  -17.1754   23.4630 C   0  0  1  0  0  0  0  0  0  0  0  0
   12.1828  -18.6028   23.9641 C   0  0  0  0  0  0  0  0  0  0  0  0
   13.4662  -18.9641   24.6799 C   0  0  0  0  0  0  0  0  0  0  0  0
   13.3953  -20.4316   25.0527 C   0  0  0  0  0  0  0  0  0  0  0  0
   14.5418  -20.8268   25.9576 C   0  0  0  0  0  0  0  0  0  0  0  0
   14.3654  -22.2452   26.2706 N   0  0  0  0  0  0  0  0  0  0  0  0
   13.3336  -17.0086   22.5266 C   0  0  0  0  0  0  0  0  0  0  0  0
   14.5374  -16.5659   23.0588 O   0  0  0  0  0  0  0  0  0  0  0  0
   13.2893  -17.2339   21.3004 O   0  0  0  0  0  0  0  0  0  0  0  0
  2  3  2  0
  2  1  1  0
  4  3  1  0
  5  4  2  0
  6  5  1  0
  7  6  1  0
  7  8  1  1
  9  7  1  0
 10  9  2  0
 11  5  1  0
 11 12  2  0
 12  2  1  0
 13 17  1  0
 13  9  1  0
 14 15  1  0
 14 13  1  0
 15 16  1  0
 17 16  1  0
 18 20  1  0
 17 18  1  1
 19 18  2  0
 21 27  1  0
 21 20  1  0
 21 22  1  6
 23 22  1  0
 24 23  1  0
 25 24  1  0
 25 26  1  0
 27 28  1  0
 29 27  2  0
M  END
$$$$
