YPK.pdb
     RDKit          3D

 29 30  0  0  1  0  0  0  0  0999 V2000
    7.8990  -11.5359   26.9594 O   0  0  0  0  0  0  0  0  0  0  0  0
    7.4607  -12.7988   26.5479 C   0  0  0  0  0  0  0  0  0  0  0  0
    6.1253  -13.0886   26.3895 C   0  0  0  0  0  0  0  0  0  0  0  0
    5.7223  -14.3549   25.9788 C   0  0  0  0  0  0  0  0  0  0  0  0
    6.6396  -15.3511   25.7195 C   0  0  0  0  0  0  0  0  0  0  0  0
    6.2432  -16.7073   25.2817 C   0  0  0  0  0  0  0  0  0  0  0  0
    6.0087  -16.7890   23.7907 C   0  0  2  0  0  0  0  0  0  0  0  0
    5.4374  -18.0949   23.4902 N   0  0  0  0  0  0  0  0  0  0  0  0
    7.3545  -16.6592   23.1336 C   0  0  0  0  0  0  0  0  0  0  0  0
    8.2456  -17.4530   23.4949 O   0  0  0  0  0  0  0  0  0  0  0  0
    7.9710  -15.0321   25.8867 C   0  0  0  0  0  0  0  0  0  0  0  0
    8.3892  -13.7786   26.2943 C   0  0  0  0  0  0  0  0  0  0  0  0
    7.6250  -15.6943   22.1504 N   0  0  0  0  0  0  0  0  0  0  0  0
    6.5870  -14.8926   21.4240 C   0  0  0  0  0  0  0  0  0  0  0  0
    7.0984  -13.5066   21.7309 C   0  0  0  0  0  0  0  0  0  0  0  0
    8.6236  -13.6854   21.7868 C   0  0  0  0  0  0  0  0  0  0  0  0
    8.7936  -15.1746   21.5113 C   0  0  1  0  0  0  0  0  0  0  0  0
   10.0943  -15.6808   21.8542 C   0  0  0  0  0  0  0  0  0  0  0  0
   11.1749  -15.6109   21.2604 O   0  0  0  0  0  0  0  0  0  0  0  0
   10.1752  -16.4068   23.1193 N   0  0  0  0  0  0  0  0  0  0  0  0
   11.4205  -16.6648   23.7584 C   0  0  1  0  0  0  0  0  0  0  0  0
   11.1445  -17.1784   25.1545 C   0  0  0  0  0  0  0  0  0  0  0  0
   12.4244  -17.4865   25.9008 C   0  0  0  0  0  0  0  0  0  0  0  0
   12.0496  -18.0800   27.2443 C   0  0  0  0  0  0  0  0  0  0  0  0
   13.2729  -18.3193   28.1021 C   0  0  0  0  0  0  0  0  0  0  0  0
   12.7961  -18.8304   29.3875 N   0  0  0  0  0  0  0  0  0  0  0  0
   12.2711  -17.6381   23.0446 C   0  0  0  0  0  0  0  0  0  0  0  0
   13.6326  -17.3703   22.9919 O   0  0  0  0  0  0  0  0  0  0  0  0
   11.8623  -18.6771   22.4883 O   0  0  0  0  0  0  0  0  0  0  0  0
  2  3  2  0
  2  1  1  0
  4  3  1  0
  5  4  2  0
  6  5  1  0
  7  6  1  0
  7  8  1  1
  9  7  1  0
 10  9  2  0
 11  5  1  0
 11 12  2  0
 12  2  1  0
 13 17  1  0
 13  9  1  0
 14 15  1  0
 14 13  1  0
 15 16  1  0
 17 16  1  0
 18 20  1  0
 17 18  1  1
 19 18  2  0
 21 27  1  0
 21 20  1  0
 21 22  1  1
 23 22  1  0
 24 23  1  0
 25 24  1  0
 25 26  1  0
 27 28  1  0
 29 27  2  0
M  END
$$$$
