LKK.pdb
     RDKit          3D

 27 26  0  0  1  0  0  0  0  0999 V2000
    7.8929  -12.7802   19.2025 C   0  0  0  0  0  0  0  0  0  0  0  0
    7.5083  -13.2128   20.5740 C   0  0  2  0  0  0  0  0  0  0  0  0
    7.7990  -12.0363   21.5189 C   0  0  0  0  0  0  0  0  0  0  0  0
    8.2253  -14.3823   21.1291 C   0  0  0  0  0  0  0  0  0  0  0  0
    8.0304  -15.6928   20.4444 C   0  0  2  0  0  0  0  0  0  0  0  0
    6.6950  -16.1504   20.3051 N   0  0  0  0  0  0  0  0  0  0  0  0
    8.8919  -16.7682   20.9880 C   0  0  0  0  0  0  0  0  0  0  0  0
    8.4871  -17.5407   21.8976 O   0  0  0  0  0  0  0  0  0  0  0  0
   10.1865  -16.9325   20.4821 N   0  0  0  0  0  0  0  0  0  0  0  0
   11.1410  -17.9221   20.9607 C   0  0  1  0  0  0  0  0  0  0  0  0
   12.1721  -18.1981   19.8983 C   0  0  0  0  0  0  0  0  0  0  0  0
   13.2029  -19.1857   20.3100 C   0  0  0  0  0  0  0  0  0  0  0  0
   14.1953  -19.4502   19.1741 C   0  0  0  0  0  0  0  0  0  0  0  0
   14.6894  -20.8716   19.3192 C   0  0  0  0  0  0  0  0  0  0  0  0
   15.7022  -21.1782   18.3279 N   0  0  0  0  0  0  0  0  0  0  0  0
   11.7230  -17.4554   22.2241 C   0  0  0  0  0  0  0  0  0  0  0  0
   12.2772  -16.3377   22.3732 O   0  0  0  0  0  0  0  0  0  0  0  0
   11.7020  -18.2659   23.4214 N   0  0  0  0  0  0  0  0  0  0  0  0
   12.3076  -17.8450   24.6658 C   0  0  1  0  0  0  0  0  0  0  0  0
   12.0761  -18.8646   25.7628 C   0  0  0  0  0  0  0  0  0  0  0  0
   12.7251  -18.4961   27.0594 C   0  0  0  0  0  0  0  0  0  0  0  0
   12.4160  -19.4537   28.1860 C   0  0  0  0  0  0  0  0  0  0  0  0
   11.4741  -18.8053   29.1893 C   0  0  0  0  0  0  0  0  0  0  0  0
   11.0970  -19.8044   30.1686 N   0  0  0  0  0  0  0  0  0  0  0  0
   13.7780  -17.7926   24.4614 C   0  0  0  0  0  0  0  0  0  0  0  0
   14.3890  -18.7365   23.6497 O   0  0  0  0  0  0  0  0  0  0  0  0
   14.5052  -16.9164   25.0002 O   0  0  0  0  0  0  0  0  0  0  0  0
  2  1  1  6
  3  2  1  0
  4  5  1  0
  4  2  1  0
  5  6  1  1
  7  5  1  0
  7  8  2  0
  9  7  1  0
 10  9  1  0
 10 11  1  6
 12 11  1  0
 12 13  1  0
 14 13  1  0
 15 14  1  0
 16 10  1  0
 17 16  2  0
 18 16  1  0
 19 18  1  0
 19 20  1  1
 20 21  1  0
 21 22  1  0
 22 23  1  0
 23 24  1  0
 25 19  1  0
 26 25  1  0
 27 25  2  0
M  END
$$$$
