LKK.pdb
     RDKit          3D

 27 26  0  0  1  0  0  0  0  0999 V2000
    7.4195  -11.1148   25.4775 C   0  0  0  0  0  0  0  0  0  0  0  0
    6.4880  -12.2674   25.6191 C   0  0  2  0  0  0  0  0  0  0  0  0
    5.9734  -12.2594   27.0671 C   0  0  0  0  0  0  0  0  0  0  0  0
    7.0543  -13.6142   25.3838 C   0  0  0  0  0  0  0  0  0  0  0  0
    7.8710  -13.8074   24.1509 C   0  0  2  0  0  0  0  0  0  0  0  0
    7.2255  -13.5670   22.9108 N   0  0  0  0  0  0  0  0  0  0  0  0
    8.5826  -15.1062   24.1207 C   0  0  0  0  0  0  0  0  0  0  0  0
    8.7016  -15.8168   25.1546 O   0  0  0  0  0  0  0  0  0  0  0  0
    9.1373  -15.5573   22.9175 N   0  0  0  0  0  0  0  0  0  0  0  0
    9.7991  -16.8423   22.7436 C   0  0  1  0  0  0  0  0  0  0  0  0
   10.0786  -17.0834   21.2835 C   0  0  0  0  0  0  0  0  0  0  0  0
   10.6962  -18.4056   21.0051 C   0  0  0  0  0  0  0  0  0  0  0  0
   10.9863  -18.5731   19.5108 C   0  0  0  0  0  0  0  0  0  0  0  0
   11.6749  -19.9060   19.3244 C   0  0  0  0  0  0  0  0  0  0  0  0
   12.1777  -20.0515   17.9721 N   0  0  0  0  0  0  0  0  0  0  0  0
   11.0062  -16.8767   23.5769 C   0  0  0  0  0  0  0  0  0  0  0  0
   11.8565  -15.9529   23.6226 O   0  0  0  0  0  0  0  0  0  0  0  0
   11.3156  -18.0035   24.4287 N   0  0  0  0  0  0  0  0  0  0  0  0
   12.5239  -18.0817   25.2202 C   0  0  1  0  0  0  0  0  0  0  0  0
   12.4061  -19.1373   26.3011 C   0  0  0  0  0  0  0  0  0  0  0  0
   11.9902  -18.5826   27.6268 C   0  0  0  0  0  0  0  0  0  0  0  0
   11.9451  -19.6147   28.7289 C   0  0  0  0  0  0  0  0  0  0  0  0
   11.4960  -18.9764   30.0346 C   0  0  0  0  0  0  0  0  0  0  0  0
   11.6115  -19.9661   31.0865 N   0  0  0  0  0  0  0  0  0  0  0  0
   13.6236  -18.5317   24.3286 C   0  0  0  0  0  0  0  0  0  0  0  0
   14.9317  -18.1805   24.6264 O   0  0  0  0  0  0  0  0  0  0  0  0
   13.4180  -19.2283   23.2993 O   0  0  0  0  0  0  0  0  0  0  0  0
  2  1  1  1
  3  2  1  0
  4  5  1  0
  4  2  1  0
  5  6  1  6
  7  5  1  0
  7  8  2  0
  9  7  1  0
 10  9  1  0
 10 11  1  6
 12 11  1  0
 12 13  1  0
 14 13  1  0
 15 14  1  0
 16 10  1  0
 17 16  2  0
 18 16  1  0
 19 18  1  0
 19 20  1  1
 20 21  1  0
 21 22  1  0
 22 23  1  0
 23 24  1  0
 25 19  1  0
 26 25  1  0
 27 25  2  0
M  END
$$$$
