LKK.pdb
     RDKit          3D

 27 26  0  0  1  0  0  0  0  0999 V2000
    9.1383  -12.0404   19.0134 C   0  0  0  0  0  0  0  0  0  0  0  0
    8.0676  -13.0293   18.7103 C   0  0  2  0  0  0  0  0  0  0  0  0
    6.7230  -12.2982   18.8470 C   0  0  0  0  0  0  0  0  0  0  0  0
    7.9895  -14.2169   19.5899 C   0  0  0  0  0  0  0  0  0  0  0  0
    9.2418  -15.0008   19.7942 C   0  0  2  0  0  0  0  0  0  0  0  0
    9.7552  -15.6929   18.6674 N   0  0  0  0  0  0  0  0  0  0  0  0
    9.1815  -15.8994   20.9702 C   0  0  0  0  0  0  0  0  0  0  0  0
    8.6517  -15.5331   22.0533 O   0  0  0  0  0  0  0  0  0  0  0  0
    9.7252  -17.1859   20.8797 N   0  0  0  0  0  0  0  0  0  0  0  0
    9.7296  -18.1588   21.9627 C   0  0  1  0  0  0  0  0  0  0  0  0
   10.1350  -19.5110   21.4378 C   0  0  0  0  0  0  0  0  0  0  0  0
   10.1820  -20.5665   22.4823 C   0  0  0  0  0  0  0  0  0  0  0  0
   10.5148  -21.9304   21.8708 C   0  0  0  0  0  0  0  0  0  0  0  0
   10.5852  -22.9337   22.9996 C   0  0  0  0  0  0  0  0  0  0  0  0
   11.7297  -22.6823   23.8536 N   0  0  0  0  0  0  0  0  0  0  0  0
   10.5982  -17.6727   23.0407 C   0  0  0  0  0  0  0  0  0  0  0  0
   11.8078  -17.3697   22.8872 O   0  0  0  0  0  0  0  0  0  0  0  0
   10.1160  -17.5016   24.3931 N   0  0  0  0  0  0  0  0  0  0  0  0
   10.9373  -16.9703   25.4588 C   0  0  1  0  0  0  0  0  0  0  0  0
   10.1010  -16.2214   26.4767 C   0  0  0  0  0  0  0  0  0  0  0  0
   10.9005  -15.6938   27.6259 C   0  0  0  0  0  0  0  0  0  0  0  0
   10.0719  -14.9638   28.6567 C   0  0  0  0  0  0  0  0  0  0  0  0
   10.9644  -14.4029   29.7535 C   0  0  0  0  0  0  0  0  0  0  0  0
   10.1214  -13.7510   30.7351 N   0  0  0  0  0  0  0  0  0  0  0  0
   11.5355  -18.1183   26.1876 C   0  0  0  0  0  0  0  0  0  0  0  0
   12.8000  -17.9911   26.7427 O   0  0  0  0  0  0  0  0  0  0  0  0
   10.9368  -19.2180   26.3259 O   0  0  0  0  0  0  0  0  0  0  0  0
  2  1  1  1
  3  2  1  0
  4  5  1  0
  4  2  1  0
  5  6  1  6
  7  5  1  0
  7  8  2  0
  9  7  1  0
 10  9  1  0
 10 11  1  6
 12 11  1  0
 12 13  1  0
 14 13  1  0
 15 14  1  0
 16 10  1  0
 17 16  2  0
 18 16  1  0
 19 18  1  0
 19 20  1  1
 20 21  1  0
 21 22  1  0
 22 23  1  0
 23 24  1  0
 25 19  1  0
 26 25  1  0
 27 25  2  0
M  END
$$$$
