LKK.pdb
     RDKit          3D

 27 26  0  0  1  0  0  0  0  0999 V2000
    7.8796  -12.4718   27.2806 C   0  0  0  0  0  0  0  0  0  0  0  0
    7.0445  -13.2143   26.2971 C   0  0  2  0  0  0  0  0  0  0  0  0
    5.7710  -12.3858   26.0664 C   0  0  0  0  0  0  0  0  0  0  0  0
    6.5968  -14.5686   26.6917 C   0  0  0  0  0  0  0  0  0  0  0  0
    6.0852  -15.4618   25.6124 C   0  0  2  0  0  0  0  0  0  0  0  0
    5.4881  -16.6821   26.0204 N   0  0  0  0  0  0  0  0  0  0  0  0
    7.0757  -15.7040   24.5379 C   0  0  0  0  0  0  0  0  0  0  0  0
    7.9717  -16.5825   24.6532 O   0  0  0  0  0  0  0  0  0  0  0  0
    7.0180  -14.9406   23.3663 N   0  0  0  0  0  0  0  0  0  0  0  0
    7.9189  -15.0969   22.2334 C   0  0  1  0  0  0  0  0  0  0  0  0
    7.6523  -14.0225   21.2122 C   0  0  0  0  0  0  0  0  0  0  0  0
    8.4964  -14.1344   19.9948 C   0  0  0  0  0  0  0  0  0  0  0  0
    7.7951  -13.5180   18.7811 C   0  0  0  0  0  0  0  0  0  0  0  0
    8.7162  -13.6726   17.5923 C   0  0  0  0  0  0  0  0  0  0  0  0
    8.0894  -13.1894   16.3772 N   0  0  0  0  0  0  0  0  0  0  0  0
    9.3034  -15.1026   22.7189 C   0  0  0  0  0  0  0  0  0  0  0  0
    9.7814  -14.2362   23.4931 O   0  0  0  0  0  0  0  0  0  0  0  0
   10.2447  -16.1305   22.3337 N   0  0  0  0  0  0  0  0  0  0  0  0
   11.5392  -16.2853   22.9605 C   0  0  1  0  0  0  0  0  0  0  0  0
   11.6205  -17.5811   23.7421 C   0  0  0  0  0  0  0  0  0  0  0  0
   12.9833  -17.8530   24.2963 C   0  0  0  0  0  0  0  0  0  0  0  0
   13.0903  -19.1733   25.0225 C   0  0  0  0  0  0  0  0  0  0  0  0
   14.3480  -19.2074   25.8775 C   0  0  0  0  0  0  0  0  0  0  0  0
   14.3141  -20.4090   26.6864 N   0  0  0  0  0  0  0  0  0  0  0  0
   12.5562  -16.3943   21.8832 C   0  0  0  0  0  0  0  0  0  0  0  0
   12.1503  -16.6678   20.5856 O   0  0  0  0  0  0  0  0  0  0  0  0
   13.7886  -16.2473   22.0987 O   0  0  0  0  0  0  0  0  0  0  0  0
  2  1  1  1
  3  2  1  0
  4  5  1  0
  4  2  1  0
  5  6  1  1
  7  5  1  0
  7  8  2  0
  9  7  1  0
 10  9  1  0
 10 11  1  6
 12 11  1  0
 12 13  1  0
 14 13  1  0
 15 14  1  0
 16 10  1  0
 17 16  2  0
 18 16  1  0
 19 18  1  0
 19 20  1  6
 20 21  1  0
 21 22  1  0
 22 23  1  0
 23 24  1  0
 25 19  1  0
 26 25  1  0
 27 25  2  0
M  END
$$$$
