LKK.pdb
     RDKit          3D

 27 26  0  0  1  0  0  0  0  0999 V2000
    6.9490  -10.5654   25.9003 C   0  0  0  0  0  0  0  0  0  0  0  0
    5.9261  -11.6323   25.7228 C   0  0  2  0  0  0  0  0  0  0  0  0
    5.1098  -11.6988   27.0231 C   0  0  0  0  0  0  0  0  0  0  0  0
    6.4285  -13.0019   25.4738 C   0  0  0  0  0  0  0  0  0  0  0  0
    7.5868  -13.1477   24.5455 C   0  0  2  0  0  0  0  0  0  0  0  0
    7.4780  -12.5140   23.2811 N   0  0  0  0  0  0  0  0  0  0  0  0
    8.0314  -14.5514   24.3845 C   0  0  0  0  0  0  0  0  0  0  0  0
    7.8405  -15.4109   25.2860 O   0  0  0  0  0  0  0  0  0  0  0  0
    8.6793  -14.9352   23.2047 N   0  0  0  0  0  0  0  0  0  0  0  0
    9.1181  -16.2910   22.9069 C   0  0  1  0  0  0  0  0  0  0  0  0
    9.3752  -16.4357   21.4300 C   0  0  0  0  0  0  0  0  0  0  0  0
    9.7255  -17.8196   21.0185 C   0  0  0  0  0  0  0  0  0  0  0  0
    9.8607  -17.9229   19.4967 C   0  0  0  0  0  0  0  0  0  0  0  0
   10.0863  -19.3782   19.1546 C   0  0  0  0  0  0  0  0  0  0  0  0
   10.0475  -19.5916   17.7208 N   0  0  0  0  0  0  0  0  0  0  0  0
   10.2896  -16.6080   23.7316 C   0  0  0  0  0  0  0  0  0  0  0  0
   11.3644  -15.9579   23.7068 O   0  0  0  0  0  0  0  0  0  0  0  0
   10.2953  -17.7191   24.6570 N   0  0  0  0  0  0  0  0  0  0  0  0
   11.4329  -18.0416   25.4903 C   0  0  1  0  0  0  0  0  0  0  0  0
   11.0339  -18.9436   26.6409 C   0  0  0  0  0  0  0  0  0  0  0  0
   12.1716  -19.2765   27.5534 C   0  0  0  0  0  0  0  0  0  0  0  0
   11.7724  -20.1307   28.7337 C   0  0  0  0  0  0  0  0  0  0  0  0
   12.9875  -20.4516   29.5907 C   0  0  0  0  0  0  0  0  0  0  0  0
   12.5375  -21.1742   30.7632 N   0  0  0  0  0  0  0  0  0  0  0  0
   12.3901  -18.8270   24.6694 C   0  0  0  0  0  0  0  0  0  0  0  0
   13.7478  -18.5590   24.7598 O   0  0  0  0  0  0  0  0  0  0  0  0
   12.0182  -19.7386   23.8836 O   0  0  0  0  0  0  0  0  0  0  0  0
  2  1  1  1
  3  2  1  0
  4  5  1  0
  4  2  1  0
  5  6  1  6
  7  5  1  0
  7  8  2  0
  9  7  1  0
 10  9  1  0
 10 11  1  6
 12 11  1  0
 12 13  1  0
 14 13  1  0
 15 14  1  0
 16 10  1  0
 17 16  2  0
 18 16  1  0
 19 18  1  0
 19 20  1  1
 20 21  1  0
 21 22  1  0
 22 23  1  0
 23 24  1  0
 25 19  1  0
 26 25  1  0
 27 25  2  0
M  END
$$$$
