LKK.pdb
     RDKit          3D

 27 26  0  0  1  0  0  0  0  0999 V2000
    8.6274  -12.7690   27.1301 C   0  0  0  0  0  0  0  0  0  0  0  0
    7.4521  -13.3565   26.4303 C   0  0  2  0  0  0  0  0  0  0  0  0
    6.2405  -12.4689   26.7551 C   0  0  0  0  0  0  0  0  0  0  0  0
    7.0733  -14.7363   26.8081 C   0  0  0  0  0  0  0  0  0  0  0  0
    6.3430  -15.5480   25.7921 C   0  0  2  0  0  0  0  0  0  0  0  0
    5.6428  -16.6873   26.2655 N   0  0  0  0  0  0  0  0  0  0  0  0
    7.1771  -15.9030   24.6206 C   0  0  0  0  0  0  0  0  0  0  0  0
    7.8740  -16.9527   24.6013 O   0  0  0  0  0  0  0  0  0  0  0  0
    7.1942  -15.0545   23.5077 N   0  0  0  0  0  0  0  0  0  0  0  0
    8.0358  -15.2465   22.3355 C   0  0  1  0  0  0  0  0  0  0  0  0
    7.7172  -14.2033   21.2969 C   0  0  0  0  0  0  0  0  0  0  0  0
    8.4541  -14.3884   20.0203 C   0  0  0  0  0  0  0  0  0  0  0  0
    8.0186  -13.3532   18.9793 C   0  0  0  0  0  0  0  0  0  0  0  0
    8.7392  -13.6702   17.6886 C   0  0  0  0  0  0  0  0  0  0  0  0
    8.5477  -12.6181   16.7093 N   0  0  0  0  0  0  0  0  0  0  0  0
    9.4435  -15.2394   22.7494 C   0  0  0  0  0  0  0  0  0  0  0  0
    9.9396  -14.4008   23.5424 O   0  0  0  0  0  0  0  0  0  0  0  0
   10.3883  -16.2206   22.2641 N   0  0  0  0  0  0  0  0  0  0  0  0
   11.6729  -16.4501   22.8882 C   0  0  1  0  0  0  0  0  0  0  0  0
   11.7764  -17.8611   23.4313 C   0  0  0  0  0  0  0  0  0  0  0  0
   13.1319  -18.1883   23.9731 C   0  0  0  0  0  0  0  0  0  0  0  0
   13.2476  -19.5965   24.5078 C   0  0  0  0  0  0  0  0  0  0  0  0
   14.6158  -19.8140   25.1360 C   0  0  0  0  0  0  0  0  0  0  0  0
   14.6866  -21.1828   25.6059 N   0  0  0  0  0  0  0  0  0  0  0  0
   12.7159  -16.3406   21.8361 C   0  0  0  0  0  0  0  0  0  0  0  0
   12.3882  -16.6188   20.5175 O   0  0  0  0  0  0  0  0  0  0  0  0
   13.9019  -16.0013   22.0917 O   0  0  0  0  0  0  0  0  0  0  0  0
  2  1  1  1
  3  2  1  0
  4  5  1  0
  4  2  1  0
  5  6  1  1
  7  5  1  0
  7  8  2  0
  9  7  1  0
 10  9  1  0
 10 11  1  6
 12 11  1  0
 12 13  1  0
 14 13  1  0
 15 14  1  0
 16 10  1  0
 17 16  2  0
 18 16  1  0
 19 18  1  0
 19 20  1  6
 20 21  1  0
 21 22  1  0
 22 23  1  0
 23 24  1  0
 25 19  1  0
 26 25  1  0
 27 25  2  0
M  END
$$$$
