LKK.pdb
     RDKit          3D

 27 26  0  0  1  0  0  0  0  0999 V2000
    8.7374  -12.2779   18.3638 C   0  0  0  0  0  0  0  0  0  0  0  0
    7.7116  -13.3327   18.5904 C   0  0  2  0  0  0  0  0  0  0  0  0
    6.4359  -12.6276   19.0771 C   0  0  0  0  0  0  0  0  0  0  0  0
    8.0304  -14.3655   19.6012 C   0  0  0  0  0  0  0  0  0  0  0  0
    9.3676  -15.0200   19.5128 C   0  0  2  0  0  0  0  0  0  0  0  0
    9.6469  -15.7486   18.3282 N   0  0  0  0  0  0  0  0  0  0  0  0
    9.7011  -15.8283   20.7084 C   0  0  0  0  0  0  0  0  0  0  0  0
    9.3636  -15.4629   21.8663 O   0  0  0  0  0  0  0  0  0  0  0  0
   10.4078  -17.0262   20.5519 N   0  0  0  0  0  0  0  0  0  0  0  0
   10.6602  -17.9819   21.6207 C   0  0  1  0  0  0  0  0  0  0  0  0
   11.3675  -19.1929   21.0715 C   0  0  0  0  0  0  0  0  0  0  0  0
   11.6653  -20.2257   22.0971 C   0  0  0  0  0  0  0  0  0  0  0  0
   10.5142  -21.2284   22.2177 C   0  0  0  0  0  0  0  0  0  0  0  0
   10.9424  -22.3024   23.1918 C   0  0  0  0  0  0  0  0  0  0  0  0
    9.9557  -23.3621   23.2706 N   0  0  0  0  0  0  0  0  0  0  0  0
   11.4049  -17.3148   22.6947 C   0  0  0  0  0  0  0  0  0  0  0  0
   12.4970  -16.7167   22.5274 O   0  0  0  0  0  0  0  0  0  0  0  0
   10.9264  -17.2951   24.0590 N   0  0  0  0  0  0  0  0  0  0  0  0
   11.5727  -16.5364   25.1074 C   0  0  1  0  0  0  0  0  0  0  0  0
   10.5910  -16.1587   26.1984 C   0  0  0  0  0  0  0  0  0  0  0  0
   11.2332  -15.4638   27.3572 C   0  0  0  0  0  0  0  0  0  0  0  0
   10.2666  -15.1071   28.4619 C   0  0  0  0  0  0  0  0  0  0  0  0
   10.9873  -14.3663   29.5780 C   0  0  0  0  0  0  0  0  0  0  0  0
   10.0117  -14.0056   30.5867 N   0  0  0  0  0  0  0  0  0  0  0  0
   12.5798  -17.4178   25.7522 C   0  0  0  0  0  0  0  0  0  0  0  0
   12.3725  -18.7889   25.7757 O   0  0  0  0  0  0  0  0  0  0  0  0
   13.6287  -16.9691   26.2863 O   0  0  0  0  0  0  0  0  0  0  0  0
  2  1  1  1
  3  2  1  0
  4  5  1  0
  4  2  1  0
  5  6  1  6
  7  5  1  0
  7  8  2  0
  9  7  1  0
 10  9  1  0
 10 11  1  6
 12 11  1  0
 12 13  1  0
 14 13  1  0
 15 14  1  0
 16 10  1  0
 17 16  2  0
 18 16  1  0
 19 18  1  0
 19 20  1  1
 20 21  1  0
 21 22  1  0
 22 23  1  0
 23 24  1  0
 25 19  1  0
 26 25  1  0
 27 25  2  0
M  END
$$$$
