LKK.pdb
     RDKit          3D

 27 26  0  0  1  0  0  0  0  0999 V2000
    5.7367  -11.9052   26.7832 C   0  0  0  0  0  0  0  0  0  0  0  0
    6.6528  -12.8853   27.4284 C   0  0  2  0  0  0  0  0  0  0  0  0
    7.7699  -12.0807   28.1111 C   0  0  0  0  0  0  0  0  0  0  0  0
    7.3227  -13.8578   26.5365 C   0  0  0  0  0  0  0  0  0  0  0  0
    6.4518  -14.7841   25.7567 C   0  0  2  0  0  0  0  0  0  0  0  0
    5.7690  -15.7893   26.4885 N   0  0  0  0  0  0  0  0  0  0  0  0
    7.1331  -15.3727   24.5804 C   0  0  0  0  0  0  0  0  0  0  0  0
    7.5935  -16.5455   24.6039 O   0  0  0  0  0  0  0  0  0  0  0  0
    7.2706  -14.6109   23.4144 N   0  0  0  0  0  0  0  0  0  0  0  0
    8.0020  -15.0380   22.2303 C   0  0  1  0  0  0  0  0  0  0  0  0
    7.8049  -14.0428   21.1172 C   0  0  0  0  0  0  0  0  0  0  0  0
    8.3883  -14.4746   19.8210 C   0  0  0  0  0  0  0  0  0  0  0  0
    8.0162  -13.5009   18.6992 C   0  0  0  0  0  0  0  0  0  0  0  0
    8.5180  -14.0868   17.3989 C   0  0  0  0  0  0  0  0  0  0  0  0
    8.3222  -13.1636   16.2980 N   0  0  0  0  0  0  0  0  0  0  0  0
    9.4119  -15.2385   22.5838 C   0  0  0  0  0  0  0  0  0  0  0  0
   10.0789  -14.4456   23.2944 O   0  0  0  0  0  0  0  0  0  0  0  0
   10.1576  -16.3913   22.1302 N   0  0  0  0  0  0  0  0  0  0  0  0
   11.4724  -16.7242   22.6332 C   0  0  1  0  0  0  0  0  0  0  0  0
   11.4969  -18.1173   23.2293 C   0  0  0  0  0  0  0  0  0  0  0  0
   12.8573  -18.5419   23.6844 C   0  0  0  0  0  0  0  0  0  0  0  0
   12.9005  -19.9470   24.2376 C   0  0  0  0  0  0  0  0  0  0  0  0
   14.2989  -20.2771   24.7370 C   0  0  0  0  0  0  0  0  0  0  0  0
   14.2971  -21.6429   25.2207 N   0  0  0  0  0  0  0  0  0  0  0  0
   12.4061  -16.7583   21.4783 C   0  0  0  0  0  0  0  0  0  0  0  0
   11.8971  -16.7697   20.1883 O   0  0  0  0  0  0  0  0  0  0  0  0
   13.6576  -16.7775   21.6203 O   0  0  0  0  0  0  0  0  0  0  0  0
  2  1  1  6
  3  2  1  0
  4  5  1  0
  4  2  1  0
  5  6  1  1
  7  5  1  0
  7  8  2  0
  9  7  1  0
 10  9  1  0
 10 11  1  6
 12 11  1  0
 12 13  1  0
 14 13  1  0
 15 14  1  0
 16 10  1  0
 17 16  2  0
 18 16  1  0
 19 18  1  0
 19 20  1  6
 20 21  1  0
 21 22  1  0
 22 23  1  0
 23 24  1  0
 25 19  1  0
 26 25  1  0
 27 25  2  0
M  END
$$$$
