LKK.pdb
     RDKit          3D

 27 26  0  0  1  0  0  0  0  0999 V2000
    7.1417  -10.7498   26.4352 C   0  0  0  0  0  0  0  0  0  0  0  0
    6.0843  -11.7556   26.1415 C   0  0  2  0  0  0  0  0  0  0  0  0
    5.2771  -11.9556   27.4338 C   0  0  0  0  0  0  0  0  0  0  0  0
    6.5412  -13.0990   25.7214 C   0  0  0  0  0  0  0  0  0  0  0  0
    7.5910  -13.1652   24.6641 C   0  0  2  0  0  0  0  0  0  0  0  0
    7.4413  -12.2908   23.5572 N   0  0  0  0  0  0  0  0  0  0  0  0
    7.8648  -14.5451   24.2003 C   0  0  0  0  0  0  0  0  0  0  0  0
    7.6679  -15.5422   24.9453 O   0  0  0  0  0  0  0  0  0  0  0  0
    8.3541  -14.7495   22.9050 N   0  0  0  0  0  0  0  0  0  0  0  0
    8.6364  -16.0548   22.3252 C   0  0  1  0  0  0  0  0  0  0  0  0
    8.7185  -15.9445   20.8254 C   0  0  0  0  0  0  0  0  0  0  0  0
    9.0634  -17.2228   20.1516 C   0  0  0  0  0  0  0  0  0  0  0  0
    8.0197  -17.5840   19.0909 C   0  0  0  0  0  0  0  0  0  0  0  0
    8.4680  -18.8648   18.4244 C   0  0  0  0  0  0  0  0  0  0  0  0
    7.5079  -19.3019   17.4296 N   0  0  0  0  0  0  0  0  0  0  0  0
    9.8574  -16.5956   22.9330 C   0  0  0  0  0  0  0  0  0  0  0  0
   10.9651  -16.0026   22.9346 O   0  0  0  0  0  0  0  0  0  0  0  0
    9.8784  -17.8827   23.5917 N   0  0  0  0  0  0  0  0  0  0  0  0
   11.0991  -18.5155   24.0412 C   0  0  1  0  0  0  0  0  0  0  0  0
   10.8457  -19.9388   24.4959 C   0  0  0  0  0  0  0  0  0  0  0  0
   12.0759  -20.6275   24.9965 C   0  0  0  0  0  0  0  0  0  0  0  0
   11.8104  -21.9962   25.5780 C   0  0  0  0  0  0  0  0  0  0  0  0
   13.1075  -22.6275   26.0607 C   0  0  0  0  0  0  0  0  0  0  0  0
   12.7953  -23.9179   26.6412 N   0  0  0  0  0  0  0  0  0  0  0  0
   12.0149  -18.6165   22.8759 C   0  0  0  0  0  0  0  0  0  0  0  0
   11.5386  -19.1191   21.6742 O   0  0  0  0  0  0  0  0  0  0  0  0
   13.2221  -18.2610   22.9313 O   0  0  0  0  0  0  0  0  0  0  0  0
  2  1  1  1
  3  2  1  0
  4  5  1  0
  4  2  1  0
  5  6  1  6
  7  5  1  0
  7  8  2  0
  9  7  1  0
 10  9  1  0
 10 11  1  6
 12 11  1  0
 12 13  1  0
 14 13  1  0
 15 14  1  0
 16 10  1  0
 17 16  2  0
 18 16  1  0
 19 18  1  0
 19 20  1  6
 20 21  1  0
 21 22  1  0
 22 23  1  0
 23 24  1  0
 25 19  1  0
 26 25  1  0
 27 25  2  0
M  END
$$$$
