LKK.pdb
     RDKit          3D

 27 26  0  0  1  0  0  0  0  0999 V2000
    5.4713  -11.9608   26.8089 C   0  0  0  0  0  0  0  0  0  0  0  0
    6.4740  -12.9085   27.3680 C   0  0  2  0  0  0  0  0  0  0  0  0
    7.5636  -12.0661   28.0496 C   0  0  0  0  0  0  0  0  0  0  0  0
    7.1686  -13.7892   26.4026 C   0  0  0  0  0  0  0  0  0  0  0  0
    6.3296  -14.7392   25.6164 C   0  0  2  0  0  0  0  0  0  0  0  0
    5.6321  -15.7343   26.3482 N   0  0  0  0  0  0  0  0  0  0  0  0
    7.0516  -15.3470   24.4747 C   0  0  0  0  0  0  0  0  0  0  0  0
    7.4978  -16.5243   24.5285 O   0  0  0  0  0  0  0  0  0  0  0  0
    7.2449  -14.5987   23.3079 N   0  0  0  0  0  0  0  0  0  0  0  0
    8.0074  -15.0514   22.1532 C   0  0  1  0  0  0  0  0  0  0  0  0
    7.8935  -14.0477   21.0361 C   0  0  0  0  0  0  0  0  0  0  0  0
    8.5977  -14.4563   19.7934 C   0  0  0  0  0  0  0  0  0  0  0  0
    8.2583  -13.5148   18.6344 C   0  0  0  0  0  0  0  0  0  0  0  0
    8.9051  -14.0723   17.3867 C   0  0  0  0  0  0  0  0  0  0  0  0
    8.7369  -13.1723   16.2623 N   0  0  0  0  0  0  0  0  0  0  0  0
    9.3930  -15.3057   22.5632 C   0  0  0  0  0  0  0  0  0  0  0  0
   10.1269  -14.4569   23.1283 O   0  0  0  0  0  0  0  0  0  0  0  0
   10.0336  -16.5831   22.3423 N   0  0  0  0  0  0  0  0  0  0  0  0
   11.3904  -16.8639   22.7581 C   0  0  1  0  0  0  0  0  0  0  0  0
   11.4908  -18.2188   23.4294 C   0  0  0  0  0  0  0  0  0  0  0  0
   11.7574  -18.1324   24.8990 C   0  0  0  0  0  0  0  0  0  0  0  0
   11.9414  -19.4772   25.5620 C   0  0  0  0  0  0  0  0  0  0  0  0
   11.9803  -19.3213   27.0747 C   0  0  0  0  0  0  0  0  0  0  0  0
   12.1254  -20.6376   27.6627 N   0  0  0  0  0  0  0  0  0  0  0  0
   12.2318  -16.9505   21.5368 C   0  0  0  0  0  0  0  0  0  0  0  0
   13.5393  -16.4898   21.5739 O   0  0  0  0  0  0  0  0  0  0  0  0
   11.8045  -17.4307   20.4534 O   0  0  0  0  0  0  0  0  0  0  0  0
  2  1  1  6
  3  2  1  0
  4  5  1  0
  4  2  1  0
  5  6  1  1
  7  5  1  0
  7  8  2  0
  9  7  1  0
 10  9  1  0
 10 11  1  6
 12 11  1  0
 12 13  1  0
 14 13  1  0
 15 14  1  0
 16 10  1  0
 17 16  2  0
 18 16  1  0
 19 18  1  0
 19 20  1  6
 20 21  1  0
 21 22  1  0
 22 23  1  0
 23 24  1  0
 25 19  1  0
 26 25  1  0
 27 25  2  0
M  END
$$$$
