GVR.pdb
     RDKit          3D

 23 22  0  0  1  0  0  0  0  0999 V2000
   28.0928  -22.3293  -15.9492 N   0  0  0  0  0  0  0  0  0  0  0  0
   27.7452  -21.1349  -15.2162 C   0  0  0  0  0  0  0  0  0  0  0  0
   26.6722  -21.4965  -14.2257 C   0  0  0  0  0  0  0  0  0  0  0  0
   25.8947  -22.4557  -14.4371 O   0  0  0  0  0  0  0  0  0  0  0  0
   27.1124  -21.5403  -10.2074 C   0  0  0  0  0  0  0  0  0  0  0  0
   25.8607  -20.8742  -10.6544 C   0  0  2  0  0  0  0  0  0  0  0  0
   24.7215  -21.2873   -9.7483 C   0  0  0  0  0  0  0  0  0  0  0  0
   25.4808  -21.0418  -12.0764 C   0  0  2  0  0  0  0  0  0  0  0  0
   26.5116  -20.7531  -13.0163 N   0  0  0  0  0  0  0  0  0  0  0  0
   24.1369  -20.5314  -12.4241 C   0  0  0  0  0  0  0  0  0  0  0  0
   23.9968  -19.2940  -12.5355 O   0  0  0  0  0  0  0  0  0  0  0  0
   16.8901  -24.0509  -16.2301 N   0  0  0  0  0  0  0  0  0  0  0  0
   17.8350  -23.2045  -16.8827 C   0  0  0  0  0  0  0  0  0  0  0  0
   17.9412  -23.2423  -18.1708 N   0  0  0  0  0  0  0  0  0  0  0  0
   18.6790  -22.3106  -16.1857 N   0  0  0  0  0  0  0  0  0  0  0  0
   18.5978  -22.2090  -14.7674 C   0  0  0  0  0  0  0  0  0  0  0  0
   19.5517  -21.2104  -14.1713 C   0  0  0  0  0  0  0  0  0  0  0  0
   20.8801  -21.8004  -13.7790 C   0  0  0  0  0  0  0  0  0  0  0  0
   21.7295  -20.8267  -13.0083 C   0  0  2  0  0  0  0  0  0  0  0  0
   23.0179  -21.3700  -12.6292 N   0  0  0  0  0  0  0  0  0  0  0  0
   20.9407  -20.4107  -11.7958 C   0  0  0  0  0  0  0  0  0  0  0  0
   20.0090  -19.3947  -11.8533 O   0  0  0  0  0  0  0  0  0  0  0  0
   21.1334  -20.9994  -10.7063 O   0  0  0  0  0  0  0  0  0  0  0  0
  2  3  1  0
  2  1  1  0
  3  9  1  0
  4  3  2  0
  6  5  1  1
  6  7  1  0
  6  8  1  0
  8 10  1  0
  8  9  1  6
 10 11  2  0
 10 20  1  0
 13 12  1  0
 14 13  2  0
 15 13  1  0
 16 15  1  0
 17 16  1  0
 19 18  1  1
 18 17  1  0
 19 21  1  0
 20 19  1  0
 21 23  2  0
 21 22  1  0
M  END
$$$$
