GVR.pdb
     RDKit          3D

 23 22  0  0  1  0  0  0  0  0999 V2000
   29.8714  -23.1158  -17.5627 N   0  0  0  0  0  0  0  0  0  0  0  0
   28.8216  -22.2254  -17.9982 C   0  0  0  0  0  0  0  0  0  0  0  0
   28.4624  -21.3338  -16.8408 C   0  0  0  0  0  0  0  0  0  0  0  0
   28.9482  -21.5261  -15.7023 O   0  0  0  0  0  0  0  0  0  0  0  0
   28.2620  -17.2133  -16.6973 C   0  0  0  0  0  0  0  0  0  0  0  0
   27.0331  -17.9526  -16.3056 C   0  0  2  0  0  0  0  0  0  0  0  0
   26.3232  -17.1972  -15.2034 C   0  0  0  0  0  0  0  0  0  0  0  0
   27.1949  -19.3785  -15.9377 C   0  0  2  0  0  0  0  0  0  0  0  0
   27.5552  -20.2433  -17.0108 N   0  0  0  0  0  0  0  0  0  0  0  0
   26.1659  -19.9014  -15.0128 C   0  0  0  0  0  0  0  0  0  0  0  0
   25.0367  -20.1563  -15.4849 O   0  0  0  0  0  0  0  0  0  0  0  0
   22.0363  -20.3526   -9.1583 N   0  0  0  0  0  0  0  0  0  0  0  0
   22.6790  -21.1038   -8.1298 C   0  0  0  0  0  0  0  0  0  0  0  0
   21.9618  -21.7542   -7.2729 N   0  0  0  0  0  0  0  0  0  0  0  0
   24.0836  -21.1768   -7.9921 N   0  0  0  0  0  0  0  0  0  0  0  0
   24.9288  -20.4830   -8.9048 C   0  0  0  0  0  0  0  0  0  0  0  0
   24.6975  -20.8447  -10.3463 C   0  0  0  0  0  0  0  0  0  0  0  0
   25.5894  -20.1049  -11.3075 C   0  0  0  0  0  0  0  0  0  0  0  0
   25.3224  -20.4848  -12.7386 C   0  0  2  0  0  0  0  0  0  0  0  0
   26.3992  -20.1189  -13.6359 N   0  0  0  0  0  0  0  0  0  0  0  0
   24.0334  -19.8204  -13.1423 C   0  0  0  0  0  0  0  0  0  0  0  0
   22.8579  -20.5335  -13.2572 O   0  0  0  0  0  0  0  0  0  0  0  0
   24.0254  -18.5901  -13.3810 O   0  0  0  0  0  0  0  0  0  0  0  0
  2  3  1  0
  2  1  1  0
  3  9  1  0
  4  3  2  0
  6  5  1  1
  6  7  1  0
  6  8  1  0
  8 10  1  0
  8  9  1  6
 10 11  2  0
 10 20  1  0
 13 12  1  0
 14 13  2  0
 15 13  1  0
 16 15  1  0
 17 16  1  0
 19 18  1  1
 18 17  1  0
 19 21  1  0
 20 19  1  0
 21 23  2  0
 21 22  1  0
M  END
$$$$
