GVR.pdb
     RDKit          3D

 23 22  0  0  1  0  0  0  0  0999 V2000
   29.5455  -23.6007  -16.3819 N   0  0  0  0  0  0  0  0  0  0  0  0
   28.8371  -22.6820  -17.2414 C   0  0  0  0  0  0  0  0  0  0  0  0
   28.1947  -21.6367  -16.3707 C   0  0  0  0  0  0  0  0  0  0  0  0
   28.1255  -21.7841  -15.1287 O   0  0  0  0  0  0  0  0  0  0  0  0
   25.9273  -17.6648  -17.5924 C   0  0  0  0  0  0  0  0  0  0  0  0
   27.0179  -18.0902  -16.6760 C   0  0  2  0  0  0  0  0  0  0  0  0
   28.3556  -17.8275  -17.3324 C   0  0  0  0  0  0  0  0  0  0  0  0
   26.9571  -19.4762  -16.1564 C   0  0  2  0  0  0  0  0  0  0  0  0
   27.6453  -20.4469  -16.9396 N   0  0  0  0  0  0  0  0  0  0  0  0
   25.6324  -19.8896  -15.6447 C   0  0  0  0  0  0  0  0  0  0  0  0
   24.9180  -20.5971  -16.3877 O   0  0  0  0  0  0  0  0  0  0  0  0
   21.6298  -20.8317   -7.6339 N   0  0  0  0  0  0  0  0  0  0  0  0
   20.8400  -21.4791   -8.6300 C   0  0  0  0  0  0  0  0  0  0  0  0
   19.7596  -22.0988   -8.2831 N   0  0  0  0  0  0  0  0  0  0  0  0
   21.1806  -21.4820  -10.0016 N   0  0  0  0  0  0  0  0  0  0  0  0
   22.3824  -20.8570  -10.4415 C   0  0  0  0  0  0  0  0  0  0  0  0
   22.5191  -20.7816  -11.9375 C   0  0  0  0  0  0  0  0  0  0  0  0
   23.8084  -20.1550  -12.3977 C   0  0  0  0  0  0  0  0  0  0  0  0
   23.8595  -19.9913  -13.8924 C   0  0  2  0  0  0  0  0  0  0  0  0
   25.1436  -19.5212  -14.3707 N   0  0  0  0  0  0  0  0  0  0  0  0
   22.7589  -19.0378  -14.2735 C   0  0  0  0  0  0  0  0  0  0  0  0
   21.4649  -19.4715  -14.4760 O   0  0  0  0  0  0  0  0  0  0  0  0
   23.0219  -17.8203  -14.4116 O   0  0  0  0  0  0  0  0  0  0  0  0
  2  3  1  0
  2  1  1  0
  3  9  1  0
  4  3  2  0
  6  5  1  6
  6  7  1  0
  6  8  1  0
  8 10  1  0
  8  9  1  6
 10 11  2  0
 10 20  1  0
 13 12  1  0
 14 13  2  0
 15 13  1  0
 16 15  1  0
 17 16  1  0
 19 18  1  1
 18 17  1  0
 19 21  1  0
 20 19  1  0
 21 23  2  0
 21 22  1  0
M  END
$$$$
