GVR.pdb
     RDKit          3D

 23 22  0  0  1  0  0  0  0  0999 V2000
   26.5665  -20.9225  -14.4288 N   0  0  0  0  0  0  0  0  0  0  0  0
   25.5354  -21.9326  -14.4640 C   0  0  0  0  0  0  0  0  0  0  0  0
   24.2881  -21.3406  -13.8663 C   0  0  0  0  0  0  0  0  0  0  0  0
   24.3525  -20.4362  -13.0020 O   0  0  0  0  0  0  0  0  0  0  0  0
   20.2964  -20.8116  -15.6825 C   0  0  0  0  0  0  0  0  0  0  0  0
   21.0779  -20.2893  -14.5307 C   0  0  2  0  0  0  0  0  0  0  0  0
   22.0291  -19.2169  -15.0151 C   0  0  0  0  0  0  0  0  0  0  0  0
   21.7953  -21.2833  -13.6990 C   0  0  2  0  0  0  0  0  0  0  0  0
   22.9956  -21.7965  -14.2694 N   0  0  0  0  0  0  0  0  0  0  0  0
   20.9267  -22.2788  -13.0341 C   0  0  0  0  0  0  0  0  0  0  0  0
   20.8479  -23.4158  -13.5480 O   0  0  0  0  0  0  0  0  0  0  0  0
   17.0261  -24.5393   -6.3517 N   0  0  0  0  0  0  0  0  0  0  0  0
   17.7278  -25.7318   -6.6993 C   0  0  0  0  0  0  0  0  0  0  0  0
   17.2928  -26.8734   -6.2758 N   0  0  0  0  0  0  0  0  0  0  0  0
   18.8956  -25.7345   -7.4951 N   0  0  0  0  0  0  0  0  0  0  0  0
   19.3609  -24.5252   -8.0866 C   0  0  0  0  0  0  0  0  0  0  0  0
   18.4590  -23.9856   -9.1626 C   0  0  0  0  0  0  0  0  0  0  0  0
   18.9932  -22.7509   -9.8384 C   0  0  0  0  0  0  0  0  0  0  0  0
   19.2776  -22.9793  -11.2981 C   0  0  2  0  0  0  0  0  0  0  0  0
   20.1883  -22.0033  -11.8609 N   0  0  0  0  0  0  0  0  0  0  0  0
   17.9553  -22.9620  -12.0170 C   0  0  0  0  0  0  0  0  0  0  0  0
   17.6531  -21.9925  -12.9511 O   0  0  0  0  0  0  0  0  0  0  0  0
   17.1063  -23.8480  -11.7623 O   0  0  0  0  0  0  0  0  0  0  0  0
  2  3  1  0
  2  1  1  0
  3  9  1  0
  4  3  2  0
  6  5  1  6
  6  7  1  0
  6  8  1  0
  8 10  1  0
  8  9  1  6
 10 11  2  0
 10 20  1  0
 13 12  1  0
 14 13  2  0
 15 13  1  0
 16 15  1  0
 17 16  1  0
 19 18  1  1
 18 17  1  0
 19 21  1  0
 20 19  1  0
 21 23  2  0
 21 22  1  0
M  END
$$$$
