GVR.pdb
     RDKit          3D

 23 22  0  0  1  0  0  0  0  0999 V2000
   25.2271  -20.4417  -19.6549 N   0  0  0  0  0  0  0  0  0  0  0  0
   23.8385  -20.3362  -20.0360 C   0  0  0  0  0  0  0  0  0  0  0  0
   23.0934  -19.6986  -18.8950 C   0  0  0  0  0  0  0  0  0  0  0  0
   23.6320  -18.8203  -18.1825 O   0  0  0  0  0  0  0  0  0  0  0  0
   18.8167  -18.3927  -16.8594 C   0  0  0  0  0  0  0  0  0  0  0  0
   19.6326  -19.0414  -17.9195 C   0  0  2  0  0  0  0  0  0  0  0  0
   18.8578  -20.1985  -18.5112 C   0  0  0  0  0  0  0  0  0  0  0  0
   21.0014  -19.4685  -17.5474 C   0  0  2  0  0  0  0  0  0  0  0  0
   21.7501  -20.0802  -18.5937 N   0  0  0  0  0  0  0  0  0  0  0  0
   21.1112  -20.1137  -16.2210 C   0  0  0  0  0  0  0  0  0  0  0  0
   20.8053  -21.3229  -16.1366 O   0  0  0  0  0  0  0  0  0  0  0  0
   26.8324  -21.1686  -10.1373 N   0  0  0  0  0  0  0  0  0  0  0  0
   25.6684  -21.0033   -9.3292 C   0  0  0  0  0  0  0  0  0  0  0  0
   25.7872  -20.9582   -8.0425 N   0  0  0  0  0  0  0  0  0  0  0  0
   24.3671  -20.8854   -9.8676 N   0  0  0  0  0  0  0  0  0  0  0  0
   24.1705  -20.2636  -11.1338 C   0  0  0  0  0  0  0  0  0  0  0  0
   22.7249  -20.0993  -11.5153 C   0  0  0  0  0  0  0  0  0  0  0  0
   22.5193  -19.3413  -12.7997 C   0  0  0  0  0  0  0  0  0  0  0  0
   21.7142  -20.1253  -13.8002 C   0  0  2  0  0  0  0  0  0  0  0  0
   21.5375  -19.4308  -15.0593 N   0  0  0  0  0  0  0  0  0  0  0  0
   20.3863  -20.4313  -13.1610 C   0  0  0  0  0  0  0  0  0  0  0  0
   20.1607  -21.6193  -12.4966 O   0  0  0  0  0  0  0  0  0  0  0  0
   19.4614  -19.5886  -13.2332 O   0  0  0  0  0  0  0  0  0  0  0  0
  2  3  1  0
  2  1  1  0
  3  9  1  0
  4  3  2  0
  6  5  1  1
  6  7  1  0
  6  8  1  0
  8 10  1  0
  8  9  1  6
 10 11  2  0
 10 20  1  0
 13 12  1  0
 14 13  2  0
 15 13  1  0
 16 15  1  0
 17 16  1  0
 19 18  1  1
 18 17  1  0
 19 21  1  0
 20 19  1  0
 21 23  2  0
 21 22  1  0
M  END
$$$$
