GVR.pdb
     RDKit          3D

 23 22  0  0  1  0  0  0  0  0999 V2000
   27.4144  -21.4196  -11.5463 N   0  0  0  0  0  0  0  0  0  0  0  0
   27.5878  -21.1053  -12.9448 C   0  0  0  0  0  0  0  0  0  0  0  0
   26.6915  -19.9419  -13.2714 C   0  0  0  0  0  0  0  0  0  0  0  0
   25.8288  -19.5424  -12.4558 O   0  0  0  0  0  0  0  0  0  0  0  0
   25.9104  -15.7022  -15.4861 C   0  0  0  0  0  0  0  0  0  0  0  0
   26.6932  -16.9601  -15.3630 C   0  0  2  0  0  0  0  0  0  0  0  0
   27.3683  -17.2619  -16.6831 C   0  0  0  0  0  0  0  0  0  0  0  0
   25.9729  -18.1540  -14.8627 C   0  0  2  0  0  0  0  0  0  0  0  0
   26.8009  -19.2623  -14.5232 N   0  0  0  0  0  0  0  0  0  0  0  0
   24.7326  -18.4837  -15.5977 C   0  0  0  0  0  0  0  0  0  0  0  0
   24.8475  -19.0611  -16.7007 O   0  0  0  0  0  0  0  0  0  0  0  0
   18.0877  -22.1690  -12.1771 N   0  0  0  0  0  0  0  0  0  0  0  0
   18.0882  -21.9263  -13.5829 C   0  0  0  0  0  0  0  0  0  0  0  0
   17.0565  -22.2598  -14.2874 N   0  0  0  0  0  0  0  0  0  0  0  0
   19.1756  -21.3315  -14.2618 N   0  0  0  0  0  0  0  0  0  0  0  0
   20.3204  -20.8956  -13.5351 C   0  0  0  0  0  0  0  0  0  0  0  0
   21.4271  -20.3616  -14.4024 C   0  0  0  0  0  0  0  0  0  0  0  0
   21.1258  -19.0178  -15.0107 C   0  0  0  0  0  0  0  0  0  0  0  0
   22.2531  -18.5178  -15.8725 C   0  0  2  0  0  0  0  0  0  0  0  0
   23.4402  -18.1751  -15.1160 N   0  0  0  0  0  0  0  0  0  0  0  0
   21.7361  -17.3276  -16.6352 C   0  0  0  0  0  0  0  0  0  0  0  0
   22.2764  -16.0696  -16.4645 O   0  0  0  0  0  0  0  0  0  0  0  0
   20.7917  -17.4801  -17.4448 O   0  0  0  0  0  0  0  0  0  0  0  0
  2  3  1  0
  2  1  1  0
  3  9  1  0
  4  3  2  0
  6  5  1  6
  6  7  1  0
  6  8  1  0
  8 10  1  0
  8  9  1  6
 10 11  2  0
 10 20  1  0
 13 12  1  0
 14 13  2  0
 15 13  1  0
 16 15  1  0
 17 16  1  0
 19 18  1  1
 18 17  1  0
 19 21  1  0
 20 19  1  0
 21 23  2  0
 21 22  1  0
M  END
$$$$
