GVR.pdb
     RDKit          3D

 23 22  0  0  1  0  0  0  0  0999 V2000
   26.1213  -32.5099   -8.2640 N   0  0  0  0  0  0  0  0  0  0  0  0
   25.0262  -33.2841   -8.7986 C   0  0  0  0  0  0  0  0  0  0  0  0
   24.2478  -32.3989   -9.7335 C   0  0  0  0  0  0  0  0  0  0  0  0
   24.3806  -31.1537   -9.7044 O   0  0  0  0  0  0  0  0  0  0  0  0
   21.7410  -31.9165  -13.9694 C   0  0  0  0  0  0  0  0  0  0  0  0
   22.3837  -32.7666  -12.9328 C   0  0  2  0  0  0  0  0  0  0  0  0
   21.6109  -34.0601  -12.7951 C   0  0  0  0  0  0  0  0  0  0  0  0
   22.6091  -32.1517  -11.6040 C   0  0  2  0  0  0  0  0  0  0  0  0
   23.3344  -32.9571  -10.6796 N   0  0  0  0  0  0  0  0  0  0  0  0
   21.4431  -31.4318  -11.0476 C   0  0  0  0  0  0  0  0  0  0  0  0
   20.7031  -32.0518  -10.2531 O   0  0  0  0  0  0  0  0  0  0  0  0
   18.6862  -22.8958  -10.0672 N   0  0  0  0  0  0  0  0  0  0  0  0
   17.6510  -23.7615   -9.6044 C   0  0  0  0  0  0  0  0  0  0  0  0
   16.5716  -23.2540   -9.1053 N   0  0  0  0  0  0  0  0  0  0  0  0
   17.7424  -25.1707   -9.6609 N   0  0  0  0  0  0  0  0  0  0  0  0
   18.9248  -25.7914  -10.1562 C   0  0  0  0  0  0  0  0  0  0  0  0
   18.8707  -27.2945  -10.1566 C   0  0  0  0  0  0  0  0  0  0  0  0
   20.0861  -27.9447  -10.7621 C   0  0  0  0  0  0  0  0  0  0  0  0
   19.9537  -29.4417  -10.8348 C   0  0  2  0  0  0  0  0  0  0  0  0
   21.1306  -30.0925  -11.3734 N   0  0  0  0  0  0  0  0  0  0  0  0
   18.7396  -29.7409  -11.6727 C   0  0  0  0  0  0  0  0  0  0  0  0
   17.4981  -29.9348  -11.1030 O   0  0  0  0  0  0  0  0  0  0  0  0
   18.8568  -29.8169  -12.9182 O   0  0  0  0  0  0  0  0  0  0  0  0
  2  3  1  0
  2  1  1  0
  3  9  1  0
  4  3  2  0
  6  5  1  6
  6  7  1  0
  6  8  1  0
  8 10  1  0
  8  9  1  1
 10 11  2  0
 10 20  1  0
 13 12  1  0
 14 13  2  0
 15 13  1  0
 16 15  1  0
 17 16  1  0
 19 18  1  6
 18 17  1  0
 19 21  1  0
 20 19  1  0
 21 23  2  0
 21 22  1  0
M  END
$$$$
