GFH.pdb
     RDKit          3D

 26 27  0  0  1  0  0  0  0  0999 V2000
    9.1888  -17.2802   19.8615 N   0  0  0  0  0  0  0  0  0  0  0  0
    8.4302  -17.5527   21.0413 C   0  0  0  0  0  0  0  0  0  0  0  0
    8.6980  -16.5361   22.1181 C   0  0  0  0  0  0  0  0  0  0  0  0
    9.7086  -15.7943   22.0347 O   0  0  0  0  0  0  0  0  0  0  0  0
    7.8389  -16.3836   23.2383 N   0  0  0  0  0  0  0  0  0  0  0  0
    8.0853  -15.5153   24.3620 C   0  0  1  0  0  0  0  0  0  0  0  0
    6.7872  -15.0318   24.9585 C   0  0  0  0  0  0  0  0  0  0  0  0
    6.9558  -13.9992   25.9823 C   0  0  0  0  0  0  0  0  0  0  0  0
    7.3246  -14.2821   27.2853 C   0  0  0  0  0  0  0  0  0  0  0  0
    7.4732  -13.2667   28.2262 C   0  0  0  0  0  0  0  0  0  0  0  0
    7.2523  -11.9517   27.8675 C   0  0  0  0  0  0  0  0  0  0  0  0
    6.8816  -11.6488   26.5645 C   0  0  0  0  0  0  0  0  0  0  0  0
    6.7419  -12.6856   25.6498 C   0  0  0  0  0  0  0  0  0  0  0  0
    8.9915  -16.1009   25.3626 C   0  0  0  0  0  0  0  0  0  0  0  0
    8.7552  -17.2308   25.8308 O   0  0  0  0  0  0  0  0  0  0  0  0
   10.1769  -15.4459   25.8636 N   0  0  0  0  0  0  0  0  0  0  0  0
   11.1041  -16.1540   26.7241 C   0  0  1  0  0  0  0  0  0  0  0  0
   12.5291  -15.9212   26.3983 C   0  0  0  0  0  0  0  0  0  0  0  0
   12.9572  -16.1871   25.0207 C   0  0  0  0  0  0  0  0  0  0  0  0
   12.5122  -17.0440   24.0419 C   0  0  0  0  0  0  0  0  0  0  0  0
   13.2620  -16.8419   22.9501 N   0  0  0  0  0  0  0  0  0  0  0  0
   14.1507  -15.8877   23.2313 C   0  0  0  0  0  0  0  0  0  0  0  0
   13.9977  -15.4598   24.4889 N   0  0  0  0  0  0  0  0  0  0  0  0
   10.7678  -15.9041   28.1402 C   0  0  0  0  0  0  0  0  0  0  0  0
   11.4662  -16.5490   29.1396 O   0  0  0  0  0  0  0  0  0  0  0  0
    9.8547  -15.1129   28.4561 O   0  0  0  0  0  0  0  0  0  0  0  0
  2  1  1  0
  3  2  1  0
  3  4  2  0
  5  3  1  0
  6  5  1  0
  6  7  1  1
  8  7  1  0
  8 13  1  0
  9  8  2  0
 10  9  1  0
 10 11  2  0
 11 12  1  0
 12 13  2  0
 14  6  1  0
 14 16  1  0
 15 14  2  0
 17 16  1  0
 17 24  1  0
 17 18  1  1
 19 18  1  0
 19 23  1  0
 20 21  1  0
 20 19  2  0
 21 22  1  0
 22 23  2  0
 24 26  2  0
 24 25  1  0
M  END
$$$$
