GFH.pdb
     RDKit          3D

 26 27  0  0  1  0  0  0  0  0999 V2000
    7.7218  -18.5616   20.0304 N   0  0  0  0  0  0  0  0  0  0  0  0
    7.0831  -18.5865   21.3083 C   0  0  0  0  0  0  0  0  0  0  0  0
    7.6120  -17.5057   22.2121 C   0  0  0  0  0  0  0  0  0  0  0  0
    8.6602  -16.8893   21.8961 O   0  0  0  0  0  0  0  0  0  0  0  0
    6.9607  -17.1534   23.4237 N   0  0  0  0  0  0  0  0  0  0  0  0
    7.4245  -16.1580   24.3571 C   0  0  1  0  0  0  0  0  0  0  0  0
    6.2681  -15.5578   25.1168 C   0  0  0  0  0  0  0  0  0  0  0  0
    6.6325  -14.3916   25.9231 C   0  0  0  0  0  0  0  0  0  0  0  0
    6.9553  -14.4739   27.2657 C   0  0  0  0  0  0  0  0  0  0  0  0
    7.2961  -13.3370   27.9935 C   0  0  0  0  0  0  0  0  0  0  0  0
    7.3164  -12.1007   27.3785 C   0  0  0  0  0  0  0  0  0  0  0  0
    6.9953  -11.9989   26.0319 C   0  0  0  0  0  0  0  0  0  0  0  0
    6.6597  -13.1528   25.3342 C   0  0  0  0  0  0  0  0  0  0  0  0
    8.4984  -16.6422   25.2389 C   0  0  0  0  0  0  0  0  0  0  0  0
    8.3340  -17.6799   25.9081 O   0  0  0  0  0  0  0  0  0  0  0  0
    9.7752  -15.9860   25.3960 N   0  0  0  0  0  0  0  0  0  0  0  0
   10.8519  -16.6299   26.1223 C   0  0  1  0  0  0  0  0  0  0  0  0
   12.2010  -16.3362   25.5887 C   0  0  0  0  0  0  0  0  0  0  0  0
   12.4633  -16.6890   24.1893 C   0  0  0  0  0  0  0  0  0  0  0  0
   11.8287  -17.5098   23.2870 C   0  0  0  0  0  0  0  0  0  0  0  0
   12.4922  -17.4305   22.1257 N   0  0  0  0  0  0  0  0  0  0  0  0
   13.5117  -16.5863   22.2902 C   0  0  0  0  0  0  0  0  0  0  0  0
   13.5297  -16.1099   23.5395 N   0  0  0  0  0  0  0  0  0  0  0  0
   10.7123  -16.3657   27.5685 C   0  0  0  0  0  0  0  0  0  0  0  0
   11.5926  -16.9383   28.4629 O   0  0  0  0  0  0  0  0  0  0  0  0
    9.8046  -15.6269   28.0043 O   0  0  0  0  0  0  0  0  0  0  0  0
  2  1  1  0
  3  2  1  0
  3  4  2  0
  5  3  1  0
  6  5  1  0
  6  7  1  1
  8  7  1  0
  8 13  1  0
  9  8  2  0
 10  9  1  0
 10 11  2  0
 11 12  1  0
 12 13  2  0
 14  6  1  0
 14 16  1  0
 15 14  2  0
 17 16  1  0
 17 24  1  0
 17 18  1  6
 19 18  1  0
 19 23  1  0
 20 21  1  0
 20 19  2  0
 21 22  1  0
 22 23  2  0
 24 26  2  0
 24 25  1  0
M  END
$$$$
