GFH.pdb
     RDKit          3D

 26 27  0  0  1  0  0  0  0  0999 V2000
    6.0729  -19.3451   20.8299 N   0  0  0  0  0  0  0  0  0  0  0  0
    6.0421  -19.2593   22.2559 C   0  0  0  0  0  0  0  0  0  0  0  0
    6.5958  -17.9474   22.7431 C   0  0  0  0  0  0  0  0  0  0  0  0
    7.2443  -17.2155   21.9542 O   0  0  0  0  0  0  0  0  0  0  0  0
    6.4091  -17.5022   24.0783 N   0  0  0  0  0  0  0  0  0  0  0  0
    7.0961  -16.3911   24.6872 C   0  0  1  0  0  0  0  0  0  0  0  0
    6.2932  -15.8299   25.8340 C   0  0  0  0  0  0  0  0  0  0  0  0
    6.7524  -14.5168   26.2899 C   0  0  0  0  0  0  0  0  0  0  0  0
    6.3850  -13.3337   25.6743 C   0  0  0  0  0  0  0  0  0  0  0  0
    6.8465  -12.1066   26.1430 C   0  0  0  0  0  0  0  0  0  0  0  0
    7.6851  -12.0543   27.2389 C   0  0  0  0  0  0  0  0  0  0  0  0
    8.0645  -13.2313   27.8694 C   0  0  0  0  0  0  0  0  0  0  0  0
    7.5862  -14.4394   27.3766 C   0  0  0  0  0  0  0  0  0  0  0  0
    8.4862  -16.6990   25.0589 C   0  0  0  0  0  0  0  0  0  0  0  0
    8.7450  -17.7387   25.6943 O   0  0  0  0  0  0  0  0  0  0  0  0
    9.6163  -15.8609   24.7337 N   0  0  0  0  0  0  0  0  0  0  0  0
   10.9708  -16.3386   24.9303 C   0  0  1  0  0  0  0  0  0  0  0  0
   11.9516  -15.7875   23.9683 C   0  0  0  0  0  0  0  0  0  0  0  0
   11.7540  -16.1034   22.5496 C   0  0  0  0  0  0  0  0  0  0  0  0
   10.9685  -17.0158   21.8854 C   0  0  0  0  0  0  0  0  0  0  0  0
   11.1634  -16.8426   20.5712 N   0  0  0  0  0  0  0  0  0  0  0  0
   12.0428  -15.8524   20.4119 C   0  0  0  0  0  0  0  0  0  0  0  0
   12.4291  -15.3724   21.5987 N   0  0  0  0  0  0  0  0  0  0  0  0
   11.3635  -16.1709   26.3440 C   0  0  0  0  0  0  0  0  0  0  0  0
   10.4982  -15.5698   27.2341 O   0  0  0  0  0  0  0  0  0  0  0  0
   12.4744  -16.5659   26.7557 O   0  0  0  0  0  0  0  0  0  0  0  0
  2  1  1  0
  3  2  1  0
  3  4  2  0
  5  3  1  0
  6  5  1  0
  6  7  1  1
  8  7  1  0
  8 13  1  0
  9  8  2  0
 10  9  1  0
 10 11  2  0
 11 12  1  0
 12 13  2  0
 14  6  1  0
 14 16  1  0
 15 14  2  0
 17 16  1  0
 17 24  1  0
 17 18  1  6
 19 18  1  0
 19 23  1  0
 20 21  1  0
 20 19  2  0
 21 22  1  0
 22 23  2  0
 24 26  2  0
 24 25  1  0
M  END
$$$$
