GFH.pdb
     RDKit          3D

 26 27  0  0  1  0  0  0  0  0999 V2000
   10.3927  -16.6451   19.1039 N   0  0  0  0  0  0  0  0  0  0  0  0
    9.1218  -16.3494   19.6859 C   0  0  0  0  0  0  0  0  0  0  0  0
    9.2689  -15.7146   21.0424 C   0  0  0  0  0  0  0  0  0  0  0  0
   10.3651  -15.7961   21.6509 O   0  0  0  0  0  0  0  0  0  0  0  0
    8.2003  -15.0185   21.6665 N   0  0  0  0  0  0  0  0  0  0  0  0
    8.1362  -14.6764   23.0651 C   0  0  1  0  0  0  0  0  0  0  0  0
    6.9858  -13.7388   23.3338 C   0  0  0  0  0  0  0  0  0  0  0  0
    6.9792  -13.1847   24.6887 C   0  0  0  0  0  0  0  0  0  0  0  0
    7.8129  -12.1549   25.0865 C   0  0  0  0  0  0  0  0  0  0  0  0
    7.7719  -11.6591   26.3868 C   0  0  0  0  0  0  0  0  0  0  0  0
    6.8901  -12.1941   27.3050 C   0  0  0  0  0  0  0  0  0  0  0  0
    6.0459  -13.2280   26.9238 C   0  0  0  0  0  0  0  0  0  0  0  0
    6.1119  -13.6998   25.6184 C   0  0  0  0  0  0  0  0  0  0  0  0
    8.1365  -15.8503   23.9523 C   0  0  0  0  0  0  0  0  0  0  0  0
    7.6234  -16.9193   23.5705 O   0  0  0  0  0  0  0  0  0  0  0  0
    8.7052  -15.8624   25.2796 N   0  0  0  0  0  0  0  0  0  0  0  0
    9.7733  -16.7827   25.6169 C   0  0  1  0  0  0  0  0  0  0  0  0
   10.8825  -16.8064   24.6369 C   0  0  0  0  0  0  0  0  0  0  0  0
   11.0199  -18.0061   23.8042 C   0  0  0  0  0  0  0  0  0  0  0  0
   10.1159  -18.8186   23.1614 C   0  0  0  0  0  0  0  0  0  0  0  0
   10.8070  -19.7642   22.5108 N   0  0  0  0  0  0  0  0  0  0  0  0
   12.1049  -19.5543   22.7355 C   0  0  0  0  0  0  0  0  0  0  0  0
   12.2784  -18.4873   23.5227 N   0  0  0  0  0  0  0  0  0  0  0  0
   10.2122  -16.5563   27.0087 C   0  0  0  0  0  0  0  0  0  0  0  0
   10.4412  -15.2733   27.4601 O   0  0  0  0  0  0  0  0  0  0  0  0
   10.3825  -17.5118   27.7945 O   0  0  0  0  0  0  0  0  0  0  0  0
  2  1  1  0
  3  2  1  0
  3  4  2  0
  5  3  1  0
  6  5  1  0
  6  7  1  6
  8  7  1  0
  8 13  1  0
  9  8  2  0
 10  9  1  0
 10 11  2  0
 11 12  1  0
 12 13  2  0
 14  6  1  0
 14 16  1  0
 15 14  2  0
 17 16  1  0
 17 24  1  0
 17 18  1  6
 19 18  1  0
 19 23  1  0
 20 21  1  0
 20 19  2  0
 21 22  1  0
 22 23  2  0
 24 26  2  0
 24 25  1  0
M  END
$$$$
