GFH.pdb
     RDKit          3D

 26 27  0  0  1  0  0  0  0  0999 V2000
   10.3545  -15.8063   28.9845 N   0  0  0  0  0  0  0  0  0  0  0  0
   10.8250  -15.3670   27.7089 C   0  0  0  0  0  0  0  0  0  0  0  0
    9.8396  -15.6842   26.6167 C   0  0  0  0  0  0  0  0  0  0  0  0
    9.1531  -16.7343   26.6850 O   0  0  0  0  0  0  0  0  0  0  0  0
    9.6559  -14.8289   25.4983 N   0  0  0  0  0  0  0  0  0  0  0  0
    8.7882  -15.0989   24.3797 C   0  0  1  0  0  0  0  0  0  0  0  0
    8.0804  -13.8428   23.9369 C   0  0  0  0  0  0  0  0  0  0  0  0
    7.4659  -13.0930   25.0338 C   0  0  0  0  0  0  0  0  0  0  0  0
    6.2993  -13.4931   25.6604 C   0  0  0  0  0  0  0  0  0  0  0  0
    5.7506  -12.7477   26.7005 C   0  0  0  0  0  0  0  0  0  0  0  0
    6.3698  -11.5884   27.1240 C   0  0  0  0  0  0  0  0  0  0  0  0
    7.5413  -11.1714   26.5070 C   0  0  0  0  0  0  0  0  0  0  0  0
    8.0627  -11.9381   25.4720 C   0  0  0  0  0  0  0  0  0  0  0  0
    9.4640  -15.7948   23.2733 C   0  0  0  0  0  0  0  0  0  0  0  0
   10.4248  -15.2549   22.6926 O   0  0  0  0  0  0  0  0  0  0  0  0
    9.0884  -17.1024   22.7889 N   0  0  0  0  0  0  0  0  0  0  0  0
    9.9096  -17.7927   21.8139 C   0  0  1  0  0  0  0  0  0  0  0  0
   11.3444  -17.8600   22.1716 C   0  0  0  0  0  0  0  0  0  0  0  0
   11.6943  -18.5283   23.4296 C   0  0  0  0  0  0  0  0  0  0  0  0
   10.9545  -19.1609   24.4008 C   0  0  0  0  0  0  0  0  0  0  0  0
   11.8057  -19.6223   25.3270 N   0  0  0  0  0  0  0  0  0  0  0  0
   13.0423  -19.2919   24.9514 C   0  0  0  0  0  0  0  0  0  0  0  0
   13.0181  -18.6213   23.7948 N   0  0  0  0  0  0  0  0  0  0  0  0
    9.3133  -19.1048   21.4921 C   0  0  0  0  0  0  0  0  0  0  0  0
    9.8688  -19.8919   20.5050 O   0  0  0  0  0  0  0  0  0  0  0  0
    8.3058  -19.5219   22.1009 O   0  0  0  0  0  0  0  0  0  0  0  0
  2  1  1  0
  3  2  1  0
  3  4  2  0
  5  3  1  0
  6  5  1  0
  6  7  1  6
  8  7  1  0
  8 13  1  0
  9  8  2  0
 10  9  1  0
 10 11  2  0
 11 12  1  0
 12 13  2  0
 14  6  1  0
 14 16  1  0
 15 14  2  0
 17 16  1  0
 17 24  1  0
 17 18  1  1
 19 18  1  0
 19 23  1  0
 20 21  1  0
 20 19  2  0
 21 22  1  0
 22 23  2  0
 24 26  2  0
 24 25  1  0
M  END
$$$$
