GFH.pdb
     RDKit          3D

 26 27  0  0  1  0  0  0  0  0999 V2000
    9.8509  -16.8506   19.0134 N   0  0  0  0  0  0  0  0  0  0  0  0
    8.7158  -16.7791   19.8783 C   0  0  0  0  0  0  0  0  0  0  0  0
    8.9962  -15.9317   21.0899 C   0  0  0  0  0  0  0  0  0  0  0  0
   10.1806  -15.6170   21.3674 O   0  0  0  0  0  0  0  0  0  0  0  0
    7.9577  -15.4695   21.9407 N   0  0  0  0  0  0  0  0  0  0  0  0
    8.1531  -14.8079   23.2062 C   0  0  1  0  0  0  0  0  0  0  0  0
    6.9415  -13.9882   23.5734 C   0  0  0  0  0  0  0  0  0  0  0  0
    7.0746  -13.2735   24.8440 C   0  0  0  0  0  0  0  0  0  0  0  0
    7.8649  -12.1485   24.9974 C   0  0  0  0  0  0  0  0  0  0  0  0
    7.9615  -11.5006   26.2259 C   0  0  0  0  0  0  0  0  0  0  0  0
    7.2629  -11.9773   27.3175 C   0  0  0  0  0  0  0  0  0  0  0  0
    6.4649  -13.1050   27.1824 C   0  0  0  0  0  0  0  0  0  0  0  0
    6.3903  -13.7281   25.9426 C   0  0  0  0  0  0  0  0  0  0  0  0
    8.5736  -15.7203   24.2813 C   0  0  0  0  0  0  0  0  0  0  0  0
    7.8531  -16.6868   24.5949 O   0  0  0  0  0  0  0  0  0  0  0  0
    9.8006  -15.5793   25.0297 N   0  0  0  0  0  0  0  0  0  0  0  0
   10.1811  -16.5699   26.0173 C   0  0  1  0  0  0  0  0  0  0  0  0
   11.5323  -17.1388   25.8130 C   0  0  0  0  0  0  0  0  0  0  0  0
   11.7280  -18.0080   24.6477 C   0  0  0  0  0  0  0  0  0  0  0  0
   10.8829  -18.4898   23.6760 C   0  0  0  0  0  0  0  0  0  0  0  0
   11.6138  -19.2242   22.8265 N   0  0  0  0  0  0  0  0  0  0  0  0
   12.8789  -19.2054   23.2485 C   0  0  0  0  0  0  0  0  0  0  0  0
   12.9918  -18.4717   24.3607 N   0  0  0  0  0  0  0  0  0  0  0  0
    9.9578  -16.0374   27.3765 C   0  0  0  0  0  0  0  0  0  0  0  0
   10.1051  -16.8609   28.4732 O   0  0  0  0  0  0  0  0  0  0  0  0
    9.6349  -14.8446   27.5566 O   0  0  0  0  0  0  0  0  0  0  0  0
  2  1  1  0
  3  2  1  0
  3  4  2  0
  5  3  1  0
  6  5  1  0
  6  7  1  1
  8  7  1  0
  8 13  1  0
  9  8  2  0
 10  9  1  0
 10 11  2  0
 11 12  1  0
 12 13  2  0
 14  6  1  0
 14 16  1  0
 15 14  2  0
 17 16  1  0
 17 24  1  0
 17 18  1  1
 19 18  1  0
 19 23  1  0
 20 21  1  0
 20 19  2  0
 21 22  1  0
 22 23  2  0
 24 26  2  0
 24 25  1  0
M  END
$$$$
