GFH.pdb
     RDKit          3D

 26 27  0  0  1  0  0  0  0  0999 V2000
    4.7225  -19.0428   21.3014 N   0  0  0  0  0  0  0  0  0  0  0  0
    5.3925  -19.1882   22.5550 C   0  0  0  0  0  0  0  0  0  0  0  0
    6.1263  -17.9317   22.9389 C   0  0  0  0  0  0  0  0  0  0  0  0
    6.7326  -17.2724   22.0578 O   0  0  0  0  0  0  0  0  0  0  0  0
    6.1583  -17.4590   24.2774 N   0  0  0  0  0  0  0  0  0  0  0  0
    6.9419  -16.3439   24.7461 C   0  0  1  0  0  0  0  0  0  0  0  0
    6.4020  -15.8239   26.0550 C   0  0  0  0  0  0  0  0  0  0  0  0
    6.9241  -14.5082   26.4284 C   0  0  0  0  0  0  0  0  0  0  0  0
    8.0537  -14.3387   27.2088 C   0  0  0  0  0  0  0  0  0  0  0  0
    8.5141  -13.0670   27.5393 C   0  0  0  0  0  0  0  0  0  0  0  0
    7.8427  -11.9480   27.0881 C   0  0  0  0  0  0  0  0  0  0  0  0
    6.7072  -12.0987   26.3039 C   0  0  0  0  0  0  0  0  0  0  0  0
    6.2741  -13.3817   25.9921 C   0  0  0  0  0  0  0  0  0  0  0  0
    8.3853  -16.6259   24.7944 C   0  0  0  0  0  0  0  0  0  0  0  0
    8.7970  -17.6760   25.3228 O   0  0  0  0  0  0  0  0  0  0  0  0
    9.4002  -15.7497   24.2581 N   0  0  0  0  0  0  0  0  0  0  0  0
   10.7843  -16.1756   24.1933 C   0  0  1  0  0  0  0  0  0  0  0  0
   11.5437  -15.5927   23.0642 C   0  0  0  0  0  0  0  0  0  0  0  0
   10.9991  -15.7848   21.7159 C   0  0  0  0  0  0  0  0  0  0  0  0
   10.0143  -16.5946   21.2012 C   0  0  0  0  0  0  0  0  0  0  0  0
    9.9116  -16.3311   19.8916 N   0  0  0  0  0  0  0  0  0  0  0  0
   10.8024  -15.3851   19.5904 C   0  0  0  0  0  0  0  0  0  0  0  0
   11.4886  -15.0228   20.6794 N   0  0  0  0  0  0  0  0  0  0  0  0
   11.4312  -15.9868   25.5074 C   0  0  0  0  0  0  0  0  0  0  0  0
   12.7359  -16.3913   25.6989 O   0  0  0  0  0  0  0  0  0  0  0  0
   10.8159  -15.4631   26.4596 O   0  0  0  0  0  0  0  0  0  0  0  0
  2  1  1  0
  3  2  1  0
  3  4  2  0
  5  3  1  0
  6  5  1  0
  6  7  1  1
  8  7  1  0
  8 13  1  0
  9  8  2  0
 10  9  1  0
 10 11  2  0
 11 12  1  0
 12 13  2  0
 14  6  1  0
 14 16  1  0
 15 14  2  0
 17 16  1  0
 17 24  1  0
 17 18  1  6
 19 18  1  0
 19 23  1  0
 20 21  1  0
 20 19  2  0
 21 22  1  0
 22 23  2  0
 24 26  2  0
 24 25  1  0
M  END
$$$$
