GFH.pdb
     RDKit          3D

 26 27  0  0  1  0  0  0  0  0999 V2000
    9.9071  -16.8842   18.6354 N   0  0  0  0  0  0  0  0  0  0  0  0
    9.9152  -17.5104   19.9197 C   0  0  0  0  0  0  0  0  0  0  0  0
    9.8702  -16.4957   21.0301 C   0  0  0  0  0  0  0  0  0  0  0  0
   10.8836  -15.7932   21.2712 O   0  0  0  0  0  0  0  0  0  0  0  0
    8.7094  -16.3015   21.8244 N   0  0  0  0  0  0  0  0  0  0  0  0
    8.6014  -15.3783   22.9258 C   0  0  1  0  0  0  0  0  0  0  0  0
    7.1685  -14.9529   23.1281 C   0  0  0  0  0  0  0  0  0  0  0  0
    6.9971  -13.9234   24.1545 C   0  0  0  0  0  0  0  0  0  0  0  0
    6.2975  -14.1378   25.3285 C   0  0  0  0  0  0  0  0  0  0  0  0
    6.1600  -13.1283   26.2774 C   0  0  0  0  0  0  0  0  0  0  0  0
    6.7257  -11.8881   26.0567 C   0  0  0  0  0  0  0  0  0  0  0  0
    7.4314  -11.6546   24.8843 C   0  0  0  0  0  0  0  0  0  0  0  0
    7.5500  -12.6834   23.9578 C   0  0  0  0  0  0  0  0  0  0  0  0
    9.2320  -15.8694   24.1613 C   0  0  0  0  0  0  0  0  0  0  0  0
    9.1558  -17.0758   24.4620 O   0  0  0  0  0  0  0  0  0  0  0  0
    9.9592  -15.0332   25.0873 N   0  0  0  0  0  0  0  0  0  0  0  0
   10.4701  -15.5781   26.3297 C   0  0  1  0  0  0  0  0  0  0  0  0
   10.7092  -14.5641   27.3812 C   0  0  0  0  0  0  0  0  0  0  0  0
   10.8485  -15.0438   28.7603 C   0  0  0  0  0  0  0  0  0  0  0  0
   10.9022  -16.2969   29.3238 C   0  0  0  0  0  0  0  0  0  0  0  0
   11.0705  -16.1442   30.6442 N   0  0  0  0  0  0  0  0  0  0  0  0
   11.1220  -14.8371   30.9047 C   0  0  0  0  0  0  0  0  0  0  0  0
   10.9902  -14.1284   29.7784 N   0  0  0  0  0  0  0  0  0  0  0  0
    9.6244  -16.7058   26.7703 C   0  0  0  0  0  0  0  0  0  0  0  0
   10.2078  -17.8820   27.1928 O   0  0  0  0  0  0  0  0  0  0  0  0
    8.3788  -16.6166   26.7688 O   0  0  0  0  0  0  0  0  0  0  0  0
  2  1  1  0
  3  2  1  0
  3  4  2  0
  5  3  1  0
  6  5  1  0
  6  7  1  1
  8  7  1  0
  8 13  1  0
  9  8  2  0
 10  9  1  0
 10 11  2  0
 11 12  1  0
 12 13  2  0
 14  6  1  0
 14 16  1  0
 15 14  2  0
 17 16  1  0
 17 24  1  0
 17 18  1  1
 19 18  1  0
 19 23  1  0
 20 21  1  0
 20 19  2  0
 21 22  1  0
 22 23  2  0
 24 26  2  0
 24 25  1  0
M  END
$$$$
