GFH.pdb
     RDKit          3D

 26 27  0  0  1  0  0  0  0  0999 V2000
    7.4478  -13.8976   19.7843 N   0  0  0  0  0  0  0  0  0  0  0  0
    6.8046  -14.5074   20.9050 C   0  0  0  0  0  0  0  0  0  0  0  0
    7.7511  -14.6732   22.0631 C   0  0  0  0  0  0  0  0  0  0  0  0
    8.9894  -14.5793   21.8718 O   0  0  0  0  0  0  0  0  0  0  0  0
    7.2892  -14.9353   23.3799 N   0  0  0  0  0  0  0  0  0  0  0  0
    8.1233  -15.3120   24.4933 C   0  0  1  0  0  0  0  0  0  0  0  0
    7.4105  -15.0714   25.8005 C   0  0  0  0  0  0  0  0  0  0  0  0
    7.1555  -13.6579   26.0830 C   0  0  0  0  0  0  0  0  0  0  0  0
    5.8908  -13.0982   26.0495 C   0  0  0  0  0  0  0  0  0  0  0  0
    5.6955  -11.7477   26.3255 C   0  0  0  0  0  0  0  0  0  0  0  0
    6.7721  -10.9417   26.6391 C   0  0  0  0  0  0  0  0  0  0  0  0
    8.0485  -11.4858   26.6774 C   0  0  0  0  0  0  0  0  0  0  0  0
    8.2091  -12.8373   26.3969 C   0  0  0  0  0  0  0  0  0  0  0  0
    8.6651  -16.6754   24.3797 C   0  0  0  0  0  0  0  0  0  0  0  0
    8.2009  -17.4611   23.5318 O   0  0  0  0  0  0  0  0  0  0  0  0
    9.7316  -17.1945   25.2034 N   0  0  0  0  0  0  0  0  0  0  0  0
   10.9286  -17.7466   24.6002 C   0  0  1  0  0  0  0  0  0  0  0  0
   11.5555  -16.8676   23.5876 C   0  0  0  0  0  0  0  0  0  0  0  0
   11.2857  -17.1660   22.1770 C   0  0  0  0  0  0  0  0  0  0  0  0
   10.5192  -18.1146   21.5419 C   0  0  0  0  0  0  0  0  0  0  0  0
   10.6152  -17.9011   20.2227 N   0  0  0  0  0  0  0  0  0  0  0  0
   11.4158  -16.8513   20.0322 C   0  0  0  0  0  0  0  0  0  0  0  0
   11.8476  -16.3717   21.2034 N   0  0  0  0  0  0  0  0  0  0  0  0
   11.8591  -18.2013   25.6530 C   0  0  0  0  0  0  0  0  0  0  0  0
   12.9597  -18.9629   25.3194 O   0  0  0  0  0  0  0  0  0  0  0  0
   11.6692  -17.9081   26.8519 O   0  0  0  0  0  0  0  0  0  0  0  0
  2  1  1  0
  3  2  1  0
  3  4  2  0
  5  3  1  0
  6  5  1  0
  6  7  1  1
  8  7  1  0
  8 13  1  0
  9  8  2  0
 10  9  1  0
 10 11  2  0
 11 12  1  0
 12 13  2  0
 14  6  1  0
 14 16  1  0
 15 14  2  0
 17 16  1  0
 17 24  1  0
 17 18  1  1
 19 18  1  0
 19 23  1  0
 20 21  1  0
 20 19  2  0
 21 22  1  0
 22 23  2  0
 24 26  2  0
 24 25  1  0
M  END
$$$$
