GFH.pdb
     RDKit          3D

 26 27  0  0  1  0  0  0  0  0999 V2000
    4.4034  -18.5095   22.2587 N   0  0  0  0  0  0  0  0  0  0  0  0
    5.0353  -18.3755   23.5332 C   0  0  0  0  0  0  0  0  0  0  0  0
    6.0085  -17.2277   23.5502 C   0  0  0  0  0  0  0  0  0  0  0  0
    6.2005  -16.5605   22.5030 O   0  0  0  0  0  0  0  0  0  0  0  0
    6.7259  -16.8677   24.7214 N   0  0  0  0  0  0  0  0  0  0  0  0
    7.6171  -15.7408   24.8361 C   0  0  1  0  0  0  0  0  0  0  0  0
    7.6983  -15.2671   26.2658 C   0  0  0  0  0  0  0  0  0  0  0  0
    7.1588  -13.9223   26.4741 C   0  0  0  0  0  0  0  0  0  0  0  0
    5.8444  -13.6843   26.8339 C   0  0  0  0  0  0  0  0  0  0  0  0
    5.3747  -12.3871   27.0215 C   0  0  0  0  0  0  0  0  0  0  0  0
    6.2230  -11.3112   26.8492 C   0  0  0  0  0  0  0  0  0  0  0  0
    7.5453  -11.5309   26.4883 C   0  0  0  0  0  0  0  0  0  0  0  0
    7.9824  -12.8377   26.3089 C   0  0  0  0  0  0  0  0  0  0  0  0
    8.9395  -15.9809   24.2371 C   0  0  0  0  0  0  0  0  0  0  0  0
    9.9706  -15.6430   24.8489 O   0  0  0  0  0  0  0  0  0  0  0  0
    9.1448  -16.6001   22.9487 N   0  0  0  0  0  0  0  0  0  0  0  0
   10.2935  -16.2508   22.1363 C   0  0  1  0  0  0  0  0  0  0  0  0
   10.2208  -14.8996   21.5362 C   0  0  0  0  0  0  0  0  0  0  0  0
    9.1303  -14.6407   20.5900 C   0  0  0  0  0  0  0  0  0  0  0  0
    8.1479  -15.4310   20.0413 C   0  0  0  0  0  0  0  0  0  0  0  0
    7.3927  -14.6552   19.2522 N   0  0  0  0  0  0  0  0  0  0  0  0
    7.8826  -13.4155   19.3022 C   0  0  0  0  0  0  0  0  0  0  0  0
    8.9467  -13.3637   20.1103 N   0  0  0  0  0  0  0  0  0  0  0  0
   11.5384  -16.5022   22.8899 C   0  0  0  0  0  0  0  0  0  0  0  0
   11.4778  -16.9340   24.1984 O   0  0  0  0  0  0  0  0  0  0  0  0
   12.6572  -16.3304   22.3623 O   0  0  0  0  0  0  0  0  0  0  0  0
  2  1  1  0
  3  2  1  0
  3  4  2  0
  5  3  1  0
  6  5  1  0
  6  7  1  1
  8  7  1  0
  8 13  1  0
  9  8  2  0
 10  9  1  0
 10 11  2  0
 11 12  1  0
 12 13  2  0
 14  6  1  0
 14 16  1  0
 15 14  2  0
 17 16  1  0
 17 24  1  0
 17 18  1  1
 19 18  1  0
 19 23  1  0
 20 21  1  0
 20 19  2  0
 21 22  1  0
 22 23  2  0
 24 26  2  0
 24 25  1  0
M  END
$$$$
