GFH.pdb
     RDKit          3D

 26 27  0  0  1  0  0  0  0  0999 V2000
    7.1126  -15.0545   19.9889 N   0  0  0  0  0  0  0  0  0  0  0  0
    6.6609  -15.5426   21.2535 C   0  0  0  0  0  0  0  0  0  0  0  0
    7.5451  -15.0710   22.3763 C   0  0  0  0  0  0  0  0  0  0  0  0
    8.6222  -14.4803   22.1126 O   0  0  0  0  0  0  0  0  0  0  0  0
    7.2012  -15.2722   23.7391 N   0  0  0  0  0  0  0  0  0  0  0  0
    8.0262  -14.9147   24.8655 C   0  0  1  0  0  0  0  0  0  0  0  0
    7.1762  -14.5764   26.0646 C   0  0  0  0  0  0  0  0  0  0  0  0
    6.7926  -13.1656   26.1378 C   0  0  0  0  0  0  0  0  0  0  0  0
    5.4791  -12.7367   26.0714 C   0  0  0  0  0  0  0  0  0  0  0  0
    5.1608  -11.3833   26.1454 C   0  0  0  0  0  0  0  0  0  0  0  0
    6.1619  -10.4428   26.2874 C   0  0  0  0  0  0  0  0  0  0  0  0
    7.4858  -10.8546   26.3558 C   0  0  0  0  0  0  0  0  0  0  0  0
    7.7694  -12.2128   26.2789 C   0  0  0  0  0  0  0  0  0  0  0  0
    9.0667  -15.9113   25.1648 C   0  0  0  0  0  0  0  0  0  0  0  0
    9.8628  -15.7175   26.1030 O   0  0  0  0  0  0  0  0  0  0  0  0
    9.2450  -17.1417   24.4302 N   0  0  0  0  0  0  0  0  0  0  0  0
   10.2491  -18.1052   24.8362 C   0  0  1  0  0  0  0  0  0  0  0  0
    9.7138  -19.4586   25.1060 C   0  0  0  0  0  0  0  0  0  0  0  0
    8.8875  -19.6292   26.3059 C   0  0  0  0  0  0  0  0  0  0  0  0
    8.6641  -18.8514   27.4175 C   0  0  0  0  0  0  0  0  0  0  0  0
    7.7795  -19.4922   28.1934 N   0  0  0  0  0  0  0  0  0  0  0  0
    7.4551  -20.6368   27.5901 C   0  0  0  0  0  0  0  0  0  0  0  0
    8.1115  -20.7590   26.4315 N   0  0  0  0  0  0  0  0  0  0  0  0
   11.3767  -18.0893   23.8827 C   0  0  0  0  0  0  0  0  0  0  0  0
   11.3219  -17.2869   22.7622 O   0  0  0  0  0  0  0  0  0  0  0  0
   12.3902  -18.7944   24.0709 O   0  0  0  0  0  0  0  0  0  0  0  0
  2  1  1  0
  3  2  1  0
  3  4  2  0
  5  3  1  0
  6  5  1  0
  6  7  1  1
  8  7  1  0
  8 13  1  0
  9  8  2  0
 10  9  1  0
 10 11  2  0
 11 12  1  0
 12 13  2  0
 14  6  1  0
 14 16  1  0
 15 14  2  0
 17 16  1  0
 17 24  1  0
 17 18  1  6
 19 18  1  0
 19 23  1  0
 20 21  1  0
 20 19  2  0
 21 22  1  0
 22 23  2  0
 24 26  2  0
 24 25  1  0
M  END
$$$$
