KND.pdb
     RDKit          3D

 26 25  0  0  1  0  0  0  0  0999 V2000
   11.2802  -16.1436   18.1903 N   0  0  0  0  0  0  0  0  0  0  0  0
   11.4854  -14.8016   18.6871 C   0  0  1  0  0  0  0  0  0  0  0  0
   10.5170  -13.8164   18.0799 C   0  0  0  0  0  0  0  0  0  0  0  0
    9.4922  -14.5005   17.2202 C   0  0  0  0  0  0  0  0  0  0  0  0
    8.5123  -13.5239   16.6186 C   0  0  0  0  0  0  0  0  0  0  0  0
    7.4837  -14.1663   15.7476 C   0  0  0  0  0  0  0  0  0  0  0  0
    6.5680  -13.1573   15.2640 N   0  0  0  0  0  0  0  0  0  0  0  0
   11.4363  -14.7461   20.1715 C   0  0  0  0  0  0  0  0  0  0  0  0
   11.8029  -13.7016   20.7417 O   0  0  0  0  0  0  0  0  0  0  0  0
    9.2946  -15.7104   25.2108 N   0  0  0  0  0  0  0  0  0  0  0  0
    9.9928  -16.7014   24.4505 C   0  0  0  0  0  0  0  0  0  0  0  0
   10.6435  -17.5828   25.0942 O   0  0  0  0  0  0  0  0  0  0  0  0
    9.9618  -16.7047   22.9798 C   0  0  0  0  0  0  0  0  0  0  0  0
   11.0595  -15.8216   22.4384 C   0  0  2  0  0  0  0  0  0  0  0  0
   10.9928  -15.8244   20.9636 N   0  0  0  0  0  0  0  0  0  0  0  0
   12.4172  -16.1867   22.8797 C   0  0  0  0  0  0  0  0  0  0  0  0
   12.6596  -16.1355   24.1321 O   0  0  0  0  0  0  0  0  0  0  0  0
   13.4880  -16.5938   22.0726 N   0  0  0  0  0  0  0  0  0  0  0  0
   14.7904  -16.9672   22.5870 C   0  0  1  0  0  0  0  0  0  0  0  0
   15.2190  -18.3269   22.0190 C   0  0  0  0  0  0  0  0  0  0  0  0
   15.1968  -19.3906   23.0201 C   0  0  0  0  0  0  0  0  0  0  0  0
   14.9085  -19.1275   24.2064 O   0  0  0  0  0  0  0  0  0  0  0  0
   15.8483  -15.9744   22.3046 C   0  0  0  0  0  0  0  0  0  0  0  0
   16.0821  -15.4833   21.1740 O   0  0  0  0  0  0  0  0  0  0  0  0
   15.4899  -20.6962   22.6852 O   0  0  0  0  0  0  0  0  0  0  0  0
   16.6741  -15.5168   23.3325 O   0  0  0  0  0  0  0  0  0  0  0  0
  2  3  1  0
  2  1  1  1
  4  3  1  0
  5  4  1  0
  6  5  1  0
  7  6  1  0
  8  9  2  0
  8  2  1  0
 10 11  1  0
 11 12  2  0
 11 13  1  0
 14 13  1  1
 14 15  1  0
 15  8  1  0
 16 17  2  0
 16 14  1  0
 18 16  1  0
 19 20  1  6
 19 18  1  0
 21 20  1  0
 21 22  2  0
 23 19  1  0
 24 23  2  0
 25 21  1  0
 26 23  1  0
M  END
$$$$
