KND.pdb
     RDKit          3D

 26 25  0  0  1  0  0  0  0  0999 V2000
    9.9259  -14.9646   20.5116 N   0  0  0  0  0  0  0  0  0  0  0  0
    8.9051  -14.0853   21.0356 C   0  0  1  0  0  0  0  0  0  0  0  0
    7.8626  -13.7435   19.9995 C   0  0  0  0  0  0  0  0  0  0  0  0
    8.3976  -13.8865   18.6029 C   0  0  0  0  0  0  0  0  0  0  0  0
    7.4053  -13.4250   17.5645 C   0  0  0  0  0  0  0  0  0  0  0  0
    7.9356  -13.4636   16.1693 C   0  0  0  0  0  0  0  0  0  0  0  0
    6.8781  -13.1191   15.2454 N   0  0  0  0  0  0  0  0  0  0  0  0
    8.2722  -14.6385   22.2613 C   0  0  0  0  0  0  0  0  0  0  0  0
    7.3768  -13.9780   22.8203 O   0  0  0  0  0  0  0  0  0  0  0  0
    6.3799  -19.5923   25.1924 N   0  0  0  0  0  0  0  0  0  0  0  0
    6.8072  -18.2344   25.0474 C   0  0  0  0  0  0  0  0  0  0  0  0
    6.4994  -17.4211   25.9740 O   0  0  0  0  0  0  0  0  0  0  0  0
    7.5738  -17.7911   23.8728 C   0  0  0  0  0  0  0  0  0  0  0  0
    8.0852  -16.3878   24.0896 C   0  0  2  0  0  0  0  0  0  0  0  0
    8.6408  -15.8791   22.8200 N   0  0  0  0  0  0  0  0  0  0  0  0
    9.0858  -16.2563   25.1633 C   0  0  0  0  0  0  0  0  0  0  0  0
    8.7482  -15.5932   26.2007 O   0  0  0  0  0  0  0  0  0  0  0  0
   10.3830  -16.7864   25.1800 N   0  0  0  0  0  0  0  0  0  0  0  0
   10.9433  -17.5145   26.3008 C   0  0  1  0  0  0  0  0  0  0  0  0
    9.9500  -17.5413   27.4703 C   0  0  0  0  0  0  0  0  0  0  0  0
   10.4907  -18.1999   28.6569 C   0  0  0  0  0  0  0  0  0  0  0  0
   10.7620  -19.4185   28.6272 O   0  0  0  0  0  0  0  0  0  0  0  0
   11.3356  -18.9012   25.9727 C   0  0  0  0  0  0  0  0  0  0  0  0
   12.1173  -19.6026   26.6593 O   0  0  0  0  0  0  0  0  0  0  0  0
   10.7127  -17.5017   29.8256 O   0  0  0  0  0  0  0  0  0  0  0  0
   10.8298  -19.5223   24.8298 O   0  0  0  0  0  0  0  0  0  0  0  0
  2  3  1  0
  2  1  1  6
  4  3  1  0
  5  4  1  0
  6  5  1  0
  7  6  1  0
  8  9  2  0
  8  2  1  0
 10 11  1  0
 11 12  2  0
 11 13  1  0
 14 13  1  6
 14 15  1  0
 15  8  1  0
 16 17  2  0
 16 14  1  0
 18 16  1  0
 19 20  1  1
 19 18  1  0
 21 20  1  0
 21 22  2  0
 23 19  1  0
 24 23  2  0
 25 21  1  0
 26 23  1  0
M  END
$$$$
