KND.pdb
     RDKit          3D

 26 25  0  0  1  0  0  0  0  0999 V2000
    9.6722  -17.3569   17.5037 N   0  0  0  0  0  0  0  0  0  0  0  0
   10.8540  -17.3092   16.6725 C   0  0  1  0  0  0  0  0  0  0  0  0
   10.6222  -16.5339   15.3987 C   0  0  0  0  0  0  0  0  0  0  0  0
    9.8387  -15.2762   15.6470 C   0  0  0  0  0  0  0  0  0  0  0  0
    8.7602  -15.0656   14.6135 C   0  0  0  0  0  0  0  0  0  0  0  0
    7.9586  -13.8242   14.8277 C   0  0  0  0  0  0  0  0  0  0  0  0
    6.8009  -13.8465   13.9618 N   0  0  0  0  0  0  0  0  0  0  0  0
   12.0297  -16.7770   17.4098 C   0  0  0  0  0  0  0  0  0  0  0  0
   13.1434  -16.8006   16.8534 O   0  0  0  0  0  0  0  0  0  0  0  0
   15.0782  -15.2363   17.6934 N   0  0  0  0  0  0  0  0  0  0  0  0
   14.3830  -14.1533   18.3191 C   0  0  0  0  0  0  0  0  0  0  0  0
   14.6749  -12.9749   17.9438 O   0  0  0  0  0  0  0  0  0  0  0  0
   13.3680  -14.3892   19.3574 C   0  0  0  0  0  0  0  0  0  0  0  0
   13.1226  -15.8702   19.5124 C   0  0  2  0  0  0  0  0  0  0  0  0
   11.9401  -16.2460   18.7125 N   0  0  0  0  0  0  0  0  0  0  0  0
   12.9513  -16.3234   20.9040 C   0  0  0  0  0  0  0  0  0  0  0  0
   12.1845  -15.6322   21.6550 O   0  0  0  0  0  0  0  0  0  0  0  0
   13.5378  -17.4445   21.5067 N   0  0  0  0  0  0  0  0  0  0  0  0
   14.4554  -17.3720   22.6260 C   0  0  1  0  0  0  0  0  0  0  0  0
   15.6954  -16.5507   22.2476 C   0  0  0  0  0  0  0  0  0  0  0  0
   16.6925  -16.5074   23.3143 C   0  0  0  0  0  0  0  0  0  0  0  0
   16.5397  -15.7337   24.2826 O   0  0  0  0  0  0  0  0  0  0  0  0
   13.8564  -16.7999   23.8501 C   0  0  0  0  0  0  0  0  0  0  0  0
   14.0234  -17.2570   25.0065 O   0  0  0  0  0  0  0  0  0  0  0  0
   17.8140  -17.3097   23.2800 O   0  0  0  0  0  0  0  0  0  0  0  0
   13.0390  -15.6715   23.7704 O   0  0  0  0  0  0  0  0  0  0  0  0
  2  3  1  0
  2  1  1  1
  4  3  1  0
  5  4  1  0
  6  5  1  0
  7  6  1  0
  8  9  2  0
  8  2  1  0
 10 11  1  0
 11 12  2  0
 11 13  1  0
 14 13  1  1
 14 15  1  0
 15  8  1  0
 16 17  2  0
 16 14  1  0
 18 16  1  0
 19 20  1  6
 19 18  1  0
 21 20  1  0
 21 22  2  0
 23 19  1  0
 24 23  2  0
 25 21  1  0
 26 23  1  0
M  END
$$$$
