KND.pdb
     RDKit          3D

 26 25  0  0  1  0  0  0  0  0999 V2000
    9.8715  -16.5290   17.2313 N   0  0  0  0  0  0  0  0  0  0  0  0
   10.5289  -15.2415   17.2438 C   0  0  1  0  0  0  0  0  0  0  0  0
   10.0085  -14.3269   16.1622 C   0  0  0  0  0  0  0  0  0  0  0  0
    9.1226  -15.0578   15.1935 C   0  0  0  0  0  0  0  0  0  0  0  0
    8.4818  -14.1257   14.1953 C   0  0  0  0  0  0  0  0  0  0  0  0
    7.4525  -14.7827   13.3362 C   0  0  0  0  0  0  0  0  0  0  0  0
    6.7489  -13.7742   12.5757 N   0  0  0  0  0  0  0  0  0  0  0  0
   10.4438  -14.5881   18.5760 C   0  0  0  0  0  0  0  0  0  0  0  0
   11.1089  -13.5548   18.7772 O   0  0  0  0  0  0  0  0  0  0  0  0
    7.3713  -12.6990   19.9470 N   0  0  0  0  0  0  0  0  0  0  0  0
    7.2229  -14.0186   20.4800 C   0  0  0  0  0  0  0  0  0  0  0  0
    6.2454  -14.7135   20.0602 O   0  0  0  0  0  0  0  0  0  0  0  0
    8.1630  -14.5556   21.4758 C   0  0  0  0  0  0  0  0  0  0  0  0
    9.5768  -14.4567   20.9569 C   0  0  2  0  0  0  0  0  0  0  0  0
    9.6426  -15.0864   19.6233 N   0  0  0  0  0  0  0  0  0  0  0  0
   10.5992  -15.0449   21.8402 C   0  0  0  0  0  0  0  0  0  0  0  0
   10.6214  -14.6507   23.0543 O   0  0  0  0  0  0  0  0  0  0  0  0
   11.5616  -16.0044   21.4983 N   0  0  0  0  0  0  0  0  0  0  0  0
   12.5578  -16.5128   22.4199 C   0  0  1  0  0  0  0  0  0  0  0  0
   12.7608  -18.0193   22.2090 C   0  0  0  0  0  0  0  0  0  0  0  0
   11.5067  -18.7680   22.2338 C   0  0  0  0  0  0  0  0  0  0  0  0
   10.7439  -18.6786   23.2186 O   0  0  0  0  0  0  0  0  0  0  0  0
   13.8662  -15.8332   22.3157 C   0  0  0  0  0  0  0  0  0  0  0  0
   14.8384  -16.0364   23.0824 O   0  0  0  0  0  0  0  0  0  0  0  0
   11.1375  -19.5827   21.1838 O   0  0  0  0  0  0  0  0  0  0  0  0
   14.0894  -14.8899   21.3116 O   0  0  0  0  0  0  0  0  0  0  0  0
  2  3  1  0
  2  1  1  1
  4  3  1  0
  5  4  1  0
  6  5  1  0
  7  6  1  0
  8  9  2  0
  8  2  1  0
 10 11  1  0
 11 12  2  0
 11 13  1  0
 14 13  1  1
 14 15  1  0
 15  8  1  0
 16 17  2  0
 16 14  1  0
 18 16  1  0
 19 20  1  6
 19 18  1  0
 21 20  1  0
 21 22  2  0
 23 19  1  0
 24 23  2  0
 25 21  1  0
 26 23  1  0
M  END
$$$$
