KND.pdb
     RDKit          3D

 26 25  0  0  1  0  0  0  0  0999 V2000
   12.6943  -13.4768   18.5215 N   0  0  0  0  0  0  0  0  0  0  0  0
   11.3600  -13.7317   19.0162 C   0  0  1  0  0  0  0  0  0  0  0  0
   10.5685  -14.6180   18.0860 C   0  0  0  0  0  0  0  0  0  0  0  0
   10.2602  -13.9279   16.7875 C   0  0  0  0  0  0  0  0  0  0  0  0
    9.4624  -14.8043   15.8540 C   0  0  0  0  0  0  0  0  0  0  0  0
    8.0150  -14.8971   16.2090 C   0  0  0  0  0  0  0  0  0  0  0  0
    7.3119  -15.6142   15.1689 N   0  0  0  0  0  0  0  0  0  0  0  0
   11.3763  -14.2902   20.3934 C   0  0  0  0  0  0  0  0  0  0  0  0
   12.4364  -14.7795   20.8262 O   0  0  0  0  0  0  0  0  0  0  0  0
   10.0994  -15.7046   25.1999 N   0  0  0  0  0  0  0  0  0  0  0  0
    8.9875  -14.9687   24.6807 C   0  0  0  0  0  0  0  0  0  0  0  0
    7.9942  -14.7861   25.4519 O   0  0  0  0  0  0  0  0  0  0  0  0
    8.9886  -14.4413   23.3075 C   0  0  0  0  0  0  0  0  0  0  0  0
   10.2499  -14.8626   22.5937 C   0  0  2  0  0  0  0  0  0  0  0  0
   10.2438  -14.2908   21.2327 N   0  0  0  0  0  0  0  0  0  0  0  0
   10.4608  -16.3194   22.5247 C   0  0  0  0  0  0  0  0  0  0  0  0
    9.4779  -17.0358   22.1369 O   0  0  0  0  0  0  0  0  0  0  0  0
   11.6341  -17.0198   22.8357 N   0  0  0  0  0  0  0  0  0  0  0  0
   11.7728  -18.4572   22.7135 C   0  0  1  0  0  0  0  0  0  0  0  0
   13.1446  -18.8130   22.1248 C   0  0  0  0  0  0  0  0  0  0  0  0
   13.3335  -20.2522   21.9603 C   0  0  0  0  0  0  0  0  0  0  0  0
   12.4379  -21.0458   22.3175 O   0  0  0  0  0  0  0  0  0  0  0  0
   11.5955  -19.1824   23.9892 C   0  0  0  0  0  0  0  0  0  0  0  0
   11.5687  -18.6399   25.1202 O   0  0  0  0  0  0  0  0  0  0  0  0
   14.4912  -20.7652   21.4132 O   0  0  0  0  0  0  0  0  0  0  0  0
   11.4424  -20.5696   23.9927 O   0  0  0  0  0  0  0  0  0  0  0  0
  2  3  1  0
  2  1  1  6
  4  3  1  0
  5  4  1  0
  6  5  1  0
  7  6  1  0
  8  9  2  0
  8  2  1  0
 10 11  1  0
 11 12  2  0
 11 13  1  0
 14 13  1  6
 14 15  1  0
 15  8  1  0
 16 17  2  0
 16 14  1  0
 18 16  1  0
 19 20  1  1
 19 18  1  0
 21 20  1  0
 21 22  2  0
 23 19  1  0
 24 23  2  0
 25 21  1  0
 26 23  1  0
M  END
$$$$
