KND.pdb
     RDKit          3D

 26 25  0  0  1  0  0  0  0  0999 V2000
    8.3218  -12.2404   19.1128 N   0  0  0  0  0  0  0  0  0  0  0  0
    8.0623  -13.5842   19.5785 C   0  0  1  0  0  0  0  0  0  0  0  0
    8.5925  -14.6281   18.6265 C   0  0  0  0  0  0  0  0  0  0  0  0
    8.0941  -14.4092   17.2261 C   0  0  0  0  0  0  0  0  0  0  0  0
    8.4401  -15.5598   16.3138 C   0  0  0  0  0  0  0  0  0  0  0  0
    7.9747  -15.3711   14.9077 C   0  0  0  0  0  0  0  0  0  0  0  0
    8.1848  -16.5941   14.1656 N   0  0  0  0  0  0  0  0  0  0  0  0
    8.5848  -13.8059   20.9521 C   0  0  0  0  0  0  0  0  0  0  0  0
    9.7184  -13.3758   21.2357 O   0  0  0  0  0  0  0  0  0  0  0  0
    6.9276  -12.8210   24.1087 N   0  0  0  0  0  0  0  0  0  0  0  0
    6.5560  -14.1322   24.5449 C   0  0  0  0  0  0  0  0  0  0  0  0
    5.5165  -14.2365   25.2682 O   0  0  0  0  0  0  0  0  0  0  0  0
    7.3434  -15.3178   24.1730 C   0  0  0  0  0  0  0  0  0  0  0  0
    8.4502  -14.9259   23.2247 C   0  0  2  0  0  0  0  0  0  0  0  0
    7.8535  -14.4823   21.9494 N   0  0  0  0  0  0  0  0  0  0  0  0
    9.4467  -15.9816   22.9718 C   0  0  0  0  0  0  0  0  0  0  0  0
    9.5882  -16.3768   21.7661 O   0  0  0  0  0  0  0  0  0  0  0  0
   10.2725  -16.6085   23.9146 N   0  0  0  0  0  0  0  0  0  0  0  0
   11.5569  -17.1997   23.5965 C   0  0  1  0  0  0  0  0  0  0  0  0
   12.4329  -16.1958   22.8350 C   0  0  0  0  0  0  0  0  0  0  0  0
   13.4507  -16.8439   22.0115 C   0  0  0  0  0  0  0  0  0  0  0  0
   13.2100  -17.9424   21.4685 O   0  0  0  0  0  0  0  0  0  0  0  0
   12.2988  -17.6825   24.7802 C   0  0  0  0  0  0  0  0  0  0  0  0
   13.3853  -18.3084   24.7344 O   0  0  0  0  0  0  0  0  0  0  0  0
   14.6880  -16.2666   21.8151 O   0  0  0  0  0  0  0  0  0  0  0  0
   11.8000  -17.4528   26.0633 O   0  0  0  0  0  0  0  0  0  0  0  0
  2  3  1  0
  2  1  1  6
  4  3  1  0
  5  4  1  0
  6  5  1  0
  7  6  1  0
  8  9  2  0
  8  2  1  0
 10 11  1  0
 11 12  2  0
 11 13  1  0
 14 13  1  1
 14 15  1  0
 15  8  1  0
 16 17  2  0
 16 14  1  0
 18 16  1  0
 19 20  1  1
 19 18  1  0
 21 20  1  0
 21 22  2  0
 23 19  1  0
 24 23  2  0
 25 21  1  0
 26 23  1  0
M  END
$$$$
