KND.pdb
     RDKit          3D

 26 25  0  0  1  0  0  0  0  0999 V2000
    7.2459  -15.7975   21.0666 N   0  0  0  0  0  0  0  0  0  0  0  0
    8.1049  -14.6557   21.2871 C   0  0  1  0  0  0  0  0  0  0  0  0
    7.4513  -13.3627   20.8651 C   0  0  0  0  0  0  0  0  0  0  0  0
    6.9592  -13.4243   19.4469 C   0  0  0  0  0  0  0  0  0  0  0  0
    8.0651  -13.1776   18.4508 C   0  0  0  0  0  0  0  0  0  0  0  0
    7.6114  -13.2177   17.0289 C   0  0  0  0  0  0  0  0  0  0  0  0
    8.7534  -13.0559   16.1571 N   0  0  0  0  0  0  0  0  0  0  0  0
    8.5730  -14.5775   22.6955 C   0  0  0  0  0  0  0  0  0  0  0  0
    8.3032  -13.5583   23.3580 O   0  0  0  0  0  0  0  0  0  0  0  0
    7.3786  -14.1343   25.6531 N   0  0  0  0  0  0  0  0  0  0  0  0
    6.7676  -15.3834   25.3159 C   0  0  0  0  0  0  0  0  0  0  0  0
    5.5220  -15.5048   25.5364 O   0  0  0  0  0  0  0  0  0  0  0  0
    7.5465  -16.4883   24.7359 C   0  0  0  0  0  0  0  0  0  0  0  0
    9.0064  -16.1115   24.6695 C   0  0  2  0  0  0  0  0  0  0  0  0
    9.3097  -15.6069   23.3157 N   0  0  0  0  0  0  0  0  0  0  0  0
    9.9389  -17.1972   25.0206 C   0  0  0  0  0  0  0  0  0  0  0  0
    9.7996  -17.7410   26.1672 O   0  0  0  0  0  0  0  0  0  0  0  0
   10.9735  -17.7127   24.2284 N   0  0  0  0  0  0  0  0  0  0  0  0
   11.9568  -18.6651   24.7041 C   0  0  1  0  0  0  0  0  0  0  0  0
   13.3414  -18.3345   24.1306 C   0  0  0  0  0  0  0  0  0  0  0  0
   13.3063  -18.0454   22.6990 C   0  0  0  0  0  0  0  0  0  0  0  0
   12.5080  -18.6549   21.9569 O   0  0  0  0  0  0  0  0  0  0  0  0
   12.0523  -18.7356   26.1774 C   0  0  0  0  0  0  0  0  0  0  0  0
   12.2130  -19.7940   26.8318 O   0  0  0  0  0  0  0  0  0  0  0  0
   14.1434  -17.1039   22.1373 O   0  0  0  0  0  0  0  0  0  0  0  0
   11.9636  -17.5722   26.9432 O   0  0  0  0  0  0  0  0  0  0  0  0
  2  3  1  0
  2  1  1  1
  4  3  1  0
  5  4  1  0
  6  5  1  0
  7  6  1  0
  8  9  2  0
  8  2  1  0
 10 11  1  0
 11 12  2  0
 11 13  1  0
 14 13  1  6
 14 15  1  0
 15  8  1  0
 16 17  2  0
 16 14  1  0
 18 16  1  0
 19 20  1  6
 19 18  1  0
 21 20  1  0
 21 22  2  0
 23 19  1  0
 24 23  2  0
 25 21  1  0
 26 23  1  0
M  END
$$$$
