KND.pdb
     RDKit          3D

 26 25  0  0  1  0  0  0  0  0999 V2000
    7.8003  -16.0333   20.5577 N   0  0  0  0  0  0  0  0  0  0  0  0
    8.2919  -14.8140   21.1590 C   0  0  1  0  0  0  0  0  0  0  0  0
    7.4051  -13.6318   20.8536 C   0  0  0  0  0  0  0  0  0  0  0  0
    6.9295  -13.6458   19.4285 C   0  0  0  0  0  0  0  0  0  0  0  0
    8.0598  -13.4403   18.4506 C   0  0  0  0  0  0  0  0  0  0  0  0
    7.6156  -13.3700   17.0269 C   0  0  0  0  0  0  0  0  0  0  0  0
    8.7668  -13.1691   16.1755 N   0  0  0  0  0  0  0  0  0  0  0  0
    8.4935  -14.9602   22.6243 C   0  0  0  0  0  0  0  0  0  0  0  0
    8.8447  -13.9620   23.2806 O   0  0  0  0  0  0  0  0  0  0  0  0
    5.8380  -17.9663   23.6685 N   0  0  0  0  0  0  0  0  0  0  0  0
    6.3123  -17.1631   24.7535 C   0  0  0  0  0  0  0  0  0  0  0  0
    5.5305  -16.2697   25.2067 O   0  0  0  0  0  0  0  0  0  0  0  0
    7.6528  -17.3595   25.3266 C   0  0  0  0  0  0  0  0  0  0  0  0
    8.6181  -16.3607   24.7363 C   0  0  2  0  0  0  0  0  0  0  0  0
    8.3046  -16.1800   23.3051 N   0  0  0  0  0  0  0  0  0  0  0  0
   10.0406  -16.7097   24.8980 C   0  0  0  0  0  0  0  0  0  0  0  0
   10.4269  -17.0699   26.0603 O   0  0  0  0  0  0  0  0  0  0  0  0
   11.0325  -16.6963   23.9082 N   0  0  0  0  0  0  0  0  0  0  0  0
   12.3990  -17.1255   24.1287 C   0  0  1  0  0  0  0  0  0  0  0  0
   12.4447  -18.6308   24.4241 C   0  0  0  0  0  0  0  0  0  0  0  0
   12.5849  -18.9238   25.8484 C   0  0  0  0  0  0  0  0  0  0  0  0
   12.6832  -17.9907   26.6725 O   0  0  0  0  0  0  0  0  0  0  0  0
   13.3047  -16.8307   22.9985 C   0  0  0  0  0  0  0  0  0  0  0  0
   12.9354  -16.3794   21.8876 O   0  0  0  0  0  0  0  0  0  0  0  0
   12.6120  -20.2221   26.3137 O   0  0  0  0  0  0  0  0  0  0  0  0
   14.6772  -17.0518   23.1226 O   0  0  0  0  0  0  0  0  0  0  0  0
  2  3  1  0
  2  1  1  1
  4  3  1  0
  5  4  1  0
  6  5  1  0
  7  6  1  0
  8  9  2  0
  8  2  1  0
 10 11  1  0
 11 12  2  0
 11 13  1  0
 14 13  1  6
 14 15  1  0
 15  8  1  0
 16 17  2  0
 16 14  1  0
 18 16  1  0
 19 20  1  6
 19 18  1  0
 21 20  1  0
 21 22  2  0
 23 19  1  0
 24 23  2  0
 25 21  1  0
 26 23  1  0
M  END
$$$$
