KND.pdb
     RDKit          3D

 26 25  0  0  1  0  0  0  0  0999 V2000
    7.8666  -16.0213   19.8453 N   0  0  0  0  0  0  0  0  0  0  0  0
    8.2905  -14.8463   20.5731 C   0  0  1  0  0  0  0  0  0  0  0  0
    7.3879  -13.6639   20.3191 C   0  0  0  0  0  0  0  0  0  0  0  0
    6.9412  -13.6020   18.8859 C   0  0  0  0  0  0  0  0  0  0  0  0
    8.0808  -13.2865   17.9491 C   0  0  0  0  0  0  0  0  0  0  0  0
    7.6665  -13.1680   16.5195 C   0  0  0  0  0  0  0  0  0  0  0  0
    8.8414  -13.0065   15.6923 N   0  0  0  0  0  0  0  0  0  0  0  0
    8.4178  -15.1120   22.0298 C   0  0  0  0  0  0  0  0  0  0  0  0
    8.7686  -14.1804   22.7777 O   0  0  0  0  0  0  0  0  0  0  0  0
    6.7610  -17.4853   26.8548 N   0  0  0  0  0  0  0  0  0  0  0  0
    7.5848  -18.1021   25.8607 C   0  0  0  0  0  0  0  0  0  0  0  0
    8.4644  -18.9282   26.2588 O   0  0  0  0  0  0  0  0  0  0  0  0
    7.4239  -17.7957   24.4310 C   0  0  0  0  0  0  0  0  0  0  0  0
    8.3329  -16.6553   24.0420 C   0  0  2  0  0  0  0  0  0  0  0  0
    8.1587  -16.3734   22.6034 N   0  0  0  0  0  0  0  0  0  0  0  0
    9.7589  -16.8754   24.3409 C   0  0  0  0  0  0  0  0  0  0  0  0
   10.1381  -16.7016   25.5475 O   0  0  0  0  0  0  0  0  0  0  0  0
   10.7614  -17.2634   23.4418 N   0  0  0  0  0  0  0  0  0  0  0  0
   12.1634  -17.3704   23.7928 C   0  0  1  0  0  0  0  0  0  0  0  0
   12.7996  -18.5762   23.0881 C   0  0  0  0  0  0  0  0  0  0  0  0
   12.1540  -19.8398   23.4352 C   0  0  0  0  0  0  0  0  0  0  0  0
   11.4431  -19.9187   24.4589 O   0  0  0  0  0  0  0  0  0  0  0  0
   12.9499  -16.1597   23.4761 C   0  0  0  0  0  0  0  0  0  0  0  0
   12.5239  -15.1873   22.8074 O   0  0  0  0  0  0  0  0  0  0  0  0
   12.3112  -20.9639   22.6515 O   0  0  0  0  0  0  0  0  0  0  0  0
   14.2645  -16.0383   23.9286 O   0  0  0  0  0  0  0  0  0  0  0  0
  2  3  1  0
  2  1  1  6
  4  3  1  0
  5  4  1  0
  6  5  1  0
  7  6  1  0
  8  9  2  0
  8  2  1  0
 10 11  1  0
 11 12  2  0
 11 13  1  0
 14 13  1  6
 14 15  1  0
 15  8  1  0
 16 17  2  0
 16 14  1  0
 18 16  1  0
 19 20  1  6
 19 18  1  0
 21 20  1  0
 21 22  2  0
 23 19  1  0
 24 23  2  0
 25 21  1  0
 26 23  1  0
M  END
$$$$
