KND.pdb
     RDKit          3D

 26 25  0  0  1  0  0  0  0  0999 V2000
    8.9889  -15.4901   18.6024 N   0  0  0  0  0  0  0  0  0  0  0  0
    8.8589  -14.4409   19.5883 C   0  0  1  0  0  0  0  0  0  0  0  0
    7.7042  -13.5173   19.2868 C   0  0  0  0  0  0  0  0  0  0  0  0
    7.9153  -12.7618   18.0054 C   0  0  0  0  0  0  0  0  0  0  0  0
    7.7480  -13.6431   16.7924 C   0  0  0  0  0  0  0  0  0  0  0  0
    7.9144  -12.9188   15.4974 C   0  0  0  0  0  0  0  0  0  0  0  0
    7.6872  -13.8360   14.4031 N   0  0  0  0  0  0  0  0  0  0  0  0
    8.7554  -14.9853   20.9674 C   0  0  0  0  0  0  0  0  0  0  0  0
    8.6817  -14.1868   21.9199 O   0  0  0  0  0  0  0  0  0  0  0  0
    5.6782  -17.4168   21.2883 N   0  0  0  0  0  0  0  0  0  0  0  0
    6.3621  -17.2953   22.5394 C   0  0  0  0  0  0  0  0  0  0  0  0
    5.7976  -16.6146   23.4520 O   0  0  0  0  0  0  0  0  0  0  0  0
    7.6686  -17.9320   22.7662 C   0  0  0  0  0  0  0  0  0  0  0  0
    8.7722  -16.9134   22.6165 C   0  0  2  0  0  0  0  0  0  0  0  0
    8.7369  -16.3671   21.2456 N   0  0  0  0  0  0  0  0  0  0  0  0
   10.1223  -17.4197   22.9202 C   0  0  0  0  0  0  0  0  0  0  0  0
   10.5180  -18.4522   22.2821 O   0  0  0  0  0  0  0  0  0  0  0  0
   11.0379  -16.8887   23.8386 N   0  0  0  0  0  0  0  0  0  0  0  0
   12.2766  -17.5411   24.2129 C   0  0  1  0  0  0  0  0  0  0  0  0
   13.4517  -16.5605   24.1008 C   0  0  0  0  0  0  0  0  0  0  0  0
   13.8071  -16.2594   22.7162 C   0  0  0  0  0  0  0  0  0  0  0  0
   13.2721  -16.8913   21.7813 O   0  0  0  0  0  0  0  0  0  0  0  0
   12.2587  -18.1147   25.5750 C   0  0  0  0  0  0  0  0  0  0  0  0
   11.3327  -17.9510   26.4056 O   0  0  0  0  0  0  0  0  0  0  0  0
   14.7310  -15.2820   22.4097 O   0  0  0  0  0  0  0  0  0  0  0  0
   13.3222  -18.9017   26.0195 O   0  0  0  0  0  0  0  0  0  0  0  0
  2  3  1  0
  2  1  1  6
  4  3  1  0
  5  4  1  0
  6  5  1  0
  7  6  1  0
  8  9  2  0
  8  2  1  0
 10 11  1  0
 11 12  2  0
 11 13  1  0
 14 13  1  6
 14 15  1  0
 15  8  1  0
 16 17  2  0
 16 14  1  0
 18 16  1  0
 19 20  1  1
 19 18  1  0
 21 20  1  0
 21 22  2  0
 23 19  1  0
 24 23  2  0
 25 21  1  0
 26 23  1  0
M  END
$$$$
