FQL.pdb
     RDKit          3D

 29 29  0  0  1  0  0  0  0  0999 V2000
    5.7483  -16.3033   22.4301 N   0  0  0  0  0  0  0  0  0  0  0  0
    7.1936  -16.2870   22.5597 C   0  0  1  0  0  0  0  0  0  0  0  0
    7.6749  -14.8609   22.7699 C   0  0  0  0  0  0  0  0  0  0  0  0
    7.8280  -14.2193   21.4415 C   0  0  0  0  0  0  0  0  0  0  0  0
    7.1593  -13.0764   21.1295 C   0  0  0  0  0  0  0  0  0  0  0  0
    7.2563  -12.4303   19.9159 C   0  0  0  0  0  0  0  0  0  0  0  0
    8.0820  -12.9723   18.9538 C   0  0  0  0  0  0  0  0  0  0  0  0
    8.7812  -14.1331   19.2274 C   0  0  0  0  0  0  0  0  0  0  0  0
    8.6567  -14.7569   20.4664 C   0  0  0  0  0  0  0  0  0  0  0  0
    7.5636  -17.1576   23.6926 C   0  0  0  0  0  0  0  0  0  0  0  0
    6.8614  -17.1410   24.7249 O   0  0  0  0  0  0  0  0  0  0  0  0
    8.4743  -22.2558   25.0661 N   0  0  0  0  0  0  0  0  0  0  0  0
    9.4564  -21.7148   25.9605 C   0  0  0  0  0  0  0  0  0  0  0  0
    9.4325  -22.0882   27.1370 O   0  0  0  0  0  0  0  0  0  0  0  0
   10.4319  -20.7490   25.4301 C   0  0  0  0  0  0  0  0  0  0  0  0
    9.8732  -19.9262   24.3303 C   0  0  0  0  0  0  0  0  0  0  0  0
    9.0824  -18.7524   24.8479 C   0  0  2  0  0  0  0  0  0  0  0  0
    8.6877  -18.0017   23.6300 N   0  0  0  0  0  0  0  0  0  0  0  0
    9.9074  -17.8295   25.6573 C   0  0  0  0  0  0  0  0  0  0  0  0
   10.8665  -17.2217   25.0977 O   0  0  0  0  0  0  0  0  0  0  0  0
    8.7208  -13.5470   28.6119 C   0  0  0  0  0  0  0  0  0  0  0  0
    9.3439  -14.5451   27.5765 C   0  0  1  0  0  0  0  0  0  0  0  0
    9.9891  -13.6738   26.5703 C   0  0  0  0  0  0  0  0  0  0  0  0
   10.0902  -15.5311   28.3267 C   0  0  0  0  0  0  0  0  0  0  0  0
   10.7233  -16.7175   27.7376 C   0  0  2  0  0  0  0  0  0  0  0  0
    9.7369  -17.5354   27.0225 N   0  0  0  0  0  0  0  0  0  0  0  0
   11.4054  -17.6216   28.6613 C   0  0  0  0  0  0  0  0  0  0  0  0
   12.3936  -17.2090   29.3204 O   0  0  0  0  0  0  0  0  0  0  0  0
   11.0594  -18.9408   28.9005 O   0  0  0  0  0  0  0  0  0  0  0  0
  2  1  1  1
  2  3  1  0
  3  4  1  0
  4  9  2  0
  5  4  1  0
  5  6  2  0
  6  7  1  0
  7  8  2  0
  9  8  1  0
 10 18  1  0
 10  2  1  0
 11 10  2  0
 13 12  1  0
 13 15  1  0
 14 13  2  0
 16 15  1  0
 17 16  1  6
 17 18  1  0
 19 26  1  0
 19 17  1  0
 20 19  2  0
 22 21  1  1
 22 24  1  0
 23 22  1  0
 25 24  1  1
 25 26  1  0
 25 27  1  0
 27 29  1  0
 28 27  2  0
M  END
$$$$
