FQL.pdb
     RDKit          3D

 29 29  0  0  1  0  0  0  0  0999 V2000
    6.0178  -20.0288   22.8314 N   0  0  0  0  0  0  0  0  0  0  0  0
    6.2328  -18.7818   23.5416 C   0  0  1  0  0  0  0  0  0  0  0  0
    6.5934  -19.0703   24.9896 C   0  0  0  0  0  0  0  0  0  0  0  0
    6.8843  -17.7818   25.6640 C   0  0  0  0  0  0  0  0  0  0  0  0
    8.0926  -17.5464   26.2431 C   0  0  0  0  0  0  0  0  0  0  0  0
    8.4273  -16.3735   26.8848 C   0  0  0  0  0  0  0  0  0  0  0  0
    7.4815  -15.3722   26.9466 C   0  0  0  0  0  0  0  0  0  0  0  0
    6.2396  -15.5678   26.3716 C   0  0  0  0  0  0  0  0  0  0  0  0
    5.9390  -16.7677   25.7316 C   0  0  0  0  0  0  0  0  0  0  0  0
    7.3058  -18.0390   22.8525 C   0  0  0  0  0  0  0  0  0  0  0  0
    8.4255  -18.5753   22.7188 O   0  0  0  0  0  0  0  0  0  0  0  0
    7.2857  -12.1649   19.3356 N   0  0  0  0  0  0  0  0  0  0  0  0
    7.8382  -13.4260   18.9334 C   0  0  0  0  0  0  0  0  0  0  0  0
    7.7372  -13.7470   17.7457 O   0  0  0  0  0  0  0  0  0  0  0  0
    8.4900  -14.2634   19.9529 C   0  0  0  0  0  0  0  0  0  0  0  0
    7.5172  -15.0670   20.7318 C   0  0  0  0  0  0  0  0  0  0  0  0
    8.1998  -16.0665   21.6296 C   0  0  2  0  0  0  0  0  0  0  0  0
    7.0904  -16.7440   22.3458 N   0  0  0  0  0  0  0  0  0  0  0  0
    9.0308  -15.4177   22.6667 C   0  0  0  0  0  0  0  0  0  0  0  0
   10.1150  -14.8645   22.3190 O   0  0  0  0  0  0  0  0  0  0  0  0
    7.4981  -11.8104   26.3796 C   0  0  0  0  0  0  0  0  0  0  0  0
    7.9492  -12.7547   25.2128 C   0  0  1  0  0  0  0  0  0  0  0  0
    8.2176  -11.8385   24.0831 C   0  0  0  0  0  0  0  0  0  0  0  0
    8.9668  -13.6355   25.7427 C   0  0  0  0  0  0  0  0  0  0  0  0
    9.6641  -14.6634   24.9601 C   0  0  2  0  0  0  0  0  0  0  0  0
    8.7398  -15.3370   24.0408 N   0  0  0  0  0  0  0  0  0  0  0  0
   10.3269  -15.7238   25.7166 C   0  0  0  0  0  0  0  0  0  0  0  0
   11.2352  -15.4303   26.5352 O   0  0  0  0  0  0  0  0  0  0  0  0
   10.0437  -17.0762   25.6257 O   0  0  0  0  0  0  0  0  0  0  0  0
  2  1  1  6
  2  3  1  0
  3  4  1  0
  4  9  2  0
  5  4  1  0
  5  6  2  0
  6  7  1  0
  7  8  2  0
  9  8  1  0
 10 18  1  0
 10  2  1  0
 11 10  2  0
 13 12  1  0
 13 15  1  0
 14 13  2  0
 16 15  1  0
 17 16  1  6
 17 18  1  0
 19 26  1  0
 19 17  1  0
 20 19  2  0
 22 21  1  1
 22 24  1  0
 23 22  1  0
 25 24  1  1
 25 26  1  0
 25 27  1  0
 27 29  1  0
 28 27  2  0
M  END
$$$$
