FQL.pdb
     RDKit          3D

 29 29  0  0  1  0  0  0  0  0999 V2000
    6.6944  -18.4108   20.9075 N   0  0  0  0  0  0  0  0  0  0  0  0
    7.3516  -17.1823   21.3131 C   0  0  1  0  0  0  0  0  0  0  0  0
    6.3107  -16.1527   21.7208 C   0  0  0  0  0  0  0  0  0  0  0  0
    6.8794  -14.8009   21.4994 C   0  0  0  0  0  0  0  0  0  0  0  0
    7.0709  -13.9387   22.5341 C   0  0  0  0  0  0  0  0  0  0  0  0
    7.5937  -12.6707   22.3976 C   0  0  0  0  0  0  0  0  0  0  0  0
    7.9465  -12.2443   21.1348 C   0  0  0  0  0  0  0  0  0  0  0  0
    7.7693  -13.0874   20.0537 C   0  0  0  0  0  0  0  0  0  0  0  0
    7.2376  -14.3623   20.2322 C   0  0  0  0  0  0  0  0  0  0  0  0
    8.2689  -17.4970   22.4256 C   0  0  0  0  0  0  0  0  0  0  0  0
    7.9082  -18.3165   23.2959 O   0  0  0  0  0  0  0  0  0  0  0  0
   14.1199  -16.8436   21.4663 N   0  0  0  0  0  0  0  0  0  0  0  0
   12.8690  -17.1268   20.8242 C   0  0  0  0  0  0  0  0  0  0  0  0
   12.7548  -16.8345   19.6302 O   0  0  0  0  0  0  0  0  0  0  0  0
   11.7964  -17.7452   21.6196 C   0  0  0  0  0  0  0  0  0  0  0  0
   11.8109  -17.2987   23.0335 C   0  0  0  0  0  0  0  0  0  0  0  0
   10.4305  -17.2905   23.6381 C   0  0  2  0  0  0  0  0  0  0  0  0
    9.5363  -16.8933   22.5220 N   0  0  0  0  0  0  0  0  0  0  0  0
   10.2785  -16.2548   24.6828 C   0  0  0  0  0  0  0  0  0  0  0  0
   11.1197  -15.3100   24.7293 O   0  0  0  0  0  0  0  0  0  0  0  0
    5.9600  -13.5310   26.6111 C   0  0  0  0  0  0  0  0  0  0  0  0
    7.4654  -13.6390   26.1882 C   0  0  1  0  0  0  0  0  0  0  0  0
    7.9307  -12.2362   26.1287 C   0  0  0  0  0  0  0  0  0  0  0  0
    8.0859  -14.6153   27.0565 C   0  0  0  0  0  0  0  0  0  0  0  0
    9.3754  -15.2638   26.7881 C   0  0  2  0  0  0  0  0  0  0  0  0
    9.2672  -16.1948   25.6590 N   0  0  0  0  0  0  0  0  0  0  0  0
    9.9650  -16.0266   27.8865 C   0  0  0  0  0  0  0  0  0  0  0  0
    9.8866  -17.2816   27.8854 O   0  0  0  0  0  0  0  0  0  0  0  0
   10.6339  -15.4888   28.9730 O   0  0  0  0  0  0  0  0  0  0  0  0
  2  1  1  1
  2  3  1  0
  3  4  1  0
  4  9  2  0
  5  4  1  0
  5  6  2  0
  6  7  1  0
  7  8  2  0
  9  8  1  0
 10 18  1  0
 10  2  1  0
 11 10  2  0
 13 12  1  0
 13 15  1  0
 14 13  2  0
 16 15  1  0
 17 16  1  6
 17 18  1  0
 19 26  1  0
 19 17  1  0
 20 19  2  0
 22 21  1  1
 22 24  1  0
 23 22  1  0
 25 24  1  1
 25 26  1  0
 25 27  1  0
 27 29  1  0
 28 27  2  0
M  END
$$$$
