FQL.pdb
     RDKit          3D

 29 29  0  0  1  0  0  0  0  0999 V2000
    5.8777  -16.7629   24.3647 N   0  0  0  0  0  0  0  0  0  0  0  0
    7.0532  -15.9121   24.3730 C   0  0  1  0  0  0  0  0  0  0  0  0
    7.2213  -15.2808   25.7453 C   0  0  0  0  0  0  0  0  0  0  0  0
    6.7275  -13.8838   25.6802 C   0  0  0  0  0  0  0  0  0  0  0  0
    7.3640  -12.9456   24.9283 C   0  0  0  0  0  0  0  0  0  0  0  0
    6.9586  -11.6324   24.8244 C   0  0  0  0  0  0  0  0  0  0  0  0
    5.8378  -11.2395   25.5248 C   0  0  0  0  0  0  0  0  0  0  0  0
    5.1593  -12.1597   26.3020 C   0  0  0  0  0  0  0  0  0  0  0  0
    5.6004  -13.4784   26.3814 C   0  0  0  0  0  0  0  0  0  0  0  0
    8.2210  -16.7374   24.0082 C   0  0  0  0  0  0  0  0  0  0  0  0
    8.2460  -17.9380   24.3505 O   0  0  0  0  0  0  0  0  0  0  0  0
   12.9948  -19.4551   21.8721 N   0  0  0  0  0  0  0  0  0  0  0  0
   12.5655  -18.2533   21.2174 C   0  0  0  0  0  0  0  0  0  0  0  0
   12.1191  -18.3497   20.0704 O   0  0  0  0  0  0  0  0  0  0  0  0
   12.6815  -16.9789   21.9439 C   0  0  0  0  0  0  0  0  0  0  0  0
   11.3687  -16.3181   22.1408 C   0  0  0  0  0  0  0  0  0  0  0  0
   10.5878  -16.9373   23.2712 C   0  0  2  0  0  0  0  0  0  0  0  0
    9.3008  -16.1981   23.2850 N   0  0  0  0  0  0  0  0  0  0  0  0
   11.2183  -16.7010   24.5879 C   0  0  0  0  0  0  0  0  0  0  0  0
   12.2183  -15.9275   24.6533 O   0  0  0  0  0  0  0  0  0  0  0  0
    9.8682  -14.2855   28.7965 C   0  0  0  0  0  0  0  0  0  0  0  0
   10.7882  -14.8147   27.6432 C   0  0  1  0  0  0  0  0  0  0  0  0
   11.8174  -13.7642   27.4844 C   0  0  0  0  0  0  0  0  0  0  0  0
   11.1332  -16.1825   27.9629 C   0  0  0  0  0  0  0  0  0  0  0  0
   11.6784  -17.1475   27.0002 C   0  0  2  0  0  0  0  0  0  0  0  0
   10.8149  -17.2514   25.8183 N   0  0  0  0  0  0  0  0  0  0  0  0
   11.8714  -18.5139   27.4817 C   0  0  0  0  0  0  0  0  0  0  0  0
   11.1290  -19.4349   27.0555 O   0  0  0  0  0  0  0  0  0  0  0  0
   12.8310  -18.9186   28.3942 O   0  0  0  0  0  0  0  0  0  0  0  0
  2  1  1  1
  2  3  1  0
  3  4  1  0
  4  9  2  0
  5  4  1  0
  5  6  2  0
  6  7  1  0
  7  8  2  0
  9  8  1  0
 10 18  1  0
 10  2  1  0
 11 10  2  0
 13 12  1  0
 13 15  1  0
 14 13  2  0
 16 15  1  0
 17 16  1  6
 17 18  1  0
 19 26  1  0
 19 17  1  0
 20 19  2  0
 22 21  1  1
 22 24  1  0
 23 22  1  0
 25 24  1  1
 25 26  1  0
 25 27  1  0
 27 29  1  0
 28 27  2  0
M  END
$$$$
