FQL.pdb
     RDKit          3D

 29 29  0  0  1  0  0  0  0  0999 V2000
    9.7517  -15.4268   20.0672 N   0  0  0  0  0  0  0  0  0  0  0  0
    8.6857  -15.2060   21.0267 C   0  0  1  0  0  0  0  0  0  0  0  0
    7.3380  -15.4054   20.3529 C   0  0  0  0  0  0  0  0  0  0  0  0
    7.2262  -14.4357   19.2363 C   0  0  0  0  0  0  0  0  0  0  0  0
    7.4317  -13.1056   19.4347 C   0  0  0  0  0  0  0  0  0  0  0  0
    7.3434  -12.1530   18.4425 C   0  0  0  0  0  0  0  0  0  0  0  0
    7.0270  -12.5689   17.1666 C   0  0  0  0  0  0  0  0  0  0  0  0
    6.8097  -13.9116   16.9190 C   0  0  0  0  0  0  0  0  0  0  0  0
    6.9082  -14.8444   17.9485 C   0  0  0  0  0  0  0  0  0  0  0  0
    8.8756  -16.1448   22.1494 C   0  0  0  0  0  0  0  0  0  0  0  0
    7.9146  -16.3830   22.9102 O   0  0  0  0  0  0  0  0  0  0  0  0
    9.9643  -21.3798   22.6960 N   0  0  0  0  0  0  0  0  0  0  0  0
   11.0547  -20.6392   23.2614 C   0  0  0  0  0  0  0  0  0  0  0  0
   11.5387  -21.0451   24.3220 O   0  0  0  0  0  0  0  0  0  0  0  0
   11.5329  -19.4423   22.5510 C   0  0  0  0  0  0  0  0  0  0  0  0
   11.6224  -18.2564   23.4367 C   0  0  0  0  0  0  0  0  0  0  0  0
   10.2877  -17.5787   23.6107 C   0  0  2  0  0  0  0  0  0  0  0  0
   10.1141  -16.7731   22.3763 N   0  0  0  0  0  0  0  0  0  0  0  0
   10.2843  -16.6208   24.7375 C   0  0  0  0  0  0  0  0  0  0  0  0
   11.2083  -15.7582   24.8051 O   0  0  0  0  0  0  0  0  0  0  0  0
    8.8712  -12.4444   27.4633 C   0  0  0  0  0  0  0  0  0  0  0  0
    7.8279  -13.6022   27.6291 C   0  0  1  0  0  0  0  0  0  0  0  0
    6.5159  -12.9199   27.6002 C   0  0  0  0  0  0  0  0  0  0  0  0
    8.1760  -14.6332   26.6762 C   0  0  0  0  0  0  0  0  0  0  0  0
    9.3824  -15.4657   26.7580 C   0  0  2  0  0  0  0  0  0  0  0  0
    9.3349  -16.5529   25.7736 N   0  0  0  0  0  0  0  0  0  0  0  0
    9.6541  -16.0986   28.0470 C   0  0  0  0  0  0  0  0  0  0  0  0
    9.0388  -17.1473   28.3677 O   0  0  0  0  0  0  0  0  0  0  0  0
   10.5609  -15.6473   28.9911 O   0  0  0  0  0  0  0  0  0  0  0  0
  2  1  1  6
  2  3  1  0
  3  4  1  0
  4  9  2  0
  5  4  1  0
  5  6  2  0
  6  7  1  0
  7  8  2  0
  9  8  1  0
 10 18  1  0
 10  2  1  0
 11 10  2  0
 13 12  1  0
 13 15  1  0
 14 13  2  0
 16 15  1  0
 17 16  1  6
 17 18  1  0
 19 26  1  0
 19 17  1  0
 20 19  2  0
 22 21  1  6
 22 24  1  0
 23 22  1  0
 25 24  1  1
 25 26  1  0
 25 27  1  0
 27 29  1  0
 28 27  2  0
M  END
$$$$
