AAT.pdb
     RDKit          3D

 18 17  0  0  1  0  0  0  0  0999 V2000
   20.0686  -12.2068  -16.7018 C   0  0  0  0  0  0  0  0  0  0  0  0
   18.7522  -11.4805  -16.5221 C   0  0  2  0  0  0  0  0  0  0  0  0
   17.9168  -11.6765  -17.6807 N   0  0  0  0  0  0  0  0  0  0  0  0
   18.9655  -10.0377  -16.2238 C   0  0  0  0  0  0  0  0  0  0  0  0
   19.7726   -9.3926  -16.9368 O   0  0  0  0  0  0  0  0  0  0  0  0
   17.2345   -7.4246  -14.1082 C   0  0  0  0  0  0  0  0  0  0  0  0
   18.4230   -7.9600  -14.8812 C   0  0  2  0  0  0  0  0  0  0  0  0
   18.2963   -9.3608  -15.1690 N   0  0  0  0  0  0  0  0  0  0  0  0
   19.6790   -7.6160  -14.1976 C   0  0  0  0  0  0  0  0  0  0  0  0
   20.1852   -8.2837  -13.2583 O   0  0  0  0  0  0  0  0  0  0  0  0
   23.0375   -7.6011  -15.4883 C   0  0  0  0  0  0  0  0  0  0  0  0
   22.7088   -6.1964  -15.1037 C   0  0  1  0  0  0  0  0  0  0  0  0
   22.3229   -5.4604  -16.2033 O   0  0  0  0  0  0  0  0  0  0  0  0
   21.6750   -6.1113  -14.0060 C   0  0  2  0  0  0  0  0  0  0  0  0
   20.3805   -6.4524  -14.6157 N   0  0  0  0  0  0  0  0  0  0  0  0
   21.6281   -4.7181  -13.5189 C   0  0  0  0  0  0  0  0  0  0  0  0
   20.6848   -3.9829  -13.8527 O   0  0  0  0  0  0  0  0  0  0  0  0
   22.6192   -4.1803  -12.6817 O   0  0  0  0  0  0  0  0  0  0  0  0
  2  1  1  6
  2  3  1  0
  4  2  1  0
  5  4  2  0
  7  6  1  1
  7  8  1  0
  8  4  1  0
  9  7  1  0
  9 15  1  0
 10  9  2  0
 12 11  1  6
 12 14  1  0
 12 13  1  0
 14 15  1  6
 14 16  1  0
 16 18  1  0
 17 16  2  0
M  END
$$$$
