AAT.pdb
     RDKit          3D

 18 17  0  0  1  0  0  0  0  0999 V2000
   18.3131  -11.1353  -17.7225 C   0  0  0  0  0  0  0  0  0  0  0  0
   19.7631  -11.5289  -17.9100 C   0  0  2  0  0  0  0  0  0  0  0  0
   19.9725  -12.8795  -17.4509 N   0  0  0  0  0  0  0  0  0  0  0  0
   20.6778  -10.5628  -17.2421 C   0  0  0  0  0  0  0  0  0  0  0  0
   20.7417  -10.5688  -15.9884 O   0  0  0  0  0  0  0  0  0  0  0  0
   23.1994   -7.9392  -18.3668 C   0  0  0  0  0  0  0  0  0  0  0  0
   22.2804   -8.6056  -17.3626 C   0  0  2  0  0  0  0  0  0  0  0  0
   21.4797   -9.6362  -17.9610 N   0  0  0  0  0  0  0  0  0  0  0  0
   21.4896   -7.5976  -16.6405 C   0  0  0  0  0  0  0  0  0  0  0  0
   20.4970   -6.9914  -17.1219 O   0  0  0  0  0  0  0  0  0  0  0  0
   19.5168   -7.9723  -13.6442 C   0  0  0  0  0  0  0  0  0  0  0  0
   20.5570   -6.9495  -13.3260 C   0  0  1  0  0  0  0  0  0  0  0  0
   21.5734   -7.4962  -12.5724 O   0  0  0  0  0  0  0  0  0  0  0  0
   21.1041   -6.2619  -14.5542 C   0  0  2  0  0  0  0  0  0  0  0  0
   21.8597   -7.2755  -15.3062 N   0  0  0  0  0  0  0  0  0  0  0  0
   22.0277   -5.1958  -14.1173 C   0  0  0  0  0  0  0  0  0  0  0  0
   21.5760   -4.1852  -13.5550 O   0  0  0  0  0  0  0  0  0  0  0  0
   23.4161   -5.2766  -14.3131 O   0  0  0  0  0  0  0  0  0  0  0  0
  2  1  1  1
  2  3  1  0
  4  2  1  0
  5  4  2  0
  7  6  1  6
  7  8  1  0
  8  4  1  0
  9  7  1  0
  9 15  1  0
 10  9  2  0
 12 11  1  6
 12 14  1  0
 12 13  1  0
 14 15  1  6
 14 16  1  0
 16 18  1  0
 17 16  2  0
M  END
$$$$
