AAT.pdb
     RDKit          3D

 18 17  0  0  1  0  0  0  0  0999 V2000
   25.3977  -14.2782  -22.1245 C   0  0  0  0  0  0  0  0  0  0  0  0
   25.8287  -13.9032  -20.7223 C   0  0  2  0  0  0  0  0  0  0  0  0
   24.6731  -13.6123  -19.9107 N   0  0  0  0  0  0  0  0  0  0  0  0
   26.8002  -12.7752  -20.7373 C   0  0  0  0  0  0  0  0  0  0  0  0
   27.9893  -13.0146  -21.0607 O   0  0  0  0  0  0  0  0  0  0  0  0
   26.5738   -9.0083  -20.6449 C   0  0  0  0  0  0  0  0  0  0  0  0
   27.3239  -10.3126  -20.4635 C   0  0  2  0  0  0  0  0  0  0  0  0
   26.4401  -11.4424  -20.4020 N   0  0  0  0  0  0  0  0  0  0  0  0
   28.2393  -10.2247  -19.3157 C   0  0  0  0  0  0  0  0  0  0  0  0
   27.9645  -10.6207  -18.1529 O   0  0  0  0  0  0  0  0  0  0  0  0
   32.9597   -9.7509  -18.0067 C   0  0  0  0  0  0  0  0  0  0  0  0
   31.8610   -9.8029  -19.0163 C   0  0  1  0  0  0  0  0  0  0  0  0
   31.9117  -10.9736  -19.7422 O   0  0  0  0  0  0  0  0  0  0  0  0
   30.4924   -9.6011  -18.4104 C   0  0  2  0  0  0  0  0  0  0  0  0
   29.5262   -9.6559  -19.5183 N   0  0  0  0  0  0  0  0  0  0  0  0
   30.4492   -8.2587  -17.7969 C   0  0  0  0  0  0  0  0  0  0  0  0
   30.1395   -7.2767  -18.4908 O   0  0  0  0  0  0  0  0  0  0  0  0
   30.7477   -8.0410  -16.4419 O   0  0  0  0  0  0  0  0  0  0  0  0
  2  1  1  6
  2  3  1  0
  4  2  1  0
  5  4  2  0
  7  6  1  1
  7  8  1  0
  8  4  1  0
  9  7  1  0
  9 15  1  0
 10  9  2  0
 12 11  1  1
 12 14  1  0
 12 13  1  0
 14 15  1  6
 14 16  1  0
 16 18  1  0
 17 16  2  0
M  END
$$$$
