AAT.pdb
     RDKit          3D

 18 17  0  0  1  0  0  0  0  0999 V2000
   17.5995  -12.1436  -14.5102 C   0  0  0  0  0  0  0  0  0  0  0  0
   16.8019  -11.0401  -15.1727 C   0  0  2  0  0  0  0  0  0  0  0  0
   16.4015  -11.4458  -16.4970 N   0  0  0  0  0  0  0  0  0  0  0  0
   17.5575   -9.7575  -15.1849 C   0  0  0  0  0  0  0  0  0  0  0  0
   18.6665   -9.7225  -15.7721 O   0  0  0  0  0  0  0  0  0  0  0  0
   16.7347   -6.1559  -14.3702 C   0  0  0  0  0  0  0  0  0  0  0  0
   17.7041   -7.2851  -14.6563 C   0  0  2  0  0  0  0  0  0  0  0  0
   17.0784   -8.5739  -14.5620 N   0  0  0  0  0  0  0  0  0  0  0  0
   18.9056   -7.1570  -13.8178 C   0  0  0  0  0  0  0  0  0  0  0  0
   18.9699   -7.4974  -12.6077 O   0  0  0  0  0  0  0  0  0  0  0  0
   22.2942   -8.6463  -14.2871 C   0  0  0  0  0  0  0  0  0  0  0  0
   22.4115   -7.1587  -14.3356 C   0  0  1  0  0  0  0  0  0  0  0  0
   22.4952   -6.7117  -15.6368 O   0  0  0  0  0  0  0  0  0  0  0  0
   21.3015   -6.4544  -13.5922 C   0  0  2  0  0  0  0  0  0  0  0  0
   20.0828   -6.6132  -14.4005 N   0  0  0  0  0  0  0  0  0  0  0  0
   21.6392   -5.0196  -13.5034 C   0  0  0  0  0  0  0  0  0  0  0  0
   21.0561   -4.2054  -14.2374 O   0  0  0  0  0  0  0  0  0  0  0  0
   22.6061   -4.5284  -12.6109 O   0  0  0  0  0  0  0  0  0  0  0  0
  2  1  1  6
  2  3  1  0
  4  2  1  0
  5  4  2  0
  7  6  1  1
  7  8  1  0
  8  4  1  0
  9  7  1  0
  9 15  1  0
 10  9  2  0
 12 11  1  6
 12 14  1  0
 12 13  1  0
 14 15  1  6
 14 16  1  0
 16 18  1  0
 17 16  2  0
M  END
$$$$
