AAT.pdb
     RDKit          3D

 18 17  0  0  1  0  0  0  0  0999 V2000
   25.6496  -13.0144  -20.4239 C   0  0  0  0  0  0  0  0  0  0  0  0
   25.6749  -13.5695  -19.0154 C   0  0  2  0  0  0  0  0  0  0  0  0
   25.0536  -14.8701  -18.9849 N   0  0  0  0  0  0  0  0  0  0  0  0
   25.0467  -12.6265  -18.0497 C   0  0  0  0  0  0  0  0  0  0  0  0
   23.8224  -12.3759  -18.1693 O   0  0  0  0  0  0  0  0  0  0  0  0
   26.1512  -10.7889  -14.9053 C   0  0  0  0  0  0  0  0  0  0  0  0
   25.2184  -11.0578  -16.0691 C   0  0  2  0  0  0  0  0  0  0  0  0
   25.7715  -11.9995  -17.0010 N   0  0  0  0  0  0  0  0  0  0  0  0
   24.7992   -9.7948  -16.6952 C   0  0  0  0  0  0  0  0  0  0  0  0
   25.5110   -9.1194  -17.4837 O   0  0  0  0  0  0  0  0  0  0  0  0
   22.2182   -9.2275  -19.1095 C   0  0  0  0  0  0  0  0  0  0  0  0
   21.8376   -8.4468  -17.8951 C   0  0  1  0  0  0  0  0  0  0  0  0
   20.8967   -9.1224  -17.1480 O   0  0  0  0  0  0  0  0  0  0  0  0
   23.0250   -8.0587  -17.0465 C   0  0  2  0  0  0  0  0  0  0  0  0
   23.5037   -9.2898  -16.3991 N   0  0  0  0  0  0  0  0  0  0  0  0
   22.5656   -7.1138  -16.0089 C   0  0  0  0  0  0  0  0  0  0  0  0
   22.4988   -7.4862  -14.8263 O   0  0  0  0  0  0  0  0  0  0  0  0
   22.1955   -5.7920  -16.3061 O   0  0  0  0  0  0  0  0  0  0  0  0
  2  1  1  6
  2  3  1  0
  4  2  1  0
  5  4  2  0
  7  6  1  1
  7  8  1  0
  8  4  1  0
  9  7  1  0
  9 15  1  0
 10  9  2  0
 12 11  1  6
 12 14  1  0
 12 13  1  0
 14 15  1  1
 14 16  1  0
 16 18  1  0
 17 16  2  0
M  END
$$$$
