AAT.pdb
     RDKit          3D

 18 17  0  0  1  0  0  0  0  0999 V2000
   17.7707  -11.7218  -17.9646 C   0  0  0  0  0  0  0  0  0  0  0  0
   18.5177  -11.5776  -16.6554 C   0  0  2  0  0  0  0  0  0  0  0  0
   17.7675  -12.1906  -15.5877 N   0  0  0  0  0  0  0  0  0  0  0  0
   18.8374  -10.1523  -16.3679 C   0  0  0  0  0  0  0  0  0  0  0  0
   19.8038   -9.6232  -16.9698 O   0  0  0  0  0  0  0  0  0  0  0  0
   17.0696   -7.3044  -14.6121 C   0  0  0  0  0  0  0  0  0  0  0  0
   18.2930   -7.9625  -15.2181 C   0  0  2  0  0  0  0  0  0  0  0  0
   18.0975   -9.3668  -15.4437 N   0  0  0  0  0  0  0  0  0  0  0  0
   19.4894   -7.6611  -14.4176 C   0  0  0  0  0  0  0  0  0  0  0  0
   19.8173   -8.2732  -13.3677 O   0  0  0  0  0  0  0  0  0  0  0  0
   22.9406   -8.0951  -15.1753 C   0  0  0  0  0  0  0  0  0  0  0  0
   22.7311   -6.6270  -15.0023 C   0  0  1  0  0  0  0  0  0  0  0  0
   22.5967   -5.9999  -16.2224 O   0  0  0  0  0  0  0  0  0  0  0  0
   21.5693   -6.2992  -14.0949 C   0  0  2  0  0  0  0  0  0  0  0  0
   20.3436   -6.6090  -14.8469 N   0  0  0  0  0  0  0  0  0  0  0  0
   21.6034   -4.8526  -13.8004 C   0  0  0  0  0  0  0  0  0  0  0  0
   20.7913   -4.0944  -14.3547 O   0  0  0  0  0  0  0  0  0  0  0  0
   22.5286   -4.2885  -12.9069 O   0  0  0  0  0  0  0  0  0  0  0  0
  2  1  1  6
  2  3  1  0
  4  2  1  0
  5  4  2  0
  7  6  1  1
  7  8  1  0
  8  4  1  0
  9  7  1  0
  9 15  1  0
 10  9  2  0
 12 11  1  6
 12 14  1  0
 12 13  1  0
 14 15  1  6
 14 16  1  0
 16 18  1  0
 17 16  2  0
M  END
$$$$
