AAF.pdb
     RDKit          3D

 22 22  0  0  1  0  0  0  0  0999 V2000
    5.4657  -18.4583   22.5375 C   0  0  0  0  0  0  0  0  0  0  0  0
    5.7064  -17.8407   21.1786 C   0  0  2  0  0  0  0  0  0  0  0  0
    5.7558  -18.8883   20.1979 N   0  0  0  0  0  0  0  0  0  0  0  0
    6.9125  -16.9801   21.1610 C   0  0  0  0  0  0  0  0  0  0  0  0
    8.0334  -17.5382   21.0397 O   0  0  0  0  0  0  0  0  0  0  0  0
    7.6162  -13.3308   20.9158 C   0  0  0  0  0  0  0  0  0  0  0  0
    8.0884  -14.7679   21.1721 C   0  0  2  0  0  0  0  0  0  0  0  0
    6.8839  -15.5715   21.2719 N   0  0  0  0  0  0  0  0  0  0  0  0
    8.8506  -14.7440   22.4353 C   0  0  0  0  0  0  0  0  0  0  0  0
    9.9772  -14.1784   22.5619 O   0  0  0  0  0  0  0  0  0  0  0  0
    8.3021  -15.3822   23.5648 N   0  0  0  0  0  0  0  0  0  0  0  0
    8.9133  -15.3393   24.8863 C   0  0  1  0  0  0  0  0  0  0  0  0
    7.7806  -15.2884   25.8840 C   0  0  0  0  0  0  0  0  0  0  0  0
    7.3755  -13.9040   26.1912 C   0  0  0  0  0  0  0  0  0  0  0  0
    6.0452  -13.5380   26.0724 C   0  0  0  0  0  0  0  0  0  0  0  0
    5.6044  -12.2641   26.3612 C   0  0  0  0  0  0  0  0  0  0  0  0
    6.5152  -11.3128   26.7846 C   0  0  0  0  0  0  0  0  0  0  0  0
    7.8421  -11.6452   26.9126 C   0  0  0  0  0  0  0  0  0  0  0  0
    8.2525  -12.9318   26.6153 C   0  0  0  0  0  0  0  0  0  0  0  0
    9.6754  -16.5784   25.0815 C   0  0  0  0  0  0  0  0  0  0  0  0
    9.5185  -17.6527   24.2298 O   0  0  0  0  0  0  0  0  0  0  0  0
   10.4814  -16.6763   26.0316 O   0  0  0  0  0  0  0  0  0  0  0  0
  2  1  1  1
  2  4  1  0
  3  2  1  0
  4  8  1  0
  4  5  2  0
  7  6  1  1
  8  7  1  0
  9  7  1  0
  9 10  2  0
 11  9  1  0
 12 11  1  0
 12 13  1  1
 13 14  1  0
 14 19  2  0
 14 15  1  0
 15 16  2  0
 16 17  1  0
 18 17  2  0
 19 18  1  0
 20 12  1  0
 21 20  1  0
 22 20  2  0
M  END
$$$$
