AAF.pdb
     RDKit          3D

 22 22  0  0  1  0  0  0  0  0999 V2000
    5.8577  -18.9932   20.0607 C   0  0  0  0  0  0  0  0  0  0  0  0
    6.4621  -18.6369   21.4000 C   0  0  2  0  0  0  0  0  0  0  0  0
    5.4014  -18.3342   22.3191 N   0  0  0  0  0  0  0  0  0  0  0  0
    7.4575  -17.5447   21.2916 C   0  0  0  0  0  0  0  0  0  0  0  0
    8.5686  -17.8095   20.7646 O   0  0  0  0  0  0  0  0  0  0  0  0
    7.4960  -13.8835   21.3667 C   0  0  0  0  0  0  0  0  0  0  0  0
    8.2530  -15.1925   21.6258 C   0  0  2  0  0  0  0  0  0  0  0  0
    7.2380  -16.2234   21.7429 N   0  0  0  0  0  0  0  0  0  0  0  0
    9.0063  -15.0047   22.8806 C   0  0  0  0  0  0  0  0  0  0  0  0
    9.9613  -14.1817   23.0066 O   0  0  0  0  0  0  0  0  0  0  0  0
    8.6497  -15.7785   24.0022 N   0  0  0  0  0  0  0  0  0  0  0  0
    9.2409  -15.5991   25.3213 C   0  0  1  0  0  0  0  0  0  0  0  0
    8.0946  -15.5358   26.3027 C   0  0  0  0  0  0  0  0  0  0  0  0
    7.4071  -14.2315   26.2671 C   0  0  0  0  0  0  0  0  0  0  0  0
    6.0983  -14.1599   25.8202 C   0  0  0  0  0  0  0  0  0  0  0  0
    5.3991  -12.9725   25.7797 C   0  0  0  0  0  0  0  0  0  0  0  0
    6.0181  -11.8082   26.1978 C   0  0  0  0  0  0  0  0  0  0  0  0
    7.3161  -11.8466   26.6468 C   0  0  0  0  0  0  0  0  0  0  0  0
    7.9902  -13.0536   26.6753 C   0  0  0  0  0  0  0  0  0  0  0  0
   10.0686  -16.7742   25.6185 C   0  0  0  0  0  0  0  0  0  0  0  0
   10.1697  -17.8192   24.7229 O   0  0  0  0  0  0  0  0  0  0  0  0
   10.6957  -16.8434   26.6973 O   0  0  0  0  0  0  0  0  0  0  0  0
  2  1  1  6
  2  4  1  0
  3  2  1  0
  4  8  1  0
  4  5  2  0
  7  6  1  1
  8  7  1  0
  9  7  1  0
  9 10  2  0
 11  9  1  0
 12 11  1  0
 12 13  1  1
 13 14  1  0
 14 19  2  0
 14 15  1  0
 15 16  2  0
 16 17  1  0
 18 17  2  0
 19 18  1  0
 20 12  1  0
 21 20  1  0
 22 20  2  0
M  END
$$$$
