AAF.pdb
     RDKit          3D

 22 22  0  0  1  0  0  0  0  0999 V2000
    6.1558  -19.1614   22.9045 C   0  0  0  0  0  0  0  0  0  0  0  0
    6.1756  -18.5195   21.5357 C   0  0  2  0  0  0  0  0  0  0  0  0
    6.3613  -19.5448   20.5478 N   0  0  0  0  0  0  0  0  0  0  0  0
    7.1851  -17.4392   21.4391 C   0  0  0  0  0  0  0  0  0  0  0  0
    8.3782  -17.7659   21.2099 O   0  0  0  0  0  0  0  0  0  0  0  0
    7.1822  -13.7297   21.2026 C   0  0  0  0  0  0  0  0  0  0  0  0
    7.9206  -15.0446   21.4844 C   0  0  2  0  0  0  0  0  0  0  0  0
    6.8931  -16.0645   21.5880 N   0  0  0  0  0  0  0  0  0  0  0  0
    8.6514  -14.8564   22.7524 C   0  0  0  0  0  0  0  0  0  0  0  0
    9.6401  -14.0748   22.8804 O   0  0  0  0  0  0  0  0  0  0  0  0
    8.2324  -15.5816   23.8849 N   0  0  0  0  0  0  0  0  0  0  0  0
    8.9136  -15.5244   25.1712 C   0  0  1  0  0  0  0  0  0  0  0  0
    7.8445  -15.3090   26.2161 C   0  0  0  0  0  0  0  0  0  0  0  0
    7.5394  -13.8791   26.4091 C   0  0  0  0  0  0  0  0  0  0  0  0
    6.2208  -13.4565   26.4226 C   0  0  0  0  0  0  0  0  0  0  0  0
    5.8736  -12.1363   26.6151 C   0  0  0  0  0  0  0  0  0  0  0  0
    6.8700  -11.1950   26.8018 C   0  0  0  0  0  0  0  0  0  0  0  0
    8.1879  -11.5831   26.7938 C   0  0  0  0  0  0  0  0  0  0  0  0
    8.5034  -12.9152   26.5985 C   0  0  0  0  0  0  0  0  0  0  0  0
    9.5654  -16.8185   25.4049 C   0  0  0  0  0  0  0  0  0  0  0  0
    9.4667  -17.8422   24.4848 O   0  0  0  0  0  0  0  0  0  0  0  0
   10.2221  -17.0106   26.4507 O   0  0  0  0  0  0  0  0  0  0  0  0
  2  1  1  1
  2  4  1  0
  3  2  1  0
  4  8  1  0
  4  5  2  0
  7  6  1  1
  8  7  1  0
  9  7  1  0
  9 10  2  0
 11  9  1  0
 12 11  1  0
 12 13  1  1
 13 14  1  0
 14 19  2  0
 14 15  1  0
 15 16  2  0
 16 17  1  0
 18 17  2  0
 19 18  1  0
 20 12  1  0
 21 20  1  0
 22 20  2  0
M  END
$$$$
