AAF.pdb
     RDKit          3D

 22 22  0  0  1  0  0  0  0  0999 V2000
    8.6068  -12.1651   20.1499 C   0  0  0  0  0  0  0  0  0  0  0  0
    8.2246  -13.4803   19.5094 C   0  0  2  0  0  0  0  0  0  0  0  0
    7.0926  -13.2647   18.6528 N   0  0  0  0  0  0  0  0  0  0  0  0
    7.9907  -14.5444   20.5136 C   0  0  0  0  0  0  0  0  0  0  0  0
    6.8463  -14.6271   21.0295 O   0  0  0  0  0  0  0  0  0  0  0  0
    9.4551  -17.7184   21.5678 C   0  0  0  0  0  0  0  0  0  0  0  0
    8.7194  -16.4379   21.9835 C   0  0  2  0  0  0  0  0  0  0  0  0
    8.9718  -15.4730   20.9291 N   0  0  0  0  0  0  0  0  0  0  0  0
    9.2967  -16.0184   23.2750 C   0  0  0  0  0  0  0  0  0  0  0  0
   10.4150  -15.4331   23.3842 O   0  0  0  0  0  0  0  0  0  0  0  0
    8.5708  -16.2796   24.4535 N   0  0  0  0  0  0  0  0  0  0  0  0
    9.0349  -15.9024   25.7817 C   0  0  1  0  0  0  0  0  0  0  0  0
    7.8017  -15.6017   26.6002 C   0  0  0  0  0  0  0  0  0  0  0  0
    7.3086  -14.2302   26.3744 C   0  0  0  0  0  0  0  0  0  0  0  0
    8.0442  -13.1533   26.8400 C   0  0  0  0  0  0  0  0  0  0  0  0
    7.6425  -11.8490   26.6449 C   0  0  0  0  0  0  0  0  0  0  0  0
    6.4660  -11.5983   25.9619 C   0  0  0  0  0  0  0  0  0  0  0  0
    5.7140  -12.6457   25.4873 C   0  0  0  0  0  0  0  0  0  0  0  0
    6.1443  -13.9427   25.6993 C   0  0  0  0  0  0  0  0  0  0  0  0
    9.7367  -17.0507   26.3675 C   0  0  0  0  0  0  0  0  0  0  0  0
   10.6521  -16.8821   27.3863 O   0  0  0  0  0  0  0  0  0  0  0  0
    9.5125  -18.2053   25.9449 O   0  0  0  0  0  0  0  0  0  0  0  0
  2  1  1  1
  2  4  1  0
  3  2  1  0
  4  8  1  0
  4  5  2  0
  7  6  1  6
  8  7  1  0
  9  7  1  0
  9 10  2  0
 11  9  1  0
 12 11  1  0
 12 13  1  1
 13 14  1  0
 14 19  2  0
 14 15  1  0
 15 16  2  0
 16 17  1  0
 18 17  2  0
 19 18  1  0
 20 12  1  0
 21 20  1  0
 22 20  2  0
M  END
$$$$
