AAF.pdb
     RDKit          3D

 22 22  0  0  1  0  0  0  0  0999 V2000
    5.9585  -18.4818   19.2881 C   0  0  0  0  0  0  0  0  0  0  0  0
    6.5614  -18.3404   20.6674 C   0  0  2  0  0  0  0  0  0  0  0  0
    5.4987  -18.2182   21.6252 N   0  0  0  0  0  0  0  0  0  0  0  0
    7.5327  -17.2239   20.7415 C   0  0  0  0  0  0  0  0  0  0  0  0
    8.7130  -17.4433   20.3657 O   0  0  0  0  0  0  0  0  0  0  0  0
    7.3265  -13.5530   21.0254 C   0  0  0  0  0  0  0  0  0  0  0  0
    8.1668  -14.8321   21.1340 C   0  0  2  0  0  0  0  0  0  0  0  0
    7.2175  -15.9275   21.2078 N   0  0  0  0  0  0  0  0  0  0  0  0
    8.9720  -14.7064   22.3641 C   0  0  0  0  0  0  0  0  0  0  0  0
    9.9473  -13.9066   22.4829 O   0  0  0  0  0  0  0  0  0  0  0  0
    8.6441  -15.5160   23.4691 N   0  0  0  0  0  0  0  0  0  0  0  0
    9.3307  -15.4394   24.7515 C   0  0  1  0  0  0  0  0  0  0  0  0
    8.2614  -15.4910   25.8169 C   0  0  0  0  0  0  0  0  0  0  0  0
    7.6686  -14.1646   26.0707 C   0  0  0  0  0  0  0  0  0  0  0  0
    8.4903  -13.0994   26.3991 C   0  0  0  0  0  0  0  0  0  0  0  0
    7.9959  -11.8336   26.6313 C   0  0  0  0  0  0  0  0  0  0  0  0
    6.6340  -11.6110   26.5350 C   0  0  0  0  0  0  0  0  0  0  0  0
    5.7926  -12.6476   26.2107 C   0  0  0  0  0  0  0  0  0  0  0  0
    6.3197  -13.9057   25.9837 C   0  0  0  0  0  0  0  0  0  0  0  0
   10.1992  -16.6156   24.8797 C   0  0  0  0  0  0  0  0  0  0  0  0
   11.0796  -16.7392   25.9351 O   0  0  0  0  0  0  0  0  0  0  0  0
   10.1523  -17.5265   24.0253 O   0  0  0  0  0  0  0  0  0  0  0  0
  2  1  1  6
  2  4  1  0
  3  2  1  0
  4  8  1  0
  4  5  2  0
  7  6  1  1
  8  7  1  0
  9  7  1  0
  9 10  2  0
 11  9  1  0
 12 11  1  0
 12 13  1  1
 13 14  1  0
 14 19  2  0
 14 15  1  0
 15 16  2  0
 16 17  1  0
 18 17  2  0
 19 18  1  0
 20 12  1  0
 21 20  1  0
 22 20  2  0
M  END
$$$$
