HSW.pdb
     RDKit          3D

 31 33  0  0  1  0  0  0  0  0999 V2000
   10.9087  -18.7229   19.4378 N   0  0  0  0  0  0  0  0  0  0  0  0
   10.6133  -17.3163   19.5047 C   0  0  1  0  0  0  0  0  0  0  0  0
   10.5575  -16.7474   18.1179 C   0  0  0  0  0  0  0  0  0  0  0  0
   11.8763  -16.9656   17.4849 C   0  0  0  0  0  0  0  0  0  0  0  0
   13.0157  -16.2077   17.6322 C   0  0  0  0  0  0  0  0  0  0  0  0
   13.9937  -16.7763   16.8655 N   0  0  0  0  0  0  0  0  0  0  0  0
   13.4774  -17.8526   16.2619 C   0  0  0  0  0  0  0  0  0  0  0  0
   12.1930  -17.9626   16.6409 N   0  0  0  0  0  0  0  0  0  0  0  0
    9.4044  -17.0327   20.3130 C   0  0  0  0  0  0  0  0  0  0  0  0
    8.3163  -16.8344   19.6970 O   0  0  0  0  0  0  0  0  0  0  0  0
    8.8483  -19.8500   22.8695 O   0  0  0  0  0  0  0  0  0  0  0  0
    8.0910  -18.9245   22.1927 C   0  0  0  0  0  0  0  0  0  0  0  0
    8.3524  -17.5027   22.5654 C   0  0  2  0  0  0  0  0  0  0  0  0
    9.3970  -16.9716   21.7258 N   0  0  0  0  0  0  0  0  0  0  0  0
    8.6764  -17.3471   24.0005 C   0  0  0  0  0  0  0  0  0  0  0  0
    7.9398  -17.8975   24.8621 O   0  0  0  0  0  0  0  0  0  0  0  0
    9.7610  -16.6218   24.5062 N   0  0  0  0  0  0  0  0  0  0  0  0
   10.0742  -16.4283   25.8914 C   0  0  1  0  0  0  0  0  0  0  0  0
    8.9625  -16.1353   26.7891 C   0  0  0  0  0  0  0  0  0  0  0  0
    7.8339  -15.3520   26.2387 C   0  0  0  0  0  0  0  0  0  0  0  0
    6.6865  -15.9453   25.6731 C   0  0  0  0  0  0  0  0  0  0  0  0
    5.8153  -14.9743   25.3052 N   0  0  0  0  0  0  0  0  0  0  0  0
    6.3262  -13.7902   25.5960 C   0  0  0  0  0  0  0  0  0  0  0  0
    5.8562  -12.5119   25.4190 C   0  0  0  0  0  0  0  0  0  0  0  0
    6.5939  -11.4010   25.7996 C   0  0  0  0  0  0  0  0  0  0  0  0
    7.8420  -11.6405   26.3733 C   0  0  0  0  0  0  0  0  0  0  0  0
    8.3227  -12.9181   26.5558 C   0  0  0  0  0  0  0  0  0  0  0  0
    7.5647  -14.0126   26.1682 C   0  0  0  0  0  0  0  0  0  0  0  0
   10.9163  -17.5302   26.3480 C   0  0  0  0  0  0  0  0  0  0  0  0
   11.4005  -17.6597   27.5057 O   0  0  0  0  0  0  0  0  0  0  0  0
   11.2611  -18.5817   25.4702 O   0  0  0  0  0  0  0  0  0  0  0  0
  2  1  1  6
  2  9  1  0
  2  3  1  0
  3  4  1  0
  4  5  2  0
  4  8  1  0
  5  6  1  0
  6  7  1  0
  8  7  2  0
  9 10  2  0
 11 12  1  0
 13 12  1  6
 14 13  1  0
 14  9  1  0
 15 17  1  0
 15 13  1  0
 16 15  2  0
 18 19  1  1
 18 17  1  0
 19 20  1  0
 20 21  2  0
 21 22  1  0
 23 22  1  0
 24 23  2  0
 25 24  1  0
 26 27  1  0
 26 25  2  0
 27 28  2  0
 28 20  1  0
 28 23  1  0
 29 31  1  0
 29 18  1  0
 30 29  2  0
M  END
$$$$
