HSW.pdb
     RDKit          3D

 31 33  0  0  1  0  0  0  0  0999 V2000
    8.2552  -16.8844   18.8257 N   0  0  0  0  0  0  0  0  0  0  0  0
    8.5906  -16.0226   19.9280 C   0  0  1  0  0  0  0  0  0  0  0  0
    7.6676  -14.8403   19.9412 C   0  0  0  0  0  0  0  0  0  0  0  0
    7.9451  -14.0349   18.7322 C   0  0  0  0  0  0  0  0  0  0  0  0
    8.8047  -12.9667   18.6121 C   0  0  0  0  0  0  0  0  0  0  0  0
    8.7449  -12.5300   17.3186 N   0  0  0  0  0  0  0  0  0  0  0  0
    7.8760  -13.3026   16.6573 C   0  0  0  0  0  0  0  0  0  0  0  0
    7.3938  -14.2136   17.5194 N   0  0  0  0  0  0  0  0  0  0  0  0
    8.6422  -16.7515   21.2170 C   0  0  0  0  0  0  0  0  0  0  0  0
    7.5615  -17.2367   21.6636 O   0  0  0  0  0  0  0  0  0  0  0  0
   11.1108  -19.6455   24.0447 O   0  0  0  0  0  0  0  0  0  0  0  0
   10.9289  -18.8124   22.9672 C   0  0  0  0  0  0  0  0  0  0  0  0
    9.9175  -17.7331   23.1690 C   0  0  2  0  0  0  0  0  0  0  0  0
    9.8234  -16.9349   21.9723 N   0  0  0  0  0  0  0  0  0  0  0  0
   10.2113  -16.9008   24.3562 C   0  0  0  0  0  0  0  0  0  0  0  0
   10.9132  -15.8627   24.2232 O   0  0  0  0  0  0  0  0  0  0  0  0
    9.7669  -17.1681   25.6560 N   0  0  0  0  0  0  0  0  0  0  0  0
   10.0868  -16.4099   26.8295 C   0  0  1  0  0  0  0  0  0  0  0  0
    8.9698  -15.9327   27.6369 C   0  0  0  0  0  0  0  0  0  0  0  0
    7.8773  -15.2244   26.9332 C   0  0  0  0  0  0  0  0  0  0  0  0
    6.7837  -15.8885   26.3404 C   0  0  0  0  0  0  0  0  0  0  0  0
    5.9318  -14.9717   25.8199 N   0  0  0  0  0  0  0  0  0  0  0  0
    6.4049  -13.7566   26.0371 C   0  0  0  0  0  0  0  0  0  0  0  0
    5.9348  -12.5090   25.7077 C   0  0  0  0  0  0  0  0  0  0  0  0
    6.6280  -11.3542   26.0380 C   0  0  0  0  0  0  0  0  0  0  0  0
    7.8313  -11.5167   26.7234 C   0  0  0  0  0  0  0  0  0  0  0  0
    8.3117  -12.7629   27.0591 C   0  0  0  0  0  0  0  0  0  0  0  0
    7.5986  -13.9024   26.7188 C   0  0  0  0  0  0  0  0  0  0  0  0
   11.0972  -17.1287   27.6005 C   0  0  0  0  0  0  0  0  0  0  0  0
   11.6178  -16.7386   28.6814 O   0  0  0  0  0  0  0  0  0  0  0  0
   11.5828  -18.3791   27.1581 O   0  0  0  0  0  0  0  0  0  0  0  0
  2  1  1  6
  2  9  1  0
  2  3  1  0
  3  4  1  0
  4  5  2  0
  4  8  1  0
  5  6  1  0
  6  7  1  0
  8  7  2  0
  9 10  2  0
 11 12  1  0
 13 12  1  6
 14 13  1  0
 14  9  1  0
 15 17  1  0
 15 13  1  0
 16 15  2  0
 18 19  1  1
 18 17  1  0
 19 20  1  0
 20 21  2  0
 21 22  1  0
 23 22  1  0
 24 23  2  0
 25 24  1  0
 26 27  1  0
 26 25  2  0
 27 28  2  0
 28 20  1  0
 28 23  1  0
 29 31  1  0
 29 18  1  0
 30 29  2  0
M  END
$$$$
