HSW.pdb
     RDKit          3D

 31 33  0  0  1  0  0  0  0  0999 V2000
    8.1299  -16.8627   19.1694 N   0  0  0  0  0  0  0  0  0  0  0  0
    8.6430  -16.0592   20.2470 C   0  0  1  0  0  0  0  0  0  0  0  0
    7.8178  -14.8140   20.3831 C   0  0  0  0  0  0  0  0  0  0  0  0
    7.9666  -14.0329   19.1360 C   0  0  0  0  0  0  0  0  0  0  0  0
    8.6776  -12.8689   18.9523 C   0  0  0  0  0  0  0  0  0  0  0  0
    8.5385  -12.5004   17.6437 N   0  0  0  0  0  0  0  0  0  0  0  0
    7.7658  -13.4069   17.0350 C   0  0  0  0  0  0  0  0  0  0  0  0
    7.4217  -14.3341   17.9447 N   0  0  0  0  0  0  0  0  0  0  0  0
    8.7748  -16.8262   21.5078 C   0  0  0  0  0  0  0  0  0  0  0  0
    7.8043  -17.5613   21.8550 O   0  0  0  0  0  0  0  0  0  0  0  0
   12.3881  -17.9663   22.8910 O   0  0  0  0  0  0  0  0  0  0  0  0
   11.2177  -18.5303   23.3384 C   0  0  0  0  0  0  0  0  0  0  0  0
   10.0911  -17.5708   23.5360 C   0  0  2  0  0  0  0  0  0  0  0  0
    9.9168  -16.7840   22.3406 N   0  0  0  0  0  0  0  0  0  0  0  0
   10.2827  -16.7149   24.7273 C   0  0  0  0  0  0  0  0  0  0  0  0
   10.8888  -15.6167   24.6065 O   0  0  0  0  0  0  0  0  0  0  0  0
    9.8382  -17.0219   26.0182 N   0  0  0  0  0  0  0  0  0  0  0  0
   10.2369  -16.3625   27.2267 C   0  0  1  0  0  0  0  0  0  0  0  0
    9.2258  -15.5672   27.9142 C   0  0  0  0  0  0  0  0  0  0  0  0
    8.1122  -15.0332   27.0988 C   0  0  0  0  0  0  0  0  0  0  0  0
    7.1227  -15.8507   26.5147 C   0  0  0  0  0  0  0  0  0  0  0  0
    6.2177  -15.0706   25.8748 N   0  0  0  0  0  0  0  0  0  0  0  0
    6.5589  -13.8002   26.0066 C   0  0  0  0  0  0  0  0  0  0  0  0
    5.9907  -12.6378   25.5461 C   0  0  0  0  0  0  0  0  0  0  0  0
    6.5501  -11.3958   25.8064 C   0  0  0  0  0  0  0  0  0  0  0  0
    7.7225  -11.3791   26.5609 C   0  0  0  0  0  0  0  0  0  0  0  0
    8.3004  -12.5386   27.0280 C   0  0  0  0  0  0  0  0  0  0  0  0
    7.7205  -13.7683   26.7554 C   0  0  0  0  0  0  0  0  0  0  0  0
   10.9102  -17.3245   28.0946 C   0  0  0  0  0  0  0  0  0  0  0  0
   11.4875  -17.0590   29.1844 O   0  0  0  0  0  0  0  0  0  0  0  0
   10.9595  -18.6928   27.7475 O   0  0  0  0  0  0  0  0  0  0  0  0
  2  1  1  6
  2  9  1  0
  2  3  1  0
  3  4  1  0
  4  5  2  0
  4  8  1  0
  5  6  1  0
  6  7  1  0
  8  7  2  0
  9 10  2  0
 11 12  1  0
 13 12  1  6
 14 13  1  0
 14  9  1  0
 15 17  1  0
 15 13  1  0
 16 15  2  0
 18 19  1  1
 18 17  1  0
 19 20  1  0
 20 21  2  0
 21 22  1  0
 23 22  1  0
 24 23  2  0
 25 24  1  0
 26 27  1  0
 26 25  2  0
 27 28  2  0
 28 20  1  0
 28 23  1  0
 29 31  1  0
 29 18  1  0
 30 29  2  0
M  END
$$$$
