HSW.pdb
     RDKit          3D

 31 33  0  0  1  0  0  0  0  0999 V2000
    9.2652  -18.2282   17.3415 N   0  0  0  0  0  0  0  0  0  0  0  0
   10.1187  -17.7277   18.3861 C   0  0  1  0  0  0  0  0  0  0  0  0
   10.6705  -16.3911   17.9877 C   0  0  0  0  0  0  0  0  0  0  0  0
   11.6841  -16.6147   16.9341 C   0  0  0  0  0  0  0  0  0  0  0  0
   13.0198  -16.9030   17.0994 C   0  0  0  0  0  0  0  0  0  0  0  0
   13.5735  -17.0289   15.8564 N   0  0  0  0  0  0  0  0  0  0  0  0
   12.6121  -16.8252   14.9490 C   0  0  0  0  0  0  0  0  0  0  0  0
   11.4683  -16.5744   15.6081 N   0  0  0  0  0  0  0  0  0  0  0  0
    9.4486  -17.7248   19.7076 C   0  0  0  0  0  0  0  0  0  0  0  0
    8.4592  -16.9509   19.8652 O   0  0  0  0  0  0  0  0  0  0  0  0
   10.2755  -20.6052   22.7708 O   0  0  0  0  0  0  0  0  0  0  0  0
    9.0847  -19.9495   22.5703 C   0  0  0  0  0  0  0  0  0  0  0  0
    9.2136  -18.5417   22.0904 C   0  0  2  0  0  0  0  0  0  0  0  0
    9.8493  -18.5329   20.7966 N   0  0  0  0  0  0  0  0  0  0  0  0
    9.9328  -17.6815   23.0555 C   0  0  0  0  0  0  0  0  0  0  0  0
   11.1125  -17.3200   22.7995 O   0  0  0  0  0  0  0  0  0  0  0  0
    9.4067  -17.2164   24.2660 N   0  0  0  0  0  0  0  0  0  0  0  0
   10.1048  -16.4360   25.2448 C   0  0  1  0  0  0  0  0  0  0  0  0
    9.7476  -15.0256   25.3478 C   0  0  0  0  0  0  0  0  0  0  0  0
    8.3480  -14.7043   25.7057 C   0  0  0  0  0  0  0  0  0  0  0  0
    7.3421  -15.6832   25.8407 C   0  0  0  0  0  0  0  0  0  0  0  0
    6.1855  -15.0875   26.2211 N   0  0  0  0  0  0  0  0  0  0  0  0
    6.3786  -13.7851   26.3401 C   0  0  0  0  0  0  0  0  0  0  0  0
    5.5394  -12.7538   26.6840 C   0  0  0  0  0  0  0  0  0  0  0  0
    5.9756  -11.4382   26.7283 C   0  0  0  0  0  0  0  0  0  0  0  0
    7.3123  -11.2070   26.4059 C   0  0  0  0  0  0  0  0  0  0  0  0
    8.1626  -12.2337   26.0602 C   0  0  0  0  0  0  0  0  0  0  0  0
    7.7023  -13.5413   26.0250 C   0  0  0  0  0  0  0  0  0  0  0  0
   10.0752  -17.1391   26.5241 C   0  0  0  0  0  0  0  0  0  0  0  0
   10.6867  -16.7929   27.5719 O   0  0  0  0  0  0  0  0  0  0  0  0
    9.3151  -18.3197   26.6772 O   0  0  0  0  0  0  0  0  0  0  0  0
  2  1  1  6
  2  9  1  0
  2  3  1  0
  3  4  1  0
  4  5  2  0
  4  8  1  0
  5  6  1  0
  6  7  1  0
  8  7  2  0
  9 10  2  0
 11 12  1  0
 13 12  1  1
 14 13  1  0
 14  9  1  0
 15 17  1  0
 15 13  1  0
 16 15  2  0
 18 19  1  1
 18 17  1  0
 19 20  1  0
 20 21  2  0
 21 22  1  0
 23 22  1  0
 24 23  2  0
 25 24  1  0
 26 27  1  0
 26 25  2  0
 27 28  2  0
 28 20  1  0
 28 23  1  0
 29 31  1  0
 29 18  1  0
 30 29  2  0
M  END
$$$$
