HSW.pdb
     RDKit          3D

 31 33  0  0  1  0  0  0  0  0999 V2000
    9.7388  -17.8403   16.6064 N   0  0  0  0  0  0  0  0  0  0  0  0
   10.5196  -17.6101   17.7929 C   0  0  1  0  0  0  0  0  0  0  0  0
   11.6278  -16.6467   17.4869 C   0  0  0  0  0  0  0  0  0  0  0  0
   12.6399  -17.3615   16.6793 C   0  0  0  0  0  0  0  0  0  0  0  0
   13.6748  -18.1480   17.1319 C   0  0  0  0  0  0  0  0  0  0  0  0
   14.3557  -18.6061   16.0392 N   0  0  0  0  0  0  0  0  0  0  0  0
   13.7622  -18.1194   14.9437 C   0  0  0  0  0  0  0  0  0  0  0  0
   12.7222  -17.3651   15.3377 N   0  0  0  0  0  0  0  0  0  0  0  0
    9.6832  -17.2074   18.9478 C   0  0  0  0  0  0  0  0  0  0  0  0
    8.9726  -16.1667   18.8267 O   0  0  0  0  0  0  0  0  0  0  0  0
    8.4404  -19.8473   21.9170 O   0  0  0  0  0  0  0  0  0  0  0  0
    7.8643  -18.6370   21.6147 C   0  0  0  0  0  0  0  0  0  0  0  0
    8.8285  -17.5400   21.3056 C   0  0  2  0  0  0  0  0  0  0  0  0
    9.6340  -17.9158   20.1707 N   0  0  0  0  0  0  0  0  0  0  0  0
    9.6655  -17.1809   22.4714 C   0  0  0  0  0  0  0  0  0  0  0  0
   10.8361  -17.6396   22.5549 O   0  0  0  0  0  0  0  0  0  0  0  0
    9.2643  -16.3511   23.5245 N   0  0  0  0  0  0  0  0  0  0  0  0
   10.0327  -16.0413   24.6941 C   0  0  1  0  0  0  0  0  0  0  0  0
    9.7865  -14.7510   25.3281 C   0  0  0  0  0  0  0  0  0  0  0  0
    8.3873  -14.4253   25.6834 C   0  0  0  0  0  0  0  0  0  0  0  0
    7.3740  -15.3991   25.7990 C   0  0  0  0  0  0  0  0  0  0  0  0
    6.2196  -14.8010   26.1820 N   0  0  0  0  0  0  0  0  0  0  0  0
    6.4209  -13.5018   26.3207 C   0  0  0  0  0  0  0  0  0  0  0  0
    5.5869  -12.4698   26.6749 C   0  0  0  0  0  0  0  0  0  0  0  0
    6.0318  -11.1579   26.7404 C   0  0  0  0  0  0  0  0  0  0  0  0
    7.3717  -10.9313   26.4282 C   0  0  0  0  0  0  0  0  0  0  0  0
    8.2168  -11.9588   26.0723 C   0  0  0  0  0  0  0  0  0  0  0  0
    7.7478  -13.2625   26.0159 C   0  0  0  0  0  0  0  0  0  0  0  0
    9.9652  -17.1677   25.6208 C   0  0  0  0  0  0  0  0  0  0  0  0
    9.1160  -18.1002   25.5898 O   0  0  0  0  0  0  0  0  0  0  0  0
   10.9017  -17.2906   26.6709 O   0  0  0  0  0  0  0  0  0  0  0  0
  2  1  1  6
  2  9  1  0
  2  3  1  0
  3  4  1  0
  4  5  2  0
  4  8  1  0
  5  6  1  0
  6  7  1  0
  8  7  2  0
  9 10  2  0
 11 12  1  0
 13 12  1  1
 14 13  1  0
 14  9  1  0
 15 17  1  0
 15 13  1  0
 16 15  2  0
 18 19  1  1
 18 17  1  0
 19 20  1  0
 20 21  2  0
 21 22  1  0
 23 22  1  0
 24 23  2  0
 25 24  1  0
 26 27  1  0
 26 25  2  0
 27 28  2  0
 28 20  1  0
 28 23  1  0
 29 31  1  0
 29 18  1  0
 30 29  2  0
M  END
$$$$
