DPP.pdb
     RDKit          3D

 23 24  0  0  1  0  0  0  0  0999 V2000
   11.8969  -16.9581   21.0403 N   0  0  0  0  0  0  0  0  0  0  0  0
   10.4598  -17.0910   21.3276 C   0  0  1  0  0  0  0  0  0  0  0  0
   10.2138  -18.4263   22.0214 C   0  0  0  0  0  0  0  0  0  0  0  0
   10.6595  -19.5409   21.1469 C   0  0  0  0  0  0  0  0  0  0  0  0
   10.7897  -20.6998   21.6301 O   0  0  0  0  0  0  0  0  0  0  0  0
    9.9980  -15.9585   22.1561 C   0  0  0  0  0  0  0  0  0  0  0  0
   10.8434  -15.4370   22.9540 O   0  0  0  0  0  0  0  0  0  0  0  0
   10.9452  -19.3735   19.8049 O   0  0  0  0  0  0  0  0  0  0  0  0
    8.6875  -15.4333   22.1084 N   0  0  0  0  0  0  0  0  0  0  0  0
    7.6955  -15.8167   21.1339 C   0  0  0  0  0  0  0  0  0  0  0  0
    6.9677  -14.4743   20.9514 C   0  0  0  0  0  0  0  0  0  0  0  0
    6.6925  -14.2092   22.4209 C   0  0  0  0  0  0  0  0  0  0  0  0
    8.0865  -14.4452   22.9728 C   0  0  1  0  0  0  0  0  0  0  0  0
    8.0467  -14.8860   24.3982 C   0  0  0  0  0  0  0  0  0  0  0  0
    8.4887  -16.0431   24.6198 O   0  0  0  0  0  0  0  0  0  0  0  0
    7.5422  -14.0508   25.4318 N   0  0  0  0  0  0  0  0  0  0  0  0
    6.9452  -12.7429   25.3391 C   0  0  0  0  0  0  0  0  0  0  0  0
    6.9689  -12.1602   26.7246 C   0  0  0  0  0  0  0  0  0  0  0  0
    7.7507  -13.1101   27.5697 C   0  0  0  0  0  0  0  0  0  0  0  0
    7.5575  -14.4229   26.8347 C   0  0  1  0  0  0  0  0  0  0  0  0
    6.3208  -15.1183   27.2188 C   0  0  0  0  0  0  0  0  0  0  0  0
    5.2929  -14.9830   26.5204 O   0  0  0  0  0  0  0  0  0  0  0  0
    6.2827  -15.9134   28.3346 O   0  0  0  0  0  0  0  0  0  0  0  0
  2  1  1  1
  2  3  1  0
  3  4  1  0
  4  8  1  0
  5  4  2  0
  6  9  1  0
  6  2  1  0
  7  6  2  0
  9 13  1  0
 10 11  1  0
 10  9  1  0
 11 12  1  0
 12 13  1  0
 13 14  1  1
 14 16  1  0
 15 14  2  0
 16 20  1  0
 17 16  1  0
 17 18  1  0
 18 19  1  0
 20 21  1  1
 20 19  1  0
 21 23  1  0
 22 21  2  0
M  END
$$$$
