DPP.pdb
     RDKit          3D

 23 24  0  0  1  0  0  0  0  0999 V2000
   12.2549  -16.3931   21.0536 N   0  0  0  0  0  0  0  0  0  0  0  0
   10.9118  -16.8437   21.4518 C   0  0  1  0  0  0  0  0  0  0  0  0
   11.0401  -18.1242   22.2696 C   0  0  0  0  0  0  0  0  0  0  0  0
   12.4516  -18.3179   22.6890 C   0  0  0  0  0  0  0  0  0  0  0  0
   13.0594  -19.3760   22.3658 O   0  0  0  0  0  0  0  0  0  0  0  0
   10.2226  -15.7825   22.2140 C   0  0  0  0  0  0  0  0  0  0  0  0
   10.9348  -15.0654   22.9898 O   0  0  0  0  0  0  0  0  0  0  0  0
   13.1494  -17.3823   23.4295 O   0  0  0  0  0  0  0  0  0  0  0  0
    8.8359  -15.5272   22.1271 N   0  0  0  0  0  0  0  0  0  0  0  0
    7.9449  -16.1938   21.2092 C   0  0  0  0  0  0  0  0  0  0  0  0
    6.9738  -15.0430   20.8964 C   0  0  0  0  0  0  0  0  0  0  0  0
    6.6399  -14.6840   22.3335 C   0  0  0  0  0  0  0  0  0  0  0  0
    8.0483  -14.5885   22.8909 C   0  0  1  0  0  0  0  0  0  0  0  0
    8.0816  -14.8777   24.3548 C   0  0  0  0  0  0  0  0  0  0  0  0
    8.6781  -15.9354   24.6844 O   0  0  0  0  0  0  0  0  0  0  0  0
    7.4783  -14.0128   25.3079 N   0  0  0  0  0  0  0  0  0  0  0  0
    6.6171  -12.8778   25.0945 C   0  0  0  0  0  0  0  0  0  0  0  0
    6.6035  -12.1004   26.3810 C   0  0  0  0  0  0  0  0  0  0  0  0
    7.6165  -12.7390   27.2719 C   0  0  0  0  0  0  0  0  0  0  0  0
    7.6567  -14.1594   26.7409 C   0  0  1  0  0  0  0  0  0  0  0  0
    6.6182  -15.0196   27.3257 C   0  0  0  0  0  0  0  0  0  0  0  0
    5.5562  -15.2207   26.6978 O   0  0  0  0  0  0  0  0  0  0  0  0
    6.8018  -15.6035   28.5521 O   0  0  0  0  0  0  0  0  0  0  0  0
  2  1  1  1
  2  3  1  0
  3  4  1  0
  4  8  1  0
  5  4  2  0
  6  9  1  0
  6  2  1  0
  7  6  2  0
  9 13  1  0
 10 11  1  0
 10  9  1  0
 11 12  1  0
 12 13  1  0
 13 14  1  1
 14 16  1  0
 15 14  2  0
 16 20  1  0
 17 16  1  0
 17 18  1  0
 18 19  1  0
 20 21  1  1
 20 19  1  0
 21 23  1  0
 22 21  2  0
M  END
$$$$
