DPP.pdb
     RDKit          3D

 23 24  0  0  1  0  0  0  0  0999 V2000
   11.2740  -16.2421   19.7283 N   0  0  0  0  0  0  0  0  0  0  0  0
   10.5187  -16.8542   20.8329 C   0  0  1  0  0  0  0  0  0  0  0  0
   11.4802  -17.6455   21.7129 C   0  0  0  0  0  0  0  0  0  0  0  0
   12.1411  -18.7079   20.9128 C   0  0  0  0  0  0  0  0  0  0  0  0
   13.3774  -18.6288   20.6698 O   0  0  0  0  0  0  0  0  0  0  0  0
    9.8110  -15.8133   21.6059 C   0  0  0  0  0  0  0  0  0  0  0  0
   10.4567  -14.7492   21.8784 O   0  0  0  0  0  0  0  0  0  0  0  0
   11.4609  -19.8011   20.4098 O   0  0  0  0  0  0  0  0  0  0  0  0
    8.4759  -15.9365   22.0507 N   0  0  0  0  0  0  0  0  0  0  0  0
    7.6182  -17.0543   21.7412 C   0  0  0  0  0  0  0  0  0  0  0  0
    6.2657  -16.3306   21.6310 C   0  0  0  0  0  0  0  0  0  0  0  0
    6.3245  -15.6188   22.9709 C   0  0  0  0  0  0  0  0  0  0  0  0
    7.7139  -15.0175   22.8629 C   0  0  1  0  0  0  0  0  0  0  0  0
    8.3271  -14.8039   24.2068 C   0  0  0  0  0  0  0  0  0  0  0  0
    9.3675  -15.4723   24.4397 O   0  0  0  0  0  0  0  0  0  0  0  0
    7.7690  -13.9048   25.1557 N   0  0  0  0  0  0  0  0  0  0  0  0
    6.6050  -13.0635   25.0417 C   0  0  0  0  0  0  0  0  0  0  0  0
    6.7021  -12.0437   26.1418 C   0  0  0  0  0  0  0  0  0  0  0  0
    8.0409  -12.2302   26.7746 C   0  0  0  0  0  0  0  0  0  0  0  0
    8.3342  -13.6881   26.4750 C   0  0  1  0  0  0  0  0  0  0  0  0
    7.7521  -14.6051   27.4653 C   0  0  0  0  0  0  0  0  0  0  0  0
    6.6979  -15.2198   27.1941 O   0  0  0  0  0  0  0  0  0  0  0  0
    8.3528  -14.7933   28.6828 O   0  0  0  0  0  0  0  0  0  0  0  0
  2  1  1  6
  2  3  1  0
  3  4  1  0
  4  8  1  0
  5  4  2  0
  6  9  1  0
  6  2  1  0
  7  6  2  0
  9 13  1  0
 10 11  1  0
 10  9  1  0
 11 12  1  0
 12 13  1  0
 13 14  1  1
 14 16  1  0
 15 14  2  0
 16 20  1  0
 17 16  1  0
 17 18  1  0
 18 19  1  0
 20 21  1  1
 20 19  1  0
 21 23  1  0
 22 21  2  0
M  END
$$$$
