DPP.pdb
     RDKit          3D

 23 24  0  0  1  0  0  0  0  0999 V2000
   11.3373  -16.5182   20.4018 N   0  0  0  0  0  0  0  0  0  0  0  0
   10.1581  -16.8441   21.2194 C   0  0  1  0  0  0  0  0  0  0  0  0
   10.2217  -18.3144   21.6183 C   0  0  0  0  0  0  0  0  0  0  0  0
   10.0773  -19.1723   20.4146 C   0  0  0  0  0  0  0  0  0  0  0  0
    8.9826  -19.1871   19.7861 O   0  0  0  0  0  0  0  0  0  0  0  0
   10.1000  -15.9647   22.4049 C   0  0  0  0  0  0  0  0  0  0  0  0
   11.2060  -15.5246   22.8591 O   0  0  0  0  0  0  0  0  0  0  0  0
   11.0983  -19.9717   19.9361 O   0  0  0  0  0  0  0  0  0  0  0  0
    8.8991  -15.5932   23.0493 N   0  0  0  0  0  0  0  0  0  0  0  0
    7.5816  -15.8908   22.5428 C   0  0  0  0  0  0  0  0  0  0  0  0
    6.8285  -14.6305   23.0005 C   0  0  0  0  0  0  0  0  0  0  0  0
    7.2368  -14.6887   24.4618 C   0  0  0  0  0  0  0  0  0  0  0  0
    8.7338  -14.8667   24.2862 C   0  0  1  0  0  0  0  0  0  0  0  0
    9.3436  -15.5773   25.4484 C   0  0  0  0  0  0  0  0  0  0  0  0
    9.6749  -16.7730   25.2389 O   0  0  0  0  0  0  0  0  0  0  0  0
    9.5348  -14.9412   26.7051 N   0  0  0  0  0  0  0  0  0  0  0  0
    8.9883  -13.7007   27.1930 C   0  0  0  0  0  0  0  0  0  0  0  0
    9.8154  -13.3056   28.3845 C   0  0  0  0  0  0  0  0  0  0  0  0
   10.9500  -14.2729   28.4513 C   0  0  0  0  0  0  0  0  0  0  0  0
   10.3713  -15.4907   27.7563 C   0  0  1  0  0  0  0  0  0  0  0  0
    9.5985  -16.3537   28.6610 C   0  0  0  0  0  0  0  0  0  0  0  0
   10.1802  -16.9520   29.5917 O   0  0  0  0  0  0  0  0  0  0  0  0
    8.2469  -16.5095   28.4949 O   0  0  0  0  0  0  0  0  0  0  0  0
  2  1  1  1
  2  3  1  0
  3  4  1  0
  4  8  1  0
  5  4  2  0
  6  9  1  0
  6  2  1  0
  7  6  2  0
  9 13  1  0
 10 11  1  0
 10  9  1  0
 11 12  1  0
 12 13  1  0
 13 14  1  1
 14 16  1  0
 15 14  2  0
 16 20  1  0
 17 16  1  0
 17 18  1  0
 18 19  1  0
 20 21  1  1
 20 19  1  0
 21 23  1  0
 22 21  2  0
M  END
$$$$
