DPP.pdb
     RDKit          3D

 23 24  0  0  1  0  0  0  0  0999 V2000
   12.0324  -16.3478   20.6191 N   0  0  0  0  0  0  0  0  0  0  0  0
   10.6503  -16.7329   20.9458 C   0  0  1  0  0  0  0  0  0  0  0  0
   10.6653  -18.0837   21.6530 C   0  0  0  0  0  0  0  0  0  0  0  0
   11.8294  -18.1610   22.5721 C   0  0  0  0  0  0  0  0  0  0  0  0
   11.6496  -18.4705   23.7827 O   0  0  0  0  0  0  0  0  0  0  0  0
   10.0144  -15.6931   21.7805 C   0  0  0  0  0  0  0  0  0  0  0  0
   10.7855  -14.9242   22.4419 O   0  0  0  0  0  0  0  0  0  0  0  0
   13.1255  -17.9071   22.1643 O   0  0  0  0  0  0  0  0  0  0  0  0
    8.6170  -15.5116   21.8802 N   0  0  0  0  0  0  0  0  0  0  0  0
    7.6475  -16.2353   21.0946 C   0  0  0  0  0  0  0  0  0  0  0  0
    6.5831  -15.1408   20.9096 C   0  0  0  0  0  0  0  0  0  0  0  0
    6.4269  -14.7817   22.3766 C   0  0  0  0  0  0  0  0  0  0  0  0
    7.8904  -14.6058   22.7382 C   0  0  1  0  0  0  0  0  0  0  0  0
    8.1357  -14.8744   24.1857 C   0  0  0  0  0  0  0  0  0  0  0  0
    8.7768  -15.9268   24.4402 O   0  0  0  0  0  0  0  0  0  0  0  0
    7.6738  -13.9969   25.2041 N   0  0  0  0  0  0  0  0  0  0  0  0
    6.7844  -12.8681   25.1024 C   0  0  0  0  0  0  0  0  0  0  0  0
    6.9553  -12.0709   26.3654 C   0  0  0  0  0  0  0  0  0  0  0  0
    8.0914  -12.6924   27.1075 C   0  0  0  0  0  0  0  0  0  0  0  0
    8.0612  -14.1207   26.5974 C   0  0  1  0  0  0  0  0  0  0  0  0
    7.1243  -14.9751   27.3409 C   0  0  0  0  0  0  0  0  0  0  0  0
    7.4049  -15.3332   28.5052 O   0  0  0  0  0  0  0  0  0  0  0  0
    5.9464  -15.3833   26.7712 O   0  0  0  0  0  0  0  0  0  0  0  0
  2  1  1  1
  2  3  1  0
  3  4  1  0
  4  8  1  0
  5  4  2  0
  6  9  1  0
  6  2  1  0
  7  6  2  0
  9 13  1  0
 10 11  1  0
 10  9  1  0
 11 12  1  0
 12 13  1  0
 13 14  1  1
 14 16  1  0
 15 14  2  0
 16 20  1  0
 17 16  1  0
 17 18  1  0
 18 19  1  0
 20 21  1  1
 20 19  1  0
 21 23  1  0
 22 21  2  0
M  END
$$$$
