CRL.pdb
     RDKit          3D

 26 25  0  0  1  0  0  0  0  0999 V2000
   25.4306  -17.4381  -16.9209 N   0  0  0  0  0  0  0  0  0  0  0  0
   25.1809  -16.3950  -15.9731 C   0  0  1  0  0  0  0  0  0  0  0  0
   26.4539  -16.0298  -15.2415 C   0  0  0  0  0  0  0  0  0  0  0  0
   26.8863  -17.4330  -14.1766 S   0  0  0  0  0  0  0  0  0  0  0  0
   24.5971  -15.2378  -16.7033 C   0  0  0  0  0  0  0  0  0  0  0  0
   25.0077  -14.9218  -17.8714 O   0  0  0  0  0  0  0  0  0  0  0  0
   17.9075  -17.1649  -16.2357 N   0  0  0  0  0  0  0  0  0  0  0  0
   18.4823  -17.3800  -17.5384 C   0  0  0  0  0  0  0  0  0  0  0  0
   18.0906  -18.3433  -18.2734 N   0  0  0  0  0  0  0  0  0  0  0  0
   19.4941  -16.4957  -17.9860 N   0  0  0  0  0  0  0  0  0  0  0  0
   19.9743  -15.4460  -17.1121 C   0  0  0  0  0  0  0  0  0  0  0  0
   21.0165  -14.5659  -17.8374 C   0  0  0  0  0  0  0  0  0  0  0  0
   21.5031  -13.5009  -16.9279 C   0  0  0  0  0  0  0  0  0  0  0  0
   22.9944  -13.2732  -16.9027 C   0  0  2  0  0  0  0  0  0  0  0  0
   23.5726  -14.4272  -16.1682 N   0  0  0  0  0  0  0  0  0  0  0  0
   23.3002  -12.0501  -16.1418 C   0  0  0  0  0  0  0  0  0  0  0  0
   22.9069  -12.0393  -14.9185 O   0  0  0  0  0  0  0  0  0  0  0  0
   18.5848  -18.5660  -19.1460 C   0  0  0  0  0  0  0  0  0  0  0  0
   26.7215  -10.8467  -14.8008 C   0  0  2  0  0  0  0  0  0  0  0  0
   26.5837  -10.0623  -16.1086 C   0  0  0  0  0  0  0  0  0  0  0  0
   27.9064   -9.4150  -16.4674 C   0  0  0  0  0  0  0  0  0  0  0  0
   25.4597   -9.0762  -16.0210 C   0  0  2  0  0  0  0  0  0  0  0  0
   24.1680   -9.7865  -15.6870 N   0  0  0  0  0  0  0  0  0  0  0  0
   23.9762  -10.9101  -16.6114 C   0  0  0  0  0  0  0  0  0  0  0  0
   22.9960   -8.9115  -15.8195 O   0  0  0  0  0  0  0  0  0  0  0  0
   22.7379   -7.9285  -14.8488 O   0  0  0  0  0  0  0  0  0  0  0  0
  2  3  1  0
  2  1  1  6
  3  4  1  0
  5  6  2  0
  5  2  1  0
  7  8  1  0
  8  9  2  0
 10  8  1  0
 10 11  1  0
 11 12  1  0
 13 12  1  0
 14 13  1  1
 14 15  1  0
 15  5  1  0
 16 14  1  0
 16 17  2  0
 19 21  1  0
 19 18  1  6
 20 19  1  0
 22 21  1  1
 22 23  1  0
 23 16  1  0
 24 22  1  0
 25 24  1  0
 26 24  2  0
M  END
$$$$
