CRL.pdb
     RDKit          3D

 26 25  0  0  1  0  0  0  0  0999 V2000
   27.5487  -20.6995  -19.1362 N   0  0  0  0  0  0  0  0  0  0  0  0
   27.2414  -19.7179  -18.1409 C   0  0  1  0  0  0  0  0  0  0  0  0
   26.5379  -18.5334  -18.7661 C   0  0  0  0  0  0  0  0  0  0  0  0
   27.7718  -17.6215  -19.7336 S   0  0  0  0  0  0  0  0  0  0  0  0
   26.4198  -20.3710  -17.0866 C   0  0  0  0  0  0  0  0  0  0  0  0
   25.4920  -21.1949  -17.3916 O   0  0  0  0  0  0  0  0  0  0  0  0
   23.7722  -20.1217  -10.3157 N   0  0  0  0  0  0  0  0  0  0  0  0
   24.5605  -20.8687   -9.3699 C   0  0  0  0  0  0  0  0  0  0  0  0
   24.0567  -21.2651   -8.2696 N   0  0  0  0  0  0  0  0  0  0  0  0
   25.9104  -21.1539   -9.6900 N   0  0  0  0  0  0  0  0  0  0  0  0
   26.5112  -20.5712  -10.8714 C   0  0  0  0  0  0  0  0  0  0  0  0
   25.7243  -20.9732  -12.1387 C   0  0  0  0  0  0  0  0  0  0  0  0
   26.3787  -20.4085  -13.3434 C   0  0  0  0  0  0  0  0  0  0  0  0
   25.7159  -20.7060  -14.6657 C   0  0  2  0  0  0  0  0  0  0  0  0
   26.6043  -20.1310  -15.7076 N   0  0  0  0  0  0  0  0  0  0  0  0
   24.4185  -20.0135  -14.7412 C   0  0  0  0  0  0  0  0  0  0  0  0
   24.4322  -18.8601  -15.3074 O   0  0  0  0  0  0  0  0  0  0  0  0
   24.6279  -21.7878   -7.5945 C   0  0  0  0  0  0  0  0  0  0  0  0
   21.2230  -18.3463  -16.8130 C   0  0  1  0  0  0  0  0  0  0  0  0
   22.1043  -19.4508  -17.4028 C   0  0  0  0  0  0  0  0  0  0  0  0
   21.6133  -19.8224  -18.7877 C   0  0  0  0  0  0  0  0  0  0  0  0
   22.1746  -20.6261  -16.4769 C   0  0  2  0  0  0  0  0  0  0  0  0
   21.9765  -20.1761  -15.0476 N   0  0  0  0  0  0  0  0  0  0  0  0
   23.1811  -20.4843  -14.2679 C   0  0  0  0  0  0  0  0  0  0  0  0
   20.8518  -20.8589  -14.3952 O   0  0  0  0  0  0  0  0  0  0  0  0
   19.7186  -20.1280  -13.9992 O   0  0  0  0  0  0  0  0  0  0  0  0
  2  3  1  0
  2  1  1  6
  3  4  1  0
  5  6  2  0
  5  2  1  0
  7  8  1  0
  8  9  2  0
 10  8  1  0
 10 11  1  0
 11 12  1  0
 13 12  1  0
 14 13  1  1
 14 15  1  0
 15  5  1  0
 16 14  1  0
 16 17  2  0
 19 21  1  0
 19 18  1  6
 20 19  1  0
 22 21  1  6
 22 23  1  0
 23 16  1  0
 24 22  1  0
 25 24  1  0
 26 24  2  0
M  END
$$$$
