CRL.pdb
     RDKit          3D

 26 25  0  0  1  0  0  0  0  0999 V2000
   27.0195  -20.5787  -16.0973 N   0  0  0  0  0  0  0  0  0  0  0  0
   26.2652  -20.0142  -15.0199 C   0  0  1  0  0  0  0  0  0  0  0  0
   26.6628  -18.5718  -14.7951 C   0  0  0  0  0  0  0  0  0  0  0  0
   28.4356  -18.5539  -14.4115 S   0  0  0  0  0  0  0  0  0  0  0  0
   24.8201  -20.1580  -15.3430 C   0  0  0  0  0  0  0  0  0  0  0  0
   24.3818  -19.9183  -16.5190 O   0  0  0  0  0  0  0  0  0  0  0  0
   20.9531  -26.9070  -12.9198 N   0  0  0  0  0  0  0  0  0  0  0  0
   22.0582  -26.8967  -13.8431 C   0  0  0  0  0  0  0  0  0  0  0  0
   22.5351  -27.9846  -14.3021 N   0  0  0  0  0  0  0  0  0  0  0  0
   22.6044  -25.6487  -14.2308 N   0  0  0  0  0  0  0  0  0  0  0  0
   22.0051  -24.4192  -13.7559 C   0  0  0  0  0  0  0  0  0  0  0  0
   22.4299  -23.2272  -14.6422 C   0  0  0  0  0  0  0  0  0  0  0  0
   21.9450  -21.9567  -14.0511 C   0  0  0  0  0  0  0  0  0  0  0  0
   22.4120  -20.6873  -14.7195 C   0  0  2  0  0  0  0  0  0  0  0  0
   23.8553  -20.5600  -14.3940 N   0  0  0  0  0  0  0  0  0  0  0  0
   21.7107  -19.5299  -14.1390 C   0  0  0  0  0  0  0  0  0  0  0  0
   22.3779  -18.8444  -13.2809 O   0  0  0  0  0  0  0  0  0  0  0  0
   23.2973  -27.9687  -14.9907 C   0  0  0  0  0  0  0  0  0  0  0  0
   21.5241  -15.4112  -17.4528 C   0  0  1  0  0  0  0  0  0  0  0  0
   20.8927  -15.7754  -16.1062 C   0  0  0  0  0  0  0  0  0  0  0  0
   21.3843  -14.8285  -15.0296 C   0  0  0  0  0  0  0  0  0  0  0  0
   21.1437  -17.2139  -15.7730 C   0  0  2  0  0  0  0  0  0  0  0  0
   20.1844  -17.6754  -14.6999 N   0  0  0  0  0  0  0  0  0  0  0  0
   20.4037  -19.1012  -14.4301 C   0  0  0  0  0  0  0  0  0  0  0  0
   18.7796  -17.5212  -15.0993 O   0  0  0  0  0  0  0  0  0  0  0  0
   18.0015  -16.4866  -14.5519 O   0  0  0  0  0  0  0  0  0  0  0  0
  2  3  1  0
  2  1  1  6
  3  4  1  0
  5  6  2  0
  5  2  1  0
  7  8  1  0
  8  9  2  0
 10  8  1  0
 10 11  1  0
 11 12  1  0
 13 12  1  0
 14 13  1  1
 14 15  1  0
 15  5  1  0
 16 14  1  0
 16 17  2  0
 19 21  1  0
 19 18  1  6
 20 19  1  0
 22 21  1  1
 22 23  1  0
 23 16  1  0
 24 22  1  0
 25 24  1  0
 26 24  2  0
M  END
$$$$
