CRL.pdb
     RDKit          3D

 26 25  0  0  1  0  0  0  0  0999 V2000
   28.7646  -19.8479  -17.1963 N   0  0  0  0  0  0  0  0  0  0  0  0
   28.4737  -20.4942  -15.9528 C   0  0  1  0  0  0  0  0  0  0  0  0
   28.3780  -19.4761  -14.8377 C   0  0  0  0  0  0  0  0  0  0  0  0
   26.9520  -18.4141  -15.1969 S   0  0  0  0  0  0  0  0  0  0  0  0
   27.2153  -21.2700  -16.1190 C   0  0  0  0  0  0  0  0  0  0  0  0
   26.3865  -20.9880  -17.0497 O   0  0  0  0  0  0  0  0  0  0  0  0
   27.0538  -27.5727  -18.7750 N   0  0  0  0  0  0  0  0  0  0  0  0
   27.2130  -27.9689  -17.3997 C   0  0  0  0  0  0  0  0  0  0  0  0
   28.1688  -28.7332  -17.0474 N   0  0  0  0  0  0  0  0  0  0  0  0
   26.2826  -27.4898  -16.4453 N   0  0  0  0  0  0  0  0  0  0  0  0
   25.2479  -26.5609  -16.8486 C   0  0  0  0  0  0  0  0  0  0  0  0
   25.8121  -25.1264  -16.9517 C   0  0  0  0  0  0  0  0  0  0  0  0
   25.9803  -24.5482  -15.5967 C   0  0  0  0  0  0  0  0  0  0  0  0
   25.5878  -23.1004  -15.4342 C   0  0  2  0  0  0  0  0  0  0  0  0
   26.8579  -22.3467  -15.2787 N   0  0  0  0  0  0  0  0  0  0  0  0
   24.8039  -22.9309  -14.1992 C   0  0  0  0  0  0  0  0  0  0  0  0
   25.3622  -23.3500  -13.1204 O   0  0  0  0  0  0  0  0  0  0  0  0
   28.2846  -29.0009  -16.0624 C   0  0  0  0  0  0  0  0  0  0  0  0
   24.6681  -21.6817  -10.6512 C   0  0  2  0  0  0  0  0  0  0  0  0
   25.3096  -20.8336  -11.7528 C   0  0  0  0  0  0  0  0  0  0  0  0
   26.0097  -19.6351  -11.1438 C   0  0  0  0  0  0  0  0  0  0  0  0
   24.2960  -20.4503  -12.7869 C   0  0  2  0  0  0  0  0  0  0  0  0
   23.2415  -21.5265  -12.9070 N   0  0  0  0  0  0  0  0  0  0  0  0
   23.5252  -22.3582  -14.0824 C   0  0  0  0  0  0  0  0  0  0  0  0
   21.8926  -20.9730  -13.0833 O   0  0  0  0  0  0  0  0  0  0  0  0
   21.0638  -20.7691  -11.9667 O   0  0  0  0  0  0  0  0  0  0  0  0
  2  3  1  0
  2  1  1  6
  3  4  1  0
  5  6  2  0
  5  2  1  0
  7  8  1  0
  8  9  2  0
 10  8  1  0
 10 11  1  0
 11 12  1  0
 13 12  1  0
 14 13  1  1
 14 15  1  0
 15  5  1  0
 16 14  1  0
 16 17  2  0
 19 21  1  0
 19 18  1  1
 20 19  1  0
 22 21  1  1
 22 23  1  0
 23 16  1  0
 24 22  1  0
 25 24  1  0
 26 24  2  0
M  END
$$$$
