CRL.pdb
     RDKit          3D

 26 25  0  0  1  0  0  0  0  0999 V2000
   21.7893  -20.2283  -15.5407 N   0  0  0  0  0  0  0  0  0  0  0  0
   22.5158  -19.5854  -14.4883 C   0  0  1  0  0  0  0  0  0  0  0  0
   21.5794  -19.1768  -13.3725 C   0  0  0  0  0  0  0  0  0  0  0  0
   20.2795  -18.1475  -14.1081 S   0  0  0  0  0  0  0  0  0  0  0  0
   23.5765  -20.5187  -14.0224 C   0  0  0  0  0  0  0  0  0  0  0  0
   23.3278  -21.7586  -13.8393 O   0  0  0  0  0  0  0  0  0  0  0  0
   31.1846  -23.2488  -14.1859 N   0  0  0  0  0  0  0  0  0  0  0  0
   30.5340  -22.8401  -15.4039 C   0  0  0  0  0  0  0  0  0  0  0  0
   30.5391  -23.5933  -16.4307 N   0  0  0  0  0  0  0  0  0  0  0  0
   29.8871  -21.5805  -15.4358 N   0  0  0  0  0  0  0  0  0  0  0  0
   29.6814  -20.8429  -14.2071 C   0  0  0  0  0  0  0  0  0  0  0  0
   28.4418  -21.3735  -13.4530 C   0  0  0  0  0  0  0  0  0  0  0  0
   27.2394  -20.5991  -13.8441 C   0  0  0  0  0  0  0  0  0  0  0  0
   25.9350  -21.0286  -13.2191 C   0  0  2  0  0  0  0  0  0  0  0  0
   24.9008  -20.1082  -13.7564 N   0  0  0  0  0  0  0  0  0  0  0  0
   25.9954  -20.8431  -11.7596 C   0  0  0  0  0  0  0  0  0  0  0  0
   25.8514  -19.6362  -11.3427 O   0  0  0  0  0  0  0  0  0  0  0  0
   30.0290  -23.3192  -17.2793 C   0  0  0  0  0  0  0  0  0  0  0  0
   27.5533  -18.3863   -7.6221 C   0  0  1  0  0  0  0  0  0  0  0  0
   27.1107  -19.8472   -7.7425 C   0  0  0  0  0  0  0  0  0  0  0  0
   27.9553  -20.7216   -6.8373 C   0  0  0  0  0  0  0  0  0  0  0  0
   27.1374  -20.2947   -9.1717 C   0  0  2  0  0  0  0  0  0  0  0  0
   26.1799  -21.4464   -9.3751 N   0  0  0  0  0  0  0  0  0  0  0  0
   26.1860  -21.8418  -10.7884 C   0  0  0  0  0  0  0  0  0  0  0  0
   24.7967  -21.0937   -9.0299 O   0  0  0  0  0  0  0  0  0  0  0  0
   23.9667  -20.4822   -9.9851 O   0  0  0  0  0  0  0  0  0  0  0  0
  2  3  1  0
  2  1  1  6
  3  4  1  0
  5  6  2  0
  5  2  1  0
  7  8  1  0
  8  9  2  0
 10  8  1  0
 10 11  1  0
 11 12  1  0
 13 12  1  0
 14 13  1  6
 14 15  1  0
 15  5  1  0
 16 14  1  0
 16 17  2  0
 19 21  1  0
 19 18  1  1
 20 19  1  0
 22 21  1  1
 22 23  1  0
 23 16  1  0
 24 22  1  0
 25 24  1  0
 26 24  2  0
M  END
$$$$
