CRL.pdb
     RDKit          3D

 26 25  0  0  1  0  0  0  0  0999 V2000
   27.2555  -19.7263  -15.4065 N   0  0  0  0  0  0  0  0  0  0  0  0
   27.4823  -20.5663  -14.2700 C   0  0  1  0  0  0  0  0  0  0  0  0
   28.9629  -20.6707  -13.9771 C   0  0  0  0  0  0  0  0  0  0  0  0
   29.5340  -22.2592  -14.6410 S   0  0  0  0  0  0  0  0  0  0  0  0
   26.7175  -20.0074  -13.1229 C   0  0  0  0  0  0  0  0  0  0  0  0
   26.8131  -18.7729  -12.8073 O   0  0  0  0  0  0  0  0  0  0  0  0
   20.3481  -20.1352  -12.4761 N   0  0  0  0  0  0  0  0  0  0  0  0
   19.9033  -19.7089  -11.1745 C   0  0  0  0  0  0  0  0  0  0  0  0
   19.0386  -18.7821  -11.0518 N   0  0  0  0  0  0  0  0  0  0  0  0
   20.4487  -20.3433  -10.0317 N   0  0  0  0  0  0  0  0  0  0  0  0
   21.5258  -21.2992  -10.1812 C   0  0  0  0  0  0  0  0  0  0  0  0
   22.8963  -20.6110   -9.9941 C   0  0  0  0  0  0  0  0  0  0  0  0
   23.7555  -20.8604  -11.1765 C   0  0  0  0  0  0  0  0  0  0  0  0
   25.1263  -20.2305  -11.1515 C   0  0  2  0  0  0  0  0  0  0  0  0
   25.8530  -20.7848  -12.3220 N   0  0  0  0  0  0  0  0  0  0  0  0
   25.8435  -20.6430   -9.9334 C   0  0  0  0  0  0  0  0  0  0  0  0
   26.1861  -21.8802   -9.8779 O   0  0  0  0  0  0  0  0  0  0  0  0
   18.6865  -18.5190  -10.1232 C   0  0  0  0  0  0  0  0  0  0  0  0
   28.6165  -18.8961   -4.7150 C   0  0  1  0  0  0  0  0  0  0  0  0
   28.3334  -19.9786   -5.7603 C   0  0  0  0  0  0  0  0  0  0  0  0
   29.6063  -20.7364   -6.0805 C   0  0  0  0  0  0  0  0  0  0  0  0
   27.6880  -19.3878   -6.9760 C   0  0  2  0  0  0  0  0  0  0  0  0
   26.8976  -20.4450   -7.7123 N   0  0  0  0  0  0  0  0  0  0  0  0
   26.1923  -19.8283   -8.8419 C   0  0  0  0  0  0  0  0  0  0  0  0
   25.8824  -21.0802   -6.8623 O   0  0  0  0  0  0  0  0  0  0  0  0
   26.2623  -22.0429   -5.9115 O   0  0  0  0  0  0  0  0  0  0  0  0
  2  3  1  0
  2  1  1  6
  3  4  1  0
  5  6  2  0
  5  2  1  0
  7  8  1  0
  8  9  2  0
 10  8  1  0
 10 11  1  0
 11 12  1  0
 13 12  1  0
 14 13  1  1
 14 15  1  0
 15  5  1  0
 16 14  1  0
 16 17  2  0
 19 21  1  0
 19 18  1  1
 20 19  1  0
 22 21  1  6
 22 23  1  0
 23 16  1  0
 24 22  1  0
 25 24  1  0
 26 24  2  0
M  END
$$$$
