CRL.pdb
     RDKit          3D

 26 25  0  0  1  0  0  0  0  0999 V2000
   28.0370  -22.5149  -17.2485 N   0  0  0  0  0  0  0  0  0  0  0  0
   28.0493  -21.5552  -16.1868 C   0  0  1  0  0  0  0  0  0  0  0  0
   28.2051  -20.1560  -16.7408 C   0  0  0  0  0  0  0  0  0  0  0  0
   26.9373  -19.9371  -18.0195 S   0  0  0  0  0  0  0  0  0  0  0  0
   26.7944  -21.7164  -15.4042 C   0  0  0  0  0  0  0  0  0  0  0  0
   25.8631  -22.4930  -15.8069 O   0  0  0  0  0  0  0  0  0  0  0  0
   22.2796  -20.2449   -9.2818 N   0  0  0  0  0  0  0  0  0  0  0  0
   23.0698  -20.9736   -8.3234 C   0  0  0  0  0  0  0  0  0  0  0  0
   22.5253  -21.5231   -7.3119 N   0  0  0  0  0  0  0  0  0  0  0  0
   24.4680  -21.0664   -8.5300 N   0  0  0  0  0  0  0  0  0  0  0  0
   25.0767  -20.3989   -9.6614 C   0  0  0  0  0  0  0  0  0  0  0  0
   24.8889  -21.2291  -10.9507 C   0  0  0  0  0  0  0  0  0  0  0  0
   25.5057  -20.5266  -12.1016 C   0  0  0  0  0  0  0  0  0  0  0  0
   25.2601  -21.1296  -13.4626 C   0  0  2  0  0  0  0  0  0  0  0  0
   26.5514  -21.0377  -14.1903 N   0  0  0  0  0  0  0  0  0  0  0  0
   24.2674  -20.3245  -14.1939 C   0  0  0  0  0  0  0  0  0  0  0  0
   24.7191  -19.6480  -15.1886 O   0  0  0  0  0  0  0  0  0  0  0  0
   23.0868  -22.0844   -6.6599 C   0  0  0  0  0  0  0  0  0  0  0  0
   21.7124  -19.7882  -17.7913 C   0  0  1  0  0  0  0  0  0  0  0  0
   22.8075  -20.7485  -17.3192 C   0  0  0  0  0  0  0  0  0  0  0  0
   23.1050  -21.7682  -18.4004 C   0  0  0  0  0  0  0  0  0  0  0  0
   22.4345  -21.3794  -16.0130 C   0  0  2  0  0  0  0  0  0  0  0  0
   21.9520  -20.3247  -15.0438 N   0  0  0  0  0  0  0  0  0  0  0  0
   22.8916  -20.2280  -13.9206 C   0  0  0  0  0  0  0  0  0  0  0  0
   20.6337  -20.6422  -14.4797 O   0  0  0  0  0  0  0  0  0  0  0  0
   19.4969  -19.9335  -14.9046 O   0  0  0  0  0  0  0  0  0  0  0  0
  2  3  1  0
  2  1  1  6
  3  4  1  0
  5  6  2  0
  5  2  1  0
  7  8  1  0
  8  9  2  0
 10  8  1  0
 10 11  1  0
 11 12  1  0
 13 12  1  0
 14 13  1  1
 14 15  1  0
 15  5  1  0
 16 14  1  0
 16 17  2  0
 19 21  1  0
 19 18  1  6
 20 19  1  0
 22 21  1  6
 22 23  1  0
 23 16  1  0
 24 22  1  0
 25 24  1  0
 26 24  2  0
M  END
$$$$
