CRL.pdb
     RDKit          3D

 26 25  0  0  1  0  0  0  0  0999 V2000
   27.6309  -21.2191   -9.3091 N   0  0  0  0  0  0  0  0  0  0  0  0
   26.2712  -20.9817   -9.6879 C   0  0  1  0  0  0  0  0  0  0  0  0
   25.7400  -19.7423   -9.0018 C   0  0  0  0  0  0  0  0  0  0  0  0
   25.9281  -19.9917   -7.2150 S   0  0  0  0  0  0  0  0  0  0  0  0
   26.2171  -20.8737  -11.1706 C   0  0  0  0  0  0  0  0  0  0  0  0
   27.1518  -20.2960  -11.8228 O   0  0  0  0  0  0  0  0  0  0  0  0
   25.3618  -24.5678  -17.2047 N   0  0  0  0  0  0  0  0  0  0  0  0
   24.8400  -25.3724  -16.1305 C   0  0  0  0  0  0  0  0  0  0  0  0
   25.3453  -26.5102  -15.8627 N   0  0  0  0  0  0  0  0  0  0  0  0
   23.7510  -24.8707  -15.3765 N   0  0  0  0  0  0  0  0  0  0  0  0
   23.1281  -23.6190  -15.7525 C   0  0  0  0  0  0  0  0  0  0  0  0
   24.0407  -22.4254  -15.3931 C   0  0  0  0  0  0  0  0  0  0  0  0
   24.1991  -22.3320  -13.9218 C   0  0  0  0  0  0  0  0  0  0  0  0
   25.0629  -21.2047  -13.4126 C   0  0  2  0  0  0  0  0  0  0  0  0
   25.1534  -21.3903  -11.9419 N   0  0  0  0  0  0  0  0  0  0  0  0
   24.4019  -19.9140  -13.6686 C   0  0  0  0  0  0  0  0  0  0  0  0
   24.2354  -19.1577  -12.6431 O   0  0  0  0  0  0  0  0  0  0  0  0
   24.9623  -27.0831  -15.1008 C   0  0  0  0  0  0  0  0  0  0  0  0
   25.4292  -15.7417  -15.6286 C   0  0  1  0  0  0  0  0  0  0  0  0
   26.5130  -16.7772  -15.3159 C   0  0  0  0  0  0  0  0  0  0  0  0
   27.7141  -16.5586  -16.2141 C   0  0  0  0  0  0  0  0  0  0  0  0
   25.9630  -18.1672  -15.4098 C   0  0  1  0  0  0  0  0  0  0  0  0
   24.4523  -18.1335  -15.3747 N   0  0  0  0  0  0  0  0  0  0  0  0
   23.9463  -19.4294  -14.9073 C   0  0  0  0  0  0  0  0  0  0  0  0
   23.8656  -17.8915  -16.6991 O   0  0  0  0  0  0  0  0  0  0  0  0
   23.0746  -16.7512  -16.9209 O   0  0  0  0  0  0  0  0  0  0  0  0
  2  3  1  0
  2  1  1  6
  3  4  1  0
  5  6  2  0
  5  2  1  0
  7  8  1  0
  8  9  2  0
 10  8  1  0
 10 11  1  0
 11 12  1  0
 13 12  1  0
 14 13  1  6
 14 15  1  0
 15  5  1  0
 16 14  1  0
 16 17  2  0
 19 21  1  0
 19 18  1  1
 20 19  1  0
 22 21  1  1
 22 23  1  0
 23 16  1  0
 24 22  1  0
 25 24  1  0
 26 24  2  0
M  END
$$$$
