WHW.pdb
     RDKit          3D

 39 43  0  0  1  0  0  0  0  0999 V2000
   20.6021  -20.7128  -14.1804 N   0  0  0  0  0  0  0  0  0  0  0  0
   21.9103  -20.1007  -14.0894 C   0  0  1  0  0  0  0  0  0  0  0  0
   21.7426  -18.6863  -13.5226 C   0  0  0  0  0  0  0  0  0  0  0  0
   21.4695  -17.7877  -14.6656 C   0  0  0  0  0  0  0  0  0  0  0  0
   20.2164  -17.2507  -14.9737 C   0  0  0  0  0  0  0  0  0  0  0  0
   20.3380  -16.4781  -16.0805 N   0  0  0  0  0  0  0  0  0  0  0  0
   21.6074  -16.4880  -16.5043 C   0  0  0  0  0  0  0  0  0  0  0  0
   22.2588  -15.8923  -17.5507 C   0  0  0  0  0  0  0  0  0  0  0  0
   23.6114  -16.1042  -17.7256 C   0  0  0  0  0  0  0  0  0  0  0  0
   24.3471  -16.9161  -16.8604 C   0  0  0  0  0  0  0  0  0  0  0  0
   23.6688  -17.5043  -15.8151 C   0  0  0  0  0  0  0  0  0  0  0  0
   22.3137  -17.3020  -15.6260 C   0  0  0  0  0  0  0  0  0  0  0  0
   22.7618  -20.9081  -13.2129 C   0  0  0  0  0  0  0  0  0  0  0  0
   22.2395  -21.4664  -12.2140 O   0  0  0  0  0  0  0  0  0  0  0  0
   24.1458  -21.0814  -13.4499 N   0  0  0  0  0  0  0  0  0  0  0  0
   25.0405  -21.8489  -12.5967 C   0  0  1  0  0  0  0  0  0  0  0  0
   26.1268  -22.5589  -13.3253 C   0  0  0  0  0  0  0  0  0  0  0  0
   25.6821  -23.7277  -14.1470 C   0  0  0  0  0  0  0  0  0  0  0  0
   24.4399  -24.2677  -14.3311 C   0  0  0  0  0  0  0  0  0  0  0  0
   24.5280  -25.3261  -15.1489 N   0  0  0  0  0  0  0  0  0  0  0  0
   25.8146  -25.4656  -15.4868 C   0  0  0  0  0  0  0  0  0  0  0  0
   26.5279  -24.5079  -14.8903 N   0  0  0  0  0  0  0  0  0  0  0  0
   25.7047  -20.8621  -11.7022 C   0  0  0  0  0  0  0  0  0  0  0  0
   25.7446  -19.6672  -12.0110 O   0  0  0  0  0  0  0  0  0  0  0  0
   26.2777  -21.3248  -10.5126 N   0  0  0  0  0  0  0  0  0  0  0  0
   27.0632  -20.4222   -9.6632 C   0  0  1  0  0  0  0  0  0  0  0  0
   26.3176  -20.3716   -8.3624 C   0  0  0  0  0  0  0  0  0  0  0  0
   26.9778  -19.5024   -7.3920 C   0  0  0  0  0  0  0  0  0  0  0  0
   26.9824  -18.1279   -7.4144 C   0  0  0  0  0  0  0  0  0  0  0  0
   27.7133  -17.6536   -6.3961 N   0  0  0  0  0  0  0  0  0  0  0  0
   28.1853  -18.7076   -5.7086 C   0  0  0  0  0  0  0  0  0  0  0  0
   28.9687  -18.8123   -4.5763 C   0  0  0  0  0  0  0  0  0  0  0  0
   29.3107  -20.0231   -4.0403 C   0  0  0  0  0  0  0  0  0  0  0  0
   28.8862  -21.2044   -4.6092 C   0  0  0  0  0  0  0  0  0  0  0  0
   28.1074  -21.1059   -5.7357 C   0  0  0  0  0  0  0  0  0  0  0  0
   27.7380  -19.8908   -6.3126 C   0  0  0  0  0  0  0  0  0  0  0  0
   28.4488  -20.8360   -9.6219 C   0  0  0  0  0  0  0  0  0  0  0  0
   28.7723  -22.0421   -9.7216 O   0  0  0  0  0  0  0  0  0  0  0  0
   29.5173  -19.9369   -9.4700 O   0  0  0  0  0  0  0  0  0  0  0  0
  2  3  1  0
  2  1  1  1
  4  3  1  0
  5  4  2  0
  6  5  1  0
  7  6  1  0
  7 12  2  0
  8  7  1  0
  9  8  2  0
  9 10  1  0
 10 11  2  0
 11 12  1  0
 12  4  1  0
 13  2  1  0
 13 14  2  0
 15 13  1  0
 16 15  1  0
 16 17  1  6
 18 17  1  0
 18 22  1  0
 19 18  2  0
 20 19  1  0
 20 21  1  0
 21 22  2  0
 23 16  1  0
 24 23  2  0
 25 23  1  0
 26 37  1  0
 26 25  1  0
 26 27  1  1
 28 36  1  0
 28 27  1  0
 29 28  2  0
 30 29  1  0
 30 31  1  0
 31 36  2  0
 32 31  1  0
 32 33  2  0
 33 34  1  0
 34 35  2  0
 36 35  1  0
 37 39  1  0
 38 37  2  0
M  END
$$$$
