WHW.pdb
     RDKit          3D

 39 43  0  0  1  0  0  0  0  0999 V2000
   27.6277  -21.9059  -14.3736 N   0  0  0  0  0  0  0  0  0  0  0  0
   26.5266  -21.6694  -13.4646 C   0  0  1  0  0  0  0  0  0  0  0  0
   26.6900  -20.2688  -12.8633 C   0  0  0  0  0  0  0  0  0  0  0  0
   27.5963  -20.3960  -11.7009 C   0  0  0  0  0  0  0  0  0  0  0  0
   28.9844  -20.2401  -11.7536 C   0  0  0  0  0  0  0  0  0  0  0  0
   29.4872  -20.4262  -10.5089 N   0  0  0  0  0  0  0  0  0  0  0  0
   28.4939  -20.6947   -9.6531 C   0  0  0  0  0  0  0  0  0  0  0  0
   28.4491  -20.9575   -8.3103 C   0  0  0  0  0  0  0  0  0  0  0  0
   27.2354  -21.2024   -7.7004 C   0  0  0  0  0  0  0  0  0  0  0  0
   26.0366  -21.1910   -8.4157 C   0  0  0  0  0  0  0  0  0  0  0  0
   26.1082  -20.9239   -9.7657 C   0  0  0  0  0  0  0  0  0  0  0  0
   27.3164  -20.6766  -10.3918 C   0  0  0  0  0  0  0  0  0  0  0  0
   25.2634  -21.7693  -14.1992 C   0  0  0  0  0  0  0  0  0  0  0  0
   25.2207  -21.3469  -15.3832 O   0  0  0  0  0  0  0  0  0  0  0  0
   24.0944  -22.3224  -13.6255 N   0  0  0  0  0  0  0  0  0  0  0  0
   22.8435  -22.5320  -14.3390 C   0  0  1  0  0  0  0  0  0  0  0  0
   22.4183  -23.9553  -14.4301 C   0  0  0  0  0  0  0  0  0  0  0  0
   23.1299  -24.7659  -15.4673 C   0  0  0  0  0  0  0  0  0  0  0  0
   24.0305  -24.3948  -16.4263 C   0  0  0  0  0  0  0  0  0  0  0  0
   24.3906  -25.4690  -17.1426 N   0  0  0  0  0  0  0  0  0  0  0  0
   23.7275  -26.5205  -16.6492 C   0  0  0  0  0  0  0  0  0  0  0  0
   22.9598  -26.1147  -15.6353 N   0  0  0  0  0  0  0  0  0  0  0  0
   21.7962  -21.8263  -13.5513 C   0  0  0  0  0  0  0  0  0  0  0  0
   21.8675  -21.7785  -12.3195 O   0  0  0  0  0  0  0  0  0  0  0  0
   20.7384  -21.2251  -14.2419 N   0  0  0  0  0  0  0  0  0  0  0  0
   19.7816  -20.3643  -13.5371 C   0  0  1  0  0  0  0  0  0  0  0  0
   20.5967  -19.2050  -13.0451 C   0  0  0  0  0  0  0  0  0  0  0  0
   21.1067  -18.3936  -14.1472 C   0  0  0  0  0  0  0  0  0  0  0  0
   20.3441  -17.6931  -15.0514 C   0  0  0  0  0  0  0  0  0  0  0  0
   21.1344  -17.0890  -15.9495 N   0  0  0  0  0  0  0  0  0  0  0  0
   22.4069  -17.3889  -15.6384 C   0  0  0  0  0  0  0  0  0  0  0  0
   23.6171  -17.0332  -16.2003 C   0  0  0  0  0  0  0  0  0  0  0  0
   24.8098  -17.4576  -15.6829 C   0  0  0  0  0  0  0  0  0  0  0  0
   24.8603  -18.2662  -14.5679 C   0  0  0  0  0  0  0  0  0  0  0  0
   23.6596  -18.6233  -14.0057 C   0  0  0  0  0  0  0  0  0  0  0  0
   22.4234  -18.2119  -14.5038 C   0  0  0  0  0  0  0  0  0  0  0  0
   18.6429  -20.0692  -14.3791 C   0  0  0  0  0  0  0  0  0  0  0  0
   18.6643  -20.3022  -15.6098 O   0  0  0  0  0  0  0  0  0  0  0  0
   17.4494  -19.5101  -13.8931 O   0  0  0  0  0  0  0  0  0  0  0  0
  2  3  1  0
  2  1  1  6
  4  3  1  0
  5  4  2  0
  6  5  1  0
  7  6  1  0
  7 12  2  0
  8  7  1  0
  9  8  2  0
  9 10  1  0
 10 11  2  0
 11 12  1  0
 12  4  1  0
 13  2  1  0
 13 14  2  0
 15 13  1  0
 16 15  1  0
 16 17  1  1
 18 17  1  0
 18 22  1  0
 19 18  2  0
 20 19  1  0
 20 21  1  0
 21 22  2  0
 23 16  1  0
 24 23  2  0
 25 23  1  0
 26 37  1  0
 26 25  1  0
 26 27  1  6
 28 36  1  0
 28 27  1  0
 29 28  2  0
 30 29  1  0
 30 31  1  0
 31 36  2  0
 32 31  1  0
 32 33  2  0
 33 34  1  0
 34 35  2  0
 36 35  1  0
 37 39  1  0
 38 37  2  0
M  END
$$$$
