WHW.pdb
     RDKit          3D

 39 43  0  0  1  0  0  0  0  0999 V2000
   15.3991  -16.3805    3.6626 N   0  0  0  0  0  0  0  0  0  0  0  0
   16.5051  -17.3052    3.5352 C   0  0  1  0  0  0  0  0  0  0  0  0
   17.6779  -16.7717    4.3657 C   0  0  0  0  0  0  0  0  0  0  0  0
   18.2599  -15.6350    3.6190 C   0  0  0  0  0  0  0  0  0  0  0  0
   17.9798  -14.2893    3.8729 C   0  0  0  0  0  0  0  0  0  0  0  0
   18.6857  -13.5293    3.0006 N   0  0  0  0  0  0  0  0  0  0  0  0
   19.4089  -14.3159    2.1947 C   0  0  0  0  0  0  0  0  0  0  0  0
   20.2744  -14.0702    1.1628 C   0  0  0  0  0  0  0  0  0  0  0  0
   20.8793  -15.1253    0.5103 C   0  0  0  0  0  0  0  0  0  0  0  0
   20.6352  -16.4515    0.8715 C   0  0  0  0  0  0  0  0  0  0  0  0
   19.7603  -16.6725    1.9129 C   0  0  0  0  0  0  0  0  0  0  0  0
   19.1460  -15.6264    2.5770 C   0  0  0  0  0  0  0  0  0  0  0  0
   16.0906  -18.6241    4.0188 C   0  0  0  0  0  0  0  0  0  0  0  0
   15.3918  -18.6901    5.0626 O   0  0  0  0  0  0  0  0  0  0  0  0
   16.4474  -19.8217    3.3552 N   0  0  0  0  0  0  0  0  0  0  0  0
   16.3716  -21.1486    3.9476 C   0  0  1  0  0  0  0  0  0  0  0  0
   16.0689  -22.2380    2.9798 C   0  0  0  0  0  0  0  0  0  0  0  0
   14.8067  -22.0592    2.1963 C   0  0  0  0  0  0  0  0  0  0  0  0
   13.8311  -21.1056    2.2821 C   0  0  0  0  0  0  0  0  0  0  0  0
   12.8742  -21.3609    1.3788 N   0  0  0  0  0  0  0  0  0  0  0  0
   13.2309  -22.4683    0.7190 C   0  0  0  0  0  0  0  0  0  0  0  0
   14.3972  -22.9051    1.1997 N   0  0  0  0  0  0  0  0  0  0  0  0
   17.7255  -21.4332    4.4963 C   0  0  0  0  0  0  0  0  0  0  0  0
   18.7344  -21.0270    3.9116 O   0  0  0  0  0  0  0  0  0  0  0  0
   17.8199  -22.1685    5.6829 N   0  0  0  0  0  0  0  0  0  0  0  0
   19.1221  -22.3868    6.3230 C   0  0  1  0  0  0  0  0  0  0  0  0
   19.3207  -21.1924    7.2087 C   0  0  0  0  0  0  0  0  0  0  0  0
   20.5511  -21.2939    7.9889 C   0  0  0  0  0  0  0  0  0  0  0  0
   21.7796  -20.7968    7.6234 C   0  0  0  0  0  0  0  0  0  0  0  0
   22.6940  -21.0990    8.5554 N   0  0  0  0  0  0  0  0  0  0  0  0
   22.0722  -21.7888    9.5268 C   0  0  0  0  0  0  0  0  0  0  0  0
   22.5112  -22.3306   10.7186 C   0  0  0  0  0  0  0  0  0  0  0  0
   21.6675  -22.9878   11.5711 C   0  0  0  0  0  0  0  0  0  0  0  0
   20.3295  -23.1413   11.2784 C   0  0  0  0  0  0  0  0  0  0  0  0
   19.8879  -22.6049   10.0941 C   0  0  0  0  0  0  0  0  0  0  0  0
   20.7166  -21.9287    9.1987 C   0  0  0  0  0  0  0  0  0  0  0  0
   19.1744  -23.6927    6.9430 C   0  0  0  0  0  0  0  0  0  0  0  0
   18.1489  -24.2277    7.4241 O   0  0  0  0  0  0  0  0  0  0  0  0
   20.3542  -24.4474    7.0519 O   0  0  0  0  0  0  0  0  0  0  0  0
  2  3  1  0
  2  1  1  1
  4  3  1  0
  5  4  2  0
  6  5  1  0
  7  6  1  0
  7 12  2  0
  8  7  1  0
  9  8  2  0
  9 10  1  0
 10 11  2  0
 11 12  1  0
 12  4  1  0
 13  2  1  0
 13 14  2  0
 15 13  1  0
 16 15  1  0
 16 17  1  6
 18 17  1  0
 18 22  1  0
 19 18  2  0
 20 19  1  0
 20 21  1  0
 21 22  2  0
 23 16  1  0
 24 23  2  0
 25 23  1  0
 26 37  1  0
 26 25  1  0
 26 27  1  1
 28 36  1  0
 28 27  1  0
 29 28  2  0
 30 29  1  0
 30 31  1  0
 31 36  2  0
 32 31  1  0
 32 33  2  0
 33 34  1  0
 34 35  2  0
 36 35  1  0
 37 39  1  0
 38 37  2  0
M  END
$$$$
