WHW.pdb
     RDKit          3D

 39 43  0  0  1  0  0  0  0  0999 V2000
   29.5645  -24.6071  -17.4671 N   0  0  0  0  0  0  0  0  0  0  0  0
   28.2527  -23.9992  -17.4022 C   0  0  1  0  0  0  0  0  0  0  0  0
   28.2247  -22.8086  -18.3673 C   0  0  0  0  0  0  0  0  0  0  0  0
   28.4780  -21.5911  -17.5658 C   0  0  0  0  0  0  0  0  0  0  0  0
   29.7032  -20.9215  -17.5017 C   0  0  0  0  0  0  0  0  0  0  0  0
   29.5698  -19.8554  -16.6756 N   0  0  0  0  0  0  0  0  0  0  0  0
   28.3193  -19.8014  -16.2019 C   0  0  0  0  0  0  0  0  0  0  0  0
   27.6672  -18.9494  -15.3516 C   0  0  0  0  0  0  0  0  0  0  0  0
   26.3384  -19.1677  -15.0492 C   0  0  0  0  0  0  0  0  0  0  0  0
   25.6277  -20.2418  -15.5878 C   0  0  0  0  0  0  0  0  0  0  0  0
   26.3063  -21.0850  -16.4408 C   0  0  0  0  0  0  0  0  0  0  0  0
   27.6377  -20.8800  -16.7539 C   0  0  0  0  0  0  0  0  0  0  0  0
   27.2417  -24.9899  -17.7784 C   0  0  0  0  0  0  0  0  0  0  0  0
   27.3010  -25.5049  -18.9245 O   0  0  0  0  0  0  0  0  0  0  0  0
   26.2050  -25.3863  -16.9010 N   0  0  0  0  0  0  0  0  0  0  0  0
   25.2225  -26.4183  -17.1959 C   0  0  1  0  0  0  0  0  0  0  0  0
   25.2631  -27.5873  -16.2757 C   0  0  0  0  0  0  0  0  0  0  0  0
   26.3220  -28.5996  -16.5809 C   0  0  0  0  0  0  0  0  0  0  0  0
   27.2368  -29.2067  -15.7667 C   0  0  0  0  0  0  0  0  0  0  0  0
   27.9979  -30.0395  -16.4905 N   0  0  0  0  0  0  0  0  0  0  0  0
   27.5769  -29.9681  -17.7579 C   0  0  0  0  0  0  0  0  0  0  0  0
   26.5638  -29.1020  -17.8322 N   0  0  0  0  0  0  0  0  0  0  0  0
   23.8892  -25.7822  -17.0144 C   0  0  0  0  0  0  0  0  0  0  0  0
   23.5983  -25.2357  -15.9461 O   0  0  0  0  0  0  0  0  0  0  0  0
   22.9838  -25.8223  -18.0804 N   0  0  0  0  0  0  0  0  0  0  0  0
   21.6336  -25.2672  -17.9328 C   0  0  1  0  0  0  0  0  0  0  0  0
   21.5284  -24.2211  -19.0029 C   0  0  0  0  0  0  0  0  0  0  0  0
   20.2310  -23.5508  -18.9809 C   0  0  0  0  0  0  0  0  0  0  0  0
   19.9535  -22.3538  -18.3645 C   0  0  0  0  0  0  0  0  0  0  0  0
   18.6564  -22.0504  -18.5115 N   0  0  0  0  0  0  0  0  0  0  0  0
   18.0851  -23.0394  -19.2197 C   0  0  0  0  0  0  0  0  0  0  0  0
   16.7969  -23.2426  -19.6736 C   0  0  0  0  0  0  0  0  0  0  0  0
   16.4520  -24.3430  -20.4089 C   0  0  0  0  0  0  0  0  0  0  0  0
   17.3810  -25.3079  -20.7338 C   0  0  0  0  0  0  0  0  0  0  0  0
   18.6633  -25.1109  -20.2843 C   0  0  0  0  0  0  0  0  0  0  0  0
   19.0539  -24.0031  -19.5320 C   0  0  0  0  0  0  0  0  0  0  0  0
   20.6442  -26.3225  -17.9325 C   0  0  0  0  0  0  0  0  0  0  0  0
   20.8048  -27.3669  -18.6053 O   0  0  0  0  0  0  0  0  0  0  0  0
   19.4512  -26.2602  -17.1934 O   0  0  0  0  0  0  0  0  0  0  0  0
  2  3  1  0
  2  1  1  6
  4  3  1  0
  5  4  2  0
  6  5  1  0
  7  6  1  0
  7 12  2  0
  8  7  1  0
  9  8  2  0
  9 10  1  0
 10 11  2  0
 11 12  1  0
 12  4  1  0
 13  2  1  0
 13 14  2  0
 15 13  1  0
 16 15  1  0
 16 17  1  1
 18 17  1  0
 18 22  1  0
 19 18  2  0
 20 19  1  0
 20 21  1  0
 21 22  2  0
 23 16  1  0
 24 23  2  0
 25 23  1  0
 26 37  1  0
 26 25  1  0
 26 27  1  6
 28 36  1  0
 28 27  1  0
 29 28  2  0
 30 29  1  0
 30 31  1  0
 31 36  2  0
 32 31  1  0
 32 33  2  0
 33 34  1  0
 34 35  2  0
 36 35  1  0
 37 39  1  0
 38 37  2  0
M  END
$$$$
