WHW.pdb
     RDKit          3D

 39 43  0  0  1  0  0  0  0  0999 V2000
   25.1977  -18.2745  -21.4136 N   0  0  0  0  0  0  0  0  0  0  0  0
   24.6560  -19.2730  -20.5168 C   0  0  1  0  0  0  0  0  0  0  0  0
   24.6510  -20.6224  -21.2441 C   0  0  0  0  0  0  0  0  0  0  0  0
   23.5279  -20.5952  -22.2067 C   0  0  0  0  0  0  0  0  0  0  0  0
   23.6335  -20.1933  -23.5412 C   0  0  0  0  0  0  0  0  0  0  0  0
   22.4126  -20.2953  -24.1207 N   0  0  0  0  0  0  0  0  0  0  0  0
   21.5219  -20.7433  -23.2279 C   0  0  0  0  0  0  0  0  0  0  0  0
   20.1822  -21.0187  -23.2865 C   0  0  0  0  0  0  0  0  0  0  0  0
   19.5280  -21.4804  -22.1623 C   0  0  0  0  0  0  0  0  0  0  0  0
   20.1948  -21.6783  -20.9518 C   0  0  0  0  0  0  0  0  0  0  0  0
   21.5427  -21.3939  -20.9185 C   0  0  0  0  0  0  0  0  0  0  0  0
   22.2129  -20.9307  -22.0362 C   0  0  0  0  0  0  0  0  0  0  0  0
   25.4858  -19.3415  -19.3118 C   0  0  0  0  0  0  0  0  0  0  0  0
   26.7223  -19.1375  -19.4202 O   0  0  0  0  0  0  0  0  0  0  0  0
   24.9469  -19.6278  -18.0354 N   0  0  0  0  0  0  0  0  0  0  0  0
   25.6201  -19.3554  -16.7744 C   0  0  1  0  0  0  0  0  0  0  0  0
   25.4148  -17.9767  -16.2528 C   0  0  0  0  0  0  0  0  0  0  0  0
   24.0018  -17.4860  -16.2932 C   0  0  0  0  0  0  0  0  0  0  0  0
   23.0458  -17.4384  -15.3173 C   0  0  0  0  0  0  0  0  0  0  0  0
   21.9144  -16.9275  -15.8229 N   0  0  0  0  0  0  0  0  0  0  0  0
   22.1406  -16.6498  -17.1115 C   0  0  0  0  0  0  0  0  0  0  0  0
   23.3978  -16.9810  -17.4142 N   0  0  0  0  0  0  0  0  0  0  0  0
   25.0166  -20.2803  -15.7765 C   0  0  0  0  0  0  0  0  0  0  0  0
   23.8806  -20.7318  -15.9507 O   0  0  0  0  0  0  0  0  0  0  0  0
   25.7678  -20.6188  -14.6458 N   0  0  0  0  0  0  0  0  0  0  0  0
   25.1804  -21.4362  -13.5781 C   0  0  1  0  0  0  0  0  0  0  0  0
   26.2894  -21.6287  -12.5864 C   0  0  0  0  0  0  0  0  0  0  0  0
   26.4351  -20.4740  -11.7041 C   0  0  0  0  0  0  0  0  0  0  0  0
   26.8568  -19.2210  -12.0808 C   0  0  0  0  0  0  0  0  0  0  0  0
   26.9087  -18.4127  -11.0131 N   0  0  0  0  0  0  0  0  0  0  0  0
   26.5235  -19.1278   -9.9424 C   0  0  0  0  0  0  0  0  0  0  0  0
   26.3738  -18.8082   -8.6074 C   0  0  0  0  0  0  0  0  0  0  0  0
   25.9397  -19.7220   -7.6871 C   0  0  0  0  0  0  0  0  0  0  0  0
   25.6291  -21.0143   -8.0515 C   0  0  0  0  0  0  0  0  0  0  0  0
   25.7770  -21.3375   -9.3778 C   0  0  0  0  0  0  0  0  0  0  0  0
   26.2172  -20.4348  -10.3459 C   0  0  0  0  0  0  0  0  0  0  0  0
   23.9517  -20.8430  -13.0974 C   0  0  0  0  0  0  0  0  0  0  0  0
   23.6996  -19.6292  -13.2776 O   0  0  0  0  0  0  0  0  0  0  0  0
   22.9658  -21.5662  -12.4058 O   0  0  0  0  0  0  0  0  0  0  0  0
  2  3  1  0
  2  1  1  6
  4  3  1  0
  5  4  2  0
  6  5  1  0
  7  6  1  0
  7 12  2  0
  8  7  1  0
  9  8  2  0
  9 10  1  0
 10 11  2  0
 11 12  1  0
 12  4  1  0
 13  2  1  0
 13 14  2  0
 15 13  1  0
 16 15  1  0
 16 17  1  1
 18 17  1  0
 18 22  1  0
 19 18  2  0
 20 19  1  0
 20 21  1  0
 21 22  2  0
 23 16  1  0
 24 23  2  0
 25 23  1  0
 26 37  1  0
 26 25  1  0
 26 27  1  1
 28 36  1  0
 28 27  1  0
 29 28  2  0
 30 29  1  0
 30 31  1  0
 31 36  2  0
 32 31  1  0
 32 33  2  0
 33 34  1  0
 34 35  2  0
 36 35  1  0
 37 39  1  0
 38 37  2  0
M  END
$$$$
