WHW.pdb
     RDKit          3D

 39 43  0  0  1  0  0  0  0  0999 V2000
   28.5748  -20.5478   -9.3810 N   0  0  0  0  0  0  0  0  0  0  0  0
   27.3880  -21.3737   -9.4427 C   0  0  1  0  0  0  0  0  0  0  0  0
   26.6773  -21.2987   -8.0866 C   0  0  0  0  0  0  0  0  0  0  0  0
   27.3262  -20.2174   -7.3130 C   0  0  0  0  0  0  0  0  0  0  0  0
   27.4430  -18.8922   -7.7419 C   0  0  0  0  0  0  0  0  0  0  0  0
   28.0908  -18.1842   -6.7849 N   0  0  0  0  0  0  0  0  0  0  0  0
   28.3991  -18.9849   -5.7578 C   0  0  0  0  0  0  0  0  0  0  0  0
   29.0383  -18.7860   -4.5636 C   0  0  0  0  0  0  0  0  0  0  0  0
   29.2066  -19.8432   -3.6924 C   0  0  0  0  0  0  0  0  0  0  0  0
   28.7413  -21.1249   -3.9917 C   0  0  0  0  0  0  0  0  0  0  0  0
   28.1014  -21.2994   -5.1996 C   0  0  0  0  0  0  0  0  0  0  0  0
   27.9247  -20.2505   -6.0835 C   0  0  0  0  0  0  0  0  0  0  0  0
   26.5127  -20.8832  -10.5097 C   0  0  0  0  0  0  0  0  0  0  0  0
   26.0598  -19.7126  -10.4262 O   0  0  0  0  0  0  0  0  0  0  0  0
   26.1604  -21.6770  -11.6266 N   0  0  0  0  0  0  0  0  0  0  0  0
   25.3699  -21.2103  -12.7556 C   0  0  1  0  0  0  0  0  0  0  0  0
   25.5058  -22.0373  -13.9854 C   0  0  0  0  0  0  0  0  0  0  0  0
   24.7943  -21.5062  -15.1900 C   0  0  0  0  0  0  0  0  0  0  0  0
   24.9509  -20.3326  -15.8731 C   0  0  0  0  0  0  0  0  0  0  0  0
   24.0751  -20.2837  -16.8866 N   0  0  0  0  0  0  0  0  0  0  0  0
   23.3619  -21.4147  -16.8551 C   0  0  0  0  0  0  0  0  0  0  0  0
   23.7826  -22.1667  -15.8355 N   0  0  0  0  0  0  0  0  0  0  0  0
   23.9466  -21.3111  -12.3321 C   0  0  0  0  0  0  0  0  0  0  0  0
   23.5631  -22.2693  -11.6544 O   0  0  0  0  0  0  0  0  0  0  0  0
   23.0646  -20.2974  -12.7220 N   0  0  0  0  0  0  0  0  0  0  0  0
   21.6413  -20.3728  -12.3733 C   0  0  1  0  0  0  0  0  0  0  0  0
   21.3887  -19.1632  -11.5227 C   0  0  0  0  0  0  0  0  0  0  0  0
   19.9852  -19.0578  -11.1324 C   0  0  0  0  0  0  0  0  0  0  0  0
   19.3630  -19.7996  -10.1565 C   0  0  0  0  0  0  0  0  0  0  0  0
   18.0658  -19.4707  -10.0855 N   0  0  0  0  0  0  0  0  0  0  0  0
   17.8363  -18.5194  -11.0067 C   0  0  0  0  0  0  0  0  0  0  0  0
   16.7043  -17.8123  -11.3606 C   0  0  0  0  0  0  0  0  0  0  0  0
   16.7219  -16.8579  -12.3400 C   0  0  0  0  0  0  0  0  0  0  0  0
   17.8789  -16.5547  -13.0247 C   0  0  0  0  0  0  0  0  0  0  0  0
   19.0073  -17.2556  -12.6771 C   0  0  0  0  0  0  0  0  0  0  0  0
   19.0297  -18.2360  -11.6852 C   0  0  0  0  0  0  0  0  0  0  0  0
   20.8317  -20.5335  -13.5613 C   0  0  0  0  0  0  0  0  0  0  0  0
   21.1684  -20.0213  -14.6539 O   0  0  0  0  0  0  0  0  0  0  0  0
   19.6302  -21.2609  -13.5826 O   0  0  0  0  0  0  0  0  0  0  0  0
  2  3  1  0
  2  1  1  1
  4  3  1  0
  5  4  2  0
  6  5  1  0
  7  6  1  0
  7 12  2  0
  8  7  1  0
  9  8  2  0
  9 10  1  0
 10 11  2  0
 11 12  1  0
 12  4  1  0
 13  2  1  0
 13 14  2  0
 15 13  1  0
 16 15  1  0
 16 17  1  6
 18 17  1  0
 18 22  1  0
 19 18  2  0
 20 19  1  0
 20 21  1  0
 21 22  2  0
 23 16  1  0
 24 23  2  0
 25 23  1  0
 26 37  1  0
 26 25  1  0
 26 27  1  6
 28 36  1  0
 28 27  1  0
 29 28  2  0
 30 29  1  0
 30 31  1  0
 31 36  2  0
 32 31  1  0
 32 33  2  0
 33 34  1  0
 34 35  2  0
 36 35  1  0
 37 39  1  0
 38 37  2  0
M  END
$$$$
