WHW.pdb
     RDKit          3D

 39 43  0  0  1  0  0  0  0  0999 V2000
   14.4687  -16.3704    4.5020 N   0  0  0  0  0  0  0  0  0  0  0  0
   15.6414  -17.1374    4.1399 C   0  0  1  0  0  0  0  0  0  0  0  0
   16.7429  -16.8476    5.1660 C   0  0  0  0  0  0  0  0  0  0  0  0
   17.3020  -15.5168    4.8418 C   0  0  0  0  0  0  0  0  0  0  0  0
   17.0500  -14.3496    5.5683 C   0  0  0  0  0  0  0  0  0  0  0  0
   17.7224  -13.3261    4.9876 N   0  0  0  0  0  0  0  0  0  0  0  0
   18.3971  -13.7725    3.9216 C   0  0  0  0  0  0  0  0  0  0  0  0
   19.2153  -13.1727    3.0023 C   0  0  0  0  0  0  0  0  0  0  0  0
   19.7761  -13.9254    1.9904 C   0  0  0  0  0  0  0  0  0  0  0  0
   19.5340  -15.2950    1.8709 C   0  0  0  0  0  0  0  0  0  0  0  0
   18.7072  -15.8752    2.8083 C   0  0  0  0  0  0  0  0  0  0  0  0
   18.1375  -15.1351    3.8283 C   0  0  0  0  0  0  0  0  0  0  0  0
   15.3046  -18.5628    4.1361 C   0  0  0  0  0  0  0  0  0  0  0  0
   14.4363  -18.9782    4.9459 O   0  0  0  0  0  0  0  0  0  0  0  0
   15.9193  -19.4849    3.2566 N   0  0  0  0  0  0  0  0  0  0  0  0
   15.6602  -20.9168    3.2478 C   0  0  1  0  0  0  0  0  0  0  0  0
   15.7280  -21.5459    1.9007 C   0  0  0  0  0  0  0  0  0  0  0  0
   14.6467  -21.1340    0.9520 C   0  0  0  0  0  0  0  0  0  0  0  0
   13.5176  -20.3906    1.1547 C   0  0  0  0  0  0  0  0  0  0  0  0
   12.8338  -20.2919    0.0061 N   0  0  0  0  0  0  0  0  0  0  0  0
   13.5163  -20.9657   -0.9260 C   0  0  0  0  0  0  0  0  0  0  0  0
   14.6159  -21.4822   -0.3725 N   0  0  0  0  0  0  0  0  0  0  0  0
   16.7425  -21.5366    4.0600 C   0  0  0  0  0  0  0  0  0  0  0  0
   17.8335  -20.9713    4.1820 O   0  0  0  0  0  0  0  0  0  0  0  0
   16.4892  -22.7677    4.6746 N   0  0  0  0  0  0  0  0  0  0  0  0
   17.5438  -23.4558    5.4279 C   0  0  1  0  0  0  0  0  0  0  0  0
   17.2599  -23.1374    6.8661 C   0  0  0  0  0  0  0  0  0  0  0  0
   18.1822  -23.8243    7.7664 C   0  0  0  0  0  0  0  0  0  0  0  0
   19.4263  -23.3750    8.1407 C   0  0  0  0  0  0  0  0  0  0  0  0
   20.0152  -24.2694    8.9465 N   0  0  0  0  0  0  0  0  0  0  0  0
   19.1652  -25.2987    9.1018 C   0  0  0  0  0  0  0  0  0  0  0  0
   19.2381  -26.4724    9.8255 C   0  0  0  0  0  0  0  0  0  0  0  0
   18.2138  -27.3785    9.8433 C   0  0  0  0  0  0  0  0  0  0  0  0
   17.0521  -27.1609    9.1346 C   0  0  0  0  0  0  0  0  0  0  0  0
   16.9747  -25.9956    8.4127 C   0  0  0  0  0  0  0  0  0  0  0  0
   17.9971  -25.0477    8.3687 C   0  0  0  0  0  0  0  0  0  0  0  0
   17.6109  -24.8518    5.0547 C   0  0  0  0  0  0  0  0  0  0  0  0
   16.6106  -25.4541    4.6009 O   0  0  0  0  0  0  0  0  0  0  0  0
   18.7780  -25.6250    5.1695 O   0  0  0  0  0  0  0  0  0  0  0  0
  2  3  1  0
  2  1  1  1
  4  3  1  0
  5  4  2  0
  6  5  1  0
  7  6  1  0
  7 12  2  0
  8  7  1  0
  9  8  2  0
  9 10  1  0
 10 11  2  0
 11 12  1  0
 12  4  1  0
 13  2  1  0
 13 14  2  0
 15 13  1  0
 16 15  1  0
 16 17  1  6
 18 17  1  0
 18 22  1  0
 19 18  2  0
 20 19  1  0
 20 21  1  0
 21 22  2  0
 23 16  1  0
 24 23  2  0
 25 23  1  0
 26 37  1  0
 26 25  1  0
 26 27  1  1
 28 36  1  0
 28 27  1  0
 29 28  2  0
 30 29  1  0
 30 31  1  0
 31 36  2  0
 32 31  1  0
 32 33  2  0
 33 34  1  0
 34 35  2  0
 36 35  1  0
 37 39  1  0
 38 37  2  0
M  END
$$$$
