TGM.pdb
     RDKit          3D

 20 19  0  0  1  0  0  0  0  0999 V2000
   15.8126  -11.7240  -20.4094 C   0  0  0  0  0  0  0  0  0  0  0  0
   16.3885  -12.0526  -19.0289 C   0  0  1  0  0  0  0  0  0  0  0  0
   16.4332  -13.4426  -18.8454 O   0  0  0  0  0  0  0  0  0  0  0  0
   17.8035  -11.5571  -18.9899 C   0  0  2  0  0  0  0  0  0  0  0  0
   18.6086  -12.2596  -18.0254 N   0  0  0  0  0  0  0  0  0  0  0  0
   17.7834  -10.1126  -18.6394 C   0  0  0  0  0  0  0  0  0  0  0  0
   17.0979   -9.2886  -19.3381 O   0  0  0  0  0  0  0  0  0  0  0  0
   18.5264   -9.6472  -17.5278 N   0  0  0  0  0  0  0  0  0  0  0  0
   18.5564   -8.2508  -17.1826 C   0  0  0  0  0  0  0  0  0  0  0  0
   19.3463   -8.0553  -15.9317 C   0  0  0  0  0  0  0  0  0  0  0  0
   19.3015   -8.9130  -14.9918 O   0  0  0  0  0  0  0  0  0  0  0  0
   25.4332  -10.1947  -13.8953 C   0  0  0  0  0  0  0  0  0  0  0  0
   24.8382   -9.2350  -15.3069 S   0  0  0  0  0  0  0  0  0  0  0  0
   23.6681   -7.9658  -14.7667 C   0  0  0  0  0  0  0  0  0  0  0  0
   22.4095   -7.9392  -15.6313 C   0  0  0  0  0  0  0  0  0  0  0  0
   21.4328   -6.9659  -15.0322 C   0  0  2  0  0  0  0  0  0  0  0  0
   20.1767   -6.9193  -15.7291 N   0  0  0  0  0  0  0  0  0  0  0  0
   22.0476   -5.6234  -14.8765 C   0  0  0  0  0  0  0  0  0  0  0  0
   22.9140   -5.4187  -14.0075 O   0  0  0  0  0  0  0  0  0  0  0  0
   21.6583   -4.5914  -15.6994 O   0  0  0  0  0  0  0  0  0  0  0  0
  2  1  1  6
  2  3  1  0
  4  6  1  0
  4  2  1  0
  4  5  1  1
  6  8  1  0
  7  6  2  0
  8  9  1  0
  9 10  1  0
 10 17  1  0
 10 11  2  0
 12 13  1  0
 13 14  1  0
 14 15  1  0
 16 15  1  6
 16 18  1  0
 17 16  1  0
 18 19  2  0
 18 20  1  0
M  END
$$$$
