TGM.pdb
     RDKit          3D

 20 19  0  0  1  0  0  0  0  0999 V2000
   27.6538  -10.4805  -21.5992 C   0  0  0  0  0  0  0  0  0  0  0  0
   27.2994  -10.0660  -20.1680 C   0  0  1  0  0  0  0  0  0  0  0  0
   26.0116  -10.5167  -19.8423 O   0  0  0  0  0  0  0  0  0  0  0  0
   28.2552  -10.7535  -19.2390 C   0  0  2  0  0  0  0  0  0  0  0  0
   27.8614  -10.6416  -17.8591 N   0  0  0  0  0  0  0  0  0  0  0  0
   29.5969  -10.1363  -19.4082 C   0  0  0  0  0  0  0  0  0  0  0  0
   30.1758  -10.1533  -20.5491 O   0  0  0  0  0  0  0  0  0  0  0  0
   30.2368   -9.5274  -18.3017 N   0  0  0  0  0  0  0  0  0  0  0  0
   31.4531   -8.7763  -18.4640 C   0  0  0  0  0  0  0  0  0  0  0  0
   31.8588   -8.1811  -17.1571 C   0  0  0  0  0  0  0  0  0  0  0  0
   30.9933   -7.9354  -16.2561 O   0  0  0  0  0  0  0  0  0  0  0  0
   37.1334  -11.3529  -14.7799 C   0  0  0  0  0  0  0  0  0  0  0  0
   36.9560   -9.5544  -14.8209 S   0  0  0  0  0  0  0  0  0  0  0  0
   35.2640   -9.0910  -15.2617 C   0  0  0  0  0  0  0  0  0  0  0  0
   35.0671   -7.5766  -15.2717 C   0  0  0  0  0  0  0  0  0  0  0  0
   33.6336   -7.2785  -15.6128 C   0  0  2  0  0  0  0  0  0  0  0  0
   33.2114   -7.8633  -16.8559 N   0  0  0  0  0  0  0  0  0  0  0  0
   33.3643   -5.8197  -15.5495 C   0  0  0  0  0  0  0  0  0  0  0  0
   33.1780   -5.1627  -16.5894 O   0  0  0  0  0  0  0  0  0  0  0  0
   33.3196   -5.1831  -14.3303 O   0  0  0  0  0  0  0  0  0  0  0  0
  2  1  1  6
  2  3  1  0
  4  6  1  0
  4  2  1  0
  4  5  1  1
  6  8  1  0
  7  6  2  0
  8  9  1  0
  9 10  1  0
 10 17  1  0
 10 11  2  0
 12 13  1  0
 13 14  1  0
 14 15  1  0
 16 15  1  6
 16 18  1  0
 17 16  1  0
 18 19  2  0
 18 20  1  0
M  END
$$$$
