TGM.pdb
     RDKit          3D

 20 19  0  0  1  0  0  0  0  0999 V2000
   17.4388  -12.1829  -20.4515 C   0  0  0  0  0  0  0  0  0  0  0  0
   16.0373  -12.4605  -19.8998 C   0  0  1  0  0  0  0  0  0  0  0  0
   15.5973  -13.7245  -20.3197 O   0  0  0  0  0  0  0  0  0  0  0  0
   16.1307  -12.5010  -18.4035 C   0  0  2  0  0  0  0  0  0  0  0  0
   14.8866  -12.8722  -17.7820 N   0  0  0  0  0  0  0  0  0  0  0  0
   16.5245  -11.1504  -17.9231 C   0  0  0  0  0  0  0  0  0  0  0  0
   15.8080  -10.1297  -18.2087 O   0  0  0  0  0  0  0  0  0  0  0  0
   17.6979  -10.9935  -17.1466 N   0  0  0  0  0  0  0  0  0  0  0  0
   18.0639   -9.7148  -16.5982 C   0  0  0  0  0  0  0  0  0  0  0  0
   19.3036   -9.8513  -15.7787 C   0  0  0  0  0  0  0  0  0  0  0  0
   19.7450  -10.9997  -15.4509 O   0  0  0  0  0  0  0  0  0  0  0  0
   26.4015  -10.7405  -14.5946 C   0  0  0  0  0  0  0  0  0  0  0  0
   24.9917  -10.3592  -15.6599 S   0  0  0  0  0  0  0  0  0  0  0  0
   23.6325   -9.6606  -14.6922 C   0  0  0  0  0  0  0  0  0  0  0  0
   22.4001   -9.3824  -15.5500 C   0  0  0  0  0  0  0  0  0  0  0  0
   21.3179   -8.8187  -14.6717 C   0  0  2  0  0  0  0  0  0  0  0  0
   20.0437   -8.7236  -15.3296 N   0  0  0  0  0  0  0  0  0  0  0  0
   21.7424   -7.5321  -14.0643 C   0  0  0  0  0  0  0  0  0  0  0  0
   21.4879   -6.4508  -14.6245 O   0  0  0  0  0  0  0  0  0  0  0  0
   22.4250   -7.5303  -12.8693 O   0  0  0  0  0  0  0  0  0  0  0  0
  2  1  1  6
  2  3  1  0
  4  6  1  0
  4  2  1  0
  4  5  1  1
  6  8  1  0
  7  6  2  0
  8  9  1  0
  9 10  1  0
 10 17  1  0
 10 11  2  0
 12 13  1  0
 13 14  1  0
 14 15  1  0
 16 15  1  6
 16 18  1  0
 17 16  1  0
 18 19  2  0
 18 20  1  0
M  END
$$$$
