TGM.pdb
     RDKit          3D

 20 19  0  0  1  0  0  0  0  0999 V2000
   19.9677   -9.7718  -17.5984 C   0  0  0  0  0  0  0  0  0  0  0  0
   19.9864   -8.8968  -16.3415 C   0  0  1  0  0  0  0  0  0  0  0  0
   18.9485   -7.9548  -16.3965 O   0  0  0  0  0  0  0  0  0  0  0  0
   19.7171   -9.7810  -15.1604 C   0  0  2  0  0  0  0  0  0  0  0  0
   18.3940  -10.3472  -15.1843 N   0  0  0  0  0  0  0  0  0  0  0  0
   19.8713   -8.9696  -13.9245 C   0  0  0  0  0  0  0  0  0  0  0  0
   21.0313   -8.5863  -13.5447 O   0  0  0  0  0  0  0  0  0  0  0  0
   18.7291   -8.6200  -13.1644 N   0  0  0  0  0  0  0  0  0  0  0  0
   18.8380   -7.7953  -11.9906 C   0  0  0  0  0  0  0  0  0  0  0  0
   17.4769   -7.4616  -11.4780 C   0  0  0  0  0  0  0  0  0  0  0  0
   16.4971   -7.3150  -12.2778 O   0  0  0  0  0  0  0  0  0  0  0  0
   11.3593   -8.1186   -6.8940 C   0  0  0  0  0  0  0  0  0  0  0  0
   13.0032   -8.7192   -7.3461 S   0  0  0  0  0  0  0  0  0  0  0  0
   13.8907   -7.4772   -8.3165 C   0  0  0  0  0  0  0  0  0  0  0  0
   15.3008   -7.9346   -8.6834 C   0  0  0  0  0  0  0  0  0  0  0  0
   15.9291   -6.8969   -9.5715 C   0  0  2  0  0  0  0  0  0  0  0  0
   17.2087   -7.2935  -10.0920 N   0  0  0  0  0  0  0  0  0  0  0  0
   15.9741   -5.5756   -8.8958 C   0  0  0  0  0  0  0  0  0  0  0  0
   14.9261   -4.9507   -8.6528 O   0  0  0  0  0  0  0  0  0  0  0  0
   17.1851   -5.0320   -8.5327 O   0  0  0  0  0  0  0  0  0  0  0  0
  2  1  1  6
  2  3  1  0
  4  6  1  0
  4  2  1  0
  4  5  1  6
  6  8  1  0
  7  6  2  0
  8  9  1  0
  9 10  1  0
 10 17  1  0
 10 11  2  0
 12 13  1  0
 13 14  1  0
 14 15  1  0
 16 15  1  1
 16 18  1  0
 17 16  1  0
 18 19  2  0
 18 20  1  0
M  END
$$$$
