TGM.pdb
     RDKit          3D

 20 19  0  0  1  0  0  0  0  0999 V2000
   28.1168  -22.4596  -16.8018 C   0  0  0  0  0  0  0  0  0  0  0  0
   27.4705  -22.0588  -15.4724 C   0  0  1  0  0  0  0  0  0  0  0  0
   28.4020  -22.1774  -14.4303 O   0  0  0  0  0  0  0  0  0  0  0  0
   27.0917  -20.6105  -15.5623 C   0  0  2  0  0  0  0  0  0  0  0  0
   28.2281  -19.7546  -15.7813 N   0  0  0  0  0  0  0  0  0  0  0  0
   26.4334  -20.2197  -14.2880 C   0  0  0  0  0  0  0  0  0  0  0  0
   25.3199  -20.7502  -13.9478 O   0  0  0  0  0  0  0  0  0  0  0  0
   27.0413  -19.2560  -13.4478 N   0  0  0  0  0  0  0  0  0  0  0  0
   26.4082  -18.8217  -12.2310 C   0  0  0  0  0  0  0  0  0  0  0  0
   26.6900  -19.7971  -11.1374 C   0  0  0  0  0  0  0  0  0  0  0  0
   27.8359  -20.3416  -11.0289 O   0  0  0  0  0  0  0  0  0  0  0  0
   28.5746  -19.9227   -4.0994 C   0  0  0  0  0  0  0  0  0  0  0  0
   28.1497  -19.1321   -5.6685 S   0  0  0  0  0  0  0  0  0  0  0  0
   27.1945  -20.2595   -6.7118 C   0  0  0  0  0  0  0  0  0  0  0  0
   26.8692  -19.6469   -8.0723 C   0  0  0  0  0  0  0  0  0  0  0  0
   26.0252  -20.6182   -8.8498 C   0  0  2  0  0  0  0  0  0  0  0  0
   25.7089  -20.1622  -10.1755 N   0  0  0  0  0  0  0  0  0  0  0  0
   24.8179  -21.0091   -8.0790 C   0  0  0  0  0  0  0  0  0  0  0  0
   23.6910  -20.6031   -8.4151 O   0  0  0  0  0  0  0  0  0  0  0  0
   24.9415  -21.8286   -6.9804 O   0  0  0  0  0  0  0  0  0  0  0  0
  2  1  1  6
  2  3  1  0
  4  6  1  0
  4  2  1  0
  4  5  1  1
  6  8  1  0
  7  6  2  0
  8  9  1  0
  9 10  1  0
 10 17  1  0
 10 11  2  0
 12 13  1  0
 13 14  1  0
 14 15  1  0
 16 15  1  1
 16 18  1  0
 17 16  1  0
 18 19  2  0
 18 20  1  0
M  END
$$$$
