TGM.pdb
     RDKit          3D

 20 19  0  0  1  0  0  0  0  0999 V2000
   13.6687   -6.4340  -10.9148 C   0  0  0  0  0  0  0  0  0  0  0  0
   13.3053   -7.3290   -9.7263 C   0  0  1  0  0  0  0  0  0  0  0  0
   12.0981   -7.9971   -9.9795 O   0  0  0  0  0  0  0  0  0  0  0  0
   14.3702   -8.3770   -9.5960 C   0  0  2  0  0  0  0  0  0  0  0  0
   14.0839   -9.3292   -8.5552 N   0  0  0  0  0  0  0  0  0  0  0  0
   15.6572   -7.6998   -9.2881 C   0  0  0  0  0  0  0  0  0  0  0  0
   15.8297   -7.1249   -8.1581 O   0  0  0  0  0  0  0  0  0  0  0  0
   16.6961   -7.6908  -10.2498 N   0  0  0  0  0  0  0  0  0  0  0  0
   17.8970   -6.9259  -10.0434 C   0  0  0  0  0  0  0  0  0  0  0  0
   18.8251   -7.1195  -11.1959 C   0  0  0  0  0  0  0  0  0  0  0  0
   18.6315   -8.0540  -12.0387 O   0  0  0  0  0  0  0  0  0  0  0  0
   19.2220   -7.9056  -16.9991 C   0  0  0  0  0  0  0  0  0  0  0  0
   19.6924   -6.2044  -16.6087 S   0  0  0  0  0  0  0  0  0  0  0  0
   20.6902   -6.1493  -15.1010 C   0  0  0  0  0  0  0  0  0  0  0  0
   19.8294   -6.0127  -13.8470 C   0  0  0  0  0  0  0  0  0  0  0  0
   20.6951   -6.2434  -12.6397 C   0  0  2  0  0  0  0  0  0  0  0  0
   19.9549   -6.2831  -11.4084 N   0  0  0  0  0  0  0  0  0  0  0  0
   21.8184   -5.2733  -12.5976 C   0  0  0  0  0  0  0  0  0  0  0  0
   21.7053   -4.1972  -11.9836 O   0  0  0  0  0  0  0  0  0  0  0  0
   22.9988   -5.5628  -13.2430 O   0  0  0  0  0  0  0  0  0  0  0  0
  2  1  1  6
  2  3  1  0
  4  6  1  0
  4  2  1  0
  4  5  1  1
  6  8  1  0
  7  6  2  0
  8  9  1  0
  9 10  1  0
 10 17  1  0
 10 11  2  0
 12 13  1  0
 13 14  1  0
 14 15  1  0
 16 15  1  6
 16 18  1  0
 17 16  1  0
 18 19  2  0
 18 20  1  0
M  END
$$$$
