PFE.pdb
     RDKit          3D

 28 29  0  0  1  0  0  0  0  0999 V2000
   33.1156  -26.9360    5.9527 N   0  0  0  0  0  0  0  0  0  0  0  0
   33.0327  -28.0694    5.0431 C   0  0  0  0  0  0  0  0  0  0  0  0
   33.9061  -27.5882    3.8968 C   0  0  0  0  0  0  0  0  0  0  0  0
   34.9700  -26.6994    4.5362 C   0  0  0  0  0  0  0  0  0  0  0  0
   34.5442  -26.6940    5.9772 C   0  0  1  0  0  0  0  0  0  0  0  0
   34.8641  -25.4116    6.6645 C   0  0  0  0  0  0  0  0  0  0  0  0
   36.0676  -25.0796    6.7295 O   0  0  0  0  0  0  0  0  0  0  0  0
   33.8801  -24.5798    7.2303 N   0  0  0  0  0  0  0  0  0  0  0  0
   34.1601  -23.3396    7.8888 C   0  0  1  0  0  0  0  0  0  0  0  0
   33.2699  -22.2071    7.5154 C   0  0  0  0  0  0  0  0  0  0  0  0
   33.1174  -21.9246    6.0973 C   0  0  0  0  0  0  0  0  0  0  0  0
   31.9116  -21.5371    5.5645 C   0  0  0  0  0  0  0  0  0  0  0  0
   31.7763  -21.2540    4.2037 C   0  0  0  0  0  0  0  0  0  0  0  0
   32.8533  -21.3556    3.3516 C   0  0  0  0  0  0  0  0  0  0  0  0
   34.0637  -21.7438    3.8819 C   0  0  0  0  0  0  0  0  0  0  0  0
   34.1813  -22.0203    5.2299 C   0  0  0  0  0  0  0  0  0  0  0  0
   34.4258  -23.4684    9.3483 C   0  0  0  0  0  0  0  0  0  0  0  0
   33.5546  -24.0261   10.0870 O   0  0  0  0  0  0  0  0  0  0  0  0
   35.5878  -23.0120   10.0087 N   0  0  0  0  0  0  0  0  0  0  0  0
   35.8034  -23.1698   11.4524 C   0  0  1  0  0  0  0  0  0  0  0  0
   37.0246  -23.9656   11.7296 C   0  0  0  0  0  0  0  0  0  0  0  0
   36.8336  -25.4126   11.4017 C   0  0  0  0  0  0  0  0  0  0  0  0
   38.0108  -26.2677   11.6606 C   0  0  0  0  0  0  0  0  0  0  0  0
   39.1233  -26.1914   11.0984 O   0  0  0  0  0  0  0  0  0  0  0  0
   35.8950  -21.8129   12.0185 C   0  0  0  0  0  0  0  0  0  0  0  0
   35.9533  -21.5560   13.2428 O   0  0  0  0  0  0  0  0  0  0  0  0
   37.8764  -27.2644   12.6292 O   0  0  0  0  0  0  0  0  0  0  0  0
   35.9208  -20.7205   11.1661 O   0  0  0  0  0  0  0  0  0  0  0  0
  1  5  1  0
  2  3  1  0
  2  1  1  0
  3  4  1  0
  5  4  1  0
  5  6  1  6
  6  7  2  0
  8  9  1  0
  8  6  1  0
  9 17  1  0
 10 11  1  0
  9 10  1  1
 11 12  2  0
 12 13  1  0
 14 13  2  0
 15 14  1  0
 16 15  2  0
 16 11  1  0
 17 18  2  0
 19 20  1  0
 19 17  1  0
 20 25  1  0
 20 21  1  6
 22 23  1  0
 22 21  1  0
 23 24  2  0
 25 26  2  0
 25 28  1  0
 27 23  1  0
M  END
$$$$
