PFE.pdb
     RDKit          3D

 28 29  0  0  1  0  0  0  0  0999 V2000
   12.9652  -19.7650    2.1927 N   0  0  0  0  0  0  0  0  0  0  0  0
   12.1602  -20.8103    1.5777 C   0  0  0  0  0  0  0  0  0  0  0  0
   13.1681  -21.4335    0.6269 C   0  0  0  0  0  0  0  0  0  0  0  0
   14.5262  -21.2743    1.3057 C   0  0  0  0  0  0  0  0  0  0  0  0
   14.1662  -20.4975    2.5406 C   0  0  1  0  0  0  0  0  0  0  0  0
   15.2539  -19.5776    2.9764 C   0  0  0  0  0  0  0  0  0  0  0  0
   16.3232  -20.0960    3.3644 O   0  0  0  0  0  0  0  0  0  0  0  0
   15.1218  -18.1766    2.9664 N   0  0  0  0  0  0  0  0  0  0  0  0
   16.1484  -17.2712    3.3867 C   0  0  1  0  0  0  0  0  0  0  0  0
   16.2212  -15.9953    2.6243 C   0  0  0  0  0  0  0  0  0  0  0  0
   17.2204  -15.0275    3.0472 C   0  0  0  0  0  0  0  0  0  0  0  0
   18.5119  -15.0733    2.5804 C   0  0  0  0  0  0  0  0  0  0  0  0
   19.4626  -14.1318    2.9805 C   0  0  0  0  0  0  0  0  0  0  0  0
   19.1314  -13.1245    3.8592 C   0  0  0  0  0  0  0  0  0  0  0  0
   17.8377  -13.0753    4.3294 C   0  0  0  0  0  0  0  0  0  0  0  0
   16.9091  -14.0140    3.9242 C   0  0  0  0  0  0  0  0  0  0  0  0
   16.2654  -17.1223    4.8637 C   0  0  0  0  0  0  0  0  0  0  0  0
   15.2122  -16.9324    5.5497 O   0  0  0  0  0  0  0  0  0  0  0  0
   17.4727  -17.1697    5.5947 N   0  0  0  0  0  0  0  0  0  0  0  0
   17.5230  -17.1430    7.0618 C   0  0  1  0  0  0  0  0  0  0  0  0
   18.2124  -18.3424    7.5979 C   0  0  0  0  0  0  0  0  0  0  0  0
   18.2393  -18.3484    9.0936 C   0  0  0  0  0  0  0  0  0  0  0  0
   18.7267  -19.6048    9.7001 C   0  0  0  0  0  0  0  0  0  0  0  0
   18.0255  -20.5176   10.1844 O   0  0  0  0  0  0  0  0  0  0  0  0
   18.2162  -15.8993    7.4400 C   0  0  0  0  0  0  0  0  0  0  0  0
   19.1878  -15.4102    6.8196 O   0  0  0  0  0  0  0  0  0  0  0  0
   20.1086  -19.8009    9.7406 O   0  0  0  0  0  0  0  0  0  0  0  0
   17.7900  -15.1950    8.5548 O   0  0  0  0  0  0  0  0  0  0  0  0
  1  5  1  0
  2  3  1  0
  2  1  1  0
  3  4  1  0
  5  4  1  0
  5  6  1  6
  6  7  2  0
  8  9  1  0
  8  6  1  0
  9 17  1  0
 10 11  1  0
  9 10  1  6
 11 12  2  0
 12 13  1  0
 14 13  2  0
 15 14  1  0
 16 15  2  0
 16 11  1  0
 17 18  2  0
 19 20  1  0
 19 17  1  0
 20 25  1  0
 20 21  1  6
 22 23  1  0
 22 21  1  0
 23 24  2  0
 25 26  2  0
 25 28  1  0
 27 23  1  0
M  END
$$$$
