PFE.pdb
     RDKit          3D

 28 29  0  0  1  0  0  0  0  0999 V2000
   30.1392  -20.8021  -10.6140 N   0  0  0  0  0  0  0  0  0  0  0  0
   31.4472  -21.2342  -11.0846 C   0  0  0  0  0  0  0  0  0  0  0  0
   31.9889  -21.9269   -9.8457 C   0  0  0  0  0  0  0  0  0  0  0  0
   30.7700  -22.5095   -9.1347 C   0  0  0  0  0  0  0  0  0  0  0  0
   29.6428  -22.0159   -9.9972 C   0  0  1  0  0  0  0  0  0  0  0  0
   28.3977  -21.7583   -9.2210 C   0  0  0  0  0  0  0  0  0  0  0  0
   27.8041  -22.7490   -8.7425 O   0  0  0  0  0  0  0  0  0  0  0  0
   27.8785  -20.4671   -9.0127 N   0  0  0  0  0  0  0  0  0  0  0  0
   26.6133  -20.2010   -8.3974 C   0  0  1  0  0  0  0  0  0  0  0  0
   26.6522  -19.2572   -7.2475 C   0  0  0  0  0  0  0  0  0  0  0  0
   27.6160  -19.5353   -6.1950 C   0  0  0  0  0  0  0  0  0  0  0  0
   28.6741  -18.6951   -5.9453 C   0  0  0  0  0  0  0  0  0  0  0  0
   29.5879  -18.9617   -4.9235 C   0  0  0  0  0  0  0  0  0  0  0  0
   29.4543  -20.0807   -4.1320 C   0  0  0  0  0  0  0  0  0  0  0  0
   28.3948  -20.9255   -4.3793 C   0  0  0  0  0  0  0  0  0  0  0  0
   27.4997  -20.6478   -5.3937 C   0  0  0  0  0  0  0  0  0  0  0  0
   25.5025  -19.9646   -9.3604 C   0  0  0  0  0  0  0  0  0  0  0  0
   24.8623  -18.8677   -9.3064 O   0  0  0  0  0  0  0  0  0  0  0  0
   25.0785  -20.8732  -10.3550 N   0  0  0  0  0  0  0  0  0  0  0  0
   24.2862  -20.4703  -11.5235 C   0  0  1  0  0  0  0  0  0  0  0  0
   24.8150  -21.0811  -12.7679 C   0  0  0  0  0  0  0  0  0  0  0  0
   23.9525  -20.7730  -13.9507 C   0  0  0  0  0  0  0  0  0  0  0  0
   24.5018  -21.2126  -15.2502 C   0  0  0  0  0  0  0  0  0  0  0  0
   25.2903  -22.1619  -15.4413 O   0  0  0  0  0  0  0  0  0  0  0  0
   22.8978  -20.8850  -11.2582 C   0  0  0  0  0  0  0  0  0  0  0  0
   21.9094  -20.5411  -11.9461 O   0  0  0  0  0  0  0  0  0  0  0  0
   24.1058  -20.5019  -16.3850 O   0  0  0  0  0  0  0  0  0  0  0  0
   22.6295  -21.7138  -10.1804 O   0  0  0  0  0  0  0  0  0  0  0  0
  1  5  1  0
  2  3  1  0
  2  1  1  0
  3  4  1  0
  5  4  1  0
  5  6  1  1
  6  7  2  0
  8  9  1  0
  8  6  1  0
  9 17  1  0
 10 11  1  0
  9 10  1  1
 11 12  2  0
 12 13  1  0
 14 13  2  0
 15 14  1  0
 16 15  2  0
 16 11  1  0
 17 18  2  0
 19 20  1  0
 19 17  1  0
 20 25  1  0
 20 21  1  6
 22 23  1  0
 22 21  1  0
 23 24  2  0
 25 26  2  0
 25 28  1  0
 27 23  1  0
M  END
$$$$
