PFE.pdb
     RDKit          3D

 28 29  0  0  1  0  0  0  0  0999 V2000
   26.0678  -32.5128   -7.7985 N   0  0  0  0  0  0  0  0  0  0  0  0
   25.5027  -32.8540   -9.0959 C   0  0  0  0  0  0  0  0  0  0  0  0
   25.4062  -34.3661   -8.9837 C   0  0  0  0  0  0  0  0  0  0  0  0
   25.1540  -34.6531   -7.5056 C   0  0  0  0  0  0  0  0  0  0  0  0
   25.2173  -33.2761   -6.9074 C   0  0  1  0  0  0  0  0  0  0  0  0
   25.7540  -33.2790   -5.5177 C   0  0  0  0  0  0  0  0  0  0  0  0
   26.9722  -33.0392   -5.3723 O   0  0  0  0  0  0  0  0  0  0  0  0
   24.9547  -33.5368   -4.3886 N   0  0  0  0  0  0  0  0  0  0  0  0
   25.4458  -33.5471   -3.0437 C   0  0  1  0  0  0  0  0  0  0  0  0
   24.6007  -32.8265   -2.0533 C   0  0  0  0  0  0  0  0  0  0  0  0
   24.4467  -31.3921   -2.2338 C   0  0  0  0  0  0  0  0  0  0  0  0
   23.3161  -30.8534   -2.7991 C   0  0  0  0  0  0  0  0  0  0  0  0
   23.1696  -29.4735   -2.9564 C   0  0  0  0  0  0  0  0  0  0  0  0
   24.1593  -28.6078   -2.5471 C   0  0  0  0  0  0  0  0  0  0  0  0
   25.2942  -29.1441   -1.9799 C   0  0  0  0  0  0  0  0  0  0  0  0
   25.4240  -30.5110   -1.8313 C   0  0  0  0  0  0  0  0  0  0  0  0
   25.9493  -34.8719   -2.5866 C   0  0  0  0  0  0  0  0  0  0  0  0
   25.2542  -35.9101   -2.8209 O   0  0  0  0  0  0  0  0  0  0  0  0
   27.1604  -35.0888   -1.8934 N   0  0  0  0  0  0  0  0  0  0  0  0
   27.6729  -36.4272   -1.5746 C   0  0  1  0  0  0  0  0  0  0  0  0
   29.1411  -36.4039   -1.3620 C   0  0  0  0  0  0  0  0  0  0  0  0
   29.6839  -37.7669   -1.0694 C   0  0  0  0  0  0  0  0  0  0  0  0
   31.1238  -37.8031   -0.7385 C   0  0  0  0  0  0  0  0  0  0  0  0
   31.6961  -38.6302    0.0016 O   0  0  0  0  0  0  0  0  0  0  0  0
   26.9535  -36.8817   -0.3721 C   0  0  0  0  0  0  0  0  0  0  0  0
   26.5321  -38.0474   -0.1940 O   0  0  0  0  0  0  0  0  0  0  0  0
   31.9348  -36.8178   -1.3052 O   0  0  0  0  0  0  0  0  0  0  0  0
   26.7085  -35.9832    0.6542 O   0  0  0  0  0  0  0  0  0  0  0  0
  1  5  1  0
  2  3  1  0
  2  1  1  0
  3  4  1  0
  5  4  1  0
  5  6  1  1
  6  7  2  0
  8  9  1  0
  8  6  1  0
  9 17  1  0
 10 11  1  0
  9 10  1  1
 11 12  2  0
 12 13  1  0
 14 13  2  0
 15 14  1  0
 16 15  2  0
 16 11  1  0
 17 18  2  0
 19 20  1  0
 19 17  1  0
 20 25  1  0
 20 21  1  1
 22 23  1  0
 22 21  1  0
 23 24  2  0
 25 26  2  0
 25 28  1  0
 27 23  1  0
M  END
$$$$
