PFE.pdb
     RDKit          3D

 28 29  0  0  1  0  0  0  0  0999 V2000
   27.4565  -18.6493  -13.8537 N   0  0  0  0  0  0  0  0  0  0  0  0
   28.6834  -18.2384  -14.5205 C   0  0  0  0  0  0  0  0  0  0  0  0
   29.6368  -19.3361  -14.0797 C   0  0  0  0  0  0  0  0  0  0  0  0
   28.7766  -20.5870  -13.9181 C   0  0  0  0  0  0  0  0  0  0  0  0
   27.4001  -20.0551  -14.2012 C   0  0  1  0  0  0  0  0  0  0  0  0
   26.3420  -20.7620  -13.4266 C   0  0  0  0  0  0  0  0  0  0  0  0
   26.0894  -21.9439  -13.7460 O   0  0  0  0  0  0  0  0  0  0  0  0
   25.6331  -20.1585  -12.3714 N   0  0  0  0  0  0  0  0  0  0  0  0
   24.5767  -20.7973  -11.6462 C   0  0  1  0  0  0  0  0  0  0  0  0
   24.6979  -20.7389  -10.1642 C   0  0  0  0  0  0  0  0  0  0  0  0
   26.0409  -20.6659   -9.6121 C   0  0  0  0  0  0  0  0  0  0  0  0
   26.3428  -19.8411   -8.5554 C   0  0  0  0  0  0  0  0  0  0  0  0
   27.6321  -19.7869   -8.0216 C   0  0  0  0  0  0  0  0  0  0  0  0
   28.6441  -20.5627   -8.5417 C   0  0  0  0  0  0  0  0  0  0  0  0
   28.3454  -21.3909   -9.6010 C   0  0  0  0  0  0  0  0  0  0  0  0
   27.0653  -21.4331  -10.1176 C   0  0  0  0  0  0  0  0  0  0  0  0
   23.2133  -20.5102  -12.1718 C   0  0  0  0  0  0  0  0  0  0  0  0
   22.8120  -19.3050  -12.2198 O   0  0  0  0  0  0  0  0  0  0  0  0
   22.2960  -21.4804  -12.6318 N   0  0  0  0  0  0  0  0  0  0  0  0
   20.9920  -21.1384  -13.2135 C   0  0  1  0  0  0  0  0  0  0  0  0
   20.6040  -22.1059  -14.2692 C   0  0  0  0  0  0  0  0  0  0  0  0
   21.2870  -21.8173  -15.5685 C   0  0  0  0  0  0  0  0  0  0  0  0
   20.9060  -22.7118  -16.6815 C   0  0  0  0  0  0  0  0  0  0  0  0
   19.8465  -22.6684  -17.3410 O   0  0  0  0  0  0  0  0  0  0  0  0
   20.0234  -21.1226  -12.1037 C   0  0  0  0  0  0  0  0  0  0  0  0
   20.1469  -21.7769  -11.0431 O   0  0  0  0  0  0  0  0  0  0  0  0
   21.8150  -23.7093  -17.0396 O   0  0  0  0  0  0  0  0  0  0  0  0
   18.8842  -20.3401  -12.2061 O   0  0  0  0  0  0  0  0  0  0  0  0
  1  5  1  0
  2  3  1  0
  2  1  1  0
  3  4  1  0
  5  4  1  0
  5  6  1  1
  6  7  2  0
  8  9  1  0
  8  6  1  0
  9 17  1  0
 10 11  1  0
  9 10  1  1
 11 12  2  0
 12 13  1  0
 14 13  2  0
 15 14  1  0
 16 15  2  0
 16 11  1  0
 17 18  2  0
 19 20  1  0
 19 17  1  0
 20 25  1  0
 20 21  1  6
 22 23  1  0
 22 21  1  0
 23 24  2  0
 25 26  2  0
 25 28  1  0
 27 23  1  0
M  END
$$$$
