PFE.pdb
     RDKit          3D

 28 29  0  0  1  0  0  0  0  0999 V2000
   21.1871  -11.3595  -19.8014 N   0  0  0  0  0  0  0  0  0  0  0  0
   21.1282  -12.5071  -20.6949 C   0  0  0  0  0  0  0  0  0  0  0  0
   20.6448  -13.5911  -19.7465 C   0  0  0  0  0  0  0  0  0  0  0  0
   19.7608  -12.8792  -18.7255 C   0  0  0  0  0  0  0  0  0  0  0  0
   19.8978  -11.4428  -19.1449 C   0  0  1  0  0  0  0  0  0  0  0  0
   19.8142  -10.4995  -17.9950 C   0  0  0  0  0  0  0  0  0  0  0  0
   18.7248  -10.4324  -17.3855 O   0  0  0  0  0  0  0  0  0  0  0  0
   20.8951   -9.6993  -17.5807 N   0  0  0  0  0  0  0  0  0  0  0  0
   20.8438   -8.7927  -16.4737 C   0  0  1  0  0  0  0  0  0  0  0  0
   21.9331   -8.9506  -15.4724 C   0  0  0  0  0  0  0  0  0  0  0  0
   21.9156   -8.0539  -14.3280 C   0  0  0  0  0  0  0  0  0  0  0  0
   22.3911   -6.7675  -14.4121 C   0  0  0  0  0  0  0  0  0  0  0  0
   22.3580   -5.9076  -13.3122 C   0  0  0  0  0  0  0  0  0  0  0  0
   21.8451   -6.3263  -12.1047 C   0  0  0  0  0  0  0  0  0  0  0  0
   21.3674   -7.6152  -12.0164 C   0  0  0  0  0  0  0  0  0  0  0  0
   21.4072   -8.4534  -13.1134 C   0  0  0  0  0  0  0  0  0  0  0  0
   20.5430   -7.3838  -16.8506 C   0  0  0  0  0  0  0  0  0  0  0  0
   21.2421   -6.8240  -17.7527 O   0  0  0  0  0  0  0  0  0  0  0  0
   19.5265   -6.5865  -16.2800 N   0  0  0  0  0  0  0  0  0  0  0  0
   19.2670   -5.2018  -16.6931 C   0  0  1  0  0  0  0  0  0  0  0  0
   17.8120   -4.9448  -16.8279 C   0  0  0  0  0  0  0  0  0  0  0  0
   17.5285   -3.5222  -17.1937 C   0  0  0  0  0  0  0  0  0  0  0  0
   16.1238   -3.2439  -17.5587 C   0  0  0  0  0  0  0  0  0  0  0  0
   15.4065   -3.9207  -18.3248 O   0  0  0  0  0  0  0  0  0  0  0  0
   19.8837   -4.3329  -15.6758 C   0  0  0  0  0  0  0  0  0  0  0  0
   19.8587   -4.5530  -14.4433 O   0  0  0  0  0  0  0  0  0  0  0  0
   15.5291   -2.1128  -16.9958 O   0  0  0  0  0  0  0  0  0  0  0  0
   20.5463   -3.1829  -16.0747 O   0  0  0  0  0  0  0  0  0  0  0  0
  1  5  1  0
  2  3  1  0
  2  1  1  0
  3  4  1  0
  5  4  1  0
  5  6  1  1
  6  7  2  0
  8  9  1  0
  8  6  1  0
  9 17  1  0
 10 11  1  0
  9 10  1  6
 11 12  2  0
 12 13  1  0
 14 13  2  0
 15 14  1  0
 16 15  2  0
 16 11  1  0
 17 18  2  0
 19 20  1  0
 19 17  1  0
 20 25  1  0
 20 21  1  1
 22 23  1  0
 22 21  1  0
 23 24  2  0
 25 26  2  0
 25 28  1  0
 27 23  1  0
M  END
$$$$
