PFE.pdb
     RDKit          3D

 28 29  0  0  1  0  0  0  0  0999 V2000
   27.3950  -18.9524  -13.5033 N   0  0  0  0  0  0  0  0  0  0  0  0
   28.5314  -18.5560  -14.3221 C   0  0  0  0  0  0  0  0  0  0  0  0
   29.5904  -19.5357  -13.8457 C   0  0  0  0  0  0  0  0  0  0  0  0
   28.8332  -20.8048  -13.4626 C   0  0  0  0  0  0  0  0  0  0  0  0
   27.4050  -20.3909  -13.6789 C   0  0  1  0  0  0  0  0  0  0  0  0
   26.4657  -21.0578  -12.7345 C   0  0  0  0  0  0  0  0  0  0  0  0
   26.2512  -22.2777  -12.9037 O   0  0  0  0  0  0  0  0  0  0  0  0
   25.8259  -20.3770  -11.6822 N   0  0  0  0  0  0  0  0  0  0  0  0
   24.8479  -20.9699  -10.8207 C   0  0  1  0  0  0  0  0  0  0  0  0
   25.0140  -20.6729   -9.3720 C   0  0  0  0  0  0  0  0  0  0  0  0
   26.3739  -20.5398   -8.8752 C   0  0  0  0  0  0  0  0  0  0  0  0
   27.3528  -21.4477   -9.2001 C   0  0  0  0  0  0  0  0  0  0  0  0
   28.6601  -21.3055   -8.7302 C   0  0  0  0  0  0  0  0  0  0  0  0
   29.0082  -20.2454   -7.9231 C   0  0  0  0  0  0  0  0  0  0  0  0
   28.0296  -19.3331   -7.5951 C   0  0  0  0  0  0  0  0  0  0  0  0
   26.7412  -19.4879   -8.0679 C   0  0  0  0  0  0  0  0  0  0  0  0
   23.4493  -20.8675  -11.3215 C   0  0  0  0  0  0  0  0  0  0  0  0
   22.4909  -21.1571  -10.5383 O   0  0  0  0  0  0  0  0  0  0  0  0
   23.0771  -20.4709  -12.6248 N   0  0  0  0  0  0  0  0  0  0  0  0
   21.7060  -20.0895  -12.9858 C   0  0  1  0  0  0  0  0  0  0  0  0
   21.6983  -18.9733  -13.9632 C   0  0  0  0  0  0  0  0  0  0  0  0
   20.3080  -18.5891  -14.3601 C   0  0  0  0  0  0  0  0  0  0  0  0
   20.2268  -17.5368  -15.3945 C   0  0  0  0  0  0  0  0  0  0  0  0
   20.6190  -16.3562  -15.2865 O   0  0  0  0  0  0  0  0  0  0  0  0
   21.0590  -21.2963  -13.5291 C   0  0  0  0  0  0  0  0  0  0  0  0
   19.8232  -21.4987  -13.5351 O   0  0  0  0  0  0  0  0  0  0  0  0
   19.6558  -17.8874  -16.6195 O   0  0  0  0  0  0  0  0  0  0  0  0
   21.8419  -22.2984  -14.0800 O   0  0  0  0  0  0  0  0  0  0  0  0
  1  5  1  0
  2  3  1  0
  2  1  1  0
  3  4  1  0
  5  4  1  0
  5  6  1  1
  6  7  2  0
  8  9  1  0
  8  6  1  0
  9 17  1  0
 10 11  1  0
  9 10  1  1
 11 12  2  0
 12 13  1  0
 14 13  2  0
 15 14  1  0
 16 15  2  0
 16 11  1  0
 17 18  2  0
 19 20  1  0
 19 17  1  0
 20 25  1  0
 20 21  1  6
 22 23  1  0
 22 21  1  0
 23 24  2  0
 25 26  2  0
 25 28  1  0
 27 23  1  0
M  END
$$$$
