PFE.pdb
     RDKit          3D

 28 29  0  0  1  0  0  0  0  0999 V2000
   16.7916  -11.0059  -12.1886 N   0  0  0  0  0  0  0  0  0  0  0  0
   16.7030  -12.1603  -13.0708 C   0  0  0  0  0  0  0  0  0  0  0  0
   15.2164  -12.1747  -13.3843 C   0  0  0  0  0  0  0  0  0  0  0  0
   14.7755  -10.7135  -13.3510 C   0  0  0  0  0  0  0  0  0  0  0  0
   16.0409  -10.0172  -12.9364 C   0  0  1  0  0  0  0  0  0  0  0  0
   15.7833   -8.8000  -12.1171 C   0  0  0  0  0  0  0  0  0  0  0  0
   15.1914   -7.8490  -12.6723 O   0  0  0  0  0  0  0  0  0  0  0  0
   16.1746   -8.6865  -10.7702 N   0  0  0  0  0  0  0  0  0  0  0  0
   15.8693   -7.5618   -9.9384 C   0  0  1  0  0  0  0  0  0  0  0  0
   15.3589   -7.8956   -8.5810 C   0  0  0  0  0  0  0  0  0  0  0  0
   13.9772   -8.3373   -8.4833 C   0  0  0  0  0  0  0  0  0  0  0  0
   12.9477   -7.4484   -8.2880 C   0  0  0  0  0  0  0  0  0  0  0  0
   11.6216   -7.8789   -8.2091 C   0  0  0  0  0  0  0  0  0  0  0  0
   11.3053   -9.2142   -8.3255 C   0  0  0  0  0  0  0  0  0  0  0  0
   12.3345  -10.1083   -8.5214 C   0  0  0  0  0  0  0  0  0  0  0  0
   13.6409   -9.6667   -8.5972 C   0  0  0  0  0  0  0  0  0  0  0  0
   16.8934   -6.4812   -9.9708 C   0  0  0  0  0  0  0  0  0  0  0  0
   17.8770   -6.5395   -9.1678 O   0  0  0  0  0  0  0  0  0  0  0  0
   16.8713   -5.3628  -10.8329 N   0  0  0  0  0  0  0  0  0  0  0  0
   17.9160   -4.3312  -10.8343 C   0  0  1  0  0  0  0  0  0  0  0  0
   18.8731   -4.5370  -11.9491 C   0  0  0  0  0  0  0  0  0  0  0  0
   19.8447   -5.6356  -11.6543 C   0  0  0  0  0  0  0  0  0  0  0  0
   20.6943   -6.0349  -12.7957 C   0  0  0  0  0  0  0  0  0  0  0  0
   20.6371   -5.5841  -13.9588 O   0  0  0  0  0  0  0  0  0  0  0  0
   17.2291   -3.0320  -10.9364 C   0  0  0  0  0  0  0  0  0  0  0  0
   16.0149   -2.8893  -11.2078 O   0  0  0  0  0  0  0  0  0  0  0  0
   21.6617   -7.0141  -12.5607 O   0  0  0  0  0  0  0  0  0  0  0  0
   17.9456   -1.8651  -10.7233 O   0  0  0  0  0  0  0  0  0  0  0  0
  1  5  1  0
  2  3  1  0
  2  1  1  0
  3  4  1  0
  5  4  1  0
  5  6  1  1
  6  7  2  0
  8  9  1  0
  8  6  1  0
  9 17  1  0
 10 11  1  0
  9 10  1  1
 11 12  2  0
 12 13  1  0
 14 13  2  0
 15 14  1  0
 16 15  2  0
 16 11  1  0
 17 18  2  0
 19 20  1  0
 19 17  1  0
 20 25  1  0
 20 21  1  6
 22 23  1  0
 22 21  1  0
 23 24  2  0
 25 26  2  0
 25 28  1  0
 27 23  1  0
M  END
$$$$
