PFE.pdb
     RDKit          3D

 28 29  0  0  1  0  0  0  0  0999 V2000
   27.7425  -22.1998  -16.9255 N   0  0  0  0  0  0  0  0  0  0  0  0
   28.3229  -21.5972  -18.1167 C   0  0  0  0  0  0  0  0  0  0  0  0
   27.5553  -20.2879  -18.1851 C   0  0  0  0  0  0  0  0  0  0  0  0
   27.2504  -19.9143  -16.7366 C   0  0  0  0  0  0  0  0  0  0  0  0
   27.8022  -21.0953  -15.9892 C   0  0  1  0  0  0  0  0  0  0  0  0
   27.0362  -21.3966  -14.7475 C   0  0  0  0  0  0  0  0  0  0  0  0
   25.9440  -21.9908  -14.8767 O   0  0  0  0  0  0  0  0  0  0  0  0
   27.4898  -21.0432  -13.4632 N   0  0  0  0  0  0  0  0  0  0  0  0
   26.6635  -21.0385  -12.2938 C   0  0  1  0  0  0  0  0  0  0  0  0
   27.3883  -20.8754  -11.0045 C   0  0  0  0  0  0  0  0  0  0  0  0
   26.5852  -20.6043   -9.8232 C   0  0  0  0  0  0  0  0  0  0  0  0
   25.5916  -21.4608   -9.4143 C   0  0  0  0  0  0  0  0  0  0  0  0
   24.8337  -21.2006   -8.2706 C   0  0  0  0  0  0  0  0  0  0  0  0
   25.0613  -20.0719   -7.5152 C   0  0  0  0  0  0  0  0  0  0  0  0
   26.0566  -19.2109   -7.9218 C   0  0  0  0  0  0  0  0  0  0  0  0
   26.7974  -19.4824   -9.0554 C   0  0  0  0  0  0  0  0  0  0  0  0
   25.4272  -20.2184  -12.4219 C   0  0  0  0  0  0  0  0  0  0  0  0
   25.5346  -18.9706  -12.6394 O   0  0  0  0  0  0  0  0  0  0  0  0
   24.1077  -20.7110  -12.3174 N   0  0  0  0  0  0  0  0  0  0  0  0
   22.9206  -19.8580  -12.4540 C   0  0  1  0  0  0  0  0  0  0  0  0
   22.5655  -19.6555  -13.8802 C   0  0  0  0  0  0  0  0  0  0  0  0
   22.1231  -20.9278  -14.5309 C   0  0  0  0  0  0  0  0  0  0  0  0
   22.2745  -20.9580  -16.0006 C   0  0  0  0  0  0  0  0  0  0  0  0
   21.7580  -20.1674  -16.8177 O   0  0  0  0  0  0  0  0  0  0  0  0
   21.8352  -20.5191  -11.7089 C   0  0  0  0  0  0  0  0  0  0  0  0
   21.8966  -21.6805  -11.2445 O   0  0  0  0  0  0  0  0  0  0  0  0
   23.0735  -21.9680  -16.5402 O   0  0  0  0  0  0  0  0  0  0  0  0
   20.6488  -19.8378  -11.4877 O   0  0  0  0  0  0  0  0  0  0  0  0
  1  5  1  0
  2  3  1  0
  2  1  1  0
  3  4  1  0
  5  4  1  0
  5  6  1  1
  6  7  2  0
  8  9  1  0
  8  6  1  0
  9 17  1  0
 10 11  1  0
  9 10  1  1
 11 12  2  0
 12 13  1  0
 14 13  2  0
 15 14  1  0
 16 15  2  0
 16 11  1  0
 17 18  2  0
 19 20  1  0
 19 17  1  0
 20 25  1  0
 20 21  1  6
 22 23  1  0
 22 21  1  0
 23 24  2  0
 25 26  2  0
 25 28  1  0
 27 23  1  0
M  END
$$$$
