LAI.pdb
     RDKit          3D

 22 21  0  0  1  0  0  0  0  0999 V2000
    7.3811  -11.5470   23.9796 C   0  0  0  0  0  0  0  0  0  0  0  0
    6.4520  -12.4668   24.7009 C   0  0  2  0  0  0  0  0  0  0  0  0
    6.0417  -11.8328   25.9911 C   0  0  0  0  0  0  0  0  0  0  0  0
    7.0313  -13.8363   24.8566 C   0  0  0  0  0  0  0  0  0  0  0  0
    7.4846  -14.4695   23.5861 C   0  0  2  0  0  0  0  0  0  0  0  0
    6.3788  -14.8342   22.7399 N   0  0  0  0  0  0  0  0  0  0  0  0
    8.2966  -15.6810   23.9646 C   0  0  0  0  0  0  0  0  0  0  0  0
    7.8814  -16.4596   24.8607 O   0  0  0  0  0  0  0  0  0  0  0  0
   11.4046  -17.3316   22.7327 C   0  0  0  0  0  0  0  0  0  0  0  0
   10.3949  -17.0582   23.8305 C   0  0  2  0  0  0  0  0  0  0  0  0
    9.5282  -15.9955   23.3516 N   0  0  0  0  0  0  0  0  0  0  0  0
   11.0615  -16.6659   25.0825 C   0  0  0  0  0  0  0  0  0  0  0  0
   12.0479  -15.9134   25.0472 O   0  0  0  0  0  0  0  0  0  0  0  0
    9.3431  -13.4983   28.1180 C   0  0  0  0  0  0  0  0  0  0  0  0
   10.2799  -14.4706   27.4672 C   0  0  0  0  0  0  0  0  0  0  0  0
   10.4357  -15.7256   28.3050 C   0  0  2  0  0  0  0  0  0  0  0  0
   11.1375  -15.4073   29.6090 C   0  0  0  0  0  0  0  0  0  0  0  0
   11.2961  -16.7264   27.5365 C   0  0  2  0  0  0  0  0  0  0  0  0
   10.5969  -17.1333   26.3365 N   0  0  0  0  0  0  0  0  0  0  0  0
   11.5867  -17.9103   28.3812 C   0  0  0  0  0  0  0  0  0  0  0  0
   12.6347  -17.9449   29.0729 O   0  0  0  0  0  0  0  0  0  0  0  0
   10.6884  -18.9789   28.3989 O   0  0  0  0  0  0  0  0  0  0  0  0
  2  1  1  1
  2  3  1  0
  4  5  1  0
  4  2  1  0
  5  6  1  6
  7  5  1  0
  8  7  2  0
 10  9  1  6
 10 12  1  0
 10 11  1  0
 11  7  1  0
 12 19  1  0
 13 12  2  0
 14 15  1  0
 16 17  1  1
 16 15  1  0
 18 16  1  0
 18 19  1  6
 20 22  1  0
 20 18  1  0
 21 20  2  0
M  END
$$$$
