LAI.pdb
     RDKit          3D

 22 21  0  0  1  0  0  0  0  0999 V2000
    7.6726  -12.1391   19.5733 C   0  0  0  0  0  0  0  0  0  0  0  0
    8.4603  -13.4039   19.6694 C   0  0  2  0  0  0  0  0  0  0  0  0
    9.8078  -13.1872   19.0594 C   0  0  0  0  0  0  0  0  0  0  0  0
    7.7176  -14.5691   19.0984 C   0  0  0  0  0  0  0  0  0  0  0  0
    8.3731  -15.8905   19.3104 C   0  0  2  0  0  0  0  0  0  0  0  0
    7.7324  -16.9379   18.5591 N   0  0  0  0  0  0  0  0  0  0  0  0
    8.3176  -16.1760   20.7889 C   0  0  0  0  0  0  0  0  0  0  0  0
    7.2227  -16.0968   21.4025 O   0  0  0  0  0  0  0  0  0  0  0  0
   10.5536  -17.9294   23.1350 C   0  0  0  0  0  0  0  0  0  0  0  0
    9.3783  -16.9968   22.9146 C   0  0  2  0  0  0  0  0  0  0  0  0
    9.4571  -16.5362   21.5393 N   0  0  0  0  0  0  0  0  0  0  0  0
    9.4158  -15.8613   23.8500 C   0  0  0  0  0  0  0  0  0  0  0  0
   10.2020  -14.9220   23.6495 O   0  0  0  0  0  0  0  0  0  0  0  0
    6.2599  -11.8445   26.7147 C   0  0  0  0  0  0  0  0  0  0  0  0
    7.4704  -12.7246   26.7981 C   0  0  0  0  0  0  0  0  0  0  0  0
    7.3562  -13.9040   25.8510 C   0  0  2  0  0  0  0  0  0  0  0  0
    6.2392  -14.8284   26.2895 C   0  0  0  0  0  0  0  0  0  0  0  0
    8.6640  -14.6919   25.8867 C   0  0  2  0  0  0  0  0  0  0  0  0
    8.5666  -15.8182   24.9831 N   0  0  0  0  0  0  0  0  0  0  0  0
    8.9403  -15.1681   27.2639 C   0  0  0  0  0  0  0  0  0  0  0  0
    8.6661  -16.3512   27.5850 O   0  0  0  0  0  0  0  0  0  0  0  0
    9.5048  -14.2926   28.1934 O   0  0  0  0  0  0  0  0  0  0  0  0
  2  1  1  6
  2  3  1  0
  4  5  1  0
  4  2  1  0
  5  6  1  6
  7  5  1  0
  8  7  2  0
 10  9  1  1
 10 12  1  0
 10 11  1  0
 11  7  1  0
 12 19  1  0
 13 12  2  0
 14 15  1  0
 16 17  1  1
 16 15  1  0
 18 16  1  0
 18 19  1  6
 20 22  1  0
 20 18  1  0
 21 20  2  0
M  END
$$$$
