LAI.pdb
     RDKit          3D

 22 21  0  0  1  0  0  0  0  0999 V2000
    8.1849  -12.2302   19.3701 C   0  0  0  0  0  0  0  0  0  0  0  0
    8.3495  -13.6882   19.0935 C   0  0  2  0  0  0  0  0  0  0  0  0
    8.6469  -13.8788   17.6409 C   0  0  0  0  0  0  0  0  0  0  0  0
    7.1822  -14.4846   19.5820 C   0  0  0  0  0  0  0  0  0  0  0  0
    7.4813  -15.9155   19.8716 C   0  0  2  0  0  0  0  0  0  0  0  0
    6.6686  -16.8068   19.0862 N   0  0  0  0  0  0  0  0  0  0  0  0
    7.2424  -16.1246   21.3446 C   0  0  0  0  0  0  0  0  0  0  0  0
    6.1204  -15.8520   21.8431 O   0  0  0  0  0  0  0  0  0  0  0  0
    8.4771  -18.2687   23.9239 C   0  0  0  0  0  0  0  0  0  0  0  0
    7.9930  -16.8626   23.6270 C   0  0  2  0  0  0  0  0  0  0  0  0
    8.2354  -16.6221   22.2152 N   0  0  0  0  0  0  0  0  0  0  0  0
    8.6966  -15.8704   24.4554 C   0  0  0  0  0  0  0  0  0  0  0  0
    9.8593  -15.5421   24.1714 O   0  0  0  0  0  0  0  0  0  0  0  0
    5.8740  -12.2786   27.7201 C   0  0  0  0  0  0  0  0  0  0  0  0
    6.6768  -13.4774   27.3138 C   0  0  0  0  0  0  0  0  0  0  0  0
    7.9334  -13.0681   26.5691 C   0  0  2  0  0  0  0  0  0  0  0  0
    7.5816  -12.5032   25.2084 C   0  0  0  0  0  0  0  0  0  0  0  0
    8.8045  -14.3046   26.3574 C   0  0  2  0  0  0  0  0  0  0  0  0
    8.0690  -15.2780   25.5788 N   0  0  0  0  0  0  0  0  0  0  0  0
    9.1945  -14.8889   27.6635 C   0  0  0  0  0  0  0  0  0  0  0  0
    8.6858  -15.9733   28.0423 O   0  0  0  0  0  0  0  0  0  0  0  0
   10.1273  -14.2248   28.4623 O   0  0  0  0  0  0  0  0  0  0  0  0
  2  1  1  6
  2  3  1  0
  4  5  1  0
  4  2  1  0
  5  6  1  6
  7  5  1  0
  8  7  2  0
 10  9  1  1
 10 12  1  0
 10 11  1  0
 11  7  1  0
 12 19  1  0
 13 12  2  0
 14 15  1  0
 16 17  1  6
 16 15  1  0
 18 16  1  0
 18 19  1  6
 20 22  1  0
 20 18  1  0
 21 20  2  0
M  END
$$$$
