LAI.pdb
     RDKit          3D

 22 21  0  0  1  0  0  0  0  0999 V2000
    5.6971  -20.4996   26.4994 C   0  0  0  0  0  0  0  0  0  0  0  0
    7.1712  -20.3070   26.6375 C   0  0  2  0  0  0  0  0  0  0  0  0
    7.5065  -20.1266   28.0832 C   0  0  0  0  0  0  0  0  0  0  0  0
    7.6757  -19.2086   25.7575 C   0  0  0  0  0  0  0  0  0  0  0  0
    7.2234  -19.2883   24.3398 C   0  0  2  0  0  0  0  0  0  0  0  0
    7.6854  -20.4879   23.6922 N   0  0  0  0  0  0  0  0  0  0  0  0
    7.7500  -18.0614   23.6413 C   0  0  0  0  0  0  0  0  0  0  0  0
    8.9904  -17.8745   23.5513 O   0  0  0  0  0  0  0  0  0  0  0  0
    6.2249  -15.2044   21.7722 C   0  0  0  0  0  0  0  0  0  0  0  0
    7.4105  -15.8879   22.4256 C   0  0  2  0  0  0  0  0  0  0  0  0
    6.9040  -17.0876   23.0691 N   0  0  0  0  0  0  0  0  0  0  0  0
    8.0624  -15.0038   23.4050 C   0  0  0  0  0  0  0  0  0  0  0  0
    8.7119  -14.0213   23.0134 O   0  0  0  0  0  0  0  0  0  0  0  0
    5.7332  -12.1605   26.5081 C   0  0  0  0  0  0  0  0  0  0  0  0
    6.8478  -12.7776   25.7184 C   0  0  0  0  0  0  0  0  0  0  0  0
    7.7259  -13.6473   26.5980 C   0  0  2  0  0  0  0  0  0  0  0  0
    8.5298  -12.7909   27.5545 C   0  0  0  0  0  0  0  0  0  0  0  0
    8.7053  -14.4132   25.7112 C   0  0  2  0  0  0  0  0  0  0  0  0
    7.9628  -15.2532   24.7960 N   0  0  0  0  0  0  0  0  0  0  0  0
    9.6105  -15.2438   26.5422 C   0  0  0  0  0  0  0  0  0  0  0  0
    9.2730  -16.4107   26.8625 O   0  0  0  0  0  0  0  0  0  0  0  0
   10.8338  -14.7178   26.9618 O   0  0  0  0  0  0  0  0  0  0  0  0
  2  1  1  1
  2  3  1  0
  4  5  1  0
  4  2  1  0
  5  6  1  6
  7  5  1  0
  8  7  2  0
 10  9  1  1
 10 12  1  0
 10 11  1  0
 11  7  1  0
 12 19  1  0
 13 12  2  0
 14 15  1  0
 16 17  1  1
 16 15  1  0
 18 16  1  0
 18 19  1  6
 20 22  1  0
 20 18  1  0
 21 20  2  0
M  END
$$$$
