LAI.pdb
     RDKit          3D

 22 21  0  0  1  0  0  0  0  0999 V2000
    9.6140  -13.5052   19.4390 C   0  0  0  0  0  0  0  0  0  0  0  0
    8.1584  -13.3916   19.1266 C   0  0  2  0  0  0  0  0  0  0  0  0
    7.7501  -11.9564   19.2185 C   0  0  0  0  0  0  0  0  0  0  0  0
    7.3330  -14.3109   19.9686 C   0  0  0  0  0  0  0  0  0  0  0  0
    7.8765  -15.6922   20.0999 C   0  0  2  0  0  0  0  0  0  0  0  0
    7.2822  -16.5987   19.1527 N   0  0  0  0  0  0  0  0  0  0  0  0
    7.6076  -16.1373   21.5141 C   0  0  0  0  0  0  0  0  0  0  0  0
    6.4268  -16.1791   21.9449 O   0  0  0  0  0  0  0  0  0  0  0  0
    8.9257  -18.3182   23.9409 C   0  0  0  0  0  0  0  0  0  0  0  0
    8.3804  -16.9128   23.7766 C   0  0  2  0  0  0  0  0  0  0  0  0
    8.6359  -16.5189   22.4021 N   0  0  0  0  0  0  0  0  0  0  0  0
    9.0210  -15.9790   24.7165 C   0  0  0  0  0  0  0  0  0  0  0  0
   10.1473  -15.5234   24.4628 O   0  0  0  0  0  0  0  0  0  0  0  0
    6.1282  -12.1048   26.6015 C   0  0  0  0  0  0  0  0  0  0  0  0
    7.2591  -12.9706   26.1346 C   0  0  0  0  0  0  0  0  0  0  0  0
    7.9519  -13.6443   27.3039 C   0  0  2  0  0  0  0  0  0  0  0  0
    8.6489  -12.6154   28.1699 C   0  0  0  0  0  0  0  0  0  0  0  0
    9.0107  -14.6026   26.7626 C   0  0  2  0  0  0  0  0  0  0  0  0
    8.3736  -15.5867   25.9139 N   0  0  0  0  0  0  0  0  0  0  0  0
    9.7150  -15.2760   27.8807 C   0  0  0  0  0  0  0  0  0  0  0  0
   10.6484  -14.6861   28.4796 O   0  0  0  0  0  0  0  0  0  0  0  0
    9.3316  -16.5644   28.2577 O   0  0  0  0  0  0  0  0  0  0  0  0
  2  1  1  1
  2  3  1  0
  4  5  1  0
  4  2  1  0
  5  6  1  6
  7  5  1  0
  8  7  2  0
 10  9  1  6
 10 12  1  0
 10 11  1  0
 11  7  1  0
 12 19  1  0
 13 12  2  0
 14 15  1  0
 16 17  1  1
 16 15  1  0
 18 16  1  0
 18 19  1  6
 20 22  1  0
 20 18  1  0
 21 20  2  0
M  END
$$$$
