LAI.pdb
     RDKit          3D

 22 21  0  0  1  0  0  0  0  0999 V2000
   10.1257  -13.5679   19.2121 C   0  0  0  0  0  0  0  0  0  0  0  0
    8.8796  -13.3478   18.4196 C   0  0  2  0  0  0  0  0  0  0  0  0
    8.4077  -11.9453   18.6317 C   0  0  0  0  0  0  0  0  0  0  0  0
    7.8430  -14.3856   18.7091 C   0  0  0  0  0  0  0  0  0  0  0  0
    8.3860  -15.7314   19.0480 C   0  0  2  0  0  0  0  0  0  0  0  0
    7.9986  -16.7283   18.0846 N   0  0  0  0  0  0  0  0  0  0  0  0
    7.8715  -16.0794   20.4208 C   0  0  0  0  0  0  0  0  0  0  0  0
    6.6329  -16.1255   20.6336 O   0  0  0  0  0  0  0  0  0  0  0  0
    8.8011  -18.1138   23.1249 C   0  0  0  0  0  0  0  0  0  0  0  0
    8.2320  -16.7420   22.8184 C   0  0  2  0  0  0  0  0  0  0  0  0
    8.7272  -16.3632   21.5065 N   0  0  0  0  0  0  0  0  0  0  0  0
    8.6363  -15.7577   23.8349 C   0  0  0  0  0  0  0  0  0  0  0  0
    9.7530  -15.2206   23.7645 O   0  0  0  0  0  0  0  0  0  0  0  0
    6.4688  -11.3112   27.2696 C   0  0  0  0  0  0  0  0  0  0  0  0
    7.5065  -12.3787   27.0955 C   0  0  0  0  0  0  0  0  0  0  0  0
    7.0431  -13.4380   26.1135 C   0  0  2  0  0  0  0  0  0  0  0  0
    5.8943  -14.2342   26.6974 C   0  0  0  0  0  0  0  0  0  0  0  0
    8.1985  -14.4003   25.8466 C   0  0  2  0  0  0  0  0  0  0  0  0
    7.7703  -15.4081   24.9002 N   0  0  0  0  0  0  0  0  0  0  0  0
    8.6352  -15.0429   27.1099 C   0  0  0  0  0  0  0  0  0  0  0  0
    8.1949  -16.1775   27.4210 O   0  0  0  0  0  0  0  0  0  0  0  0
    9.5352  -14.3772   27.9441 O   0  0  0  0  0  0  0  0  0  0  0  0
  2  1  1  1
  2  3  1  0
  4  5  1  0
  4  2  1  0
  5  6  1  6
  7  5  1  0
  8  7  2  0
 10  9  1  1
 10 12  1  0
 10 11  1  0
 11  7  1  0
 12 19  1  0
 13 12  2  0
 14 15  1  0
 16 17  1  1
 16 15  1  0
 18 16  1  0
 18 19  1  6
 20 22  1  0
 20 18  1  0
 21 20  2  0
M  END
$$$$
