LAI.pdb
     RDKit          3D

 22 21  0  0  1  0  0  0  0  0999 V2000
    4.5580  -21.5921   23.6066 C   0  0  0  0  0  0  0  0  0  0  0  0
    5.7242  -21.6195   24.5385 C   0  0  2  0  0  0  0  0  0  0  0  0
    5.2626  -22.0774   25.8846 C   0  0  0  0  0  0  0  0  0  0  0  0
    6.4525  -20.3139   24.5602 C   0  0  0  0  0  0  0  0  0  0  0  0
    6.8434  -19.7960   23.2186 C   0  0  2  0  0  0  0  0  0  0  0  0
    7.7793  -20.6658   22.5556 N   0  0  0  0  0  0  0  0  0  0  0  0
    7.4370  -18.4276   23.4322 C   0  0  0  0  0  0  0  0  0  0  0  0
    8.4979  -18.3004   24.0954 O   0  0  0  0  0  0  0  0  0  0  0  0
    6.6089  -14.9642   22.2877 C   0  0  0  0  0  0  0  0  0  0  0  0
    7.4156  -15.9323   23.1313 C   0  0  2  0  0  0  0  0  0  0  0  0
    6.8508  -17.2528   22.9146 N   0  0  0  0  0  0  0  0  0  0  0  0
    7.3646  -15.5684   24.5563 C   0  0  0  0  0  0  0  0  0  0  0  0
    6.9201  -16.3786   25.3849 O   0  0  0  0  0  0  0  0  0  0  0  0
   10.1693  -15.5040   29.1454 C   0  0  0  0  0  0  0  0  0  0  0  0
    9.0640  -14.7097   28.5175 C   0  0  0  0  0  0  0  0  0  0  0  0
    9.0240  -14.9192   27.0156 C   0  0  2  0  0  0  0  0  0  0  0  0
   10.3317  -14.4857   26.3861 C   0  0  0  0  0  0  0  0  0  0  0  0
    7.9077  -14.0581   26.4285 C   0  0  2  0  0  0  0  0  0  0  0  0
    7.8158  -14.3027   25.0050 N   0  0  0  0  0  0  0  0  0  0  0  0
    8.1790  -12.6220   26.6806 C   0  0  0  0  0  0  0  0  0  0  0  0
    8.0123  -12.1449   27.8306 O   0  0  0  0  0  0  0  0  0  0  0  0
    8.6188  -11.8115   25.6323 O   0  0  0  0  0  0  0  0  0  0  0  0
  2  1  1  6
  2  3  1  0
  4  5  1  0
  4  2  1  0
  5  6  1  1
  7  5  1  0
  8  7  2  0
 10  9  1  6
 10 12  1  0
 10 11  1  0
 11  7  1  0
 12 19  1  0
 13 12  2  0
 14 15  1  0
 16 17  1  6
 16 15  1  0
 18 16  1  0
 18 19  1  6
 20 22  1  0
 20 18  1  0
 21 20  2  0
M  END
$$$$
