LAI.pdb
     RDKit          3D

 22 21  0  0  1  0  0  0  0  0999 V2000
    9.7697  -13.7367   18.8476 C   0  0  0  0  0  0  0  0  0  0  0  0
    8.2823  -13.6117   18.8132 C   0  0  2  0  0  0  0  0  0  0  0  0
    7.9160  -12.1650   18.7255 C   0  0  0  0  0  0  0  0  0  0  0  0
    7.6347  -14.3321   19.9521 C   0  0  0  0  0  0  0  0  0  0  0  0
    8.0459  -15.7565   20.1030 C   0  0  2  0  0  0  0  0  0  0  0  0
    7.2443  -16.6384   19.2957 N   0  0  0  0  0  0  0  0  0  0  0  0
    7.9175  -16.0980   21.5650 C   0  0  0  0  0  0  0  0  0  0  0  0
    6.7921  -16.0494   22.1242 O   0  0  0  0  0  0  0  0  0  0  0  0
    9.5968  -18.2746   23.8189 C   0  0  0  0  0  0  0  0  0  0  0  0
    8.8795  -16.9416   23.7284 C   0  0  2  0  0  0  0  0  0  0  0  0
    9.0204  -16.4787   22.3589 N   0  0  0  0  0  0  0  0  0  0  0  0
    9.4472  -15.9655   24.6721 C   0  0  0  0  0  0  0  0  0  0  0  0
   10.4705  -15.3335   24.3655 O   0  0  0  0  0  0  0  0  0  0  0  0
    6.2619  -12.6267   27.0046 C   0  0  0  0  0  0  0  0  0  0  0  0
    7.4410  -13.3329   26.4066 C   0  0  0  0  0  0  0  0  0  0  0  0
    8.3189  -13.9417   27.4836 C   0  0  2  0  0  0  0  0  0  0  0  0
    8.9617  -12.8542   28.3193 C   0  0  0  0  0  0  0  0  0  0  0  0
    9.4323  -14.7451   26.8148 C   0  0  2  0  0  0  0  0  0  0  0  0
    8.8449  -15.7306   25.9327 N   0  0  0  0  0  0  0  0  0  0  0  0
   10.2697  -15.4152   27.8391 C   0  0  0  0  0  0  0  0  0  0  0  0
    9.9416  -16.5469   28.2747 O   0  0  0  0  0  0  0  0  0  0  0  0
   11.4192  -14.7785   28.3109 O   0  0  0  0  0  0  0  0  0  0  0  0
  2  1  1  1
  2  3  1  0
  4  5  1  0
  4  2  1  0
  5  6  1  6
  7  5  1  0
  8  7  2  0
 10  9  1  6
 10 12  1  0
 10 11  1  0
 11  7  1  0
 12 19  1  0
 13 12  2  0
 14 15  1  0
 16 17  1  6
 16 15  1  0
 18 16  1  0
 18 19  1  6
 20 22  1  0
 20 18  1  0
 21 20  2  0
M  END
$$$$
