ELG.pdb
     RDKit          3D

 22 21  0  0  1  0  0  0  0  0999 V2000
   19.4515  -12.8751  -17.6998 N   0  0  0  0  0  0  0  0  0  0  0  0
   19.9700  -11.5456  -17.7483 C   0  0  1  0  0  0  0  0  0  0  0  0
   19.0174  -10.5742  -18.3011 C   0  0  0  0  0  0  0  0  0  0  0  0
   18.5330  -10.8952  -19.6754 C   0  0  0  0  0  0  0  0  0  0  0  0
   17.7075   -9.9045  -20.3546 C   0  0  0  0  0  0  0  0  0  0  0  0
   17.2494  -10.0661  -21.4891 O   0  0  0  0  0  0  0  0  0  0  0  0
   20.5642  -11.1243  -16.4422 C   0  0  0  0  0  0  0  0  0  0  0  0
   20.0826  -11.5128  -15.3442 O   0  0  0  0  0  0  0  0  0  0  0  0
   17.4043   -8.7023  -19.7115 O   0  0  0  0  0  0  0  0  0  0  0  0
   23.6910  -12.2151  -13.9315 C   0  0  0  0  0  0  0  0  0  0  0  0
   24.2164  -11.3802  -15.1122 C   0  0  2  0  0  0  0  0  0  0  0  0
   25.7143  -11.5048  -15.0642 C   0  0  0  0  0  0  0  0  0  0  0  0
   23.7135   -9.9907  -14.9916 C   0  0  0  0  0  0  0  0  0  0  0  0
   22.2680   -9.7550  -15.1513 C   0  0  2  0  0  0  0  0  0  0  0  0
   21.6958  -10.2695  -16.3651 N   0  0  0  0  0  0  0  0  0  0  0  0
   21.8712   -8.3709  -14.8335 C   0  0  0  0  0  0  0  0  0  0  0  0
   22.2506   -7.9069  -13.7250 O   0  0  0  0  0  0  0  0  0  0  0  0
   21.1057   -7.5498  -15.6641 N   0  0  0  0  0  0  0  0  0  0  0  0
   20.8152   -6.1969  -15.3517 C   0  0  0  0  0  0  0  0  0  0  0  0
   19.9638   -5.4493  -16.2903 C   0  0  0  0  0  0  0  0  0  0  0  0
   19.4346   -5.8729  -17.3206 O   0  0  0  0  0  0  0  0  0  0  0  0
   19.7420   -4.1023  -15.9552 O   0  0  0  0  0  0  0  0  0  0  0  0
  2  7  1  0
  2  1  1  1
  3  2  1  0
  4  3  1  0
  5  4  1  0
  5  6  2  0
  7  8  2  0
  9  5  1  0
 11 10  1  1
 11 13  1  0
 12 11  1  0
 14 13  1  6
 15 14  1  0
 15  7  1  0
 16 17  2  0
 16 14  1  0
 18 16  1  0
 19 18  1  0
 19 20  1  0
 20 22  1  0
 21 20  2  0
M  END
$$$$
