ELG.pdb
     RDKit          3D

 22 21  0  0  1  0  0  0  0  0999 V2000
   19.2118  -12.0191  -17.5879 N   0  0  0  0  0  0  0  0  0  0  0  0
   18.5501  -11.6916  -16.3657 C   0  0  1  0  0  0  0  0  0  0  0  0
   17.8873  -12.8439  -15.7412 C   0  0  0  0  0  0  0  0  0  0  0  0
   16.9231  -13.5588  -16.6276 C   0  0  0  0  0  0  0  0  0  0  0  0
   15.7829  -14.2167  -16.0021 C   0  0  0  0  0  0  0  0  0  0  0  0
   15.5766  -14.2051  -14.7854 O   0  0  0  0  0  0  0  0  0  0  0  0
   19.4362  -10.9321  -15.4308 C   0  0  0  0  0  0  0  0  0  0  0  0
   19.0451  -10.5949  -14.2811 O   0  0  0  0  0  0  0  0  0  0  0  0
   14.8615  -14.9023  -16.7970 O   0  0  0  0  0  0  0  0  0  0  0  0
   23.0479  -12.2409  -13.5552 C   0  0  0  0  0  0  0  0  0  0  0  0
   23.3491  -11.6940  -14.9614 C   0  0  2  0  0  0  0  0  0  0  0  0
   24.7833  -12.0516  -15.2386 C   0  0  0  0  0  0  0  0  0  0  0  0
   23.0638  -10.2394  -14.9926 C   0  0  0  0  0  0  0  0  0  0  0  0
   21.6576   -9.8025  -14.9468 C   0  0  2  0  0  0  0  0  0  0  0  0
   20.7583  -10.5502  -15.7821 N   0  0  0  0  0  0  0  0  0  0  0  0
   21.5049   -8.3396  -15.0496 C   0  0  0  0  0  0  0  0  0  0  0  0
   22.1488   -7.6375  -14.2245 O   0  0  0  0  0  0  0  0  0  0  0  0
   20.6989   -7.6852  -15.9835 N   0  0  0  0  0  0  0  0  0  0  0  0
   20.6118   -6.2718  -16.0678 C   0  0  0  0  0  0  0  0  0  0  0  0
   19.4044   -5.6306  -15.5240 C   0  0  0  0  0  0  0  0  0  0  0  0
   18.4745   -6.1743  -14.9232 O   0  0  0  0  0  0  0  0  0  0  0  0
   19.3225   -4.2416  -15.7230 O   0  0  0  0  0  0  0  0  0  0  0  0
  2  7  1  0
  2  1  1  6
  3  2  1  0
  4  3  1  0
  5  4  1  0
  5  6  2  0
  7  8  2  0
  9  5  1  0
 11 10  1  1
 11 13  1  0
 12 11  1  0
 14 13  1  6
 15 14  1  0
 15  7  1  0
 16 17  2  0
 16 14  1  0
 18 16  1  0
 19 18  1  0
 19 20  1  0
 20 22  1  0
 21 20  2  0
M  END
$$$$
