ELG.pdb
     RDKit          3D

 22 21  0  0  1  0  0  0  0  0999 V2000
   14.5059  -16.4949    5.7189 N   0  0  0  0  0  0  0  0  0  0  0  0
   15.3529  -16.2269    6.8369 C   0  0  1  0  0  0  0  0  0  0  0  0
   15.3688  -17.3149    7.8231 C   0  0  0  0  0  0  0  0  0  0  0  0
   14.0199  -17.7369    8.3014 C   0  0  0  0  0  0  0  0  0  0  0  0
   13.9542  -18.7690    9.3283 C   0  0  0  0  0  0  0  0  0  0  0  0
   13.7312  -18.5289   10.5181 O   0  0  0  0  0  0  0  0  0  0  0  0
   16.7167  -15.7803    6.4165 C   0  0  0  0  0  0  0  0  0  0  0  0
   17.1932  -16.0902    5.2915 O   0  0  0  0  0  0  0  0  0  0  0  0
   14.1497  -20.1061    8.9750 O   0  0  0  0  0  0  0  0  0  0  0  0
   20.6325  -11.3282    7.4482 C   0  0  0  0  0  0  0  0  0  0  0  0
   20.1920  -12.3729    6.4080 C   0  0  2  0  0  0  0  0  0  0  0  0
   20.1093  -11.6353    5.1001 C   0  0  0  0  0  0  0  0  0  0  0  0
   18.9167  -12.9907    6.8442 C   0  0  0  0  0  0  0  0  0  0  0  0
   18.8330  -14.4608    6.8907 C   0  0  2  0  0  0  0  0  0  0  0  0
   17.5463  -14.9880    7.2539 N   0  0  0  0  0  0  0  0  0  0  0  0
   19.9649  -15.0802    7.6043 C   0  0  0  0  0  0  0  0  0  0  0  0
   21.1115  -14.9211    7.1063 O   0  0  0  0  0  0  0  0  0  0  0  0
   19.8545  -15.8295    8.7776 N   0  0  0  0  0  0  0  0  0  0  0  0
   20.9693  -16.4391    9.4084 C   0  0  0  0  0  0  0  0  0  0  0  0
   21.7724  -15.6101   10.3209 C   0  0  0  0  0  0  0  0  0  0  0  0
   21.5802  -14.4303   10.6247 O   0  0  0  0  0  0  0  0  0  0  0  0
   22.8782  -16.2560   10.9002 O   0  0  0  0  0  0  0  0  0  0  0  0
  2  7  1  0
  2  1  1  6
  3  2  1  0
  4  3  1  0
  5  4  1  0
  5  6  2  0
  7  8  2  0
  9  5  1  0
 11 10  1  1
 11 13  1  0
 12 11  1  0
 14 13  1  1
 15 14  1  0
 15  7  1  0
 16 17  2  0
 16 14  1  0
 18 16  1  0
 19 18  1  0
 19 20  1  0
 20 22  1  0
 21 20  2  0
M  END
$$$$
