ELG.pdb
     RDKit          3D

 22 21  0  0  1  0  0  0  0  0999 V2000
   20.1903  -12.6574  -17.9723 N   0  0  0  0  0  0  0  0  0  0  0  0
   21.1194  -11.6245  -18.3025 C   0  0  1  0  0  0  0  0  0  0  0  0
   20.6397  -10.7357  -19.3686 C   0  0  0  0  0  0  0  0  0  0  0  0
   20.1528  -11.4407  -20.5903 C   0  0  0  0  0  0  0  0  0  0  0  0
   19.5758  -10.6331  -21.6575 C   0  0  0  0  0  0  0  0  0  0  0  0
   19.9783  -10.6624  -22.8238 O   0  0  0  0  0  0  0  0  0  0  0  0
   21.6071  -10.8965  -17.0908 C   0  0  0  0  0  0  0  0  0  0  0  0
   20.9830  -10.9470  -15.9969 O   0  0  0  0  0  0  0  0  0  0  0  0
   18.5121   -9.7737  -21.3732 O   0  0  0  0  0  0  0  0  0  0  0  0
   25.1098  -11.1178  -14.3857 C   0  0  0  0  0  0  0  0  0  0  0  0
   25.4821  -10.4578  -15.7248 C   0  0  2  0  0  0  0  0  0  0  0  0
   26.9745  -10.2761  -15.6881 C   0  0  0  0  0  0  0  0  0  0  0  0
   24.7157   -9.1982  -15.8798 C   0  0  0  0  0  0  0  0  0  0  0  0
   23.2519   -9.2846  -16.0227 C   0  0  2  0  0  0  0  0  0  0  0  0
   22.7917  -10.1131  -17.1031 N   0  0  0  0  0  0  0  0  0  0  0  0
   22.5863   -7.9715  -15.9402 C   0  0  0  0  0  0  0  0  0  0  0  0
   22.8583   -7.2537  -14.9407 O   0  0  0  0  0  0  0  0  0  0  0  0
   21.6791   -7.4764  -16.8793 N   0  0  0  0  0  0  0  0  0  0  0  0
   21.1249   -6.1730  -16.8003 C   0  0  0  0  0  0  0  0  0  0  0  0
   19.8095   -6.0305  -16.1567 C   0  0  0  0  0  0  0  0  0  0  0  0
   19.1243   -6.9217  -15.6494 O   0  0  0  0  0  0  0  0  0  0  0  0
   19.2953   -4.7227  -16.1279 O   0  0  0  0  0  0  0  0  0  0  0  0
  2  7  1  0
  2  1  1  1
  3  2  1  0
  4  3  1  0
  5  4  1  0
  5  6  2  0
  7  8  2  0
  9  5  1  0
 11 10  1  1
 11 13  1  0
 12 11  1  0
 14 13  1  6
 15 14  1  0
 15  7  1  0
 16 17  2  0
 16 14  1  0
 18 16  1  0
 19 18  1  0
 19 20  1  0
 20 22  1  0
 21 20  2  0
M  END
$$$$
