ELG.pdb
     RDKit          3D

 22 21  0  0  1  0  0  0  0  0999 V2000
   18.6522  -14.3661  -18.7515 N   0  0  0  0  0  0  0  0  0  0  0  0
   17.5798  -13.9605  -17.9005 C   0  0  1  0  0  0  0  0  0  0  0  0
   17.7468  -14.4032  -16.5103 C   0  0  0  0  0  0  0  0  0  0  0  0
   17.8775  -15.8801  -16.3422 C   0  0  0  0  0  0  0  0  0  0  0  0
   18.0606  -16.3977  -14.9921 C   0  0  0  0  0  0  0  0  0  0  0  0
   18.1581  -15.6755  -13.9961 O   0  0  0  0  0  0  0  0  0  0  0  0
   17.2768  -12.5020  -18.0318 C   0  0  0  0  0  0  0  0  0  0  0  0
   18.1174  -11.6957  -18.5132 O   0  0  0  0  0  0  0  0  0  0  0  0
   18.1327  -17.7773  -14.7869 O   0  0  0  0  0  0  0  0  0  0  0  0
   12.2169   -8.8947  -18.1288 C   0  0  0  0  0  0  0  0  0  0  0  0
   13.7550   -8.9259  -18.1072 C   0  0  2  0  0  0  0  0  0  0  0  0
   14.1928   -8.3200  -19.4121 C   0  0  0  0  0  0  0  0  0  0  0  0
   14.2137  -10.3197  -17.8950 C   0  0  0  0  0  0  0  0  0  0  0  0
   15.6594  -10.5652  -17.7536 C   0  0  2  0  0  0  0  0  0  0  0  0
   16.0346  -11.9465  -17.6248 N   0  0  0  0  0  0  0  0  0  0  0  0
   16.3033   -9.6688  -16.7758 C   0  0  0  0  0  0  0  0  0  0  0  0
   16.0922   -9.9060  -15.5562 O   0  0  0  0  0  0  0  0  0  0  0  0
   17.1164   -8.5821  -17.1044 N   0  0  0  0  0  0  0  0  0  0  0  0
   17.6874   -7.7260  -16.1280 C   0  0  0  0  0  0  0  0  0  0  0  0
   18.6766   -8.3079  -15.2073 C   0  0  0  0  0  0  0  0  0  0  0  0
   19.0951   -9.4680  -15.1945 O   0  0  0  0  0  0  0  0  0  0  0  0
   19.1892   -7.4239  -14.2421 O   0  0  0  0  0  0  0  0  0  0  0  0
  2  7  1  0
  2  1  1  6
  3  2  1  0
  4  3  1  0
  5  4  1  0
  5  6  2  0
  7  8  2  0
  9  5  1  0
 11 10  1  6
 11 13  1  0
 12 11  1  0
 14 13  1  1
 15 14  1  0
 15  7  1  0
 16 17  2  0
 16 14  1  0
 18 16  1  0
 19 18  1  0
 19 20  1  0
 20 22  1  0
 21 20  2  0
M  END
$$$$
