ELG.pdb
     RDKit          3D

 22 21  0  0  1  0  0  0  0  0999 V2000
   21.6440  -13.0853  -17.6353 N   0  0  0  0  0  0  0  0  0  0  0  0
   20.8796  -11.9009  -17.4076 C   0  0  1  0  0  0  0  0  0  0  0  0
   19.4561  -12.1698  -17.1666 C   0  0  0  0  0  0  0  0  0  0  0  0
   19.1886  -13.3354  -16.2743 C   0  0  0  0  0  0  0  0  0  0  0  0
   17.8000  -13.6470  -15.9598 C   0  0  0  0  0  0  0  0  0  0  0  0
   17.2657  -13.3554  -14.8862 O   0  0  0  0  0  0  0  0  0  0  0  0
   21.5044  -11.0164  -16.3764 C   0  0  0  0  0  0  0  0  0  0  0  0
   21.1222  -11.0335  -15.1755 O   0  0  0  0  0  0  0  0  0  0  0  0
   17.0114  -14.3088  -16.9037 O   0  0  0  0  0  0  0  0  0  0  0  0
   25.3007  -11.0367  -14.4527 C   0  0  0  0  0  0  0  0  0  0  0  0
   25.4249  -10.3826  -15.8398 C   0  0  2  0  0  0  0  0  0  0  0  0
   26.8994  -10.2035  -16.0748 C   0  0  0  0  0  0  0  0  0  0  0  0
   24.6444   -9.1222  -15.8586 C   0  0  0  0  0  0  0  0  0  0  0  0
   23.1769   -9.2082  -15.7616 C   0  0  2  0  0  0  0  0  0  0  0  0
   22.5556  -10.1137  -16.6886 N   0  0  0  0  0  0  0  0  0  0  0  0
   22.5265   -7.8876  -15.6765 C   0  0  0  0  0  0  0  0  0  0  0  0
   22.9485   -7.0979  -14.7896 O   0  0  0  0  0  0  0  0  0  0  0  0
   21.4814   -7.4586  -16.4972 N   0  0  0  0  0  0  0  0  0  0  0  0
   20.9211   -6.1581  -16.4124 C   0  0  0  0  0  0  0  0  0  0  0  0
   19.8332   -5.9475  -15.4446 C   0  0  0  0  0  0  0  0  0  0  0  0
   19.2087   -4.9046  -15.2360 O   0  0  0  0  0  0  0  0  0  0  0  0
   19.4825   -7.0755  -14.6827 O   0  0  0  0  0  0  0  0  0  0  0  0
  2  7  1  0
  2  1  1  1
  3  2  1  0
  4  3  1  0
  5  4  1  0
  5  6  2  0
  7  8  2  0
  9  5  1  0
 11 10  1  1
 11 13  1  0
 12 11  1  0
 14 13  1  6
 15 14  1  0
 15  7  1  0
 16 17  2  0
 16 14  1  0
 18 16  1  0
 19 18  1  0
 19 20  1  0
 20 22  1  0
 21 20  2  0
M  END
$$$$
