ELG.pdb
     RDKit          3D

 22 21  0  0  1  0  0  0  0  0999 V2000
   17.4186  -11.0372  -16.9455 N   0  0  0  0  0  0  0  0  0  0  0  0
   18.4639  -10.1812  -17.4078 C   0  0  1  0  0  0  0  0  0  0  0  0
   18.0377   -9.2800  -18.4861 C   0  0  0  0  0  0  0  0  0  0  0  0
   17.4622   -9.9691  -19.6779 C   0  0  0  0  0  0  0  0  0  0  0  0
   17.1941   -9.1665  -20.8645 C   0  0  0  0  0  0  0  0  0  0  0  0
   16.6699   -9.6196  -21.8858 O   0  0  0  0  0  0  0  0  0  0  0  0
   19.1587   -9.4821  -16.2832 C   0  0  0  0  0  0  0  0  0  0  0  0
   18.6469   -9.4150  -15.1334 O   0  0  0  0  0  0  0  0  0  0  0  0
   17.5381   -7.8129  -20.8731 O   0  0  0  0  0  0  0  0  0  0  0  0
   22.1465  -10.1992  -13.3834 C   0  0  0  0  0  0  0  0  0  0  0  0
   22.7568   -9.9755  -14.7779 C   0  0  2  0  0  0  0  0  0  0  0  0
   24.2077  -10.3503  -14.6522 C   0  0  0  0  0  0  0  0  0  0  0  0
   22.5209   -8.5728  -15.1964 C   0  0  0  0  0  0  0  0  0  0  0  0
   21.1324   -8.1362  -15.4242 C   0  0  2  0  0  0  0  0  0  0  0  0
   20.4247   -8.8590  -16.4451 N   0  0  0  0  0  0  0  0  0  0  0  0
   20.9965   -6.6708  -15.5146 C   0  0  0  0  0  0  0  0  0  0  0  0
   21.5444   -5.9882  -14.6081 O   0  0  0  0  0  0  0  0  0  0  0  0
   20.3035   -5.9944  -16.5208 N   0  0  0  0  0  0  0  0  0  0  0  0
   20.2274   -4.5793  -16.5843 C   0  0  0  0  0  0  0  0  0  0  0  0
   19.1040   -3.9264  -15.8939 C   0  0  0  0  0  0  0  0  0  0  0  0
   18.2147   -4.4688  -15.2335 O   0  0  0  0  0  0  0  0  0  0  0  0
   19.0594   -2.5267  -16.0138 O   0  0  0  0  0  0  0  0  0  0  0  0
  2  7  1  0
  2  1  1  1
  3  2  1  0
  4  3  1  0
  5  4  1  0
  5  6  2  0
  7  8  2  0
  9  5  1  0
 11 10  1  1
 11 13  1  0
 12 11  1  0
 14 13  1  6
 15 14  1  0
 15  7  1  0
 16 17  2  0
 16 14  1  0
 18 16  1  0
 19 18  1  0
 19 20  1  0
 20 22  1  0
 21 20  2  0
M  END
$$$$
