ELG.pdb
     RDKit          3D

 22 21  0  0  1  0  0  0  0  0999 V2000
   20.4506  -12.1989  -18.8712 N   0  0  0  0  0  0  0  0  0  0  0  0
   20.0906  -12.3727  -17.5004 C   0  0  1  0  0  0  0  0  0  0  0  0
   19.8936  -13.7798  -17.1290 C   0  0  0  0  0  0  0  0  0  0  0  0
   18.4655  -14.1893  -16.9899 C   0  0  0  0  0  0  0  0  0  0  0  0
   18.1852  -15.5848  -16.6767 C   0  0  0  0  0  0  0  0  0  0  0  0
   19.0662  -16.4222  -16.4625 O   0  0  0  0  0  0  0  0  0  0  0  0
   21.0073  -11.6333  -16.5788 C   0  0  0  0  0  0  0  0  0  0  0  0
   20.7747  -11.5544  -15.3426 O   0  0  0  0  0  0  0  0  0  0  0  0
   16.8609  -16.0234  -16.6089 O   0  0  0  0  0  0  0  0  0  0  0  0
   26.9306   -9.8729  -16.4632 C   0  0  0  0  0  0  0  0  0  0  0  0
   25.5876   -9.8927  -15.7128 C   0  0  2  0  0  0  0  0  0  0  0  0
   25.8371  -10.6735  -14.4521 C   0  0  0  0  0  0  0  0  0  0  0  0
   24.5431  -10.4691  -16.5933 C   0  0  0  0  0  0  0  0  0  0  0  0
   23.1316  -10.2932  -16.2098 C   0  0  2  0  0  0  0  0  0  0  0  0
   22.1827  -10.9831  -17.0400 N   0  0  0  0  0  0  0  0  0  0  0  0
   22.7816   -8.8889  -15.9280 C   0  0  0  0  0  0  0  0  0  0  0  0
   23.3767   -8.3326  -14.9665 O   0  0  0  0  0  0  0  0  0  0  0  0
   21.8408   -8.1426  -16.6407 N   0  0  0  0  0  0  0  0  0  0  0  0
   21.5621   -6.7815  -16.3544 C   0  0  0  0  0  0  0  0  0  0  0  0
   20.4319   -6.4921  -15.4579 C   0  0  0  0  0  0  0  0  0  0  0  0
   19.7169   -7.3061  -14.8686 O   0  0  0  0  0  0  0  0  0  0  0  0
   20.1540   -5.1277  -15.2657 O   0  0  0  0  0  0  0  0  0  0  0  0
  2  7  1  0
  2  1  1  6
  3  2  1  0
  4  3  1  0
  5  4  1  0
  5  6  2  0
  7  8  2  0
  9  5  1  0
 11 10  1  6
 11 13  1  0
 12 11  1  0
 14 13  1  6
 15 14  1  0
 15  7  1  0
 16 17  2  0
 16 14  1  0
 18 16  1  0
 19 18  1  0
 19 20  1  0
 20 22  1  0
 21 20  2  0
M  END
$$$$
