ELG.pdb
     RDKit          3D

 22 21  0  0  1  0  0  0  0  0999 V2000
   27.3246  -34.1010   -4.5347 N   0  0  0  0  0  0  0  0  0  0  0  0
   26.4737  -34.3972   -3.4269 C   0  0  1  0  0  0  0  0  0  0  0  0
   26.7452  -35.7089   -2.8249 C   0  0  0  0  0  0  0  0  0  0  0  0
   26.3394  -36.8724   -3.6663 C   0  0  0  0  0  0  0  0  0  0  0  0
   26.6119  -38.2098   -3.1552 C   0  0  0  0  0  0  0  0  0  0  0  0
   27.0758  -38.4252   -2.0320 O   0  0  0  0  0  0  0  0  0  0  0  0
   26.4318  -33.2801   -2.4338 C   0  0  0  0  0  0  0  0  0  0  0  0
   27.4729  -32.6475   -2.1102 O   0  0  0  0  0  0  0  0  0  0  0  0
   26.3436  -39.3218   -3.9566 O   0  0  0  0  0  0  0  0  0  0  0  0
   25.1285  -29.0439   -1.8706 C   0  0  0  0  0  0  0  0  0  0  0  0
   23.9645  -30.0432   -1.9875 C   0  0  2  0  0  0  0  0  0  0  0  0
   22.7171  -29.2073   -2.0706 C   0  0  0  0  0  0  0  0  0  0  0  0
   24.0013  -30.9749   -0.8348 C   0  0  0  0  0  0  0  0  0  0  0  0
   25.1300  -31.9163   -0.7337 C   0  0  2  0  0  0  0  0  0  0  0  0
   25.2265  -32.8712   -1.8034 N   0  0  0  0  0  0  0  0  0  0  0  0
   25.2761  -32.4985    0.6131 C   0  0  0  0  0  0  0  0  0  0  0  0
   24.5071  -33.4514    0.9112 O   0  0  0  0  0  0  0  0  0  0  0  0
   26.1930  -32.0667    1.5738 N   0  0  0  0  0  0  0  0  0  0  0  0
   26.3474  -32.7051    2.8312 C   0  0  0  0  0  0  0  0  0  0  0  0
   26.9126  -34.0635    2.8400 C   0  0  0  0  0  0  0  0  0  0  0  0
   27.2397  -34.7442    1.8649 O   0  0  0  0  0  0  0  0  0  0  0  0
   27.0914  -34.6295    4.1141 O   0  0  0  0  0  0  0  0  0  0  0  0
  2  7  1  0
  2  1  1  6
  3  2  1  0
  4  3  1  0
  5  4  1  0
  5  6  2  0
  7  8  2  0
  9  5  1  0
 11 10  1  1
 11 13  1  0
 12 11  1  0
 14 13  1  1
 15 14  1  0
 15  7  1  0
 16 17  2  0
 16 14  1  0
 18 16  1  0
 19 18  1  0
 19 20  1  0
 20 22  1  0
 21 20  2  0
M  END
$$$$
