ELG.pdb
     RDKit          3D

 22 21  0  0  1  0  0  0  0  0999 V2000
   25.5408  -21.9054  -11.6091 N   0  0  0  0  0  0  0  0  0  0  0  0
   24.8968  -21.8789  -12.8832 C   0  0  1  0  0  0  0  0  0  0  0  0
   23.6518  -22.6570  -12.9172 C   0  0  0  0  0  0  0  0  0  0  0  0
   23.8466  -24.1360  -12.9491 C   0  0  0  0  0  0  0  0  0  0  0  0
   23.5226  -24.8386  -14.1843 C   0  0  0  0  0  0  0  0  0  0  0  0
   23.6796  -26.0534  -14.3350 O   0  0  0  0  0  0  0  0  0  0  0  0
   24.7475  -20.4876  -13.4105 C   0  0  0  0  0  0  0  0  0  0  0  0
   24.4260  -19.5293  -12.6577 O   0  0  0  0  0  0  0  0  0  0  0  0
   23.0066  -24.1246  -15.2682 O   0  0  0  0  0  0  0  0  0  0  0  0
   27.7112  -17.8205  -14.6934 C   0  0  0  0  0  0  0  0  0  0  0  0
   27.3335  -18.7567  -15.8545 C   0  0  2  0  0  0  0  0  0  0  0  0
   28.3608  -18.5122  -16.9252 C   0  0  0  0  0  0  0  0  0  0  0  0
   25.9375  -18.4815  -16.2712 C   0  0  0  0  0  0  0  0  0  0  0  0
   24.8480  -18.8562  -15.3530 C   0  0  2  0  0  0  0  0  0  0  0  0
   24.9578  -20.1690  -14.7786 N   0  0  0  0  0  0  0  0  0  0  0  0
   23.5104  -18.5379  -15.8856 C   0  0  0  0  0  0  0  0  0  0  0  0
   23.3481  -17.3882  -16.3756 O   0  0  0  0  0  0  0  0  0  0  0  0
   22.4202  -19.4105  -15.8779 N   0  0  0  0  0  0  0  0  0  0  0  0
   21.1354  -19.0402  -16.3517 C   0  0  0  0  0  0  0  0  0  0  0  0
   20.2786  -18.2533  -15.4509 C   0  0  0  0  0  0  0  0  0  0  0  0
   19.8744  -18.5760  -14.3313 O   0  0  0  0  0  0  0  0  0  0  0  0
   19.8890  -16.9952  -15.9422 O   0  0  0  0  0  0  0  0  0  0  0  0
  2  7  1  0
  2  1  1  1
  3  2  1  0
  4  3  1  0
  5  4  1  0
  5  6  2  0
  7  8  2  0
  9  5  1  0
 11 10  1  1
 11 13  1  0
 12 11  1  0
 14 13  1  6
 15 14  1  0
 15  7  1  0
 16 17  2  0
 16 14  1  0
 18 16  1  0
 19 18  1  0
 19 20  1  0
 20 22  1  0
 21 20  2  0
M  END
$$$$
