IHT.pdb
     RDKit          3D

 26 26  0  0  1  0  0  0  0  0999 V2000
   29.1165  -20.6085  -12.5934 C   0  0  0  0  0  0  0  0  0  0  0  0
   27.7412  -20.5783  -11.9670 C   0  0  0  0  0  0  0  0  0  0  0  0
   26.6859  -20.5891  -13.0229 C   0  0  2  0  0  0  0  0  0  0  0  0
   26.9298  -19.4470  -13.9947 C   0  0  0  0  0  0  0  0  0  0  0  0
   25.2764  -20.5729  -12.4934 C   0  0  2  0  0  0  0  0  0  0  0  0
   25.1331  -21.7471  -11.6579 N   0  0  0  0  0  0  0  0  0  0  0  0
   24.2503  -20.5995  -13.5294 C   0  0  0  0  0  0  0  0  0  0  0  0
   23.9475  -21.6221  -14.2045 O   0  0  0  0  0  0  0  0  0  0  0  0
   23.5315  -19.4088  -13.8148 N   0  0  0  0  0  0  0  0  0  0  0  0
   22.4198  -19.3638  -14.7729 C   0  0  1  0  0  0  0  0  0  0  0  0
   21.2765  -18.7277  -14.0350 C   0  0  0  0  0  0  0  0  0  0  0  0
   20.4630  -19.6695  -13.2369 C   0  0  0  0  0  0  0  0  0  0  0  0
   20.5897  -21.0112  -13.0552 C   0  0  0  0  0  0  0  0  0  0  0  0
   19.6359  -21.4264  -12.1795 N   0  0  0  0  0  0  0  0  0  0  0  0
   18.9253  -20.3644  -11.8180 C   0  0  0  0  0  0  0  0  0  0  0  0
   19.4089  -19.2977  -12.4442 N   0  0  0  0  0  0  0  0  0  0  0  0
   22.8617  -18.3610  -15.8024 C   0  0  0  0  0  0  0  0  0  0  0  0
   23.4096  -17.2844  -15.5235 O   0  0  0  0  0  0  0  0  0  0  0  0
   25.2435  -18.8198  -18.4630 C   0  0  0  0  0  0  0  0  0  0  0  0
   23.9783  -18.4243  -19.1933 C   0  0  1  0  0  0  0  0  0  0  0  0
   23.3206  -19.6089  -19.5283 O   0  0  0  0  0  0  0  0  0  0  0  0
   23.0957  -17.6951  -18.1771 C   0  0  2  0  0  0  0  0  0  0  0  0
   22.6524  -18.6348  -17.1678 N   0  0  0  0  0  0  0  0  0  0  0  0
   21.9395  -17.0556  -18.8660 C   0  0  0  0  0  0  0  0  0  0  0  0
   20.7741  -17.4833  -18.6556 O   0  0  0  0  0  0  0  0  0  0  0  0
   22.0804  -15.9992  -19.7392 O   0  0  0  0  0  0  0  0  0  0  0  0
  2  3  1  0
  2  1  1  0
  3  4  1  6
  5  6  1  1
  5  3  1  0
  7  5  1  0
  8  7  2  0
  9  7  1  0
 10  9  1  0
 11 12  1  0
 10 11  1  1
 12 16  1  0
 13 14  1  0
 13 12  2  0
 14 15  1  0
 15 16  2  0
 17 10  1  0
 17 18  2  0
 20 22  1  0
 20 19  1  1
 21 20  1  0
 22 23  1  1
 23 17  1  0
 24 22  1  0
 25 24  2  0
 26 24  1  0
M  END
$$$$
