IHT.pdb
     RDKit          3D

 26 26  0  0  1  0  0  0  0  0999 V2000
   27.3401  -15.8202  -15.4008 C   0  0  0  0  0  0  0  0  0  0  0  0
   25.8753  -15.9479  -15.0504 C   0  0  0  0  0  0  0  0  0  0  0  0
   25.0959  -14.8219  -15.6448 C   0  0  2  0  0  0  0  0  0  0  0  0
   25.6630  -13.4997  -15.1563 C   0  0  0  0  0  0  0  0  0  0  0  0
   23.6101  -14.9048  -15.4151 C   0  0  2  0  0  0  0  0  0  0  0  0
   23.2137  -16.2582  -15.7445 N   0  0  0  0  0  0  0  0  0  0  0  0
   22.8296  -13.9723  -16.2204 C   0  0  0  0  0  0  0  0  0  0  0  0
   22.7695  -13.9988  -17.4808 O   0  0  0  0  0  0  0  0  0  0  0  0
   22.0802  -12.9598  -15.5654 N   0  0  0  0  0  0  0  0  0  0  0  0
   21.2915  -11.9593  -16.2953 C   0  0  1  0  0  0  0  0  0  0  0  0
   19.8596  -12.3891  -16.1492 C   0  0  0  0  0  0  0  0  0  0  0  0
   18.8815  -11.4928  -16.8019 C   0  0  0  0  0  0  0  0  0  0  0  0
   19.0722  -10.3798  -17.5595 C   0  0  0  0  0  0  0  0  0  0  0  0
   17.8631   -9.9318  -17.9912 N   0  0  0  0  0  0  0  0  0  0  0  0
   16.9321  -10.7497  -17.5142 C   0  0  0  0  0  0  0  0  0  0  0  0
   17.5264  -11.6956  -16.7961 N   0  0  0  0  0  0  0  0  0  0  0  0
   21.4370  -10.7069  -15.4761 C   0  0  0  0  0  0  0  0  0  0  0  0
   21.6128  -10.7041  -14.2488 O   0  0  0  0  0  0  0  0  0  0  0  0
   21.6120   -6.9071  -17.4128 C   0  0  0  0  0  0  0  0  0  0  0  0
   22.4749   -7.2903  -16.2300 C   0  0  1  0  0  0  0  0  0  0  0  0
   22.6712   -6.1281  -15.4825 O   0  0  0  0  0  0  0  0  0  0  0  0
   21.6395   -8.2402  -15.3679 C   0  0  2  0  0  0  0  0  0  0  0  0
   21.3730   -9.4530  -16.1137 N   0  0  0  0  0  0  0  0  0  0  0  0
   20.3745   -7.5745  -14.9475 C   0  0  0  0  0  0  0  0  0  0  0  0
   19.2847   -7.9146  -15.4785 O   0  0  0  0  0  0  0  0  0  0  0  0
   20.3327   -6.5858  -13.9887 O   0  0  0  0  0  0  0  0  0  0  0  0
  2  3  1  0
  2  1  1  0
  3  4  1  1
  5  6  1  6
  5  3  1  0
  7  5  1  0
  8  7  2  0
  9  7  1  0
 10  9  1  0
 11 12  1  0
 10 11  1  1
 12 16  1  0
 13 14  1  0
 13 12  2  0
 14 15  1  0
 15 16  2  0
 17 10  1  0
 17 18  2  0
 20 22  1  0
 20 19  1  6
 21 20  1  0
 22 23  1  6
 23 17  1  0
 24 22  1  0
 25 24  2  0
 26 24  1  0
M  END
$$$$
