IHT.pdb
     RDKit          3D

 26 26  0  0  1  0  0  0  0  0999 V2000
   29.3330  -20.6413  -10.4841 C   0  0  0  0  0  0  0  0  0  0  0  0
   28.4613  -21.3691  -11.4816 C   0  0  0  0  0  0  0  0  0  0  0  0
   27.0991  -20.7600  -11.5272 C   0  0  2  0  0  0  0  0  0  0  0  0
   26.4526  -20.8612  -10.1561 C   0  0  0  0  0  0  0  0  0  0  0  0
   26.2046  -21.3171  -12.6028 C   0  0  2  0  0  0  0  0  0  0  0  0
   26.9821  -21.3294  -13.8245 N   0  0  0  0  0  0  0  0  0  0  0  0
   24.9864  -20.5463  -12.8232 C   0  0  0  0  0  0  0  0  0  0  0  0
   24.8525  -19.3271  -12.5255 O   0  0  0  0  0  0  0  0  0  0  0  0
   23.8641  -21.1883  -13.4100 N   0  0  0  0  0  0  0  0  0  0  0  0
   22.5868  -20.5011  -13.6381 C   0  0  1  0  0  0  0  0  0  0  0  0
   22.4535  -20.3816  -15.1295 C   0  0  0  0  0  0  0  0  0  0  0  0
   23.3349  -19.3659  -15.7438 C   0  0  0  0  0  0  0  0  0  0  0  0
   24.6381  -19.4418  -16.1247 C   0  0  0  0  0  0  0  0  0  0  0  0
   24.9951  -18.2630  -16.7009 N   0  0  0  0  0  0  0  0  0  0  0  0
   23.9348  -17.4637  -16.6828 C   0  0  0  0  0  0  0  0  0  0  0  0
   22.9260  -18.1106  -16.1106 N   0  0  0  0  0  0  0  0  0  0  0  0
   21.5493  -21.4995  -13.2049 C   0  0  0  0  0  0  0  0  0  0  0  0
   21.6831  -22.7263  -13.3239 O   0  0  0  0  0  0  0  0  0  0  0  0
   20.2733  -22.1303   -9.9281 C   0  0  0  0  0  0  0  0  0  0  0  0
   19.0362  -21.7339  -10.7048 C   0  0  1  0  0  0  0  0  0  0  0  0
   18.8896  -20.3545  -10.5505 O   0  0  0  0  0  0  0  0  0  0  0  0
   19.3465  -21.9878  -12.1822 C   0  0  2  0  0  0  0  0  0  0  0  0
   20.3483  -21.0420  -12.6296 N   0  0  0  0  0  0  0  0  0  0  0  0
   18.1017  -21.8821  -12.9942 C   0  0  0  0  0  0  0  0  0  0  0  0
   17.9018  -20.8577  -13.6985 O   0  0  0  0  0  0  0  0  0  0  0  0
   17.1373  -22.8660  -13.0162 O   0  0  0  0  0  0  0  0  0  0  0  0
  2  3  1  0
  2  1  1  0
  3  4  1  1
  5  6  1  6
  5  3  1  0
  7  5  1  0
  8  7  2  0
  9  7  1  0
 10  9  1  0
 11 12  1  0
 10 11  1  6
 12 16  1  0
 13 14  1  0
 13 12  2  0
 14 15  1  0
 15 16  2  0
 17 10  1  0
 17 18  2  0
 20 22  1  0
 20 19  1  1
 21 20  1  0
 22 23  1  6
 23 17  1  0
 24 22  1  0
 25 24  2  0
 26 24  1  0
M  END
$$$$
