IHT.pdb
     RDKit          3D

 26 26  0  0  1  0  0  0  0  0999 V2000
   28.2782  -22.4088  -16.4331 C   0  0  0  0  0  0  0  0  0  0  0  0
   27.8450  -21.0963  -17.0449 C   0  0  0  0  0  0  0  0  0  0  0  0
   26.8049  -20.4426  -16.1967 C   0  0  2  0  0  0  0  0  0  0  0  0
   25.7650  -21.4717  -15.7869 C   0  0  0  0  0  0  0  0  0  0  0  0
   26.1666  -19.2296  -16.8200 C   0  0  2  0  0  0  0  0  0  0  0  0
   27.2399  -18.3069  -17.1268 N   0  0  0  0  0  0  0  0  0  0  0  0
   25.1957  -18.5599  -15.9621 C   0  0  0  0  0  0  0  0  0  0  0  0
   25.4734  -18.0353  -14.8482 O   0  0  0  0  0  0  0  0  0  0  0  0
   23.8433  -18.4805  -16.3871 N   0  0  0  0  0  0  0  0  0  0  0  0
   22.7872  -17.8790  -15.5634 C   0  0  1  0  0  0  0  0  0  0  0  0
   22.2513  -16.7305  -16.3697 C   0  0  0  0  0  0  0  0  0  0  0  0
   21.1268  -16.0094  -15.7361 C   0  0  0  0  0  0  0  0  0  0  0  0
   20.5509  -16.1702  -14.5148 C   0  0  0  0  0  0  0  0  0  0  0  0
   19.5861  -15.2249  -14.3579 N   0  0  0  0  0  0  0  0  0  0  0  0
   19.5588  -14.4845  -15.4600 C   0  0  0  0  0  0  0  0  0  0  0  0
   20.4795  -14.9418  -16.3007 N   0  0  0  0  0  0  0  0  0  0  0  0
   21.7002  -18.9177  -15.5429 C   0  0  0  0  0  0  0  0  0  0  0  0
   21.5013  -19.7238  -16.4636 O   0  0  0  0  0  0  0  0  0  0  0  0
   20.5380  -20.7015  -12.1303 C   0  0  0  0  0  0  0  0  0  0  0  0
   20.3442  -21.2080  -13.5433 C   0  0  1  0  0  0  0  0  0  0  0  0
   19.3183  -22.1532  -13.4942 O   0  0  0  0  0  0  0  0  0  0  0  0
   19.8237  -20.0259  -14.3648 C   0  0  2  0  0  0  0  0  0  0  0  0
   20.8449  -19.0006  -14.4273 N   0  0  0  0  0  0  0  0  0  0  0  0
   18.5643  -19.4996  -13.7672 C   0  0  0  0  0  0  0  0  0  0  0  0
   18.5895  -18.4323  -13.0996 O   0  0  0  0  0  0  0  0  0  0  0  0
   17.3481  -20.1316  -13.9088 O   0  0  0  0  0  0  0  0  0  0  0  0
  2  3  1  0
  2  1  1  0
  3  4  1  6
  5  6  1  1
  5  3  1  0
  7  5  1  0
  8  7  2  0
  9  7  1  0
 10  9  1  0
 11 12  1  0
 10 11  1  6
 12 16  1  0
 13 14  1  0
 13 12  2  0
 14 15  1  0
 15 16  2  0
 17 10  1  0
 17 18  2  0
 20 22  1  0
 20 19  1  1
 21 20  1  0
 22 23  1  1
 23 17  1  0
 24 22  1  0
 25 24  2  0
 26 24  1  0
M  END
$$$$
