IHT.pdb
     RDKit          3D

 26 26  0  0  1  0  0  0  0  0999 V2000
   16.6011  -17.0876  -16.3945 C   0  0  0  0  0  0  0  0  0  0  0  0
   16.1801  -15.6377  -16.3233 C   0  0  0  0  0  0  0  0  0  0  0  0
   17.3762  -14.7447  -16.3462 C   0  0  2  0  0  0  0  0  0  0  0  0
   18.3495  -15.1733  -15.2612 C   0  0  0  0  0  0  0  0  0  0  0  0
   17.0574  -13.2760  -16.2542 C   0  0  2  0  0  0  0  0  0  0  0  0
   16.2829  -12.9444  -17.4322 N   0  0  0  0  0  0  0  0  0  0  0  0
   18.2321  -12.4134  -16.2003 C   0  0  0  0  0  0  0  0  0  0  0  0
   19.1665  -12.5359  -15.3606 O   0  0  0  0  0  0  0  0  0  0  0  0
   18.3545  -11.3599  -17.1442 N   0  0  0  0  0  0  0  0  0  0  0  0
   19.5277  -10.4789  -17.2018 C   0  0  1  0  0  0  0  0  0  0  0  0
   20.0241  -10.5596  -18.6172 C   0  0  0  0  0  0  0  0  0  0  0  0
   20.9228  -11.7022  -18.8868 C   0  0  0  0  0  0  0  0  0  0  0  0
   21.3857  -12.6762  -18.0584 C   0  0  0  0  0  0  0  0  0  0  0  0
   22.1377  -13.5466  -18.7835 N   0  0  0  0  0  0  0  0  0  0  0  0
   22.1449  -13.1267  -20.0433 C   0  0  0  0  0  0  0  0  0  0  0  0
   21.4186  -12.0179  -20.1246 N   0  0  0  0  0  0  0  0  0  0  0  0
   18.9585   -9.0970  -17.0372 C   0  0  0  0  0  0  0  0  0  0  0  0
   18.0401   -8.6434  -17.7358 O   0  0  0  0  0  0  0  0  0  0  0  0
   17.0711   -7.7723  -14.5453 C   0  0  0  0  0  0  0  0  0  0  0  0
   18.2548   -6.8306  -14.4954 C   0  0  1  0  0  0  0  0  0  0  0  0
   19.1461   -7.3547  -13.5577 O   0  0  0  0  0  0  0  0  0  0  0  0
   18.9411   -6.9167  -15.8610 C   0  0  2  0  0  0  0  0  0  0  0  0
   19.4805   -8.2489  -16.0417 N   0  0  0  0  0  0  0  0  0  0  0  0
   20.0082   -5.8821  -15.9661 C   0  0  0  0  0  0  0  0  0  0  0  0
   21.2168   -6.2336  -15.9949 O   0  0  0  0  0  0  0  0  0  0  0  0
   19.7373   -4.5328  -16.0349 O   0  0  0  0  0  0  0  0  0  0  0  0
  2  3  1  0
  2  1  1  0
  3  4  1  1
  5  6  1  6
  5  3  1  0
  7  5  1  0
  8  7  2  0
  9  7  1  0
 10  9  1  0
 11 12  1  0
 10 11  1  6
 12 16  1  0
 13 14  1  0
 13 12  2  0
 14 15  1  0
 15 16  2  0
 17 10  1  0
 17 18  2  0
 20 22  1  0
 20 19  1  6
 21 20  1  0
 22 23  1  1
 23 17  1  0
 24 22  1  0
 25 24  2  0
 26 24  1  0
M  END
$$$$
