YFL.pdb
     RDKit          3D

 32 33  0  0  1  0  0  0  0  0999 V2000
   30.3573  -15.8995  -18.5346 O   0  0  0  0  0  0  0  0  0  0  0  0
   29.5411  -16.6997  -17.7541 C   0  0  0  0  0  0  0  0  0  0  0  0
   29.2840  -17.9847  -18.1800 C   0  0  0  0  0  0  0  0  0  0  0  0
   28.4737  -18.8585  -17.4568 C   0  0  0  0  0  0  0  0  0  0  0  0
   27.9174  -18.3943  -16.2684 C   0  0  0  0  0  0  0  0  0  0  0  0
   27.0655  -19.3084  -15.5046 C   0  0  0  0  0  0  0  0  0  0  0  0
   27.7962  -19.9251  -14.3354 C   0  0  2  0  0  0  0  0  0  0  0  0
   28.8424  -20.8156  -14.7607 N   0  0  0  0  0  0  0  0  0  0  0  0
   26.7978  -20.6996  -13.5523 C   0  0  0  0  0  0  0  0  0  0  0  0
   26.4975  -21.8742  -13.8692 O   0  0  0  0  0  0  0  0  0  0  0  0
   28.1577  -17.1214  -15.8237 C   0  0  0  0  0  0  0  0  0  0  0  0
   28.9671  -16.2956  -16.5765 C   0  0  0  0  0  0  0  0  0  0  0  0
   26.1275  -20.1747  -12.4132 N   0  0  0  0  0  0  0  0  0  0  0  0
   25.1411  -20.8084  -11.6312 C   0  0  1  0  0  0  0  0  0  0  0  0
   25.0589  -20.3864  -10.1897 C   0  0  0  0  0  0  0  0  0  0  0  0
   26.3350  -20.5912   -9.4366 C   0  0  0  0  0  0  0  0  0  0  0  0
   26.7175  -19.9365   -8.3181 C   0  0  0  0  0  0  0  0  0  0  0  0
   27.9405  -20.1947   -7.6912 C   0  0  0  0  0  0  0  0  0  0  0  0
   28.7790  -21.1425   -8.2278 C   0  0  0  0  0  0  0  0  0  0  0  0
   28.4344  -21.8296   -9.3568 C   0  0  0  0  0  0  0  0  0  0  0  0
   27.2341  -21.5477   -9.9366 C   0  0  0  0  0  0  0  0  0  0  0  0
   23.7924  -20.8119  -12.2075 C   0  0  0  0  0  0  0  0  0  0  0  0
   23.3386  -19.7218  -12.6533 O   0  0  0  0  0  0  0  0  0  0  0  0
   19.8157  -24.9264  -14.5132 C   0  0  0  0  0  0  0  0  0  0  0  0
   20.0434  -23.4957  -14.0968 C   0  0  2  0  0  0  0  0  0  0  0  0
   19.6718  -22.5113  -15.1666 C   0  0  0  0  0  0  0  0  0  0  0  0
   21.2927  -23.2387  -13.3599 C   0  0  0  0  0  0  0  0  0  0  0  0
   21.5962  -21.9019  -12.8432 C   0  0  2  0  0  0  0  0  0  0  0  0
   22.9742  -21.9620  -12.2935 N   0  0  0  0  0  0  0  0  0  0  0  0
   20.6836  -21.2615  -11.9117 C   0  0  0  0  0  0  0  0  0  0  0  0
   19.6383  -20.4388  -12.2997 O   0  0  0  0  0  0  0  0  0  0  0  0
   20.7693  -21.4008  -10.6390 O   0  0  0  0  0  0  0  0  0  0  0  0
  2  3  2  0
  2  1  1  0
  4  3  1  0
  5  4  2  0
  6  7  1  0
  6  5  1  0
  7  8  1  6
  9  7  1  0
  9 13  1  0
 10  9  2  0
 11  5  1  0
 11 12  2  0
 12  2  1  0
 14 13  1  0
 14 15  1  1
 16 21  1  0
 16 15  1  0
 17 16  2  0
 18 19  2  0
 18 17  1  0
 19 20  1  0
 20 21  2  0
 22 14  1  0
 23 22  2  0
 25 27  1  0
 25 24  1  6
 26 25  1  0
 28 29  1  0
 28 27  1  1
 29 22  1  0
 30 28  1  0
 31 30  1  0
 32 30  2  0
M  END
$$$$
