YFL.pdb
     RDKit          3D

 32 33  0  0  1  0  0  0  0  0999 V2000
   27.3595  -17.2320  -18.2215 O   0  0  0  0  0  0  0  0  0  0  0  0
   27.1076  -17.7325  -16.9560 C   0  0  0  0  0  0  0  0  0  0  0  0
   26.1030  -18.6643  -16.8088 C   0  0  0  0  0  0  0  0  0  0  0  0
   25.7818  -19.2207  -15.5717 C   0  0  0  0  0  0  0  0  0  0  0  0
   26.5142  -18.8053  -14.4635 C   0  0  0  0  0  0  0  0  0  0  0  0
   26.1810  -19.3870  -13.1615 C   0  0  0  0  0  0  0  0  0  0  0  0
   27.0812  -20.5472  -12.8086 C   0  0  2  0  0  0  0  0  0  0  0  0
   26.8124  -21.7055  -13.6179 N   0  0  0  0  0  0  0  0  0  0  0  0
   26.8218  -20.8877  -11.3850 C   0  0  0  0  0  0  0  0  0  0  0  0
   25.8516  -21.6110  -11.0595 O   0  0  0  0  0  0  0  0  0  0  0  0
   27.5174  -17.8806  -14.5836 C   0  0  0  0  0  0  0  0  0  0  0  0
   27.7963  -17.3600  -15.8306 C   0  0  0  0  0  0  0  0  0  0  0  0
   27.6377  -20.4274  -10.3151 N   0  0  0  0  0  0  0  0  0  0  0  0
   27.3918  -20.5546   -8.9333 C   0  0  1  0  0  0  0  0  0  0  0  0
   28.4186  -19.9514   -8.0142 C   0  0  0  0  0  0  0  0  0  0  0  0
   28.0890  -20.1167   -6.5645 C   0  0  0  0  0  0  0  0  0  0  0  0
   28.3927  -21.1830   -5.7919 C   0  0  0  0  0  0  0  0  0  0  0  0
   28.0302  -21.2464   -4.4428 C   0  0  0  0  0  0  0  0  0  0  0  0
   27.3450  -20.1934   -3.8852 C   0  0  0  0  0  0  0  0  0  0  0  0
   27.0167  -19.0947   -4.6272 C   0  0  0  0  0  0  0  0  0  0  0  0
   27.3883  -19.0729   -5.9378 C   0  0  0  0  0  0  0  0  0  0  0  0
   26.0544  -20.1417   -8.4950 C   0  0  0  0  0  0  0  0  0  0  0  0
   25.6601  -18.9858   -8.8132 O   0  0  0  0  0  0  0  0  0  0  0  0
   21.5570  -21.0465  -10.9802 C   0  0  0  0  0  0  0  0  0  0  0  0
   21.8777  -20.7434   -9.5389 C   0  0  2  0  0  0  0  0  0  0  0  0
   21.1405  -19.5448   -9.0175 C   0  0  0  0  0  0  0  0  0  0  0  0
   23.2964  -20.8681   -9.1629 C   0  0  0  0  0  0  0  0  0  0  0  0
   23.7119  -20.7664   -7.7618 C   0  0  2  0  0  0  0  0  0  0  0  0
   25.1837  -20.9613   -7.7402 N   0  0  0  0  0  0  0  0  0  0  0  0
   23.0567  -21.5795   -6.7517 C   0  0  0  0  0  0  0  0  0  0  0  0
   22.0751  -21.1039   -5.8973 O   0  0  0  0  0  0  0  0  0  0  0  0
   23.3349  -22.8174   -6.5598 O   0  0  0  0  0  0  0  0  0  0  0  0
  2  3  2  0
  2  1  1  0
  4  3  1  0
  5  4  2  0
  6  7  1  0
  6  5  1  0
  7  8  1  6
  9  7  1  0
  9 13  1  0
 10  9  2  0
 11  5  1  0
 11 12  2  0
 12  2  1  0
 14 13  1  0
 14 15  1  1
 16 21  1  0
 16 15  1  0
 17 16  2  0
 18 19  2  0
 18 17  1  0
 19 20  1  0
 20 21  2  0
 22 14  1  0
 23 22  2  0
 25 27  1  0
 25 24  1  6
 26 25  1  0
 28 29  1  0
 28 27  1  6
 29 22  1  0
 30 28  1  0
 31 30  1  0
 32 30  2  0
M  END
$$$$
