YFL.pdb
     RDKit          3D

 32 33  0  0  1  0  0  0  0  0999 V2000
   24.2704  -17.1158  -22.0298 O   0  0  0  0  0  0  0  0  0  0  0  0
   23.8586  -17.8504  -20.9314 C   0  0  0  0  0  0  0  0  0  0  0  0
   23.1165  -17.2145  -19.9598 C   0  0  0  0  0  0  0  0  0  0  0  0
   22.6607  -17.8771  -18.8212 C   0  0  0  0  0  0  0  0  0  0  0  0
   22.9784  -19.2252  -18.6840 C   0  0  0  0  0  0  0  0  0  0  0  0
   22.5017  -19.9261  -17.4899 C   0  0  0  0  0  0  0  0  0  0  0  0
   23.5180  -19.9044  -16.3728 C   0  0  2  0  0  0  0  0  0  0  0  0
   24.6980  -20.6584  -16.7009 N   0  0  0  0  0  0  0  0  0  0  0  0
   22.8745  -20.5177  -15.1812 C   0  0  0  0  0  0  0  0  0  0  0  0
   22.8684  -21.7600  -15.0171 O   0  0  0  0  0  0  0  0  0  0  0  0
   23.7146  -19.8797  -19.6357 C   0  0  0  0  0  0  0  0  0  0  0  0
   24.1421  -19.1785  -20.7444 C   0  0  0  0  0  0  0  0  0  0  0  0
   22.2345  -19.7554  -14.1654 N   0  0  0  0  0  0  0  0  0  0  0  0
   21.6369  -20.2342  -12.9824 C   0  0  1  0  0  0  0  0  0  0  0  0
   21.4759  -19.2391  -11.8658 C   0  0  0  0  0  0  0  0  0  0  0  0
   20.9795  -19.8487  -10.5933 C   0  0  0  0  0  0  0  0  0  0  0  0
   21.7163  -20.5431   -9.6983 C   0  0  0  0  0  0  0  0  0  0  0  0
   21.1540  -21.0840   -8.5378 C   0  0  0  0  0  0  0  0  0  0  0  0
   19.8123  -20.9043   -8.2993 C   0  0  0  0  0  0  0  0  0  0  0  0
   19.0281  -20.2093   -9.1755 C   0  0  0  0  0  0  0  0  0  0  0  0
   19.6151  -19.6989  -10.2940 C   0  0  0  0  0  0  0  0  0  0  0  0
   20.3736  -20.9561  -13.1672 C   0  0  0  0  0  0  0  0  0  0  0  0
   19.5095  -20.4463  -13.9329 O   0  0  0  0  0  0  0  0  0  0  0  0
   18.2908  -26.6930  -12.9995 C   0  0  0  0  0  0  0  0  0  0  0  0
   17.9245  -25.2330  -13.0799 C   0  0  2  0  0  0  0  0  0  0  0  0
   17.0941  -24.9062  -14.2863 C   0  0  0  0  0  0  0  0  0  0  0  0
   19.0000  -24.2873  -12.7354 C   0  0  0  0  0  0  0  0  0  0  0  0
   18.7488  -22.8443  -12.7091 C   0  0  2  0  0  0  0  0  0  0  0  0
   20.0691  -22.1865  -12.5402 N   0  0  0  0  0  0  0  0  0  0  0  0
   17.7650  -22.2975  -11.7904 C   0  0  0  0  0  0  0  0  0  0  0  0
   17.8468  -22.4181  -10.4125 O   0  0  0  0  0  0  0  0  0  0  0  0
   16.7255  -21.6532  -12.1788 O   0  0  0  0  0  0  0  0  0  0  0  0
  2  3  2  0
  2  1  1  0
  4  3  1  0
  5  4  2  0
  6  7  1  0
  6  5  1  0
  7  8  1  6
  9  7  1  0
  9 13  1  0
 10  9  2  0
 11  5  1  0
 11 12  2  0
 12  2  1  0
 14 13  1  0
 14 15  1  1
 16 21  1  0
 16 15  1  0
 17 16  2  0
 18 19  2  0
 18 17  1  0
 19 20  1  0
 20 21  2  0
 22 14  1  0
 23 22  2  0
 25 27  1  0
 25 24  1  6
 26 25  1  0
 28 29  1  0
 28 27  1  1
 29 22  1  0
 30 28  1  0
 31 30  1  0
 32 30  2  0
M  END
$$$$
