YFL.pdb
     RDKit          3D

 32 33  0  0  1  0  0  0  0  0999 V2000
   25.8402  -16.2136  -23.0833 O   0  0  0  0  0  0  0  0  0  0  0  0
   25.5770  -17.0835  -22.0395 C   0  0  0  0  0  0  0  0  0  0  0  0
   25.4329  -16.5609  -20.7726 C   0  0  0  0  0  0  0  0  0  0  0  0
   25.1670  -17.3634  -19.6642 C   0  0  0  0  0  0  0  0  0  0  0  0
   25.0474  -18.7348  -19.8696 C   0  0  0  0  0  0  0  0  0  0  0  0
   24.7677  -19.5823  -18.7086 C   0  0  0  0  0  0  0  0  0  0  0  0
   26.0255  -20.1783  -18.1221 C   0  0  2  0  0  0  0  0  0  0  0  0
   26.5558  -21.2350  -18.9412 N   0  0  0  0  0  0  0  0  0  0  0  0
   25.6681  -20.7376  -16.7920 C   0  0  0  0  0  0  0  0  0  0  0  0
   25.1072  -21.8536  -16.6892 O   0  0  0  0  0  0  0  0  0  0  0  0
   25.1863  -19.2785  -21.1190 C   0  0  0  0  0  0  0  0  0  0  0  0
   25.4492  -18.4408  -22.1835 C   0  0  0  0  0  0  0  0  0  0  0  0
   25.9311  -20.0615  -15.5688 N   0  0  0  0  0  0  0  0  0  0  0  0
   25.5616  -20.4642  -14.2699 C   0  0  1  0  0  0  0  0  0  0  0  0
   26.3809  -19.9049  -13.1391 C   0  0  0  0  0  0  0  0  0  0  0  0
   25.9638  -20.4121  -11.7952 C   0  0  0  0  0  0  0  0  0  0  0  0
   26.3591  -21.5686  -11.2187 C   0  0  0  0  0  0  0  0  0  0  0  0
   25.9025  -21.9602   -9.9563 C   0  0  0  0  0  0  0  0  0  0  0  0
   25.0258  -21.1450   -9.2809 C   0  0  0  0  0  0  0  0  0  0  0  0
   24.5988  -19.9667   -9.8238 C   0  0  0  0  0  0  0  0  0  0  0  0
   25.0676  -19.6224  -11.0559 C   0  0  0  0  0  0  0  0  0  0  0  0
   24.1380  -20.3157  -13.9498 C   0  0  0  0  0  0  0  0  0  0  0  0
   23.6278  -19.1656  -14.0499 O   0  0  0  0  0  0  0  0  0  0  0  0
   19.2274  -23.0761  -15.3208 C   0  0  0  0  0  0  0  0  0  0  0  0
   19.8666  -21.9205  -14.5941 C   0  0  2  0  0  0  0  0  0  0  0  0
   19.8200  -20.6417  -15.3780 C   0  0  0  0  0  0  0  0  0  0  0  0
   21.1259  -22.2271  -13.8943 C   0  0  0  0  0  0  0  0  0  0  0  0
   21.8749  -21.1743  -13.2038 C   0  0  2  0  0  0  0  0  0  0  0  0
   23.3065  -21.3828  -13.5380 N   0  0  0  0  0  0  0  0  0  0  0  0
   21.6899  -20.9710  -11.7772 C   0  0  0  0  0  0  0  0  0  0  0  0
   20.7253  -20.1361  -11.2366 O   0  0  0  0  0  0  0  0  0  0  0  0
   22.4116  -21.5492  -10.8876 O   0  0  0  0  0  0  0  0  0  0  0  0
  2  3  2  0
  2  1  1  0
  4  3  1  0
  5  4  2  0
  6  7  1  0
  6  5  1  0
  7  8  1  6
  9  7  1  0
  9 13  1  0
 10  9  2  0
 11  5  1  0
 11 12  2  0
 12  2  1  0
 14 13  1  0
 14 15  1  1
 16 21  1  0
 16 15  1  0
 17 16  2  0
 18 19  2  0
 18 17  1  0
 19 20  1  0
 20 21  2  0
 22 14  1  0
 23 22  2  0
 25 27  1  0
 25 24  1  6
 26 25  1  0
 28 29  1  0
 28 27  1  1
 29 22  1  0
 30 28  1  0
 31 30  1  0
 32 30  2  0
M  END
$$$$
