YFL.pdb
     RDKit          3D

 32 33  0  0  1  0  0  0  0  0999 V2000
   22.4401  -15.4815  -24.3911 O   0  0  0  0  0  0  0  0  0  0  0  0
   22.4540  -14.4208  -23.5021 C   0  0  0  0  0  0  0  0  0  0  0  0
   23.6153  -14.1663  -22.8053 C   0  0  0  0  0  0  0  0  0  0  0  0
   23.7180  -13.1193  -21.8906 C   0  0  0  0  0  0  0  0  0  0  0  0
   22.5970  -12.3187  -21.6921 C   0  0  0  0  0  0  0  0  0  0  0  0
   22.6997  -11.2173  -20.7324 C   0  0  0  0  0  0  0  0  0  0  0  0
   22.5776   -9.8676  -21.3991 C   0  0  2  0  0  0  0  0  0  0  0  0
   23.7417   -9.5425  -22.1787 N   0  0  0  0  0  0  0  0  0  0  0  0
   22.4269   -8.8563  -20.3200 C   0  0  0  0  0  0  0  0  0  0  0  0
   23.4138   -8.2103  -19.8967 O   0  0  0  0  0  0  0  0  0  0  0  0
   21.4313  -12.5511  -22.3724 C   0  0  0  0  0  0  0  0  0  0  0  0
   21.3812  -13.6004  -23.2670 C   0  0  0  0  0  0  0  0  0  0  0  0
   21.1803   -8.5565  -19.7048 N   0  0  0  0  0  0  0  0  0  0  0  0
   20.9249   -7.5904  -18.7112 C   0  0  1  0  0  0  0  0  0  0  0  0
   19.8115   -6.6194  -18.9946 C   0  0  0  0  0  0  0  0  0  0  0  0
   20.0566   -5.7695  -20.2010 C   0  0  0  0  0  0  0  0  0  0  0  0
   20.6272   -4.5446  -20.2139 C   0  0  0  0  0  0  0  0  0  0  0  0
   20.8040   -3.8231  -21.3986 C   0  0  0  0  0  0  0  0  0  0  0  0
   20.3856   -4.3755  -22.5857 C   0  0  0  0  0  0  0  0  0  0  0  0
   19.8039   -5.6108  -22.6214 C   0  0  0  0  0  0  0  0  0  0  0  0
   19.6501   -6.2803  -21.4448 C   0  0  0  0  0  0  0  0  0  0  0  0
   20.7668   -8.1176  -17.3517 C   0  0  0  0  0  0  0  0  0  0  0  0
   20.3131   -9.2882  -17.2220 O   0  0  0  0  0  0  0  0  0  0  0  0
   21.0356  -10.7615  -13.5489 C   0  0  0  0  0  0  0  0  0  0  0  0
   22.0064  -10.4418  -14.6568 C   0  0  2  0  0  0  0  0  0  0  0  0
   23.2070  -11.3420  -14.6573 C   0  0  0  0  0  0  0  0  0  0  0  0
   22.2483   -9.0088  -14.8970 C   0  0  0  0  0  0  0  0  0  0  0  0
   21.1465   -8.0445  -14.8485 C   0  0  2  0  0  0  0  0  0  0  0  0
   21.0933   -7.3933  -16.1818 N   0  0  0  0  0  0  0  0  0  0  0  0
   21.0901   -7.0630  -13.7789 C   0  0  0  0  0  0  0  0  0  0  0  0
   20.4923   -7.2953  -12.5506 O   0  0  0  0  0  0  0  0  0  0  0  0
   21.5902   -5.8857  -13.8810 O   0  0  0  0  0  0  0  0  0  0  0  0
  2  3  2  0
  2  1  1  0
  4  3  1  0
  5  4  2  0
  6  7  1  0
  6  5  1  0
  7  8  1  1
  9  7  1  0
  9 13  1  0
 10  9  2  0
 11  5  1  0
 11 12  2  0
 12  2  1  0
 14 13  1  0
 14 15  1  6
 16 21  1  0
 16 15  1  0
 17 16  2  0
 18 19  2  0
 18 17  1  0
 19 20  1  0
 20 21  2  0
 22 14  1  0
 23 22  2  0
 25 27  1  0
 25 24  1  1
 26 25  1  0
 28 29  1  0
 28 27  1  6
 29 22  1  0
 30 28  1  0
 31 30  1  0
 32 30  2  0
M  END
$$$$
