YFL.pdb
     RDKit          3D

 32 33  0  0  1  0  0  0  0  0999 V2000
   28.3704  -17.1493  -18.4962 O   0  0  0  0  0  0  0  0  0  0  0  0
   27.7424  -17.8570  -17.4861 C   0  0  0  0  0  0  0  0  0  0  0  0
   28.3551  -17.9211  -16.2535 C   0  0  0  0  0  0  0  0  0  0  0  0
   27.7938  -18.6116  -15.1804 C   0  0  0  0  0  0  0  0  0  0  0  0
   26.5737  -19.2490  -15.3856 C   0  0  0  0  0  0  0  0  0  0  0  0
   25.9796  -19.9755  -14.2615 C   0  0  0  0  0  0  0  0  0  0  0  0
   26.9938  -20.2928  -13.1883 C   0  0  2  0  0  0  0  0  0  0  0  0
   27.9539  -21.2709  -13.6241 N   0  0  0  0  0  0  0  0  0  0  0  0
   26.2468  -20.8407  -12.0257 C   0  0  0  0  0  0  0  0  0  0  0  0
   25.9736  -22.0614  -11.9496 O   0  0  0  0  0  0  0  0  0  0  0  0
   25.9448  -19.2001  -16.6013 C   0  0  0  0  0  0  0  0  0  0  0  0
   26.5421  -18.5033  -17.6316 C   0  0  0  0  0  0  0  0  0  0  0  0
   25.7989  -20.0370  -10.9413 N   0  0  0  0  0  0  0  0  0  0  0  0
   25.0815  -20.4556   -9.8029 C   0  0  1  0  0  0  0  0  0  0  0  0
   25.1507  -19.5535   -8.6012 C   0  0  0  0  0  0  0  0  0  0  0  0
   26.4303  -19.6787   -7.8367 C   0  0  0  0  0  0  0  0  0  0  0  0
   27.0339  -18.7034   -7.1222 C   0  0  0  0  0  0  0  0  0  0  0  0
   28.2396  -18.9186   -6.4474 C   0  0  0  0  0  0  0  0  0  0  0  0
   28.8289  -20.1587   -6.5119 C   0  0  0  0  0  0  0  0  0  0  0  0
   28.2553  -21.1750   -7.2217 C   0  0  0  0  0  0  0  0  0  0  0  0
   27.0808  -20.9235   -7.8647 C   0  0  0  0  0  0  0  0  0  0  0  0
   23.6829  -20.8250  -10.0454 C   0  0  0  0  0  0  0  0  0  0  0  0
   22.9891  -20.0623  -10.7733 O   0  0  0  0  0  0  0  0  0  0  0  0
   19.4679  -23.3789   -6.5527 C   0  0  0  0  0  0  0  0  0  0  0  0
   19.7685  -22.9358   -7.9618 C   0  0  2  0  0  0  0  0  0  0  0  0
   19.0459  -23.7493   -8.9952 C   0  0  0  0  0  0  0  0  0  0  0  0
   21.1775  -22.6071   -8.2385 C   0  0  0  0  0  0  0  0  0  0  0  0
   21.6000  -22.1879   -9.5771 C   0  0  2  0  0  0  0  0  0  0  0  0
   23.0692  -21.9827   -9.5137 N   0  0  0  0  0  0  0  0  0  0  0  0
   20.9384  -21.0702  -10.2280 C   0  0  0  0  0  0  0  0  0  0  0  0
   20.9138  -19.7837   -9.7140 O   0  0  0  0  0  0  0  0  0  0  0  0
   20.3119  -21.1793  -11.3426 O   0  0  0  0  0  0  0  0  0  0  0  0
  2  3  2  0
  2  1  1  0
  4  3  1  0
  5  4  2  0
  6  7  1  0
  6  5  1  0
  7  8  1  6
  9  7  1  0
  9 13  1  0
 10  9  2  0
 11  5  1  0
 11 12  2  0
 12  2  1  0
 14 13  1  0
 14 15  1  1
 16 21  1  0
 16 15  1  0
 17 16  2  0
 18 19  2  0
 18 17  1  0
 19 20  1  0
 20 21  2  0
 22 14  1  0
 23 22  2  0
 25 27  1  0
 25 24  1  1
 26 25  1  0
 28 29  1  0
 28 27  1  1
 29 22  1  0
 30 28  1  0
 31 30  1  0
 32 30  2  0
M  END
$$$$
