GVP.pdb
     RDKit          3D

 19 19  0  0  1  0  0  0  0  0999 V2000
   28.9001  -25.7210  -16.8660 N   0  0  0  0  0  0  0  0  0  0  0  0
   27.9491  -24.7007  -17.2540 C   0  0  0  0  0  0  0  0  0  0  0  0
   27.9775  -23.5705  -16.3047 C   0  0  0  0  0  0  0  0  0  0  0  0
   28.7418  -23.6442  -15.3095 O   0  0  0  0  0  0  0  0  0  0  0  0
   28.3592  -19.7948  -17.1557 C   0  0  0  0  0  0  0  0  0  0  0  0
   27.1378  -20.0502  -16.3471 C   0  0  2  0  0  0  0  0  0  0  0  0
   26.9057  -18.8445  -15.4448 C   0  0  0  0  0  0  0  0  0  0  0  0
   27.1316  -21.3344  -15.5362 C   0  0  2  0  0  0  0  0  0  0  0  0
   27.1634  -22.4456  -16.5221 N   0  0  0  0  0  0  0  0  0  0  0  0
   25.8548  -21.4263  -14.8183 C   0  0  0  0  0  0  0  0  0  0  0  0
   24.8489  -21.8311  -15.5180 O   0  0  0  0  0  0  0  0  0  0  0  0
   25.5860  -21.1374  -13.4734 N   0  0  0  0  0  0  0  0  0  0  0  0
   26.5351  -20.4241  -12.5850 C   0  0  0  0  0  0  0  0  0  0  0  0
   26.3399  -21.0994  -11.2584 C   0  0  0  0  0  0  0  0  0  0  0  0
   25.0640  -21.8736  -11.3216 C   0  0  0  0  0  0  0  0  0  0  0  0
   24.4520  -21.4172  -12.6308 C   0  0  1  0  0  0  0  0  0  0  0  0
   23.6574  -20.1607  -12.3833 C   0  0  0  0  0  0  0  0  0  0  0  0
   22.4164  -20.2650  -11.8242 O   0  0  0  0  0  0  0  0  0  0  0  0
   24.1382  -19.0537  -12.6891 O   0  0  0  0  0  0  0  0  0  0  0  0
  1  2  1  0
  3  2  1  0
  3  4  2  0
  6  5  1  1
  6  8  1  0
  7  6  1  0
  8  9  1  6
  9  3  1  0
 10 12  1  0
 10  8  1  0
 11 10  2  0
 12 16  1  0
 13 12  1  0
 13 14  1  0
 14 15  1  0
 16 15  1  0
 17 18  1  0
 16 17  1  1
 19 17  2  0
M  END
$$$$
