GVP.pdb
     RDKit          3D

 19 19  0  0  1  0  0  0  0  0999 V2000
   20.6167  -21.5625  -11.4982 N   0  0  0  0  0  0  0  0  0  0  0  0
   21.4715  -21.7070  -12.6576 C   0  0  0  0  0  0  0  0  0  0  0  0
   22.5862  -20.7402  -12.6099 C   0  0  0  0  0  0  0  0  0  0  0  0
   22.4997  -19.7661  -11.8203 O   0  0  0  0  0  0  0  0  0  0  0  0
   26.3234  -22.1033  -13.3646 C   0  0  0  0  0  0  0  0  0  0  0  0
   25.9944  -20.8163  -12.6966 C   0  0  2  0  0  0  0  0  0  0  0  0
   25.6855  -21.1070  -11.2331 C   0  0  0  0  0  0  0  0  0  0  0  0
   24.8770  -20.0040  -13.3281 C   0  0  2  0  0  0  0  0  0  0  0  0
   23.7107  -20.9184  -13.4339 N   0  0  0  0  0  0  0  0  0  0  0  0
   25.2753  -19.6471  -14.6949 C   0  0  0  0  0  0  0  0  0  0  0  0
   24.7953  -20.3961  -15.6296 O   0  0  0  0  0  0  0  0  0  0  0  0
   26.1031  -18.5981  -15.1177 N   0  0  0  0  0  0  0  0  0  0  0  0
   27.0174  -17.8621  -14.2117 C   0  0  0  0  0  0  0  0  0  0  0  0
   26.9523  -16.4530  -14.7259 C   0  0  0  0  0  0  0  0  0  0  0  0
   26.3445  -16.4906  -16.0898 C   0  0  0  0  0  0  0  0  0  0  0  0
   26.2949  -17.9730  -16.4010 C   0  0  1  0  0  0  0  0  0  0  0  0
   27.6155  -18.3885  -16.9967 C   0  0  0  0  0  0  0  0  0  0  0  0
   27.9524  -17.9299  -18.2375 O   0  0  0  0  0  0  0  0  0  0  0  0
   28.3757  -19.1377  -16.3555 O   0  0  0  0  0  0  0  0  0  0  0  0
  1  2  1  0
  3  2  1  0
  3  4  2  0
  6  5  1  6
  6  8  1  0
  7  6  1  0
  8  9  1  6
  9  3  1  0
 10 12  1  0
 10  8  1  0
 11 10  2  0
 12 16  1  0
 13 12  1  0
 13 14  1  0
 14 15  1  0
 16 15  1  0
 17 18  1  0
 16 17  1  1
 19 17  2  0
M  END
$$$$
