GVP.pdb
     RDKit          3D

 19 19  0  0  1  0  0  0  0  0999 V2000
   22.6144  -20.8713  -11.0512 N   0  0  0  0  0  0  0  0  0  0  0  0
   23.6709  -19.9308  -10.7425 C   0  0  0  0  0  0  0  0  0  0  0  0
   24.6623  -20.5374   -9.8322 C   0  0  0  0  0  0  0  0  0  0  0  0
   24.2748  -21.4264   -9.0325 O   0  0  0  0  0  0  0  0  0  0  0  0
   28.3449  -21.6480  -10.8879 C   0  0  0  0  0  0  0  0  0  0  0  0
   28.3148  -20.7528   -9.7012 C   0  0  2  0  0  0  0  0  0  0  0  0
   29.4587  -21.1516   -8.7771 C   0  0  0  0  0  0  0  0  0  0  0  0
   27.0028  -20.7022   -8.9374 C   0  0  2  0  0  0  0  0  0  0  0  0
   26.0038  -20.1202   -9.8707 N   0  0  0  0  0  0  0  0  0  0  0  0
   27.1508  -19.7641   -7.8184 C   0  0  0  0  0  0  0  0  0  0  0  0
   26.7827  -18.5502   -8.0553 O   0  0  0  0  0  0  0  0  0  0  0  0
   27.6339  -20.0145   -6.5267 N   0  0  0  0  0  0  0  0  0  0  0  0
   28.1958  -21.3194   -6.1028 C   0  0  0  0  0  0  0  0  0  0  0  0
   27.7277  -21.4517   -4.6825 C   0  0  0  0  0  0  0  0  0  0  0  0
   27.2695  -20.1060   -4.2238 C   0  0  0  0  0  0  0  0  0  0  0  0
   27.7157  -19.1919   -5.3473 C   0  0  1  0  0  0  0  0  0  0  0  0
   29.1415  -18.7734   -5.0954 C   0  0  0  0  0  0  0  0  0  0  0  0
   29.3941  -17.8404   -4.1316 O   0  0  0  0  0  0  0  0  0  0  0  0
   30.0625  -19.2793   -5.7634 O   0  0  0  0  0  0  0  0  0  0  0  0
  1  2  1  0
  3  2  1  0
  3  4  2  0
  6  5  1  6
  6  8  1  0
  7  6  1  0
  8  9  1  6
  9  3  1  0
 10 12  1  0
 10  8  1  0
 11 10  2  0
 12 16  1  0
 13 12  1  0
 13 14  1  0
 14 15  1  0
 16 15  1  0
 17 18  1  0
 16 17  1  1
 19 17  2  0
M  END
$$$$
