GVP.pdb
     RDKit          3D

 19 19  0  0  1  0  0  0  0  0999 V2000
   17.4126  -12.4019  -17.3591 N   0  0  0  0  0  0  0  0  0  0  0  0
   18.3934  -11.3698  -17.6208 C   0  0  0  0  0  0  0  0  0  0  0  0
   19.1162  -11.0091  -16.3851 C   0  0  0  0  0  0  0  0  0  0  0  0
   18.6553  -11.4057  -15.2850 O   0  0  0  0  0  0  0  0  0  0  0  0
   22.6530  -11.7993  -15.5941 C   0  0  0  0  0  0  0  0  0  0  0  0
   22.4581  -10.3352  -15.4227 C   0  0  2  0  0  0  0  0  0  0  0  0
   23.3437   -9.8702  -14.2733 C   0  0  0  0  0  0  0  0  0  0  0  0
   21.0261   -9.8730  -15.2156 C   0  0  2  0  0  0  0  0  0  0  0  0
   20.2906  -10.2399  -16.4534 N   0  0  0  0  0  0  0  0  0  0  0  0
   21.0179   -8.4083  -15.1227 C   0  0  0  0  0  0  0  0  0  0  0  0
   21.3151   -7.7786  -16.2091 O   0  0  0  0  0  0  0  0  0  0  0  0
   20.7250   -7.6051  -14.0121 N   0  0  0  0  0  0  0  0  0  0  0  0
   20.5404   -8.1406  -12.6418 C   0  0  0  0  0  0  0  0  0  0  0  0
   19.4515   -7.2752  -12.0768 C   0  0  0  0  0  0  0  0  0  0  0  0
   19.3234   -6.0707  -12.9509 C   0  0  0  0  0  0  0  0  0  0  0  0
   20.5233   -6.1861  -13.8696 C   0  0  1  0  0  0  0  0  0  0  0  0
   21.7127   -5.5504  -13.1969 C   0  0  0  0  0  0  0  0  0  0  0  0
   21.8377   -4.1914  -13.2254 O   0  0  0  0  0  0  0  0  0  0  0  0
   22.5586   -6.2661  -12.6288 O   0  0  0  0  0  0  0  0  0  0  0  0
  1  2  1  0
  3  2  1  0
  3  4  2  0
  6  5  1  1
  6  8  1  0
  7  6  1  0
  8  9  1  6
  9  3  1  0
 10 12  1  0
 10  8  1  0
 11 10  2  0
 12 16  1  0
 13 12  1  0
 13 14  1  0
 14 15  1  0
 16 15  1  0
 17 18  1  0
 16 17  1  1
 19 17  2  0
M  END
$$$$
