GVP.pdb
     RDKit          3D

 19 19  0  0  1  0  0  0  0  0999 V2000
   23.4008   -9.3984  -18.8348 N   0  0  0  0  0  0  0  0  0  0  0  0
   23.7326  -10.6923  -19.3929 C   0  0  0  0  0  0  0  0  0  0  0  0
   23.6145  -11.7498  -18.3695 C   0  0  0  0  0  0  0  0  0  0  0  0
   23.4472  -11.4071  -17.1718 O   0  0  0  0  0  0  0  0  0  0  0  0
   20.9179  -14.0384  -18.0590 C   0  0  0  0  0  0  0  0  0  0  0  0
   22.1542  -14.8578  -18.1637 C   0  0  2  0  0  0  0  0  0  0  0  0
   21.9415  -16.1407  -17.3695 C   0  0  0  0  0  0  0  0  0  0  0  0
   23.4440  -14.1753  -17.7422 C   0  0  2  0  0  0  0  0  0  0  0  0
   23.6894  -13.1031  -18.7411 N   0  0  0  0  0  0  0  0  0  0  0  0
   24.5428  -15.1409  -17.8616 C   0  0  0  0  0  0  0  0  0  0  0  0
   24.9166  -15.4149  -19.0660 O   0  0  0  0  0  0  0  0  0  0  0  0
   25.2418  -15.7995  -16.8408 N   0  0  0  0  0  0  0  0  0  0  0  0
   24.8657  -15.7189  -15.4088 C   0  0  0  0  0  0  0  0  0  0  0  0
   26.1911  -15.7119  -14.7037 C   0  0  0  0  0  0  0  0  0  0  0  0
   27.2296  -16.1681  -15.6756 C   0  0  0  0  0  0  0  0  0  0  0  0
   26.4069  -16.6461  -16.8553 C   0  0  1  0  0  0  0  0  0  0  0  0
   26.0162  -18.0832  -16.6242 C   0  0  0  0  0  0  0  0  0  0  0  0
   26.9390  -19.0624  -16.8547 O   0  0  0  0  0  0  0  0  0  0  0  0
   24.8674  -18.3569  -16.2297 O   0  0  0  0  0  0  0  0  0  0  0  0
  1  2  1  0
  3  2  1  0
  3  4  2  0
  6  5  1  1
  6  8  1  0
  7  6  1  0
  8  9  1  6
  9  3  1  0
 10 12  1  0
 10  8  1  0
 11 10  2  0
 12 16  1  0
 13 12  1  0
 13 14  1  0
 14 15  1  0
 16 15  1  0
 17 18  1  0
 16 17  1  1
 19 17  2  0
M  END
$$$$
