IFG.pdb
     RDKit          3D

 24 24  0  0  1  0  0  0  0  0999 V2000
   20.3677  -20.9710  -14.8361 C   0  0  0  0  0  0  0  0  0  0  0  0
   20.8231  -21.1815  -13.4122 C   0  0  0  0  0  0  0  0  0  0  0  0
   22.1938  -20.6544  -13.1607 C   0  0  2  0  0  0  0  0  0  0  0  0
   23.1493  -21.1866  -14.2047 C   0  0  0  0  0  0  0  0  0  0  0  0
   22.6725  -20.8472  -11.7678 C   0  0  2  0  0  0  0  0  0  0  0  0
   21.7172  -20.3073  -10.7920 N   0  0  0  0  0  0  0  0  0  0  0  0
   24.0183  -20.3732  -11.4602 C   0  0  0  0  0  0  0  0  0  0  0  0
   24.3554  -19.1916  -11.1969 O   0  0  0  0  0  0  0  0  0  0  0  0
   25.0802  -21.3313  -11.4509 N   0  0  0  0  0  0  0  0  0  0  0  0
   26.4500  -20.9395  -11.0937 C   0  0  1  0  0  0  0  0  0  0  0  0
   26.8960  -21.7458   -9.8966 C   0  0  0  0  0  0  0  0  0  0  0  0
   27.2635  -20.9446   -8.7280 C   0  0  0  0  0  0  0  0  0  0  0  0
   26.2994  -20.2855   -7.9456 C   0  0  0  0  0  0  0  0  0  0  0  0
   26.6269  -19.5367   -6.8554 C   0  0  0  0  0  0  0  0  0  0  0  0
   27.9326  -19.3909   -6.4674 C   0  0  0  0  0  0  0  0  0  0  0  0
   28.9147  -20.0338   -7.2245 C   0  0  0  0  0  0  0  0  0  0  0  0
   28.5689  -20.7863   -8.3225 C   0  0  0  0  0  0  0  0  0  0  0  0
   27.3017  -21.2499  -12.2444 C   0  0  0  0  0  0  0  0  0  0  0  0
   27.0805  -22.2863  -12.9065 O   0  0  0  0  0  0  0  0  0  0  0  0
   28.3773  -20.4238  -12.6579 N   0  0  0  0  0  0  0  0  0  0  0  0
   28.1316  -19.4258  -13.6877 C   0  0  0  0  0  0  0  0  0  0  0  0
   28.1109  -20.0203  -15.0366 C   0  0  0  0  0  0  0  0  0  0  0  0
   27.5161  -21.2432  -15.2791 O   0  0  0  0  0  0  0  0  0  0  0  0
   28.6434  -19.4066  -15.9876 O   0  0  0  0  0  0  0  0  0  0  0  0
  2  1  1  0
  3  2  1  0
  3  5  1  0
  3  4  1  6
  5  6  1  1
  5  7  1  0
  7  8  2  0
  9  7  1  0
  9 10  1  0
 10 11  1  1
 11 12  1  0
 12 13  2  0
 13 14  1  0
 15 14  2  0
 16 15  1  0
 17 12  1  0
 17 16  2  0
 18 10  1  0
 18 20  1  0
 19 18  2  0
 21 22  1  0
 21 20  1  0
 22 23  1  0
 24 22  2  0
M  END
$$$$
