IFG.pdb
     RDKit          3D

 24 24  0  0  1  0  0  0  0  0999 V2000
   27.4606  -16.7441  -16.5816 C   0  0  0  0  0  0  0  0  0  0  0  0
   28.1103  -17.6298  -15.5459 C   0  0  0  0  0  0  0  0  0  0  0  0
   27.1338  -18.5100  -14.8448 C   0  0  2  0  0  0  0  0  0  0  0  0
   26.0456  -17.6712  -14.2139 C   0  0  0  0  0  0  0  0  0  0  0  0
   27.7549  -19.4777  -13.9043 C   0  0  2  0  0  0  0  0  0  0  0  0
   28.8255  -20.2455  -14.5529 N   0  0  0  0  0  0  0  0  0  0  0  0
   26.8539  -20.3818  -13.1963 C   0  0  0  0  0  0  0  0  0  0  0  0
   26.5371  -21.5477  -13.5420 O   0  0  0  0  0  0  0  0  0  0  0  0
   26.2571  -19.9178  -11.9821 N   0  0  0  0  0  0  0  0  0  0  0  0
   25.4660  -20.8198  -11.1347 C   0  0  1  0  0  0  0  0  0  0  0  0
   25.6464  -20.4208   -9.6889 C   0  0  0  0  0  0  0  0  0  0  0  0
   26.9940  -20.6418   -9.1618 C   0  0  0  0  0  0  0  0  0  0  0  0
   27.4110  -20.0967   -7.9350 C   0  0  0  0  0  0  0  0  0  0  0  0
   28.6619  -20.2942   -7.4323 C   0  0  0  0  0  0  0  0  0  0  0  0
   29.5838  -21.0455   -8.1121 C   0  0  0  0  0  0  0  0  0  0  0  0
   29.1999  -21.6011   -9.3349 C   0  0  0  0  0  0  0  0  0  0  0  0
   27.9338  -21.3931   -9.8296 C   0  0  0  0  0  0  0  0  0  0  0  0
   24.0628  -20.6556  -11.5219 C   0  0  0  0  0  0  0  0  0  0  0  0
   23.6011  -19.5043  -11.6728 O   0  0  0  0  0  0  0  0  0  0  0  0
   23.1868  -21.7483  -11.7429 N   0  0  0  0  0  0  0  0  0  0  0  0
   21.7967  -21.4699  -12.0701 C   0  0  0  0  0  0  0  0  0  0  0  0
   21.4805  -21.8149  -13.4680 C   0  0  0  0  0  0  0  0  0  0  0  0
   20.2079  -21.6579  -13.9818 O   0  0  0  0  0  0  0  0  0  0  0  0
   22.3827  -22.2608  -14.2109 O   0  0  0  0  0  0  0  0  0  0  0  0
  2  1  1  0
  3  2  1  0
  3  5  1  0
  3  4  1  1
  5  6  1  6
  5  7  1  0
  7  8  2  0
  9  7  1  0
  9 10  1  0
 10 11  1  1
 11 12  1  0
 12 13  2  0
 13 14  1  0
 15 14  2  0
 16 15  1  0
 17 12  1  0
 17 16  2  0
 18 10  1  0
 18 20  1  0
 19 18  2  0
 21 22  1  0
 21 20  1  0
 22 23  1  0
 24 22  2  0
M  END
$$$$
