IFG.pdb
     RDKit          3D

 24 24  0  0  1  0  0  0  0  0999 V2000
   20.2690  -22.6532  -14.4293 C   0  0  0  0  0  0  0  0  0  0  0  0
   20.2119  -21.1510  -14.2896 C   0  0  0  0  0  0  0  0  0  0  0  0
   21.5623  -20.5281  -14.1990 C   0  0  2  0  0  0  0  0  0  0  0  0
   22.2997  -20.7057  -15.5070 C   0  0  0  0  0  0  0  0  0  0  0  0
   22.3496  -20.9545  -13.0138 C   0  0  2  0  0  0  0  0  0  0  0  0
   21.5903  -20.7711  -11.7703 N   0  0  0  0  0  0  0  0  0  0  0  0
   23.6857  -20.3853  -12.8686 C   0  0  0  0  0  0  0  0  0  0  0  0
   23.9990  -19.1723  -12.9673 O   0  0  0  0  0  0  0  0  0  0  0  0
   24.7669  -21.2776  -12.5847 N   0  0  0  0  0  0  0  0  0  0  0  0
   26.1471  -20.7858  -12.4820 C   0  0  1  0  0  0  0  0  0  0  0  0
   26.8190  -21.4484  -11.3023 C   0  0  0  0  0  0  0  0  0  0  0  0
   26.3466  -20.9860   -9.9963 C   0  0  0  0  0  0  0  0  0  0  0  0
   26.5759  -19.6748   -9.5444 C   0  0  0  0  0  0  0  0  0  0  0  0
   26.1421  -19.2308   -8.3315 C   0  0  0  0  0  0  0  0  0  0  0  0
   25.4515  -20.0570   -7.4847 C   0  0  0  0  0  0  0  0  0  0  0  0
   25.2074  -21.3666   -7.9049 C   0  0  0  0  0  0  0  0  0  0  0  0
   25.6515  -21.8005   -9.1320 C   0  0  0  0  0  0  0  0  0  0  0  0
   26.8336  -21.1647  -13.7193 C   0  0  0  0  0  0  0  0  0  0  0  0
   26.3172  -22.0231  -14.4664 O   0  0  0  0  0  0  0  0  0  0  0  0
   28.0687  -20.5991  -14.1250 N   0  0  0  0  0  0  0  0  0  0  0  0
   28.0474  -19.3942  -14.9403 C   0  0  0  0  0  0  0  0  0  0  0  0
   27.5319  -19.6563  -16.2963 C   0  0  0  0  0  0  0  0  0  0  0  0
   26.1836  -19.5761  -16.5858 O   0  0  0  0  0  0  0  0  0  0  0  0
   28.3306  -19.9588  -17.2103 O   0  0  0  0  0  0  0  0  0  0  0  0
  2  1  1  0
  3  2  1  0
  3  5  1  0
  3  4  1  6
  5  6  1  1
  5  7  1  0
  7  8  2  0
  9  7  1  0
  9 10  1  0
 10 11  1  1
 11 12  1  0
 12 13  2  0
 13 14  1  0
 15 14  2  0
 16 15  1  0
 17 12  1  0
 17 16  2  0
 18 10  1  0
 18 20  1  0
 19 18  2  0
 21 22  1  0
 21 20  1  0
 22 23  1  0
 24 22  2  0
M  END
$$$$
