IFG.pdb
     RDKit          3D

 24 24  0  0  1  0  0  0  0  0999 V2000
   22.7981  -20.1584  -14.6166 C   0  0  0  0  0  0  0  0  0  0  0  0
   24.2430  -20.5204  -14.3707 C   0  0  0  0  0  0  0  0  0  0  0  0
   24.4997  -20.9496  -12.9672 C   0  0  2  0  0  0  0  0  0  0  0  0
   23.5185  -20.2752  -12.0353 C   0  0  0  0  0  0  0  0  0  0  0  0
   25.9149  -20.8091  -12.5383 C   0  0  2  0  0  0  0  0  0  0  0  0
   26.8267  -21.4964  -13.4617 N   0  0  0  0  0  0  0  0  0  0  0  0
   26.2281  -21.1809  -11.1621 C   0  0  0  0  0  0  0  0  0  0  0  0
   26.3134  -22.3469  -10.7010 O   0  0  0  0  0  0  0  0  0  0  0  0
   26.4667  -20.1298  -10.2219 N   0  0  0  0  0  0  0  0  0  0  0  0
   26.7427  -20.4256   -8.8099 C   0  0  1  0  0  0  0  0  0  0  0  0
   27.6205  -19.3355   -8.2413 C   0  0  0  0  0  0  0  0  0  0  0  0
   27.9685  -19.5105   -6.8303 C   0  0  0  0  0  0  0  0  0  0  0  0
   27.4776  -18.6517   -5.8315 C   0  0  0  0  0  0  0  0  0  0  0  0
   27.7930  -18.8027   -4.5147 C   0  0  0  0  0  0  0  0  0  0  0  0
   28.6165  -19.8156   -4.0991 C   0  0  0  0  0  0  0  0  0  0  0  0
   29.1209  -20.6863   -5.0679 C   0  0  0  0  0  0  0  0  0  0  0  0
   28.7938  -20.5213   -6.3935 C   0  0  0  0  0  0  0  0  0  0  0  0
   25.4549  -20.4383   -8.1118 C   0  0  0  0  0  0  0  0  0  0  0  0
   24.6408  -19.5123   -8.3145 O   0  0  0  0  0  0  0  0  0  0  0  0
   25.0732  -21.4619   -7.2081 N   0  0  0  0  0  0  0  0  0  0  0  0
   23.7816  -21.3590   -6.5462 C   0  0  0  0  0  0  0  0  0  0  0  0
   23.8053  -21.9536   -5.1974 C   0  0  0  0  0  0  0  0  0  0  0  0
   22.6629  -22.0432   -4.4261 O   0  0  0  0  0  0  0  0  0  0  0  0
   24.8834  -22.3888   -4.7358 O   0  0  0  0  0  0  0  0  0  0  0  0
  2  1  1  0
  3  2  1  0
  3  5  1  0
  3  4  1  1
  5  6  1  6
  5  7  1  0
  7  8  2  0
  9  7  1  0
  9 10  1  0
 10 11  1  1
 11 12  1  0
 12 13  2  0
 13 14  1  0
 15 14  2  0
 16 15  1  0
 17 12  1  0
 17 16  2  0
 18 10  1  0
 18 20  1  0
 19 18  2  0
 21 22  1  0
 21 20  1  0
 22 23  1  0
 24 22  2  0
M  END
$$$$
