IFG.pdb
     RDKit          3D

 24 24  0  0  1  0  0  0  0  0999 V2000
   19.2568  -21.6293  -13.9329 C   0  0  0  0  0  0  0  0  0  0  0  0
   20.0530  -21.4981  -12.6569 C   0  0  0  0  0  0  0  0  0  0  0  0
   21.4653  -21.0889  -12.8975 C   0  0  2  0  0  0  0  0  0  0  0  0
   22.1401  -22.0836  -13.8147 C   0  0  0  0  0  0  0  0  0  0  0  0
   22.2360  -20.8094  -11.6587 C   0  0  2  0  0  0  0  0  0  0  0  0
   21.5144  -19.8857  -10.7742 N   0  0  0  0  0  0  0  0  0  0  0  0
   23.6152  -20.3621  -11.8256 C   0  0  0  0  0  0  0  0  0  0  0  0
   23.9943  -19.2471  -12.2645 O   0  0  0  0  0  0  0  0  0  0  0  0
   24.6616  -21.2659  -11.4597 N   0  0  0  0  0  0  0  0  0  0  0  0
   26.0732  -20.9047  -11.6458 C   0  0  1  0  0  0  0  0  0  0  0  0
   26.8819  -21.4770  -10.5053 C   0  0  0  0  0  0  0  0  0  0  0  0
   26.7428  -20.7543   -9.2401 C   0  0  0  0  0  0  0  0  0  0  0  0
   26.1332  -19.4896   -9.1695 C   0  0  0  0  0  0  0  0  0  0  0  0
   25.9968  -18.8055   -7.9991 C   0  0  0  0  0  0  0  0  0  0  0  0
   26.4558  -19.3294   -6.8194 C   0  0  0  0  0  0  0  0  0  0  0  0
   27.0667  -20.5850   -6.8562 C   0  0  0  0  0  0  0  0  0  0  0  0
   27.1973  -21.2636   -8.0452 C   0  0  0  0  0  0  0  0  0  0  0  0
   26.5087  -21.5029  -12.9101 C   0  0  0  0  0  0  0  0  0  0  0  0
   26.6197  -22.7448  -12.9923 O   0  0  0  0  0  0  0  0  0  0  0  0
   26.8115  -20.7389  -14.0654 N   0  0  0  0  0  0  0  0  0  0  0  0
   27.5019  -21.3898  -15.1683 C   0  0  0  0  0  0  0  0  0  0  0  0
   27.7424  -20.4643  -16.2902 C   0  0  0  0  0  0  0  0  0  0  0  0
   28.4544  -20.8525  -17.4085 O   0  0  0  0  0  0  0  0  0  0  0  0
   27.2931  -19.2983  -16.2331 O   0  0  0  0  0  0  0  0  0  0  0  0
  2  1  1  0
  3  2  1  0
  3  5  1  0
  3  4  1  1
  5  6  1  6
  5  7  1  0
  7  8  2  0
  9  7  1  0
  9 10  1  0
 10 11  1  1
 11 12  1  0
 12 13  2  0
 13 14  1  0
 15 14  2  0
 16 15  1  0
 17 12  1  0
 17 16  2  0
 18 10  1  0
 18 20  1  0
 19 18  2  0
 21 22  1  0
 21 20  1  0
 22 23  1  0
 24 22  2  0
M  END
$$$$
