IFG.pdb
     RDKit          3D

 24 24  0  0  1  0  0  0  0  0999 V2000
   24.8980  -19.9876  -15.4538 C   0  0  0  0  0  0  0  0  0  0  0  0
   26.1659  -19.7694  -14.6638 C   0  0  0  0  0  0  0  0  0  0  0  0
   26.0838  -20.3132  -13.2790 C   0  0  2  0  0  0  0  0  0  0  0  0
   24.8384  -19.7952  -12.5958 C   0  0  0  0  0  0  0  0  0  0  0  0
   27.3202  -20.1235  -12.4778 C   0  0  2  0  0  0  0  0  0  0  0  0
   28.5086  -20.5845  -13.2069 N   0  0  0  0  0  0  0  0  0  0  0  0
   27.3222  -20.6737  -11.1259 C   0  0  0  0  0  0  0  0  0  0  0  0
   27.5647  -21.8631  -10.8005 O   0  0  0  0  0  0  0  0  0  0  0  0
   27.0205  -19.7900  -10.0425 N   0  0  0  0  0  0  0  0  0  0  0  0
   27.1138  -20.2425   -8.6483 C   0  0  1  0  0  0  0  0  0  0  0  0
   27.5140  -19.0745   -7.7777 C   0  0  0  0  0  0  0  0  0  0  0  0
   27.8248  -19.4289   -6.3919 C   0  0  0  0  0  0  0  0  0  0  0  0
   28.9114  -20.2575   -6.0623 C   0  0  0  0  0  0  0  0  0  0  0  0
   29.2125  -20.5954   -4.7771 C   0  0  0  0  0  0  0  0  0  0  0  0
   28.4562  -20.1346   -3.7319 C   0  0  0  0  0  0  0  0  0  0  0  0
   27.3690  -19.3087   -4.0266 C   0  0  0  0  0  0  0  0  0  0  0  0
   27.0774  -18.9761   -5.3288 C   0  0  0  0  0  0  0  0  0  0  0  0
   25.7838  -20.7171   -8.2586 C   0  0  0  0  0  0  0  0  0  0  0  0
   25.6202  -21.2121   -7.1229 O   0  0  0  0  0  0  0  0  0  0  0  0
   24.6531  -20.6403   -9.1104 N   0  0  0  0  0  0  0  0  0  0  0  0
   23.3884  -21.1825   -8.6378 C   0  0  0  0  0  0  0  0  0  0  0  0
   22.3087  -21.0020   -9.6252 C   0  0  0  0  0  0  0  0  0  0  0  0
   20.9812  -20.9579   -9.2457 O   0  0  0  0  0  0  0  0  0  0  0  0
   22.5963  -20.8853  -10.8369 O   0  0  0  0  0  0  0  0  0  0  0  0
  2  1  1  0
  3  2  1  0
  3  5  1  0
  3  4  1  1
  5  6  1  6
  5  7  1  0
  7  8  2  0
  9  7  1  0
  9 10  1  0
 10 11  1  1
 11 12  1  0
 12 13  2  0
 13 14  1  0
 15 14  2  0
 16 15  1  0
 17 12  1  0
 17 16  2  0
 18 10  1  0
 18 20  1  0
 19 18  2  0
 21 22  1  0
 21 20  1  0
 22 23  1  0
 24 22  2  0
M  END
$$$$
