IFG.pdb
     RDKit          3D

 24 24  0  0  1  0  0  0  0  0999 V2000
   24.9920  -18.9716  -14.8436 C   0  0  0  0  0  0  0  0  0  0  0  0
   24.9525  -20.4679  -14.6470 C   0  0  0  0  0  0  0  0  0  0  0  0
   25.0343  -20.8640  -13.2130 C   0  0  2  0  0  0  0  0  0  0  0  0
   23.8353  -20.3299  -12.4626 C   0  0  0  0  0  0  0  0  0  0  0  0
   26.3307  -20.5371  -12.5657 C   0  0  2  0  0  0  0  0  0  0  0  0
   27.4659  -21.0105  -13.3679 N   0  0  0  0  0  0  0  0  0  0  0  0
   26.4978  -20.9504  -11.1759 C   0  0  0  0  0  0  0  0  0  0  0  0
   26.6021  -22.1285  -10.7510 O   0  0  0  0  0  0  0  0  0  0  0  0
   26.5514  -19.9298  -10.1753 N   0  0  0  0  0  0  0  0  0  0  0  0
   26.7129  -20.2695   -8.7554 C   0  0  1  0  0  0  0  0  0  0  0  0
   27.5266  -19.1903   -8.0808 C   0  0  0  0  0  0  0  0  0  0  0  0
   27.8850  -19.4795   -6.6913 C   0  0  0  0  0  0  0  0  0  0  0  0
   27.6648  -18.5519   -5.6583 C   0  0  0  0  0  0  0  0  0  0  0  0
   27.9932  -18.8076   -4.3609 C   0  0  0  0  0  0  0  0  0  0  0  0
   28.5622  -20.0004   -4.0002 C   0  0  0  0  0  0  0  0  0  0  0  0
   28.7940  -20.9436   -5.0041 C   0  0  0  0  0  0  0  0  0  0  0  0
   28.4572  -20.6713   -6.3094 C   0  0  0  0  0  0  0  0  0  0  0  0
   25.3718  -20.3180   -8.1680 C   0  0  0  0  0  0  0  0  0  0  0  0
   24.5192  -19.4754   -8.5209 O   0  0  0  0  0  0  0  0  0  0  0  0
   24.9801  -21.2864   -7.2094 N   0  0  0  0  0  0  0  0  0  0  0  0
   23.6698  -21.1608   -6.5895 C   0  0  0  0  0  0  0  0  0  0  0  0
   22.8712  -22.3912   -6.7361 C   0  0  0  0  0  0  0  0  0  0  0  0
   21.6847  -22.4036   -7.4434 O   0  0  0  0  0  0  0  0  0  0  0  0
   23.2733  -23.4521   -6.2094 O   0  0  0  0  0  0  0  0  0  0  0  0
  2  1  1  0
  3  2  1  0
  3  5  1  0
  3  4  1  1
  5  6  1  6
  5  7  1  0
  7  8  2  0
  9  7  1  0
  9 10  1  0
 10 11  1  1
 11 12  1  0
 12 13  2  0
 13 14  1  0
 15 14  2  0
 16 15  1  0
 17 12  1  0
 17 16  2  0
 18 10  1  0
 18 20  1  0
 19 18  2  0
 21 22  1  0
 21 20  1  0
 22 23  1  0
 24 22  2  0
M  END
$$$$
