NQI.pdb
     RDKit          3D

 26 25  0  0  1  0  0  0  0  0999 V2000
   15.9892  -14.2351  -14.3226 N   0  0  0  0  0  0  0  0  0  0  0  0
   16.1064  -13.4056  -15.4665 C   0  0  0  0  0  0  0  0  0  0  0  0
   15.3666  -13.6109  -16.4468 O   0  0  0  0  0  0  0  0  0  0  0  0
   17.0924  -12.3293  -15.4685 C   0  0  0  0  0  0  0  0  0  0  0  0
   17.7562  -12.0628  -16.7758 C   0  0  2  0  0  0  0  0  0  0  0  0
   18.4364  -13.2125  -17.2801 N   0  0  0  0  0  0  0  0  0  0  0  0
   18.5789  -10.8302  -16.7904 C   0  0  0  0  0  0  0  0  0  0  0  0
   19.7500  -10.8695  -16.3577 O   0  0  0  0  0  0  0  0  0  0  0  0
   17.4206   -5.1678  -19.8383 N   0  0  0  0  0  0  0  0  0  0  0  0
   18.6864   -4.9995  -19.1723 C   0  0  0  0  0  0  0  0  0  0  0  0
   19.2530   -3.9103  -19.3560 O   0  0  0  0  0  0  0  0  0  0  0  0
   19.2392   -6.0689  -18.3434 C   0  0  0  0  0  0  0  0  0  0  0  0
   18.3439   -7.2650  -18.2421 C   0  0  0  0  0  0  0  0  0  0  0  0
   18.7848   -8.3484  -17.3434 C   0  0  2  0  0  0  0  0  0  0  0  0
   18.0952   -9.5659  -17.2843 N   0  0  0  0  0  0  0  0  0  0  0  0
   19.3163   -7.8095  -16.0465 C   0  0  0  0  0  0  0  0  0  0  0  0
   18.4691   -7.7315  -15.1184 O   0  0  0  0  0  0  0  0  0  0  0  0
   23.4489   -9.8627  -13.7621 C   0  0  0  0  0  0  0  0  0  0  0  0
   22.1199   -9.1672  -14.0109 C   0  0  0  0  0  0  0  0  0  0  0  0
   22.3380   -7.6744  -14.0747 C   0  0  2  0  0  0  0  0  0  0  0  0
   22.8740   -7.1404  -12.7817 C   0  0  0  0  0  0  0  0  0  0  0  0
   21.1280   -6.9077  -14.5459 C   0  0  2  0  0  0  0  0  0  0  0  0
   20.6260   -7.4070  -15.8296 N   0  0  0  0  0  0  0  0  0  0  0  0
   21.5067   -5.4798  -14.6485 C   0  0  0  0  0  0  0  0  0  0  0  0
   21.5542   -4.7254  -13.6499 O   0  0  0  0  0  0  0  0  0  0  0  0
   21.8338   -4.8956  -15.8774 O   0  0  0  0  0  0  0  0  0  0  0  0
  2  1  1  0
  3  2  2  0
  4  2  1  0
  5  4  1  0
  5  6  1  1
  7  8  2  0
  7  5  1  0
 10 12  1  0
 10  9  1  0
 11 10  2  0
 13 12  1  0
 14 13  1  1
 14 15  1  0
 15  7  1  0
 16 14  1  0
 17 16  2  0
 18 19  1  0
 19 20  1  0
 20 21  1  1
 22 20  1  0
 22 23  1  6
 23 16  1  0
 24 22  1  0
 25 24  2  0
 26 24  1  0
M  END
$$$$
