NQI.pdb
     RDKit          3D

 26 25  0  0  1  0  0  0  0  0999 V2000
   14.0071  -13.3673  -15.4575 N   0  0  0  0  0  0  0  0  0  0  0  0
   15.1553  -13.2924  -14.6290 C   0  0  0  0  0  0  0  0  0  0  0  0
   15.2642  -14.0740  -13.6658 O   0  0  0  0  0  0  0  0  0  0  0  0
   16.1840  -12.2998  -14.9246 C   0  0  0  0  0  0  0  0  0  0  0  0
   15.8721  -11.3563  -16.0350 C   0  0  2  0  0  0  0  0  0  0  0  0
   15.6791  -12.0310  -17.2786 N   0  0  0  0  0  0  0  0  0  0  0  0
   16.7994  -10.2034  -16.1208 C   0  0  0  0  0  0  0  0  0  0  0  0
   17.8546  -10.3131  -16.7801 O   0  0  0  0  0  0  0  0  0  0  0  0
   14.7044   -4.7046  -14.7892 N   0  0  0  0  0  0  0  0  0  0  0  0
   14.5946   -5.3184  -16.0874 C   0  0  0  0  0  0  0  0  0  0  0  0
   13.6106   -4.9791  -16.7640 O   0  0  0  0  0  0  0  0  0  0  0  0
   15.5968   -6.2796  -16.5433 C   0  0  0  0  0  0  0  0  0  0  0  0
   16.7384   -6.4455  -15.5885 C   0  0  0  0  0  0  0  0  0  0  0  0
   17.3435   -7.7881  -15.5061 C   0  0  2  0  0  0  0  0  0  0  0  0
   16.5480   -8.9403  -15.4745 N   0  0  0  0  0  0  0  0  0  0  0  0
   18.5697   -7.7900  -14.6393 C   0  0  0  0  0  0  0  0  0  0  0  0
   18.3759   -8.1492  -13.4483 O   0  0  0  0  0  0  0  0  0  0  0  0
   23.8148  -10.1291  -13.9272 C   0  0  0  0  0  0  0  0  0  0  0  0
   23.1105   -8.8119  -13.6428 C   0  0  0  0  0  0  0  0  0  0  0  0
   21.8849   -8.6982  -14.5173 C   0  0  2  0  0  0  0  0  0  0  0  0
   22.2359   -8.7833  -15.9712 C   0  0  0  0  0  0  0  0  0  0  0  0
   21.0343   -7.4917  -14.2097 C   0  0  2  0  0  0  0  0  0  0  0  0
   19.8414   -7.4286  -15.0596 N   0  0  0  0  0  0  0  0  0  0  0  0
   21.8740   -6.2856  -14.3914 C   0  0  0  0  0  0  0  0  0  0  0  0
   21.7890   -5.5562  -15.4060 O   0  0  0  0  0  0  0  0  0  0  0  0
   22.8135   -5.8959  -13.4302 O   0  0  0  0  0  0  0  0  0  0  0  0
  2  1  1  0
  3  2  2  0
  4  2  1  0
  5  4  1  0
  5  6  1  6
  7  8  2  0
  7  5  1  0
 10 12  1  0
 10  9  1  0
 11 10  2  0
 13 12  1  0
 14 13  1  1
 14 15  1  0
 15  7  1  0
 16 14  1  0
 17 16  2  0
 18 19  1  0
 19 20  1  0
 20 21  1  6
 22 20  1  0
 22 23  1  6
 23 16  1  0
 24 22  1  0
 25 24  2  0
 26 24  1  0
M  END
$$$$
