NQI.pdb
     RDKit          3D

 26 25  0  0  1  0  0  0  0  0999 V2000
   27.7189  -21.7476  -15.3134 N   0  0  0  0  0  0  0  0  0  0  0  0
   27.1157  -20.9055  -16.2816 C   0  0  0  0  0  0  0  0  0  0  0  0
   27.8184  -20.4126  -17.1836 O   0  0  0  0  0  0  0  0  0  0  0  0
   25.6836  -20.6357  -16.1984 C   0  0  0  0  0  0  0  0  0  0  0  0
   24.9563  -21.3358  -15.1022 C   0  0  2  0  0  0  0  0  0  0  0  0
   25.0651  -22.7560  -15.2030 N   0  0  0  0  0  0  0  0  0  0  0  0
   23.5677  -20.8577  -14.9028 C   0  0  0  0  0  0  0  0  0  0  0  0
   22.9401  -20.3769  -15.8697 O   0  0  0  0  0  0  0  0  0  0  0  0
   19.6685  -22.3108   -9.8881 N   0  0  0  0  0  0  0  0  0  0  0  0
   18.8236  -21.6707  -10.8631 C   0  0  0  0  0  0  0  0  0  0  0  0
   17.6225  -21.5817  -10.5620 O   0  0  0  0  0  0  0  0  0  0  0  0
   19.3813  -21.1733  -12.1192 C   0  0  0  0  0  0  0  0  0  0  0  0
   20.8681  -21.3265  -12.2109 C   0  0  0  0  0  0  0  0  0  0  0  0
   21.5265  -20.7130  -13.3795 C   0  0  2  0  0  0  0  0  0  0  0  0
   22.8887  -20.9171  -13.6333 N   0  0  0  0  0  0  0  0  0  0  0  0
   20.9849  -19.3414  -13.6629 C   0  0  0  0  0  0  0  0  0  0  0  0
   21.2391  -18.4790  -12.7816 O   0  0  0  0  0  0  0  0  0  0  0  0
   21.6109  -16.8693  -18.3034 C   0  0  0  0  0  0  0  0  0  0  0  0
   21.4616  -17.1843  -16.8234 C   0  0  0  0  0  0  0  0  0  0  0  0
   19.9967  -17.1970  -16.4575 C   0  0  2  0  0  0  0  0  0  0  0  0
   19.3411  -15.8852  -16.7637 C   0  0  0  0  0  0  0  0  0  0  0  0
   19.7324  -17.6455  -15.0423 C   0  0  2  0  0  0  0  0  0  0  0  0
   20.2498  -18.9932  -14.7866 N   0  0  0  0  0  0  0  0  0  0  0  0
   18.2703  -17.5913  -14.8142 C   0  0  0  0  0  0  0  0  0  0  0  0
   17.4810  -18.4190  -15.3248 O   0  0  0  0  0  0  0  0  0  0  0  0
   17.6908  -16.6039  -14.0094 O   0  0  0  0  0  0  0  0  0  0  0  0
  2  1  1  0
  3  2  2  0
  4  2  1  0
  5  4  1  0
  5  6  1  6
  7  8  2  0
  7  5  1  0
 10 12  1  0
 10  9  1  0
 11 10  2  0
 13 12  1  0
 14 13  1  1
 14 15  1  0
 15  7  1  0
 16 14  1  0
 17 16  2  0
 18 19  1  0
 19 20  1  0
 20 21  1  1
 22 20  1  0
 22 23  1  6
 23 16  1  0
 24 22  1  0
 25 24  2  0
 26 24  1  0
M  END
$$$$
