NQI.pdb
     RDKit          3D

 26 25  0  0  1  0  0  0  0  0999 V2000
   29.7661  -18.3928  -18.5714 N   0  0  0  0  0  0  0  0  0  0  0  0
   29.2432  -17.1328  -18.1850 C   0  0  0  0  0  0  0  0  0  0  0  0
   29.6307  -16.1057  -18.7727 O   0  0  0  0  0  0  0  0  0  0  0  0
   28.2619  -17.0688  -17.1063 C   0  0  0  0  0  0  0  0  0  0  0  0
   27.9000  -18.3732  -16.4831 C   0  0  2  0  0  0  0  0  0  0  0  0
   27.3995  -19.3080  -17.4393 N   0  0  0  0  0  0  0  0  0  0  0  0
   27.0517  -18.2457  -15.2746 C   0  0  0  0  0  0  0  0  0  0  0  0
   26.3069  -17.2506  -15.1506 O   0  0  0  0  0  0  0  0  0  0  0  0
   22.3983  -21.1064  -15.3214 N   0  0  0  0  0  0  0  0  0  0  0  0
   22.3812  -20.9491  -13.8899 C   0  0  0  0  0  0  0  0  0  0  0  0
   21.3220  -21.2643  -13.3243 O   0  0  0  0  0  0  0  0  0  0  0  0
   23.5559  -20.4429  -13.1827 C   0  0  0  0  0  0  0  0  0  0  0  0
   24.6882  -20.0823  -14.0939 C   0  0  0  0  0  0  0  0  0  0  0  0
   25.9412  -19.6428  -13.4518 C   0  0  2  0  0  0  0  0  0  0  0  0
   27.0375  -19.2224  -14.2153 N   0  0  0  0  0  0  0  0  0  0  0  0
   26.2443  -20.4482  -12.2212 C   0  0  0  0  0  0  0  0  0  0  0  0
   26.6269  -21.6273  -12.4408 O   0  0  0  0  0  0  0  0  0  0  0  0
   28.0618  -19.8467   -6.3823 C   0  0  0  0  0  0  0  0  0  0  0  0
   27.5719  -20.7859   -7.4731 C   0  0  0  0  0  0  0  0  0  0  0  0
   27.1804  -19.9821   -8.6899 C   0  0  2  0  0  0  0  0  0  0  0  0
   26.4379  -18.7370   -8.3120 C   0  0  0  0  0  0  0  0  0  0  0  0
   26.4448  -20.7857   -9.7325 C   0  0  2  0  0  0  0  0  0  0  0  0
   26.1248  -19.9858  -10.9187 N   0  0  0  0  0  0  0  0  0  0  0  0
   25.2119  -21.3185   -9.1090 C   0  0  0  0  0  0  0  0  0  0  0  0
   24.0839  -20.8160   -9.3180 O   0  0  0  0  0  0  0  0  0  0  0  0
   25.2447  -22.4205   -8.2470 O   0  0  0  0  0  0  0  0  0  0  0  0
  2  1  1  0
  3  2  2  0
  4  2  1  0
  5  4  1  0
  5  6  1  6
  7  8  2  0
  7  5  1  0
 10 12  1  0
 10  9  1  0
 11 10  2  0
 13 12  1  0
 14 13  1  6
 14 15  1  0
 15  7  1  0
 16 14  1  0
 17 16  2  0
 18 19  1  0
 19 20  1  0
 20 21  1  1
 22 20  1  0
 22 23  1  6
 23 16  1  0
 24 22  1  0
 25 24  2  0
 26 24  1  0
M  END
$$$$
