NQI.pdb
     RDKit          3D

 26 25  0  0  1  0  0  0  0  0999 V2000
   18.3092  -24.9684  -11.1977 N   0  0  0  0  0  0  0  0  0  0  0  0
   18.5024  -26.2226  -10.5653 C   0  0  0  0  0  0  0  0  0  0  0  0
   18.6237  -27.2458  -11.2645 O   0  0  0  0  0  0  0  0  0  0  0  0
   18.5548  -26.2854   -9.1079 C   0  0  0  0  0  0  0  0  0  0  0  0
   18.4611  -24.9771   -8.4005 C   0  0  2  0  0  0  0  0  0  0  0  0
   19.4782  -24.0650   -8.8156 N   0  0  0  0  0  0  0  0  0  0  0  0
   18.3350  -25.0988   -6.9289 C   0  0  0  0  0  0  0  0  0  0  0  0
   19.3666  -25.1247   -6.2251 O   0  0  0  0  0  0  0  0  0  0  0  0
   13.6701  -23.0197   -3.0844 N   0  0  0  0  0  0  0  0  0  0  0  0
   14.5430  -23.7613   -2.2114 C   0  0  0  0  0  0  0  0  0  0  0  0
   14.3316  -23.6279   -0.9954 O   0  0  0  0  0  0  0  0  0  0  0  0
   15.6031  -24.6048   -2.7601 C   0  0  0  0  0  0  0  0  0  0  0  0
   15.7165  -24.5217   -4.2509 C   0  0  0  0  0  0  0  0  0  0  0  0
   16.8339  -25.2572   -4.8724 C   0  0  2  0  0  0  0  0  0  0  0  0
   17.0663  -25.1909   -6.2519 N   0  0  0  0  0  0  0  0  0  0  0  0
   17.0542  -26.5886   -4.2136 C   0  0  0  0  0  0  0  0  0  0  0  0
   16.3895  -27.5387   -4.7041 O   0  0  0  0  0  0  0  0  0  0  0  0
   21.2114  -29.5013   -0.6431 C   0  0  0  0  0  0  0  0  0  0  0  0
   19.8534  -29.5554   -1.3250 C   0  0  0  0  0  0  0  0  0  0  0  0
   19.5289  -28.2005   -1.9070 C   0  0  2  0  0  0  0  0  0  0  0  0
   19.7030  -27.1101   -0.8945 C   0  0  0  0  0  0  0  0  0  0  0  0
   18.1801  -28.1397   -2.5784 C   0  0  2  0  0  0  0  0  0  0  0  0
   17.9052  -26.8144   -3.1416 N   0  0  0  0  0  0  0  0  0  0  0  0
   17.1558  -28.5074   -1.5743 C   0  0  0  0  0  0  0  0  0  0  0  0
   16.4197  -27.6559   -1.0248 O   0  0  0  0  0  0  0  0  0  0  0  0
   16.9562  -29.8366   -1.1847 O   0  0  0  0  0  0  0  0  0  0  0  0
  2  1  1  0
  3  2  2  0
  4  2  1  0
  5  4  1  0
  5  6  1  1
  7  8  2  0
  7  5  1  0
 10 12  1  0
 10  9  1  0
 11 10  2  0
 13 12  1  0
 14 13  1  6
 14 15  1  0
 15  7  1  0
 16 14  1  0
 17 16  2  0
 18 19  1  0
 19 20  1  0
 20 21  1  1
 22 20  1  0
 22 23  1  1
 23 16  1  0
 24 22  1  0
 25 24  2  0
 26 24  1  0
M  END
$$$$
