NQI.pdb
     RDKit          3D

 26 25  0  0  1  0  0  0  0  0999 V2000
   25.7809  -17.3407  -20.3677 N   0  0  0  0  0  0  0  0  0  0  0  0
   26.4080  -17.5471  -19.1131 C   0  0  0  0  0  0  0  0  0  0  0  0
   27.4926  -16.9843  -18.8736 O   0  0  0  0  0  0  0  0  0  0  0  0
   25.7671  -18.4155  -18.1302 C   0  0  0  0  0  0  0  0  0  0  0  0
   26.6766  -19.0394  -17.1280 C   0  0  2  0  0  0  0  0  0  0  0  0
   27.6564  -19.8801  -17.7378 N   0  0  0  0  0  0  0  0  0  0  0  0
   25.9700  -19.6760  -15.9913 C   0  0  0  0  0  0  0  0  0  0  0  0
   24.9287  -20.3314  -16.2064 O   0  0  0  0  0  0  0  0  0  0  0  0
   26.6104  -22.2105  -11.0595 N   0  0  0  0  0  0  0  0  0  0  0  0
   25.6044  -21.3589  -10.4793 C   0  0  0  0  0  0  0  0  0  0  0  0
   24.9177  -21.8693   -9.5797 O   0  0  0  0  0  0  0  0  0  0  0  0
   25.4298  -19.9861  -10.9496 C   0  0  0  0  0  0  0  0  0  0  0  0
   26.2906  -19.6477  -12.1273 C   0  0  0  0  0  0  0  0  0  0  0  0
   25.7104  -19.8859  -13.4623 C   0  0  2  0  0  0  0  0  0  0  0  0
   26.4246  -19.5795  -14.6275 N   0  0  0  0  0  0  0  0  0  0  0  0
   24.2348  -19.6079  -13.4819 C   0  0  0  0  0  0  0  0  0  0  0  0
   23.9253  -18.3879  -13.4575 O   0  0  0  0  0  0  0  0  0  0  0  0
   18.9385  -20.7352  -15.9311 C   0  0  0  0  0  0  0  0  0  0  0  0
   19.5762  -20.4314  -14.5846 C   0  0  0  0  0  0  0  0  0  0  0  0
   21.0623  -20.6870  -14.6633 C   0  0  2  0  0  0  0  0  0  0  0  0
   21.3577  -22.0986  -15.0688 C   0  0  0  0  0  0  0  0  0  0  0  0
   21.8098  -20.2879  -13.4159 C   0  0  2  0  0  0  0  0  0  0  0  0
   23.2433  -20.5775  -13.5174 N   0  0  0  0  0  0  0  0  0  0  0  0
   21.2064  -21.0116  -12.2736 C   0  0  0  0  0  0  0  0  0  0  0  0
   21.7082  -22.0582  -11.8027 O   0  0  0  0  0  0  0  0  0  0  0  0
   20.0347  -20.5592  -11.6566 O   0  0  0  0  0  0  0  0  0  0  0  0
  2  1  1  0
  3  2  2  0
  4  2  1  0
  5  4  1  0
  5  6  1  6
  7  8  2  0
  7  5  1  0
 10 12  1  0
 10  9  1  0
 11 10  2  0
 13 12  1  0
 14 13  1  1
 14 15  1  0
 15  7  1  0
 16 14  1  0
 17 16  2  0
 18 19  1  0
 19 20  1  0
 20 21  1  1
 22 20  1  0
 22 23  1  6
 23 16  1  0
 24 22  1  0
 25 24  2  0
 26 24  1  0
M  END
$$$$
