NQI.pdb
     RDKit          3D

 26 25  0  0  1  0  0  0  0  0999 V2000
   30.7614  -34.1637   -5.8099 N   0  0  0  0  0  0  0  0  0  0  0  0
   30.4118  -33.9751   -4.4489 C   0  0  0  0  0  0  0  0  0  0  0  0
   29.3112  -33.4655   -4.1671 O   0  0  0  0  0  0  0  0  0  0  0  0
   31.3509  -34.3832   -3.4086 C   0  0  0  0  0  0  0  0  0  0  0  0
   32.6518  -34.9283   -3.8894 C   0  0  2  0  0  0  0  0  0  0  0  0
   32.4876  -36.1271   -4.6476 N   0  0  0  0  0  0  0  0  0  0  0  0
   33.6871  -35.0286   -2.8337 C   0  0  0  0  0  0  0  0  0  0  0  0
   33.7502  -36.0606   -2.1330 O   0  0  0  0  0  0  0  0  0  0  0  0
   39.9459  -34.0067    0.1077 N   0  0  0  0  0  0  0  0  0  0  0  0
   38.9321  -33.6568   -0.8535 C   0  0  0  0  0  0  0  0  0  0  0  0
   39.2057  -33.8995   -2.0399 O   0  0  0  0  0  0  0  0  0  0  0  0
   37.6739  -33.0516   -0.4213 C   0  0  0  0  0  0  0  0  0  0  0  0
   36.6625  -32.9355   -1.5196 C   0  0  0  0  0  0  0  0  0  0  0  0
   35.5528  -33.9071   -1.5037 C   0  0  2  0  0  0  0  0  0  0  0  0
   34.6420  -33.9835   -2.5649 N   0  0  0  0  0  0  0  0  0  0  0  0
   34.9956  -34.0879   -0.1211 C   0  0  0  0  0  0  0  0  0  0  0  0
   33.9474  -33.4326    0.1175 O   0  0  0  0  0  0  0  0  0  0  0  0
   34.9743  -38.8553    2.5451 C   0  0  0  0  0  0  0  0  0  0  0  0
   34.6277  -37.5048    1.9385 C   0  0  0  0  0  0  0  0  0  0  0  0
   35.2271  -36.4059    2.7829 C   0  0  2  0  0  0  0  0  0  0  0  0
   34.7849  -36.5050    4.2108 C   0  0  0  0  0  0  0  0  0  0  0  0
   35.0108  -35.0247    2.2177 C   0  0  2  0  0  0  0  0  0  0  0  0
   35.5513  -34.8947    0.8611 N   0  0  0  0  0  0  0  0  0  0  0  0
   35.6506  -34.0535    3.1342 C   0  0  0  0  0  0  0  0  0  0  0  0
   36.7182  -33.4646    2.8478 O   0  0  0  0  0  0  0  0  0  0  0  0
   35.0899  -33.7413    4.3778 O   0  0  0  0  0  0  0  0  0  0  0  0
  2  1  1  0
  3  2  2  0
  4  2  1  0
  5  4  1  0
  5  6  1  1
  7  8  2  0
  7  5  1  0
 10 12  1  0
 10  9  1  0
 11 10  2  0
 13 12  1  0
 14 13  1  1
 14 15  1  0
 15  7  1  0
 16 14  1  0
 17 16  2  0
 18 19  1  0
 19 20  1  0
 20 21  1  1
 22 20  1  0
 22 23  1  6
 23 16  1  0
 24 22  1  0
 25 24  2  0
 26 24  1  0
M  END
$$$$
