NQI.pdb
     RDKit          3D

 26 25  0  0  1  0  0  0  0  0999 V2000
   17.9928  -15.4817  -19.7542 N   0  0  0  0  0  0  0  0  0  0  0  0
   17.5452  -15.2089  -18.4369 C   0  0  0  0  0  0  0  0  0  0  0  0
   16.6003  -15.8684  -17.9651 O   0  0  0  0  0  0  0  0  0  0  0  0
   18.2032  -14.1603  -17.6634 C   0  0  0  0  0  0  0  0  0  0  0  0
   19.3950  -14.5876  -16.8775 C   0  0  2  0  0  0  0  0  0  0  0  0
   19.1014  -15.6749  -15.9998 N   0  0  0  0  0  0  0  0  0  0  0  0
   20.1128  -13.4694  -16.2209 C   0  0  0  0  0  0  0  0  0  0  0  0
   19.5688  -12.8640  -15.2734 O   0  0  0  0  0  0  0  0  0  0  0  0
   26.4193  -12.0240  -16.4289 N   0  0  0  0  0  0  0  0  0  0  0  0
   25.7716  -13.2033  -15.9153 C   0  0  0  0  0  0  0  0  0  0  0  0
   26.5226  -14.1462  -15.6182 O   0  0  0  0  0  0  0  0  0  0  0  0
   24.3179  -13.2510  -15.7711 C   0  0  0  0  0  0  0  0  0  0  0  0
   23.6417  -11.9675  -16.1420 C   0  0  0  0  0  0  0  0  0  0  0  0
   22.1672  -11.9614  -16.1078 C   0  0  2  0  0  0  0  0  0  0  0  0
   21.4264  -13.0333  -16.6214 N   0  0  0  0  0  0  0  0  0  0  0  0
   21.6140  -10.5850  -16.3411 C   0  0  0  0  0  0  0  0  0  0  0  0
   21.6005  -10.2166  -17.5449 O   0  0  0  0  0  0  0  0  0  0  0  0
   16.8999   -9.0802  -16.1535 C   0  0  0  0  0  0  0  0  0  0  0  0
   18.3860   -9.1153  -16.4732 C   0  0  0  0  0  0  0  0  0  0  0  0
   19.1402   -8.3053  -15.4460 C   0  0  2  0  0  0  0  0  0  0  0  0
   18.6538   -6.8893  -15.3957 C   0  0  0  0  0  0  0  0  0  0  0  0
   20.6385   -8.3844  -15.5972 C   0  0  2  0  0  0  0  0  0  0  0  0
   21.1459   -9.7371  -15.3480 N   0  0  0  0  0  0  0  0  0  0  0  0
   21.2420   -7.4143  -14.6551 C   0  0  0  0  0  0  0  0  0  0  0  0
   21.6672   -7.7518  -13.5264 O   0  0  0  0  0  0  0  0  0  0  0  0
   21.3690   -6.0593  -14.9808 O   0  0  0  0  0  0  0  0  0  0  0  0
  2  1  1  0
  3  2  2  0
  4  2  1  0
  5  4  1  0
  5  6  1  1
  7  8  2  0
  7  5  1  0
 10 12  1  0
 10  9  1  0
 11 10  2  0
 13 12  1  0
 14 13  1  6
 14 15  1  0
 15  7  1  0
 16 14  1  0
 17 16  2  0
 18 19  1  0
 19 20  1  0
 20 21  1  6
 22 20  1  0
 22 23  1  1
 23 16  1  0
 24 22  1  0
 25 24  2  0
 26 24  1  0
M  END
$$$$
