NQI.pdb
     RDKit          3D

 26 25  0  0  1  0  0  0  0  0999 V2000
   25.4080  -19.5622  -20.9226 N   0  0  0  0  0  0  0  0  0  0  0  0
   24.2100  -19.2784  -20.2194 C   0  0  0  0  0  0  0  0  0  0  0  0
   23.1261  -19.2896  -20.8321 O   0  0  0  0  0  0  0  0  0  0  0  0
   24.2751  -18.9795  -18.7921 C   0  0  0  0  0  0  0  0  0  0  0  0
   22.9658  -18.7455  -18.1200 C   0  0  2  0  0  0  0  0  0  0  0  0
   22.2778  -17.6153  -18.6567 N   0  0  0  0  0  0  0  0  0  0  0  0
   23.0425  -18.7483  -16.6399 C   0  0  0  0  0  0  0  0  0  0  0  0
   23.9934  -18.1689  -16.0742 O   0  0  0  0  0  0  0  0  0  0  0  0
   18.3935  -19.6234  -12.2218 N   0  0  0  0  0  0  0  0  0  0  0  0
   18.6050  -18.5083  -13.1083 C   0  0  0  0  0  0  0  0  0  0  0  0
   17.7071  -17.6511  -13.1222 O   0  0  0  0  0  0  0  0  0  0  0  0
   19.8123  -18.4279  -13.9283 C   0  0  0  0  0  0  0  0  0  0  0  0
   20.7964  -19.5206  -13.6452 C   0  0  0  0  0  0  0  0  0  0  0  0
   22.0607  -19.4865  -14.4041 C   0  0  2  0  0  0  0  0  0  0  0  0
   22.0643  -19.3937  -15.8016 N   0  0  0  0  0  0  0  0  0  0  0  0
   23.1026  -20.3721  -13.7834 C   0  0  0  0  0  0  0  0  0  0  0  0
   23.0505  -21.5793  -14.1369 O   0  0  0  0  0  0  0  0  0  0  0  0
   28.3420  -19.9589  -13.7684 C   0  0  0  0  0  0  0  0  0  0  0  0
   26.8766  -20.3630  -13.7354 C   0  0  0  0  0  0  0  0  0  0  0  0
   26.4123  -20.4535  -12.3015 C   0  0  2  0  0  0  0  0  0  0  0  0
   27.3215  -21.3167  -11.4816 C   0  0  0  0  0  0  0  0  0  0  0  0
   24.9667  -20.8588  -12.1600 C   0  0  2  0  0  0  0  0  0  0  0  0
   24.0681  -19.9517  -12.8804 N   0  0  0  0  0  0  0  0  0  0  0  0
   24.6414  -20.8843  -10.7157 C   0  0  0  0  0  0  0  0  0  0  0  0
   24.0054  -19.9621  -10.1554 O   0  0  0  0  0  0  0  0  0  0  0  0
   25.0313  -21.9494   -9.8959 O   0  0  0  0  0  0  0  0  0  0  0  0
  2  1  1  0
  3  2  2  0
  4  2  1  0
  5  4  1  0
  5  6  1  6
  7  8  2  0
  7  5  1  0
 10 12  1  0
 10  9  1  0
 11 10  2  0
 13 12  1  0
 14 13  1  6
 14 15  1  0
 15  7  1  0
 16 14  1  0
 17 16  2  0
 18 19  1  0
 19 20  1  0
 20 21  1  1
 22 20  1  0
 22 23  1  6
 23 16  1  0
 24 22  1  0
 25 24  2  0
 26 24  1  0
M  END
$$$$
