NQI.pdb
     RDKit          3D

 26 25  0  0  1  0  0  0  0  0999 V2000
   17.5046  -23.0544  -10.6364 N   0  0  0  0  0  0  0  0  0  0  0  0
   17.7585  -22.4899  -11.9119 C   0  0  0  0  0  0  0  0  0  0  0  0
   16.9972  -22.7583  -12.8600 O   0  0  0  0  0  0  0  0  0  0  0  0
   18.9074  -21.6062  -12.0844 C   0  0  0  0  0  0  0  0  0  0  0  0
   19.6691  -21.7761  -13.3539 C   0  0  2  0  0  0  0  0  0  0  0  0
   20.0167  -23.1396  -13.5966 N   0  0  0  0  0  0  0  0  0  0  0  0
   20.8057  -20.8365  -13.5017 C   0  0  0  0  0  0  0  0  0  0  0  0
   20.6168  -19.6139  -13.3294 O   0  0  0  0  0  0  0  0  0  0  0  0
   26.8844  -21.9523  -12.1596 N   0  0  0  0  0  0  0  0  0  0  0  0
   25.7505  -21.7514  -11.2949 C   0  0  0  0  0  0  0  0  0  0  0  0
   25.9236  -22.0420  -10.1004 O   0  0  0  0  0  0  0  0  0  0  0  0
   24.4895  -21.2394  -11.8279 C   0  0  0  0  0  0  0  0  0  0  0  0
   24.5555  -20.8973  -13.2843 C   0  0  0  0  0  0  0  0  0  0  0  0
   23.2953  -20.4737  -13.9231 C   0  0  2  0  0  0  0  0  0  0  0  0
   22.1404  -21.2615  -13.8395 N   0  0  0  0  0  0  0  0  0  0  0  0
   23.5445  -19.7770  -15.2299 C   0  0  0  0  0  0  0  0  0  0  0  0
   23.4762  -20.5169  -16.2461 O   0  0  0  0  0  0  0  0  0  0  0  0
   22.8854  -14.6328  -18.1031 C   0  0  0  0  0  0  0  0  0  0  0  0
   24.0674  -15.5649  -17.8888 C   0  0  0  0  0  0  0  0  0  0  0  0
   23.9159  -16.2721  -16.5634 C   0  0  2  0  0  0  0  0  0  0  0  0
   24.8078  -15.6775  -15.5168 C   0  0  0  0  0  0  0  0  0  0  0  0
   24.0724  -17.7690  -16.6570 C   0  0  2  0  0  0  0  0  0  0  0  0
   23.8377  -18.4282  -15.3688 N   0  0  0  0  0  0  0  0  0  0  0  0
   25.4389  -18.0528  -17.1519 C   0  0  0  0  0  0  0  0  0  0  0  0
   25.7523  -17.9364  -18.3590 O   0  0  0  0  0  0  0  0  0  0  0  0
   26.4587  -18.4690  -16.2886 O   0  0  0  0  0  0  0  0  0  0  0  0
  2  1  1  0
  3  2  2  0
  4  2  1  0
  5  4  1  0
  5  6  1  1
  7  8  2  0
  7  5  1  0
 10 12  1  0
 10  9  1  0
 11 10  2  0
 13 12  1  0
 14 13  1  6
 14 15  1  0
 15  7  1  0
 16 14  1  0
 17 16  2  0
 18 19  1  0
 19 20  1  0
 20 21  1  1
 22 20  1  0
 22 23  1  1
 23 16  1  0
 24 22  1  0
 25 24  2  0
 26 24  1  0
M  END
$$$$
