NQI.pdb
     RDKit          3D

 26 25  0  0  1  0  0  0  0  0999 V2000
   14.7056  -10.3549  -17.9076 N   0  0  0  0  0  0  0  0  0  0  0  0
   16.0858  -10.0607  -17.7699 C   0  0  0  0  0  0  0  0  0  0  0  0
   16.9182  -10.7262  -18.4136 O   0  0  0  0  0  0  0  0  0  0  0  0
   16.4991   -8.9834  -16.8758 C   0  0  0  0  0  0  0  0  0  0  0  0
   17.7732   -9.2094  -16.1367 C   0  0  2  0  0  0  0  0  0  0  0  0
   17.6995  -10.3393  -15.2668 N   0  0  0  0  0  0  0  0  0  0  0  0
   18.3137   -7.9919  -15.4870 C   0  0  0  0  0  0  0  0  0  0  0  0
   17.7348   -7.5239  -14.4840 O   0  0  0  0  0  0  0  0  0  0  0  0
   23.0332   -8.3241  -16.0000 N   0  0  0  0  0  0  0  0  0  0  0  0
   22.6550   -8.4315  -14.6145 C   0  0  0  0  0  0  0  0  0  0  0  0
   23.0579   -9.4450  -14.0214 O   0  0  0  0  0  0  0  0  0  0  0  0
   21.8432   -7.3936  -13.9820 C   0  0  0  0  0  0  0  0  0  0  0  0
   21.5074   -6.2598  -14.9008 C   0  0  0  0  0  0  0  0  0  0  0  0
   20.1160   -6.1895  -15.3852 C   0  0  2  0  0  0  0  0  0  0  0  0
   19.4905   -7.3052  -15.9557 N   0  0  0  0  0  0  0  0  0  0  0  0
   19.8123   -4.8552  -16.0037 C   0  0  0  0  0  0  0  0  0  0  0  0
   20.0482   -4.7775  -17.2379 O   0  0  0  0  0  0  0  0  0  0  0  0
   15.7951   -1.3647  -17.8213 C   0  0  0  0  0  0  0  0  0  0  0  0
   17.1253   -1.1851  -17.1071 C   0  0  0  0  0  0  0  0  0  0  0  0
   17.5547   -2.5019  -16.5058 C   0  0  2  0  0  0  0  0  0  0  0  0
   16.5630   -2.9965  -15.4977 C   0  0  0  0  0  0  0  0  0  0  0  0
   18.9593   -2.4851  -15.9573 C   0  0  2  0  0  0  0  0  0  0  0  0
   19.3158   -3.7557  -15.3189 N   0  0  0  0  0  0  0  0  0  0  0  0
   19.0567   -1.3660  -14.9924 C   0  0  0  0  0  0  0  0  0  0  0  0
   18.9560   -0.1678  -15.3431 O   0  0  0  0  0  0  0  0  0  0  0  0
   19.2682   -1.5922  -13.6277 O   0  0  0  0  0  0  0  0  0  0  0  0
  2  1  1  0
  3  2  2  0
  4  2  1  0
  5  4  1  0
  5  6  1  1
  7  8  2  0
  7  5  1  0
 10 12  1  0
 10  9  1  0
 11 10  2  0
 13 12  1  0
 14 13  1  6
 14 15  1  0
 15  7  1  0
 16 14  1  0
 17 16  2  0
 18 19  1  0
 19 20  1  0
 20 21  1  1
 22 20  1  0
 22 23  1  1
 23 16  1  0
 24 22  1  0
 25 24  2  0
 26 24  1  0
M  END
$$$$
