MQH.pdb
     RDKit          3D

 28 28  0  0  1  0  0  0  0  0999 V2000
   26.7659  -20.4480  -10.0139 C   0  0  0  0  0  0  0  0  0  0  0  0
   28.0967  -21.1962  -10.9648 S   0  0  0  0  0  0  0  0  0  0  0  0
   27.9299  -20.9402  -12.7270 C   0  0  0  0  0  0  0  0  0  0  0  0
   26.7014  -20.2253  -13.1602 C   0  0  0  0  0  0  0  0  0  0  0  0
   26.6344  -19.9753  -14.6491 C   0  0  2  0  0  0  0  0  0  0  0  0
   27.8437  -19.3546  -15.0722 N   0  0  0  0  0  0  0  0  0  0  0  0
   25.3892  -19.2519  -15.0199 C   0  0  0  0  0  0  0  0  0  0  0  0
   25.5375  -17.9796  -15.0993 O   0  0  0  0  0  0  0  0  0  0  0  0
   22.0943  -18.3059  -19.4242 N   0  0  0  0  0  0  0  0  0  0  0  0
   22.5585  -19.6301  -19.1767 C   0  0  0  0  0  0  0  0  0  0  0  0
   22.6502  -20.4352  -20.1213 O   0  0  0  0  0  0  0  0  0  0  0  0
   22.9113  -19.9687  -17.7662 C   0  0  0  0  0  0  0  0  0  0  0  0
   22.7471  -18.7265  -16.9537 C   0  0  0  0  0  0  0  0  0  0  0  0
   22.9820  -19.0526  -15.5008 C   0  0  2  0  0  0  0  0  0  0  0  0
   24.1356  -19.8541  -15.2716 N   0  0  0  0  0  0  0  0  0  0  0  0
   21.7287  -19.6056  -14.9441 C   0  0  0  0  0  0  0  0  0  0  0  0
   21.4918  -20.8186  -15.1401 O   0  0  0  0  0  0  0  0  0  0  0  0
   20.7895  -18.8424  -14.2070 N   0  0  0  0  0  0  0  0  0  0  0  0
   19.6058  -19.3664  -13.5598 C   0  0  1  0  0  0  0  0  0  0  0  0
   19.5136  -18.7259  -12.1954 C   0  0  0  0  0  0  0  0  0  0  0  0
   20.1420  -19.4946  -11.1204 C   0  0  0  0  0  0  0  0  0  0  0  0
   20.7772  -20.7081  -11.2718 C   0  0  0  0  0  0  0  0  0  0  0  0
   21.2032  -21.0474  -10.0319 N   0  0  0  0  0  0  0  0  0  0  0  0
   20.8523  -20.0949   -9.1492 C   0  0  0  0  0  0  0  0  0  0  0  0
   20.1934  -19.1284   -9.8186 N   0  0  0  0  0  0  0  0  0  0  0  0
   18.3708  -19.2394  -14.3596 C   0  0  0  0  0  0  0  0  0  0  0  0
   17.3176  -20.1207  -14.2760 O   0  0  0  0  0  0  0  0  0  0  0  0
   18.2790  -18.2736  -15.1564 O   0  0  0  0  0  0  0  0  0  0  0  0
  1  2  1  0
  3  2  1  0
  4  5  1  0
  4  3  1  0
  5  6  1  1
  7  5  1  0
  8  7  2  0
 10  9  1  0
 10 12  1  0
 11 10  2  0
 13 12  1  0
 14 13  1  6
 14 15  1  0
 15  7  1  0
 16 14  1  0
 17 16  2  0
 18 16  1  0
 19 18  1  0
 19 20  1  1
 20 21  1  0
 21 22  2  0
 23 22  1  0
 24 23  1  0
 25 21  1  0
 25 24  2  0
 26 19  1  0
 26 27  1  0
 28 26  2  0
M  END
$$$$
