MQH.pdb
     RDKit          3D

 28 28  0  0  1  0  0  0  0  0999 V2000
   31.6584  -21.4945   -8.2890 C   0  0  0  0  0  0  0  0  0  0  0  0
   32.6237  -21.7870   -9.7781 S   0  0  0  0  0  0  0  0  0  0  0  0
   31.6180  -22.2166  -11.1932 C   0  0  0  0  0  0  0  0  0  0  0  0
   30.4916  -21.2930  -11.4867 C   0  0  0  0  0  0  0  0  0  0  0  0
   29.6333  -21.7289  -12.6517 C   0  0  2  0  0  0  0  0  0  0  0  0
   30.4641  -22.3121  -13.6500 N   0  0  0  0  0  0  0  0  0  0  0  0
   28.7603  -20.6215  -13.1237 C   0  0  0  0  0  0  0  0  0  0  0  0
   27.9013  -20.2360  -12.2516 O   0  0  0  0  0  0  0  0  0  0  0  0
   26.9542  -17.2076  -18.1248 N   0  0  0  0  0  0  0  0  0  0  0  0
   27.0432  -18.6118  -18.3499 C   0  0  0  0  0  0  0  0  0  0  0  0
   26.6161  -19.0910  -19.4161 O   0  0  0  0  0  0  0  0  0  0  0  0
   27.6580  -19.4315  -17.2642 C   0  0  0  0  0  0  0  0  0  0  0  0
   28.0580  -18.4968  -16.1702 C   0  0  0  0  0  0  0  0  0  0  0  0
   27.7835  -19.1488  -14.8392 C   0  0  2  0  0  0  0  0  0  0  0  0
   28.8242  -20.0138  -14.3982 N   0  0  0  0  0  0  0  0  0  0  0  0
   26.4465  -19.7775  -14.9008 C   0  0  0  0  0  0  0  0  0  0  0  0
   26.3949  -21.0239  -14.9982 O   0  0  0  0  0  0  0  0  0  0  0  0
   25.2310  -19.0505  -14.8562 N   0  0  0  0  0  0  0  0  0  0  0  0
   23.9854  -19.5320  -14.2983 C   0  0  1  0  0  0  0  0  0  0  0  0
   24.1701  -19.6416  -12.8035 C   0  0  0  0  0  0  0  0  0  0  0  0
   22.9762  -20.0710  -12.0743 C   0  0  0  0  0  0  0  0  0  0  0  0
   21.7446  -20.3257  -12.6374 C   0  0  0  0  0  0  0  0  0  0  0  0
   20.9470  -20.6914  -11.6058 N   0  0  0  0  0  0  0  0  0  0  0  0
   21.6439  -20.6666  -10.4555 C   0  0  0  0  0  0  0  0  0  0  0  0
   22.9041  -20.2823  -10.7396 N   0  0  0  0  0  0  0  0  0  0  0  0
   22.7996  -18.7455  -14.6935 C   0  0  0  0  0  0  0  0  0  0  0  0
   22.8505  -17.6778  -15.5598 O   0  0  0  0  0  0  0  0  0  0  0  0
   21.6865  -19.0717  -14.2132 O   0  0  0  0  0  0  0  0  0  0  0  0
  1  2  1  0
  3  2  1  0
  4  5  1  0
  4  3  1  0
  5  6  1  6
  7  5  1  0
  8  7  2  0
 10  9  1  0
 10 12  1  0
 11 10  2  0
 13 12  1  0
 14 13  1  6
 14 15  1  0
 15  7  1  0
 16 14  1  0
 17 16  2  0
 18 16  1  0
 19 18  1  0
 19 20  1  1
 20 21  1  0
 21 22  2  0
 23 22  1  0
 24 23  1  0
 25 21  1  0
 25 24  2  0
 26 19  1  0
 26 27  1  0
 28 26  2  0
M  END
$$$$
