MQH.pdb
     RDKit          3D

 28 28  0  0  1  0  0  0  0  0999 V2000
   27.2297  -19.9107   -4.0571 C   0  0  0  0  0  0  0  0  0  0  0  0
   28.7600  -19.7778   -4.9928 S   0  0  0  0  0  0  0  0  0  0  0  0
   28.7373  -20.7201   -6.5126 C   0  0  0  0  0  0  0  0  0  0  0  0
   27.7470  -20.2790   -7.5289 C   0  0  0  0  0  0  0  0  0  0  0  0
   27.7572  -21.1099   -8.7912 C   0  0  2  0  0  0  0  0  0  0  0  0
   29.0972  -21.2358   -9.2553 N   0  0  0  0  0  0  0  0  0  0  0  0
   26.7887  -20.5862   -9.7906 C   0  0  0  0  0  0  0  0  0  0  0  0
   26.9472  -19.3409  -10.0573 O   0  0  0  0  0  0  0  0  0  0  0  0
   26.8306  -22.9377  -14.8859 N   0  0  0  0  0  0  0  0  0  0  0  0
   25.9397  -21.8836  -15.2402 C   0  0  0  0  0  0  0  0  0  0  0  0
   25.7321  -21.6327  -16.4413 O   0  0  0  0  0  0  0  0  0  0  0  0
   25.3011  -21.1342  -14.1180 C   0  0  0  0  0  0  0  0  0  0  0  0
   25.7962  -21.7322  -12.8422 C   0  0  0  0  0  0  0  0  0  0  0  0
   25.2509  -20.9397  -11.6816 C   0  0  2  0  0  0  0  0  0  0  0  0
   25.7710  -21.3396  -10.4185 N   0  0  0  0  0  0  0  0  0  0  0  0
   23.7749  -20.9496  -11.7696 C   0  0  0  0  0  0  0  0  0  0  0  0
   23.1740  -21.9572  -11.3343 O   0  0  0  0  0  0  0  0  0  0  0  0
   23.0107  -19.8887  -12.3160 N   0  0  0  0  0  0  0  0  0  0  0  0
   21.5667  -19.8552  -12.4074 C   0  0  1  0  0  0  0  0  0  0  0  0
   21.1780  -18.5015  -12.9523 C   0  0  0  0  0  0  0  0  0  0  0  0
   19.7354  -18.2877  -13.0740 C   0  0  0  0  0  0  0  0  0  0  0  0
   18.7606  -19.1947  -12.7190 C   0  0  0  0  0  0  0  0  0  0  0  0
   17.5841  -18.5848  -12.9984 N   0  0  0  0  0  0  0  0  0  0  0  0
   17.8111  -17.3587  -13.5029 C   0  0  0  0  0  0  0  0  0  0  0  0
   19.1444  -17.1682  -13.5523 N   0  0  0  0  0  0  0  0  0  0  0  0
   20.9799  -20.9862  -13.1539 C   0  0  0  0  0  0  0  0  0  0  0  0
   19.8037  -21.6040  -12.7963 O   0  0  0  0  0  0  0  0  0  0  0  0
   21.5881  -21.4033  -14.1700 O   0  0  0  0  0  0  0  0  0  0  0  0
  1  2  1  0
  3  2  1  0
  4  5  1  0
  4  3  1  0
  5  6  1  6
  7  5  1  0
  8  7  2  0
 10  9  1  0
 10 12  1  0
 11 10  2  0
 13 12  1  0
 14 13  1  6
 14 15  1  0
 15  7  1  0
 16 14  1  0
 17 16  2  0
 18 16  1  0
 19 18  1  0
 19 20  1  6
 20 21  1  0
 21 22  2  0
 23 22  1  0
 24 23  1  0
 25 21  1  0
 25 24  2  0
 26 19  1  0
 26 27  1  0
 28 26  2  0
M  END
$$$$
