MQH.pdb
     RDKit          3D

 28 28  0  0  1  0  0  0  0  0999 V2000
   31.8040  -22.3433   -9.5795 C   0  0  0  0  0  0  0  0  0  0  0  0
   30.4808  -21.1620   -9.8773 S   0  0  0  0  0  0  0  0  0  0  0  0
   29.5806  -21.4829  -11.3889 C   0  0  0  0  0  0  0  0  0  0  0  0
   28.3909  -20.6243  -11.6244 C   0  0  0  0  0  0  0  0  0  0  0  0
   27.7018  -20.8856  -12.9437 C   0  0  2  0  0  0  0  0  0  0  0  0
   28.5744  -21.6319  -13.7853 N   0  0  0  0  0  0  0  0  0  0  0  0
   27.1747  -19.6277  -13.5364 C   0  0  0  0  0  0  0  0  0  0  0  0
   26.1719  -19.1402  -12.9010 O   0  0  0  0  0  0  0  0  0  0  0  0
   28.7366  -16.3028  -18.6141 N   0  0  0  0  0  0  0  0  0  0  0  0
   27.4384  -15.7872  -18.3326 C   0  0  0  0  0  0  0  0  0  0  0  0
   26.9830  -14.8589  -19.0252 O   0  0  0  0  0  0  0  0  0  0  0  0
   26.6959  -16.4118  -17.1981 C   0  0  0  0  0  0  0  0  0  0  0  0
   27.5826  -17.4567  -16.6047 C   0  0  0  0  0  0  0  0  0  0  0  0
   26.8608  -18.1262  -15.4632 C   0  0  2  0  0  0  0  0  0  0  0  0
   27.6875  -18.9859  -14.6865 N   0  0  0  0  0  0  0  0  0  0  0  0
   25.6416  -18.7670  -16.0012 C   0  0  0  0  0  0  0  0  0  0  0  0
   25.7126  -19.9752  -16.3187 O   0  0  0  0  0  0  0  0  0  0  0  0
   24.4078  -18.0920  -16.1754 N   0  0  0  0  0  0  0  0  0  0  0  0
   23.1287  -18.5370  -15.6650 C   0  0  1  0  0  0  0  0  0  0  0  0
   23.2870  -18.7648  -14.1806 C   0  0  0  0  0  0  0  0  0  0  0  0
   23.3264  -20.1727  -13.7835 C   0  0  0  0  0  0  0  0  0  0  0  0
   23.3134  -21.2469  -14.6465 C   0  0  0  0  0  0  0  0  0  0  0  0
   23.3628  -22.3443  -13.8543 N   0  0  0  0  0  0  0  0  0  0  0  0
   23.4044  -21.9756  -12.5613 C   0  0  0  0  0  0  0  0  0  0  0  0
   23.3821  -20.6291  -12.5106 N   0  0  0  0  0  0  0  0  0  0  0  0
   21.9968  -17.6544  -16.0125 C   0  0  0  0  0  0  0  0  0  0  0  0
   22.1338  -16.3105  -16.2738 O   0  0  0  0  0  0  0  0  0  0  0  0
   20.8495  -18.1603  -16.0738 O   0  0  0  0  0  0  0  0  0  0  0  0
  1  2  1  0
  3  2  1  0
  4  5  1  0
  4  3  1  0
  5  6  1  6
  7  5  1  0
  8  7  2  0
 10  9  1  0
 10 12  1  0
 11 10  2  0
 13 12  1  0
 14 13  1  6
 14 15  1  0
 15  7  1  0
 16 14  1  0
 17 16  2  0
 18 16  1  0
 19 18  1  0
 19 20  1  1
 20 21  1  0
 21 22  2  0
 23 22  1  0
 24 23  1  0
 25 21  1  0
 25 24  2  0
 26 19  1  0
 26 27  1  0
 28 26  2  0
M  END
$$$$
