MQH.pdb
     RDKit          3D

 28 28  0  0  1  0  0  0  0  0999 V2000
   36.0379  -13.0881   -8.2536 C   0  0  0  0  0  0  0  0  0  0  0  0
   37.4337  -12.9710   -7.1253 S   0  0  0  0  0  0  0  0  0  0  0  0
   37.5081  -11.4070   -6.2611 C   0  0  0  0  0  0  0  0  0  0  0  0
   37.9161  -10.2370   -7.0812 C   0  0  0  0  0  0  0  0  0  0  0  0
   39.1704  -10.4682   -7.8919 C   0  0  2  0  0  0  0  0  0  0  0  0
   40.3069  -10.2846   -7.0545 N   0  0  0  0  0  0  0  0  0  0  0  0
   39.1655   -9.6566   -9.1380 C   0  0  0  0  0  0  0  0  0  0  0  0
   39.9188   -8.6193   -9.0793 O   0  0  0  0  0  0  0  0  0  0  0  0
   36.7670  -10.5427  -14.8401 N   0  0  0  0  0  0  0  0  0  0  0  0
   37.2339   -9.2015  -14.9561 C   0  0  0  0  0  0  0  0  0  0  0  0
   37.1232   -8.6047  -16.0425 O   0  0  0  0  0  0  0  0  0  0  0  0
   37.8387   -8.5898  -13.7360 C   0  0  0  0  0  0  0  0  0  0  0  0
   37.7432   -9.5964  -12.6369 C   0  0  0  0  0  0  0  0  0  0  0  0
   38.4298   -9.0536  -11.4097 C   0  0  2  0  0  0  0  0  0  0  0  0
   38.4230   -9.9501  -10.3042 N   0  0  0  0  0  0  0  0  0  0  0  0
   37.8679   -7.7168  -11.1204 C   0  0  0  0  0  0  0  0  0  0  0  0
   36.7650   -7.6655  -10.5317 O   0  0  0  0  0  0  0  0  0  0  0  0
   38.5058   -6.5010  -11.4714 N   0  0  0  0  0  0  0  0  0  0  0  0
   38.0329   -5.1764  -11.1300 C   0  0  1  0  0  0  0  0  0  0  0  0
   39.2421   -4.3337  -10.8017 C   0  0  0  0  0  0  0  0  0  0  0  0
   39.4840   -4.1509   -9.3700 C   0  0  0  0  0  0  0  0  0  0  0  0
   38.7003   -4.6578   -8.3563 C   0  0  0  0  0  0  0  0  0  0  0  0
   39.2901   -4.2485   -7.2079 N   0  0  0  0  0  0  0  0  0  0  0  0
   40.3870   -3.5222   -7.4886 C   0  0  0  0  0  0  0  0  0  0  0  0
   40.5129   -3.4580   -8.8289 N   0  0  0  0  0  0  0  0  0  0  0  0
   37.1441   -4.5703  -12.1417 C   0  0  0  0  0  0  0  0  0  0  0  0
   36.1148   -3.7116  -11.8319 O   0  0  0  0  0  0  0  0  0  0  0  0
   37.3417   -4.8542  -13.3486 O   0  0  0  0  0  0  0  0  0  0  0  0
  1  2  1  0
  3  2  1  0
  4  5  1  0
  4  3  1  0
  5  6  1  1
  7  5  1  0
  8  7  2  0
 10  9  1  0
 10 12  1  0
 11 10  2  0
 13 12  1  0
 14 13  1  6
 14 15  1  0
 15  7  1  0
 16 14  1  0
 17 16  2  0
 18 16  1  0
 19 18  1  0
 19 20  1  6
 20 21  1  0
 21 22  2  0
 23 22  1  0
 24 23  1  0
 25 21  1  0
 25 24  2  0
 26 19  1  0
 26 27  1  0
 28 26  2  0
M  END
$$$$
