MQH.pdb
     RDKit          3D

 28 28  0  0  1  0  0  0  0  0999 V2000
   20.9305  -11.4134    6.6649 C   0  0  0  0  0  0  0  0  0  0  0  0
   20.5120  -11.6895    4.9376 S   0  0  0  0  0  0  0  0  0  0  0  0
   18.8328  -12.2592    4.7048 C   0  0  0  0  0  0  0  0  0  0  0  0
   18.5190  -13.5915    5.2833 C   0  0  0  0  0  0  0  0  0  0  0  0
   17.0895  -14.0300    5.0642 C   0  0  2  0  0  0  0  0  0  0  0  0
   16.2170  -13.1259    5.7337 N   0  0  0  0  0  0  0  0  0  0  0  0
   16.9044  -15.4633    5.4144 C   0  0  0  0  0  0  0  0  0  0  0  0
   16.1614  -15.6497    6.4441 O   0  0  0  0  0  0  0  0  0  0  0  0
   16.4851  -20.7227    2.5377 N   0  0  0  0  0  0  0  0  0  0  0  0
   15.7004  -19.5367    2.4476 C   0  0  0  0  0  0  0  0  0  0  0  0
   14.8151  -19.4509    1.5772 O   0  0  0  0  0  0  0  0  0  0  0  0
   16.0022  -18.4521    3.4279 C   0  0  0  0  0  0  0  0  0  0  0  0
   17.0863  -18.9502    4.3262 C   0  0  0  0  0  0  0  0  0  0  0  0
   17.4663  -17.8582    5.2934 C   0  0  2  0  0  0  0  0  0  0  0  0
   17.4678  -16.5564    4.7178 N   0  0  0  0  0  0  0  0  0  0  0  0
   18.7356  -18.2426    5.9472 C   0  0  0  0  0  0  0  0  0  0  0  0
   19.7933  -17.7471    5.4983 O   0  0  0  0  0  0  0  0  0  0  0  0
   18.8180  -19.1345    7.0453 N   0  0  0  0  0  0  0  0  0  0  0  0
   19.9338  -19.2367    7.9614 C   0  0  1  0  0  0  0  0  0  0  0  0
   20.9620  -18.2142    7.5398 C   0  0  0  0  0  0  0  0  0  0  0  0
   22.0709  -18.0455    8.4796 C   0  0  0  0  0  0  0  0  0  0  0  0
   23.0522  -18.9790    8.7333 C   0  0  0  0  0  0  0  0  0  0  0  0
   23.8610  -18.4075    9.6571 N   0  0  0  0  0  0  0  0  0  0  0  0
   23.4088  -17.1789    9.9660 C   0  0  0  0  0  0  0  0  0  0  0  0
   22.2979  -16.9483    9.2385 N   0  0  0  0  0  0  0  0  0  0  0  0
   19.5582  -19.1477    9.3868 C   0  0  0  0  0  0  0  0  0  0  0  0
   20.0724  -19.9722   10.3608 O   0  0  0  0  0  0  0  0  0  0  0  0
   18.7263  -18.2706    9.7255 O   0  0  0  0  0  0  0  0  0  0  0  0
  1  2  1  0
  3  2  1  0
  4  5  1  0
  4  3  1  0
  5  6  1  1
  7  5  1  0
  8  7  2  0
 10  9  1  0
 10 12  1  0
 11 10  2  0
 13 12  1  0
 14 13  1  6
 14 15  1  0
 15  7  1  0
 16 14  1  0
 17 16  2  0
 18 16  1  0
 19 18  1  0
 19 20  1  6
 20 21  1  0
 21 22  2  0
 23 22  1  0
 24 23  1  0
 25 21  1  0
 25 24  2  0
 26 19  1  0
 26 27  1  0
 28 26  2  0
M  END
$$$$
