MQH.pdb
     RDKit          3D

 28 28  0  0  1  0  0  0  0  0999 V2000
   28.0747  -18.6939   -6.3300 C   0  0  0  0  0  0  0  0  0  0  0  0
   27.2957  -20.3151   -6.3267 S   0  0  0  0  0  0  0  0  0  0  0  0
   27.5374  -21.2129   -7.8545 C   0  0  0  0  0  0  0  0  0  0  0  0
   26.8474  -20.6538   -9.0459 C   0  0  0  0  0  0  0  0  0  0  0  0
   27.0309  -21.4777  -10.2993 C   0  0  2  0  0  0  0  0  0  0  0  0
   28.4121  -21.5009  -10.6436 N   0  0  0  0  0  0  0  0  0  0  0  0
   26.1172  -21.0254  -11.3818 C   0  0  0  0  0  0  0  0  0  0  0  0
   26.5140  -19.9609  -11.9788 O   0  0  0  0  0  0  0  0  0  0  0  0
   23.8262  -24.9730  -14.2274 N   0  0  0  0  0  0  0  0  0  0  0  0
   24.8519  -24.2586  -14.9117 C   0  0  0  0  0  0  0  0  0  0  0  0
   25.6829  -24.8828  -15.5962 O   0  0  0  0  0  0  0  0  0  0  0  0
   24.8589  -22.7740  -14.7561 C   0  0  0  0  0  0  0  0  0  0  0  0
   23.7703  -22.4197  -13.7970 C   0  0  0  0  0  0  0  0  0  0  0  0
   24.2245  -21.2664  -12.9392 C   0  0  2  0  0  0  0  0  0  0  0  0
   24.9149  -21.6650  -11.7601 N   0  0  0  0  0  0  0  0  0  0  0  0
   23.0629  -20.3826  -12.7022 C   0  0  0  0  0  0  0  0  0  0  0  0
   22.4750  -20.4789  -11.6019 O   0  0  0  0  0  0  0  0  0  0  0  0
   22.5837  -19.4408  -13.6463 N   0  0  0  0  0  0  0  0  0  0  0  0
   21.4108  -18.6092  -13.4807 C   0  0  1  0  0  0  0  0  0  0  0  0
   21.4793  -17.5160  -14.5201 C   0  0  0  0  0  0  0  0  0  0  0  0
   20.3751  -16.5571  -14.4661 C   0  0  0  0  0  0  0  0  0  0  0  0
   19.3775  -16.5401  -13.5157 C   0  0  0  0  0  0  0  0  0  0  0  0
   18.5816  -15.4965  -13.8496 N   0  0  0  0  0  0  0  0  0  0  0  0
   19.0567  -14.8913  -14.9529 C   0  0  0  0  0  0  0  0  0  0  0  0
   20.1698  -15.5449  -15.3406 N   0  0  0  0  0  0  0  0  0  0  0  0
   20.1348  -19.3527  -13.4846 C   0  0  0  0  0  0  0  0  0  0  0  0
   19.8364  -20.3449  -14.3899 O   0  0  0  0  0  0  0  0  0  0  0  0
   19.2789  -19.0630  -12.6130 O   0  0  0  0  0  0  0  0  0  0  0  0
  1  2  1  0
  3  2  1  0
  4  5  1  0
  4  3  1  0
  5  6  1  6
  7  5  1  0
  8  7  2  0
 10  9  1  0
 10 12  1  0
 11 10  2  0
 13 12  1  0
 14 13  1  1
 14 15  1  0
 15  7  1  0
 16 14  1  0
 17 16  2  0
 18 16  1  0
 19 18  1  0
 19 20  1  6
 20 21  1  0
 21 22  2  0
 23 22  1  0
 24 23  1  0
 25 21  1  0
 25 24  2  0
 26 19  1  0
 26 27  1  0
 28 26  2  0
M  END
$$$$
