RRA.pdb
     RDKit          3D

 28 27  0  0  1  0  0  0  0  0999 V2000
   27.8995  -16.1233  -21.3988 N   0  0  0  0  0  0  0  0  0  0  0  0
   28.6061  -17.3489  -21.1306 C   0  0  0  0  0  0  0  0  0  0  0  0
   29.2188  -17.9568  -22.0880 N   0  0  0  0  0  0  0  0  0  0  0  0
   28.6513  -17.9150  -19.8389 N   0  0  0  0  0  0  0  0  0  0  0  0
   27.4864  -17.9341  -18.9891 C   0  0  0  0  0  0  0  0  0  0  0  0
   26.6964  -19.1794  -19.3703 C   0  0  0  0  0  0  0  0  0  0  0  0
   25.8999  -19.7352  -18.2261 C   0  0  0  0  0  0  0  0  0  0  0  0
   26.7614  -20.6371  -17.3691 C   0  0  2  0  0  0  0  0  0  0  0  0
   27.2190  -21.7477  -18.1974 N   0  0  0  0  0  0  0  0  0  0  0  0
   26.0428  -21.2147  -16.2146 C   0  0  0  0  0  0  0  0  0  0  0  0
   25.1211  -22.0685  -16.3257 O   0  0  0  0  0  0  0  0  0  0  0  0
   29.7001  -18.8621  -22.0307 N   0  0  0  0  0  0  0  0  0  0  0  0
   26.3582  -19.5308   -7.5450 C   0  0  0  0  0  0  0  0  0  0  0  0
   25.4601  -20.6227   -7.6664 N   0  0  0  0  0  0  0  0  0  0  0  0
   24.5878  -20.8420   -6.7657 N   0  0  0  0  0  0  0  0  0  0  0  0
   25.5260  -21.4783   -8.7908 C   0  0  0  0  0  0  0  0  0  0  0  0
   26.2842  -21.0747   -9.9731 C   0  0  0  0  0  0  0  0  0  0  0  0
   25.5011  -21.3448  -11.2354 C   0  0  0  0  0  0  0  0  0  0  0  0
   26.2467  -20.9736  -12.4702 C   0  0  1  0  0  0  0  0  0  0  0  0
   25.5165  -21.2961  -13.7503 N   0  0  0  0  0  0  0  0  0  0  0  0
   26.3463  -20.8419  -14.8652 C   0  0  0  0  0  0  0  0  0  0  0  0
   24.2018  -20.6625  -13.8808 O   0  0  0  0  0  0  0  0  0  0  0  0
   24.1093  -19.4204  -13.9261 C   0  0  0  0  0  0  0  0  0  0  0  0
   23.8923  -21.5925   -6.8325 C   0  0  2  0  0  0  0  0  0  0  0  0
   20.8582  -21.2953  -15.1003 N   0  0  0  0  0  0  0  0  0  0  0  0
   21.7248  -20.7746  -13.9771 C   0  0  0  0  0  0  0  0  0  0  0  0
   23.0276  -21.4422  -13.9571 O   0  0  0  0  0  0  0  0  0  0  0  0
   21.0353  -20.9899  -12.6724 O   0  0  0  0  0  0  0  0  0  0  0  0
  2  4  1  0
  2  1  1  0
  3  2  2  0
  5  4  1  0
  6  5  1  0
  7  6  1  0
  8  7  1  0
  8  9  1  6
 10 20  1  0
 10  8  1  0
 11 10  2  0
 13 12  1  0
 14 13  2  0
 15 13  1  0
 16 15  1  0
 17 18  1  0
 17 16  1  0
 19 18  1  6
 19 21  1  0
 19 20  1  0
 21 22  2  0
 24 23  1  6
 25 24  1  0
 25 21  1  0
 26 24  1  0
 27 26  2  0
 28 26  1  0
M  END
$$$$
