RRA.pdb
     RDKit          3D

 28 27  0  0  1  0  0  0  0  0999 V2000
   13.5259  -23.1209   -6.1236 N   0  0  0  0  0  0  0  0  0  0  0  0
   12.9121  -23.7180   -4.9658 C   0  0  0  0  0  0  0  0  0  0  0  0
   12.2049  -22.9911   -4.1702 N   0  0  0  0  0  0  0  0  0  0  0  0
   13.0603  -25.0892   -4.6684 N   0  0  0  0  0  0  0  0  0  0  0  0
   14.2460  -25.8144   -5.0525 C   0  0  0  0  0  0  0  0  0  0  0  0
   15.3632  -25.3268   -4.1391 C   0  0  0  0  0  0  0  0  0  0  0  0
   16.5537  -24.8176   -4.8980 C   0  0  0  0  0  0  0  0  0  0  0  0
   17.4909  -25.9556   -5.2397 C   0  0  2  0  0  0  0  0  0  0  0  0
   18.4058  -26.1418   -4.1184 N   0  0  0  0  0  0  0  0  0  0  0  0
   18.3119  -25.7018   -6.4415 C   0  0  0  0  0  0  0  0  0  0  0  0
   19.4555  -25.1711   -6.4029 O   0  0  0  0  0  0  0  0  0  0  0  0
   11.7207  -23.3047   -3.3207 N   0  0  0  0  0  0  0  0  0  0  0  0
   20.7422  -31.4914  -11.7343 C   0  0  0  0  0  0  0  0  0  0  0  0
   21.7567  -30.8316  -10.9932 N   0  0  0  0  0  0  0  0  0  0  0  0
   22.9473  -31.2815  -10.9899 N   0  0  0  0  0  0  0  0  0  0  0  0
   21.4535  -29.6666  -10.2505 C   0  0  0  0  0  0  0  0  0  0  0  0
   20.1500  -29.0232  -10.3995 C   0  0  0  0  0  0  0  0  0  0  0  0
   20.0651  -27.7728   -9.5574 C   0  0  0  0  0  0  0  0  0  0  0  0
   18.7830  -27.0371   -9.7403 C   0  0  2  0  0  0  0  0  0  0  0  0
   18.6826  -25.7658   -8.9344 N   0  0  0  0  0  0  0  0  0  0  0  0
   17.8621  -26.0461   -7.7572 C   0  0  0  0  0  0  0  0  0  0  0  0
   18.0778  -24.6367   -9.6459 O   0  0  0  0  0  0  0  0  0  0  0  0
   16.8375  -24.5299   -9.7075 C   0  0  0  0  0  0  0  0  0  0  0  0
   23.7094  -30.8414  -10.4635 C   0  0  2  0  0  0  0  0  0  0  0  0
   19.2527  -21.4997  -11.3803 N   0  0  0  0  0  0  0  0  0  0  0  0
   18.2435  -22.5505  -10.9792 C   0  0  0  0  0  0  0  0  0  0  0  0
   18.8834  -23.6588  -10.2682 O   0  0  0  0  0  0  0  0  0  0  0  0
   17.5537  -23.0713  -12.1946 O   0  0  0  0  0  0  0  0  0  0  0  0
  2  4  1  0
  2  1  1  0
  3  2  2  0
  5  4  1  0
  6  5  1  0
  7  6  1  0
  8  7  1  0
  8  9  1  1
 10 20  1  0
 10  8  1  0
 11 10  2  0
 13 12  1  0
 14 13  2  0
 15 13  1  0
 16 15  1  0
 17 18  1  0
 17 16  1  0
 19 18  1  1
 19 21  1  0
 19 20  1  0
 21 22  2  0
 24 23  1  1
 25 24  1  0
 25 21  1  0
 26 24  1  0
 27 26  2  0
 28 26  1  0
M  END
$$$$
