RRA.pdb
     RDKit          3D

 28 27  0  0  1  0  0  0  0  0999 V2000
   15.4115  -21.8154  -13.2283 N   0  0  0  0  0  0  0  0  0  0  0  0
   15.9165  -20.8767  -14.1964 C   0  0  0  0  0  0  0  0  0  0  0  0
   15.1043  -20.0711  -14.7905 N   0  0  0  0  0  0  0  0  0  0  0  0
   17.2878  -20.8075  -14.5215 N   0  0  0  0  0  0  0  0  0  0  0  0
   18.1951  -21.8713  -14.1687 C   0  0  0  0  0  0  0  0  0  0  0  0
   19.3473  -21.2211  -13.4139 C   0  0  0  0  0  0  0  0  0  0  0  0
   20.4649  -22.1794  -13.1219 C   0  0  0  0  0  0  0  0  0  0  0  0
   21.6624  -21.4425  -12.5624 C   0  0  2  0  0  0  0  0  0  0  0  0
   21.2179  -20.6618  -11.4128 N   0  0  0  0  0  0  0  0  0  0  0  0
   22.2770  -20.5028  -13.5228 C   0  0  0  0  0  0  0  0  0  0  0  0
   22.1007  -19.2545  -13.4839 O   0  0  0  0  0  0  0  0  0  0  0  0
   15.3479  -19.3613  -15.4914 N   0  0  0  0  0  0  0  0  0  0  0  0
   29.3600  -21.3253  -17.3459 C   0  0  0  0  0  0  0  0  0  0  0  0
   28.2993  -22.1918  -16.9748 N   0  0  0  0  0  0  0  0  0  0  0  0
   28.5422  -23.2823  -16.3650 N   0  0  0  0  0  0  0  0  0  0  0  0
   26.9607  -21.8511  -17.2797 C   0  0  0  0  0  0  0  0  0  0  0  0
   26.6631  -20.5902  -17.9558 C   0  0  0  0  0  0  0  0  0  0  0  0
   25.5147  -19.8754  -17.2852 C   0  0  0  0  0  0  0  0  0  0  0  0
   24.8750  -20.6863  -16.2120 C   0  0  1  0  0  0  0  0  0  0  0  0
   23.7157  -20.0015  -15.5316 N   0  0  0  0  0  0  0  0  0  0  0  0
   23.1314  -20.9483  -14.5828 C   0  0  0  0  0  0  0  0  0  0  0  0
   22.6521  -19.5564  -16.4357 O   0  0  0  0  0  0  0  0  0  0  0  0
   21.7976  -20.3679  -16.8416 C   0  0  0  0  0  0  0  0  0  0  0  0
   27.8082  -23.9413  -16.0851 C   0  0  2  0  0  0  0  0  0  0  0  0
   20.9684  -16.4427  -17.4197 N   0  0  0  0  0  0  0  0  0  0  0  0
   21.5113  -17.8072  -17.7760 C   0  0  0  0  0  0  0  0  0  0  0  0
   22.5779  -18.2116  -16.8583 O   0  0  0  0  0  0  0  0  0  0  0  0
   22.0365  -17.7877  -19.1716 O   0  0  0  0  0  0  0  0  0  0  0  0
  2  4  1  0
  2  1  1  0
  3  2  2  0
  5  4  1  0
  6  5  1  0
  7  6  1  0
  8  7  1  0
  8  9  1  1
 10 20  1  0
 10  8  1  0
 11 10  2  0
 13 12  1  0
 14 13  2  0
 15 13  1  0
 16 15  1  0
 17 18  1  0
 17 16  1  0
 19 18  1  1
 19 21  1  0
 19 20  1  0
 21 22  2  0
 24 23  1  1
 25 24  1  0
 25 21  1  0
 26 24  1  0
 27 26  2  0
 28 26  1  0
M  END
$$$$
