RRA.pdb
     RDKit          3D

 28 27  0  0  1  0  0  0  0  0999 V2000
   21.8006  -10.4022    5.7089 N   0  0  0  0  0  0  0  0  0  0  0  0
   21.6224  -10.5074    7.1339 C   0  0  0  0  0  0  0  0  0  0  0  0
   22.4041   -9.8572    7.9262 N   0  0  0  0  0  0  0  0  0  0  0  0
   20.6082  -11.3084    7.7003 N   0  0  0  0  0  0  0  0  0  0  0  0
   19.8284  -12.2117    6.8908 C   0  0  0  0  0  0  0  0  0  0  0  0
   18.3674  -11.9257    7.2130 C   0  0  0  0  0  0  0  0  0  0  0  0
   17.6892  -13.0728    7.9034 C   0  0  0  0  0  0  0  0  0  0  0  0
   16.8669  -13.8737    6.9174 C   0  0  2  0  0  0  0  0  0  0  0  0
   15.4647  -13.5128    7.0979 N   0  0  0  0  0  0  0  0  0  0  0  0
   16.9747  -15.3346    7.1102 C   0  0  0  0  0  0  0  0  0  0  0  0
   16.3289  -15.9696    7.9880 O   0  0  0  0  0  0  0  0  0  0  0  0
   22.3875   -9.8725    8.9528 N   0  0  0  0  0  0  0  0  0  0  0  0
   15.1027  -18.3659    2.7220 C   0  0  0  0  0  0  0  0  0  0  0  0
   15.0827  -19.7838    2.7732 N   0  0  0  0  0  0  0  0  0  0  0  0
   14.0126  -20.4223    2.5136 N   0  0  0  0  0  0  0  0  0  0  0  0
   16.2531  -20.5014    3.1136 C   0  0  0  0  0  0  0  0  0  0  0  0
   17.4422  -19.7859    3.5713 C   0  0  0  0  0  0  0  0  0  0  0  0
   17.1467  -18.9895    4.8196 C   0  0  0  0  0  0  0  0  0  0  0  0
   18.3480  -18.2963    5.3624 C   0  0  2  0  0  0  0  0  0  0  0  0
   18.0969  -17.5440    6.6457 N   0  0  0  0  0  0  0  0  0  0  0  0
   17.8329  -16.1477    6.3012 C   0  0  0  0  0  0  0  0  0  0  0  0
   19.2103  -17.5696    7.5977 O   0  0  0  0  0  0  0  0  0  0  0  0
   20.2410  -16.9066    7.3707 C   0  0  0  0  0  0  0  0  0  0  0  0
   13.9434  -21.4437    2.5718 C   0  0  2  0  0  0  0  0  0  0  0  0
   19.7930  -18.5691   11.1341 N   0  0  0  0  0  0  0  0  0  0  0  0
   20.2578  -18.3225    9.7175 C   0  0  0  0  0  0  0  0  0  0  0  0
   19.1347  -18.3394    8.7785 O   0  0  0  0  0  0  0  0  0  0  0  0
   21.2484  -19.3667    9.3272 O   0  0  0  0  0  0  0  0  0  0  0  0
  2  4  1  0
  2  1  1  0
  3  2  2  0
  5  4  1  0
  6  5  1  0
  7  6  1  0
  8  7  1  0
  8  9  1  1
 10 20  1  0
 10  8  1  0
 11 10  2  0
 13 12  1  0
 14 13  2  0
 15 13  1  0
 16 15  1  0
 17 18  1  0
 17 16  1  0
 19 18  1  6
 19 21  1  0
 19 20  1  0
 21 22  2  0
 24 23  1  1
 25 24  1  0
 25 21  1  0
 26 24  1  0
 27 26  2  0
 28 26  1  0
M  END
$$$$
