RRA.pdb
     RDKit          3D

 28 27  0  0  1  0  0  0  0  0999 V2000
   20.4327  -21.9610   -7.8616 N   0  0  0  0  0  0  0  0  0  0  0  0
   19.7669  -22.1843   -9.1188 C   0  0  0  0  0  0  0  0  0  0  0  0
   18.5405  -22.5812   -9.1316 N   0  0  0  0  0  0  0  0  0  0  0  0
   20.4192  -21.9811  -10.3532 N   0  0  0  0  0  0  0  0  0  0  0  0
   21.8582  -21.9695  -10.4462 C   0  0  0  0  0  0  0  0  0  0  0  0
   22.3218  -20.6801   -9.7809 C   0  0  0  0  0  0  0  0  0  0  0  0
   23.7694  -20.3804  -10.0399 C   0  0  0  0  0  0  0  0  0  0  0  0
   24.2549  -21.1279  -11.2629 C   0  0  2  0  0  0  0  0  0  0  0  0
   25.6765  -21.4066  -11.0891 N   0  0  0  0  0  0  0  0  0  0  0  0
   24.1055  -20.3634  -12.5183 C   0  0  0  0  0  0  0  0  0  0  0  0
   24.6975  -19.2725  -12.7427 O   0  0  0  0  0  0  0  0  0  0  0  0
   17.9721  -22.7896   -9.9610 N   0  0  0  0  0  0  0  0  0  0  0  0
   25.4153  -23.4868  -17.0667 C   0  0  0  0  0  0  0  0  0  0  0  0
   26.5644  -22.7281  -16.7242 N   0  0  0  0  0  0  0  0  0  0  0  0
   27.5259  -23.2675  -16.0881 N   0  0  0  0  0  0  0  0  0  0  0  0
   26.6520  -21.3637  -17.0870 C   0  0  0  0  0  0  0  0  0  0  0  0
   25.5829  -20.7448  -17.8676 C   0  0  0  0  0  0  0  0  0  0  0  0
   24.6132  -20.0131  -16.9708 C   0  0  0  0  0  0  0  0  0  0  0  0
   24.1571  -20.8366  -15.8166 C   0  0  2  0  0  0  0  0  0  0  0  0
   23.2329  -20.1114  -14.8702 N   0  0  0  0  0  0  0  0  0  0  0  0
   23.2654  -20.8131  -13.5879 C   0  0  0  0  0  0  0  0  0  0  0  0
   21.8372  -20.0431  -15.3105 O   0  0  0  0  0  0  0  0  0  0  0  0
   21.1537  -21.0830  -15.3819 C   0  0  0  0  0  0  0  0  0  0  0  0
   28.3235  -22.7354  -15.7245 C   0  0  1  0  0  0  0  0  0  0  0  0
   19.6429  -19.7046  -17.2875 N   0  0  0  0  0  0  0  0  0  0  0  0
   19.8559  -18.7814  -16.1104 C   0  0  0  0  0  0  0  0  0  0  0  0
   21.2480  -18.8084  -15.6581 O   0  0  0  0  0  0  0  0  0  0  0  0
   18.9604  -19.1863  -14.9887 O   0  0  0  0  0  0  0  0  0  0  0  0
  2  4  1  0
  2  1  1  0
  3  2  2  0
  5  4  1  0
  6  5  1  0
  7  6  1  0
  8  7  1  0
  8  9  1  1
 10 20  1  0
 10  8  1  0
 11 10  2  0
 13 12  1  0
 14 13  2  0
 15 13  1  0
 16 15  1  0
 17 18  1  0
 17 16  1  0
 19 18  1  1
 19 21  1  0
 19 20  1  0
 21 22  2  0
 24 23  1  6
 25 24  1  0
 25 21  1  0
 26 24  1  0
 27 26  2  0
 28 26  1  0
M  END
$$$$
