RRA.pdb
     RDKit          3D

 28 27  0  0  1  0  0  0  0  0999 V2000
   28.8860  -22.7899  -15.8836 N   0  0  0  0  0  0  0  0  0  0  0  0
   28.5180  -22.4643  -17.2371 C   0  0  0  0  0  0  0  0  0  0  0  0
   28.9081  -23.2202  -18.2056 N   0  0  0  0  0  0  0  0  0  0  0  0
   27.7350  -21.3313  -17.5438 N   0  0  0  0  0  0  0  0  0  0  0  0
   27.1756  -20.5043  -16.5033 C   0  0  0  0  0  0  0  0  0  0  0  0
   27.8484  -19.1434  -16.6272 C   0  0  0  0  0  0  0  0  0  0  0  0
   27.1496  -18.2359  -17.5970 C   0  0  0  0  0  0  0  0  0  0  0  0
   26.1762  -17.3328  -16.8710 C   0  0  2  0  0  0  0  0  0  0  0  0
   26.6500  -17.1634  -15.5014 N   0  0  0  0  0  0  0  0  0  0  0  0
   24.8060  -17.8808  -16.7991 C   0  0  0  0  0  0  0  0  0  0  0  0
   24.1511  -18.2510  -17.8115 O   0  0  0  0  0  0  0  0  0  0  0  0
   28.7725  -23.0500  -19.2091 N   0  0  0  0  0  0  0  0  0  0  0  0
   18.8281  -22.1877  -13.0368 C   0  0  0  0  0  0  0  0  0  0  0  0
   19.8865  -23.0089  -13.5049 N   0  0  0  0  0  0  0  0  0  0  0  0
   19.6432  -24.1654  -13.9776 N   0  0  0  0  0  0  0  0  0  0  0  0
   21.2231  -22.5492  -13.4504 C   0  0  0  0  0  0  0  0  0  0  0  0
   21.5178  -21.2198  -12.9201 C   0  0  0  0  0  0  0  0  0  0  0  0
   21.4608  -20.1778  -14.0113 C   0  0  0  0  0  0  0  0  0  0  0  0
   22.8096  -19.7162  -14.4425 C   0  0  1  0  0  0  0  0  0  0  0  0
   22.7830  -18.6415  -15.5009 N   0  0  0  0  0  0  0  0  0  0  0  0
   24.1120  -18.0343  -15.5553 C   0  0  0  0  0  0  0  0  0  0  0  0
   21.8095  -17.5727  -15.2629 O   0  0  0  0  0  0  0  0  0  0  0  0
   21.8991  -16.8627  -14.2424 C   0  0  0  0  0  0  0  0  0  0  0  0
   20.3796  -24.8105  -14.2826 C   0  0  2  0  0  0  0  0  0  0  0  0
   19.6306  -15.3708  -17.1327 N   0  0  0  0  0  0  0  0  0  0  0  0
   19.8169  -16.2450  -15.9143 C   0  0  0  0  0  0  0  0  0  0  0  0
   20.7624  -17.3311  -16.1782 O   0  0  0  0  0  0  0  0  0  0  0  0
   18.5026  -16.8182  -15.5043 O   0  0  0  0  0  0  0  0  0  0  0  0
  2  4  1  0
  2  1  1  0
  3  2  2  0
  5  4  1  0
  6  5  1  0
  7  6  1  0
  8  7  1  0
  8  9  1  1
 10 20  1  0
 10  8  1  0
 11 10  2  0
 13 12  1  0
 14 13  2  0
 15 13  1  0
 16 15  1  0
 17 18  1  0
 17 16  1  0
 19 18  1  6
 19 21  1  0
 19 20  1  0
 21 22  2  0
 24 23  1  6
 25 24  1  0
 25 21  1  0
 26 24  1  0
 27 26  2  0
 28 26  1  0
M  END
$$$$
