RRA.pdb
     RDKit          3D

 28 27  0  0  1  0  0  0  0  0999 V2000
   33.5190  -25.4847  -16.2094 N   0  0  0  0  0  0  0  0  0  0  0  0
   32.3948  -26.2286  -16.7157 C   0  0  0  0  0  0  0  0  0  0  0  0
   32.2066  -27.4444  -16.3311 N   0  0  0  0  0  0  0  0  0  0  0  0
   31.4803  -25.6651  -17.6306 N   0  0  0  0  0  0  0  0  0  0  0  0
   31.5729  -24.2811  -18.0249 C   0  0  0  0  0  0  0  0  0  0  0  0
   31.1929  -23.4587  -16.8004 C   0  0  0  0  0  0  0  0  0  0  0  0
   29.8472  -22.8076  -16.9324 C   0  0  0  0  0  0  0  0  0  0  0  0
   28.7987  -23.6009  -16.1832 C   0  0  2  0  0  0  0  0  0  0  0  0
   28.3116  -24.6556  -17.0659 N   0  0  0  0  0  0  0  0  0  0  0  0
   27.6307  -22.7939  -15.7738 C   0  0  0  0  0  0  0  0  0  0  0  0
   26.5717  -22.7088  -16.4536 O   0  0  0  0  0  0  0  0  0  0  0  0
   31.4771  -28.0865  -16.6627 N   0  0  0  0  0  0  0  0  0  0  0  0
   23.3821  -21.3341   -8.0751 C   0  0  0  0  0  0  0  0  0  0  0  0
   22.8731  -20.8100   -9.2917 N   0  0  0  0  0  0  0  0  0  0  0  0
   21.6433  -20.9498   -9.5884 N   0  0  0  0  0  0  0  0  0  0  0  0
   23.7290  -20.1266  -10.1868 C   0  0  0  0  0  0  0  0  0  0  0  0
   24.9567  -20.7655  -10.6559 C   0  0  0  0  0  0  0  0  0  0  0  0
   25.1160  -20.5998  -12.1482 C   0  0  0  0  0  0  0  0  0  0  0  0
   26.3421  -21.2598  -12.6767 C   0  0  2  0  0  0  0  0  0  0  0  0
   26.4562  -21.2321  -14.1808 N   0  0  0  0  0  0  0  0  0  0  0  0
   27.6161  -22.0393  -14.5562 C   0  0  0  0  0  0  0  0  0  0  0  0
   26.6324  -19.8963  -14.7563 O   0  0  0  0  0  0  0  0  0  0  0  0
   27.7549  -19.3548  -14.7448 C   0  0  0  0  0  0  0  0  0  0  0  0
   21.2326  -20.5856  -10.4545 C   0  0  1  0  0  0  0  0  0  0  0  0
   27.1296  -17.3676  -15.6973 N   0  0  0  0  0  0  0  0  0  0  0  0
   25.7870  -17.9601  -16.0579 C   0  0  0  0  0  0  0  0  0  0  0  0
   25.5424  -19.2061  -15.3292 O   0  0  0  0  0  0  0  0  0  0  0  0
   25.7340  -18.2231  -17.5249 O   0  0  0  0  0  0  0  0  0  0  0  0
  2  4  1  0
  2  1  1  0
  3  2  2  0
  5  4  1  0
  6  5  1  0
  7  6  1  0
  8  7  1  0
  8  9  1  6
 10 20  1  0
 10  8  1  0
 11 10  2  0
 13 12  1  0
 14 13  2  0
 15 13  1  0
 16 15  1  0
 17 18  1  0
 17 16  1  0
 19 18  1  6
 19 21  1  0
 19 20  1  0
 21 22  2  0
 24 23  1  1
 25 24  1  0
 25 21  1  0
 26 24  1  0
 27 26  2  0
 28 26  1  0
M  END
$$$$
