RRA.pdb
     RDKit          3D

 28 27  0  0  1  0  0  0  0  0999 V2000
   19.7825  -21.3472  -10.0001 N   0  0  0  0  0  0  0  0  0  0  0  0
   20.8837  -21.4736   -9.0809 C   0  0  0  0  0  0  0  0  0  0  0  0
   20.7155  -22.0915   -7.9622 N   0  0  0  0  0  0  0  0  0  0  0  0
   22.1570  -20.9370   -9.3662 N   0  0  0  0  0  0  0  0  0  0  0  0
   22.3930  -20.1644  -10.5607 C   0  0  0  0  0  0  0  0  0  0  0  0
   23.9047  -20.0888  -10.7323 C   0  0  0  0  0  0  0  0  0  0  0  0
   24.4679  -21.2787  -11.4531 C   0  0  0  0  0  0  0  0  0  0  0  0
   25.9772  -21.1921  -11.5204 C   0  0  2  0  0  0  0  0  0  0  0  0
   26.4718  -20.8553  -10.1897 N   0  0  0  0  0  0  0  0  0  0  0  0
   26.4666  -20.1524  -12.4491 C   0  0  0  0  0  0  0  0  0  0  0  0
   26.7398  -18.9740  -12.0921 O   0  0  0  0  0  0  0  0  0  0  0  0
   19.8558  -22.5502   -7.6382 N   0  0  0  0  0  0  0  0  0  0  0  0
   26.1523  -19.7877  -19.1663 C   0  0  0  0  0  0  0  0  0  0  0  0
   27.1463  -19.0320  -19.8404 N   0  0  0  0  0  0  0  0  0  0  0  0
   26.8452  -18.3438  -20.8680 N   0  0  0  0  0  0  0  0  0  0  0  0
   28.4824  -19.0366  -19.3761 C   0  0  0  0  0  0  0  0  0  0  0  0
   28.8423  -19.8146  -18.1926 C   0  0  0  0  0  0  0  0  0  0  0  0
   28.3833  -19.1232  -16.9312 C   0  0  0  0  0  0  0  0  0  0  0  0
   27.7332  -20.0519  -15.9653 C   0  0  2  0  0  0  0  0  0  0  0  0
   27.1731  -19.3726  -14.7403 N   0  0  0  0  0  0  0  0  0  0  0  0
   26.6702  -20.4119  -13.8432 C   0  0  0  0  0  0  0  0  0  0  0  0
   26.0761  -18.4386  -15.0065 O   0  0  0  0  0  0  0  0  0  0  0  0
   24.9194  -18.8683  -15.1824 C   0  0  0  0  0  0  0  0  0  0  0  0
   27.5332  -17.7948  -21.3939 C   0  0  2  0  0  0  0  0  0  0  0  0
   25.6172  -14.6965  -15.2326 N   0  0  0  0  0  0  0  0  0  0  0  0
   25.1818  -16.1422  -15.2958 C   0  0  0  0  0  0  0  0  0  0  0  0
   26.3092  -17.0478  -15.0674 O   0  0  0  0  0  0  0  0  0  0  0  0
   24.5788  -16.4250  -16.6301 O   0  0  0  0  0  0  0  0  0  0  0  0
  2  4  1  0
  2  1  1  0
  3  2  2  0
  5  4  1  0
  6  5  1  0
  7  6  1  0
  8  7  1  0
  8  9  1  1
 10 20  1  0
 10  8  1  0
 11 10  2  0
 13 12  1  0
 14 13  2  0
 15 13  1  0
 16 15  1  0
 17 18  1  0
 17 16  1  0
 19 18  1  1
 19 21  1  0
 19 20  1  0
 21 22  2  0
 24 23  1  1
 25 24  1  0
 25 21  1  0
 26 24  1  0
 27 26  2  0
 28 26  1  0
M  END
$$$$
