RRA.pdb
     RDKit          3D

 28 27  0  0  1  0  0  0  0  0999 V2000
   28.4986  -32.9641  -15.4058 N   0  0  0  0  0  0  0  0  0  0  0  0
   27.3988  -33.8825  -15.2625 C   0  0  0  0  0  0  0  0  0  0  0  0
   27.5808  -35.0103  -14.6652 N   0  0  0  0  0  0  0  0  0  0  0  0
   26.1121  -33.5868  -15.7602 N   0  0  0  0  0  0  0  0  0  0  0  0
   25.8509  -32.3653  -16.4807 C   0  0  0  0  0  0  0  0  0  0  0  0
   24.7001  -31.6773  -15.7578 C   0  0  0  0  0  0  0  0  0  0  0  0
   23.3771  -32.3398  -16.0092 C   0  0  0  0  0  0  0  0  0  0  0  0
   22.2653  -31.5840  -15.3143 C   0  0  2  0  0  0  0  0  0  0  0  0
   22.1913  -30.2487  -15.8976 N   0  0  0  0  0  0  0  0  0  0  0  0
   22.4830  -31.4196  -13.8622 C   0  0  0  0  0  0  0  0  0  0  0  0
   23.0240  -30.4012  -13.3512 O   0  0  0  0  0  0  0  0  0  0  0  0
   26.8922  -35.7640  -14.5554 N   0  0  0  0  0  0  0  0  0  0  0  0
   21.6436  -35.0697   -7.3500 C   0  0  0  0  0  0  0  0  0  0  0  0
   20.8046  -34.2050   -6.6004 N   0  0  0  0  0  0  0  0  0  0  0  0
   20.8921  -34.1637   -5.3313 N   0  0  0  0  0  0  0  0  0  0  0  0
   19.8622  -33.3799   -7.2577 C   0  0  0  0  0  0  0  0  0  0  0  0
   19.7725  -33.3909   -8.7162 C   0  0  0  0  0  0  0  0  0  0  0  0
   21.0103  -32.7902   -9.3382 C   0  0  0  0  0  0  0  0  0  0  0  0
   20.9577  -32.7670  -10.8265 C   0  0  1  0  0  0  0  0  0  0  0  0
   22.1854  -32.1787  -11.4765 N   0  0  0  0  0  0  0  0  0  0  0  0
   22.0886  -32.4197  -12.9154 C   0  0  0  0  0  0  0  0  0  0  0  0
   23.4545  -32.7434  -11.0103 O   0  0  0  0  0  0  0  0  0  0  0  0
   23.8395  -33.8496  -11.4365 C   0  0  0  0  0  0  0  0  0  0  0  0
   20.2772  -33.5872   -4.7473 C   0  0  2  0  0  0  0  0  0  0  0  0
   26.4929  -31.5213   -9.2114 N   0  0  0  0  0  0  0  0  0  0  0  0
   25.5578  -32.6026   -9.7011 C   0  0  0  0  0  0  0  0  0  0  0  0
   24.2558  -32.0494  -10.0782 O   0  0  0  0  0  0  0  0  0  0  0  0
   25.3728  -33.6258   -8.6321 O   0  0  0  0  0  0  0  0  0  0  0  0
  2  4  1  0
  2  1  1  0
  3  2  2  0
  5  4  1  0
  6  5  1  0
  7  6  1  0
  8  7  1  0
  8  9  1  6
 10 20  1  0
 10  8  1  0
 11 10  2  0
 13 12  1  0
 14 13  2  0
 15 13  1  0
 16 15  1  0
 17 18  1  0
 17 16  1  0
 19 18  1  6
 19 21  1  0
 19 20  1  0
 21 22  2  0
 24 23  1  6
 25 24  1  0
 25 21  1  0
 26 24  1  0
 27 26  2  0
 28 26  1  0
M  END
$$$$
