VDT.pdb
     RDKit          3D

 23 22  0  0  1  0  0  0  0  0999 V2000
   24.9559  -14.3025  -15.3978 C   0  0  0  0  0  0  0  0  0  0  0  0
   24.4103  -13.0030  -16.0311 C   0  0  2  0  0  0  0  0  0  0  0  0
   25.2014  -11.8648  -15.5121 C   0  0  0  0  0  0  0  0  0  0  0  0
   22.9423  -13.0104  -15.7311 C   0  0  2  0  0  0  0  0  0  0  0  0
   22.4502  -14.2534  -16.3939 N   0  0  0  0  0  0  0  0  0  0  0  0
   22.1683  -11.8639  -16.1784 C   0  0  0  0  0  0  0  0  0  0  0  0
   21.8263  -11.8000  -17.3902 O   0  0  0  0  0  0  0  0  0  0  0  0
   21.7822  -10.8256  -15.3040 N   0  0  0  0  0  0  0  0  0  0  0  0
   21.0260   -9.6578  -15.8238 C   0  0  1  0  0  0  0  0  0  0  0  0
   19.5956   -9.8479  -15.4122 C   0  0  0  0  0  0  0  0  0  0  0  0
   18.6872   -8.7313  -15.6926 C   0  0  0  0  0  0  0  0  0  0  0  0
   18.6863   -7.9554  -16.6495 O   0  0  0  0  0  0  0  0  0  0  0  0
   21.5901   -8.4660  -15.1381 C   0  0  0  0  0  0  0  0  0  0  0  0
   22.0027   -8.6466  -13.9599 O   0  0  0  0  0  0  0  0  0  0  0  0
   17.6808   -8.5381  -14.7146 O   0  0  0  0  0  0  0  0  0  0  0  0
   24.4491   -6.0697  -16.4342 C   0  0  0  0  0  0  0  0  0  0  0  0
   23.3097   -5.3043  -15.8485 C   0  0  1  0  0  0  0  0  0  0  0  0
   22.5636   -4.7498  -16.9108 O   0  0  0  0  0  0  0  0  0  0  0  0
   22.3598   -6.0985  -15.0288 C   0  0  2  0  0  0  0  0  0  0  0  0
   21.7026   -7.1808  -15.6767 N   0  0  0  0  0  0  0  0  0  0  0  0
   21.4602   -5.2090  -14.2420 C   0  0  0  0  0  0  0  0  0  0  0  0
   21.9678   -4.3325  -13.2994 O   0  0  0  0  0  0  0  0  0  0  0  0
   20.2294   -5.2348  -14.4156 O   0  0  0  0  0  0  0  0  0  0  0  0
  2  1  1  1
  2  3  1  0
  4  6  1  0
  4  2  1  0
  4  5  1  6
  6  8  1  0
  7  6  2  0
  8  9  1  0
  9 13  1  0
  9 10  1  1
 11 10  1  0
 11 12  2  0
 13 14  2  0
 13 20  1  0
 15 11  1  0
 17 16  1  6
 18 17  1  0
 19 17  1  0
 19 21  1  0
 19 20  1  6
 21 22  1  0
 23 21  2  0
M  END
$$$$
