VDT.pdb
     RDKit          3D

 23 22  0  0  1  0  0  0  0  0999 V2000
   27.5211  -11.6948  -15.9183 C   0  0  0  0  0  0  0  0  0  0  0  0
   26.3851  -10.8291  -16.5078 C   0  0  2  0  0  0  0  0  0  0  0  0
   26.4035   -9.5133  -15.8302 C   0  0  0  0  0  0  0  0  0  0  0  0
   25.1464  -11.6589  -16.3594 C   0  0  2  0  0  0  0  0  0  0  0  0
   25.4062  -12.8441  -17.2279 N   0  0  0  0  0  0  0  0  0  0  0  0
   23.8840  -11.0372  -16.7245 C   0  0  0  0  0  0  0  0  0  0  0  0
   23.5203  -11.0691  -17.9313 O   0  0  0  0  0  0  0  0  0  0  0  0
   23.0508  -10.4059  -15.7765 N   0  0  0  0  0  0  0  0  0  0  0  0
   21.8394   -9.6714  -16.2226 C   0  0  1  0  0  0  0  0  0  0  0  0
   20.6571  -10.5193  -15.8556 C   0  0  0  0  0  0  0  0  0  0  0  0
   19.3378   -9.9640  -16.1749 C   0  0  0  0  0  0  0  0  0  0  0  0
   19.0539   -9.0145  -16.9068 O   0  0  0  0  0  0  0  0  0  0  0  0
   21.8131   -8.4094  -15.4382 C   0  0  0  0  0  0  0  0  0  0  0  0
   22.0213   -8.5212  -14.1991 O   0  0  0  0  0  0  0  0  0  0  0  0
   18.2572  -10.6271  -15.5433 O   0  0  0  0  0  0  0  0  0  0  0  0
   24.0564   -5.3927  -15.5334 C   0  0  0  0  0  0  0  0  0  0  0  0
   22.6396   -4.9239  -15.5467 C   0  0  1  0  0  0  0  0  0  0  0  0
   22.3272   -4.5137  -16.8608 O   0  0  0  0  0  0  0  0  0  0  0  0
   21.6261   -5.9396  -15.1645 C   0  0  2  0  0  0  0  0  0  0  0  0
   21.5819   -7.1274  -15.9457 N   0  0  0  0  0  0  0  0  0  0  0  0
   20.2993   -5.3062  -14.9243 C   0  0  0  0  0  0  0  0  0  0  0  0
   20.1247   -4.3725  -13.9184 O   0  0  0  0  0  0  0  0  0  0  0  0
   19.3163   -5.6036  -15.6250 O   0  0  0  0  0  0  0  0  0  0  0  0
  2  1  1  1
  2  3  1  0
  4  6  1  0
  4  2  1  0
  4  5  1  6
  6  8  1  0
  7  6  2  0
  8  9  1  0
  9 13  1  0
  9 10  1  1
 11 10  1  0
 11 12  2  0
 13 14  2  0
 13 20  1  0
 15 11  1  0
 17 16  1  6
 18 17  1  0
 19 17  1  0
 19 21  1  0
 19 20  1  6
 21 22  1  0
 23 21  2  0
M  END
$$$$
