VDT.pdb
     RDKit          3D

 23 22  0  0  1  0  0  0  0  0999 V2000
   15.5330  -13.3025  -16.1066 C   0  0  0  0  0  0  0  0  0  0  0  0
   16.2446  -11.9391  -15.9572 C   0  0  2  0  0  0  0  0  0  0  0  0
   17.4715  -11.9617  -16.7847 C   0  0  0  0  0  0  0  0  0  0  0  0
   16.4173  -11.7501  -14.4808 C   0  0  2  0  0  0  0  0  0  0  0  0
   15.0199  -11.7421  -13.9575 N   0  0  0  0  0  0  0  0  0  0  0  0
   17.1231  -10.5569  -14.0432 C   0  0  0  0  0  0  0  0  0  0  0  0
   18.3253  -10.4031  -14.3906 O   0  0  0  0  0  0  0  0  0  0  0  0
   16.5091   -9.5643  -13.2498 N   0  0  0  0  0  0  0  0  0  0  0  0
   17.2801   -8.3673  -12.8271 C   0  0  1  0  0  0  0  0  0  0  0  0
   17.6631   -7.6326  -14.0782 C   0  0  0  0  0  0  0  0  0  0  0  0
   18.3578   -6.3547  -13.8919 C   0  0  0  0  0  0  0  0  0  0  0  0
   17.8857   -5.2485  -13.6248 O   0  0  0  0  0  0  0  0  0  0  0  0
   16.3425   -7.5375  -12.0264 C   0  0  0  0  0  0  0  0  0  0  0  0
   15.1903   -7.3751  -12.5132 O   0  0  0  0  0  0  0  0  0  0  0  0
   19.7641   -6.4272  -14.0449 O   0  0  0  0  0  0  0  0  0  0  0  0
   14.7272   -7.9682   -8.5534 C   0  0  0  0  0  0  0  0  0  0  0  0
   15.3986   -6.6400   -8.6642 C   0  0  1  0  0  0  0  0  0  0  0  0
   16.6447   -6.7238   -8.0064 O   0  0  0  0  0  0  0  0  0  0  0  0
   15.6766   -6.1773  -10.0476 C   0  0  2  0  0  0  0  0  0  0  0  0
   16.6212   -6.9305  -10.7983 N   0  0  0  0  0  0  0  0  0  0  0  0
   15.8890   -4.7032  -10.0852 C   0  0  0  0  0  0  0  0  0  0  0  0
   14.9130   -3.8290   -9.6410 O   0  0  0  0  0  0  0  0  0  0  0  0
   16.9517   -4.2245  -10.5179 O   0  0  0  0  0  0  0  0  0  0  0  0
  2  1  1  1
  2  3  1  0
  4  6  1  0
  4  2  1  0
  4  5  1  1
  6  8  1  0
  7  6  2  0
  8  9  1  0
  9 13  1  0
  9 10  1  6
 11 10  1  0
 11 12  2  0
 13 14  2  0
 13 20  1  0
 15 11  1  0
 17 16  1  6
 18 17  1  0
 19 17  1  0
 19 21  1  0
 19 20  1  1
 21 22  1  0
 23 21  2  0
M  END
$$$$
