VDT.pdb
     RDKit          3D

 23 22  0  0  1  0  0  0  0  0999 V2000
   19.7526  -15.8396  -18.0326 C   0  0  0  0  0  0  0  0  0  0  0  0
   20.4091  -15.7963  -16.6345 C   0  0  2  0  0  0  0  0  0  0  0  0
   21.3176  -16.9582  -16.5111 C   0  0  0  0  0  0  0  0  0  0  0  0
   19.2655  -15.7153  -15.6698 C   0  0  2  0  0  0  0  0  0  0  0  0
   18.5866  -17.0365  -15.8116 N   0  0  0  0  0  0  0  0  0  0  0  0
   18.3095  -14.6373  -15.8637 C   0  0  0  0  0  0  0  0  0  0  0  0
   17.0921  -14.9279  -16.0153 O   0  0  0  0  0  0  0  0  0  0  0  0
   18.6951  -13.2799  -15.8820 N   0  0  0  0  0  0  0  0  0  0  0  0
   17.6653  -12.2153  -15.9909 C   0  0  1  0  0  0  0  0  0  0  0  0
   16.7653  -12.3573  -14.7987 C   0  0  0  0  0  0  0  0  0  0  0  0
   15.7787  -11.2905  -14.6013 C   0  0  0  0  0  0  0  0  0  0  0  0
   14.9878  -10.8073  -15.4130 O   0  0  0  0  0  0  0  0  0  0  0  0
   18.3994  -10.9254  -15.9131 C   0  0  0  0  0  0  0  0  0  0  0  0
   19.2035  -10.8013  -14.9491 O   0  0  0  0  0  0  0  0  0  0  0  0
   15.7497  -10.7580  -13.2890 O   0  0  0  0  0  0  0  0  0  0  0  0
   20.4034   -9.0419  -18.8460 C   0  0  0  0  0  0  0  0  0  0  0  0
   19.5539   -8.1229  -18.0330 C   0  0  1  0  0  0  0  0  0  0  0  0
   18.4071   -7.8025  -18.7910 O   0  0  0  0  0  0  0  0  0  0  0  0
   19.0714   -8.6732  -16.7409 C   0  0  2  0  0  0  0  0  0  0  0  0
   18.2793   -9.8531  -16.8019 N   0  0  0  0  0  0  0  0  0  0  0  0
   18.5127   -7.5958  -15.8769 C   0  0  0  0  0  0  0  0  0  0  0  0
   19.2931   -6.5273  -15.4725 O   0  0  0  0  0  0  0  0  0  0  0  0
   17.3289   -7.6333  -15.4990 O   0  0  0  0  0  0  0  0  0  0  0  0
  2  1  1  6
  2  3  1  0
  4  6  1  0
  4  2  1  0
  4  5  1  6
  6  8  1  0
  7  6  2  0
  8  9  1  0
  9 13  1  0
  9 10  1  1
 11 10  1  0
 11 12  2  0
 13 14  2  0
 13 20  1  0
 15 11  1  0
 17 16  1  6
 18 17  1  0
 19 17  1  0
 19 21  1  0
 19 20  1  6
 21 22  1  0
 23 21  2  0
M  END
$$$$
