VDT.pdb
     RDKit          3D

 23 22  0  0  1  0  0  0  0  0999 V2000
   18.8658  -11.4818  -14.8448 C   0  0  0  0  0  0  0  0  0  0  0  0
   17.5154  -11.6695  -15.5720 C   0  0  2  0  0  0  0  0  0  0  0  0
   17.0936  -13.0792  -15.4132 C   0  0  0  0  0  0  0  0  0  0  0  0
   17.7534  -11.1786  -16.9676 C   0  0  2  0  0  0  0  0  0  0  0  0
   18.7108  -12.1723  -17.5355 N   0  0  0  0  0  0  0  0  0  0  0  0
   18.2817   -9.8323  -17.1160 C   0  0  0  0  0  0  0  0  0  0  0  0
   19.4692   -9.6886  -17.5143 O   0  0  0  0  0  0  0  0  0  0  0  0
   17.5113   -8.6835  -16.8360 N   0  0  0  0  0  0  0  0  0  0  0  0
   18.0614   -7.3326  -17.1156 C   0  0  1  0  0  0  0  0  0  0  0  0
   16.8899   -6.4027  -17.2368 C   0  0  0  0  0  0  0  0  0  0  0  0
   17.2049   -4.9956  -17.5043 C   0  0  0  0  0  0  0  0  0  0  0  0
   16.4422   -4.0303  -17.5699 O   0  0  0  0  0  0  0  0  0  0  0  0
   18.8711   -6.9651  -15.9248 C   0  0  0  0  0  0  0  0  0  0  0  0
   18.3097   -7.1115  -14.8048 O   0  0  0  0  0  0  0  0  0  0  0  0
   18.5816   -4.7352  -17.7126 O   0  0  0  0  0  0  0  0  0  0  0  0
   23.2066   -6.9617  -15.4804 C   0  0  0  0  0  0  0  0  0  0  0  0
   22.1061   -7.0182  -14.4739 C   0  0  1  0  0  0  0  0  0  0  0  0
   22.6243   -6.5834  -13.2349 O   0  0  0  0  0  0  0  0  0  0  0  0
   20.9271   -6.1643  -14.7667 C   0  0  2  0  0  0  0  0  0  0  0  0
   20.1818   -6.4789  -15.9367 N   0  0  0  0  0  0  0  0  0  0  0  0
   21.2623   -4.7207  -14.6151 C   0  0  0  0  0  0  0  0  0  0  0  0
   20.9897   -3.8140  -15.6241 O   0  0  0  0  0  0  0  0  0  0  0  0
   21.7961   -4.2974  -13.5752 O   0  0  0  0  0  0  0  0  0  0  0  0
  2  1  1  1
  2  3  1  0
  4  6  1  0
  4  2  1  0
  4  5  1  1
  6  8  1  0
  7  6  2  0
  8  9  1  0
  9 13  1  0
  9 10  1  1
 11 10  1  0
 11 12  2  0
 13 14  2  0
 13 20  1  0
 15 11  1  0
 17 16  1  6
 18 17  1  0
 19 17  1  0
 19 21  1  0
 19 20  1  6
 21 22  1  0
 23 21  2  0
M  END
$$$$
