VDT.pdb
     RDKit          3D

 23 22  0  0  1  0  0  0  0  0999 V2000
   23.3398   -9.3999  -16.5178 C   0  0  0  0  0  0  0  0  0  0  0  0
   23.1505  -10.0864  -15.1465 C   0  0  2  0  0  0  0  0  0  0  0  0
   24.3955  -10.8151  -14.8154 C   0  0  0  0  0  0  0  0  0  0  0  0
   21.8986  -10.8975  -15.2869 C   0  0  2  0  0  0  0  0  0  0  0  0
   22.2812  -11.9800  -16.2400 N   0  0  0  0  0  0  0  0  0  0  0  0
   20.7110  -10.2072  -15.7631 C   0  0  0  0  0  0  0  0  0  0  0  0
   20.3262  -10.4109  -16.9463 O   0  0  0  0  0  0  0  0  0  0  0  0
   19.9725   -9.3238  -14.9471 N   0  0  0  0  0  0  0  0  0  0  0  0
   18.7306   -8.6951  -15.4650 C   0  0  1  0  0  0  0  0  0  0  0  0
   17.6655   -8.9216  -14.4326 C   0  0  0  0  0  0  0  0  0  0  0  0
   16.9907  -10.2230  -14.4729 C   0  0  0  0  0  0  0  0  0  0  0  0
   17.0438  -11.0962  -15.3404 O   0  0  0  0  0  0  0  0  0  0  0  0
   19.0215   -7.2417  -15.5737 C   0  0  0  0  0  0  0  0  0  0  0  0
   19.8474   -6.7769  -14.7413 O   0  0  0  0  0  0  0  0  0  0  0  0
   16.1709  -10.4902  -13.3491 O   0  0  0  0  0  0  0  0  0  0  0  0
   17.0018   -4.1149  -18.1035 C   0  0  0  0  0  0  0  0  0  0  0  0
   18.4667   -4.3052  -17.8910 C   0  0  1  0  0  0  0  0  0  0  0  0
   19.0727   -3.0307  -17.8573 O   0  0  0  0  0  0  0  0  0  0  0  0
   18.8463   -4.9917  -16.6302 C   0  0  2  0  0  0  0  0  0  0  0  0
   18.4684   -6.3572  -16.5044 N   0  0  0  0  0  0  0  0  0  0  0  0
   18.5249   -4.1482  -15.4451 C   0  0  0  0  0  0  0  0  0  0  0  0
   19.1621   -2.9381  -15.2353 O   0  0  0  0  0  0  0  0  0  0  0  0
   17.6741   -4.5142  -14.6157 O   0  0  0  0  0  0  0  0  0  0  0  0
  2  1  1  6
  2  3  1  0
  4  6  1  0
  4  2  1  0
  4  5  1  6
  6  8  1  0
  7  6  2  0
  8  9  1  0
  9 13  1  0
  9 10  1  1
 11 10  1  0
 11 12  2  0
 13 14  2  0
 13 20  1  0
 15 11  1  0
 17 16  1  1
 18 17  1  0
 19 17  1  0
 19 21  1  0
 19 20  1  1
 21 22  1  0
 23 21  2  0
M  END
$$$$
