VDT.pdb
     RDKit          3D

 23 22  0  0  1  0  0  0  0  0999 V2000
   15.0082  -10.7075  -15.8633 C   0  0  0  0  0  0  0  0  0  0  0  0
   16.0697  -11.6522  -16.4702 C   0  0  2  0  0  0  0  0  0  0  0  0
   15.7624  -13.0346  -16.0400 C   0  0  0  0  0  0  0  0  0  0  0  0
   17.3879  -11.0798  -16.0464 C   0  0  2  0  0  0  0  0  0  0  0  0
   17.5202  -11.5077  -14.6231 N   0  0  0  0  0  0  0  0  0  0  0  0
   17.5506   -9.6391  -16.1538 C   0  0  0  0  0  0  0  0  0  0  0  0
   17.5645   -9.1154  -17.3005 O   0  0  0  0  0  0  0  0  0  0  0  0
   17.6872   -8.8079  -15.0215 N   0  0  0  0  0  0  0  0  0  0  0  0
   17.8454   -7.3408  -15.1903 C   0  0  1  0  0  0  0  0  0  0  0  0
   16.6134   -6.7021  -14.6193 C   0  0  0  0  0  0  0  0  0  0  0  0
   16.5719   -5.2365  -14.6464 C   0  0  0  0  0  0  0  0  0  0  0  0
   17.3193   -4.4513  -15.2318 O   0  0  0  0  0  0  0  0  0  0  0  0
   19.0295   -6.9599  -14.3769 C   0  0  0  0  0  0  0  0  0  0  0  0
   19.0179   -7.3313  -13.1714 O   0  0  0  0  0  0  0  0  0  0  0  0
   15.5190   -4.6685  -13.8879 O   0  0  0  0  0  0  0  0  0  0  0  0
   22.2983   -8.3501  -14.3609 C   0  0  0  0  0  0  0  0  0  0  0  0
   22.5015   -6.8736  -14.4377 C   0  0  1  0  0  0  0  0  0  0  0  0
   22.8211   -6.5452  -15.7728 O   0  0  0  0  0  0  0  0  0  0  0  0
   21.3265   -6.0460  -14.0642 C   0  0  2  0  0  0  0  0  0  0  0  0
   20.1395   -6.2372  -14.8241 N   0  0  0  0  0  0  0  0  0  0  0  0
   21.7163   -4.6210  -13.8720 C   0  0  0  0  0  0  0  0  0  0  0  0
   22.6604   -4.2596  -12.9272 O   0  0  0  0  0  0  0  0  0  0  0  0
   21.2003   -3.7222  -14.5586 O   0  0  0  0  0  0  0  0  0  0  0  0
  2  1  1  1
  2  3  1  0
  4  6  1  0
  4  2  1  0
  4  5  1  1
  6  8  1  0
  7  6  2  0
  8  9  1  0
  9 13  1  0
  9 10  1  1
 11 10  1  0
 11 12  2  0
 13 14  2  0
 13 20  1  0
 15 11  1  0
 17 16  1  6
 18 17  1  0
 19 17  1  0
 19 21  1  0
 19 20  1  6
 21 22  1  0
 23 21  2  0
M  END
$$$$
