VDT.pdb
     RDKit          3D

 23 22  0  0  1  0  0  0  0  0999 V2000
   14.9890  -13.5894  -15.7816 C   0  0  0  0  0  0  0  0  0  0  0  0
   15.9854  -14.4587  -16.5810 C   0  0  2  0  0  0  0  0  0  0  0  0
   15.9274  -15.8393  -16.0508 C   0  0  0  0  0  0  0  0  0  0  0  0
   17.2965  -13.7405  -16.4801 C   0  0  2  0  0  0  0  0  0  0  0  0
   17.7335  -13.9938  -15.0761 N   0  0  0  0  0  0  0  0  0  0  0  0
   17.2934  -12.3128  -16.7542 C   0  0  0  0  0  0  0  0  0  0  0  0
   17.0776  -11.9234  -17.9337 O   0  0  0  0  0  0  0  0  0  0  0  0
   17.5170  -11.3498  -15.7471 N   0  0  0  0  0  0  0  0  0  0  0  0
   17.4205   -9.9026  -16.0668 C   0  0  1  0  0  0  0  0  0  0  0  0
   16.0886   -9.4331  -15.5595 C   0  0  0  0  0  0  0  0  0  0  0  0
   15.0354   -9.2636  -16.5658 C   0  0  0  0  0  0  0  0  0  0  0  0
   13.9356   -9.8143  -16.6359 O   0  0  0  0  0  0  0  0  0  0  0  0
   18.5092   -9.2404  -15.3021 C   0  0  0  0  0  0  0  0  0  0  0  0
   18.4933   -9.4110  -14.0524 O   0  0  0  0  0  0  0  0  0  0  0  0
   15.3487   -8.3337  -17.5874 O   0  0  0  0  0  0  0  0  0  0  0  0
   22.1054   -9.9430  -15.0726 C   0  0  0  0  0  0  0  0  0  0  0  0
   21.9593   -8.4806  -15.3320 C   0  0  1  0  0  0  0  0  0  0  0  0
   22.2456   -8.2477  -16.6945 O   0  0  0  0  0  0  0  0  0  0  0  0
   20.6090   -7.9176  -15.0773 C   0  0  2  0  0  0  0  0  0  0  0  0
   19.5352   -8.4567  -15.8385 N   0  0  0  0  0  0  0  0  0  0  0  0
   20.6508   -6.4291  -15.0325 C   0  0  0  0  0  0  0  0  0  0  0  0
   21.4240   -5.7638  -14.0977 O   0  0  0  0  0  0  0  0  0  0  0  0
   19.9896   -5.7497  -15.8368 O   0  0  0  0  0  0  0  0  0  0  0  0
  2  1  1  1
  2  3  1  0
  4  6  1  0
  4  2  1  0
  4  5  1  1
  6  8  1  0
  7  6  2  0
  8  9  1  0
  9 13  1  0
  9 10  1  1
 11 10  1  0
 11 12  2  0
 13 14  2  0
 13 20  1  0
 15 11  1  0
 17 16  1  6
 18 17  1  0
 19 17  1  0
 19 21  1  0
 19 20  1  6
 21 22  1  0
 23 21  2  0
M  END
$$$$
