HPQ.pdb
     RDKit          3D

 27 28  0  0  1  0  0  0  0  0999 V2000
   10.1020  -14.7748   21.3528 N   0  0  0  0  0  0  0  0  0  0  0  0
    8.9368  -14.2915   22.0965 C   0  0  1  0  0  0  0  0  0  0  0  0
    7.7431  -14.7633   21.2667 C   0  0  0  0  0  0  0  0  0  0  0  0
    7.7578  -14.1865   19.9142 C   0  0  0  0  0  0  0  0  0  0  0  0
    8.6596  -13.3490   19.3194 C   0  0  0  0  0  0  0  0  0  0  0  0
    8.2409  -13.0957   18.0653 N   0  0  0  0  0  0  0  0  0  0  0  0
    7.0865  -13.7565   17.8463 C   0  0  0  0  0  0  0  0  0  0  0  0
    6.8068  -14.4105   18.9705 N   0  0  0  0  0  0  0  0  0  0  0  0
    8.8927  -14.8774   23.4530 C   0  0  0  0  0  0  0  0  0  0  0  0
    9.3966  -16.0182   23.6115 O   0  0  0  0  0  0  0  0  0  0  0  0
    8.3149  -14.2117   24.5557 N   0  0  0  0  0  0  0  0  0  0  0  0
    8.0340  -12.7623   24.5164 C   0  0  0  0  0  0  0  0  0  0  0  0
    6.6044  -12.7593   24.9527 C   0  0  0  0  0  0  0  0  0  0  0  0
    6.6381  -13.7935   26.0865 C   0  0  0  0  0  0  0  0  0  0  0  0
    7.9269  -14.6033   25.8542 C   0  0  1  0  0  0  0  0  0  0  0  0
    7.5696  -16.0031   26.0813 C   0  0  0  0  0  0  0  0  0  0  0  0
    6.5009  -16.5742   25.7605 O   0  0  0  0  0  0  0  0  0  0  0  0
   10.8888  -20.3446   24.0900 N   0  0  0  0  0  0  0  0  0  0  0  0
   11.4612  -19.5153   25.0859 C   0  0  0  0  0  0  0  0  0  0  0  0
   12.7050  -19.4005   25.1297 O   0  0  0  0  0  0  0  0  0  0  0  0
   10.6128  -18.8151   26.0359 C   0  0  0  0  0  0  0  0  0  0  0  0
    9.1459  -18.9639   25.8706 C   0  0  0  0  0  0  0  0  0  0  0  0
    8.2981  -18.2821   26.9124 C   0  0  2  0  0  0  0  0  0  0  0  0
    8.5282  -16.8430   26.7430 N   0  0  0  0  0  0  0  0  0  0  0  0
    8.6704  -18.7065   28.2852 C   0  0  0  0  0  0  0  0  0  0  0  0
    9.2484  -17.9077   29.0565 O   0  0  0  0  0  0  0  0  0  0  0  0
    8.3878  -19.9807   28.7335 O   0  0  0  0  0  0  0  0  0  0  0  0
  2  1  1  6
  2  9  1  0
  3  2  1  0
  4  5  2  0
  4  3  1  0
  6  5  1  0
  7  8  2  0
  7  6  1  0
  8  4  1  0
  9 11  1  0
 10  9  2  0
 11 15  1  0
 11 12  1  0
 12 13  1  0
 14 15  1  0
 14 13  1  0
 15 16  1  6
 16 17  2  0
 18 19  1  0
 19 21  1  0
 20 19  2  0
 21 22  1  0
 23 22  1  6
 23 24  1  0
 24 16  1  0
 25 23  1  0
 26 25  2  0
 27 25  1  0
M  END
$$$$
