HPQ.pdb
     RDKit          3D

 27 28  0  0  1  0  0  0  0  0999 V2000
    9.9550  -14.7933   21.6924 N   0  0  0  0  0  0  0  0  0  0  0  0
    8.7091  -14.2745   22.2606 C   0  0  1  0  0  0  0  0  0  0  0  0
    7.6210  -14.8290   21.3415 C   0  0  0  0  0  0  0  0  0  0  0  0
    7.7559  -14.3198   19.9687 C   0  0  0  0  0  0  0  0  0  0  0  0
    8.6862  -13.4792   19.4243 C   0  0  0  0  0  0  0  0  0  0  0  0
    8.3907  -13.3044   18.1227 N   0  0  0  0  0  0  0  0  0  0  0  0
    7.2871  -14.0185   17.8236 C   0  0  0  0  0  0  0  0  0  0  0  0
    6.9148  -14.6262   18.9470 N   0  0  0  0  0  0  0  0  0  0  0  0
    8.5166  -14.7553   23.6452 C   0  0  0  0  0  0  0  0  0  0  0  0
    8.9621  -15.8951   23.9333 O   0  0  0  0  0  0  0  0  0  0  0  0
    7.8620  -13.9922   24.6362 N   0  0  0  0  0  0  0  0  0  0  0  0
    7.5987  -12.5514   24.4465 C   0  0  0  0  0  0  0  0  0  0  0  0
    6.1398  -12.5057   24.7686 C   0  0  0  0  0  0  0  0  0  0  0  0
    6.0763  -13.4345   25.9891 C   0  0  0  0  0  0  0  0  0  0  0  0
    7.3714  -14.2651   25.9304 C   0  0  1  0  0  0  0  0  0  0  0  0
    6.9844  -15.6381   26.2526 C   0  0  0  0  0  0  0  0  0  0  0  0
    5.9237  -16.2224   25.9288 O   0  0  0  0  0  0  0  0  0  0  0  0
    7.8430  -19.9716   23.4926 N   0  0  0  0  0  0  0  0  0  0  0  0
    9.0293  -19.4420   24.0580 C   0  0  0  0  0  0  0  0  0  0  0  0
   10.1116  -19.6199   23.4589 O   0  0  0  0  0  0  0  0  0  0  0  0
    8.9816  -18.7076   25.3114 C   0  0  0  0  0  0  0  0  0  0  0  0
    7.6501  -18.5301   25.9414 C   0  0  0  0  0  0  0  0  0  0  0  0
    7.6484  -17.8528   27.2868 C   0  0  2  0  0  0  0  0  0  0  0  0
    7.8995  -16.4312   27.0246 N   0  0  0  0  0  0  0  0  0  0  0  0
    8.6970  -18.4060   28.1800 C   0  0  0  0  0  0  0  0  0  0  0  0
    8.5764  -19.5579   28.6550 O   0  0  0  0  0  0  0  0  0  0  0  0
    9.8167  -17.6659   28.5005 O   0  0  0  0  0  0  0  0  0  0  0  0
  2  1  1  6
  2  9  1  0
  3  2  1  0
  4  5  2  0
  4  3  1  0
  6  5  1  0
  7  8  2  0
  7  6  1  0
  8  4  1  0
  9 11  1  0
 10  9  2  0
 11 15  1  0
 11 12  1  0
 12 13  1  0
 14 15  1  0
 14 13  1  0
 15 16  1  6
 16 17  2  0
 18 19  1  0
 19 21  1  0
 20 19  2  0
 21 22  1  0
 23 22  1  6
 23 24  1  0
 24 16  1  0
 25 23  1  0
 26 25  2  0
 27 25  1  0
M  END
$$$$
