HPQ.pdb
     RDKit          3D

 27 28  0  0  1  0  0  0  0  0999 V2000
   11.8563  -14.6138   17.1101 N   0  0  0  0  0  0  0  0  0  0  0  0
   10.4728  -14.5689   17.5878 C   0  0  1  0  0  0  0  0  0  0  0  0
    9.8601  -15.8732   17.0782 C   0  0  0  0  0  0  0  0  0  0  0  0
    9.8540  -15.9347   15.6091 C   0  0  0  0  0  0  0  0  0  0  0  0
    9.5950  -14.9623   14.6840 C   0  0  0  0  0  0  0  0  0  0  0  0
    9.7129  -15.5019   13.4563 N   0  0  0  0  0  0  0  0  0  0  0  0
   10.0430  -16.8032   13.5788 C   0  0  0  0  0  0  0  0  0  0  0  0
   10.1247  -17.0506   14.8834 N   0  0  0  0  0  0  0  0  0  0  0  0
   10.4227  -14.5115   19.0641 C   0  0  0  0  0  0  0  0  0  0  0  0
   11.3216  -15.1167   19.7015 O   0  0  0  0  0  0  0  0  0  0  0  0
    9.4187  -13.8130   19.7691 N   0  0  0  0  0  0  0  0  0  0  0  0
    8.7420  -12.6397   19.1804 C   0  0  0  0  0  0  0  0  0  0  0  0
    7.3136  -13.0280   19.3878 C   0  0  0  0  0  0  0  0  0  0  0  0
    7.3671  -13.6082   20.8079 C   0  0  0  0  0  0  0  0  0  0  0  0
    8.8526  -13.9280   21.0561 C   0  0  1  0  0  0  0  0  0  0  0  0
    8.8791  -15.2339   21.7139 C   0  0  0  0  0  0  0  0  0  0  0  0
    8.6224  -16.3474   21.1986 O   0  0  0  0  0  0  0  0  0  0  0  0
   12.7740  -18.5975   21.9780 N   0  0  0  0  0  0  0  0  0  0  0  0
   12.9884  -17.4000   22.7042 C   0  0  0  0  0  0  0  0  0  0  0  0
   14.1457  -16.9319   22.7625 O   0  0  0  0  0  0  0  0  0  0  0  0
   11.8794  -16.7342   23.3672 C   0  0  0  0  0  0  0  0  0  0  0  0
   10.5204  -17.2768   23.1222 C   0  0  0  0  0  0  0  0  0  0  0  0
    9.3937  -16.5543   23.8132 C   0  0  2  0  0  0  0  0  0  0  0  0
    9.2352  -15.2795   23.1043 N   0  0  0  0  0  0  0  0  0  0  0  0
    9.6946  -16.3140   25.2468 C   0  0  0  0  0  0  0  0  0  0  0  0
    9.8616  -15.1472   25.6684 O   0  0  0  0  0  0  0  0  0  0  0  0
    9.7946  -17.3653   26.1351 O   0  0  0  0  0  0  0  0  0  0  0  0
  2  1  1  1
  2  9  1  0
  3  2  1  0
  4  5  2  0
  4  3  1  0
  6  5  1  0
  7  8  2  0
  7  6  1  0
  8  4  1  0
  9 11  1  0
 10  9  2  0
 11 15  1  0
 11 12  1  0
 12 13  1  0
 14 15  1  0
 14 13  1  0
 15 16  1  6
 16 17  2  0
 18 19  1  0
 19 21  1  0
 20 19  2  0
 21 22  1  0
 23 22  1  6
 23 24  1  0
 24 16  1  0
 25 23  1  0
 26 25  2  0
 27 25  1  0
M  END
$$$$
