HPQ.pdb
     RDKit          3D

 27 28  0  0  1  0  0  0  0  0999 V2000
   10.0608  -14.7012   14.8987 N   0  0  0  0  0  0  0  0  0  0  0  0
    9.0877  -14.8983   15.9750 C   0  0  1  0  0  0  0  0  0  0  0  0
    8.7608  -16.3901   15.9134 C   0  0  0  0  0  0  0  0  0  0  0  0
    8.1360  -16.7585   14.6343 C   0  0  0  0  0  0  0  0  0  0  0  0
    7.1484  -16.1384   13.9211 C   0  0  0  0  0  0  0  0  0  0  0  0
    6.9130  -16.8577   12.8078 N   0  0  0  0  0  0  0  0  0  0  0  0
    7.7326  -17.9279   12.7953 C   0  0  0  0  0  0  0  0  0  0  0  0
    8.4651  -17.8553   13.9035 N   0  0  0  0  0  0  0  0  0  0  0  0
    9.6695  -14.5461   17.2875 C   0  0  0  0  0  0  0  0  0  0  0  0
   10.8567  -14.8941   17.5107 O   0  0  0  0  0  0  0  0  0  0  0  0
    8.9507  -13.8450   18.2799 N   0  0  0  0  0  0  0  0  0  0  0  0
    7.8855  -12.8863   17.9233 C   0  0  0  0  0  0  0  0  0  0  0  0
    6.7784  -13.3867   18.7941 C   0  0  0  0  0  0  0  0  0  0  0  0
    7.5355  -13.6808   20.0966 C   0  0  0  0  0  0  0  0  0  0  0  0
    9.0166  -13.7797   19.6876 C   0  0  1  0  0  0  0  0  0  0  0  0
    9.5591  -14.9279   20.4129 C   0  0  0  0  0  0  0  0  0  0  0  0
    9.2730  -16.1363   20.2420 O   0  0  0  0  0  0  0  0  0  0  0  0
   15.2252  -14.3523   21.1742 N   0  0  0  0  0  0  0  0  0  0  0  0
   14.8713  -15.6762   20.8146 C   0  0  0  0  0  0  0  0  0  0  0  0
   15.6645  -16.3404   20.1134 O   0  0  0  0  0  0  0  0  0  0  0  0
   13.6084  -16.2447   21.2554 C   0  0  0  0  0  0  0  0  0  0  0  0
   12.7159  -15.3709   22.0562 C   0  0  0  0  0  0  0  0  0  0  0  0
   11.2639  -15.7709   22.0856 C   0  0  2  0  0  0  0  0  0  0  0  0
   10.5294  -14.6764   21.4412 N   0  0  0  0  0  0  0  0  0  0  0  0
   10.7788  -15.9710   23.4742 C   0  0  0  0  0  0  0  0  0  0  0  0
    9.9830  -15.1524   23.9875 O   0  0  0  0  0  0  0  0  0  0  0  0
   11.1932  -17.0560   24.2195 O   0  0  0  0  0  0  0  0  0  0  0  0
  2  1  1  6
  2  9  1  0
  3  2  1  0
  4  5  2  0
  4  3  1  0
  6  5  1  0
  7  8  2  0
  7  6  1  0
  8  4  1  0
  9 11  1  0
 10  9  2  0
 11 15  1  0
 11 12  1  0
 12 13  1  0
 14 15  1  0
 14 13  1  0
 15 16  1  1
 16 17  2  0
 18 19  1  0
 19 21  1  0
 20 19  2  0
 21 22  1  0
 23 22  1  1
 23 24  1  0
 24 16  1  0
 25 23  1  0
 26 25  2  0
 27 25  1  0
M  END
$$$$
