HPQ.pdb
     RDKit          3D

 27 28  0  0  1  0  0  0  0  0999 V2000
   10.0499  -16.0197   16.1341 N   0  0  0  0  0  0  0  0  0  0  0  0
    8.9651  -16.2352   17.0937 C   0  0  1  0  0  0  0  0  0  0  0  0
    8.6796  -17.7341   17.0031 C   0  0  0  0  0  0  0  0  0  0  0  0
    7.6891  -18.1613   18.0024 C   0  0  0  0  0  0  0  0  0  0  0  0
    7.8628  -18.7328   19.2319 C   0  0  0  0  0  0  0  0  0  0  0  0
    6.6501  -18.9441   19.7771 N   0  0  0  0  0  0  0  0  0  0  0  0
    5.7026  -18.5178   18.9181 C   0  0  0  0  0  0  0  0  0  0  0  0
    6.3440  -18.0479   17.8515 N   0  0  0  0  0  0  0  0  0  0  0  0
    9.3859  -15.8666   18.4621 C   0  0  0  0  0  0  0  0  0  0  0  0
   10.1800  -16.6399   19.0554 O   0  0  0  0  0  0  0  0  0  0  0  0
    8.9350  -14.6977   19.1127 N   0  0  0  0  0  0  0  0  0  0  0  0
    8.4031  -13.5508   18.3493 C   0  0  0  0  0  0  0  0  0  0  0  0
    7.1127  -13.3301   19.0706 C   0  0  0  0  0  0  0  0  0  0  0  0
    7.5544  -13.5080   20.5299 C   0  0  0  0  0  0  0  0  0  0  0  0
    8.8912  -14.2684   20.4557 C   0  0  1  0  0  0  0  0  0  0  0  0
    8.8372  -15.2817   21.5088 C   0  0  0  0  0  0  0  0  0  0  0  0
    7.9649  -16.1686   21.6633 O   0  0  0  0  0  0  0  0  0  0  0  0
   10.7403  -20.1179   21.5375 N   0  0  0  0  0  0  0  0  0  0  0  0
   11.8022  -19.2009   21.7347 C   0  0  0  0  0  0  0  0  0  0  0  0
   12.9435  -19.5070   21.3276 O   0  0  0  0  0  0  0  0  0  0  0  0
   11.5623  -17.9306   22.3991 C   0  0  0  0  0  0  0  0  0  0  0  0
   10.1648  -17.6271   22.7944 C   0  0  0  0  0  0  0  0  0  0  0  0
    9.9600  -16.3258   23.5249 C   0  0  2  0  0  0  0  0  0  0  0  0
    9.8855  -15.2882   22.4903 N   0  0  0  0  0  0  0  0  0  0  0  0
   11.0759  -16.0418   24.4616 C   0  0  0  0  0  0  0  0  0  0  0  0
   11.2190  -16.7293   25.4979 O   0  0  0  0  0  0  0  0  0  0  0  0
   11.9704  -15.0219   24.2086 O   0  0  0  0  0  0  0  0  0  0  0  0
  2  1  1  6
  2  9  1  0
  3  2  1  0
  4  5  2  0
  4  3  1  0
  6  5  1  0
  7  8  2  0
  7  6  1  0
  8  4  1  0
  9 11  1  0
 10  9  2  0
 11 15  1  0
 11 12  1  0
 12 13  1  0
 14 15  1  0
 14 13  1  0
 15 16  1  1
 16 17  2  0
 18 19  1  0
 19 21  1  0
 20 19  2  0
 21 22  1  0
 23 22  1  6
 23 24  1  0
 24 16  1  0
 25 23  1  0
 26 25  2  0
 27 25  1  0
M  END
$$$$
