HPQ.pdb
     RDKit          3D

 27 28  0  0  1  0  0  0  0  0999 V2000
   10.1674  -15.3538   15.1491 N   0  0  0  0  0  0  0  0  0  0  0  0
    9.0976  -14.9296   16.0544 C   0  0  1  0  0  0  0  0  0  0  0  0
    8.0035  -15.9783   15.8559 C   0  0  0  0  0  0  0  0  0  0  0  0
    7.4685  -15.9549   14.4865 C   0  0  0  0  0  0  0  0  0  0  0  0
    7.4488  -14.9487   13.5615 C   0  0  0  0  0  0  0  0  0  0  0  0
    6.8484  -15.4076   12.4474 N   0  0  0  0  0  0  0  0  0  0  0  0
    6.4832  -16.6906   12.6426 C   0  0  0  0  0  0  0  0  0  0  0  0
    6.8637  -17.0076   13.8774 N   0  0  0  0  0  0  0  0  0  0  0  0
    9.5623  -14.9205   17.4577 C   0  0  0  0  0  0  0  0  0  0  0  0
   10.4727  -15.7274   17.7751 O   0  0  0  0  0  0  0  0  0  0  0  0
    9.0287  -14.0527   18.4351 N   0  0  0  0  0  0  0  0  0  0  0  0
    8.4579  -12.7411   18.0677 C   0  0  0  0  0  0  0  0  0  0  0  0
    7.1363  -12.8258   18.7608 C   0  0  0  0  0  0  0  0  0  0  0  0
    7.5432  -13.4578   20.0991 C   0  0  0  0  0  0  0  0  0  0  0  0
    8.9212  -14.0942   19.8410 C   0  0  1  0  0  0  0  0  0  0  0  0
    8.8914  -15.4002   20.4984 C   0  0  0  0  0  0  0  0  0  0  0  0
    8.0075  -16.2825   20.3914 O   0  0  0  0  0  0  0  0  0  0  0  0
   13.9627  -18.7726   21.1566 N   0  0  0  0  0  0  0  0  0  0  0  0
   13.0943  -19.4296   22.0630 C   0  0  0  0  0  0  0  0  0  0  0  0
   13.4774  -20.4919   22.5986 O   0  0  0  0  0  0  0  0  0  0  0  0
   11.7843  -18.8741   22.3593 C   0  0  0  0  0  0  0  0  0  0  0  0
   11.4223  -17.6005   21.6898 C   0  0  0  0  0  0  0  0  0  0  0  0
   10.0600  -17.0509   22.0232 C   0  0  2  0  0  0  0  0  0  0  0  0
    9.9814  -15.7397   21.3695 N   0  0  0  0  0  0  0  0  0  0  0  0
    9.8698  -16.9095   23.4885 C   0  0  0  0  0  0  0  0  0  0  0  0
    9.7889  -17.9262   24.2142 O   0  0  0  0  0  0  0  0  0  0  0  0
    9.7799  -15.6630   24.0737 O   0  0  0  0  0  0  0  0  0  0  0  0
  2  1  1  6
  2  9  1  0
  3  2  1  0
  4  5  2  0
  4  3  1  0
  6  5  1  0
  7  8  2  0
  7  6  1  0
  8  4  1  0
  9 11  1  0
 10  9  2  0
 11 15  1  0
 11 12  1  0
 12 13  1  0
 14 15  1  0
 14 13  1  0
 15 16  1  6
 16 17  2  0
 18 19  1  0
 19 21  1  0
 20 19  2  0
 21 22  1  0
 23 22  1  1
 23 24  1  0
 24 16  1  0
 25 23  1  0
 26 25  2  0
 27 25  1  0
M  END
$$$$
