HPQ.pdb
     RDKit          3D

 27 28  0  0  1  0  0  0  0  0999 V2000
   10.1948  -14.4725   21.2305 N   0  0  0  0  0  0  0  0  0  0  0  0
    8.9840  -14.0506   21.9377 C   0  0  1  0  0  0  0  0  0  0  0  0
    7.8437  -14.6480   21.1136 C   0  0  0  0  0  0  0  0  0  0  0  0
    7.8195  -14.1088   19.7459 C   0  0  0  0  0  0  0  0  0  0  0  0
    7.7169  -12.8189   19.3051 C   0  0  0  0  0  0  0  0  0  0  0  0
    7.7386  -12.8271   17.9591 N   0  0  0  0  0  0  0  0  0  0  0  0
    7.8535  -14.0998   17.5298 C   0  0  0  0  0  0  0  0  0  0  0  0
    7.9013  -14.8626   18.6188 N   0  0  0  0  0  0  0  0  0  0  0  0
    8.9633  -14.5810   23.3174 C   0  0  0  0  0  0  0  0  0  0  0  0
    9.6420  -15.6122   23.5553 O   0  0  0  0  0  0  0  0  0  0  0  0
    8.2214  -13.9799   24.3573 N   0  0  0  0  0  0  0  0  0  0  0  0
    7.6470  -12.6276   24.2081 C   0  0  0  0  0  0  0  0  0  0  0  0
    6.2335  -12.8957   24.6136 C   0  0  0  0  0  0  0  0  0  0  0  0
    6.4416  -13.8227   25.8193 C   0  0  0  0  0  0  0  0  0  0  0  0
    7.8778  -14.3576   25.6724 C   0  0  1  0  0  0  0  0  0  0  0  0
    7.8115  -15.7831   25.9921 C   0  0  0  0  0  0  0  0  0  0  0  0
    7.3971  -16.7071   25.2533 O   0  0  0  0  0  0  0  0  0  0  0  0
   10.7071  -17.4231   31.3385 N   0  0  0  0  0  0  0  0  0  0  0  0
   10.6306  -16.2730   30.5146 C   0  0  0  0  0  0  0  0  0  0  0  0
   11.1551  -15.2115   30.9149 O   0  0  0  0  0  0  0  0  0  0  0  0
    9.9529  -16.3329   29.2302 C   0  0  0  0  0  0  0  0  0  0  0  0
    9.3519  -17.6328   28.8424 C   0  0  0  0  0  0  0  0  0  0  0  0
    8.5108  -17.6173   27.5928 C   0  0  2  0  0  0  0  0  0  0  0  0
    8.2640  -16.2033   27.2886 N   0  0  0  0  0  0  0  0  0  0  0  0
    7.2263  -18.3352   27.7881 C   0  0  0  0  0  0  0  0  0  0  0  0
    6.1567  -17.6942   27.8976 O   0  0  0  0  0  0  0  0  0  0  0  0
    7.1880  -19.7132   27.8516 O   0  0  0  0  0  0  0  0  0  0  0  0
  2  1  1  6
  2  9  1  0
  3  2  1  0
  4  5  2  0
  4  3  1  0
  6  5  1  0
  7  8  2  0
  7  6  1  0
  8  4  1  0
  9 11  1  0
 10  9  2  0
 11 15  1  0
 11 12  1  0
 12 13  1  0
 14 15  1  0
 14 13  1  0
 15 16  1  6
 16 17  2  0
 18 19  1  0
 19 21  1  0
 20 19  2  0
 21 22  1  0
 23 22  1  1
 23 24  1  0
 24 16  1  0
 25 23  1  0
 26 25  2  0
 27 25  1  0
M  END
$$$$
