FSM.pdb
     RDKit          3D

 26 26  0  0  1  0  0  0  0  0999 V2000
   30.7339  -34.7533   -4.6296 N   0  0  0  0  0  0  0  0  0  0  0  0
   30.6048  -35.4387   -3.3542 C   0  0  1  0  0  0  0  0  0  0  0  0
   31.7708  -35.0089   -2.5272 C   0  0  0  0  0  0  0  0  0  0  0  0
   33.0573  -35.5983   -2.8339 C   0  0  0  0  0  0  0  0  0  0  0  0
   34.2317  -34.8780   -2.9946 C   0  0  0  0  0  0  0  0  0  0  0  0
   35.4123  -35.5086   -3.2812 C   0  0  0  0  0  0  0  0  0  0  0  0
   35.4939  -36.8702   -3.4226 C   0  0  0  0  0  0  0  0  0  0  0  0
   34.3380  -37.5911   -3.2655 C   0  0  0  0  0  0  0  0  0  0  0  0
   33.1356  -36.9710   -2.9756 C   0  0  0  0  0  0  0  0  0  0  0  0
   29.3336  -34.9967   -2.7376 C   0  0  0  0  0  0  0  0  0  0  0  0
   28.8761  -33.8257   -2.9633 O   0  0  0  0  0  0  0  0  0  0  0  0
   27.4435  -37.5079    0.0683 O   0  0  0  0  0  0  0  0  0  0  0  0
   26.6383  -36.7282   -0.7336 C   0  0  0  0  0  0  0  0  0  0  0  0
   27.3893  -35.4762   -1.2052 C   0  0  2  0  0  0  0  0  0  0  0  0
   28.6003  -35.8430   -1.8944 N   0  0  0  0  0  0  0  0  0  0  0  0
   27.7390  -34.7382    0.0539 C   0  0  0  0  0  0  0  0  0  0  0  0
   28.9277  -34.7682    0.4543 O   0  0  0  0  0  0  0  0  0  0  0  0
   25.3715  -29.4360    5.4365 C   0  0  0  0  0  0  0  0  0  0  0  0
   24.8844  -30.4723    4.0118 S   0  0  0  0  0  0  0  0  0  0  0  0
   26.3044  -31.5300    3.5541 C   0  0  0  0  0  0  0  0  0  0  0  0
   26.0138  -32.3115    2.3180 C   0  0  0  0  0  0  0  0  0  0  0  0
   27.1361  -33.2361    1.9604 C   0  0  2  0  0  0  0  0  0  0  0  0
   26.7774  -34.0260    0.7821 N   0  0  0  0  0  0  0  0  0  0  0  0
   27.4473  -34.1870    3.0435 C   0  0  0  0  0  0  0  0  0  0  0  0
   28.4114  -33.8629    4.0164 O   0  0  0  0  0  0  0  0  0  0  0  0
   26.9117  -35.3131    3.1937 O   0  0  0  0  0  0  0  0  0  0  0  0
  2 10  1  0
  2  1  1  6
  3  2  1  0
  4  3  1  0
  5  4  2  0
  6  5  1  0
  7  6  2  0
  7  8  1  0
  8  9  2  0
  9  4  1  0
 10 11  2  0
 13 12  1  0
 14 13  1  1
 15 14  1  0
 15 10  1  0
 16 14  1  0
 17 16  2  0
 18 19  1  0
 19 20  1  0
 20 21  1  0
 22 21  1  1
 22 23  1  0
 23 16  1  0
 24 22  1  0
 24 25  1  0
 26 24  2  0
M  END
$$$$
