FSM.pdb
     RDKit          3D

 26 26  0  0  1  0  0  0  0  0999 V2000
   24.7973  -17.4939  -15.6512 N   0  0  0  0  0  0  0  0  0  0  0  0
   25.8988  -18.1411  -14.9577 C   0  0  1  0  0  0  0  0  0  0  0  0
   26.7947  -17.0466  -14.4804 C   0  0  0  0  0  0  0  0  0  0  0  0
   27.5849  -16.3522  -15.4752 C   0  0  0  0  0  0  0  0  0  0  0  0
   27.4252  -15.0158  -15.8108 C   0  0  0  0  0  0  0  0  0  0  0  0
   28.2150  -14.4282  -16.7618 C   0  0  0  0  0  0  0  0  0  0  0  0
   29.1943  -15.1227  -17.4246 C   0  0  0  0  0  0  0  0  0  0  0  0
   29.3599  -16.4447  -17.0996 C   0  0  0  0  0  0  0  0  0  0  0  0
   28.5710  -17.0556  -16.1411 C   0  0  0  0  0  0  0  0  0  0  0  0
   25.3279  -18.8873  -13.8137 C   0  0  0  0  0  0  0  0  0  0  0  0
   24.3779  -18.3868  -13.1221 O   0  0  0  0  0  0  0  0  0  0  0  0
   24.8376  -23.2039  -11.6985 O   0  0  0  0  0  0  0  0  0  0  0  0
   25.4142  -22.4439  -12.6930 C   0  0  0  0  0  0  0  0  0  0  0  0
   25.3155  -20.9491  -12.3619 C   0  0  2  0  0  0  0  0  0  0  0  0
   25.8091  -20.1551  -13.4583 N   0  0  0  0  0  0  0  0  0  0  0  0
   26.2070  -20.7577  -11.1699 C   0  0  0  0  0  0  0  0  0  0  0  0
   27.4321  -20.9978  -11.2944 O   0  0  0  0  0  0  0  0  0  0  0  0
   28.2399  -17.8002   -6.3607 C   0  0  0  0  0  0  0  0  0  0  0  0
   28.5880  -19.4847   -5.7425 S   0  0  0  0  0  0  0  0  0  0  0  0
   27.6030  -20.6748   -6.7214 C   0  0  0  0  0  0  0  0  0  0  0  0
   26.9390  -20.0007   -7.8736 C   0  0  0  0  0  0  0  0  0  0  0  0
   26.1079  -20.9514   -8.6785 C   0  0  2  0  0  0  0  0  0  0  0  0
   25.7052  -20.3222   -9.9366 N   0  0  0  0  0  0  0  0  0  0  0  0
   24.8738  -21.3508   -7.9772 C   0  0  0  0  0  0  0  0  0  0  0  0
   24.9417  -22.1605   -6.8279 O   0  0  0  0  0  0  0  0  0  0  0  0
   23.7098  -21.0248   -8.3185 O   0  0  0  0  0  0  0  0  0  0  0  0
  2 10  1  0
  2  1  1  1
  3  2  1  0
  4  3  1  0
  5  4  2  0
  6  5  1  0
  7  6  2  0
  7  8  1  0
  8  9  2  0
  9  4  1  0
 10 11  2  0
 13 12  1  0
 14 13  1  6
 15 14  1  0
 15 10  1  0
 16 14  1  0
 17 16  2  0
 18 19  1  0
 19 20  1  0
 20 21  1  0
 22 21  1  1
 22 23  1  0
 23 16  1  0
 24 22  1  0
 24 25  1  0
 26 24  2  0
M  END
$$$$
