FSM.pdb
     RDKit          3D

 26 26  0  0  1  0  0  0  0  0999 V2000
   24.9744  -21.2427   -8.5291 N   0  0  0  0  0  0  0  0  0  0  0  0
   25.9989  -20.2390   -8.7660 C   0  0  1  0  0  0  0  0  0  0  0  0
   27.2724  -20.8054   -8.2315 C   0  0  0  0  0  0  0  0  0  0  0  0
   27.7672  -20.2670   -6.9818 C   0  0  0  0  0  0  0  0  0  0  0  0
   27.2232  -19.1699   -6.3303 C   0  0  0  0  0  0  0  0  0  0  0  0
   27.7459  -18.7213   -5.1475 C   0  0  0  0  0  0  0  0  0  0  0  0
   28.8227  -19.3269   -4.5521 C   0  0  0  0  0  0  0  0  0  0  0  0
   29.3675  -20.4125   -5.1886 C   0  0  0  0  0  0  0  0  0  0  0  0
   28.8526  -20.8801   -6.3846 C   0  0  0  0  0  0  0  0  0  0  0  0
   26.0904  -20.0326  -10.2290 C   0  0  0  0  0  0  0  0  0  0  0  0
   26.6772  -19.0019  -10.7031 O   0  0  0  0  0  0  0  0  0  0  0  0
   25.8380  -23.2307  -12.7019 O   0  0  0  0  0  0  0  0  0  0  0  0
   26.3631  -22.0419  -13.1604 C   0  0  0  0  0  0  0  0  0  0  0  0
   25.6059  -20.8474  -12.5657 C   0  0  2  0  0  0  0  0  0  0  0  0
   25.5404  -20.9547  -11.1304 N   0  0  0  0  0  0  0  0  0  0  0  0
   24.2206  -20.9460  -13.1344 C   0  0  0  0  0  0  0  0  0  0  0  0
   24.0872  -20.9849  -14.3814 O   0  0  0  0  0  0  0  0  0  0  0  0
   18.3759  -23.2328  -11.0081 C   0  0  0  0  0  0  0  0  0  0  0  0
   19.9260  -24.1710  -11.2480 S   0  0  0  0  0  0  0  0  0  0  0  0
   21.0672  -23.1548  -12.2529 C   0  0  0  0  0  0  0  0  0  0  0  0
   20.7790  -21.7016  -12.0856 C   0  0  0  0  0  0  0  0  0  0  0  0
   21.7374  -20.8460  -12.8550 C   0  0  2  0  0  0  0  0  0  0  0  0
   23.0878  -20.9946  -12.3117 N   0  0  0  0  0  0  0  0  0  0  0  0
   21.3944  -19.4138  -12.7827 C   0  0  0  0  0  0  0  0  0  0  0  0
   20.5789  -18.8292  -13.7697 O   0  0  0  0  0  0  0  0  0  0  0  0
   21.7750  -18.6231  -11.8840 O   0  0  0  0  0  0  0  0  0  0  0  0
  2 10  1  0
  2  1  1  6
  3  2  1  0
  4  3  1  0
  5  4  2  0
  6  5  1  0
  7  6  2  0
  7  8  1  0
  8  9  2  0
  9  4  1  0
 10 11  2  0
 13 12  1  0
 14 13  1  6
 15 14  1  0
 15 10  1  0
 16 14  1  0
 17 16  2  0
 18 19  1  0
 19 20  1  0
 20 21  1  0
 22 21  1  1
 22 23  1  0
 23 16  1  0
 24 22  1  0
 24 25  1  0
 26 24  2  0
M  END
$$$$
