FSM.pdb
     RDKit          3D

 26 26  0  0  1  0  0  0  0  0999 V2000
   27.8223  -24.2396  -16.9315 N   0  0  0  0  0  0  0  0  0  0  0  0
   26.9004  -23.2569  -17.4769 C   0  0  1  0  0  0  0  0  0  0  0  0
   25.8191  -24.0287  -18.1576 C   0  0  0  0  0  0  0  0  0  0  0  0
   26.1525  -24.6810  -19.4065 C   0  0  0  0  0  0  0  0  0  0  0  0
   26.2448  -26.0548  -19.5737 C   0  0  0  0  0  0  0  0  0  0  0  0
   26.5625  -26.5976  -20.7894 C   0  0  0  0  0  0  0  0  0  0  0  0
   26.8032  -25.8196  -21.8928 C   0  0  0  0  0  0  0  0  0  0  0  0
   26.7144  -24.4600  -21.7375 C   0  0  0  0  0  0  0  0  0  0  0  0
   26.3944  -23.8935  -20.5164 C   0  0  0  0  0  0  0  0  0  0  0  0
   26.3544  -22.4800  -16.3412 C   0  0  0  0  0  0  0  0  0  0  0  0
   26.2836  -22.9978  -15.1757 O   0  0  0  0  0  0  0  0  0  0  0  0
   24.8012  -18.7336  -17.1464 O   0  0  0  0  0  0  0  0  0  0  0  0
   25.3930  -18.8492  -15.9071 C   0  0  0  0  0  0  0  0  0  0  0  0
   25.4193  -20.3139  -15.4512 C   0  0  2  0  0  0  0  0  0  0  0  0
   25.9023  -21.1638  -16.5097 N   0  0  0  0  0  0  0  0  0  0  0  0
   23.9872  -20.6528  -15.1571 C   0  0  0  0  0  0  0  0  0  0  0  0
   23.3113  -21.2199  -16.0492 O   0  0  0  0  0  0  0  0  0  0  0  0
   20.8891  -18.8881   -9.6045 C   0  0  0  0  0  0  0  0  0  0  0  0
   19.9068  -20.3403  -10.1208 S   0  0  0  0  0  0  0  0  0  0  0  0
   20.2538  -20.6755  -11.8849 C   0  0  0  0  0  0  0  0  0  0  0  0
   21.6947  -20.4556  -12.1986 C   0  0  0  0  0  0  0  0  0  0  0  0
   21.9870  -20.6374  -13.6560 C   0  0  2  0  0  0  0  0  0  0  0  0
   23.3971  -20.3523  -13.9227 N   0  0  0  0  0  0  0  0  0  0  0  0
   21.1917  -19.7320  -14.5056 C   0  0  0  0  0  0  0  0  0  0  0  0
   20.0707  -20.2177  -15.2045 O   0  0  0  0  0  0  0  0  0  0  0  0
   21.4247  -18.5097  -14.6768 O   0  0  0  0  0  0  0  0  0  0  0  0
  2 10  1  0
  2  1  1  1
  3  2  1  0
  4  3  1  0
  5  4  2  0
  6  5  1  0
  7  6  2  0
  7  8  1  0
  8  9  2  0
  9  4  1  0
 10 11  2  0
 13 12  1  0
 14 13  1  6
 15 14  1  0
 15 10  1  0
 16 14  1  0
 17 16  2  0
 18 19  1  0
 19 20  1  0
 20 21  1  0
 22 21  1  1
 22 23  1  0
 23 16  1  0
 24 22  1  0
 24 25  1  0
 26 24  2  0
M  END
$$$$
