FSM.pdb
     RDKit          3D

 26 26  0  0  1  0  0  0  0  0999 V2000
   24.3503  -19.4131  -18.8524 N   0  0  0  0  0  0  0  0  0  0  0  0
   24.4926  -18.6617  -17.6162 C   0  0  1  0  0  0  0  0  0  0  0  0
   23.1438  -18.1009  -17.3088 C   0  0  0  0  0  0  0  0  0  0  0  0
   22.6571  -17.0346  -18.1588 C   0  0  0  0  0  0  0  0  0  0  0  0
   21.6351  -17.1751  -19.0860 C   0  0  0  0  0  0  0  0  0  0  0  0
   21.2277  -16.1168  -19.8525 C   0  0  0  0  0  0  0  0  0  0  0  0
   21.8027  -14.8765  -19.7444 C   0  0  0  0  0  0  0  0  0  0  0  0
   22.8140  -14.7275  -18.8304 C   0  0  0  0  0  0  0  0  0  0  0  0
   23.2391  -15.7858  -18.0470 C   0  0  0  0  0  0  0  0  0  0  0  0
   24.9173  -19.6121  -16.5637 C   0  0  0  0  0  0  0  0  0  0  0  0
   24.2269  -20.6582  -16.3176 O   0  0  0  0  0  0  0  0  0  0  0  0
   28.1921  -18.5790  -14.2108 O   0  0  0  0  0  0  0  0  0  0  0  0
   28.0045  -19.9309  -14.4016 C   0  0  0  0  0  0  0  0  0  0  0  0
   26.5381  -20.2349  -14.7351 C   0  0  2  0  0  0  0  0  0  0  0  0
   26.0802  -19.3941  -15.8118 N   0  0  0  0  0  0  0  0  0  0  0  0
   25.7795  -19.8977  -13.4850 C   0  0  0  0  0  0  0  0  0  0  0  0
   24.9781  -18.9327  -13.5135 O   0  0  0  0  0  0  0  0  0  0  0  0
   20.0024  -20.2906   -9.2658 C   0  0  0  0  0  0  0  0  0  0  0  0
   21.0548  -20.8082  -10.6677 S   0  0  0  0  0  0  0  0  0  0  0  0
   22.7925  -20.4029  -10.2666 C   0  0  0  0  0  0  0  0  0  0  0  0
   23.6742  -20.5906  -11.4542 C   0  0  0  0  0  0  0  0  0  0  0  0
   25.1187  -20.3782  -11.1213 C   0  0  2  0  0  0  0  0  0  0  0  0
   25.9461  -20.6288  -12.3018 N   0  0  0  0  0  0  0  0  0  0  0  0
   25.5896  -21.2861  -10.0591 C   0  0  0  0  0  0  0  0  0  0  0  0
   25.4969  -20.9045   -8.7076 O   0  0  0  0  0  0  0  0  0  0  0  0
   26.0897  -22.4227  -10.2479 O   0  0  0  0  0  0  0  0  0  0  0  0
  2 10  1  0
  2  1  1  6
  3  2  1  0
  4  3  1  0
  5  4  2  0
  6  5  1  0
  7  6  2  0
  7  8  1  0
  8  9  2  0
  9  4  1  0
 10 11  2  0
 13 12  1  0
 14 13  1  1
 15 14  1  0
 15 10  1  0
 16 14  1  0
 17 16  2  0
 18 19  1  0
 19 20  1  0
 20 21  1  0
 22 21  1  6
 22 23  1  0
 23 16  1  0
 24 22  1  0
 24 25  1  0
 26 24  2  0
M  END
$$$$
