FSM.pdb
     RDKit          3D

 26 26  0  0  1  0  0  0  0  0999 V2000
   28.0264  -18.3115  -18.5364 N   0  0  0  0  0  0  0  0  0  0  0  0
   28.0770  -19.1882  -17.3780 C   0  0  1  0  0  0  0  0  0  0  0  0
   28.1310  -18.2984  -16.1806 C   0  0  0  0  0  0  0  0  0  0  0  0
   27.8950  -18.9071  -14.8883 C   0  0  0  0  0  0  0  0  0  0  0  0
   26.9405  -18.4740  -13.9798 C   0  0  0  0  0  0  0  0  0  0  0  0
   26.7745  -19.1048  -12.7765 C   0  0  0  0  0  0  0  0  0  0  0  0
   27.5350  -20.1859  -12.4111 C   0  0  0  0  0  0  0  0  0  0  0  0
   28.4814  -20.6217  -13.3026 C   0  0  0  0  0  0  0  0  0  0  0  0
   28.6634  -19.9966  -14.5235 C   0  0  0  0  0  0  0  0  0  0  0  0
   26.8360  -19.9953  -17.3756 C   0  0  0  0  0  0  0  0  0  0  0  0
   25.7003  -19.4389  -17.5551 O   0  0  0  0  0  0  0  0  0  0  0  0
   27.1907  -24.0691  -16.6302 O   0  0  0  0  0  0  0  0  0  0  0  0
   26.0674  -23.6875  -17.3315 C   0  0  0  0  0  0  0  0  0  0  0  0
   25.7103  -22.2255  -17.0331 C   0  0  2  0  0  0  0  0  0  0  0  0
   26.8699  -21.3826  -17.1779 N   0  0  0  0  0  0  0  0  0  0  0  0
   25.2692  -22.2205  -15.5987 C   0  0  0  0  0  0  0  0  0  0  0  0
   26.0601  -22.6571  -14.7280 O   0  0  0  0  0  0  0  0  0  0  0  0
   26.6866  -20.8233  -10.3723 C   0  0  0  0  0  0  0  0  0  0  0  0
   25.1749  -19.8155  -10.5713 S   0  0  0  0  0  0  0  0  0  0  0  0
   23.9841  -20.7551  -11.5931 C   0  0  0  0  0  0  0  0  0  0  0  0
   24.4813  -20.9085  -12.9903 C   0  0  0  0  0  0  0  0  0  0  0  0
   23.5718  -21.7606  -13.8205 C   0  0  2  0  0  0  0  0  0  0  0  0
   24.0081  -21.7448  -15.2170 N   0  0  0  0  0  0  0  0  0  0  0  0
   22.1768  -21.2836  -13.7949 C   0  0  0  0  0  0  0  0  0  0  0  0
   21.5857  -20.7581  -14.9591 O   0  0  0  0  0  0  0  0  0  0  0  0
   21.4248  -21.3001  -12.7890 O   0  0  0  0  0  0  0  0  0  0  0  0
  2 10  1  0
  2  1  1  6
  3  2  1  0
  4  3  1  0
  5  4  2  0
  6  5  1  0
  7  6  2  0
  7  8  1  0
  8  9  2  0
  9  4  1  0
 10 11  2  0
 13 12  1  0
 14 13  1  1
 15 14  1  0
 15 10  1  0
 16 14  1  0
 17 16  2  0
 18 19  1  0
 19 20  1  0
 20 21  1  0
 22 21  1  1
 22 23  1  0
 23 16  1  0
 24 22  1  0
 24 25  1  0
 26 24  2  0
M  END
$$$$
