FSM.pdb
     RDKit          3D

 26 26  0  0  1  0  0  0  0  0999 V2000
   28.3982  -20.6425   -8.7481 N   0  0  0  0  0  0  0  0  0  0  0  0
   26.9659  -20.7096   -8.5095 C   0  0  1  0  0  0  0  0  0  0  0  0
   26.6965  -19.8395   -7.3268 C   0  0  0  0  0  0  0  0  0  0  0  0
   27.6743  -19.8472   -6.2588 C   0  0  0  0  0  0  0  0  0  0  0  0
   28.5086  -18.7826   -5.9516 C   0  0  0  0  0  0  0  0  0  0  0  0
   29.4072  -18.8649   -4.9223 C   0  0  0  0  0  0  0  0  0  0  0  0
   29.5275  -19.9919   -4.1503 C   0  0  0  0  0  0  0  0  0  0  0  0
   28.7069  -21.0499   -4.4463 C   0  0  0  0  0  0  0  0  0  0  0  0
   27.7926  -20.9849   -5.4828 C   0  0  0  0  0  0  0  0  0  0  0  0
   26.2883  -20.1802   -9.7145 C   0  0  0  0  0  0  0  0  0  0  0  0
   26.0069  -18.9377   -9.8071 O   0  0  0  0  0  0  0  0  0  0  0  0
   26.4182  -22.4848  -12.9797 O   0  0  0  0  0  0  0  0  0  0  0  0
   26.0604  -21.1755  -13.2185 C   0  0  0  0  0  0  0  0  0  0  0  0
   25.3245  -20.5834  -12.0095 C   0  0  2  0  0  0  0  0  0  0  0  0
   25.9382  -21.0197  -10.7812 N   0  0  0  0  0  0  0  0  0  0  0  0
   23.9331  -21.1395  -12.0938 C   0  0  0  0  0  0  0  0  0  0  0  0
   23.3598  -21.4806  -11.0312 O   0  0  0  0  0  0  0  0  0  0  0  0
   19.4525  -18.6733  -10.3236 C   0  0  0  0  0  0  0  0  0  0  0  0
   19.0024  -18.6493  -12.0949 S   0  0  0  0  0  0  0  0  0  0  0  0
   19.7174  -20.1313  -12.8932 C   0  0  0  0  0  0  0  0  0  0  0  0
   21.2013  -20.1541  -12.7491 C   0  0  0  0  0  0  0  0  0  0  0  0
   21.8109  -21.3577  -13.3988 C   0  0  2  0  0  0  0  0  0  0  0  0
   23.2700  -21.2839  -13.3193 N   0  0  0  0  0  0  0  0  0  0  0  0
   21.4577  -21.4647  -14.8264 C   0  0  0  0  0  0  0  0  0  0  0  0
   20.3828  -22.2777  -15.2320 O   0  0  0  0  0  0  0  0  0  0  0  0
   22.0484  -20.8736  -15.7642 O   0  0  0  0  0  0  0  0  0  0  0  0
  2 10  1  0
  2  1  1  6
  3  2  1  0
  4  3  1  0
  5  4  2  0
  6  5  1  0
  7  6  2  0
  7  8  1  0
  8  9  2  0
  9  4  1  0
 10 11  2  0
 13 12  1  0
 14 13  1  6
 15 14  1  0
 15 10  1  0
 16 14  1  0
 17 16  2  0
 18 19  1  0
 19 20  1  0
 20 21  1  0
 22 21  1  6
 22 23  1  0
 23 16  1  0
 24 22  1  0
 24 25  1  0
 26 24  2  0
M  END
$$$$
