VKY.pdb
     RDKit          3D

 29 29  0  0  1  0  0  0  0  0999 V2000
    7.4456  -12.0655   25.1296 C   0  0  0  0  0  0  0  0  0  0  0  0
    6.7586  -13.1788   25.8610 C   0  0  1  0  0  0  0  0  0  0  0  0
    5.7001  -12.6814   26.8185 C   0  0  0  0  0  0  0  0  0  0  0  0
    6.1148  -14.1670   24.9043 C   0  0  2  0  0  0  0  0  0  0  0  0
    5.6779  -15.2915   25.7012 N   0  0  0  0  0  0  0  0  0  0  0  0
    7.1722  -14.6239   23.9797 C   0  0  0  0  0  0  0  0  0  0  0  0
    7.8348  -15.6733   24.2658 O   0  0  0  0  0  0  0  0  0  0  0  0
    7.4236  -13.8888   22.8028 N   0  0  0  0  0  0  0  0  0  0  0  0
    8.4893  -14.3689   21.8655 C   0  0  1  0  0  0  0  0  0  0  0  0
    8.4039  -13.4128   20.7347 C   0  0  0  0  0  0  0  0  0  0  0  0
    7.6991  -13.7747   19.4898 C   0  0  0  0  0  0  0  0  0  0  0  0
    8.6020  -14.4061   18.4777 C   0  0  0  0  0  0  0  0  0  0  0  0
    7.8681  -14.7006   17.1756 C   0  0  0  0  0  0  0  0  0  0  0  0
    8.8298  -15.2715   16.2310 N   0  0  0  0  0  0  0  0  0  0  0  0
    9.7082  -14.4869   22.6309 C   0  0  0  0  0  0  0  0  0  0  0  0
   10.3582  -13.4296   22.9652 O   0  0  0  0  0  0  0  0  0  0  0  0
   11.3351  -15.9214   30.7603 O   0  0  0  0  0  0  0  0  0  0  0  0
   10.9063  -15.8116   29.4426 C   0  0  0  0  0  0  0  0  0  0  0  0
   10.6403  -16.9400   28.7082 C   0  0  0  0  0  0  0  0  0  0  0  0
   10.2069  -16.8869   27.3805 C   0  0  0  0  0  0  0  0  0  0  0  0
   10.0361  -15.6682   26.7734 C   0  0  0  0  0  0  0  0  0  0  0  0
    9.5879  -15.5249   25.3804 C   0  0  0  0  0  0  0  0  0  0  0  0
   10.7288  -15.8495   24.4210 C   0  0  2  0  0  0  0  0  0  0  0  0
   10.2405  -15.7290   23.0632 N   0  0  0  0  0  0  0  0  0  0  0  0
   11.2664  -17.2073   24.6072 C   0  0  0  0  0  0  0  0  0  0  0  0
   12.2383  -17.4586   25.5346 O   0  0  0  0  0  0  0  0  0  0  0  0
   10.3084  -14.5208   27.5261 C   0  0  0  0  0  0  0  0  0  0  0  0
   10.7348  -14.5972   28.8345 C   0  0  0  0  0  0  0  0  0  0  0  0
   10.8221  -18.1411   23.9007 O   0  0  0  0  0  0  0  0  0  0  0  0
  2  1  1  6
  2  3  1  0
  4  2  1  0
  4  5  1  1
  6  7  2  0
  6  4  1  0
  8  6  1  0
  9  8  1  0
  9 10  1  6
 11 12  1  0
 11 10  1  0
 13 12  1  0
 14 13  1  0
 15  9  1  0
 16 15  2  0
 17 18  1  0
 18 28  2  0
 19 20  2  0
 19 18  1  0
 20 21  1  0
 21 22  1  0
 21 27  2  0
 23 22  1  1
 23 24  1  0
 24 15  1  0
 25 26  1  0
 25 23  1  0
 28 27  1  0
 29 25  2  0
M  END
$$$$
