VKY.pdb
     RDKit          3D

 29 29  0  0  1  0  0  0  0  0999 V2000
   14.0017  -17.8491   14.4688 C   0  0  0  0  0  0  0  0  0  0  0  0
   12.9035  -16.9689   13.9536 C   0  0  1  0  0  0  0  0  0  0  0  0
   12.9280  -16.8264   12.4489 C   0  0  0  0  0  0  0  0  0  0  0  0
   11.5338  -17.4793   14.3655 C   0  0  2  0  0  0  0  0  0  0  0  0
   10.5670  -16.5364   13.8490 N   0  0  0  0  0  0  0  0  0  0  0  0
   11.4868  -17.4455   15.8416 C   0  0  0  0  0  0  0  0  0  0  0  0
   11.4918  -16.3192   16.4362 O   0  0  0  0  0  0  0  0  0  0  0  0
   11.4373  -18.6594   16.5576 N   0  0  0  0  0  0  0  0  0  0  0  0
   11.5042  -18.6182   18.0538 C   0  0  1  0  0  0  0  0  0  0  0  0
   10.7573  -19.8332   18.4613 C   0  0  0  0  0  0  0  0  0  0  0  0
    9.2863  -19.8136   18.5767 C   0  0  0  0  0  0  0  0  0  0  0  0
    8.7303  -21.1033   19.0922 C   0  0  0  0  0  0  0  0  0  0  0  0
    7.2074  -21.0847   19.1279 C   0  0  0  0  0  0  0  0  0  0  0  0
    6.7524  -22.3264   19.7557 N   0  0  0  0  0  0  0  0  0  0  0  0
   12.8939  -18.4609   18.4138 C   0  0  0  0  0  0  0  0  0  0  0  0
   13.8121  -18.7710   17.5697 O   0  0  0  0  0  0  0  0  0  0  0  0
   18.6627  -12.4064   18.5588 O   0  0  0  0  0  0  0  0  0  0  0  0
   17.5585  -13.2484   18.6244 C   0  0  0  0  0  0  0  0  0  0  0  0
   17.6071  -14.4943   18.0508 C   0  0  0  0  0  0  0  0  0  0  0  0
   16.5267  -15.3803   18.0874 C   0  0  0  0  0  0  0  0  0  0  0  0
   15.3662  -15.0056   18.7164 C   0  0  0  0  0  0  0  0  0  0  0  0
   14.1833  -15.8753   18.7960 C   0  0  0  0  0  0  0  0  0  0  0  0
   14.4586  -17.0610   19.7155 C   0  0  2  0  0  0  0  0  0  0  0  0
   13.3221  -17.9568   19.6691 N   0  0  0  0  0  0  0  0  0  0  0  0
   14.6842  -16.6620   21.1145 C   0  0  0  0  0  0  0  0  0  0  0  0
   13.7077  -16.8195   22.0577 O   0  0  0  0  0  0  0  0  0  0  0  0
   15.3215  -13.7347   19.2996 C   0  0  0  0  0  0  0  0  0  0  0  0
   16.3996  -12.8774   19.2514 C   0  0  0  0  0  0  0  0  0  0  0  0
   15.7900  -16.1707   21.4377 O   0  0  0  0  0  0  0  0  0  0  0  0
  2  1  1  6
  2  3  1  0
  4  2  1  0
  4  5  1  6
  6  7  2  0
  6  4  1  0
  8  6  1  0
  9  8  1  0
  9 10  1  1
 11 12  1  0
 11 10  1  0
 13 12  1  0
 14 13  1  0
 15  9  1  0
 16 15  2  0
 17 18  1  0
 18 28  2  0
 19 20  2  0
 19 18  1  0
 20 21  1  0
 21 22  1  0
 21 27  2  0
 23 22  1  6
 23 24  1  0
 24 15  1  0
 25 26  1  0
 25 23  1  0
 28 27  1  0
 29 25  2  0
M  END
$$$$
