VKY.pdb
     RDKit          3D

 29 29  0  0  1  0  0  0  0  0999 V2000
    8.5663  -12.6609   21.6643 C   0  0  0  0  0  0  0  0  0  0  0  0
    7.8660  -13.1131   20.4187 C   0  0  1  0  0  0  0  0  0  0  0  0
    8.0102  -12.1301   19.2795 C   0  0  0  0  0  0  0  0  0  0  0  0
    8.3688  -14.4675   19.9511 C   0  0  2  0  0  0  0  0  0  0  0  0
    7.6269  -14.7948   18.7539 N   0  0  0  0  0  0  0  0  0  0  0  0
    8.0228  -15.4435   21.0046 C   0  0  0  0  0  0  0  0  0  0  0  0
    6.7976  -15.7229   21.2124 O   0  0  0  0  0  0  0  0  0  0  0  0
    9.0554  -16.0427   21.7551 N   0  0  0  0  0  0  0  0  0  0  0  0
    8.7072  -17.1387   22.7155 C   0  0  1  0  0  0  0  0  0  0  0  0
    9.2605  -18.3508   22.0637 C   0  0  0  0  0  0  0  0  0  0  0  0
    8.5679  -18.9785   20.9219 C   0  0  0  0  0  0  0  0  0  0  0  0
    9.2694  -20.2020   20.4227 C   0  0  0  0  0  0  0  0  0  0  0  0
    8.5440  -20.8206   19.2344 C   0  0  0  0  0  0  0  0  0  0  0  0
    9.3165  -21.9796   18.7837 N   0  0  0  0  0  0  0  0  0  0  0  0
    9.1798  -16.7301   24.0175 C   0  0  0  0  0  0  0  0  0  0  0  0
   10.2764  -16.0678   24.1209 O   0  0  0  0  0  0  0  0  0  0  0  0
    6.0192  -11.0285   25.5236 O   0  0  0  0  0  0  0  0  0  0  0  0
    6.4723  -12.2635   25.9729 C   0  0  0  0  0  0  0  0  0  0  0  0
    7.7429  -12.3898   26.4759 C   0  0  0  0  0  0  0  0  0  0  0  0
    8.2487  -13.6070   26.9409 C   0  0  0  0  0  0  0  0  0  0  0  0
    7.4579  -14.7276   26.8997 C   0  0  0  0  0  0  0  0  0  0  0  0
    7.9144  -16.0458   27.3644 C   0  0  0  0  0  0  0  0  0  0  0  0
    9.0460  -16.5570   26.4782 C   0  0  2  0  0  0  0  0  0  0  0  0
    8.4833  -17.0072   25.2223 N   0  0  0  0  0  0  0  0  0  0  0  0
    9.7907  -17.6727   27.0848 C   0  0  0  0  0  0  0  0  0  0  0  0
    9.8034  -18.9094   26.5033 O   0  0  0  0  0  0  0  0  0  0  0  0
    6.1634  -14.5938   26.3862 C   0  0  0  0  0  0  0  0  0  0  0  0
    5.6855  -13.3830   25.9332 C   0  0  0  0  0  0  0  0  0  0  0  0
   10.4191  -17.4782   28.1506 O   0  0  0  0  0  0  0  0  0  0  0  0
  2  1  1  1
  2  3  1  0
  4  2  1  0
  4  5  1  6
  6  7  2  0
  6  4  1  0
  8  6  1  0
  9  8  1  0
  9 10  1  6
 11 12  1  0
 11 10  1  0
 13 12  1  0
 14 13  1  0
 15  9  1  0
 16 15  2  0
 17 18  1  0
 18 28  2  0
 19 20  2  0
 19 18  1  0
 20 21  1  0
 21 22  1  0
 21 27  2  0
 23 22  1  1
 23 24  1  0
 24 15  1  0
 25 26  1  0
 25 23  1  0
 28 27  1  0
 29 25  2  0
M  END
$$$$
