VKY.pdb
     RDKit          3D

 29 29  0  0  1  0  0  0  0  0999 V2000
    6.0827  -11.2038   26.1033 C   0  0  0  0  0  0  0  0  0  0  0  0
    6.9273  -12.3364   25.6031 C   0  0  1  0  0  0  0  0  0  0  0  0
    7.8312  -12.9060   26.6724 C   0  0  0  0  0  0  0  0  0  0  0  0
    6.0800  -13.4636   25.0398 C   0  0  2  0  0  0  0  0  0  0  0  0
    5.3341  -14.0160   26.1484 N   0  0  0  0  0  0  0  0  0  0  0  0
    7.0115  -14.4932   24.5356 C   0  0  0  0  0  0  0  0  0  0  0  0
    7.3732  -15.4356   25.3124 O   0  0  0  0  0  0  0  0  0  0  0  0
    7.4785  -14.4094   23.2077 N   0  0  0  0  0  0  0  0  0  0  0  0
    8.4592  -15.4324   22.7213 C   0  0  1  0  0  0  0  0  0  0  0  0
    8.3255  -15.3574   21.2460 C   0  0  0  0  0  0  0  0  0  0  0  0
    7.6706  -16.4422   20.4897 C   0  0  0  0  0  0  0  0  0  0  0  0
    7.7366  -16.2354   19.0094 C   0  0  0  0  0  0  0  0  0  0  0  0
    6.9134  -17.2749   18.2593 C   0  0  0  0  0  0  0  0  0  0  0  0
    7.0700  -17.0296   16.8246 N   0  0  0  0  0  0  0  0  0  0  0  0
    9.7245  -15.1446   23.3551 C   0  0  0  0  0  0  0  0  0  0  0  0
    9.8964  -14.0235   23.9595 O   0  0  0  0  0  0  0  0  0  0  0  0
   10.8780  -14.4092   30.6612 O   0  0  0  0  0  0  0  0  0  0  0  0
   10.7294  -15.0180   29.4204 C   0  0  0  0  0  0  0  0  0  0  0  0
   10.4376  -14.2623   28.3126 C   0  0  0  0  0  0  0  0  0  0  0  0
   10.2777  -14.8227   27.0422 C   0  0  0  0  0  0  0  0  0  0  0  0
   10.4142  -16.1783   26.8794 C   0  0  0  0  0  0  0  0  0  0  0  0
   10.2578  -16.8471   25.5793 C   0  0  0  0  0  0  0  0  0  0  0  0
   11.3883  -16.4447   24.6373 C   0  0  2  0  0  0  0  0  0  0  0  0
   10.8150  -16.0522   23.3670 N   0  0  0  0  0  0  0  0  0  0  0  0
   12.3526  -17.5316   24.4007 C   0  0  0  0  0  0  0  0  0  0  0  0
   13.5885  -17.5157   24.9840 O   0  0  0  0  0  0  0  0  0  0  0  0
   10.7117  -16.9445   28.0115 C   0  0  0  0  0  0  0  0  0  0  0  0
   10.8651  -16.3701   29.2549 C   0  0  0  0  0  0  0  0  0  0  0  0
   12.0287  -18.4817   23.6517 O   0  0  0  0  0  0  0  0  0  0  0  0
  2  1  1  1
  2  3  1  0
  4  2  1  0
  4  5  1  1
  6  7  2  0
  6  4  1  0
  8  6  1  0
  9  8  1  0
  9 10  1  6
 11 12  1  0
 11 10  1  0
 13 12  1  0
 14 13  1  0
 15  9  1  0
 16 15  2  0
 17 18  1  0
 18 28  2  0
 19 20  2  0
 19 18  1  0
 20 21  1  0
 21 22  1  0
 21 27  2  0
 23 22  1  1
 23 24  1  0
 24 15  1  0
 25 26  1  0
 25 23  1  0
 28 27  1  0
 29 25  2  0
M  END
$$$$
