VKY.pdb
     RDKit          3D

 29 29  0  0  1  0  0  0  0  0999 V2000
    6.9903  -16.2502   26.3086 C   0  0  0  0  0  0  0  0  0  0  0  0
    7.0673  -17.6820   25.8721 C   0  0  1  0  0  0  0  0  0  0  0  0
    6.3289  -18.6159   26.8034 C   0  0  0  0  0  0  0  0  0  0  0  0
    6.5204  -17.8720   24.4682 C   0  0  2  0  0  0  0  0  0  0  0  0
    6.4894  -19.2968   24.2242 N   0  0  0  0  0  0  0  0  0  0  0  0
    7.4892  -17.2534   23.5403 C   0  0  0  0  0  0  0  0  0  0  0  0
    8.5304  -17.9061   23.2055 O   0  0  0  0  0  0  0  0  0  0  0  0
    7.2393  -15.9562   23.0470 N   0  0  0  0  0  0  0  0  0  0  0  0
    8.2480  -15.3228   22.1380 C   0  0  1  0  0  0  0  0  0  0  0  0
    7.4644  -14.2770   21.4363 C   0  0  0  0  0  0  0  0  0  0  0  0
    7.0394  -14.4627   20.0355 C   0  0  0  0  0  0  0  0  0  0  0  0
    7.6117  -13.4297   19.1168 C   0  0  0  0  0  0  0  0  0  0  0  0
    7.1346  -13.6260   17.6833 C   0  0  0  0  0  0  0  0  0  0  0  0
    7.7057  -12.5559   16.8638 N   0  0  0  0  0  0  0  0  0  0  0  0
    9.3854  -14.9603   22.9507 C   0  0  0  0  0  0  0  0  0  0  0  0
    9.2230  -14.2031   23.9765 O   0  0  0  0  0  0  0  0  0  0  0  0
    9.1375  -14.0704   29.4310 O   0  0  0  0  0  0  0  0  0  0  0  0
    9.5881  -14.6960   28.2742 C   0  0  0  0  0  0  0  0  0  0  0  0
   10.3801  -15.8136   28.3592 C   0  0  0  0  0  0  0  0  0  0  0  0
   10.8603  -16.4811   27.2289 C   0  0  0  0  0  0  0  0  0  0  0  0
   10.5369  -16.0142   25.9798 C   0  0  0  0  0  0  0  0  0  0  0  0
   11.0038  -16.6546   24.7414 C   0  0  0  0  0  0  0  0  0  0  0  0
   11.6095  -15.6151   23.8035 C   0  0  2  0  0  0  0  0  0  0  0  0
   10.7051  -15.4121   22.6911 N   0  0  0  0  0  0  0  0  0  0  0  0
   12.9226  -16.0169   23.2727 C   0  0  0  0  0  0  0  0  0  0  0  0
   13.0669  -16.4037   21.9699 O   0  0  0  0  0  0  0  0  0  0  0  0
    9.7293  -14.8748   25.8984 C   0  0  0  0  0  0  0  0  0  0  0  0
    9.2669  -14.2325   27.0268 C   0  0  0  0  0  0  0  0  0  0  0  0
   13.9179  -16.0023   24.0328 O   0  0  0  0  0  0  0  0  0  0  0  0
  2  1  1  1
  2  3  1  0
  4  2  1  0
  4  5  1  6
  6  7  2  0
  6  4  1  0
  8  6  1  0
  9  8  1  0
  9 10  1  1
 11 12  1  0
 11 10  1  0
 13 12  1  0
 14 13  1  0
 15  9  1  0
 16 15  2  0
 17 18  1  0
 18 28  2  0
 19 20  2  0
 19 18  1  0
 20 21  1  0
 21 22  1  0
 21 27  2  0
 23 22  1  1
 23 24  1  0
 24 15  1  0
 25 26  1  0
 25 23  1  0
 28 27  1  0
 29 25  2  0
M  END
$$$$
