VKY.pdb
     RDKit          3D

 29 29  0  0  1  0  0  0  0  0999 V2000
    8.1683  -11.9820   18.8080 C   0  0  0  0  0  0  0  0  0  0  0  0
    8.3531  -13.1399   19.7415 C   0  0  1  0  0  0  0  0  0  0  0  0
    7.2311  -13.2628   20.7470 C   0  0  0  0  0  0  0  0  0  0  0  0
    8.4713  -14.4544   18.9905 C   0  0  2  0  0  0  0  0  0  0  0  0
    7.2345  -14.6289   18.2621 N   0  0  0  0  0  0  0  0  0  0  0  0
    8.5784  -15.5228   20.0050 C   0  0  0  0  0  0  0  0  0  0  0  0
    7.5151  -15.9895   20.5283 O   0  0  0  0  0  0  0  0  0  0  0  0
    9.8537  -16.0010   20.3703 N   0  0  0  0  0  0  0  0  0  0  0  0
    9.9508  -17.0815   21.4038 C   0  0  1  0  0  0  0  0  0  0  0  0
   10.7757  -18.1178   20.7362 C   0  0  0  0  0  0  0  0  0  0  0  0
   12.2477  -18.0926   20.8357 C   0  0  0  0  0  0  0  0  0  0  0  0
   12.8964  -19.2130   20.0857 C   0  0  0  0  0  0  0  0  0  0  0  0
   14.4120  -19.1879   20.2375 C   0  0  0  0  0  0  0  0  0  0  0  0
   14.9648  -20.2994   19.4616 N   0  0  0  0  0  0  0  0  0  0  0  0
   10.4061  -16.4619   22.6262 C   0  0  0  0  0  0  0  0  0  0  0  0
   11.2485  -15.4924   22.5764 O   0  0  0  0  0  0  0  0  0  0  0  0
   10.9893  -14.6661   31.2396 O   0  0  0  0  0  0  0  0  0  0  0  0
   10.5668  -14.9458   29.9451 C   0  0  0  0  0  0  0  0  0  0  0  0
   10.3857  -13.9265   29.0441 C   0  0  0  0  0  0  0  0  0  0  0  0
    9.9627  -14.1515   27.7311 C   0  0  0  0  0  0  0  0  0  0  0  0
    9.7145  -15.4340   27.3113 C   0  0  0  0  0  0  0  0  0  0  0  0
    9.2629  -15.7561   25.9495 C   0  0  0  0  0  0  0  0  0  0  0  0
   10.4511  -16.1459   25.0758 C   0  0  2  0  0  0  0  0  0  0  0  0
    9.9585  -16.8554   23.9138 N   0  0  0  0  0  0  0  0  0  0  0  0
   11.4196  -17.0066   25.7749 C   0  0  0  0  0  0  0  0  0  0  0  0
   12.5048  -16.4726   26.4113 O   0  0  0  0  0  0  0  0  0  0  0  0
    9.9005  -16.4696   28.2333 C   0  0  0  0  0  0  0  0  0  0  0  0
   10.3186  -16.2242   29.5235 C   0  0  0  0  0  0  0  0  0  0  0  0
   11.2401  -18.2460   25.7815 O   0  0  0  0  0  0  0  0  0  0  0  0
  2  1  1  6
  2  3  1  0
  4  2  1  0
  4  5  1  1
  6  7  2  0
  6  4  1  0
  8  6  1  0
  9  8  1  0
  9 10  1  6
 11 12  1  0
 11 10  1  0
 13 12  1  0
 14 13  1  0
 15  9  1  0
 16 15  2  0
 17 18  1  0
 18 28  2  0
 19 20  2  0
 19 18  1  0
 20 21  1  0
 21 22  1  0
 21 27  2  0
 23 22  1  1
 23 24  1  0
 24 15  1  0
 25 26  1  0
 25 23  1  0
 28 27  1  0
 29 25  2  0
M  END
$$$$
