VKY.pdb
     RDKit          3D

 29 29  0  0  1  0  0  0  0  0999 V2000
    8.0507  -12.0486   18.1184 C   0  0  0  0  0  0  0  0  0  0  0  0
    7.8649  -13.1601   19.1066 C   0  0  1  0  0  0  0  0  0  0  0  0
    7.0389  -14.2991   18.5543 C   0  0  0  0  0  0  0  0  0  0  0  0
    9.1949  -13.7177   19.5823 C   0  0  2  0  0  0  0  0  0  0  0  0
    9.8014  -14.3720   18.4445 N   0  0  0  0  0  0  0  0  0  0  0  0
    8.8933  -14.7359   20.6092 C   0  0  0  0  0  0  0  0  0  0  0  0
    8.2024  -14.4044   21.6266 O   0  0  0  0  0  0  0  0  0  0  0  0
    9.3766  -16.0498   20.4398 N   0  0  0  0  0  0  0  0  0  0  0  0
    9.0922  -17.0663   21.5032 C   0  0  1  0  0  0  0  0  0  0  0  0
    9.5394  -18.3387   20.8859 C   0  0  0  0  0  0  0  0  0  0  0  0
    9.5183  -19.5996   21.6522 C   0  0  0  0  0  0  0  0  0  0  0  0
    9.9160  -20.7830   20.8278 C   0  0  0  0  0  0  0  0  0  0  0  0
    9.8528  -22.0753   21.6321 C   0  0  0  0  0  0  0  0  0  0  0  0
   10.2076  -23.1822   20.7422 N   0  0  0  0  0  0  0  0  0  0  0  0
    9.7052  -16.5910   22.7214 C   0  0  0  0  0  0  0  0  0  0  0  0
   10.9291  -16.1987   22.7105 O   0  0  0  0  0  0  0  0  0  0  0  0
   11.2738  -14.4777   31.1005 O   0  0  0  0  0  0  0  0  0  0  0  0
   10.6465  -14.7530   29.8909 C   0  0  0  0  0  0  0  0  0  0  0  0
   10.4097  -13.7433   28.9921 C   0  0  0  0  0  0  0  0  0  0  0  0
    9.7831  -13.9645   27.7624 C   0  0  0  0  0  0  0  0  0  0  0  0
    9.3832  -15.2333   27.4260 C   0  0  0  0  0  0  0  0  0  0  0  0
    8.7142  -15.5501   26.1556 C   0  0  0  0  0  0  0  0  0  0  0  0
    9.7311  -16.0397   25.1293 C   0  0  2  0  0  0  0  0  0  0  0  0
    9.0189  -16.5126   23.9607 N   0  0  0  0  0  0  0  0  0  0  0  0
   10.5778  -17.1322   25.6362 C   0  0  0  0  0  0  0  0  0  0  0  0
   10.1106  -18.4152   25.6957 O   0  0  0  0  0  0  0  0  0  0  0  0
    9.6268  -16.2591   28.3455 C   0  0  0  0  0  0  0  0  0  0  0  0
   10.2466  -16.0178   29.5526 C   0  0  0  0  0  0  0  0  0  0  0  0
   11.7424  -16.8742   26.0179 O   0  0  0  0  0  0  0  0  0  0  0  0
  2  1  1  6
  2  3  1  0
  4  2  1  0
  4  5  1  6
  6  7  2  0
  6  4  1  0
  8  6  1  0
  9  8  1  0
  9 10  1  6
 11 12  1  0
 11 10  1  0
 13 12  1  0
 14 13  1  0
 15  9  1  0
 16 15  2  0
 17 18  1  0
 18 28  2  0
 19 20  2  0
 19 18  1  0
 20 21  1  0
 21 22  1  0
 21 27  2  0
 23 22  1  1
 23 24  1  0
 24 15  1  0
 25 26  1  0
 25 23  1  0
 28 27  1  0
 29 25  2  0
M  END
$$$$
