VKY.pdb
     RDKit          3D

 29 29  0  0  1  0  0  0  0  0999 V2000
    8.4620  -12.5804   21.3920 C   0  0  0  0  0  0  0  0  0  0  0  0
    7.7629  -13.0912   20.1686 C   0  0  1  0  0  0  0  0  0  0  0  0
    7.8940  -12.1554   18.9888 C   0  0  0  0  0  0  0  0  0  0  0  0
    8.2779  -14.4590   19.7565 C   0  0  2  0  0  0  0  0  0  0  0  0
    7.5589  -14.8293   18.5579 N   0  0  0  0  0  0  0  0  0  0  0  0
    7.9154  -15.3998   20.8361 C   0  0  0  0  0  0  0  0  0  0  0  0
    6.6864  -15.6638   21.0415 O   0  0  0  0  0  0  0  0  0  0  0  0
    8.9369  -15.9835   21.6136 N   0  0  0  0  0  0  0  0  0  0  0  0
    8.5728  -17.0507   22.6002 C   0  0  1  0  0  0  0  0  0  0  0  0
    9.0759  -18.2910   21.9609 C   0  0  0  0  0  0  0  0  0  0  0  0
    8.9627  -19.5938   22.6445 C   0  0  0  0  0  0  0  0  0  0  0  0
    9.6140  -20.7043   21.8823 C   0  0  0  0  0  0  0  0  0  0  0  0
    9.4701  -22.0396   22.6014 C   0  0  0  0  0  0  0  0  0  0  0  0
   10.0797  -23.0744   21.7645 N   0  0  0  0  0  0  0  0  0  0  0  0
    9.0821  -16.6339   23.8857 C   0  0  0  0  0  0  0  0  0  0  0  0
   10.1870  -15.9810   23.9546 O   0  0  0  0  0  0  0  0  0  0  0  0
    6.3596  -10.7511   25.8538 O   0  0  0  0  0  0  0  0  0  0  0  0
    6.7446  -12.0395   26.2061 C   0  0  0  0  0  0  0  0  0  0  0  0
    7.9380  -12.2502   26.8502 C   0  0  0  0  0  0  0  0  0  0  0  0
    8.3733  -13.5239   27.2269 C   0  0  0  0  0  0  0  0  0  0  0  0
    7.5896  -14.6155   26.9494 C   0  0  0  0  0  0  0  0  0  0  0  0
    7.9756  -15.9884   27.3074 C   0  0  0  0  0  0  0  0  0  0  0  0
    9.0481  -16.5030   26.3523 C   0  0  2  0  0  0  0  0  0  0  0  0
    8.4140  -16.8927   25.1104 N   0  0  0  0  0  0  0  0  0  0  0  0
    9.7843  -17.6608   26.8862 C   0  0  0  0  0  0  0  0  0  0  0  0
   10.6920  -17.5126   27.8973 O   0  0  0  0  0  0  0  0  0  0  0  0
    6.3740  -14.3958   26.2929 C   0  0  0  0  0  0  0  0  0  0  0  0
    5.9647  -13.1304   25.9308 C   0  0  0  0  0  0  0  0  0  0  0  0
    9.5710  -18.7955   26.4010 O   0  0  0  0  0  0  0  0  0  0  0  0
  2  1  1  1
  2  3  1  0
  4  2  1  0
  4  5  1  6
  6  7  2  0
  6  4  1  0
  8  6  1  0
  9  8  1  0
  9 10  1  6
 11 12  1  0
 11 10  1  0
 13 12  1  0
 14 13  1  0
 15  9  1  0
 16 15  2  0
 17 18  1  0
 18 28  2  0
 19 20  2  0
 19 18  1  0
 20 21  1  0
 21 22  1  0
 21 27  2  0
 23 22  1  1
 23 24  1  0
 24 15  1  0
 25 26  1  0
 25 23  1  0
 28 27  1  0
 29 25  2  0
M  END
$$$$
