VKY.pdb
     RDKit          3D

 29 29  0  0  1  0  0  0  0  0999 V2000
    6.5667  -20.0378   24.5114 C   0  0  0  0  0  0  0  0  0  0  0  0
    6.4446  -20.0752   23.0181 C   0  0  1  0  0  0  0  0  0  0  0  0
    5.4571  -21.1148   22.5398 C   0  0  0  0  0  0  0  0  0  0  0  0
    6.0337  -18.7267   22.4535 C   0  0  2  0  0  0  0  0  0  0  0  0
    5.6429  -18.9535   21.0800 N   0  0  0  0  0  0  0  0  0  0  0  0
    7.2356  -17.8681   22.4685 C   0  0  0  0  0  0  0  0  0  0  0  0
    8.3652  -18.3879   22.7447 O   0  0  0  0  0  0  0  0  0  0  0  0
    7.1053  -16.4946   22.1771 N   0  0  0  0  0  0  0  0  0  0  0  0
    8.3298  -15.6316   22.2034 C   0  0  1  0  0  0  0  0  0  0  0  0
    7.9865  -14.5254   21.2768 C   0  0  0  0  0  0  0  0  0  0  0  0
    8.0100  -14.7281   19.8154 C   0  0  0  0  0  0  0  0  0  0  0  0
    8.0364  -13.4404   19.0542 C   0  0  0  0  0  0  0  0  0  0  0  0
    8.0172  -13.6763   17.5493 C   0  0  0  0  0  0  0  0  0  0  0  0
    8.0153  -12.3719   16.8848 N   0  0  0  0  0  0  0  0  0  0  0  0
    8.6275  -15.3567   23.5895 C   0  0  0  0  0  0  0  0  0  0  0  0
    7.9881  -14.4297   24.2091 O   0  0  0  0  0  0  0  0  0  0  0  0
    5.5900  -11.0750   26.8764 O   0  0  0  0  0  0  0  0  0  0  0  0
    6.2969  -12.2682   26.7811 C   0  0  0  0  0  0  0  0  0  0  0  0
    7.6595  -12.2767   26.9453 C   0  0  0  0  0  0  0  0  0  0  0  0
    8.4187  -13.4471   26.8598 C   0  0  0  0  0  0  0  0  0  0  0  0
    7.7934  -14.6411   26.6024 C   0  0  0  0  0  0  0  0  0  0  0  0
    8.5182  -15.9157   26.4925 C   0  0  0  0  0  0  0  0  0  0  0  0
    9.8202  -15.7198   25.7222 C   0  0  2  0  0  0  0  0  0  0  0  0
    9.5965  -16.0751   24.3365 N   0  0  0  0  0  0  0  0  0  0  0  0
   10.9250  -16.5409   26.2442 C   0  0  0  0  0  0  0  0  0  0  0  0
   11.5759  -17.4367   25.4431 O   0  0  0  0  0  0  0  0  0  0  0  0
    6.4044  -14.6274   26.4360 C   0  0  0  0  0  0  0  0  0  0  0  0
    5.6758  -13.4608   26.5247 C   0  0  0  0  0  0  0  0  0  0  0  0
   11.2675  -16.4117   27.4420 O   0  0  0  0  0  0  0  0  0  0  0  0
  2  1  1  1
  2  3  1  0
  4  2  1  0
  4  5  1  6
  6  7  2  0
  6  4  1  0
  8  6  1  0
  9  8  1  0
  9 10  1  6
 11 12  1  0
 11 10  1  0
 13 12  1  0
 14 13  1  0
 15  9  1  0
 16 15  2  0
 17 18  1  0
 18 28  2  0
 19 20  2  0
 19 18  1  0
 20 21  1  0
 21 22  1  0
 21 27  2  0
 23 22  1  1
 23 24  1  0
 24 15  1  0
 25 26  1  0
 25 23  1  0
 28 27  1  0
 29 25  2  0
M  END
$$$$
