VKY.pdb
     RDKit          3D

 29 29  0  0  1  0  0  0  0  0999 V2000
    8.5766  -12.6917   19.9961 C   0  0  0  0  0  0  0  0  0  0  0  0
    7.6909  -13.3528   18.9838 C   0  0  1  0  0  0  0  0  0  0  0  0
    7.5418  -12.5383   17.7192 C   0  0  0  0  0  0  0  0  0  0  0  0
    8.1989  -14.7338   18.6085 C   0  0  2  0  0  0  0  0  0  0  0  0
    7.2522  -15.2815   17.6629 N   0  0  0  0  0  0  0  0  0  0  0  0
    8.1692  -15.5531   19.8373 C   0  0  0  0  0  0  0  0  0  0  0  0
    7.0489  -15.7996   20.3909 O   0  0  0  0  0  0  0  0  0  0  0  0
    9.3801  -16.0431   20.3685 N   0  0  0  0  0  0  0  0  0  0  0  0
    9.3366  -16.8870   21.6057 C   0  0  1  0  0  0  0  0  0  0  0  0
    9.9217  -18.1750   21.1598 C   0  0  0  0  0  0  0  0  0  0  0  0
   10.1856  -19.2602   22.1243 C   0  0  0  0  0  0  0  0  0  0  0  0
   10.8428  -20.4467   21.4929 C   0  0  0  0  0  0  0  0  0  0  0  0
   11.0870  -21.5589   22.5050 C   0  0  0  0  0  0  0  0  0  0  0  0
   11.7864  -22.6488   21.8225 N   0  0  0  0  0  0  0  0  0  0  0  0
    9.9637  -16.1274   22.6618 C   0  0  0  0  0  0  0  0  0  0  0  0
   11.0316  -15.4549   22.4183 O   0  0  0  0  0  0  0  0  0  0  0  0
   10.9001  -16.0749   31.2366 O   0  0  0  0  0  0  0  0  0  0  0  0
   10.4731  -15.7437   29.9559 C   0  0  0  0  0  0  0  0  0  0  0  0
    9.8506  -16.6831   29.1727 C   0  0  0  0  0  0  0  0  0  0  0  0
    9.4017  -16.4037   27.8788 C   0  0  0  0  0  0  0  0  0  0  0  0
    9.5828  -15.1476   27.3570 C   0  0  0  0  0  0  0  0  0  0  0  0
    9.1445  -14.7731   26.0043 C   0  0  0  0  0  0  0  0  0  0  0  0
   10.1517  -15.2605   24.9674 C   0  0  2  0  0  0  0  0  0  0  0  0
    9.4532  -16.0614   23.9840 N   0  0  0  0  0  0  0  0  0  0  0  0
   11.2306  -16.0731   25.5530 C   0  0  0  0  0  0  0  0  0  0  0  0
   11.1749  -17.4385   25.5308 O   0  0  0  0  0  0  0  0  0  0  0  0
   10.2178  -14.1934   28.1591 C   0  0  0  0  0  0  0  0  0  0  0  0
   10.6522  -14.4914   29.4328 C   0  0  0  0  0  0  0  0  0  0  0  0
   12.2109  -15.4974   26.0786 O   0  0  0  0  0  0  0  0  0  0  0  0
  2  1  1  1
  2  3  1  0
  4  2  1  0
  4  5  1  6
  6  7  2  0
  6  4  1  0
  8  6  1  0
  9  8  1  0
  9 10  1  6
 11 12  1  0
 11 10  1  0
 13 12  1  0
 14 13  1  0
 15  9  1  0
 16 15  2  0
 17 18  1  0
 18 28  2  0
 19 20  2  0
 19 18  1  0
 20 21  1  0
 21 22  1  0
 21 27  2  0
 23 22  1  1
 23 24  1  0
 24 15  1  0
 25 26  1  0
 25 23  1  0
 28 27  1  0
 29 25  2  0
M  END
$$$$
