VKY.pdb
     RDKit          3D

 29 29  0  0  1  0  0  0  0  0999 V2000
    8.4561  -12.7347   21.1646 C   0  0  0  0  0  0  0  0  0  0  0  0
    7.8917  -13.2404   19.8715 C   0  0  1  0  0  0  0  0  0  0  0  0
    8.0371  -12.2452   18.7432 C   0  0  0  0  0  0  0  0  0  0  0  0
    8.5407  -14.5461   19.4471 C   0  0  2  0  0  0  0  0  0  0  0  0
    7.8924  -14.9521   18.2201 N   0  0  0  0  0  0  0  0  0  0  0  0
    8.2356  -15.5406   20.4958 C   0  0  0  0  0  0  0  0  0  0  0  0
    7.2308  -16.3092   20.3476 O   0  0  0  0  0  0  0  0  0  0  0  0
    9.0626  -15.6163   21.6355 N   0  0  0  0  0  0  0  0  0  0  0  0
    9.0111  -16.8499   22.4842 C   0  0  1  0  0  0  0  0  0  0  0  0
    9.7035  -17.8643   21.6524 C   0  0  0  0  0  0  0  0  0  0  0  0
    9.8275  -19.2614   22.1106 C   0  0  0  0  0  0  0  0  0  0  0  0
    8.6932  -20.1224   21.6518 C   0  0  0  0  0  0  0  0  0  0  0  0
    8.8580  -21.5640   22.1160 C   0  0  0  0  0  0  0  0  0  0  0  0
    7.7554  -22.3496   21.5593 N   0  0  0  0  0  0  0  0  0  0  0  0
    9.5299  -16.4946   23.7842 C   0  0  0  0  0  0  0  0  0  0  0  0
   10.6890  -15.9479   23.8825 O   0  0  0  0  0  0  0  0  0  0  0  0
    6.0187  -10.9548   25.4161 O   0  0  0  0  0  0  0  0  0  0  0  0
    6.5688  -12.1553   25.8504 C   0  0  0  0  0  0  0  0  0  0  0  0
    7.9008  -12.2259   26.1733 C   0  0  0  0  0  0  0  0  0  0  0  0
    8.5047  -13.4066   26.6148 C   0  0  0  0  0  0  0  0  0  0  0  0
    7.7514  -14.5471   26.7353 C   0  0  0  0  0  0  0  0  0  0  0  0
    8.3096  -15.8298   27.1880 C   0  0  0  0  0  0  0  0  0  0  0  0
    9.4161  -16.2886   26.2433 C   0  0  2  0  0  0  0  0  0  0  0  0
    8.8153  -16.7017   24.9924 N   0  0  0  0  0  0  0  0  0  0  0  0
   10.1999  -17.4130   26.7808 C   0  0  0  0  0  0  0  0  0  0  0  0
   10.9936  -17.2550   27.8822 O   0  0  0  0  0  0  0  0  0  0  0  0
    6.3941  -14.4701   26.4050 C   0  0  0  0  0  0  0  0  0  0  0  0
    5.8197  -13.2946   25.9717 C   0  0  0  0  0  0  0  0  0  0  0  0
   10.1341  -18.5280   26.2143 O   0  0  0  0  0  0  0  0  0  0  0  0
  2  1  1  1
  2  3  1  0
  4  2  1  0
  4  5  1  6
  6  7  2  0
  6  4  1  0
  8  6  1  0
  9  8  1  0
  9 10  1  6
 11 12  1  0
 11 10  1  0
 13 12  1  0
 14 13  1  0
 15  9  1  0
 16 15  2  0
 17 18  1  0
 18 28  2  0
 19 20  2  0
 19 18  1  0
 20 21  1  0
 21 22  1  0
 21 27  2  0
 23 22  1  1
 23 24  1  0
 24 15  1  0
 25 26  1  0
 25 23  1  0
 28 27  1  0
 29 25  2  0
M  END
$$$$
