VKY.pdb
     RDKit          3D

 29 29  0  0  1  0  0  0  0  0999 V2000
    7.5885  -11.8770   25.4532 C   0  0  0  0  0  0  0  0  0  0  0  0
    6.8584  -12.9050   26.2634 C   0  0  1  0  0  0  0  0  0  0  0  0
    5.9172  -12.2899   27.2738 C   0  0  0  0  0  0  0  0  0  0  0  0
    6.0647  -13.8547   25.3836 C   0  0  2  0  0  0  0  0  0  0  0  0
    5.6084  -14.9283   26.2378 N   0  0  0  0  0  0  0  0  0  0  0  0
    7.0051  -14.4083   24.3881 C   0  0  0  0  0  0  0  0  0  0  0  0
    7.5893  -15.5130   24.6346 O   0  0  0  0  0  0  0  0  0  0  0  0
    7.2344  -13.7022   23.1891 N   0  0  0  0  0  0  0  0  0  0  0  0
    8.1281  -14.3112   22.1522 C   0  0  1  0  0  0  0  0  0  0  0  0
    7.9168  -13.4428   20.9684 C   0  0  0  0  0  0  0  0  0  0  0  0
    7.4138  -14.0032   19.6994 C   0  0  0  0  0  0  0  0  0  0  0  0
    8.2754  -13.6472   18.5292 C   0  0  0  0  0  0  0  0  0  0  0  0
    7.7446  -14.2519   17.2356 C   0  0  0  0  0  0  0  0  0  0  0  0
    8.7166  -13.9808   16.1750 N   0  0  0  0  0  0  0  0  0  0  0  0
    9.4408  -14.4355   22.7412 C   0  0  0  0  0  0  0  0  0  0  0  0
   10.1212  -13.3800   23.0151 O   0  0  0  0  0  0  0  0  0  0  0  0
   11.9424  -15.8662   30.5917 O   0  0  0  0  0  0  0  0  0  0  0  0
   11.3719  -15.7729   29.3275 C   0  0  0  0  0  0  0  0  0  0  0  0
   10.8743  -16.8940   28.7117 C   0  0  0  0  0  0  0  0  0  0  0  0
   10.2908  -16.8567   27.4421 C   0  0  0  0  0  0  0  0  0  0  0  0
   10.2046  -15.6621   26.7726 C   0  0  0  0  0  0  0  0  0  0  0  0
    9.6102  -15.5372   25.4336 C   0  0  0  0  0  0  0  0  0  0  0  0
   10.6477  -15.8567   24.3617 C   0  0  2  0  0  0  0  0  0  0  0  0
   10.0376  -15.6825   23.0602 N   0  0  0  0  0  0  0  0  0  0  0  0
   11.1660  -17.2313   24.4564 C   0  0  0  0  0  0  0  0  0  0  0  0
   10.4490  -18.2890   23.9715 O   0  0  0  0  0  0  0  0  0  0  0  0
   10.7132  -14.5222   27.4044 C   0  0  0  0  0  0  0  0  0  0  0  0
   11.2844  -14.5825   28.6573 C   0  0  0  0  0  0  0  0  0  0  0  0
   12.2813  -17.4269   24.9915 O   0  0  0  0  0  0  0  0  0  0  0  0
  2  1  1  6
  2  3  1  0
  4  2  1  0
  4  5  1  1
  6  7  2  0
  6  4  1  0
  8  6  1  0
  9  8  1  0
  9 10  1  6
 11 12  1  0
 11 10  1  0
 13 12  1  0
 14 13  1  0
 15  9  1  0
 16 15  2  0
 17 18  1  0
 18 28  2  0
 19 20  2  0
 19 18  1  0
 20 21  1  0
 21 22  1  0
 21 27  2  0
 23 22  1  1
 23 24  1  0
 24 15  1  0
 25 26  1  0
 25 23  1  0
 28 27  1  0
 29 25  2  0
M  END
$$$$
