VKY.pdb
     RDKit          3D

 29 29  0  0  1  0  0  0  0  0999 V2000
    8.2849  -12.8026   21.3391 C   0  0  0  0  0  0  0  0  0  0  0  0
    7.4320  -13.6017   20.4008 C   0  0  1  0  0  0  0  0  0  0  0  0
    6.9475  -12.7916   19.2202 C   0  0  0  0  0  0  0  0  0  0  0  0
    8.1654  -14.8237   19.8765 C   0  0  2  0  0  0  0  0  0  0  0  0
    7.2649  -15.4865   18.9598 N   0  0  0  0  0  0  0  0  0  0  0  0
    8.4042  -15.7124   21.0319 C   0  0  0  0  0  0  0  0  0  0  0  0
    7.4245  -16.3530   21.5340 O   0  0  0  0  0  0  0  0  0  0  0  0
    9.7096  -15.8312   21.5520 N   0  0  0  0  0  0  0  0  0  0  0  0
   10.0023  -16.9343   22.5227 C   0  0  1  0  0  0  0  0  0  0  0  0
   11.2926  -17.4814   22.0370 C   0  0  0  0  0  0  0  0  0  0  0  0
   12.0043  -18.5276   22.7962 C   0  0  0  0  0  0  0  0  0  0  0  0
   12.1357  -19.8072   22.0322 C   0  0  0  0  0  0  0  0  0  0  0  0
   12.7843  -20.8998   22.8725 C   0  0  0  0  0  0  0  0  0  0  0  0
   12.7463  -22.1460   22.1054 N   0  0  0  0  0  0  0  0  0  0  0  0
    9.9010  -16.3725   23.8492 C   0  0  0  0  0  0  0  0  0  0  0  0
   10.4751  -15.2538   24.1153 O   0  0  0  0  0  0  0  0  0  0  0  0
    6.9165  -10.6331   26.4156 O   0  0  0  0  0  0  0  0  0  0  0  0
    7.1860  -11.9925   26.5246 C   0  0  0  0  0  0  0  0  0  0  0  0
    6.3122  -12.9123   26.0011 C   0  0  0  0  0  0  0  0  0  0  0  0
    6.5342  -14.2898   26.0827 C   0  0  0  0  0  0  0  0  0  0  0  0
    7.6636  -14.7567   26.7066 C   0  0  0  0  0  0  0  0  0  0  0  0
    7.9697  -16.1888   26.8390 C   0  0  0  0  0  0  0  0  0  0  0  0
    9.3451  -16.4927   26.2532 C   0  0  2  0  0  0  0  0  0  0  0  0
    9.1746  -16.9857   24.9025 N   0  0  0  0  0  0  0  0  0  0  0  0
   10.0898  -17.4982   27.0288 C   0  0  0  0  0  0  0  0  0  0  0  0
   10.3800  -18.7237   26.4977 O   0  0  0  0  0  0  0  0  0  0  0  0
    8.5513  -13.8153   27.2386 C   0  0  0  0  0  0  0  0  0  0  0  0
    8.3119  -12.4611   27.1463 C   0  0  0  0  0  0  0  0  0  0  0  0
   10.4589  -17.2197   28.1928 O   0  0  0  0  0  0  0  0  0  0  0  0
  2  1  1  1
  2  3  1  0
  4  2  1  0
  4  5  1  6
  6  7  2  0
  6  4  1  0
  8  6  1  0
  9  8  1  0
  9 10  1  6
 11 12  1  0
 11 10  1  0
 13 12  1  0
 14 13  1  0
 15  9  1  0
 16 15  2  0
 17 18  1  0
 18 28  2  0
 19 20  2  0
 19 18  1  0
 20 21  1  0
 21 22  1  0
 21 27  2  0
 23 22  1  1
 23 24  1  0
 24 15  1  0
 25 26  1  0
 25 23  1  0
 28 27  1  0
 29 25  2  0
M  END
$$$$
