HYD.pdb
     RDKit          3D

 31 32  0  0  1  0  0  0  0  0999 V2000
   18.5761  -11.0341  -16.1185 N   0  0  0  0  0  0  0  0  0  0  0  0
   18.4046   -9.7855  -16.7715 C   0  0  1  0  0  0  0  0  0  0  0  0
   16.9921   -9.2459  -16.7051 C   0  0  0  0  0  0  0  0  0  0  0  0
   16.0761  -10.2117  -17.3181 C   0  0  0  0  0  0  0  0  0  0  0  0
   16.2454  -10.8389  -18.5233 C   0  0  0  0  0  0  0  0  0  0  0  0
   15.1848  -11.6567  -18.7410 N   0  0  0  0  0  0  0  0  0  0  0  0
   14.3841  -11.5190  -17.6698 C   0  0  0  0  0  0  0  0  0  0  0  0
   14.9196  -10.6479  -16.8101 N   0  0  0  0  0  0  0  0  0  0  0  0
   19.3537   -8.7217  -16.3604 C   0  0  0  0  0  0  0  0  0  0  0  0
   19.3814   -8.3705  -15.1350 O   0  0  0  0  0  0  0  0  0  0  0  0
   26.2276   -2.9746  -17.0272 O   0  0  0  0  0  0  0  0  0  0  0  0
   25.2808   -4.0013  -17.1675 C   0  0  0  0  0  0  0  0  0  0  0  0
   24.2921   -3.9310  -18.1245 C   0  0  0  0  0  0  0  0  0  0  0  0
   23.3578   -4.9355  -18.2692 C   0  0  0  0  0  0  0  0  0  0  0  0
   23.3675   -6.0540  -17.4671 C   0  0  0  0  0  0  0  0  0  0  0  0
   22.3945   -7.1365  -17.5923 C   0  0  0  0  0  0  0  0  0  0  0  0
   21.1863   -7.0306  -16.7005 C   0  0  2  0  0  0  0  0  0  0  0  0
   20.2468   -8.0466  -17.2106 N   0  0  0  0  0  0  0  0  0  0  0  0
   20.5287   -5.7061  -16.7731 C   0  0  0  0  0  0  0  0  0  0  0  0
   19.7205   -5.4397  -17.6913 O   0  0  0  0  0  0  0  0  0  0  0  0
   24.3590   -6.1254  -16.5069 C   0  0  0  0  0  0  0  0  0  0  0  0
   25.3047   -5.1149  -16.3561 C   0  0  0  0  0  0  0  0  0  0  0  0
   20.7996   -4.7109  -15.8036 N   0  0  0  0  0  0  0  0  0  0  0  0
   20.1811   -3.4011  -15.8634 C   0  0  1  0  0  0  0  0  0  0  0  0
   18.7243   -3.4467  -15.4786 C   0  0  0  0  0  0  0  0  0  0  0  0
   18.0783   -2.1131  -15.4874 C   0  0  0  0  0  0  0  0  0  0  0  0
   18.6631   -1.0455  -15.7569 O   0  0  0  0  0  0  0  0  0  0  0  0
   20.8599   -2.4112  -15.0100 C   0  0  0  0  0  0  0  0  0  0  0  0
   21.8011   -2.8735  -14.1037 O   0  0  0  0  0  0  0  0  0  0  0  0
   16.7123   -2.0508  -15.1695 O   0  0  0  0  0  0  0  0  0  0  0  0
   20.6436   -1.1856  -15.0495 O   0  0  0  0  0  0  0  0  0  0  0  0
  2  1  1  1
  3  2  1  0
  3  4  1  0
  4  5  2  0
  5  6  1  0
  7  6  1  0
  8  4  1  0
  8  7  2  0
  9 18  1  0
  9  2  1  0
 10  9  2  0
 11 12  1  0
 12 13  2  0
 13 14  1  0
 15 16  1  0
 15 14  2  0
 17 16  1  6
 17 18  1  0
 19 17  1  0
 20 19  2  0
 21 15  1  0
 22 21  2  0
 22 12  1  0
 23 19  1  0
 24 23  1  0
 25 26  1  0
 24 25  1  1
 26 27  2  0
 28 29  1  0
 28 24  1  0
 30 26  1  0
 31 28  2  0
M  END
$$$$
