HYD.pdb
     RDKit          3D

 31 32  0  0  1  0  0  0  0  0999 V2000
   44.6370  -13.2617   -8.3617 N   0  0  0  0  0  0  0  0  0  0  0  0
   43.9228  -12.7372   -7.2527 C   0  0  1  0  0  0  0  0  0  0  0  0
   44.8088  -12.2227   -6.1387 C   0  0  0  0  0  0  0  0  0  0  0  0
   45.9074  -13.1674   -5.9189 C   0  0  0  0  0  0  0  0  0  0  0  0
   47.2407  -12.8623   -5.8598 C   0  0  0  0  0  0  0  0  0  0  0  0
   47.9393  -14.0048   -5.6424 N   0  0  0  0  0  0  0  0  0  0  0  0
   47.0270  -14.9899   -5.5719 C   0  0  0  0  0  0  0  0  0  0  0  0
   45.8006  -14.4873   -5.7383 N   0  0  0  0  0  0  0  0  0  0  0  0
   42.9077  -11.7072   -7.5847 C   0  0  0  0  0  0  0  0  0  0  0  0
   43.1132  -10.9517   -8.5911 O   0  0  0  0  0  0  0  0  0  0  0  0
   35.2982   -6.9677   -7.2922 O   0  0  0  0  0  0  0  0  0  0  0  0
   36.3203   -7.9225   -7.1739 C   0  0  0  0  0  0  0  0  0  0  0  0
   36.8112   -8.2896   -5.9399 C   0  0  0  0  0  0  0  0  0  0  0  0
   37.8154   -9.2271   -5.8148 C   0  0  0  0  0  0  0  0  0  0  0  0
   38.3746   -9.8398   -6.9131 C   0  0  0  0  0  0  0  0  0  0  0  0
   39.4386  -10.8362   -6.8178 C   0  0  0  0  0  0  0  0  0  0  0  0
   40.8081  -10.3658   -7.2296 C   0  0  2  0  0  0  0  0  0  0  0  0
   41.7128  -11.4772   -6.8809 N   0  0  0  0  0  0  0  0  0  0  0  0
   41.2481   -9.1564   -6.4976 C   0  0  0  0  0  0  0  0  0  0  0  0
   41.5330   -9.2107   -5.2798 O   0  0  0  0  0  0  0  0  0  0  0  0
   37.8828   -9.4721   -8.1513 C   0  0  0  0  0  0  0  0  0  0  0  0
   36.8694   -8.5268   -8.2839 C   0  0  0  0  0  0  0  0  0  0  0  0
   41.3572   -7.9105   -7.1606 N   0  0  0  0  0  0  0  0  0  0  0  0
   41.7415   -6.7036   -6.4553 C   0  0  1  0  0  0  0  0  0  0  0  0
   43.2372   -6.5877   -6.3083 C   0  0  0  0  0  0  0  0  0  0  0  0
   43.6632   -5.3149   -5.6803 C   0  0  0  0  0  0  0  0  0  0  0  0
   44.6498   -4.6435   -6.0410 O   0  0  0  0  0  0  0  0  0  0  0  0
   41.2386   -5.4806   -7.1036 C   0  0  0  0  0  0  0  0  0  0  0  0
   40.6846   -4.4998   -6.2962 O   0  0  0  0  0  0  0  0  0  0  0  0
   42.9005   -4.8341   -4.6043 O   0  0  0  0  0  0  0  0  0  0  0  0
   41.2788   -5.2699   -8.3302 O   0  0  0  0  0  0  0  0  0  0  0  0
  2  1  1  6
  3  2  1  0
  3  4  1  0
  4  5  2  0
  5  6  1  0
  7  6  1  0
  8  4  1  0
  8  7  2  0
  9 18  1  0
  9  2  1  0
 10  9  2  0
 11 12  1  0
 12 13  2  0
 13 14  1  0
 15 16  1  0
 15 14  2  0
 17 16  1  1
 17 18  1  0
 19 17  1  0
 20 19  2  0
 21 15  1  0
 22 21  2  0
 22 12  1  0
 23 19  1  0
 24 23  1  0
 25 26  1  0
 24 25  1  6
 26 27  2  0
 28 29  1  0
 28 24  1  0
 30 26  1  0
 31 28  2  0
M  END
$$$$
