HYD.pdb
     RDKit          3D

 31 32  0  0  1  0  0  0  0  0999 V2000
   25.6628  -32.5709   -4.1720 N   0  0  0  0  0  0  0  0  0  0  0  0
   25.7110  -33.8042   -3.4708 C   0  0  1  0  0  0  0  0  0  0  0  0
   27.0320  -34.5320   -3.5972 C   0  0  0  0  0  0  0  0  0  0  0  0
   27.3307  -34.7495   -5.0154 C   0  0  0  0  0  0  0  0  0  0  0  0
   28.3229  -34.1433   -5.7381 C   0  0  0  0  0  0  0  0  0  0  0  0
   28.2780  -34.6065   -7.0126 N   0  0  0  0  0  0  0  0  0  0  0  0
   27.2623  -35.4866   -7.0519 C   0  0  0  0  0  0  0  0  0  0  0  0
   26.6894  -35.5746   -5.8484 N   0  0  0  0  0  0  0  0  0  0  0  0
   25.3277  -33.7327   -2.0392 C   0  0  0  0  0  0  0  0  0  0  0  0
   25.8713  -32.8415   -1.3070 O   0  0  0  0  0  0  0  0  0  0  0  0
   19.3534  -30.0926   -1.3478 O   0  0  0  0  0  0  0  0  0  0  0  0
   20.1384  -31.2040   -1.0033 C   0  0  0  0  0  0  0  0  0  0  0  0
   20.4802  -32.1521   -1.9428 C   0  0  0  0  0  0  0  0  0  0  0  0
   21.2512  -33.2472   -1.6126 C   0  0  0  0  0  0  0  0  0  0  0  0
   21.7156  -33.4460   -0.3323 C   0  0  0  0  0  0  0  0  0  0  0  0
   22.5339  -34.5933    0.0527 C   0  0  0  0  0  0  0  0  0  0  0  0
   24.0224  -34.3716    0.0154 C   0  0  2  0  0  0  0  0  0  0  0  0
   24.4016  -34.5719   -1.3957 N   0  0  0  0  0  0  0  0  0  0  0  0
   24.7722  -35.3427    0.8443 C   0  0  0  0  0  0  0  0  0  0  0  0
   24.9762  -36.5098    0.4399 O   0  0  0  0  0  0  0  0  0  0  0  0
   21.3732  -32.4955    0.6109 C   0  0  0  0  0  0  0  0  0  0  0  0
   20.5955  -31.3881    0.2836 C   0  0  0  0  0  0  0  0  0  0  0  0
   25.2763  -34.9713    2.1138 N   0  0  0  0  0  0  0  0  0  0  0  0
   26.0435  -35.8932    2.9280 C   0  0  1  0  0  0  0  0  0  0  0  0
   26.9250  -35.1739    3.9170 C   0  0  0  0  0  0  0  0  0  0  0  0
   28.2035  -34.7112    3.3277 C   0  0  0  0  0  0  0  0  0  0  0  0
   28.5291  -34.8653    2.1341 O   0  0  0  0  0  0  0  0  0  0  0  0
   25.1946  -36.8456    3.6637 C   0  0  0  0  0  0  0  0  0  0  0  0
   23.8218  -36.6621    3.6147 O   0  0  0  0  0  0  0  0  0  0  0  0
   29.1093  -34.0539    4.1752 O   0  0  0  0  0  0  0  0  0  0  0  0
   25.6298  -37.8053    4.3272 O   0  0  0  0  0  0  0  0  0  0  0  0
  2  1  1  1
  3  2  1  0
  3  4  1  0
  4  5  2  0
  5  6  1  0
  7  6  1  0
  8  4  1  0
  8  7  2  0
  9 18  1  0
  9  2  1  0
 10  9  2  0
 11 12  1  0
 12 13  2  0
 13 14  1  0
 15 16  1  0
 15 14  2  0
 17 16  1  6
 17 18  1  0
 19 17  1  0
 20 19  2  0
 21 15  1  0
 22 21  2  0
 22 12  1  0
 23 19  1  0
 24 23  1  0
 25 26  1  0
 24 25  1  1
 26 27  2  0
 28 29  1  0
 28 24  1  0
 30 26  1  0
 31 28  2  0
M  END
$$$$
