HYD.pdb
     RDKit          3D

 31 32  0  0  1  0  0  0  0  0999 V2000
   23.5966  -11.6095  -20.0147 N   0  0  0  0  0  0  0  0  0  0  0  0
   23.1682  -10.2900  -19.7140 C   0  0  1  0  0  0  0  0  0  0  0  0
   21.8847   -9.8873  -20.4075 C   0  0  0  0  0  0  0  0  0  0  0  0
   22.1519   -9.6712  -21.8322 C   0  0  0  0  0  0  0  0  0  0  0  0
   22.5263  -10.6239  -22.7414 C   0  0  0  0  0  0  0  0  0  0  0  0
   22.6774  -10.0331  -23.9534 N   0  0  0  0  0  0  0  0  0  0  0  0
   22.3945   -8.7316  -23.7696 C   0  0  0  0  0  0  0  0  0  0  0  0
   22.0772   -8.5109  -22.4910 N   0  0  0  0  0  0  0  0  0  0  0  0
   23.0621   -9.9742  -18.2681 C   0  0  0  0  0  0  0  0  0  0  0  0
   22.6980  -10.8978  -17.4681 O   0  0  0  0  0  0  0  0  0  0  0  0
   28.9588  -11.4366  -16.5283 O   0  0  0  0  0  0  0  0  0  0  0  0
   27.8623  -10.5800  -16.3436 C   0  0  0  0  0  0  0  0  0  0  0  0
   27.0520  -10.6911  -15.2348 C   0  0  0  0  0  0  0  0  0  0  0  0
   25.9725   -9.8534  -15.0455 C   0  0  0  0  0  0  0  0  0  0  0  0
   25.6528   -8.8684  -15.9523 C   0  0  0  0  0  0  0  0  0  0  0  0
   24.5180   -7.9641  -15.7840 C   0  0  0  0  0  0  0  0  0  0  0  0
   23.1852   -8.5041  -16.2291 C   0  0  2  0  0  0  0  0  0  0  0  0
   23.3299   -8.7257  -17.6800 N   0  0  0  0  0  0  0  0  0  0  0  0
   22.0731   -7.5517  -16.0094 C   0  0  0  0  0  0  0  0  0  0  0  0
   21.8025   -7.1340  -14.8606 O   0  0  0  0  0  0  0  0  0  0  0  0
   26.4652   -8.7563  -17.0648 C   0  0  0  0  0  0  0  0  0  0  0  0
   27.5560   -9.5987  -17.2613 C   0  0  0  0  0  0  0  0  0  0  0  0
   21.2910   -7.0913  -17.0957 N   0  0  0  0  0  0  0  0  0  0  0  0
   20.1254   -6.2534  -16.8937 C   0  0  1  0  0  0  0  0  0  0  0  0
   19.1543   -6.8635  -15.9154 C   0  0  0  0  0  0  0  0  0  0  0  0
   17.9204   -6.0612  -15.7434 C   0  0  0  0  0  0  0  0  0  0  0  0
   17.0675   -5.8754  -16.6336 O   0  0  0  0  0  0  0  0  0  0  0  0
   20.4708   -4.8996  -16.4280 C   0  0  0  0  0  0  0  0  0  0  0  0
   21.7813   -4.6604  -16.0455 O   0  0  0  0  0  0  0  0  0  0  0  0
   17.6992   -5.4702  -14.4894 O   0  0  0  0  0  0  0  0  0  0  0  0
   19.6623   -3.9554  -16.3555 O   0  0  0  0  0  0  0  0  0  0  0  0
  2  1  1  1
  3  2  1  0
  3  4  1  0
  4  5  2  0
  5  6  1  0
  7  6  1  0
  8  4  1  0
  8  7  2  0
  9 18  1  0
  9  2  1  0
 10  9  2  0
 11 12  1  0
 12 13  2  0
 13 14  1  0
 15 16  1  0
 15 14  2  0
 17 16  1  6
 17 18  1  0
 19 17  1  0
 20 19  2  0
 21 15  1  0
 22 21  2  0
 22 12  1  0
 23 19  1  0
 24 23  1  0
 25 26  1  0
 24 25  1  1
 26 27  2  0
 28 29  1  0
 28 24  1  0
 30 26  1  0
 31 28  2  0
M  END
$$$$
