HYD.pdb
     RDKit          3D

 31 32  0  0  1  0  0  0  0  0999 V2000
   25.4045  -36.8157   -7.7412 N   0  0  0  0  0  0  0  0  0  0  0  0
   25.5677  -37.1072   -6.3617 C   0  0  1  0  0  0  0  0  0  0  0  0
   25.5410  -38.5856   -6.0384 C   0  0  0  0  0  0  0  0  0  0  0  0
   24.1972  -39.1121   -6.2930 C   0  0  0  0  0  0  0  0  0  0  0  0
   23.8500  -40.0178   -7.2593 C   0  0  0  0  0  0  0  0  0  0  0  0
   22.5165  -40.2533   -7.1759 N   0  0  0  0  0  0  0  0  0  0  0  0
   22.0677  -39.4910   -6.1634 C   0  0  0  0  0  0  0  0  0  0  0  0
   23.0796  -38.8017   -5.6293 N   0  0  0  0  0  0  0  0  0  0  0  0
   26.7545  -36.4886   -5.7211 C   0  0  0  0  0  0  0  0  0  0  0  0
   27.8958  -36.6541   -6.2650 O   0  0  0  0  0  0  0  0  0  0  0  0
   25.6556  -31.7103   -9.2221 O   0  0  0  0  0  0  0  0  0  0  0  0
   26.1194  -32.1579   -7.9752 C   0  0  0  0  0  0  0  0  0  0  0  0
   27.4261  -32.5603   -7.8052 C   0  0  0  0  0  0  0  0  0  0  0  0
   27.8901  -33.0015   -6.5832 C   0  0  0  0  0  0  0  0  0  0  0  0
   27.0728  -33.0611   -5.4773 C   0  0  0  0  0  0  0  0  0  0  0  0
   27.5301  -33.5225   -4.1688 C   0  0  0  0  0  0  0  0  0  0  0  0
   27.9321  -34.9713   -4.0947 C   0  0  2  0  0  0  0  0  0  0  0  0
   26.7433  -35.7194   -4.5445 N   0  0  0  0  0  0  0  0  0  0  0  0
   28.2683  -35.4082   -2.7206 C   0  0  0  0  0  0  0  0  0  0  0  0
   27.3867  -35.8646   -1.9579 O   0  0  0  0  0  0  0  0  0  0  0  0
   25.7619  -32.6576   -5.6470 C   0  0  0  0  0  0  0  0  0  0  0  0
   25.2879  -32.2113   -6.8776 C   0  0  0  0  0  0  0  0  0  0  0  0
   29.5965  -35.3199   -2.2391 N   0  0  0  0  0  0  0  0  0  0  0  0
   29.9402  -35.6907   -0.8804 C   0  0  1  0  0  0  0  0  0  0  0  0
   31.4320  -35.7449   -0.6704 C   0  0  0  0  0  0  0  0  0  0  0  0
   32.1053  -36.7426   -1.5346 C   0  0  0  0  0  0  0  0  0  0  0  0
   33.3235  -36.7413   -1.8001 O   0  0  0  0  0  0  0  0  0  0  0  0
   29.3589  -34.7821    0.1223 C   0  0  0  0  0  0  0  0  0  0  0  0
   29.5874  -35.0618    1.4603 O   0  0  0  0  0  0  0  0  0  0  0  0
   31.3135  -37.7591   -2.0920 O   0  0  0  0  0  0  0  0  0  0  0  0
   28.6754  -33.7785   -0.1535 O   0  0  0  0  0  0  0  0  0  0  0  0
  2  1  1  6
  3  2  1  0
  3  4  1  0
  4  5  2  0
  5  6  1  0
  7  6  1  0
  8  4  1  0
  8  7  2  0
  9 18  1  0
  9  2  1  0
 10  9  2  0
 11 12  1  0
 12 13  2  0
 13 14  1  0
 15 16  1  0
 15 14  2  0
 17 16  1  1
 17 18  1  0
 19 17  1  0
 20 19  2  0
 21 15  1  0
 22 21  2  0
 22 12  1  0
 23 19  1  0
 24 23  1  0
 25 26  1  0
 24 25  1  6
 26 27  2  0
 28 29  1  0
 28 24  1  0
 30 26  1  0
 31 28  2  0
M  END
$$$$
