GFN.pdb
     RDKit          3D

 24 24  0  0  1  0  0  0  0  0999 V2000
   26.1923  -24.6266  -15.7887 N   0  0  0  0  0  0  0  0  0  0  0  0
   26.4123  -23.1947  -15.7157 C   0  0  0  0  0  0  0  0  0  0  0  0
   25.7571  -22.7022  -14.4712 C   0  0  0  0  0  0  0  0  0  0  0  0
   24.9566  -23.4442  -13.8365 O   0  0  0  0  0  0  0  0  0  0  0  0
   25.9854  -21.4149  -13.9444 N   0  0  0  0  0  0  0  0  0  0  0  0
   25.1686  -20.9069  -12.8310 C   0  0  1  0  0  0  0  0  0  0  0  0
   25.9583  -19.8032  -12.1503 C   0  0  0  0  0  0  0  0  0  0  0  0
   26.7614  -20.2676  -11.0152 C   0  0  0  0  0  0  0  0  0  0  0  0
   26.2515  -20.2715   -9.7371 C   0  0  0  0  0  0  0  0  0  0  0  0
   26.9993  -20.7175   -8.6867 C   0  0  0  0  0  0  0  0  0  0  0  0
   28.2788  -21.1649   -8.9345 C   0  0  0  0  0  0  0  0  0  0  0  0
   28.8182  -21.1741  -10.2008 C   0  0  0  0  0  0  0  0  0  0  0  0
   28.0509  -20.7186  -11.2632 C   0  0  0  0  0  0  0  0  0  0  0  0
   23.8633  -20.4294  -13.3208 C   0  0  0  0  0  0  0  0  0  0  0  0
   23.8142  -19.8599  -14.4505 O   0  0  0  0  0  0  0  0  0  0  0  0
   19.0166  -21.0632  -14.5731 N   0  0  0  0  0  0  0  0  0  0  0  0
   20.0166  -22.0868  -14.6714 C   0  0  0  0  0  0  0  0  0  0  0  0
   19.6980  -23.1191  -15.3581 O   0  0  0  0  0  0  0  0  0  0  0  0
   21.3435  -21.9872  -14.0306 C   0  0  0  0  0  0  0  0  0  0  0  0
   21.3984  -20.7337  -13.2020 C   0  0  2  0  0  0  0  0  0  0  0  0
   22.7076  -20.6023  -12.5536 N   0  0  0  0  0  0  0  0  0  0  0  0
   20.3290  -20.7671  -12.1880 C   0  0  0  0  0  0  0  0  0  0  0  0
   20.4939  -21.4757  -11.1524 O   0  0  0  0  0  0  0  0  0  0  0  0
   19.1376  -20.0618  -12.2948 O   0  0  0  0  0  0  0  0  0  0  0  0
  1  2  1  0
  3  2  1  0
  3  4  2  0
  5  3  1  0
  6 14  1  0
  6  5  1  0
  6  7  1  6
  8  7  1  0
  9  8  2  0
 10  9  1  0
 11 12  1  0
 11 10  2  0
 12 13  2  0
 13  8  1  0
 14 21  1  0
 15 14  2  0
 16 17  1  0
 17 18  2  0
 20 19  1  1
 19 17  1  0
 21 20  1  0
 22 24  1  0
 22 20  1  0
 23 22  2  0
M  END
$$$$
