GFN.pdb
     RDKit          3D

 24 24  0  0  1  0  0  0  0  0999 V2000
   22.5128    2.0248  -13.0454 N   0  0  0  0  0  0  0  0  0  0  0  0
   23.9298    2.2758  -12.8632 C   0  0  0  0  0  0  0  0  0  0  0  0
   24.1114    2.8634  -11.5059 C   0  0  0  0  0  0  0  0  0  0  0  0
   23.1513    2.8809  -10.6860 O   0  0  0  0  0  0  0  0  0  0  0  0
   25.3310    3.4193  -11.0698 N   0  0  0  0  0  0  0  0  0  0  0  0
   25.4615    3.9604   -9.7078 C   0  0  1  0  0  0  0  0  0  0  0  0
   26.6152    3.2369   -9.0364 C   0  0  0  0  0  0  0  0  0  0  0  0
   26.2263    1.9792   -8.3913 C   0  0  0  0  0  0  0  0  0  0  0  0
   25.6592    1.9684   -7.1376 C   0  0  0  0  0  0  0  0  0  0  0  0
   25.2871    0.7956   -6.5480 C   0  0  0  0  0  0  0  0  0  0  0  0
   25.4921   -0.3800   -7.2371 C   0  0  0  0  0  0  0  0  0  0  0  0
   26.0567   -0.4033   -8.4923 C   0  0  0  0  0  0  0  0  0  0  0  0
   26.4323    0.7939   -9.0843 C   0  0  0  0  0  0  0  0  0  0  0  0
   25.6726    5.4182   -9.7466 C   0  0  0  0  0  0  0  0  0  0  0  0
   26.6215    5.8721  -10.4514 O   0  0  0  0  0  0  0  0  0  0  0  0
   24.3151   10.6148  -11.3011 N   0  0  0  0  0  0  0  0  0  0  0  0
   24.4093    9.8217  -10.1096 C   0  0  0  0  0  0  0  0  0  0  0  0
   24.7309   10.4491   -9.0413 O   0  0  0  0  0  0  0  0  0  0  0  0
   24.1574    8.3666  -10.0831 C   0  0  0  0  0  0  0  0  0  0  0  0
   25.0586    7.7286   -9.0624 C   0  0  2  0  0  0  0  0  0  0  0  0
   24.8432    6.2782   -9.0208 N   0  0  0  0  0  0  0  0  0  0  0  0
   24.7980    8.3203   -7.7377 C   0  0  0  0  0  0  0  0  0  0  0  0
   23.8858    7.8207   -7.0166 O   0  0  0  0  0  0  0  0  0  0  0  0
   25.4978    9.4028   -7.2213 O   0  0  0  0  0  0  0  0  0  0  0  0
  1  2  1  0
  3  2  1  0
  3  4  2  0
  5  3  1  0
  6 14  1  0
  6  5  1  0
  6  7  1  6
  8  7  1  0
  9  8  2  0
 10  9  1  0
 11 12  1  0
 11 10  2  0
 12 13  2  0
 13  8  1  0
 14 21  1  0
 15 14  2  0
 16 17  1  0
 17 18  2  0
 20 19  1  6
 19 17  1  0
 21 20  1  0
 22 24  1  0
 22 20  1  0
 23 22  2  0
M  END
$$$$
