GFN.pdb
     RDKit          3D

 24 24  0  0  1  0  0  0  0  0999 V2000
   29.1845  -22.5840  -17.5888 N   0  0  0  0  0  0  0  0  0  0  0  0
   28.4812  -21.3653  -17.2364 C   0  0  0  0  0  0  0  0  0  0  0  0
   27.6187  -21.6683  -16.0596 C   0  0  0  0  0  0  0  0  0  0  0  0
   27.4319  -22.8636  -15.6981 O   0  0  0  0  0  0  0  0  0  0  0  0
   26.9780  -20.6667  -15.3025 N   0  0  0  0  0  0  0  0  0  0  0  0
   26.1763  -21.0207  -14.1206 C   0  0  1  0  0  0  0  0  0  0  0  0
   26.4944  -20.0107  -13.0326 C   0  0  0  0  0  0  0  0  0  0  0  0
   25.8107  -20.2771  -11.7634 C   0  0  0  0  0  0  0  0  0  0  0  0
   26.4494  -20.9308  -10.7347 C   0  0  0  0  0  0  0  0  0  0  0  0
   25.8120  -21.1641   -9.5511 C   0  0  0  0  0  0  0  0  0  0  0  0
   24.5121  -20.7295   -9.4084 C   0  0  0  0  0  0  0  0  0  0  0  0
   23.8453  -20.0728  -10.4177 C   0  0  0  0  0  0  0  0  0  0  0  0
   24.5009  -19.8401  -11.6181 C   0  0  0  0  0  0  0  0  0  0  0  0
   24.7410  -21.0387  -14.4537 C   0  0  0  0  0  0  0  0  0  0  0  0
   24.2768  -20.1068  -15.1741 O   0  0  0  0  0  0  0  0  0  0  0  0
   19.8789  -22.3589  -15.2180 N   0  0  0  0  0  0  0  0  0  0  0  0
   20.5667  -23.5261  -14.7467 C   0  0  0  0  0  0  0  0  0  0  0  0
   19.8916  -24.6137  -14.7458 O   0  0  0  0  0  0  0  0  0  0  0  0
   21.9687  -23.5081  -14.2827 C   0  0  0  0  0  0  0  0  0  0  0  0
   22.4952  -22.1017  -14.3576 C   0  0  2  0  0  0  0  0  0  0  0  0
   23.9129  -22.0622  -13.9835 N   0  0  0  0  0  0  0  0  0  0  0  0
   21.7082  -21.2335  -13.4632 C   0  0  0  0  0  0  0  0  0  0  0  0
   21.8003  -21.4047  -12.2126 O   0  0  0  0  0  0  0  0  0  0  0  0
   20.8626  -20.2259  -13.9081 O   0  0  0  0  0  0  0  0  0  0  0  0
  1  2  1  0
  3  2  1  0
  3  4  2  0
  5  3  1  0
  6 14  1  0
  6  5  1  0
  6  7  1  1
  8  7  1  0
  9  8  2  0
 10  9  1  0
 11 12  1  0
 11 10  2  0
 12 13  2  0
 13  8  1  0
 14 21  1  0
 15 14  2  0
 16 17  1  0
 17 18  2  0
 20 19  1  1
 19 17  1  0
 21 20  1  0
 22 24  1  0
 22 20  1  0
 23 22  2  0
M  END
$$$$
