GFN.pdb
     RDKit          3D

 24 24  0  0  1  0  0  0  0  0999 V2000
   15.8024  -21.7157    0.9936 N   0  0  0  0  0  0  0  0  0  0  0  0
   15.4997  -20.3123    1.2012 C   0  0  0  0  0  0  0  0  0  0  0  0
   16.4612  -19.7900    2.2128 C   0  0  0  0  0  0  0  0  0  0  0  0
   17.3582  -20.5419    2.6864 O   0  0  0  0  0  0  0  0  0  0  0  0
   16.4265  -18.4634    2.6878 N   0  0  0  0  0  0  0  0  0  0  0  0
   17.3659  -18.0170    3.7284 C   0  0  1  0  0  0  0  0  0  0  0  0
   17.7770  -16.5942    3.3941 C   0  0  0  0  0  0  0  0  0  0  0  0
   18.9908  -16.5085    2.5763 C   0  0  0  0  0  0  0  0  0  0  0  0
   19.6857  -17.6395    2.2138 C   0  0  0  0  0  0  0  0  0  0  0  0
   20.8072  -17.5543    1.4414 C   0  0  0  0  0  0  0  0  0  0  0  0
   21.2292  -16.3082    1.0316 C   0  0  0  0  0  0  0  0  0  0  0  0
   20.5568  -15.1579    1.3768 C   0  0  0  0  0  0  0  0  0  0  0  0
   19.4174  -15.2537    2.1627 C   0  0  0  0  0  0  0  0  0  0  0  0
   16.7468  -18.1130    5.0622 C   0  0  0  0  0  0  0  0  0  0  0  0
   15.4943  -18.2826    5.1354 O   0  0  0  0  0  0  0  0  0  0  0  0
   14.7155  -19.6942    9.4448 N   0  0  0  0  0  0  0  0  0  0  0  0
   16.0817  -19.9315    9.0780 C   0  0  0  0  0  0  0  0  0  0  0  0
   16.8493  -20.3517   10.0122 O   0  0  0  0  0  0  0  0  0  0  0  0
   16.6037  -19.7134    7.7137 C   0  0  0  0  0  0  0  0  0  0  0  0
   16.9311  -18.2565    7.5377 C   0  0  2  0  0  0  0  0  0  0  0  0
   17.5267  -18.0185    6.2185 N   0  0  0  0  0  0  0  0  0  0  0  0
   17.8594  -17.8291    8.6001 C   0  0  0  0  0  0  0  0  0  0  0  0
   19.0873  -17.7027    8.3211 O   0  0  0  0  0  0  0  0  0  0  0  0
   17.4699  -17.5507    9.9036 O   0  0  0  0  0  0  0  0  0  0  0  0
  1  2  1  0
  3  2  1  0
  3  4  2  0
  5  3  1  0
  6 14  1  0
  6  5  1  0
  6  7  1  6
  8  7  1  0
  9  8  2  0
 10  9  1  0
 11 12  1  0
 11 10  2  0
 12 13  2  0
 13  8  1  0
 14 21  1  0
 15 14  2  0
 16 17  1  0
 17 18  2  0
 20 19  1  1
 19 17  1  0
 21 20  1  0
 22 24  1  0
 22 20  1  0
 23 22  2  0
M  END
$$$$
