GFN.pdb
     RDKit          3D

 24 24  0  0  1  0  0  0  0  0999 V2000
   26.9449  -20.9499  -18.4147 N   0  0  0  0  0  0  0  0  0  0  0  0
   26.0179  -19.9812  -17.8612 C   0  0  0  0  0  0  0  0  0  0  0  0
   25.5268  -20.5206  -16.5618 C   0  0  0  0  0  0  0  0  0  0  0  0
   25.1695  -21.7279  -16.4678 O   0  0  0  0  0  0  0  0  0  0  0  0
   25.4341  -19.7366  -15.3941 N   0  0  0  0  0  0  0  0  0  0  0  0
   24.8374  -20.2892  -14.1679 C   0  0  1  0  0  0  0  0  0  0  0  0
   25.5385  -19.6430  -12.9863 C   0  0  0  0  0  0  0  0  0  0  0  0
   25.1081  -20.1681  -11.6870 C   0  0  0  0  0  0  0  0  0  0  0  0
   25.8541  -21.1115  -11.0184 C   0  0  0  0  0  0  0  0  0  0  0  0
   25.4551  -21.5866   -9.8032 C   0  0  0  0  0  0  0  0  0  0  0  0
   24.2865  -21.0996   -9.2592 C   0  0  0  0  0  0  0  0  0  0  0  0
   23.5178  -20.1559   -9.9021 C   0  0  0  0  0  0  0  0  0  0  0  0
   23.9308  -19.6785  -11.1375 C   0  0  0  0  0  0  0  0  0  0  0  0
   23.3836  -20.0497  -14.1448 C   0  0  0  0  0  0  0  0  0  0  0  0
   22.9392  -18.9839  -14.6640 O   0  0  0  0  0  0  0  0  0  0  0  0
   18.1235  -21.5770  -15.4420 N   0  0  0  0  0  0  0  0  0  0  0  0
   19.0990  -20.6160  -15.0152 C   0  0  0  0  0  0  0  0  0  0  0  0
   18.6416  -19.4834  -14.6323 O   0  0  0  0  0  0  0  0  0  0  0  0
   20.5512  -20.8850  -15.0064 C   0  0  0  0  0  0  0  0  0  0  0  0
   21.0663  -20.7671  -13.5987 C   0  0  2  0  0  0  0  0  0  0  0  0
   22.5172  -20.9793  -13.5621 N   0  0  0  0  0  0  0  0  0  0  0  0
   20.3855  -21.7543  -12.7415 C   0  0  0  0  0  0  0  0  0  0  0  0
   20.8714  -22.9193  -12.6504 O   0  0  0  0  0  0  0  0  0  0  0  0
   19.2319  -21.4862  -12.0164 O   0  0  0  0  0  0  0  0  0  0  0  0
  1  2  1  0
  3  2  1  0
  3  4  2  0
  5  3  1  0
  6 14  1  0
  6  5  1  0
  6  7  1  1
  8  7  1  0
  9  8  2  0
 10  9  1  0
 11 12  1  0
 11 10  2  0
 12 13  2  0
 13  8  1  0
 14 21  1  0
 15 14  2  0
 16 17  1  0
 17 18  2  0
 20 19  1  6
 19 17  1  0
 21 20  1  0
 22 24  1  0
 22 20  1  0
 23 22  2  0
M  END
$$$$
