GFN.pdb
     RDKit          3D

 24 24  0  0  1  0  0  0  0  0999 V2000
   31.2761  -22.2825  -10.3006 N   0  0  0  0  0  0  0  0  0  0  0  0
   30.6552  -20.9755  -10.1990 C   0  0  0  0  0  0  0  0  0  0  0  0
   29.2716  -21.1741   -9.6827 C   0  0  0  0  0  0  0  0  0  0  0  0
   28.7592  -22.3279   -9.6617 O   0  0  0  0  0  0  0  0  0  0  0  0
   28.4753  -20.1152   -9.2015 N   0  0  0  0  0  0  0  0  0  0  0  0
   27.0654  -20.3414   -8.8467 C   0  0  1  0  0  0  0  0  0  0  0  0
   26.7110  -19.3682   -7.7365 C   0  0  0  0  0  0  0  0  0  0  0  0
   27.3983  -19.6426   -6.4710 C   0  0  0  0  0  0  0  0  0  0  0  0
   27.1581  -20.8006   -5.7675 C   0  0  0  0  0  0  0  0  0  0  0  0
   27.8109  -21.0564   -4.5969 C   0  0  0  0  0  0  0  0  0  0  0  0
   28.7178  -20.1279   -4.1342 C   0  0  0  0  0  0  0  0  0  0  0  0
   28.9808  -18.9603   -4.8141 C   0  0  0  0  0  0  0  0  0  0  0  0
   28.3124  -18.7080   -6.0034 C   0  0  0  0  0  0  0  0  0  0  0  0
   26.1995  -20.1707  -10.0268 C   0  0  0  0  0  0  0  0  0  0  0  0
   26.5010  -19.2782  -10.8726 O   0  0  0  0  0  0  0  0  0  0  0  0
   24.1977  -22.3376  -14.6770 N   0  0  0  0  0  0  0  0  0  0  0  0
   23.6341  -22.3601  -13.3581 C   0  0  0  0  0  0  0  0  0  0  0  0
   22.3560  -22.3911  -13.2940 O   0  0  0  0  0  0  0  0  0  0  0  0
   24.4510  -22.3485  -12.1278 C   0  0  0  0  0  0  0  0  0  0  0  0
   24.3638  -20.9893  -11.4905 C   0  0  2  0  0  0  0  0  0  0  0  0
   25.0715  -20.9769  -10.2058 N   0  0  0  0  0  0  0  0  0  0  0  0
   22.9481  -20.6275  -11.2955 C   0  0  0  0  0  0  0  0  0  0  0  0
   22.3682  -20.9898  -10.2305 O   0  0  0  0  0  0  0  0  0  0  0  0
   22.1995  -19.9043  -12.2146 O   0  0  0  0  0  0  0  0  0  0  0  0
  1  2  1  0
  3  2  1  0
  3  4  2  0
  5  3  1  0
  6 14  1  0
  6  5  1  0
  6  7  1  1
  8  7  1  0
  9  8  2  0
 10  9  1  0
 11 12  1  0
 11 10  2  0
 12 13  2  0
 13  8  1  0
 14 21  1  0
 15 14  2  0
 16 17  1  0
 17 18  2  0
 20 19  1  1
 19 17  1  0
 21 20  1  0
 22 24  1  0
 22 20  1  0
 23 22  2  0
M  END
$$$$
