GFN.pdb
     RDKit          3D

 24 24  0  0  1  0  0  0  0  0999 V2000
   21.9825  -30.4566  -14.4231 N   0  0  0  0  0  0  0  0  0  0  0  0
   21.7356  -29.0292  -14.4981 C   0  0  0  0  0  0  0  0  0  0  0  0
   20.7298  -28.6914  -13.4517 C   0  0  0  0  0  0  0  0  0  0  0  0
   19.7130  -29.4214  -13.2866 O   0  0  0  0  0  0  0  0  0  0  0  0
   20.8507  -27.5682  -12.6087 N   0  0  0  0  0  0  0  0  0  0  0  0
   19.8564  -27.3144  -11.5542 C   0  0  1  0  0  0  0  0  0  0  0  0
   20.6006  -27.2343  -10.2332 C   0  0  0  0  0  0  0  0  0  0  0  0
   20.9977  -28.5412   -9.7007 C   0  0  0  0  0  0  0  0  0  0  0  0
   20.1078  -29.3252   -9.0028 C   0  0  0  0  0  0  0  0  0  0  0  0
   20.4795  -30.5465   -8.5211 C   0  0  0  0  0  0  0  0  0  0  0  0
   21.7680  -30.9783   -8.7497 C   0  0  0  0  0  0  0  0  0  0  0  0
   22.6819  -30.2184   -9.4440 C   0  0  0  0  0  0  0  0  0  0  0  0
   22.2956  -28.9776   -9.9300 C   0  0  0  0  0  0  0  0  0  0  0  0
   19.1025  -26.0805  -11.8380 C   0  0  0  0  0  0  0  0  0  0  0  0
   19.7122  -25.1116  -12.3789 O   0  0  0  0  0  0  0  0  0  0  0  0
   15.5510  -22.5251  -12.5900 N   0  0  0  0  0  0  0  0  0  0  0  0
   16.0191  -23.4215  -13.6072 C   0  0  0  0  0  0  0  0  0  0  0  0
   15.6618  -23.1471  -14.8054 O   0  0  0  0  0  0  0  0  0  0  0  0
   16.8634  -24.5996  -13.3230 C   0  0  0  0  0  0  0  0  0  0  0  0
   16.9912  -24.7672  -11.8342 C   0  0  2  0  0  0  0  0  0  0  0  0
   17.7456  -25.9843  -11.5162 N   0  0  0  0  0  0  0  0  0  0  0  0
   15.6484  -24.8276  -11.2289 C   0  0  0  0  0  0  0  0  0  0  0  0
   15.0801  -23.7460  -10.8989 O   0  0  0  0  0  0  0  0  0  0  0  0
   14.9562  -26.0086  -10.9953 O   0  0  0  0  0  0  0  0  0  0  0  0
  1  2  1  0
  3  2  1  0
  3  4  2  0
  5  3  1  0
  6 14  1  0
  6  5  1  0
  6  7  1  1
  8  7  1  0
  9  8  2  0
 10  9  1  0
 11 12  1  0
 11 10  2  0
 12 13  2  0
 13  8  1  0
 14 21  1  0
 15 14  2  0
 16 17  1  0
 17 18  2  0
 20 19  1  6
 19 17  1  0
 21 20  1  0
 22 24  1  0
 22 20  1  0
 23 22  2  0
M  END
$$$$
