GFN.pdb
     RDKit          3D

 24 24  0  0  1  0  0  0  0  0999 V2000
   28.5801  -21.9558  -16.1283 N   0  0  0  0  0  0  0  0  0  0  0  0
   28.0043  -20.7653  -15.5322 C   0  0  0  0  0  0  0  0  0  0  0  0
   26.9713  -21.2073  -14.5534 C   0  0  0  0  0  0  0  0  0  0  0  0
   26.6382  -22.4233  -14.4847 O   0  0  0  0  0  0  0  0  0  0  0  0
   26.3229  -20.3190  -13.6718 N   0  0  0  0  0  0  0  0  0  0  0  0
   25.3930  -20.8252  -12.6501 C   0  0  1  0  0  0  0  0  0  0  0  0
   25.5408  -19.9462  -11.4210 C   0  0  0  0  0  0  0  0  0  0  0  0
   26.6279  -20.3596  -10.5285 C   0  0  0  0  0  0  0  0  0  0  0  0
   26.4655  -20.3596   -9.1620 C   0  0  0  0  0  0  0  0  0  0  0  0
   27.4766  -20.7581   -8.3371 C   0  0  0  0  0  0  0  0  0  0  0  0
   28.6661  -21.1615   -8.9038 C   0  0  0  0  0  0  0  0  0  0  0  0
   28.8605  -21.1734  -10.2664 C   0  0  0  0  0  0  0  0  0  0  0  0
   27.8271  -20.7663  -11.0979 C   0  0  0  0  0  0  0  0  0  0  0  0
   24.0113  -20.8291  -13.1623 C   0  0  0  0  0  0  0  0  0  0  0  0
   23.6042  -19.8190  -13.8081 O   0  0  0  0  0  0  0  0  0  0  0  0
   19.2400  -22.1165  -14.4931 N   0  0  0  0  0  0  0  0  0  0  0  0
   19.8220  -23.2740  -13.8775 C   0  0  0  0  0  0  0  0  0  0  0  0
   19.1080  -24.3363  -13.8911 O   0  0  0  0  0  0  0  0  0  0  0  0
   21.1619  -23.2735  -13.2561 C   0  0  0  0  0  0  0  0  0  0  0  0
   21.8019  -21.9290  -13.4644 C   0  0  2  0  0  0  0  0  0  0  0  0
   23.1713  -21.9239  -12.9388 N   0  0  0  0  0  0  0  0  0  0  0  0
   20.9959  -20.8915  -12.7957 C   0  0  0  0  0  0  0  0  0  0  0  0
   20.0155  -20.3875  -13.4173 O   0  0  0  0  0  0  0  0  0  0  0  0
   21.2438  -20.4259  -11.5112 O   0  0  0  0  0  0  0  0  0  0  0  0
  1  2  1  0
  3  2  1  0
  3  4  2  0
  5  3  1  0
  6 14  1  0
  6  5  1  0
  6  7  1  1
  8  7  1  0
  9  8  2  0
 10  9  1  0
 11 12  1  0
 11 10  2  0
 12 13  2  0
 13  8  1  0
 14 21  1  0
 15 14  2  0
 16 17  1  0
 17 18  2  0
 20 19  1  1
 19 17  1  0
 21 20  1  0
 22 24  1  0
 22 20  1  0
 23 22  2  0
M  END
$$$$
