GFN.pdb
     RDKit          3D

 24 24  0  0  1  0  0  0  0  0999 V2000
   27.9568  -17.0684  -15.1316 N   0  0  0  0  0  0  0  0  0  0  0  0
   27.2481  -17.1734  -13.8704 C   0  0  0  0  0  0  0  0  0  0  0  0
   26.6897  -18.5522  -13.7820 C   0  0  0  0  0  0  0  0  0  0  0  0
   26.4647  -19.2166  -14.8319 O   0  0  0  0  0  0  0  0  0  0  0  0
   26.3877  -19.1781  -12.5557 N   0  0  0  0  0  0  0  0  0  0  0  0
   25.8290  -20.5390  -12.5284 C   0  0  1  0  0  0  0  0  0  0  0  0
   26.4913  -21.2828  -11.3824 C   0  0  0  0  0  0  0  0  0  0  0  0
   27.9510  -21.3590  -11.4950 C   0  0  0  0  0  0  0  0  0  0  0  0
   28.7670  -20.9117  -10.4813 C   0  0  0  0  0  0  0  0  0  0  0  0
   30.1247  -20.9975  -10.5865 C   0  0  0  0  0  0  0  0  0  0  0  0
   30.6614  -21.5433  -11.7323 C   0  0  0  0  0  0  0  0  0  0  0  0
   29.8730  -21.9999  -12.7640 C   0  0  0  0  0  0  0  0  0  0  0  0
   28.4934  -21.9085  -12.6489 C   0  0  0  0  0  0  0  0  0  0  0  0
   24.3633  -20.4953  -12.3836 C   0  0  0  0  0  0  0  0  0  0  0  0
   23.8592  -19.6346  -11.6039 O   0  0  0  0  0  0  0  0  0  0  0  0
   19.9073  -18.6421  -13.9243 N   0  0  0  0  0  0  0  0  0  0  0  0
   20.7949  -19.4540  -14.7055 C   0  0  0  0  0  0  0  0  0  0  0  0
   20.3190  -19.9112  -15.8023 O   0  0  0  0  0  0  0  0  0  0  0  0
   22.1802  -19.7635  -14.2973 C   0  0  0  0  0  0  0  0  0  0  0  0
   22.1798  -21.0099  -13.4563 C   0  0  2  0  0  0  0  0  0  0  0  0
   23.5502  -21.3851  -13.0917 N   0  0  0  0  0  0  0  0  0  0  0  0
   21.5328  -22.1055  -14.2006 C   0  0  0  0  0  0  0  0  0  0  0  0
   20.3984  -22.5152  -13.8172 O   0  0  0  0  0  0  0  0  0  0  0  0
   22.0925  -22.7246  -15.3104 O   0  0  0  0  0  0  0  0  0  0  0  0
  1  2  1  0
  3  2  1  0
  3  4  2  0
  5  3  1  0
  6 14  1  0
  6  5  1  0
  6  7  1  1
  8  7  1  0
  9  8  2  0
 10  9  1  0
 11 12  1  0
 11 10  2  0
 12 13  2  0
 13  8  1  0
 14 21  1  0
 15 14  2  0
 16 17  1  0
 17 18  2  0
 20 19  1  6
 19 17  1  0
 21 20  1  0
 22 24  1  0
 22 20  1  0
 23 22  2  0
M  END
$$$$
