GFN.pdb
     RDKit          3D

 24 24  0  0  1  0  0  0  0  0999 V2000
   24.5091  -12.1032  -19.8287 N   0  0  0  0  0  0  0  0  0  0  0  0
   24.1169  -10.7261  -20.0607 C   0  0  0  0  0  0  0  0  0  0  0  0
   23.7716  -10.1285  -18.7400 C   0  0  0  0  0  0  0  0  0  0  0  0
   23.0555  -10.7677  -17.9196 O   0  0  0  0  0  0  0  0  0  0  0  0
   24.2110   -8.8503  -18.3402 N   0  0  0  0  0  0  0  0  0  0  0  0
   23.7721   -8.2756  -17.0589 C   0  0  1  0  0  0  0  0  0  0  0  0
   25.0110   -7.7946  -16.3247 C   0  0  0  0  0  0  0  0  0  0  0  0
   25.9834   -8.8571  -16.0513 C   0  0  0  0  0  0  0  0  0  0  0  0
   25.7628   -9.7856  -15.0600 C   0  0  0  0  0  0  0  0  0  0  0  0
   26.6654  -10.7800  -14.8192 C   0  0  0  0  0  0  0  0  0  0  0  0
   27.8047  -10.8342  -15.5923 C   0  0  0  0  0  0  0  0  0  0  0  0
   28.0550   -9.9211  -16.5914 C   0  0  0  0  0  0  0  0  0  0  0  0
   27.1320   -8.9129  -16.8294 C   0  0  0  0  0  0  0  0  0  0  0  0
   22.8059   -7.1858  -17.2828 C   0  0  0  0  0  0  0  0  0  0  0  0
   23.1396   -6.2300  -18.0430 O   0  0  0  0  0  0  0  0  0  0  0  0
   20.6045   -5.6535  -19.6427 N   0  0  0  0  0  0  0  0  0  0  0  0
   19.5035   -6.3824  -19.0822 C   0  0  0  0  0  0  0  0  0  0  0  0
   18.6123   -6.7789  -19.9111 O   0  0  0  0  0  0  0  0  0  0  0  0
   19.3754   -6.6741  -17.6401 C   0  0  0  0  0  0  0  0  0  0  0  0
   20.5808   -6.1371  -16.9192 C   0  0  2  0  0  0  0  0  0  0  0  0
   21.5503   -7.2089  -16.6685 N   0  0  0  0  0  0  0  0  0  0  0  0
   20.1601   -5.5232  -15.6468 C   0  0  0  0  0  0  0  0  0  0  0  0
   19.4843   -4.4537  -15.6809 O   0  0  0  0  0  0  0  0  0  0  0  0
   20.4588   -6.0489  -14.3967 O   0  0  0  0  0  0  0  0  0  0  0  0
  1  2  1  0
  3  2  1  0
  3  4  2  0
  5  3  1  0
  6 14  1  0
  6  5  1  0
  6  7  1  6
  8  7  1  0
  9  8  2  0
 10  9  1  0
 11 12  1  0
 11 10  2  0
 12 13  2  0
 13  8  1  0
 14 21  1  0
 15 14  2  0
 16 17  1  0
 17 18  2  0
 20 19  1  1
 19 17  1  0
 21 20  1  0
 22 24  1  0
 22 20  1  0
 23 22  2  0
M  END
$$$$
