GFN.pdb
     RDKit          3D

 24 24  0  0  1  0  0  0  0  0999 V2000
   27.9578  -23.6267  -16.9682 N   0  0  0  0  0  0  0  0  0  0  0  0
   27.5982  -22.2432  -16.7218 C   0  0  0  0  0  0  0  0  0  0  0  0
   27.0009  -22.1700  -15.3585 C   0  0  0  0  0  0  0  0  0  0  0  0
   26.4758  -23.1933  -14.8377 O   0  0  0  0  0  0  0  0  0  0  0  0
   26.9868  -20.9871  -14.5921 N   0  0  0  0  0  0  0  0  0  0  0  0
   26.1870  -20.9042  -13.3599 C   0  0  1  0  0  0  0  0  0  0  0  0
   26.8789  -19.9232  -12.4303 C   0  0  0  0  0  0  0  0  0  0  0  0
   27.0301  -20.4180  -11.0586 C   0  0  0  0  0  0  0  0  0  0  0  0
   28.1574  -21.1051  -10.6703 C   0  0  0  0  0  0  0  0  0  0  0  0
   28.2981  -21.5516   -9.3888 C   0  0  0  0  0  0  0  0  0  0  0  0
   27.2845  -21.2985   -8.4901 C   0  0  0  0  0  0  0  0  0  0  0  0
   26.1447  -20.6142   -8.8466 C   0  0  0  0  0  0  0  0  0  0  0  0
   26.0097  -20.1640  -10.1520 C   0  0  0  0  0  0  0  0  0  0  0  0
   24.8050  -20.4938  -13.6649 C   0  0  0  0  0  0  0  0  0  0  0  0
   24.6070  -19.7289  -14.6542 O   0  0  0  0  0  0  0  0  0  0  0  0
   19.8300  -20.7149  -14.4862 N   0  0  0  0  0  0  0  0  0  0  0  0
   20.5950  -21.9191  -14.6354 C   0  0  0  0  0  0  0  0  0  0  0  0
   20.0074  -22.8875  -15.2317 O   0  0  0  0  0  0  0  0  0  0  0  0
   21.9791  -22.0659  -14.1415 C   0  0  0  0  0  0  0  0  0  0  0  0
   22.3600  -20.8344  -13.3674 C   0  0  2  0  0  0  0  0  0  0  0  0
   23.7389  -20.9399  -12.8784 N   0  0  0  0  0  0  0  0  0  0  0  0
   21.4309  -20.6572  -12.2368 C   0  0  0  0  0  0  0  0  0  0  0  0
   21.4637  -21.4911  -11.2853 O   0  0  0  0  0  0  0  0  0  0  0  0
   20.5111  -19.6209  -12.1448 O   0  0  0  0  0  0  0  0  0  0  0  0
  1  2  1  0
  3  2  1  0
  3  4  2  0
  5  3  1  0
  6 14  1  0
  6  5  1  0
  6  7  1  1
  8  7  1  0
  9  8  2  0
 10  9  1  0
 11 12  1  0
 11 10  2  0
 12 13  2  0
 13  8  1  0
 14 21  1  0
 15 14  2  0
 16 17  1  0
 17 18  2  0
 20 19  1  1
 19 17  1  0
 21 20  1  0
 22 24  1  0
 22 20  1  0
 23 22  2  0
M  END
$$$$
