CMC.pdb
     RDKit          3D

 21 20  0  0  1  0  0  0  0  0999 V2000
   20.7225  -16.2554  -16.5920 N   0  0  0  0  0  0  0  0  0  0  0  0
   21.1831  -15.1109  -17.3457 C   0  0  1  0  0  0  0  0  0  0  0  0
   20.1862  -14.6958  -18.4016 C   0  0  0  0  0  0  0  0  0  0  0  0
   19.8251  -16.1081  -19.4798 S   0  0  0  0  0  0  0  0  0  0  0  0
   21.4325  -13.9901  -16.4021 C   0  0  0  0  0  0  0  0  0  0  0  0
   20.6386  -13.7174  -15.4576 O   0  0  0  0  0  0  0  0  0  0  0  0
   27.3832  -10.3581  -16.3240 C   0  0  0  0  0  0  0  0  0  0  0  0
   26.7700  -11.0056  -14.7391 S   0  0  0  0  0  0  0  0  0  0  0  0
   24.9419  -10.9185  -14.7002 C   0  0  0  0  0  0  0  0  0  0  0  0
   24.3483  -12.0425  -15.4744 C   0  0  0  0  0  0  0  0  0  0  0  0
   22.8633  -12.0590  -15.6078 C   0  0  2  0  0  0  0  0  0  0  0  0
   22.5771  -13.1777  -16.5245 N   0  0  0  0  0  0  0  0  0  0  0  0
   22.2516  -10.8626  -16.1789 C   0  0  0  0  0  0  0  0  0  0  0  0
   22.3622  -10.6775  -17.4432 O   0  0  0  0  0  0  0  0  0  0  0  0
   21.5365   -9.8664  -15.4841 N   0  0  0  0  0  0  0  0  0  0  0  0
   21.0887   -8.6717  -16.1705 C   0  0  1  0  0  0  0  0  0  0  0  0
   19.5806   -8.5490  -16.1664 C   0  0  0  0  0  0  0  0  0  0  0  0
   19.2019   -6.8955  -16.8635 S   0  0  0  0  0  0  0  0  0  0  0  0
   21.6381   -7.4605  -15.5093 C   0  0  0  0  0  0  0  0  0  0  0  0
   21.6289   -6.2701  -16.1911 O   0  0  0  0  0  0  0  0  0  0  0  0
   22.1012   -7.5404  -14.3425 O   0  0  0  0  0  0  0  0  0  0  0  0
  2  1  1  1
  2  5  1  0
  3  2  1  0
  3  4  1  0
  5  6  2  0
  7  8  1  0
  9 10  1  0
  9  8  1  0
 11 10  1  6
 11 13  1  0
 12 11  1  0
 12  5  1  0
 13 14  2  0
 13 15  1  0
 15 16  1  0
 16 19  1  0
 16 17  1  1
 18 17  1  0
 19 21  2  0
 19 20  1  0
M  END
$$$$
