CMC.pdb
     RDKit          3D

 21 20  0  0  1  0  0  0  0  0999 V2000
   28.7440  -21.2442  -15.2152 N   0  0  0  0  0  0  0  0  0  0  0  0
   28.4491  -20.2382  -14.2198 C   0  0  1  0  0  0  0  0  0  0  0  0
   27.9122  -18.9717  -14.8435 C   0  0  0  0  0  0  0  0  0  0  0  0
   26.2144  -19.2523  -15.4146 S   0  0  0  0  0  0  0  0  0  0  0  0
   27.4646  -20.7971  -13.2569 C   0  0  0  0  0  0  0  0  0  0  0  0
   26.7926  -21.8368  -13.5100 O   0  0  0  0  0  0  0  0  0  0  0  0
   26.0054  -20.4330   -5.4923 C   0  0  0  0  0  0  0  0  0  0  0  0
   26.7684  -19.7510   -6.9958 S   0  0  0  0  0  0  0  0  0  0  0  0
   26.0517  -20.5575   -8.4746 C   0  0  0  0  0  0  0  0  0  0  0  0
   26.7965  -20.1593   -9.6999 C   0  0  0  0  0  0  0  0  0  0  0  0
   26.3414  -20.7549  -10.9889 C   0  0  2  0  0  0  0  0  0  0  0  0
   27.2389  -20.1828  -12.0092 N   0  0  0  0  0  0  0  0  0  0  0  0
   24.9725  -20.4501  -11.3950 C   0  0  0  0  0  0  0  0  0  0  0  0
   24.7334  -19.2827  -11.8694 O   0  0  0  0  0  0  0  0  0  0  0  0
   23.8594  -21.3118  -11.3248 N   0  0  0  0  0  0  0  0  0  0  0  0
   22.5556  -20.8633  -11.7700 C   0  0  1  0  0  0  0  0  0  0  0  0
   22.0261  -21.7069  -12.9090 C   0  0  0  0  0  0  0  0  0  0  0  0
   23.4869  -22.1910  -13.9066 S   0  0  0  0  0  0  0  0  0  0  0  0
   21.5744  -20.9460  -10.6580 C   0  0  0  0  0  0  0  0  0  0  0  0
   20.2986  -20.4851  -10.8628 O   0  0  0  0  0  0  0  0  0  0  0  0
   21.9223  -21.4331   -9.5517 O   0  0  0  0  0  0  0  0  0  0  0  0
  2  1  1  6
  2  5  1  0
  3  2  1  0
  3  4  1  0
  5  6  2  0
  7  8  1  0
  9 10  1  0
  9  8  1  0
 11 10  1  1
 11 13  1  0
 12 11  1  0
 12  5  1  0
 13 14  2  0
 13 15  1  0
 15 16  1  0
 16 19  1  0
 16 17  1  6
 18 17  1  0
 19 21  2  0
 19 20  1  0
M  END
$$$$
