CMC.pdb
     RDKit          3D

 21 20  0  0  1  0  0  0  0  0999 V2000
   20.8334  -14.0269  -16.9047 N   0  0  0  0  0  0  0  0  0  0  0  0
   20.1746  -12.7402  -16.8837 C   0  0  1  0  0  0  0  0  0  0  0  0
   19.2386  -12.6079  -15.7056 C   0  0  0  0  0  0  0  0  0  0  0  0
   17.7765  -13.6454  -15.9763 S   0  0  0  0  0  0  0  0  0  0  0  0
   21.2115  -11.6764  -16.8413 C   0  0  0  0  0  0  0  0  0  0  0  0
   22.2679  -11.7942  -16.1581 O   0  0  0  0  0  0  0  0  0  0  0  0
   24.6708   -9.6416  -22.5146 C   0  0  0  0  0  0  0  0  0  0  0  0
   23.2533   -8.9885  -21.5810 S   0  0  0  0  0  0  0  0  0  0  0  0
   23.3373   -9.5630  -19.8450 C   0  0  0  0  0  0  0  0  0  0  0  0
   22.1733   -9.0549  -19.0692 C   0  0  0  0  0  0  0  0  0  0  0  0
   22.1009   -9.4420  -17.6311 C   0  0  2  0  0  0  0  0  0  0  0  0
   21.0560  -10.4804  -17.5697 N   0  0  0  0  0  0  0  0  0  0  0  0
   21.7205   -8.3876  -16.6956 C   0  0  0  0  0  0  0  0  0  0  0  0
   20.4725   -8.2298  -16.4447 O   0  0  0  0  0  0  0  0  0  0  0  0
   22.5873   -7.5047  -16.0207 N   0  0  0  0  0  0  0  0  0  0  0  0
   22.0551   -6.4860  -15.1384 C   0  0  1  0  0  0  0  0  0  0  0  0
   23.0873   -6.0059  -14.1417 C   0  0  0  0  0  0  0  0  0  0  0  0
   22.2268   -4.8044  -13.0557 S   0  0  0  0  0  0  0  0  0  0  0  0
   21.6080   -5.3067  -15.9229 C   0  0  0  0  0  0  0  0  0  0  0  0
   20.4788   -4.6355  -15.5272 O   0  0  0  0  0  0  0  0  0  0  0  0
   22.2642   -4.9411  -16.9318 O   0  0  0  0  0  0  0  0  0  0  0  0
  2  1  1  1
  2  5  1  0
  3  2  1  0
  3  4  1  0
  5  6  2  0
  7  8  1  0
  9 10  1  0
  9  8  1  0
 11 10  1  6
 11 13  1  0
 12 11  1  0
 12  5  1  0
 13 14  2  0
 13 15  1  0
 15 16  1  0
 16 19  1  0
 16 17  1  1
 18 17  1  0
 19 21  2  0
 19 20  1  0
M  END
$$$$
