CMC.pdb
     RDKit          3D

 21 20  0  0  1  0  0  0  0  0999 V2000
   16.6150  -11.0803  -13.5186 N   0  0  0  0  0  0  0  0  0  0  0  0
   16.5452   -9.8540  -12.7562 C   0  0  1  0  0  0  0  0  0  0  0  0
   17.2902   -9.9636  -11.4469 C   0  0  0  0  0  0  0  0  0  0  0  0
   16.2896  -10.8991  -10.2590 S   0  0  0  0  0  0  0  0  0  0  0  0
   17.1064   -8.7508  -13.5788 C   0  0  0  0  0  0  0  0  0  0  0  0
   18.0960   -8.9208  -14.3460 O   0  0  0  0  0  0  0  0  0  0  0  0
   13.4203   -3.9403  -16.3197 C   0  0  0  0  0  0  0  0  0  0  0  0
   14.6080   -3.1057  -15.2242 S   0  0  0  0  0  0  0  0  0  0  0  0
   16.1493   -4.0876  -15.1189 C   0  0  0  0  0  0  0  0  0  0  0  0
   15.8956   -5.3879  -14.4407 C   0  0  0  0  0  0  0  0  0  0  0  0
   17.0304   -6.3537  -14.3885 C   0  0  2  0  0  0  0  0  0  0  0  0
   16.5511   -7.4567  -13.5355 N   0  0  0  0  0  0  0  0  0  0  0  0
   18.2734   -5.8606  -13.8027 C   0  0  0  0  0  0  0  0  0  0  0  0
   18.3410   -5.7730  -12.5249 O   0  0  0  0  0  0  0  0  0  0  0  0
   19.4339   -5.4623  -14.4964 N   0  0  0  0  0  0  0  0  0  0  0  0
   20.6046   -5.0137  -13.7702 C   0  0  1  0  0  0  0  0  0  0  0  0
   21.8057   -5.8953  -14.0339 C   0  0  0  0  0  0  0  0  0  0  0  0
   23.2275   -5.0785  -13.2125 S   0  0  0  0  0  0  0  0  0  0  0  0
   20.9657   -3.6316  -14.1774 C   0  0  0  0  0  0  0  0  0  0  0  0
   21.5293   -2.7923  -13.2501 O   0  0  0  0  0  0  0  0  0  0  0  0
   20.7521   -3.2510  -15.3571 O   0  0  0  0  0  0  0  0  0  0  0  0
  2  1  1  6
  2  5  1  0
  3  2  1  0
  3  4  1  0
  5  6  2  0
  7  8  1  0
  9 10  1  0
  9  8  1  0
 11 10  1  1
 11 13  1  0
 12 11  1  0
 12  5  1  0
 13 14  2  0
 13 15  1  0
 15 16  1  0
 16 19  1  0
 16 17  1  6
 18 17  1  0
 19 21  2  0
 19 20  1  0
M  END
$$$$
