CMC.pdb
     RDKit          3D

 21 20  0  0  1  0  0  0  0  0999 V2000
   16.4177  -11.0024  -14.5594 N   0  0  0  0  0  0  0  0  0  0  0  0
   16.0243   -9.7221  -15.1034 C   0  0  1  0  0  0  0  0  0  0  0  0
   14.6000   -9.3725  -14.7424 C   0  0  0  0  0  0  0  0  0  0  0  0
   13.4615  -10.3551  -15.7553 S   0  0  0  0  0  0  0  0  0  0  0  0
   16.9562   -8.6828  -14.5933 C   0  0  0  0  0  0  0  0  0  0  0  0
   17.3577   -8.6697  -13.3953 O   0  0  0  0  0  0  0  0  0  0  0  0
   22.6272   -4.9077  -13.3790 C   0  0  0  0  0  0  0  0  0  0  0  0
   21.2596   -6.0563  -13.7226 S   0  0  0  0  0  0  0  0  0  0  0  0
   20.7410   -5.8964  -15.4709 C   0  0  0  0  0  0  0  0  0  0  0  0
   19.6015   -6.8078  -15.7637 C   0  0  0  0  0  0  0  0  0  0  0  0
   18.3565   -6.6077  -14.9678 C   0  0  2  0  0  0  0  0  0  0  0  0
   17.4344   -7.6591  -15.4349 N   0  0  0  0  0  0  0  0  0  0  0  0
   17.6773   -5.3269  -15.1400 C   0  0  0  0  0  0  0  0  0  0  0  0
   17.0699   -5.1144  -16.2495 O   0  0  0  0  0  0  0  0  0  0  0  0
   17.6103   -4.2744  -14.2050 N   0  0  0  0  0  0  0  0  0  0  0  0
   16.9881   -3.0154  -14.5613 C   0  0  1  0  0  0  0  0  0  0  0  0
   15.8881   -2.6347  -13.5946 C   0  0  0  0  0  0  0  0  0  0  0  0
   15.2497   -1.0120  -14.1625 S   0  0  0  0  0  0  0  0  0  0  0  0
   17.9932   -1.9218  -14.5489 C   0  0  0  0  0  0  0  0  0  0  0  0
   17.7965   -0.8303  -15.3564 O   0  0  0  0  0  0  0  0  0  0  0  0
   19.0036   -2.0092  -13.8049 O   0  0  0  0  0  0  0  0  0  0  0  0
  2  1  1  1
  2  5  1  0
  3  2  1  0
  3  4  1  0
  5  6  2  0
  7  8  1  0
  9 10  1  0
  9  8  1  0
 11 10  1  6
 11 13  1  0
 12 11  1  0
 12  5  1  0
 13 14  2  0
 13 15  1  0
 15 16  1  0
 16 19  1  0
 16 17  1  1
 18 17  1  0
 19 21  2  0
 19 20  1  0
M  END
$$$$
