CMC.pdb
     RDKit          3D

 21 20  0  0  1  0  0  0  0  0999 V2000
   28.8023  -21.3444  -15.4898 N   0  0  0  0  0  0  0  0  0  0  0  0
   28.1553  -20.3210  -14.6998 C   0  0  1  0  0  0  0  0  0  0  0  0
   27.4763  -19.2876  -15.5672 C   0  0  0  0  0  0  0  0  0  0  0  0
   28.7309  -18.3249  -16.4541 S   0  0  0  0  0  0  0  0  0  0  0  0
   27.1664  -20.9700  -13.8000 C   0  0  0  0  0  0  0  0  0  0  0  0
   26.5295  -22.0076  -14.1381 O   0  0  0  0  0  0  0  0  0  0  0  0
   27.5943  -20.4913   -7.3765 C   0  0  0  0  0  0  0  0  0  0  0  0
   25.8321  -20.0964   -7.5908 S   0  0  0  0  0  0  0  0  0  0  0  0
   25.2331  -20.7794   -9.1800 C   0  0  0  0  0  0  0  0  0  0  0  0
   26.1873  -20.4637  -10.2776 C   0  0  0  0  0  0  0  0  0  0  0  0
   25.8711  -21.0168  -11.6257 C   0  0  2  0  0  0  0  0  0  0  0  0
   26.8967  -20.4481  -12.5194 N   0  0  0  0  0  0  0  0  0  0  0  0
   24.5677  -20.6635  -12.1806 C   0  0  0  0  0  0  0  0  0  0  0  0
   24.3966  -19.4604  -12.5910 O   0  0  0  0  0  0  0  0  0  0  0  0
   23.4517  -21.5128  -12.3212 N   0  0  0  0  0  0  0  0  0  0  0  0
   22.2043  -21.0026  -12.8530 C   0  0  1  0  0  0  0  0  0  0  0  0
   21.6626  -21.8777  -13.9621 C   0  0  0  0  0  0  0  0  0  0  0  0
   22.9068  -21.8229  -15.3083 S   0  0  0  0  0  0  0  0  0  0  0  0
   21.1738  -20.9443  -11.7849 C   0  0  0  0  0  0  0  0  0  0  0  0
   19.9459  -20.4062  -12.0759 O   0  0  0  0  0  0  0  0  0  0  0  0
   21.4373  -21.3850  -10.6367 O   0  0  0  0  0  0  0  0  0  0  0  0
  2  1  1  6
  2  5  1  0
  3  2  1  0
  3  4  1  0
  5  6  2  0
  7  8  1  0
  9 10  1  0
  9  8  1  0
 11 10  1  1
 11 13  1  0
 12 11  1  0
 12  5  1  0
 13 14  2  0
 13 15  1  0
 15 16  1  0
 16 19  1  0
 16 17  1  6
 18 17  1  0
 19 21  2  0
 19 20  1  0
M  END
$$$$
