CMC.pdb
     RDKit          3D

 21 20  0  0  1  0  0  0  0  0999 V2000
   18.8540  -12.4206  -15.8851 N   0  0  0  0  0  0  0  0  0  0  0  0
   19.2331  -11.2373  -16.6240 C   0  0  1  0  0  0  0  0  0  0  0  0
   18.0374  -10.3770  -16.9582 C   0  0  0  0  0  0  0  0  0  0  0  0
   16.8548  -11.3408  -17.9380 S   0  0  0  0  0  0  0  0  0  0  0  0
   20.2138  -10.4667  -15.8158 C   0  0  0  0  0  0  0  0  0  0  0  0
   20.1318  -10.3857  -14.5575 O   0  0  0  0  0  0  0  0  0  0  0  0
   26.8542  -11.5399  -14.6375 C   0  0  0  0  0  0  0  0  0  0  0  0
   26.2701  -10.5231  -16.0276 S   0  0  0  0  0  0  0  0  0  0  0  0
   24.8947   -9.4492  -15.4745 C   0  0  0  0  0  0  0  0  0  0  0  0
   23.6105   -9.8882  -16.0853 C   0  0  0  0  0  0  0  0  0  0  0  0
   22.3787   -9.1645  -15.6583 C   0  0  2  0  0  0  0  0  0  0  0  0
   21.2863   -9.7880  -16.4275 N   0  0  0  0  0  0  0  0  0  0  0  0
   22.3414   -7.7315  -15.9351 C   0  0  0  0  0  0  0  0  0  0  0  0
   22.2119   -7.3595  -17.1557 O   0  0  0  0  0  0  0  0  0  0  0  0
   22.4322   -6.6871  -14.9930 N   0  0  0  0  0  0  0  0  0  0  0  0
   22.3925   -5.3047  -15.4247 C   0  0  1  0  0  0  0  0  0  0  0  0
   21.7759   -4.4029  -14.3778 C   0  0  0  0  0  0  0  0  0  0  0  0
   20.0148   -4.8989  -14.2514 S   0  0  0  0  0  0  0  0  0  0  0  0
   23.7668   -4.8077  -15.6902 C   0  0  0  0  0  0  0  0  0  0  0  0
   23.9262   -3.5789  -16.2790 O   0  0  0  0  0  0  0  0  0  0  0  0
   24.7591   -5.5136  -15.3750 O   0  0  0  0  0  0  0  0  0  0  0  0
  2  1  1  1
  2  5  1  0
  3  2  1  0
  3  4  1  0
  5  6  2  0
  7  8  1  0
  9 10  1  0
  9  8  1  0
 11 10  1  6
 11 13  1  0
 12 11  1  0
 12  5  1  0
 13 14  2  0
 13 15  1  0
 15 16  1  0
 16 19  1  0
 16 17  1  1
 18 17  1  0
 19 21  2  0
 19 20  1  0
M  END
$$$$
