LTL.pdb
     RDKit          3D

 24 23  0  0  1  0  0  0  0  0999 V2000
    7.6341  -22.6803   23.1052 C   0  0  0  0  0  0  0  0  0  0  0  0
    7.3288  -21.8685   21.8842 C   0  0  2  0  0  0  0  0  0  0  0  0
    7.3884  -22.7739   20.6777 C   0  0  0  0  0  0  0  0  0  0  0  0
    8.1923  -20.6534   21.7482 C   0  0  0  0  0  0  0  0  0  0  0  0
    8.0144  -19.6851   22.8965 C   0  0  2  0  0  0  0  0  0  0  0  0
    6.6006  -19.3992   23.0545 N   0  0  0  0  0  0  0  0  0  0  0  0
    8.7190  -18.4207   22.6644 C   0  0  0  0  0  0  0  0  0  0  0  0
    9.9337  -18.3930   22.2663 O   0  0  0  0  0  0  0  0  0  0  0  0
    8.0437  -15.6052   20.2412 C   0  0  0  0  0  0  0  0  0  0  0  0
    8.0202  -15.0587   21.6311 C   0  0  1  0  0  0  0  0  0  0  0  0
    6.7172  -14.9511   22.1159 O   0  0  0  0  0  0  0  0  0  0  0  0
    8.8449  -15.8940   22.6004 C   0  0  2  0  0  0  0  0  0  0  0  0
    8.1266  -17.1367   22.8573 N   0  0  0  0  0  0  0  0  0  0  0  0
    9.1496  -15.1684   23.8476 C   0  0  0  0  0  0  0  0  0  0  0  0
    9.9212  -14.1771   23.7967 O   0  0  0  0  0  0  0  0  0  0  0  0
    7.9161  -11.8896   25.8959 C   0  0  0  0  0  0  0  0  0  0  0  0
    7.0372  -13.1520   25.9325 C   0  0  2  0  0  0  0  0  0  0  0  0
    5.6902  -12.6907   26.4464 C   0  0  0  0  0  0  0  0  0  0  0  0
    7.7168  -14.0906   26.8734 C   0  0  0  0  0  0  0  0  0  0  0  0
    8.9335  -14.7741   26.3221 C   0  0  2  0  0  0  0  0  0  0  0  0
    8.6186  -15.5263   25.1133 N   0  0  0  0  0  0  0  0  0  0  0  0
    9.5709  -15.7233   27.2557 C   0  0  0  0  0  0  0  0  0  0  0  0
    9.9442  -15.3979   28.4227 O   0  0  0  0  0  0  0  0  0  0  0  0
    9.7832  -17.0247   26.8751 O   0  0  0  0  0  0  0  0  0  0  0  0
  2  1  1  1
  2  3  1  0
  4  5  1  0
  4  2  1  0
  5  7  1  0
  5  6  1  6
  7  8  2  0
 10  9  1  6
 10 12  1  0
 11 10  1  0
 12 13  1  1
 13  7  1  0
 14 15  2  0
 14 12  1  0
 17 16  1  1
 17 19  1  0
 18 17  1  0
 20 19  1  1
 20 21  1  0
 20 22  1  0
 21 14  1  0
 22 24  1  0
 23 22  2  0
M  END
$$$$
