LTL.pdb
     RDKit          3D

 24 23  0  0  1  0  0  0  0  0999 V2000
    8.1235  -11.7929   19.3930 C   0  0  0  0  0  0  0  0  0  0  0  0
    8.3067  -13.2298   19.0122 C   0  0  2  0  0  0  0  0  0  0  0  0
    7.4963  -13.5046   17.7685 C   0  0  0  0  0  0  0  0  0  0  0  0
    8.0088  -14.1820   20.1280 C   0  0  0  0  0  0  0  0  0  0  0  0
    9.2307  -14.9558   20.5707 C   0  0  2  0  0  0  0  0  0  0  0  0
    9.5901  -15.9010   19.5301 N   0  0  0  0  0  0  0  0  0  0  0  0
    8.9909  -15.7012   21.8101 C   0  0  0  0  0  0  0  0  0  0  0  0
    8.1647  -15.2862   22.6932 O   0  0  0  0  0  0  0  0  0  0  0  0
    8.8800  -19.7267   22.1925 C   0  0  0  0  0  0  0  0  0  0  0  0
    9.7591  -19.0854   23.2156 C   0  0  1  0  0  0  0  0  0  0  0  0
   11.1079  -19.2272   22.8917 O   0  0  0  0  0  0  0  0  0  0  0  0
    9.4463  -17.6083   23.4101 C   0  0  2  0  0  0  0  0  0  0  0  0
    9.6428  -16.9285   22.1350 N   0  0  0  0  0  0  0  0  0  0  0  0
   10.2519  -17.0009   24.4856 C   0  0  0  0  0  0  0  0  0  0  0  0
   11.3150  -16.4033   24.1802 O   0  0  0  0  0  0  0  0  0  0  0  0
   10.3138  -14.9219   29.7709 C   0  0  0  0  0  0  0  0  0  0  0  0
   10.7216  -14.3522   28.4009 C   0  0  2  0  0  0  0  0  0  0  0  0
   10.2985  -12.8991   28.4265 C   0  0  0  0  0  0  0  0  0  0  0  0
    9.9660  -15.1497   27.3903 C   0  0  0  0  0  0  0  0  0  0  0  0
   10.6760  -16.3703   26.8831 C   0  0  2  0  0  0  0  0  0  0  0  0
    9.8949  -17.0517   25.8575 N   0  0  0  0  0  0  0  0  0  0  0  0
   10.9738  -17.3745   27.9232 C   0  0  0  0  0  0  0  0  0  0  0  0
   10.1661  -18.2983   28.2418 O   0  0  0  0  0  0  0  0  0  0  0  0
   12.1701  -17.3354   28.5946 O   0  0  0  0  0  0  0  0  0  0  0  0
  2  1  1  1
  2  3  1  0
  4  5  1  0
  4  2  1  0
  5  7  1  0
  5  6  1  6
  7  8  2  0
 10  9  1  6
 10 12  1  0
 11 10  1  0
 12 13  1  6
 13  7  1  0
 14 15  2  0
 14 12  1  0
 17 16  1  1
 17 19  1  0
 18 17  1  0
 20 19  1  1
 20 21  1  0
 20 22  1  0
 21 14  1  0
 22 24  1  0
 23 22  2  0
M  END
$$$$
