LTL.pdb
     RDKit          3D

 24 23  0  0  1  0  0  0  0  0999 V2000
   11.8571  -20.4967   20.5308 C   0  0  0  0  0  0  0  0  0  0  0  0
   12.9455  -19.4715   20.4428 C   0  0  2  0  0  0  0  0  0  0  0  0
   14.1262  -19.9534   21.2508 C   0  0  0  0  0  0  0  0  0  0  0  0
   12.4968  -18.0954   20.8244 C   0  0  0  0  0  0  0  0  0  0  0  0
   11.2264  -17.6830   20.1146 C   0  0  2  0  0  0  0  0  0  0  0  0
   11.5491  -17.3218   18.7468 N   0  0  0  0  0  0  0  0  0  0  0  0
   10.5852  -16.5323   20.7579 C   0  0  0  0  0  0  0  0  0  0  0  0
   11.0545  -15.3491   20.6377 O   0  0  0  0  0  0  0  0  0  0  0  0
    7.0912  -15.0690   20.4070 C   0  0  0  0  0  0  0  0  0  0  0  0
    7.3214  -15.4408   21.8352 C   0  0  1  0  0  0  0  0  0  0  0  0
    6.7541  -16.6778   22.1390 O   0  0  0  0  0  0  0  0  0  0  0  0
    8.7991  -15.4674   22.2002 C   0  0  2  0  0  0  0  0  0  0  0  0
    9.4069  -16.6268   21.5578 N   0  0  0  0  0  0  0  0  0  0  0  0
    9.0168  -15.4712   23.6587 C   0  0  0  0  0  0  0  0  0  0  0  0
    9.6408  -16.4334   24.1739 O   0  0  0  0  0  0  0  0  0  0  0  0
    7.2251  -11.1173   26.2112 C   0  0  0  0  0  0  0  0  0  0  0  0
    7.0647  -12.6416   26.0750 C   0  0  2  0  0  0  0  0  0  0  0  0
    5.8439  -12.9936   26.8979 C   0  0  0  0  0  0  0  0  0  0  0  0
    8.3182  -13.2313   26.6312 C   0  0  0  0  0  0  0  0  0  0  0  0
    8.7778  -14.4941   25.9638 C   0  0  2  0  0  0  0  0  0  0  0  0
    8.5595  -14.4436   24.5230 N   0  0  0  0  0  0  0  0  0  0  0  0
    8.1063  -15.7155   26.4496 C   0  0  0  0  0  0  0  0  0  0  0  0
    8.3249  -16.2142   27.5944 O   0  0  0  0  0  0  0  0  0  0  0  0
    7.1982  -16.3650   25.6515 O   0  0  0  0  0  0  0  0  0  0  0  0
  2  1  1  1
  2  3  1  0
  4  5  1  0
  4  2  1  0
  5  7  1  0
  5  6  1  6
  7  8  2  0
 10  9  1  6
 10 12  1  0
 11 10  1  0
 12 13  1  1
 13  7  1  0
 14 15  2  0
 14 12  1  0
 17 16  1  1
 17 19  1  0
 18 17  1  0
 20 19  1  1
 20 21  1  0
 20 22  1  0
 21 14  1  0
 22 24  1  0
 23 22  2  0
M  END
$$$$
