LTL.pdb
     RDKit          3D

 24 23  0  0  1  0  0  0  0  0999 V2000
    9.4426  -13.2744   20.1673 C   0  0  0  0  0  0  0  0  0  0  0  0
    8.7981  -13.4446   18.8260 C   0  0  2  0  0  0  0  0  0  0  0  0
    8.0566  -12.1747   18.4844 C   0  0  0  0  0  0  0  0  0  0  0  0
    7.9404  -14.6676   18.7306 C   0  0  0  0  0  0  0  0  0  0  0  0
    8.5835  -15.8772   19.3717 C   0  0  2  0  0  0  0  0  0  0  0  0
    8.2953  -17.0463   18.5621 N   0  0  0  0  0  0  0  0  0  0  0  0
    8.0773  -16.1165   20.7266 C   0  0  0  0  0  0  0  0  0  0  0  0
    6.8241  -16.1661   20.9753 O   0  0  0  0  0  0  0  0  0  0  0  0
    8.1523  -19.0787   22.4498 C   0  0  0  0  0  0  0  0  0  0  0  0
    8.7710  -18.1404   23.4335 C   0  0  1  0  0  0  0  0  0  0  0  0
   10.1605  -18.2564   23.4462 O   0  0  0  0  0  0  0  0  0  0  0  0
    8.3947  -16.6888   23.1711 C   0  0  2  0  0  0  0  0  0  0  0  0
    8.9178  -16.3110   21.8634 N   0  0  0  0  0  0  0  0  0  0  0  0
    8.8707  -15.7848   24.2346 C   0  0  0  0  0  0  0  0  0  0  0  0
    9.9670  -15.1901   24.0762 O   0  0  0  0  0  0  0  0  0  0  0  0
    7.9363  -11.8390   25.9660 C   0  0  0  0  0  0  0  0  0  0  0  0
    6.9352  -12.9639   26.2821 C   0  0  2  0  0  0  0  0  0  0  0  0
    5.7701  -12.2853   26.9701 C   0  0  0  0  0  0  0  0  0  0  0  0
    7.6596  -13.9083   27.1830 C   0  0  0  0  0  0  0  0  0  0  0  0
    8.7167  -14.7388   26.5166 C   0  0  2  0  0  0  0  0  0  0  0  0
    8.1579  -15.5441   25.4371 N   0  0  0  0  0  0  0  0  0  0  0  0
    9.4141  -15.6729   27.4221 C   0  0  0  0  0  0  0  0  0  0  0  0
    9.2380  -16.9278   27.3881 O   0  0  0  0  0  0  0  0  0  0  0  0
   10.3003  -15.1943   28.3545 O   0  0  0  0  0  0  0  0  0  0  0  0
  2  1  1  1
  2  3  1  0
  4  5  1  0
  4  2  1  0
  5  7  1  0
  5  6  1  6
  7  8  2  0
 10  9  1  6
 10 12  1  0
 11 10  1  0
 12 13  1  6
 13  7  1  0
 14 15  2  0
 14 12  1  0
 17 16  1  1
 17 19  1  0
 18 17  1  0
 20 19  1  1
 20 21  1  0
 20 22  1  0
 21 14  1  0
 22 24  1  0
 23 22  2  0
M  END
$$$$
