TEL.pdb
     RDKit          3D

 25 24  0  0  1  0  0  0  0  0999 V2000
   12.0083  -10.0333  -12.9998 C   0  0  0  0  0  0  0  0  0  0  0  0
   12.3869  -11.5151  -12.9095 C   0  0  1  0  0  0  0  0  0  0  0  0
   11.3440  -12.2104  -13.5188 O   0  0  0  0  0  0  0  0  0  0  0  0
   13.6614  -11.6880  -13.6853 C   0  0  2  0  0  0  0  0  0  0  0  0
   14.0589  -13.0712  -13.8361 N   0  0  0  0  0  0  0  0  0  0  0  0
   14.7677  -10.8601  -13.1399 C   0  0  0  0  0  0  0  0  0  0  0  0
   15.4441  -11.2392  -12.1730 O   0  0  0  0  0  0  0  0  0  0  0  0
   15.0940   -9.6024  -13.7039 N   0  0  0  0  0  0  0  0  0  0  0  0
   16.1088   -8.7277  -13.2819 C   0  0  1  0  0  0  0  0  0  0  0  0
   16.8464   -7.9379  -14.2765 C   0  0  0  0  0  0  0  0  0  0  0  0
   17.9701   -7.0833  -13.7367 C   0  0  0  0  0  0  0  0  0  0  0  0
   19.2055   -7.8610  -13.6061 C   0  0  0  0  0  0  0  0  0  0  0  0
   19.4384   -8.9156  -14.2450 O   0  0  0  0  0  0  0  0  0  0  0  0
   15.4818   -7.7867  -12.2789 C   0  0  0  0  0  0  0  0  0  0  0  0
   14.4862   -7.0841  -12.5898 O   0  0  0  0  0  0  0  0  0  0  0  0
   20.1830   -7.4149  -12.7275 O   0  0  0  0  0  0  0  0  0  0  0  0
   12.4985   -7.3611   -9.2925 C   0  0  0  0  0  0  0  0  0  0  0  0
   13.7221   -8.1132   -8.8265 C   0  0  2  0  0  0  0  0  0  0  0  0
   13.3996   -8.5799   -7.3985 C   0  0  0  0  0  0  0  0  0  0  0  0
   14.9606   -7.3084   -8.7502 C   0  0  0  0  0  0  0  0  0  0  0  0
   15.4721   -6.6972  -10.0028 C   0  0  2  0  0  0  0  0  0  0  0  0
   15.9779   -7.6501  -10.9535 N   0  0  0  0  0  0  0  0  0  0  0  0
   16.3676   -5.5438   -9.7840 C   0  0  0  0  0  0  0  0  0  0  0  0
   16.0218   -4.5892   -9.0465 O   0  0  0  0  0  0  0  0  0  0  0  0
   17.6161   -5.4747  -10.3825 O   0  0  0  0  0  0  0  0  0  0  0  0
  2  1  1  6
  2  3  1  0
  4  5  1  1
  4  2  1  0
  6  4  1  0
  7  6  2  0
  8  6  1  0
  9 14  1  0
  9  8  1  0
  9 10  1  6
 11 10  1  0
 12 11  1  0
 13 12  2  0
 14 22  1  0
 15 14  2  0
 16 12  1  0
 18 17  1  1
 19 18  1  0
 20 18  1  0
 21 20  1  1
 21 23  1  0
 22 21  1  0
 23 24  2  0
 23 25  1  0
M  END
$$$$
