TEL.pdb
     RDKit          3D

 25 24  0  0  1  0  0  0  0  0999 V2000
   15.3154   -8.6086  -13.4121 C   0  0  0  0  0  0  0  0  0  0  0  0
   14.9601   -9.7540  -14.3656 C   0  0  1  0  0  0  0  0  0  0  0  0
   13.7242  -10.2343  -13.9368 O   0  0  0  0  0  0  0  0  0  0  0  0
   14.8475   -9.1586  -15.7401 C   0  0  2  0  0  0  0  0  0  0  0  0
   14.4158  -10.1077  -16.7435 N   0  0  0  0  0  0  0  0  0  0  0  0
   16.0910   -8.4584  -16.1525 C   0  0  0  0  0  0  0  0  0  0  0  0
   16.9430   -9.0145  -16.8603 O   0  0  0  0  0  0  0  0  0  0  0  0
   16.3531   -7.1251  -15.7524 N   0  0  0  0  0  0  0  0  0  0  0  0
   17.4788   -6.3524  -16.0824 C   0  0  1  0  0  0  0  0  0  0  0  0
   17.3441   -4.8965  -16.2226 C   0  0  0  0  0  0  0  0  0  0  0  0
   18.6016   -4.1535  -16.6114 C   0  0  0  0  0  0  0  0  0  0  0  0
   18.3654   -2.7078  -16.6548 C   0  0  0  0  0  0  0  0  0  0  0  0
   19.1837   -1.8530  -16.2373 O   0  0  0  0  0  0  0  0  0  0  0  0
   18.5295   -6.6469  -15.0366 C   0  0  0  0  0  0  0  0  0  0  0  0
   18.2583   -6.5685  -13.8112 O   0  0  0  0  0  0  0  0  0  0  0  0
   17.1702   -2.2443  -17.1871 O   0  0  0  0  0  0  0  0  0  0  0  0
   23.7443   -9.9331  -14.3517 C   0  0  0  0  0  0  0  0  0  0  0  0
   22.7640   -8.9181  -13.8142 C   0  0  2  0  0  0  0  0  0  0  0  0
   22.0710   -9.6039  -12.6265 C   0  0  0  0  0  0  0  0  0  0  0  0
   21.7021   -8.5113  -14.7599 C   0  0  0  0  0  0  0  0  0  0  0  0
   20.8792   -7.3248  -14.4145 C   0  0  2  0  0  0  0  0  0  0  0  0
   19.8573   -7.0218  -15.3797 N   0  0  0  0  0  0  0  0  0  0  0  0
   21.6691   -6.1494  -13.9968 C   0  0  0  0  0  0  0  0  0  0  0  0
   22.0807   -5.3160  -14.8400 O   0  0  0  0  0  0  0  0  0  0  0  0
   21.9827   -5.9257  -12.6652 O   0  0  0  0  0  0  0  0  0  0  0  0
  2  1  1  1
  2  3  1  0
  4  5  1  6
  4  2  1  0
  6  4  1  0
  7  6  2  0
  8  6  1  0
  9 14  1  0
  9  8  1  0
  9 10  1  1
 11 10  1  0
 12 11  1  0
 13 12  2  0
 14 22  1  0
 15 14  2  0
 16 12  1  0
 18 17  1  6
 19 18  1  0
 20 18  1  0
 21 20  1  6
 21 23  1  0
 22 21  1  0
 23 24  2  0
 23 25  1  0
M  END
$$$$
