TEL.pdb
     RDKit          3D

 25 24  0  0  1  0  0  0  0  0999 V2000
   28.5131  -21.4605  -14.1088 C   0  0  0  0  0  0  0  0  0  0  0  0
   28.6972  -20.2828  -15.0712 C   0  0  1  0  0  0  0  0  0  0  0  0
   29.4924  -20.7632  -16.1100 O   0  0  0  0  0  0  0  0  0  0  0  0
   27.3317  -19.9154  -15.5777 C   0  0  2  0  0  0  0  0  0  0  0  0
   27.3593  -18.9496  -16.6549 N   0  0  0  0  0  0  0  0  0  0  0  0
   26.4240  -19.4846  -14.4836 C   0  0  0  0  0  0  0  0  0  0  0  0
   26.3878  -18.3073  -14.0979 O   0  0  0  0  0  0  0  0  0  0  0  0
   25.5621  -20.4037  -13.8363 N   0  0  0  0  0  0  0  0  0  0  0  0
   24.5844  -20.1065  -12.8725 C   0  0  1  0  0  0  0  0  0  0  0  0
   23.1910  -20.5089  -13.1041 C   0  0  0  0  0  0  0  0  0  0  0  0
   22.2168  -20.1751  -11.9977 C   0  0  0  0  0  0  0  0  0  0  0  0
   20.8690  -20.6497  -12.3235 C   0  0  0  0  0  0  0  0  0  0  0  0
   20.5843  -21.2816  -13.3695 O   0  0  0  0  0  0  0  0  0  0  0  0
   25.0580  -20.7135  -11.5718 C   0  0  0  0  0  0  0  0  0  0  0  0
   25.4024  -21.9215  -11.5125 O   0  0  0  0  0  0  0  0  0  0  0  0
   19.8385  -20.3914  -11.4303 O   0  0  0  0  0  0  0  0  0  0  0  0
   28.1754  -20.8899   -7.5362 C   0  0  0  0  0  0  0  0  0  0  0  0
   27.6008  -19.5860   -8.0362 C   0  0  2  0  0  0  0  0  0  0  0  0
   27.9819  -18.5364   -6.9808 C   0  0  0  0  0  0  0  0  0  0  0  0
   26.1275  -19.5586   -8.1627 C   0  0  0  0  0  0  0  0  0  0  0  0
   25.4904  -20.5245   -9.0929 C   0  0  2  0  0  0  0  0  0  0  0  0
   25.1371  -19.9613  -10.3679 N   0  0  0  0  0  0  0  0  0  0  0  0
   24.4132  -21.3259   -8.4785 C   0  0  0  0  0  0  0  0  0  0  0  0
   24.6701  -22.1932   -7.6088 O   0  0  0  0  0  0  0  0  0  0  0  0
   23.0862  -21.1496   -8.8388 O   0  0  0  0  0  0  0  0  0  0  0  0
  2  1  1  1
  2  3  1  0
  4  5  1  6
  4  2  1  0
  6  4  1  0
  7  6  2  0
  8  6  1  0
  9 14  1  0
  9  8  1  0
  9 10  1  6
 11 10  1  0
 12 11  1  0
 13 12  2  0
 14 22  1  0
 15 14  2  0
 16 12  1  0
 18 17  1  1
 19 18  1  0
 20 18  1  0
 21 20  1  1
 21 23  1  0
 22 21  1  0
 23 24  2  0
 23 25  1  0
M  END
$$$$
