TEL.pdb
     RDKit          3D

 25 24  0  0  1  0  0  0  0  0999 V2000
   24.5214  -11.7058  -15.3842 C   0  0  0  0  0  0  0  0  0  0  0  0
   24.2309  -12.5691  -16.6161 C   0  0  1  0  0  0  0  0  0  0  0  0
   24.8241  -13.8042  -16.3615 O   0  0  0  0  0  0  0  0  0  0  0  0
   22.7383  -12.7090  -16.7089 C   0  0  2  0  0  0  0  0  0  0  0  0
   22.3141  -13.7336  -17.6385 N   0  0  0  0  0  0  0  0  0  0  0  0
   22.0687  -11.4121  -16.9856 C   0  0  0  0  0  0  0  0  0  0  0  0
   22.3450  -10.7423  -17.9912 O   0  0  0  0  0  0  0  0  0  0  0  0
   21.0864  -10.8884  -16.1097 N   0  0  0  0  0  0  0  0  0  0  0  0
   20.3827   -9.6818  -16.2579 C   0  0  1  0  0  0  0  0  0  0  0  0
   19.0224   -9.5635  -15.7169 C   0  0  0  0  0  0  0  0  0  0  0  0
   17.9744  -10.4312  -16.3750 C   0  0  0  0  0  0  0  0  0  0  0  0
   16.7580  -10.4954  -15.5601 C   0  0  0  0  0  0  0  0  0  0  0  0
   15.6343  -10.0947  -15.9489 O   0  0  0  0  0  0  0  0  0  0  0  0
   21.2451   -8.5987  -15.6515 C   0  0  0  0  0  0  0  0  0  0  0  0
   21.7897   -8.7618  -14.5297 O   0  0  0  0  0  0  0  0  0  0  0  0
   16.8409  -11.0288  -14.2813 O   0  0  0  0  0  0  0  0  0  0  0  0
   23.7237   -3.1039  -17.2557 C   0  0  0  0  0  0  0  0  0  0  0  0
   23.7793   -4.3258  -16.3702 C   0  0  2  0  0  0  0  0  0  0  0  0
   25.2413   -4.7970  -16.4100 C   0  0  0  0  0  0  0  0  0  0  0  0
   22.9452   -5.4621  -16.8180 C   0  0  0  0  0  0  0  0  0  0  0  0
   22.3215   -6.3200  -15.7792 C   0  0  2  0  0  0  0  0  0  0  0  0
   21.4808   -7.3599  -16.3080 N   0  0  0  0  0  0  0  0  0  0  0  0
   21.7056   -5.5649  -14.6698 C   0  0  0  0  0  0  0  0  0  0  0  0
   22.4092   -5.0784  -13.7516 O   0  0  0  0  0  0  0  0  0  0  0  0
   20.3351   -5.3677  -14.6032 O   0  0  0  0  0  0  0  0  0  0  0  0
  2  1  1  1
  2  3  1  0
  4  5  1  6
  4  2  1  0
  6  4  1  0
  7  6  2  0
  8  6  1  0
  9 14  1  0
  9  8  1  0
  9 10  1  1
 11 10  1  0
 12 11  1  0
 13 12  2  0
 14 22  1  0
 15 14  2  0
 16 12  1  0
 18 17  1  6
 19 18  1  0
 20 18  1  0
 21 20  1  6
 21 23  1  0
 22 21  1  0
 23 24  2  0
 23 25  1  0
M  END
$$$$
