TEL.pdb
     RDKit          3D

 25 24  0  0  1  0  0  0  0  0999 V2000
   15.1593   -4.6814   -7.8086 C   0  0  0  0  0  0  0  0  0  0  0  0
   15.9234   -5.5191   -8.8390 C   0  0  1  0  0  0  0  0  0  0  0  0
   17.1613   -5.7940   -8.2609 O   0  0  0  0  0  0  0  0  0  0  0  0
   15.1407   -6.7855   -9.0388 C   0  0  2  0  0  0  0  0  0  0  0  0
   14.9139   -7.5199   -7.8128 N   0  0  0  0  0  0  0  0  0  0  0  0
   15.7325   -7.6516  -10.0906 C   0  0  0  0  0  0  0  0  0  0  0  0
   16.3944   -8.6592   -9.8029 O   0  0  0  0  0  0  0  0  0  0  0  0
   15.5638   -7.3599  -11.4664 N   0  0  0  0  0  0  0  0  0  0  0  0
   16.0590   -8.1015  -12.5517 C   0  0  1  0  0  0  0  0  0  0  0  0
   15.3182   -8.1153  -13.8198 C   0  0  0  0  0  0  0  0  0  0  0  0
   15.8830   -9.0057  -14.9026 C   0  0  0  0  0  0  0  0  0  0  0  0
   15.0429   -8.9709  -16.1029 C   0  0  0  0  0  0  0  0  0  0  0  0
   15.3444   -8.3476  -17.1494 O   0  0  0  0  0  0  0  0  0  0  0  0
   17.4629   -7.6058  -12.8120 C   0  0  0  0  0  0  0  0  0  0  0  0
   17.7566   -6.3927  -12.6581 O   0  0  0  0  0  0  0  0  0  0  0  0
   13.8406   -9.6645  -16.0942 O   0  0  0  0  0  0  0  0  0  0  0  0
   23.1441   -9.9700  -14.1615 C   0  0  0  0  0  0  0  0  0  0  0  0
   22.2392   -8.7863  -13.9165 C   0  0  2  0  0  0  0  0  0  0  0  0
   22.8511   -8.0408  -12.7204 C   0  0  0  0  0  0  0  0  0  0  0  0
   20.8477   -9.1274  -13.5489 C   0  0  0  0  0  0  0  0  0  0  0  0
   19.8451   -8.0328  -13.5268 C   0  0  2  0  0  0  0  0  0  0  0  0
   18.5069   -8.4723  -13.2373 N   0  0  0  0  0  0  0  0  0  0  0  0
   19.9328   -7.1171  -14.6817 C   0  0  0  0  0  0  0  0  0  0  0  0
   19.3681   -7.3927  -15.7680 O   0  0  0  0  0  0  0  0  0  0  0  0
   20.6385   -5.9262  -14.6077 O   0  0  0  0  0  0  0  0  0  0  0  0
  2  1  1  1
  2  3  1  0
  4  5  1  1
  4  2  1  0
  6  4  1  0
  7  6  2  0
  8  6  1  0
  9 14  1  0
  9  8  1  0
  9 10  1  6
 11 10  1  0
 12 11  1  0
 13 12  2  0
 14 22  1  0
 15 14  2  0
 16 12  1  0
 18 17  1  1
 19 18  1  0
 20 18  1  0
 21 20  1  6
 21 23  1  0
 22 21  1  0
 23 24  2  0
 23 25  1  0
M  END
$$$$
