TEL.pdb
     RDKit          3D

 25 24  0  0  1  0  0  0  0  0999 V2000
   12.0710  -10.9426  -12.6653 C   0  0  0  0  0  0  0  0  0  0  0  0
   12.1412  -12.3437  -12.0494 C   0  0  1  0  0  0  0  0  0  0  0  0
   11.1414  -13.0840  -12.6773 O   0  0  0  0  0  0  0  0  0  0  0  0
   13.4970  -12.8987  -12.3810 C   0  0  2  0  0  0  0  0  0  0  0  0
   13.6522  -14.2908  -12.0179 N   0  0  0  0  0  0  0  0  0  0  0  0
   14.5956  -12.0661  -11.8275 C   0  0  0  0  0  0  0  0  0  0  0  0
   14.9673  -12.1834  -10.6510 O   0  0  0  0  0  0  0  0  0  0  0  0
   15.2632  -11.1032  -12.6235 N   0  0  0  0  0  0  0  0  0  0  0  0
   16.2838  -10.2306  -12.2111 C   0  0  1  0  0  0  0  0  0  0  0  0
   17.3206   -9.8224  -13.1681 C   0  0  0  0  0  0  0  0  0  0  0  0
   18.3574   -8.8562  -12.6431 C   0  0  0  0  0  0  0  0  0  0  0  0
   19.3365   -8.5211  -13.6808 C   0  0  0  0  0  0  0  0  0  0  0  0
   19.3956   -9.0922  -14.7966 O   0  0  0  0  0  0  0  0  0  0  0  0
   15.6052   -8.9934  -11.6696 C   0  0  0  0  0  0  0  0  0  0  0  0
   14.6921   -8.4230  -12.3195 O   0  0  0  0  0  0  0  0  0  0  0  0
   20.2577   -7.5144  -13.4266 O   0  0  0  0  0  0  0  0  0  0  0  0
   14.2733   -6.2023   -6.3212 C   0  0  0  0  0  0  0  0  0  0  0  0
   14.2572   -6.2045   -7.8312 C   0  0  2  0  0  0  0  0  0  0  0  0
   12.7740   -6.2704   -8.2271 C   0  0  0  0  0  0  0  0  0  0  0  0
   14.9264   -7.3624   -8.4628 C   0  0  0  0  0  0  0  0  0  0  0  0
   15.3518   -7.2332   -9.8793 C   0  0  2  0  0  0  0  0  0  0  0  0
   15.9588   -8.4206  -10.4173 N   0  0  0  0  0  0  0  0  0  0  0  0
   16.1066   -5.9974  -10.1675 C   0  0  0  0  0  0  0  0  0  0  0  0
   17.3615   -5.9951  -10.1765 O   0  0  0  0  0  0  0  0  0  0  0  0
   15.4592   -4.8016  -10.4369 O   0  0  0  0  0  0  0  0  0  0  0  0
  2  1  1  6
  2  3  1  0
  4  5  1  1
  4  2  1  0
  6  4  1  0
  7  6  2  0
  8  6  1  0
  9 14  1  0
  9  8  1  0
  9 10  1  6
 11 10  1  0
 12 11  1  0
 13 12  2  0
 14 22  1  0
 15 14  2  0
 16 12  1  0
 18 17  1  1
 19 18  1  0
 20 18  1  0
 21 20  1  1
 21 23  1  0
 22 21  1  0
 23 24  2  0
 23 25  1  0
M  END
$$$$
