CHM.pdb
     RDKit          3D

 25 25  0  0  1  0  0  0  0  0999 V2000
   12.7753  -16.5043   19.3258 N   0  0  0  0  0  0  0  0  0  0  0  0
   11.9219  -17.1944   20.2663 C   0  0  1  0  0  0  0  0  0  0  0  0
   12.7162  -18.1605   21.1015 C   0  0  0  0  0  0  0  0  0  0  0  0
   11.6500  -19.1589   22.1716 S   0  0  0  0  0  0  0  0  0  0  0  0
   11.1147  -16.2636   21.0819 C   0  0  0  0  0  0  0  0  0  0  0  0
   11.6945  -15.2771   21.5888 O   0  0  0  0  0  0  0  0  0  0  0  0
    9.7329  -16.4184   21.3240 N   0  0  0  0  0  0  0  0  0  0  0  0
    8.9304  -15.4718   22.0673 C   0  0  1  0  0  0  0  0  0  0  0  0
    7.5712  -15.3772   21.3981 C   0  0  0  0  0  0  0  0  0  0  0  0
    7.6835  -14.8975   19.9972 C   0  0  0  0  0  0  0  0  0  0  0  0
    7.9535  -13.6047   19.5955 C   0  0  0  0  0  0  0  0  0  0  0  0
    7.9762  -13.5587   18.2391 N   0  0  0  0  0  0  0  0  0  0  0  0
    7.7260  -14.7957   17.7844 C   0  0  0  0  0  0  0  0  0  0  0  0
    7.5506  -15.5976   18.8476 N   0  0  0  0  0  0  0  0  0  0  0  0
    8.7182  -15.8842   23.4669 C   0  0  0  0  0  0  0  0  0  0  0  0
    9.1674  -17.0013   23.8294 O   0  0  0  0  0  0  0  0  0  0  0  0
    7.5526  -10.2797   27.0212 C   0  0  0  0  0  0  0  0  0  0  0  0
    6.5906  -11.7939   26.7607 S   0  0  0  0  0  0  0  0  0  0  0  0
    7.7269  -13.1774   26.6850 C   0  0  0  0  0  0  0  0  0  0  0  0
    7.0311  -14.5131   26.5928 C   0  0  0  0  0  0  0  0  0  0  0  0
    7.8212  -15.5198   25.7944 C   0  0  2  0  0  0  0  0  0  0  0  0
    8.0396  -15.1064   24.4404 N   0  0  0  0  0  0  0  0  0  0  0  0
    7.0645  -16.7891   25.8045 C   0  0  0  0  0  0  0  0  0  0  0  0
    6.5702  -17.1968   24.7279 O   0  0  0  0  0  0  0  0  0  0  0  0
    6.8623  -17.5670   26.9352 O   0  0  0  0  0  0  0  0  0  0  0  0
  2  1  1  1
  3  2  1  0
  4  3  1  0
  5  2  1  0
  5  6  2  0
  7  5  1  0
  8  7  1  0
  8  9  1  6
 10  9  1  0
 10 14  1  0
 11 12  1  0
 11 10  2  0
 12 13  1  0
 13 14  2  0
 15  8  1  0
 16 15  2  0
 18 17  1  0
 19 18  1  0
 20 19  1  0
 21 20  1  1
 21 22  1  0
 22 15  1  0
 23 21  1  0
 24 23  2  0
 25 23  1  0
M  END
$$$$
