CHM.pdb
     RDKit          3D

 25 25  0  0  1  0  0  0  0  0999 V2000
    7.6292  -14.9300   17.4017 N   0  0  0  0  0  0  0  0  0  0  0  0
    8.3010  -14.4149   18.5733 C   0  0  1  0  0  0  0  0  0  0  0  0
    7.7743  -13.0542   18.9381 C   0  0  0  0  0  0  0  0  0  0  0  0
    8.4513  -12.4711   20.5129 S   0  0  0  0  0  0  0  0  0  0  0  0
    8.2652  -15.3637   19.7054 C   0  0  0  0  0  0  0  0  0  0  0  0
    7.1659  -15.8872   19.9949 O   0  0  0  0  0  0  0  0  0  0  0  0
    9.3923  -15.7151   20.4789 N   0  0  0  0  0  0  0  0  0  0  0  0
    9.3354  -16.5478   21.6603 C   0  0  1  0  0  0  0  0  0  0  0  0
   10.4123  -17.6108   21.5409 C   0  0  0  0  0  0  0  0  0  0  0  0
   10.0111  -18.6932   20.6067 C   0  0  0  0  0  0  0  0  0  0  0  0
   10.3920  -18.8150   19.2855 C   0  0  0  0  0  0  0  0  0  0  0  0
    9.8239  -19.9314   18.7626 N   0  0  0  0  0  0  0  0  0  0  0  0
    9.0958  -20.5101   19.7292 C   0  0  0  0  0  0  0  0  0  0  0  0
    9.2123  -19.7601   20.8374 N   0  0  0  0  0  0  0  0  0  0  0  0
    9.5828  -15.7899   22.9007 C   0  0  0  0  0  0  0  0  0  0  0  0
   10.3125  -14.7681   22.8344 O   0  0  0  0  0  0  0  0  0  0  0  0
    6.4998  -10.9756   27.5157 C   0  0  0  0  0  0  0  0  0  0  0  0
    6.4309  -12.0935   26.0903 S   0  0  0  0  0  0  0  0  0  0  0  0
    7.5468  -13.4624   26.3934 C   0  0  0  0  0  0  0  0  0  0  0  0
    7.6774  -14.3945   25.2140 C   0  0  0  0  0  0  0  0  0  0  0  0
    8.9380  -15.2209   25.2703 C   0  0  2  0  0  0  0  0  0  0  0  0
    9.0535  -16.1328   24.1717 N   0  0  0  0  0  0  0  0  0  0  0  0
    8.9170  -15.9795   26.5383 C   0  0  0  0  0  0  0  0  0  0  0  0
    8.5053  -17.1626   26.5181 O   0  0  0  0  0  0  0  0  0  0  0  0
    9.3259  -15.4662   27.7605 O   0  0  0  0  0  0  0  0  0  0  0  0
  2  1  1  6
  3  2  1  0
  4  3  1  0
  5  2  1  0
  5  6  2  0
  7  5  1  0
  8  7  1  0
  8  9  1  6
 10  9  1  0
 10 14  1  0
 11 12  1  0
 11 10  2  0
 12 13  1  0
 13 14  2  0
 15  8  1  0
 16 15  2  0
 18 17  1  0
 19 18  1  0
 20 19  1  0
 21 20  1  6
 21 22  1  0
 22 15  1  0
 23 21  1  0
 24 23  2  0
 25 23  1  0
M  END
$$$$
