CHM.pdb
     RDKit          3D

 25 25  0  0  1  0  0  0  0  0999 V2000
    7.3223  -15.5852   19.2686 N   0  0  0  0  0  0  0  0  0  0  0  0
    8.0976  -14.8450   20.2381 C   0  0  1  0  0  0  0  0  0  0  0  0
    7.5439  -13.4587   20.4212 C   0  0  0  0  0  0  0  0  0  0  0  0
    8.5209  -12.4950   21.6025 S   0  0  0  0  0  0  0  0  0  0  0  0
    8.2465  -15.5739   21.5148 C   0  0  0  0  0  0  0  0  0  0  0  0
    7.2186  -16.0707   22.0275 O   0  0  0  0  0  0  0  0  0  0  0  0
    9.4742  -15.7439   22.1901 N   0  0  0  0  0  0  0  0  0  0  0  0
    9.6224  -16.4787   23.4272 C   0  0  1  0  0  0  0  0  0  0  0  0
   10.6548  -17.5696   23.2075 C   0  0  0  0  0  0  0  0  0  0  0  0
   10.1043  -18.6894   22.4024 C   0  0  0  0  0  0  0  0  0  0  0  0
   10.3132  -18.9070   21.0553 C   0  0  0  0  0  0  0  0  0  0  0  0
    9.6473  -20.0288   20.6801 N   0  0  0  0  0  0  0  0  0  0  0  0
    9.0265  -20.5170   21.7643 C   0  0  0  0  0  0  0  0  0  0  0  0
    9.3052  -19.7063   22.7984 N   0  0  0  0  0  0  0  0  0  0  0  0
   10.0901  -15.6298   24.5384 C   0  0  0  0  0  0  0  0  0  0  0  0
   11.1834  -15.0240   24.4008 O   0  0  0  0  0  0  0  0  0  0  0  0
    5.7503  -12.6086   26.9458 C   0  0  0  0  0  0  0  0  0  0  0  0
    7.2018  -11.5405   26.7493 S   0  0  0  0  0  0  0  0  0  0  0  0
    8.6069  -12.5707   26.3306 C   0  0  0  0  0  0  0  0  0  0  0  0
    8.8733  -13.6535   27.3470 C   0  0  0  0  0  0  0  0  0  0  0  0
    9.8779  -14.6671   26.8584 C   0  0  2  0  0  0  0  0  0  0  0  0
    9.3911  -15.4460   25.7593 N   0  0  0  0  0  0  0  0  0  0  0  0
   10.1958  -15.5611   27.9914 C   0  0  0  0  0  0  0  0  0  0  0  0
   10.6973  -15.0592   29.0240 O   0  0  0  0  0  0  0  0  0  0  0  0
    9.9746  -16.9306   27.9895 O   0  0  0  0  0  0  0  0  0  0  0  0
  2  1  1  6
  3  2  1  0
  4  3  1  0
  5  2  1  0
  5  6  2  0
  7  5  1  0
  8  7  1  0
  8  9  1  6
 10  9  1  0
 10 14  1  0
 11 12  1  0
 11 10  2  0
 12 13  1  0
 13 14  2  0
 15  8  1  0
 16 15  2  0
 18 17  1  0
 19 18  1  0
 20 19  1  0
 21 20  1  1
 21 22  1  0
 22 15  1  0
 23 21  1  0
 24 23  2  0
 25 23  1  0
M  END
$$$$
