CHM.pdb
     RDKit          3D

 25 25  0  0  1  0  0  0  0  0999 V2000
    7.3526  -19.6247   20.5671 N   0  0  0  0  0  0  0  0  0  0  0  0
    6.9654  -18.5743   21.4812 C   0  0  1  0  0  0  0  0  0  0  0  0
    6.6956  -19.1300   22.8525 C   0  0  0  0  0  0  0  0  0  0  0  0
    5.9243  -17.9014   23.9362 S   0  0  0  0  0  0  0  0  0  0  0  0
    7.9327  -17.4575   21.4977 C   0  0  0  0  0  0  0  0  0  0  0  0
    9.1480  -17.7382   21.6011 O   0  0  0  0  0  0  0  0  0  0  0  0
    7.5711  -16.0964   21.4041 N   0  0  0  0  0  0  0  0  0  0  0  0
    8.5190  -15.0039   21.4235 C   0  0  1  0  0  0  0  0  0  0  0  0
    7.9168  -13.8427   20.6535 C   0  0  0  0  0  0  0  0  0  0  0  0
    8.0242  -14.0450   19.1862 C   0  0  0  0  0  0  0  0  0  0  0  0
    8.6494  -15.0988   18.5503 C   0  0  0  0  0  0  0  0  0  0  0  0
    8.5380  -14.9340   17.2076 N   0  0  0  0  0  0  0  0  0  0  0  0
    7.8562  -13.7992   16.9907 C   0  0  0  0  0  0  0  0  0  0  0  0
    7.5495  -13.2683   18.1858 N   0  0  0  0  0  0  0  0  0  0  0  0
    8.8166  -14.5356   22.7896 C   0  0  0  0  0  0  0  0  0  0  0  0
    9.0788  -13.3168   22.9535 O   0  0  0  0  0  0  0  0  0  0  0  0
    7.0320  -10.6926   26.4758 C   0  0  0  0  0  0  0  0  0  0  0  0
    6.3638  -12.1974   27.2343 S   0  0  0  0  0  0  0  0  0  0  0  0
    7.5429  -13.5240   26.9878 C   0  0  0  0  0  0  0  0  0  0  0  0
    7.5715  -14.0372   25.5692 C   0  0  0  0  0  0  0  0  0  0  0  0
    8.7900  -14.8803   25.2866 C   0  0  2  0  0  0  0  0  0  0  0  0
    8.8286  -15.3664   23.9397 N   0  0  0  0  0  0  0  0  0  0  0  0
    8.7663  -16.0247   26.2213 C   0  0  0  0  0  0  0  0  0  0  0  0
    8.5416  -17.1672   25.7590 O   0  0  0  0  0  0  0  0  0  0  0  0
    8.9780  -15.9190   27.5883 O   0  0  0  0  0  0  0  0  0  0  0  0
  2  1  1  6
  3  2  1  0
  4  3  1  0
  5  2  1  0
  5  6  2  0
  7  5  1  0
  8  7  1  0
  8  9  1  6
 10  9  1  0
 10 14  1  0
 11 12  1  0
 11 10  2  0
 12 13  1  0
 13 14  2  0
 15  8  1  0
 16 15  2  0
 18 17  1  0
 19 18  1  0
 20 19  1  0
 21 20  1  6
 21 22  1  0
 22 15  1  0
 23 21  1  0
 24 23  2  0
 25 23  1  0
M  END
$$$$
