CHM.pdb
     RDKit          3D

 25 25  0  0  1  0  0  0  0  0999 V2000
    7.1334  -17.5354   18.7361 N   0  0  0  0  0  0  0  0  0  0  0  0
    7.6414  -16.4529   19.5482 C   0  0  1  0  0  0  0  0  0  0  0  0
    6.5456  -15.4824   19.8936 C   0  0  0  0  0  0  0  0  0  0  0  0
    7.1066  -14.2255   21.0700 S   0  0  0  0  0  0  0  0  0  0  0  0
    8.3720  -16.9366   20.7379 C   0  0  0  0  0  0  0  0  0  0  0  0
    7.8106  -17.7889   21.4622 O   0  0  0  0  0  0  0  0  0  0  0  0
    9.6616  -16.4973   21.1068 N   0  0  0  0  0  0  0  0  0  0  0  0
   10.3179  -16.8620   22.3433 C   0  0  1  0  0  0  0  0  0  0  0  0
   11.8169  -16.7477   22.1337 C   0  0  0  0  0  0  0  0  0  0  0  0
   12.3709  -17.9579   21.4749 C   0  0  0  0  0  0  0  0  0  0  0  0
   11.8299  -19.2274   21.5103 C   0  0  0  0  0  0  0  0  0  0  0  0
   12.6198  -20.0649   20.7912 N   0  0  0  0  0  0  0  0  0  0  0  0
   13.6432  -19.3456   20.3069 C   0  0  0  0  0  0  0  0  0  0  0  0
   13.4880  -18.0775   20.7219 N   0  0  0  0  0  0  0  0  0  0  0  0
    9.9486  -15.9774   23.4636 C   0  0  0  0  0  0  0  0  0  0  0  0
    9.7472  -14.7611   23.2158 O   0  0  0  0  0  0  0  0  0  0  0  0
    6.4598  -11.7903   26.1386 C   0  0  0  0  0  0  0  0  0  0  0  0
    7.6542  -12.9267   26.8923 S   0  0  0  0  0  0  0  0  0  0  0  0
    7.0500  -14.6005   26.6814 C   0  0  0  0  0  0  0  0  0  0  0  0
    7.7250  -15.3374   25.5509 C   0  0  0  0  0  0  0  0  0  0  0  0
    9.1776  -15.6253   25.8376 C   0  0  2  0  0  0  0  0  0  0  0  0
    9.8031  -16.4022   24.8095 N   0  0  0  0  0  0  0  0  0  0  0  0
    9.2416  -16.3617   27.1173 C   0  0  0  0  0  0  0  0  0  0  0  0
    8.9428  -17.5784   27.1202 O   0  0  0  0  0  0  0  0  0  0  0  0
    9.6133  -15.7923   28.3265 O   0  0  0  0  0  0  0  0  0  0  0  0
  2  1  1  1
  3  2  1  0
  4  3  1  0
  5  2  1  0
  5  6  2  0
  7  5  1  0
  8  7  1  0
  8  9  1  6
 10  9  1  0
 10 14  1  0
 11 12  1  0
 11 10  2  0
 12 13  1  0
 13 14  2  0
 15  8  1  0
 16 15  2  0
 18 17  1  0
 19 18  1  0
 20 19  1  0
 21 20  1  6
 21 22  1  0
 22 15  1  0
 23 21  1  0
 24 23  2  0
 25 23  1  0
M  END
$$$$
