CHM.pdb
     RDKit          3D

 25 25  0  0  1  0  0  0  0  0999 V2000
    6.2155  -21.6721   20.5807 N   0  0  0  0  0  0  0  0  0  0  0  0
    7.1600  -20.5997   20.7976 C   0  0  1  0  0  0  0  0  0  0  0  0
    7.1937  -19.6686   19.6170 C   0  0  0  0  0  0  0  0  0  0  0  0
    8.3265  -18.2819   19.8864 S   0  0  0  0  0  0  0  0  0  0  0  0
    6.9273  -19.8944   22.0750 C   0  0  0  0  0  0  0  0  0  0  0  0
    5.7934  -19.4034   22.2735 O   0  0  0  0  0  0  0  0  0  0  0  0
    7.9034  -19.7407   23.0829 N   0  0  0  0  0  0  0  0  0  0  0  0
    7.6550  -19.1096   24.3605 C   0  0  1  0  0  0  0  0  0  0  0  0
    8.4785  -19.8313   25.4116 C   0  0  0  0  0  0  0  0  0  0  0  0
    7.6221  -20.6344   26.3209 C   0  0  0  0  0  0  0  0  0  0  0  0
    6.2466  -20.7387   26.2677 C   0  0  0  0  0  0  0  0  0  0  0  0
    5.8267  -21.5620   27.2618 N   0  0  0  0  0  0  0  0  0  0  0  0
    6.9109  -21.9745   27.9355 C   0  0  0  0  0  0  0  0  0  0  0  0
    7.9890  -21.4127   27.3645 N   0  0  0  0  0  0  0  0  0  0  0  0
    8.0462  -17.6880   24.3762 C   0  0  0  0  0  0  0  0  0  0  0  0
    9.1367  -17.3682   23.8379 O   0  0  0  0  0  0  0  0  0  0  0  0
    6.7890  -10.3446   27.1106 C   0  0  0  0  0  0  0  0  0  0  0  0
    6.0153  -11.9584   26.8225 S   0  0  0  0  0  0  0  0  0  0  0  0
    7.2278  -13.0370   26.0626 C   0  0  0  0  0  0  0  0  0  0  0  0
    6.6733  -14.3933   25.7024 C   0  0  0  0  0  0  0  0  0  0  0  0
    7.7069  -15.2863   25.0625 C   0  0  2  0  0  0  0  0  0  0  0  0
    7.2761  -16.6484   24.9586 N   0  0  0  0  0  0  0  0  0  0  0  0
    8.9283  -15.2192   25.8917 C   0  0  0  0  0  0  0  0  0  0  0  0
    9.0812  -16.0713   26.7973 O   0  0  0  0  0  0  0  0  0  0  0  0
    9.9261  -14.2683   25.7342 O   0  0  0  0  0  0  0  0  0  0  0  0
  2  1  1  6
  3  2  1  0
  4  3  1  0
  5  2  1  0
  5  6  2  0
  7  5  1  0
  8  7  1  0
  8  9  1  1
 10  9  1  0
 10 14  1  0
 11 12  1  0
 11 10  2  0
 12 13  1  0
 13 14  2  0
 15  8  1  0
 16 15  2  0
 18 17  1  0
 19 18  1  0
 20 19  1  0
 21 20  1  1
 21 22  1  0
 22 15  1  0
 23 21  1  0
 24 23  2  0
 25 23  1  0
M  END
$$$$
