RYT.pdb
     RDKit          3D

 31 31  0  0  1  0  0  0  0  0999 V2000
    8.7813  -13.6087   14.3472 N   0  0  0  0  0  0  0  0  0  0  0  0
    8.0861  -13.8131   15.5638 C   0  0  0  0  0  0  0  0  0  0  0  0
    7.8764  -12.8848   16.4147 N   0  0  0  0  0  0  0  0  0  0  0  0
    7.5975  -15.1191   15.8507 N   0  0  0  0  0  0  0  0  0  0  0  0
    8.3663  -16.0012   16.7520 C   0  0  0  0  0  0  0  0  0  0  0  0
    9.2557  -15.1235   17.5491 C   0  0  0  0  0  0  0  0  0  0  0  0
   10.0393  -15.8477   18.5660 C   0  0  0  0  0  0  0  0  0  0  0  0
    9.1939  -16.6104   19.5265 C   0  0  2  0  0  0  0  0  0  0  0  0
    7.8087  -16.7318   19.1767 N   0  0  0  0  0  0  0  0  0  0  0  0
    9.3228  -16.0149   20.8724 C   0  0  0  0  0  0  0  0  0  0  0  0
   10.4628  -15.7509   21.3022 O   0  0  0  0  0  0  0  0  0  0  0  0
    7.4328  -13.0829   17.3488 O   0  0  0  0  0  0  0  0  0  0  0  0
    7.6105  -12.0811   28.4901 C   0  0  0  0  0  0  0  0  0  0  0  0
    7.4718  -12.6365   27.2279 C   0  0  0  0  0  0  0  0  0  0  0  0
    7.9798  -12.0380   26.1004 C   0  0  0  0  0  0  0  0  0  0  0  0
    7.8155  -12.6300   24.8628 C   0  0  0  0  0  0  0  0  0  0  0  0
    7.1492  -13.8232   24.7017 C   0  0  0  0  0  0  0  0  0  0  0  0
    7.0135  -14.3936   23.3393 C   0  0  2  0  0  0  0  0  0  0  0  0
    8.2503  -15.2010   22.9714 N   0  0  0  0  0  0  0  0  0  0  0  0
    8.1749  -15.7554   21.6424 C   0  0  0  0  0  0  0  0  0  0  0  0
    8.5647  -16.2168   24.0047 O   0  0  0  0  0  0  0  0  0  0  0  0
    7.7999  -17.2072   24.0954 C   0  0  0  0  0  0  0  0  0  0  0  0
    6.6476  -14.4086   25.8398 C   0  0  0  0  0  0  0  0  0  0  0  0
    6.7958  -13.8411   27.0915 C   0  0  0  0  0  0  0  0  0  0  0  0
   11.6812  -18.9437   26.2924 C   0  0  2  0  0  0  0  0  0  0  0  0
   11.3567  -17.8326   25.3246 O   0  0  0  0  0  0  0  0  0  0  0  0
   11.3582  -18.3484   24.0438 C   0  0  1  0  0  0  0  0  0  0  0  0
   10.0314  -17.2256   25.7062 N   0  0  0  0  0  0  0  0  0  0  0  0
    9.6725  -16.1154   24.8774 C   0  0  0  0  0  0  0  0  0  0  0  0
   10.0452  -16.7519   27.1067 O   0  0  0  0  0  0  0  0  0  0  0  0
   10.2358  -15.5403   27.4345 O   0  0  0  0  0  0  0  0  0  0  0  0
  2  1  1  0
  2  3  2  0
  4  2  1  0
  5  4  1  0
  6  7  1  0
  6  5  1  0
  8 10  1  0
  8  7  1  0
  8  9  1  6
 10 11  2  0
 13 23  2  0
 13 12  1  0
 14 13  1  0
 15 16  1  0
 15 14  2  0
 16 22  2  0
 17 16  1  0
 18 17  1  6
 19 18  1  0
 19 10  1  0
 20 28  1  0
 20 18  1  0
 21 20  2  0
 22 23  1  0
 25 24  1  6
 26 25  1  0
 27 29  1  0
 27 25  1  0
 27 28  1  1
 29 31  1  0
 30 29  2  0
M  END
$$$$
