RYT.pdb
     RDKit          3D

 31 31  0  0  1  0  0  0  0  0999 V2000
    8.8778  -14.2697   15.4728 N   0  0  0  0  0  0  0  0  0  0  0  0
    7.8757  -15.1778   15.0525 C   0  0  0  0  0  0  0  0  0  0  0  0
    7.3241  -15.1283   13.9023 N   0  0  0  0  0  0  0  0  0  0  0  0
    7.4643  -16.1957   15.9588 N   0  0  0  0  0  0  0  0  0  0  0  0
    8.1398  -16.3215   17.2661 C   0  0  0  0  0  0  0  0  0  0  0  0
    7.7736  -15.1191   18.0514 C   0  0  0  0  0  0  0  0  0  0  0  0
    8.4031  -15.0722   19.3834 C   0  0  0  0  0  0  0  0  0  0  0  0
    8.0392  -13.8563   20.1633 C   0  0  2  0  0  0  0  0  0  0  0  0
    8.2862  -12.6024   19.5132 N   0  0  0  0  0  0  0  0  0  0  0  0
    8.7261  -13.8892   21.4708 C   0  0  0  0  0  0  0  0  0  0  0  0
    9.8809  -13.4263   21.5508 O   0  0  0  0  0  0  0  0  0  0  0  0
    6.6443  -15.8669   13.5845 O   0  0  0  0  0  0  0  0  0  0  0  0
   10.3163  -14.7058   30.0604 C   0  0  0  0  0  0  0  0  0  0  0  0
    9.6811  -14.6040   28.8328 C   0  0  0  0  0  0  0  0  0  0  0  0
    9.4206  -13.3938   28.2368 C   0  0  0  0  0  0  0  0  0  0  0  0
    8.7838  -13.3430   27.0117 C   0  0  0  0  0  0  0  0  0  0  0  0
    8.3873  -14.4779   26.3420 C   0  0  0  0  0  0  0  0  0  0  0  0
    7.7075  -14.3396   25.0310 C   0  0  1  0  0  0  0  0  0  0  0  0
    8.7066  -14.4861   23.8920 N   0  0  0  0  0  0  0  0  0  0  0  0
    8.0792  -14.4337   22.5946 C   0  0  0  0  0  0  0  0  0  0  0  0
    9.5652  -15.6815   24.0711 O   0  0  0  0  0  0  0  0  0  0  0  0
   10.2342  -15.7613   25.1294 C   0  0  0  0  0  0  0  0  0  0  0  0
    8.6558  -15.6801   26.9521 C   0  0  0  0  0  0  0  0  0  0  0  0
    9.2912  -15.7635   28.1769 C   0  0  0  0  0  0  0  0  0  0  0  0
    9.9220  -18.8758   21.2140 C   0  0  2  0  0  0  0  0  0  0  0  0
   11.0830  -18.4001   22.0519 O   0  0  0  0  0  0  0  0  0  0  0  0
   11.8164  -17.4917   21.3147 C   0  0  2  0  0  0  0  0  0  0  0  0
   10.5508  -17.8146   23.3343 N   0  0  0  0  0  0  0  0  0  0  0  0
    9.6593  -16.7171   23.1130 C   0  0  0  0  0  0  0  0  0  0  0  0
   11.6500  -17.3308   24.1965 O   0  0  0  0  0  0  0  0  0  0  0  0
   11.7519  -16.1292   24.5935 O   0  0  0  0  0  0  0  0  0  0  0  0
  2  1  1  0
  2  3  2  0
  4  2  1  0
  5  4  1  0
  6  7  1  0
  6  5  1  0
  8 10  1  0
  8  7  1  0
  8  9  1  6
 10 11  2  0
 13 23  2  0
 13 12  1  0
 14 13  1  0
 15 16  1  0
 15 14  2  0
 16 22  2  0
 17 16  1  0
 18 17  1  6
 19 18  1  0
 19 10  1  0
 20 28  1  0
 20 18  1  0
 21 20  2  0
 22 23  1  0
 25 24  1  6
 26 25  1  0
 27 29  1  0
 27 25  1  0
 27 28  1  1
 29 31  1  0
 30 29  2  0
M  END
$$$$
