RYT.pdb
     RDKit          3D

 31 31  0  0  1  0  0  0  0  0999 V2000
    8.6062  -13.8983   15.6714 N   0  0  0  0  0  0  0  0  0  0  0  0
    7.8638  -13.1858   16.6444 C   0  0  0  0  0  0  0  0  0  0  0  0
    8.1065  -11.9730   16.9602 N   0  0  0  0  0  0  0  0  0  0  0  0
    6.7943  -13.8570   17.3019 N   0  0  0  0  0  0  0  0  0  0  0  0
    7.0677  -14.6332   18.5283 C   0  0  0  0  0  0  0  0  0  0  0  0
    8.4211  -15.2163   18.3696 C   0  0  0  0  0  0  0  0  0  0  0  0
    9.2088  -15.2223   19.6155 C   0  0  0  0  0  0  0  0  0  0  0  0
    8.6504  -16.1262   20.6596 C   0  0  2  0  0  0  0  0  0  0  0  0
    7.2273  -16.0791   20.8279 N   0  0  0  0  0  0  0  0  0  0  0  0
    9.3189  -15.8565   21.9493 C   0  0  0  0  0  0  0  0  0  0  0  0
   10.5631  -15.7813   21.9730 O   0  0  0  0  0  0  0  0  0  0  0  0
    7.4979  -11.4481   17.6405 O   0  0  0  0  0  0  0  0  0  0  0  0
   10.6444  -14.7366   30.5588 C   0  0  0  0  0  0  0  0  0  0  0  0
   10.0589  -14.7651   29.3030 C   0  0  0  0  0  0  0  0  0  0  0  0
    9.3512  -15.8499   28.8451 C   0  0  0  0  0  0  0  0  0  0  0  0
    8.7858  -15.8317   27.5846 C   0  0  0  0  0  0  0  0  0  0  0  0
    8.9012  -14.7490   26.7430 C   0  0  0  0  0  0  0  0  0  0  0  0
    8.2666  -14.8074   25.4037 C   0  0  1  0  0  0  0  0  0  0  0  0
    9.1630  -15.5440   24.4184 N   0  0  0  0  0  0  0  0  0  0  0  0
    8.5556  -15.6894   23.1186 C   0  0  0  0  0  0  0  0  0  0  0  0
    9.6464  -16.8293   24.9777 O   0  0  0  0  0  0  0  0  0  0  0  0
    8.7996  -17.7366   25.1610 C   0  0  0  0  0  0  0  0  0  0  0  0
    9.6121  -13.6721   27.2168 C   0  0  0  0  0  0  0  0  0  0  0  0
   10.1892  -13.6602   28.4729 C   0  0  0  0  0  0  0  0  0  0  0  0
   12.8258  -20.3382   25.3717 C   0  0  2  0  0  0  0  0  0  0  0  0
   12.3499  -19.0380   24.7722 O   0  0  0  0  0  0  0  0  0  0  0  0
   11.7593  -19.3041   23.5529 C   0  0  1  0  0  0  0  0  0  0  0  0
   11.4090  -18.3702   25.7414 N   0  0  0  0  0  0  0  0  0  0  0  0
   11.0002  -17.0690   25.3078 C   0  0  0  0  0  0  0  0  0  0  0  0
   12.0323  -18.2220   27.0738 O   0  0  0  0  0  0  0  0  0  0  0  0
   12.3610  -17.1018   27.5728 O   0  0  0  0  0  0  0  0  0  0  0  0
  2  1  1  0
  2  3  2  0
  4  2  1  0
  5  4  1  0
  6  7  1  0
  6  5  1  0
  8 10  1  0
  8  7  1  0
  8  9  1  1
 10 11  2  0
 13 23  2  0
 13 12  1  0
 14 13  1  0
 15 16  1  0
 15 14  2  0
 16 22  2  0
 17 16  1  0
 18 17  1  6
 19 18  1  0
 19 10  1  0
 20 28  1  0
 20 18  1  0
 21 20  2  0
 22 23  1  0
 25 24  1  6
 26 25  1  0
 27 29  1  0
 27 25  1  0
 27 28  1  6
 29 31  1  0
 30 29  2  0
M  END
$$$$
