RYT.pdb
     RDKit          3D

 31 31  0  0  1  0  0  0  0  0999 V2000
    7.6715  -13.5072   13.8775 N   0  0  0  0  0  0  0  0  0  0  0  0
    8.3224  -14.6642   14.3705 C   0  0  0  0  0  0  0  0  0  0  0  0
    9.5075  -14.9979   14.0332 N   0  0  0  0  0  0  0  0  0  0  0  0
    7.6188  -15.4953   15.2875 N   0  0  0  0  0  0  0  0  0  0  0  0
    7.5779  -15.1281   16.7175 C   0  0  0  0  0  0  0  0  0  0  0  0
    8.8013  -14.3366   16.9884 C   0  0  0  0  0  0  0  0  0  0  0  0
    9.0236  -14.0689   18.4208 C   0  0  0  0  0  0  0  0  0  0  0  0
    8.8016  -15.2629   19.2833 C   0  0  2  0  0  0  0  0  0  0  0  0
    7.5377  -15.9208   19.1231 N   0  0  0  0  0  0  0  0  0  0  0  0
    8.9979  -14.8879   20.6988 C   0  0  0  0  0  0  0  0  0  0  0  0
   10.1001  -14.4197   21.0455 O   0  0  0  0  0  0  0  0  0  0  0  0
    9.9815  -15.8422   14.4470 O   0  0  0  0  0  0  0  0  0  0  0  0
    7.6720  -12.5786   29.0305 C   0  0  0  0  0  0  0  0  0  0  0  0
    7.4873  -12.9016   27.6954 C   0  0  0  0  0  0  0  0  0  0  0  0
    7.1424  -11.9642   26.7521 C   0  0  0  0  0  0  0  0  0  0  0  0
    6.9686  -12.3347   25.4325 C   0  0  0  0  0  0  0  0  0  0  0  0
    7.1289  -13.6334   25.0066 C   0  0  0  0  0  0  0  0  0  0  0  0
    6.9228  -13.9513   23.5725 C   0  0  2  0  0  0  0  0  0  0  0  0
    8.1062  -14.7349   23.0226 N   0  0  0  0  0  0  0  0  0  0  0  0
    7.9545  -15.0599   21.6259 C   0  0  0  0  0  0  0  0  0  0  0  0
    8.4130  -15.9182   23.8615 O   0  0  0  0  0  0  0  0  0  0  0  0
    7.4625  -16.6825   24.1555 C   0  0  0  0  0  0  0  0  0  0  0  0
    7.4742  -14.5584   25.9630 C   0  0  0  0  0  0  0  0  0  0  0  0
    7.6553  -14.2187   27.2906 C   0  0  0  0  0  0  0  0  0  0  0  0
   10.3079  -18.8069   23.0420 C   0  0  2  0  0  0  0  0  0  0  0  0
   10.9277  -18.3373   24.3350 O   0  0  0  0  0  0  0  0  0  0  0  0
   12.1234  -17.7091   24.0488 C   0  0  2  0  0  0  0  0  0  0  0  0
    9.9510  -17.4350   25.0440 N   0  0  0  0  0  0  0  0  0  0  0  0
    9.7116  -16.2145   24.3360 C   0  0  0  0  0  0  0  0  0  0  0  0
   10.4362  -17.0805   26.3948 O   0  0  0  0  0  0  0  0  0  0  0  0
   10.8361  -15.9183   26.7128 O   0  0  0  0  0  0  0  0  0  0  0  0
  2  1  1  0
  2  3  2  0
  4  2  1  0
  5  4  1  0
  6  7  1  0
  6  5  1  0
  8 10  1  0
  8  7  1  0
  8  9  1  1
 10 11  2  0
 13 23  2  0
 13 12  1  0
 14 13  1  0
 15 16  1  0
 15 14  2  0
 16 22  2  0
 17 16  1  0
 18 17  1  6
 19 18  1  0
 19 10  1  0
 20 28  1  0
 20 18  1  0
 21 20  2  0
 22 23  1  0
 25 24  1  1
 26 25  1  0
 27 29  1  0
 27 25  1  0
 27 28  1  1
 29 31  1  0
 30 29  2  0
M  END
$$$$
