RYT.pdb
     RDKit          3D

 31 31  0  0  1  0  0  0  0  0999 V2000
    8.7157  -15.6667   16.3195 N   0  0  0  0  0  0  0  0  0  0  0  0
    8.2716  -14.4635   15.7192 C   0  0  0  0  0  0  0  0  0  0  0  0
    7.9689  -14.3683   14.4827 N   0  0  0  0  0  0  0  0  0  0  0  0
    8.1577  -13.3034   16.5367 N   0  0  0  0  0  0  0  0  0  0  0  0
    8.6021  -13.3594   17.9440 C   0  0  0  0  0  0  0  0  0  0  0  0
    7.3762  -13.3679   18.7770 C   0  0  0  0  0  0  0  0  0  0  0  0
    7.6480  -13.4607   20.2228 C   0  0  0  0  0  0  0  0  0  0  0  0
    8.1500  -14.7991   20.6419 C   0  0  2  0  0  0  0  0  0  0  0  0
    7.1640  -15.8371   20.7217 N   0  0  0  0  0  0  0  0  0  0  0  0
    8.8557  -14.6749   21.9339 C   0  0  0  0  0  0  0  0  0  0  0  0
   10.0384  -14.2807   21.9331 O   0  0  0  0  0  0  0  0  0  0  0  0
    7.6268  -13.4634   14.0669 O   0  0  0  0  0  0  0  0  0  0  0  0
   10.8525  -15.2066   30.4557 C   0  0  0  0  0  0  0  0  0  0  0  0
   10.1551  -15.0839   29.2643 C   0  0  0  0  0  0  0  0  0  0  0  0
    9.4216  -16.1159   28.7310 C   0  0  0  0  0  0  0  0  0  0  0  0
    8.7434  -15.9459   27.5393 C   0  0  0  0  0  0  0  0  0  0  0  0
    8.7683  -14.7595   26.8424 C   0  0  0  0  0  0  0  0  0  0  0  0
    8.0148  -14.6568   25.5690 C   0  0  1  0  0  0  0  0  0  0  0  0
    8.8883  -15.0758   24.3949 N   0  0  0  0  0  0  0  0  0  0  0  0
    8.1952  -14.9972   23.1329 C   0  0  0  0  0  0  0  0  0  0  0  0
    9.5165  -16.3984   24.6283 O   0  0  0  0  0  0  0  0  0  0  0  0
    8.7547  -17.3729   24.8379 C   0  0  0  0  0  0  0  0  0  0  0  0
    9.5065  -13.7374   27.3901 C   0  0  0  0  0  0  0  0  0  0  0  0
   10.1956  -13.8768   28.5803 C   0  0  0  0  0  0  0  0  0  0  0  0
   11.4899  -18.3921   22.3245 C   0  0  2  0  0  0  0  0  0  0  0  0
   12.3321  -18.2966   23.5727 O   0  0  0  0  0  0  0  0  0  0  0  0
   13.3381  -17.3757   23.3570 C   0  0  2  0  0  0  0  0  0  0  0  0
   11.4439  -17.9275   24.7327 N   0  0  0  0  0  0  0  0  0  0  0  0
   10.9157  -16.6018   24.6248 C   0  0  0  0  0  0  0  0  0  0  0  0
   12.1764  -18.0140   26.0140 O   0  0  0  0  0  0  0  0  0  0  0  0
   12.6376  -19.0988   26.4855 O   0  0  0  0  0  0  0  0  0  0  0  0
  2  1  1  0
  2  3  2  0
  4  2  1  0
  5  4  1  0
  6  7  1  0
  6  5  1  0
  8 10  1  0
  8  7  1  0
  8  9  1  1
 10 11  2  0
 13 23  2  0
 13 12  1  0
 14 13  1  0
 15 16  1  0
 15 14  2  0
 16 22  2  0
 17 16  1  0
 18 17  1  6
 19 18  1  0
 19 10  1  0
 20 28  1  0
 20 18  1  0
 21 20  2  0
 22 23  1  0
 25 24  1  6
 26 25  1  0
 27 29  1  0
 27 25  1  0
 27 28  1  1
 29 31  1  0
 30 29  2  0
M  END
$$$$
