RYT.pdb
     RDKit          3D

 31 31  0  0  1  0  0  0  0  0999 V2000
    7.6759  -12.8994   15.5977 N   0  0  0  0  0  0  0  0  0  0  0  0
    8.1829  -14.2203   15.6586 C   0  0  0  0  0  0  0  0  0  0  0  0
    8.5896  -14.8619   14.6327 N   0  0  0  0  0  0  0  0  0  0  0  0
    8.2412  -14.8629   16.9276 N   0  0  0  0  0  0  0  0  0  0  0  0
    7.3055  -14.4523   17.9940 C   0  0  0  0  0  0  0  0  0  0  0  0
    7.8019  -13.1589   18.5205 C   0  0  0  0  0  0  0  0  0  0  0  0
    8.5543  -13.2869   19.7816 C   0  0  0  0  0  0  0  0  0  0  0  0
    8.3235  -14.5851   20.4746 C   0  0  2  0  0  0  0  0  0  0  0  0
    6.9516  -14.9675   20.6402 N   0  0  0  0  0  0  0  0  0  0  0  0
    9.0030  -14.5676   21.7864 C   0  0  0  0  0  0  0  0  0  0  0  0
   10.2215  -14.3069   21.8247 O   0  0  0  0  0  0  0  0  0  0  0  0
    8.9395  -15.8524   14.7048 O   0  0  0  0  0  0  0  0  0  0  0  0
   10.6510  -15.1906   30.3708 C   0  0  0  0  0  0  0  0  0  0  0  0
   10.0135  -15.0120   29.1532 C   0  0  0  0  0  0  0  0  0  0  0  0
    9.2904  -16.0107   28.5473 C   0  0  0  0  0  0  0  0  0  0  0  0
    8.6727  -15.7851   27.3322 C   0  0  0  0  0  0  0  0  0  0  0  0
    8.7496  -14.5746   26.6823 C   0  0  0  0  0  0  0  0  0  0  0  0
    8.0598  -14.4119   25.3794 C   0  0  1  0  0  0  0  0  0  0  0  0
    8.9174  -14.9600   24.2476 N   0  0  0  0  0  0  0  0  0  0  0  0
    8.2783  -14.8405   22.9605 C   0  0  0  0  0  0  0  0  0  0  0  0
    9.3839  -16.3375   24.5358 O   0  0  0  0  0  0  0  0  0  0  0  0
    8.5101  -17.2176   24.7257 C   0  0  0  0  0  0  0  0  0  0  0  0
    9.4767  -13.5864   27.3023 C   0  0  0  0  0  0  0  0  0  0  0  0
   10.1057  -13.7814   28.5177 C   0  0  0  0  0  0  0  0  0  0  0  0
   11.1465  -18.7807   22.5275 C   0  0  2  0  0  0  0  0  0  0  0  0
   11.9779  -18.6416   23.7789 O   0  0  0  0  0  0  0  0  0  0  0  0
   13.0845  -17.8682   23.4899 C   0  0  2  0  0  0  0  0  0  0  0  0
   11.1224  -18.0495   24.8689 N   0  0  0  0  0  0  0  0  0  0  0  0
   10.7507  -16.6930   24.6048 C   0  0  0  0  0  0  0  0  0  0  0  0
   11.8231  -18.0757   26.1705 O   0  0  0  0  0  0  0  0  0  0  0  0
   12.1880  -17.0298   26.7908 O   0  0  0  0  0  0  0  0  0  0  0  0
  2  1  1  0
  2  3  2  0
  4  2  1  0
  5  4  1  0
  6  7  1  0
  6  5  1  0
  8 10  1  0
  8  7  1  0
  8  9  1  1
 10 11  2  0
 13 23  2  0
 13 12  1  0
 14 13  1  0
 15 16  1  0
 15 14  2  0
 16 22  2  0
 17 16  1  0
 18 17  1  6
 19 18  1  0
 19 10  1  0
 20 28  1  0
 20 18  1  0
 21 20  2  0
 22 23  1  0
 25 24  1  6
 26 25  1  0
 27 29  1  0
 27 25  1  0
 27 28  1  1
 29 31  1  0
 30 29  2  0
M  END
$$$$
