RYT.pdb
     RDKit          3D

 31 31  0  0  1  0  0  0  0  0999 V2000
    8.9989  -22.7852   20.1672 N   0  0  0  0  0  0  0  0  0  0  0  0
    9.5612  -23.0544   18.8958 C   0  0  0  0  0  0  0  0  0  0  0  0
    9.0847  -23.9214   18.0890 N   0  0  0  0  0  0  0  0  0  0  0  0
   10.7153  -22.3211   18.4993 N   0  0  0  0  0  0  0  0  0  0  0  0
   11.2353  -21.2535   19.3774 C   0  0  0  0  0  0  0  0  0  0  0  0
   10.5727  -19.9963   18.9564 C   0  0  0  0  0  0  0  0  0  0  0  0
   11.0268  -18.8119   19.7074 C   0  0  0  0  0  0  0  0  0  0  0  0
   10.2013  -17.5994   19.4482 C   0  0  2  0  0  0  0  0  0  0  0  0
   10.5373  -16.8578   18.2679 N   0  0  0  0  0  0  0  0  0  0  0  0
   10.2481  -16.7133   20.6296 C   0  0  0  0  0  0  0  0  0  0  0  0
   11.2870  -16.0584   20.8444 O   0  0  0  0  0  0  0  0  0  0  0  0
    9.5536  -24.1370   17.1712 O   0  0  0  0  0  0  0  0  0  0  0  0
    7.8306  -11.7072   18.0660 C   0  0  0  0  0  0  0  0  0  0  0  0
    7.8785  -12.4774   19.2173 C   0  0  0  0  0  0  0  0  0  0  0  0
    7.0379  -13.5440   19.4249 C   0  0  0  0  0  0  0  0  0  0  0  0
    7.1230  -14.2821   20.5898 C   0  0  0  0  0  0  0  0  0  0  0  0
    8.0346  -13.9915   21.5788 C   0  0  0  0  0  0  0  0  0  0  0  0
    8.0623  -14.8308   22.8015 C   0  0  2  0  0  0  0  0  0  0  0  0
    9.1749  -15.8660   22.7149 N   0  0  0  0  0  0  0  0  0  0  0  0
    9.1364  -16.6191   21.4858 C   0  0  0  0  0  0  0  0  0  0  0  0
    9.2113  -16.7284   23.9205 O   0  0  0  0  0  0  0  0  0  0  0  0
    8.1139  -17.1135   24.3910 C   0  0  0  0  0  0  0  0  0  0  0  0
    8.8681  -12.9215   21.3550 C   0  0  0  0  0  0  0  0  0  0  0  0
    8.8073  -12.1643   20.2001 C   0  0  0  0  0  0  0  0  0  0  0  0
   10.6248  -20.0684   24.1317 C   0  0  2  0  0  0  0  0  0  0  0  0
   11.2398  -19.3100   25.2819 O   0  0  0  0  0  0  0  0  0  0  0  0
   12.5335  -18.9667   24.9429 C   0  0  2  0  0  0  0  0  0  0  0  0
   10.3808  -18.1107   25.5895 N   0  0  0  0  0  0  0  0  0  0  0  0
   10.4127  -17.1267   24.5508 C   0  0  0  0  0  0  0  0  0  0  0  0
   10.8115  -17.4531   26.8416 O   0  0  0  0  0  0  0  0  0  0  0  0
   11.2674  -16.2692   26.8901 O   0  0  0  0  0  0  0  0  0  0  0  0
  2  1  1  0
  2  3  2  0
  4  2  1  0
  5  4  1  0
  6  7  1  0
  6  5  1  0
  8 10  1  0
  8  7  1  0
  8  9  1  6
 10 11  2  0
 13 23  2  0
 13 12  1  0
 14 13  1  0
 15 16  1  0
 15 14  2  0
 16 22  2  0
 17 16  1  0
 18 17  1  6
 19 18  1  0
 19 10  1  0
 20 28  1  0
 20 18  1  0
 21 20  2  0
 22 23  1  0
 25 24  1  1
 26 25  1  0
 27 29  1  0
 27 25  1  0
 27 28  1  1
 29 31  1  0
 30 29  2  0
M  END
$$$$
