RYT.pdb
     RDKit          3D

 31 31  0  0  1  0  0  0  0  0999 V2000
    8.0140  -15.7179   16.2311 N   0  0  0  0  0  0  0  0  0  0  0  0
    7.7006  -14.5680   15.4664 C   0  0  0  0  0  0  0  0  0  0  0  0
    7.7412  -14.5433   14.1907 N   0  0  0  0  0  0  0  0  0  0  0  0
    7.3218  -13.3815   16.1561 N   0  0  0  0  0  0  0  0  0  0  0  0
    7.0428  -13.4407   17.6051 C   0  0  0  0  0  0  0  0  0  0  0  0
    8.3429  -13.2692   18.2959 C   0  0  0  0  0  0  0  0  0  0  0  0
    8.2335  -13.2771   19.7659 C   0  0  0  0  0  0  0  0  0  0  0  0
    8.1777  -14.6489   20.3439 C   0  0  2  0  0  0  0  0  0  0  0  0
    6.8834  -15.2659   20.3596 N   0  0  0  0  0  0  0  0  0  0  0  0
    8.7421  -14.6285   21.7091 C   0  0  0  0  0  0  0  0  0  0  0  0
    9.9505  -14.3572   21.8520 O   0  0  0  0  0  0  0  0  0  0  0  0
    7.3793  -13.7197   13.6433 O   0  0  0  0  0  0  0  0  0  0  0  0
    9.6717  -14.0898   30.3631 C   0  0  0  0  0  0  0  0  0  0  0  0
    9.1266  -14.1313   29.0895 C   0  0  0  0  0  0  0  0  0  0  0  0
    8.4600  -15.2326   28.6095 C   0  0  0  0  0  0  0  0  0  0  0  0
    7.9340  -15.2269   27.3320 C   0  0  0  0  0  0  0  0  0  0  0  0
    8.0491  -14.1409   26.4947 C   0  0  0  0  0  0  0  0  0  0  0  0
    7.4582  -14.2134   25.1362 C   0  0  2  0  0  0  0  0  0  0  0  0
    8.4218  -14.8860   24.1687 N   0  0  0  0  0  0  0  0  0  0  0  0
    7.9220  -14.9104   22.8163 C   0  0  0  0  0  0  0  0  0  0  0  0
    8.8375  -16.2234   24.6556 O   0  0  0  0  0  0  0  0  0  0  0  0
    7.9348  -17.0663   24.8761 C   0  0  0  0  0  0  0  0  0  0  0  0
    8.7186  -13.0475   26.9906 C   0  0  0  0  0  0  0  0  0  0  0  0
    9.2557  -13.0228   28.2641 C   0  0  0  0  0  0  0  0  0  0  0  0
   10.5378  -18.8111   22.9775 C   0  0  2  0  0  0  0  0  0  0  0  0
   11.3556  -18.6308   24.2326 O   0  0  0  0  0  0  0  0  0  0  0  0
   12.5078  -17.9402   23.9132 C   0  0  2  0  0  0  0  0  0  0  0  0
   10.5169  -17.9191   25.2625 N   0  0  0  0  0  0  0  0  0  0  0  0
   10.1874  -16.5805   24.8782 C   0  0  0  0  0  0  0  0  0  0  0  0
   11.2144  -17.8516   26.5643 O   0  0  0  0  0  0  0  0  0  0  0  0
   11.6145  -16.7671   27.0893 O   0  0  0  0  0  0  0  0  0  0  0  0
  2  1  1  0
  2  3  2  0
  4  2  1  0
  5  4  1  0
  6  7  1  0
  6  5  1  0
  8 10  1  0
  8  7  1  0
  8  9  1  1
 10 11  2  0
 13 23  2  0
 13 12  1  0
 14 13  1  0
 15 16  1  0
 15 14  2  0
 16 22  2  0
 17 16  1  0
 18 17  1  6
 19 18  1  0
 19 10  1  0
 20 28  1  0
 20 18  1  0
 21 20  2  0
 22 23  1  0
 25 24  1  6
 26 25  1  0
 27 29  1  0
 27 25  1  0
 27 28  1  1
 29 31  1  0
 30 29  2  0
M  END
$$$$
