RYT.pdb
     RDKit          3D

 31 31  0  0  1  0  0  0  0  0999 V2000
   10.7482  -17.7114   18.0980 N   0  0  0  0  0  0  0  0  0  0  0  0
   10.0118  -18.8430   17.6708 C   0  0  0  0  0  0  0  0  0  0  0  0
   10.5458  -19.9794   17.4404 N   0  0  0  0  0  0  0  0  0  0  0  0
    8.6065  -18.7048   17.4898 N   0  0  0  0  0  0  0  0  0  0  0  0
    7.7542  -18.3665   18.6476 C   0  0  0  0  0  0  0  0  0  0  0  0
    8.6631  -17.9090   19.7253 C   0  0  0  0  0  0  0  0  0  0  0  0
    7.9727  -17.6275   20.9970 C   0  0  0  0  0  0  0  0  0  0  0  0
    8.0344  -16.1933   21.3944 C   0  0  2  0  0  0  0  0  0  0  0  0
    8.7264  -15.3248   20.4873 N   0  0  0  0  0  0  0  0  0  0  0  0
    8.6242  -16.0840   22.7445 C   0  0  0  0  0  0  0  0  0  0  0  0
    9.8326  -15.7949   22.8470 O   0  0  0  0  0  0  0  0  0  0  0  0
    9.9723  -20.8046   17.1258 O   0  0  0  0  0  0  0  0  0  0  0  0
    6.3870  -10.1203   25.7062 C   0  0  0  0  0  0  0  0  0  0  0  0
    6.5991  -11.4851   25.8213 C   0  0  0  0  0  0  0  0  0  0  0  0
    5.8579  -12.4068   25.1224 C   0  0  0  0  0  0  0  0  0  0  0  0
    6.1061  -13.7578   25.2708 C   0  0  0  0  0  0  0  0  0  0  0  0
    7.0874  -14.2370   26.1082 C   0  0  0  0  0  0  0  0  0  0  0  0
    7.2912  -15.7024   26.2138 C   0  0  2  0  0  0  0  0  0  0  0  0
    8.3468  -16.1689   25.2213 N   0  0  0  0  0  0  0  0  0  0  0  0
    7.8277  -16.3033   23.8827 C   0  0  0  0  0  0  0  0  0  0  0  0
    9.0405  -17.3896   25.6977 O   0  0  0  0  0  0  0  0  0  0  0  0
    8.4485  -18.4862   25.5536 C   0  0  0  0  0  0  0  0  0  0  0  0
    7.8197  -13.3015   26.7996 C   0  0  0  0  0  0  0  0  0  0  0  0
    7.5953  -11.9435   26.6723 C   0  0  0  0  0  0  0  0  0  0  0  0
   12.9845  -19.9768   26.6621 C   0  0  2  0  0  0  0  0  0  0  0  0
   12.3835  -18.6776   26.1854 O   0  0  0  0  0  0  0  0  0  0  0  0
   12.4877  -18.6216   24.8097 C   0  0  1  0  0  0  0  0  0  0  0  0
   10.9574  -18.5955   26.6650 N   0  0  0  0  0  0  0  0  0  0  0  0
   10.3204  -17.3675   26.2983 C   0  0  0  0  0  0  0  0  0  0  0  0
   10.8817  -18.7163   28.1366 O   0  0  0  0  0  0  0  0  0  0  0  0
   10.9835  -19.8203   28.7550 O   0  0  0  0  0  0  0  0  0  0  0  0
  2  1  1  0
  2  3  2  0
  4  2  1  0
  5  4  1  0
  6  7  1  0
  6  5  1  0
  8 10  1  0
  8  7  1  0
  8  9  1  6
 10 11  2  0
 13 23  2  0
 13 12  1  0
 14 13  1  0
 15 16  1  0
 15 14  2  0
 16 22  2  0
 17 16  1  0
 18 17  1  6
 19 18  1  0
 19 10  1  0
 20 28  1  0
 20 18  1  0
 21 20  2  0
 22 23  1  0
 25 24  1  1
 26 25  1  0
 27 29  1  0
 27 25  1  0
 27 28  1  1
 29 31  1  0
 30 29  2  0
M  END
$$$$
