HIE.pdb
     RDKit          3D

 28 28  0  0  1  0  0  0  0  0999 V2000
   13.9655  -14.3127   17.2225 N   0  0  0  0  0  0  0  0  0  0  0  0
   12.7019  -14.9643   17.2939 C   0  0  1  0  0  0  0  0  0  0  0  0
   12.7883  -16.3654   16.8146 C   0  0  0  0  0  0  0  0  0  0  0  0
   12.9832  -16.3318   15.3425 C   0  0  0  0  0  0  0  0  0  0  0  0
   12.1048  -16.6645   14.3319 C   0  0  0  0  0  0  0  0  0  0  0  0
   12.7200  -16.4771   13.1394 N   0  0  0  0  0  0  0  0  0  0  0  0
   13.9549  -16.0373   13.4016 C   0  0  0  0  0  0  0  0  0  0  0  0
   14.1151  -15.9492   14.7217 N   0  0  0  0  0  0  0  0  0  0  0  0
   12.1901  -14.8626   18.7212 C   0  0  0  0  0  0  0  0  0  0  0  0
   13.0008  -15.0452   19.6496 O   0  0  0  0  0  0  0  0  0  0  0  0
    7.3772  -12.0237   19.2492 C   0  0  0  0  0  0  0  0  0  0  0  0
    8.7409  -12.5789   19.4562 C   0  0  0  0  0  0  0  0  0  0  0  0
    8.8305  -13.8715   20.1853 C   0  0  2  0  0  0  0  0  0  0  0  0
    8.3744  -13.7385   21.6411 C   0  0  0  0  0  0  0  0  0  0  0  0
   10.1630  -14.5248   20.2272 C   0  0  2  0  0  0  0  0  0  0  0  0
   10.8541  -14.5727   18.9960 N   0  0  0  0  0  0  0  0  0  0  0  0
   10.2915  -15.6852   21.1250 C   0  0  0  0  0  0  0  0  0  0  0  0
    9.7026  -16.7512   20.8431 O   0  0  0  0  0  0  0  0  0  0  0  0
   11.0442  -15.6846   22.3012 N   0  0  0  0  0  0  0  0  0  0  0  0
   11.2803  -16.9044   23.1114 C   0  0  1  0  0  0  0  0  0  0  0  0
   12.7225  -16.8728   23.5001 C   0  0  0  0  0  0  0  0  0  0  0  0
   13.0893  -18.0390   24.3644 C   0  0  0  0  0  0  0  0  0  0  0  0
   14.5070  -18.1039   24.7600 C   0  0  0  0  0  0  0  0  0  0  0  0
   15.2645  -19.0491   24.4474 O   0  0  0  0  0  0  0  0  0  0  0  0
   10.3364  -16.9507   24.2385 C   0  0  0  0  0  0  0  0  0  0  0  0
   10.2483  -18.0023   24.9168 O   0  0  0  0  0  0  0  0  0  0  0  0
   15.0833  -17.0709   25.5307 O   0  0  0  0  0  0  0  0  0  0  0  0
    9.5374  -15.8858   24.5909 O   0  0  0  0  0  0  0  0  0  0  0  0
  2  1  1  1
  3  2  1  0
  4  5  2  0
  4  3  1  0
  6  5  1  0
  7  8  2  0
  7  6  1  0
  8  4  1  0
  9  2  1  0
 10  9  2  0
 12 11  1  0
 13 15  1  0
 13 12  1  0
 13 14  1  1
 15 16  1  6
 16  9  1  0
 17 15  1  0
 18 17  2  0
 19 17  1  0
 20 25  1  0
 20 19  1  0
 20 21  1  1
 22 21  1  0
 23 27  1  0
 23 22  1  0
 24 23  2  0
 25 28  1  0
 26 25  2  0
M  END
$$$$
