HIE.pdb
     RDKit          3D

 28 28  0  0  1  0  0  0  0  0999 V2000
    9.9263  -14.4715   20.3295 N   0  0  0  0  0  0  0  0  0  0  0  0
    8.7354  -14.6387   21.0912 C   0  0  1  0  0  0  0  0  0  0  0  0
    7.9425  -15.7956   20.6081 C   0  0  0  0  0  0  0  0  0  0  0  0
    7.5405  -15.5180   19.2054 C   0  0  0  0  0  0  0  0  0  0  0  0
    7.6589  -14.3561   18.4709 C   0  0  0  0  0  0  0  0  0  0  0  0
    7.1545  -14.5698   17.2317 N   0  0  0  0  0  0  0  0  0  0  0  0
    6.7312  -15.8373   17.1953 C   0  0  0  0  0  0  0  0  0  0  0  0
    6.9615  -16.4079   18.3773 N   0  0  0  0  0  0  0  0  0  0  0  0
    9.1172  -14.7597   22.5572 C   0  0  0  0  0  0  0  0  0  0  0  0
   10.2051  -15.2987   22.8375 O   0  0  0  0  0  0  0  0  0  0  0  0
    7.2352  -12.0871   27.9063 C   0  0  0  0  0  0  0  0  0  0  0  0
    7.9867  -13.1346   27.1655 C   0  0  0  0  0  0  0  0  0  0  0  0
    7.6774  -13.2790   25.7184 C   0  0  2  0  0  0  0  0  0  0  0  0
    6.1960  -13.5838   25.4791 C   0  0  0  0  0  0  0  0  0  0  0  0
    8.4384  -14.3122   24.9717 C   0  0  2  0  0  0  0  0  0  0  0  0
    8.2826  -14.2840   23.5679 N   0  0  0  0  0  0  0  0  0  0  0  0
    8.5515  -15.6312   25.6172 C   0  0  0  0  0  0  0  0  0  0  0  0
    7.5468  -16.3716   25.6874 O   0  0  0  0  0  0  0  0  0  0  0  0
    9.7310  -16.1318   26.1723 N   0  0  0  0  0  0  0  0  0  0  0  0
    9.8394  -17.4941   26.7488 C   0  0  1  0  0  0  0  0  0  0  0  0
   11.1433  -18.0453   26.2712 C   0  0  0  0  0  0  0  0  0  0  0  0
   11.2278  -18.0527   24.7765 C   0  0  0  0  0  0  0  0  0  0  0  0
   12.4523  -18.6552   24.2213 C   0  0  0  0  0  0  0  0  0  0  0  0
   13.5837  -18.5076   24.7343 O   0  0  0  0  0  0  0  0  0  0  0  0
    9.6907  -17.4354   28.2109 C   0  0  0  0  0  0  0  0  0  0  0  0
    9.7280  -16.3196   28.7830 O   0  0  0  0  0  0  0  0  0  0  0  0
   12.3949  -19.4465   23.0535 O   0  0  0  0  0  0  0  0  0  0  0  0
    9.5093  -18.5556   28.9912 O   0  0  0  0  0  0  0  0  0  0  0  0
  2  1  1  6
  3  2  1  0
  4  5  2  0
  4  3  1  0
  6  5  1  0
  7  8  2  0
  7  6  1  0
  8  4  1  0
  9  2  1  0
 10  9  2  0
 12 11  1  0
 13 15  1  0
 13 12  1  0
 13 14  1  1
 15 16  1  6
 16  9  1  0
 17 15  1  0
 18 17  2  0
 19 17  1  0
 20 25  1  0
 20 19  1  0
 20 21  1  1
 22 21  1  0
 23 27  1  0
 23 22  1  0
 24 23  2  0
 25 28  1  0
 26 25  2  0
M  END
$$$$
