HIE.pdb
     RDKit          3D

 28 28  0  0  1  0  0  0  0  0999 V2000
   10.3042  -13.9006   20.1933 N   0  0  0  0  0  0  0  0  0  0  0  0
    9.0077  -14.0876   20.7504 C   0  0  1  0  0  0  0  0  0  0  0  0
    8.2672  -15.1637   20.0475 C   0  0  0  0  0  0  0  0  0  0  0  0
    8.0378  -14.7197   18.6487 C   0  0  0  0  0  0  0  0  0  0  0  0
    8.4524  -13.5673   18.0134 C   0  0  0  0  0  0  0  0  0  0  0  0
    8.0077  -13.5901   16.7338 N   0  0  0  0  0  0  0  0  0  0  0  0
    7.3308  -14.7320   16.5757 C   0  0  0  0  0  0  0  0  0  0  0  0
    7.3474  -15.4110   17.7222 N   0  0  0  0  0  0  0  0  0  0  0  0
    9.1595  -14.3550   22.2387 C   0  0  0  0  0  0  0  0  0  0  0  0
   10.1205  -15.0537   22.6141 O   0  0  0  0  0  0  0  0  0  0  0  0
    6.9555  -11.7589   27.4689 C   0  0  0  0  0  0  0  0  0  0  0  0
    7.6114  -12.8932   26.7662 C   0  0  0  0  0  0  0  0  0  0  0  0
    7.4070  -12.9737   25.2957 C   0  0  2  0  0  0  0  0  0  0  0  0
    5.9384  -13.2163   24.9360 C   0  0  0  0  0  0  0  0  0  0  0  0
    8.1872  -14.0058   24.5676 C   0  0  2  0  0  0  0  0  0  0  0  0
    8.2563  -13.8378   23.1666 N   0  0  0  0  0  0  0  0  0  0  0  0
    8.0880  -15.3816   25.0836 C   0  0  0  0  0  0  0  0  0  0  0  0
    7.4041  -16.2248   24.4640 O   0  0  0  0  0  0  0  0  0  0  0  0
    8.7194  -15.8284   26.2463 N   0  0  0  0  0  0  0  0  0  0  0  0
    9.3748  -17.1548   26.3525 C   0  0  1  0  0  0  0  0  0  0  0  0
   10.5569  -17.1089   25.4401 C   0  0  0  0  0  0  0  0  0  0  0  0
   11.3133  -18.4008   25.4474 C   0  0  0  0  0  0  0  0  0  0  0  0
   11.9707  -18.7489   24.1757 C   0  0  0  0  0  0  0  0  0  0  0  0
   11.5808  -19.6767   23.4327 O   0  0  0  0  0  0  0  0  0  0  0  0
    9.6895  -17.4496   27.7587 C   0  0  0  0  0  0  0  0  0  0  0  0
    9.9384  -16.4999   28.5396 O   0  0  0  0  0  0  0  0  0  0  0  0
   13.1005  -18.0274   23.7328 O   0  0  0  0  0  0  0  0  0  0  0  0
    9.7234  -18.7293   28.2666 O   0  0  0  0  0  0  0  0  0  0  0  0
  2  1  1  6
  3  2  1  0
  4  5  2  0
  4  3  1  0
  6  5  1  0
  7  8  2  0
  7  6  1  0
  8  4  1  0
  9  2  1  0
 10  9  2  0
 12 11  1  0
 13 15  1  0
 13 12  1  0
 13 14  1  1
 15 16  1  6
 16  9  1  0
 17 15  1  0
 18 17  2  0
 19 17  1  0
 20 25  1  0
 20 19  1  0
 20 21  1  6
 22 21  1  0
 23 27  1  0
 23 22  1  0
 24 23  2  0
 25 28  1  0
 26 25  2  0
M  END
$$$$
