HIE.pdb
     RDKit          3D

 28 28  0  0  1  0  0  0  0  0999 V2000
    8.6498  -17.5479   16.8238 N   0  0  0  0  0  0  0  0  0  0  0  0
   10.0076  -17.1202   16.8196 C   0  0  1  0  0  0  0  0  0  0  0  0
   10.3472  -16.4113   15.5616 C   0  0  0  0  0  0  0  0  0  0  0  0
   10.2584  -17.3911   14.4487 C   0  0  0  0  0  0  0  0  0  0  0  0
    9.1809  -18.1382   14.0196 C   0  0  0  0  0  0  0  0  0  0  0  0
    9.5683  -18.8987   12.9673 N   0  0  0  0  0  0  0  0  0  0  0  0
   10.8592  -18.6310   12.7460 C   0  0  0  0  0  0  0  0  0  0  0  0
   11.2753  -17.7274   13.6328 N   0  0  0  0  0  0  0  0  0  0  0  0
   10.2458  -16.2690   18.0558 C   0  0  0  0  0  0  0  0  0  0  0  0
   11.3969  -15.8367   18.2575 O   0  0  0  0  0  0  0  0  0  0  0  0
    6.7977  -12.3190   19.5696 C   0  0  0  0  0  0  0  0  0  0  0  0
    7.9700  -13.2175   19.3993 C   0  0  0  0  0  0  0  0  0  0  0  0
    8.1095  -14.3244   20.3821 C   0  0  2  0  0  0  0  0  0  0  0  0
    8.2554  -13.8015   21.8139 C   0  0  0  0  0  0  0  0  0  0  0  0
    9.2349  -15.2692   20.1700 C   0  0  2  0  0  0  0  0  0  0  0  0
    9.2134  -15.9730   18.9452 N   0  0  0  0  0  0  0  0  0  0  0  0
    9.7121  -15.9917   21.3613 C   0  0  0  0  0  0  0  0  0  0  0  0
    9.1140  -17.0227   21.7380 O   0  0  0  0  0  0  0  0  0  0  0  0
   10.8149  -15.6008   22.1236 N   0  0  0  0  0  0  0  0  0  0  0  0
   11.4634  -16.4860   23.1216 C   0  0  1  0  0  0  0  0  0  0  0  0
   12.9235  -16.1739   23.0678 C   0  0  0  0  0  0  0  0  0  0  0  0
   13.6954  -16.9563   24.0843 C   0  0  0  0  0  0  0  0  0  0  0  0
   15.1351  -16.6503   24.1490 C   0  0  0  0  0  0  0  0  0  0  0  0
   15.6314  -15.5875   23.7143 O   0  0  0  0  0  0  0  0  0  0  0  0
   10.8391  -16.3003   24.4403 C   0  0  0  0  0  0  0  0  0  0  0  0
   10.1917  -15.2497   24.6656 O   0  0  0  0  0  0  0  0  0  0  0  0
   16.0381  -17.5725   24.7213 O   0  0  0  0  0  0  0  0  0  0  0  0
   10.9293  -17.2325   25.4501 O   0  0  0  0  0  0  0  0  0  0  0  0
  2  1  1  6
  3  2  1  0
  4  5  2  0
  4  3  1  0
  6  5  1  0
  7  8  2  0
  7  6  1  0
  8  4  1  0
  9  2  1  0
 10  9  2  0
 12 11  1  0
 13 15  1  0
 13 12  1  0
 13 14  1  1
 15 16  1  6
 16  9  1  0
 17 15  1  0
 18 17  2  0
 19 17  1  0
 20 25  1  0
 20 19  1  0
 20 21  1  1
 22 21  1  0
 23 27  1  0
 23 22  1  0
 24 23  2  0
 25 28  1  0
 26 25  2  0
M  END
$$$$
