HIE.pdb
     RDKit          3D

 28 28  0  0  1  0  0  0  0  0999 V2000
    9.2890  -17.4288   16.6627 N   0  0  0  0  0  0  0  0  0  0  0  0
    8.6532  -17.7848   17.8856 C   0  0  1  0  0  0  0  0  0  0  0  0
    8.6530  -19.2544   18.0870 C   0  0  0  0  0  0  0  0  0  0  0  0
    7.7869  -19.8571   17.0416 C   0  0  0  0  0  0  0  0  0  0  0  0
    6.4416  -20.1603   17.0824 C   0  0  0  0  0  0  0  0  0  0  0  0
    6.0792  -20.6990   15.8932 N   0  0  0  0  0  0  0  0  0  0  0  0
    7.1752  -20.7307   15.1283 C   0  0  0  0  0  0  0  0  0  0  0  0
    8.2004  -20.2265   15.8145 N   0  0  0  0  0  0  0  0  0  0  0  0
    9.3384  -17.0372   19.0174 C   0  0  0  0  0  0  0  0  0  0  0  0
   10.5830  -16.9780   19.0126 O   0  0  0  0  0  0  0  0  0  0  0  0
    7.6063  -12.8236   23.3178 C   0  0  0  0  0  0  0  0  0  0  0  0
    8.5821  -13.7980   22.7620 C   0  0  0  0  0  0  0  0  0  0  0  0
    8.0799  -14.7141   21.7041 C   0  0  2  0  0  0  0  0  0  0  0  0
    6.8533  -15.5044   22.1686 C   0  0  0  0  0  0  0  0  0  0  0  0
    9.0406  -15.7147   21.1746 C   0  0  2  0  0  0  0  0  0  0  0  0
    8.6056  -16.4302   20.0368 N   0  0  0  0  0  0  0  0  0  0  0  0
    9.8366  -16.4461   22.1748 C   0  0  0  0  0  0  0  0  0  0  0  0
    9.4465  -17.5640   22.5758 O   0  0  0  0  0  0  0  0  0  0  0  0
   11.0293  -15.9714   22.7244 N   0  0  0  0  0  0  0  0  0  0  0  0
   12.0192  -16.8515   23.3920 C   0  0  1  0  0  0  0  0  0  0  0  0
   13.3630  -16.2783   23.0792 C   0  0  0  0  0  0  0  0  0  0  0  0
   14.4621  -17.0473   23.7440 C   0  0  0  0  0  0  0  0  0  0  0  0
   15.8259  -16.5795   23.4410 C   0  0  0  0  0  0  0  0  0  0  0  0
   16.3506  -16.6795   22.3098 O   0  0  0  0  0  0  0  0  0  0  0  0
   11.7109  -16.9590   24.8261 C   0  0  0  0  0  0  0  0  0  0  0  0
   12.0988  -17.9704   25.4588 O   0  0  0  0  0  0  0  0  0  0  0  0
   16.6177  -15.9821   24.4457 O   0  0  0  0  0  0  0  0  0  0  0  0
   11.0116  -15.9941   25.5165 O   0  0  0  0  0  0  0  0  0  0  0  0
  2  1  1  6
  3  2  1  0
  4  5  2  0
  4  3  1  0
  6  5  1  0
  7  8  2  0
  7  6  1  0
  8  4  1  0
  9  2  1  0
 10  9  2  0
 12 11  1  0
 13 15  1  0
 13 12  1  0
 13 14  1  1
 15 16  1  1
 16  9  1  0
 17 15  1  0
 18 17  2  0
 19 17  1  0
 20 25  1  0
 20 19  1  0
 20 21  1  1
 22 21  1  0
 23 27  1  0
 23 22  1  0
 24 23  2  0
 25 28  1  0
 26 25  2  0
M  END
$$$$
