HIE.pdb
     RDKit          3D

 28 28  0  0  1  0  0  0  0  0999 V2000
    9.6651  -17.7052   16.3956 N   0  0  0  0  0  0  0  0  0  0  0  0
    8.5971  -17.5589   17.3253 C   0  0  1  0  0  0  0  0  0  0  0  0
    7.9431  -18.8602   17.6068 C   0  0  0  0  0  0  0  0  0  0  0  0
    6.9754  -19.1295   16.5126 C   0  0  0  0  0  0  0  0  0  0  0  0
    6.7323  -18.4136   15.3585 C   0  0  0  0  0  0  0  0  0  0  0  0
    5.7576  -19.0383   14.6545 N   0  0  0  0  0  0  0  0  0  0  0  0
    5.4014  -20.1197   15.3550 C   0  0  0  0  0  0  0  0  0  0  0  0
    6.1300  -20.1767   16.4694 N   0  0  0  0  0  0  0  0  0  0  0  0
    9.1401  -16.8916   18.5780 C   0  0  0  0  0  0  0  0  0  0  0  0
   10.3346  -17.0855   18.8752 O   0  0  0  0  0  0  0  0  0  0  0  0
    6.9781  -11.9504   20.1221 C   0  0  0  0  0  0  0  0  0  0  0  0
    7.9023  -13.0961   19.9121 C   0  0  0  0  0  0  0  0  0  0  0  0
    7.7988  -14.2213   20.8785 C   0  0  2  0  0  0  0  0  0  0  0  0
    8.1562  -13.7855   22.3023 C   0  0  0  0  0  0  0  0  0  0  0  0
    8.6218  -15.4240   20.5951 C   0  0  2  0  0  0  0  0  0  0  0  0
    8.3346  -16.0827   19.3787 N   0  0  0  0  0  0  0  0  0  0  0  0
    8.9737  -16.2605   21.7550 C   0  0  0  0  0  0  0  0  0  0  0  0
    8.1464  -17.0903   22.1905 O   0  0  0  0  0  0  0  0  0  0  0  0
   10.1977  -16.1951   22.4240 N   0  0  0  0  0  0  0  0  0  0  0  0
   10.6306  -17.2059   23.4196 C   0  0  1  0  0  0  0  0  0  0  0  0
   12.0147  -17.6093   23.0277 C   0  0  0  0  0  0  0  0  0  0  0  0
   12.5729  -18.6457   23.9528 C   0  0  0  0  0  0  0  0  0  0  0  0
   13.9423  -19.0909   23.6413 C   0  0  0  0  0  0  0  0  0  0  0  0
   14.8046  -19.3234   24.5173 O   0  0  0  0  0  0  0  0  0  0  0  0
   10.5071  -16.6585   24.7792 C   0  0  0  0  0  0  0  0  0  0  0  0
   10.4588  -15.4145   24.9332 O   0  0  0  0  0  0  0  0  0  0  0  0
   14.3472  -19.2778   22.3018 O   0  0  0  0  0  0  0  0  0  0  0  0
   10.4395  -17.4517   25.9030 O   0  0  0  0  0  0  0  0  0  0  0  0
  2  1  1  6
  3  2  1  0
  4  5  2  0
  4  3  1  0
  6  5  1  0
  7  8  2  0
  7  6  1  0
  8  4  1  0
  9  2  1  0
 10  9  2  0
 12 11  1  0
 13 15  1  0
 13 12  1  0
 13 14  1  1
 15 16  1  6
 16  9  1  0
 17 15  1  0
 18 17  2  0
 19 17  1  0
 20 25  1  0
 20 19  1  0
 20 21  1  6
 22 21  1  0
 23 27  1  0
 23 22  1  0
 24 23  2  0
 25 28  1  0
 26 25  2  0
M  END
$$$$
