HIE.pdb
     RDKit          3D

 28 28  0  0  1  0  0  0  0  0999 V2000
   10.0783  -14.2855   20.9207 N   0  0  0  0  0  0  0  0  0  0  0  0
    8.7685  -14.2323   21.4756 C   0  0  1  0  0  0  0  0  0  0  0  0
    7.8206  -15.0745   20.7058 C   0  0  0  0  0  0  0  0  0  0  0  0
    7.6670  -14.4709   19.3573 C   0  0  0  0  0  0  0  0  0  0  0  0
    8.3207  -13.3925   18.7976 C   0  0  0  0  0  0  0  0  0  0  0  0
    7.8529  -13.2031   17.5402 N   0  0  0  0  0  0  0  0  0  0  0  0
    6.9279  -14.1431   17.3216 C   0  0  0  0  0  0  0  0  0  0  0  0
    6.8145  -14.9045   18.4095 N   0  0  0  0  0  0  0  0  0  0  0  0
    8.8517  -14.6303   22.9399 C   0  0  0  0  0  0  0  0  0  0  0  0
    9.7652  -15.4035   23.2867 O   0  0  0  0  0  0  0  0  0  0  0  0
    5.5248  -11.4125   26.1150 C   0  0  0  0  0  0  0  0  0  0  0  0
    6.6448  -12.1796   25.5085 C   0  0  0  0  0  0  0  0  0  0  0  0
    6.8327  -13.5748   25.9865 C   0  0  2  0  0  0  0  0  0  0  0  0
    7.2282  -13.6232   27.4651 C   0  0  0  0  0  0  0  0  0  0  0  0
    7.8326  -14.4006   25.2636 C   0  0  2  0  0  0  0  0  0  0  0  0
    7.9383  -14.1495   23.8774 N   0  0  0  0  0  0  0  0  0  0  0  0
    7.9742  -15.7953   25.7150 C   0  0  0  0  0  0  0  0  0  0  0  0
    6.9888  -16.5628   25.6645 O   0  0  0  0  0  0  0  0  0  0  0  0
    9.1610  -16.3409   26.2088 N   0  0  0  0  0  0  0  0  0  0  0  0
    9.2625  -17.7307   26.7171 C   0  0  1  0  0  0  0  0  0  0  0  0
   10.0432  -18.4913   25.6953 C   0  0  0  0  0  0  0  0  0  0  0  0
   11.4523  -17.9961   25.5928 C   0  0  0  0  0  0  0  0  0  0  0  0
   12.3016  -18.7186   24.6299 C   0  0  0  0  0  0  0  0  0  0  0  0
   11.8590  -19.5715   23.8290 O   0  0  0  0  0  0  0  0  0  0  0  0
    9.8451  -17.7314   28.0677 C   0  0  0  0  0  0  0  0  0  0  0  0
    9.9075  -18.8107   28.7039 O   0  0  0  0  0  0  0  0  0  0  0  0
   13.6900  -18.4690   24.5718 O   0  0  0  0  0  0  0  0  0  0  0  0
   10.3320  -16.5949   28.6743 O   0  0  0  0  0  0  0  0  0  0  0  0
  2  1  1  6
  3  2  1  0
  4  5  2  0
  4  3  1  0
  6  5  1  0
  7  8  2  0
  7  6  1  0
  8  4  1  0
  9  2  1  0
 10  9  2  0
 12 11  1  0
 13 15  1  0
 13 12  1  0
 13 14  1  1
 15 16  1  6
 16  9  1  0
 17 15  1  0
 18 17  2  0
 19 17  1  0
 20 25  1  0
 20 19  1  0
 20 21  1  6
 22 21  1  0
 23 27  1  0
 23 22  1  0
 24 23  2  0
 25 28  1  0
 26 25  2  0
M  END
$$$$
