HIE.pdb
     RDKit          3D

 28 28  0  0  1  0  0  0  0  0999 V2000
    9.9324  -17.9610   17.0408 N   0  0  0  0  0  0  0  0  0  0  0  0
    8.8395  -17.9499   17.9529 C   0  0  1  0  0  0  0  0  0  0  0  0
    8.3962  -19.3267   18.2822 C   0  0  0  0  0  0  0  0  0  0  0  0
    7.8539  -19.9391   17.0424 C   0  0  0  0  0  0  0  0  0  0  0  0
    6.6053  -19.8068   16.4704 C   0  0  0  0  0  0  0  0  0  0  0  0
    6.5616  -20.5531   15.3404 N   0  0  0  0  0  0  0  0  0  0  0  0
    7.7569  -21.1376   15.2115 C   0  0  0  0  0  0  0  0  0  0  0  0
    8.5335  -20.7711   16.2307 N   0  0  0  0  0  0  0  0  0  0  0  0
    9.2489  -17.1552   19.1818 C   0  0  0  0  0  0  0  0  0  0  0  0
   10.3942  -17.3316   19.6398 O   0  0  0  0  0  0  0  0  0  0  0  0
    7.0237  -12.0884   19.9909 C   0  0  0  0  0  0  0  0  0  0  0  0
    7.8815  -13.3024   19.9549 C   0  0  0  0  0  0  0  0  0  0  0  0
    7.7101  -14.2725   21.0685 C   0  0  2  0  0  0  0  0  0  0  0  0
    8.0330  -13.6446   22.4273 C   0  0  0  0  0  0  0  0  0  0  0  0
    8.5036  -15.5250   20.9924 C   0  0  2  0  0  0  0  0  0  0  0  0
    8.3767  -16.2512   19.7872 N   0  0  0  0  0  0  0  0  0  0  0  0
    8.6253  -16.2958   22.2414 C   0  0  0  0  0  0  0  0  0  0  0  0
    7.9269  -17.3196   22.4048 O   0  0  0  0  0  0  0  0  0  0  0  0
    9.4876  -15.9598   23.2871 N   0  0  0  0  0  0  0  0  0  0  0  0
   10.2379  -16.9693   24.0733 C   0  0  1  0  0  0  0  0  0  0  0  0
   11.3049  -17.4926   23.1679 C   0  0  0  0  0  0  0  0  0  0  0  0
   12.1612  -18.5125   23.8518 C   0  0  0  0  0  0  0  0  0  0  0  0
   13.1952  -19.1319   23.0046 C   0  0  0  0  0  0  0  0  0  0  0  0
   14.1927  -18.5116   22.5744 O   0  0  0  0  0  0  0  0  0  0  0  0
   10.7268  -16.3710   25.3248 C   0  0  0  0  0  0  0  0  0  0  0  0
   10.8294  -15.1233   25.4045 O   0  0  0  0  0  0  0  0  0  0  0  0
   13.0976  -20.4907   22.6339 O   0  0  0  0  0  0  0  0  0  0  0  0
   11.0797  -17.1198   26.4255 O   0  0  0  0  0  0  0  0  0  0  0  0
  2  1  1  6
  3  2  1  0
  4  5  2  0
  4  3  1  0
  6  5  1  0
  7  8  2  0
  7  6  1  0
  8  4  1  0
  9  2  1  0
 10  9  2  0
 12 11  1  0
 13 15  1  0
 13 12  1  0
 13 14  1  1
 15 16  1  6
 16  9  1  0
 17 15  1  0
 18 17  2  0
 19 17  1  0
 20 25  1  0
 20 19  1  0
 20 21  1  6
 22 21  1  0
 23 27  1  0
 23 22  1  0
 24 23  2  0
 25 28  1  0
 26 25  2  0
M  END
$$$$
