HIE.pdb
     RDKit          3D

 28 28  0  0  1  0  0  0  0  0999 V2000
    9.8487  -13.4462   20.5998 N   0  0  0  0  0  0  0  0  0  0  0  0
    8.6694  -13.9578   21.2113 C   0  0  1  0  0  0  0  0  0  0  0  0
    8.1421  -15.1306   20.4718 C   0  0  0  0  0  0  0  0  0  0  0  0
    7.7226  -14.6680   19.1241 C   0  0  0  0  0  0  0  0  0  0  0  0
    7.8678  -13.4284   18.5359 C   0  0  0  0  0  0  0  0  0  0  0  0
    7.3318  -13.4699   17.2923 N   0  0  0  0  0  0  0  0  0  0  0  0
    6.8628  -14.7084   17.1100 C   0  0  0  0  0  0  0  0  0  0  0  0
    7.0959  -15.4286   18.2067 N   0  0  0  0  0  0  0  0  0  0  0  0
    8.9811  -14.2721   22.6651 C   0  0  0  0  0  0  0  0  0  0  0  0
   10.1175  -14.7018   22.9418 O   0  0  0  0  0  0  0  0  0  0  0  0
    5.8324  -11.4486   26.2768 C   0  0  0  0  0  0  0  0  0  0  0  0
    6.9260  -12.1506   25.5543 C   0  0  0  0  0  0  0  0  0  0  0  0
    7.1359  -13.5831   25.8928 C   0  0  2  0  0  0  0  0  0  0  0  0
    7.5884  -13.7663   27.3442 C   0  0  0  0  0  0  0  0  0  0  0  0
    8.1094  -14.3317   25.0583 C   0  0  2  0  0  0  0  0  0  0  0  0
    8.0310  -14.0879   23.6690 N   0  0  0  0  0  0  0  0  0  0  0  0
    8.4179  -15.7051   25.4916 C   0  0  0  0  0  0  0  0  0  0  0  0
    7.5175  -16.5721   25.4806 O   0  0  0  0  0  0  0  0  0  0  0  0
    9.6772  -16.1239   25.9258 N   0  0  0  0  0  0  0  0  0  0  0  0
    9.9654  -17.5160   26.3492 C   0  0  1  0  0  0  0  0  0  0  0  0
   11.2601  -17.8877   25.7031 C   0  0  0  0  0  0  0  0  0  0  0  0
   11.7572  -19.2164   26.1815 C   0  0  0  0  0  0  0  0  0  0  0  0
   13.0454  -19.6459   25.6103 C   0  0  0  0  0  0  0  0  0  0  0  0
   13.6873  -18.9682   24.7775 O   0  0  0  0  0  0  0  0  0  0  0  0
    9.9576  -17.6076   27.8172 C   0  0  0  0  0  0  0  0  0  0  0  0
   10.1181  -16.5635   28.4938 O   0  0  0  0  0  0  0  0  0  0  0  0
   13.6231  -20.8764   25.9919 O   0  0  0  0  0  0  0  0  0  0  0  0
    9.7795  -18.7943   28.4930 O   0  0  0  0  0  0  0  0  0  0  0  0
  2  1  1  6
  3  2  1  0
  4  5  2  0
  4  3  1  0
  6  5  1  0
  7  8  2  0
  7  6  1  0
  8  4  1  0
  9  2  1  0
 10  9  2  0
 12 11  1  0
 13 15  1  0
 13 12  1  0
 13 14  1  1
 15 16  1  6
 16  9  1  0
 17 15  1  0
 18 17  2  0
 19 17  1  0
 20 25  1  0
 20 19  1  0
 20 21  1  1
 22 21  1  0
 23 27  1  0
 23 22  1  0
 24 23  2  0
 25 28  1  0
 26 25  2  0
M  END
$$$$
