HIE.pdb
     RDKit          3D

 28 28  0  0  1  0  0  0  0  0999 V2000
    7.7091  -14.9346   20.1512 N   0  0  0  0  0  0  0  0  0  0  0  0
    7.4620  -15.8337   21.2268 C   0  0  1  0  0  0  0  0  0  0  0  0
    7.8040  -17.2285   20.8550 C   0  0  0  0  0  0  0  0  0  0  0  0
    7.1324  -17.5337   19.5658 C   0  0  0  0  0  0  0  0  0  0  0  0
    5.8172  -17.3453   19.1939 C   0  0  0  0  0  0  0  0  0  0  0  0
    5.6587  -17.7729   17.9181 N   0  0  0  0  0  0  0  0  0  0  0  0
    6.8495  -18.2180   17.5044 C   0  0  0  0  0  0  0  0  0  0  0  0
    7.7347  -18.0757   18.4904 N   0  0  0  0  0  0  0  0  0  0  0  0
    8.2286  -15.3461   22.4450 C   0  0  0  0  0  0  0  0  0  0  0  0
    9.4591  -15.5389   22.4797 O   0  0  0  0  0  0  0  0  0  0  0  0
    6.9943  -11.6447   27.3854 C   0  0  0  0  0  0  0  0  0  0  0  0
    7.8101  -12.6853   26.7053 C   0  0  0  0  0  0  0  0  0  0  0  0
    7.2586  -13.2447   25.4430 C   0  0  2  0  0  0  0  0  0  0  0  0
    5.8815  -13.8802   25.6540 C   0  0  0  0  0  0  0  0  0  0  0  0
    8.0829  -14.2650   24.7474 C   0  0  2  0  0  0  0  0  0  0  0  0
    7.5843  -14.6993   23.4990 N   0  0  0  0  0  0  0  0  0  0  0  0
    8.7380  -15.2677   25.6043 C   0  0  0  0  0  0  0  0  0  0  0  0
    8.0690  -16.2190   26.0624 O   0  0  0  0  0  0  0  0  0  0  0  0
   10.0898  -15.2352   25.9532 N   0  0  0  0  0  0  0  0  0  0  0  0
   10.8189  -16.4161   26.4766 C   0  0  1  0  0  0  0  0  0  0  0  0
   12.1600  -16.4022   25.8182 C   0  0  0  0  0  0  0  0  0  0  0  0
   13.0779  -17.4271   26.4084 C   0  0  0  0  0  0  0  0  0  0  0  0
   14.4342  -17.4583   25.8338 C   0  0  0  0  0  0  0  0  0  0  0  0
   15.1186  -16.4306   25.6331 O   0  0  0  0  0  0  0  0  0  0  0  0
   10.8508  -16.3773   27.9466 C   0  0  0  0  0  0  0  0  0  0  0  0
   11.2793  -17.3758   28.5734 O   0  0  0  0  0  0  0  0  0  0  0  0
   15.0323  -18.6862   25.4765 O   0  0  0  0  0  0  0  0  0  0  0  0
   10.4307  -15.2877   28.6766 O   0  0  0  0  0  0  0  0  0  0  0  0
  2  1  1  6
  3  2  1  0
  4  5  2  0
  4  3  1  0
  6  5  1  0
  7  8  2  0
  7  6  1  0
  8  4  1  0
  9  2  1  0
 10  9  2  0
 12 11  1  0
 13 15  1  0
 13 12  1  0
 13 14  1  1
 15 16  1  6
 16  9  1  0
 17 15  1  0
 18 17  2  0
 19 17  1  0
 20 25  1  0
 20 19  1  0
 20 21  1  6
 22 21  1  0
 23 27  1  0
 23 22  1  0
 24 23  2  0
 25 28  1  0
 26 25  2  0
M  END
$$$$
