HIE.pdb
     RDKit          3D

 28 28  0  0  1  0  0  0  0  0999 V2000
    9.9434  -13.5572   20.5933 N   0  0  0  0  0  0  0  0  0  0  0  0
    8.7331  -14.0192   21.1833 C   0  0  1  0  0  0  0  0  0  0  0  0
    8.1850  -15.1862   20.4497 C   0  0  0  0  0  0  0  0  0  0  0  0
    7.7217  -14.7117   19.1206 C   0  0  0  0  0  0  0  0  0  0  0  0
    7.8190  -13.4584   18.5521 C   0  0  0  0  0  0  0  0  0  0  0  0
    7.2555  -13.4928   17.3204 N   0  0  0  0  0  0  0  0  0  0  0  0
    6.8166  -14.7405   17.1262 C   0  0  0  0  0  0  0  0  0  0  0  0
    7.0948  -15.4732   18.2040 N   0  0  0  0  0  0  0  0  0  0  0  0
    8.9985  -14.3192   22.6493 C   0  0  0  0  0  0  0  0  0  0  0  0
   10.1052  -14.8010   22.9585 O   0  0  0  0  0  0  0  0  0  0  0  0
    5.6457  -11.5300   26.1635 C   0  0  0  0  0  0  0  0  0  0  0  0
    6.7775  -12.1974   25.4675 C   0  0  0  0  0  0  0  0  0  0  0  0
    7.0268  -13.6213   25.8150 C   0  0  2  0  0  0  0  0  0  0  0  0
    7.4351  -13.7880   27.2814 C   0  0  0  0  0  0  0  0  0  0  0  0
    8.0547  -14.3347   25.0157 C   0  0  2  0  0  0  0  0  0  0  0  0
    8.0391  -14.0657   23.6289 N   0  0  0  0  0  0  0  0  0  0  0  0
    8.3698  -15.7098   25.4384 C   0  0  0  0  0  0  0  0  0  0  0  0
    7.4722  -16.5797   25.4260 O   0  0  0  0  0  0  0  0  0  0  0  0
    9.6326  -16.1274   25.8638 N   0  0  0  0  0  0  0  0  0  0  0  0
    9.9133  -17.5064   26.3326 C   0  0  1  0  0  0  0  0  0  0  0  0
   11.2591  -17.8639   25.7911 C   0  0  0  0  0  0  0  0  0  0  0  0
   11.7224  -19.1962   26.2927 C   0  0  0  0  0  0  0  0  0  0  0  0
   13.0574  -19.6109   25.8274 C   0  0  0  0  0  0  0  0  0  0  0  0
   14.1117  -19.0218   26.1532 O   0  0  0  0  0  0  0  0  0  0  0  0
    9.7980  -17.5734   27.7974 C   0  0  0  0  0  0  0  0  0  0  0  0
    9.9559  -16.5262   28.4697 O   0  0  0  0  0  0  0  0  0  0  0  0
   13.2031  -20.7228   24.9696 O   0  0  0  0  0  0  0  0  0  0  0  0
    9.5209  -18.7402   28.4745 O   0  0  0  0  0  0  0  0  0  0  0  0
  2  1  1  6
  3  2  1  0
  4  5  2  0
  4  3  1  0
  6  5  1  0
  7  8  2  0
  7  6  1  0
  8  4  1  0
  9  2  1  0
 10  9  2  0
 12 11  1  0
 13 15  1  0
 13 12  1  0
 13 14  1  1
 15 16  1  6
 16  9  1  0
 17 15  1  0
 18 17  2  0
 19 17  1  0
 20 25  1  0
 20 19  1  0
 20 21  1  1
 22 21  1  0
 23 27  1  0
 23 22  1  0
 24 23  2  0
 25 28  1  0
 26 25  2  0
M  END
$$$$
