CYN.pdb
     RDKit          3D

 27 27  0  0  1  0  0  0  0  0999 V2000
    7.7635  -21.8182   20.1056 N   0  0  0  0  0  0  0  0  0  0  0  0
    8.0835  -20.9753   21.2739 C   0  0  1  0  0  0  0  0  0  0  0  0
    9.2734  -21.5451   21.9935 C   0  0  0  0  0  0  0  0  0  0  0  0
    9.5145  -20.7311   23.5759 S   0  0  0  0  0  0  0  0  0  0  0  0
    8.3278  -19.6108   20.7439 C   0  0  0  0  0  0  0  0  0  0  0  0
    8.8884  -19.5109   19.5890 O   0  0  0  0  0  0  0  0  0  0  0  0
    8.0461  -11.0562   18.7300 O   0  0  0  0  0  0  0  0  0  0  0  0
    7.8644  -12.2970   19.3524 C   0  0  0  0  0  0  0  0  0  0  0  0
    8.3004  -12.5266   20.6403 C   0  0  0  0  0  0  0  0  0  0  0  0
    8.1170  -13.7551   21.2488 C   0  0  0  0  0  0  0  0  0  0  0  0
    7.4950  -14.8066   20.6081 C   0  0  0  0  0  0  0  0  0  0  0  0
    7.2741  -16.1338   21.2116 C   0  0  0  0  0  0  0  0  0  0  0  0
    8.2856  -17.1513   20.8322 C   0  0  2  0  0  0  0  0  0  0  0  0
    7.9723  -18.4245   21.4433 N   0  0  0  0  0  0  0  0  0  0  0  0
    9.6788  -16.7938   21.2537 C   0  0  0  0  0  0  0  0  0  0  0  0
   10.2993  -15.7909   20.8177 O   0  0  0  0  0  0  0  0  0  0  0  0
    7.0605  -14.5663   19.3141 C   0  0  0  0  0  0  0  0  0  0  0  0
    7.2415  -13.3399   18.7014 C   0  0  0  0  0  0  0  0  0  0  0  0
   14.1333  -16.5751   23.7541 N   0  0  0  0  0  0  0  0  0  0  0  0
   13.0359  -16.6636   24.6652 C   0  0  0  0  0  0  0  0  0  0  0  0
   13.2940  -16.4938   25.8905 O   0  0  0  0  0  0  0  0  0  0  0  0
   11.6902  -16.9403   24.1552 C   0  0  0  0  0  0  0  0  0  0  0  0
   11.7118  -17.2171   22.6501 C   0  0  2  0  0  0  0  0  0  0  0  0
   10.3904  -17.6015   22.2013 N   0  0  0  0  0  0  0  0  0  0  0  0
   12.6801  -18.2979   22.3693 C   0  0  0  0  0  0  0  0  0  0  0  0
   12.2517  -19.4703   22.2378 O   0  0  0  0  0  0  0  0  0  0  0  0
   14.0215  -18.0510   22.2499 O   0  0  0  0  0  0  0  0  0  0  0  0
  2  1  1  6
  3  2  1  0
  4  3  1  0
  5  2  1  0
  5  6  2  0
  7  8  1  0
  8 18  2  0
  9  8  1  0
  9 10  2  0
 10 11  1  0
 11 17  2  0
 11 12  1  0
 13 12  1  1
 13 14  1  0
 14  5  1  0
 15 13  1  0
 16 15  2  0
 18 17  1  0
 20 21  2  0
 20 19  1  0
 23 22  1  1
 22 20  1  0
 23 24  1  0
 24 15  1  0
 25 23  1  0
 26 25  2  0
 27 25  1  0
M  END
$$$$
