CYN.pdb
     RDKit          3D

 27 27  0  0  1  0  0  0  0  0999 V2000
    6.5226  -19.3219   25.6736 N   0  0  0  0  0  0  0  0  0  0  0  0
    7.4374  -18.1781   25.8536 C   0  0  1  0  0  0  0  0  0  0  0  0
    8.7250  -18.6558   26.4637 C   0  0  0  0  0  0  0  0  0  0  0  0
    8.7982  -18.2422   28.2096 S   0  0  0  0  0  0  0  0  0  0  0  0
    7.6224  -17.5816   24.5072 C   0  0  0  0  0  0  0  0  0  0  0  0
    7.4801  -18.3549   23.4875 O   0  0  0  0  0  0  0  0  0  0  0  0
    6.7035  -11.6117   27.6923 O   0  0  0  0  0  0  0  0  0  0  0  0
    6.9247  -12.2962   26.4913 C   0  0  0  0  0  0  0  0  0  0  0  0
    6.1053  -13.3306   26.0913 C   0  0  0  0  0  0  0  0  0  0  0  0
    6.3300  -14.0021   24.9032 C   0  0  0  0  0  0  0  0  0  0  0  0
    7.3743  -13.6777   24.0622 C   0  0  0  0  0  0  0  0  0  0  0  0
    7.6563  -14.3605   22.7859 C   0  0  0  0  0  0  0  0  0  0  0  0
    8.1335  -15.7577   22.9353 C   0  0  2  0  0  0  0  0  0  0  0  0
    7.9421  -16.2121   24.2953 N   0  0  0  0  0  0  0  0  0  0  0  0
    9.5880  -15.9288   22.6167 C   0  0  0  0  0  0  0  0  0  0  0  0
   10.0799  -15.7060   21.4811 O   0  0  0  0  0  0  0  0  0  0  0  0
    8.1923  -12.6368   24.4728 C   0  0  0  0  0  0  0  0  0  0  0  0
    7.9719  -11.9626   25.6598 C   0  0  0  0  0  0  0  0  0  0  0  0
   14.7479  -15.1853   22.5264 N   0  0  0  0  0  0  0  0  0  0  0  0
   14.1533  -15.5418   23.7760 C   0  0  0  0  0  0  0  0  0  0  0  0
   14.9241  -15.9977   24.6675 O   0  0  0  0  0  0  0  0  0  0  0  0
   12.7109  -15.3686   23.9685 C   0  0  0  0  0  0  0  0  0  0  0  0
   11.9219  -16.5042   23.3127 C   0  0  2  0  0  0  0  0  0  0  0  0
   10.5140  -16.3670   23.6202 N   0  0  0  0  0  0  0  0  0  0  0  0
   12.4291  -17.7993   23.8125 C   0  0  0  0  0  0  0  0  0  0  0  0
   13.5584  -18.1914   23.4296 O   0  0  0  0  0  0  0  0  0  0  0  0
   11.7018  -18.5737   24.6762 O   0  0  0  0  0  0  0  0  0  0  0  0
  2  1  1  6
  3  2  1  0
  4  3  1  0
  5  2  1  0
  5  6  2  0
  7  8  1  0
  8 18  2  0
  9  8  1  0
  9 10  2  0
 10 11  1  0
 11 17  2  0
 11 12  1  0
 13 12  1  1
 13 14  1  0
 14  5  1  0
 15 13  1  0
 16 15  2  0
 18 17  1  0
 20 21  2  0
 20 19  1  0
 23 22  1  1
 22 20  1  0
 23 24  1  0
 24 15  1  0
 25 23  1  0
 26 25  2  0
 27 25  1  0
M  END
$$$$
