CYN.pdb
     RDKit          3D

 27 27  0  0  1  0  0  0  0  0999 V2000
    8.1914  -12.7404   17.8322 N   0  0  0  0  0  0  0  0  0  0  0  0
    7.8856  -13.9935   18.5491 C   0  0  1  0  0  0  0  0  0  0  0  0
    8.7376  -15.1049   18.0038 C   0  0  0  0  0  0  0  0  0  0  0  0
    8.5595  -16.5925   18.9937 S   0  0  0  0  0  0  0  0  0  0  0  0
    8.1416  -13.7206   19.9852 C   0  0  0  0  0  0  0  0  0  0  0  0
    9.1136  -12.9282   20.2777 O   0  0  0  0  0  0  0  0  0  0  0  0
    7.4871  -12.5563   28.7007 O   0  0  0  0  0  0  0  0  0  0  0  0
    7.2417  -12.8760   27.3599 C   0  0  0  0  0  0  0  0  0  0  0  0
    7.0619  -14.1811   26.9528 C   0  0  0  0  0  0  0  0  0  0  0  0
    6.8196  -14.4892   25.6263 C   0  0  0  0  0  0  0  0  0  0  0  0
    6.7454  -13.5189   24.6486 C   0  0  0  0  0  0  0  0  0  0  0  0
    6.4886  -13.7940   23.2228 C   0  0  0  0  0  0  0  0  0  0  0  0
    7.7152  -13.9369   22.3997 C   0  0  2  0  0  0  0  0  0  0  0  0
    7.3701  -14.2844   21.0386 N   0  0  0  0  0  0  0  0  0  0  0  0
    8.6489  -14.9975   22.8995 C   0  0  0  0  0  0  0  0  0  0  0  0
    9.1311  -15.0057   24.0608 O   0  0  0  0  0  0  0  0  0  0  0  0
    6.9275  -12.2103   25.0675 C   0  0  0  0  0  0  0  0  0  0  0  0
    7.1701  -11.8972   26.3924 C   0  0  0  0  0  0  0  0  0  0  0  0
   11.2777  -19.3382   23.4241 N   0  0  0  0  0  0  0  0  0  0  0  0
   10.6433  -19.4608   22.1494 C   0  0  0  0  0  0  0  0  0  0  0  0
   10.7990  -20.5540   21.5352 O   0  0  0  0  0  0  0  0  0  0  0  0
    9.8579  -18.3427   21.6197 C   0  0  0  0  0  0  0  0  0  0  0  0
    9.9033  -17.1361   22.5602 C   0  0  2  0  0  0  0  0  0  0  0  0
    9.0478  -16.0843   22.0531 N   0  0  0  0  0  0  0  0  0  0  0  0
   11.2966  -16.6543   22.6646 C   0  0  0  0  0  0  0  0  0  0  0  0
   11.8308  -16.1347   21.6546 O   0  0  0  0  0  0  0  0  0  0  0  0
   12.0110  -16.7605   23.8278 O   0  0  0  0  0  0  0  0  0  0  0  0
  2  1  1  6
  3  2  1  0
  4  3  1  0
  5  2  1  0
  5  6  2  0
  7  8  1  0
  8 18  2  0
  9  8  1  0
  9 10  2  0
 10 11  1  0
 11 17  2  0
 11 12  1  0
 13 12  1  1
 13 14  1  0
 14  5  1  0
 15 13  1  0
 16 15  2  0
 18 17  1  0
 20 21  2  0
 20 19  1  0
 23 22  1  6
 22 20  1  0
 23 24  1  0
 24 15  1  0
 25 23  1  0
 26 25  2  0
 27 25  1  0
M  END
$$$$
