CYN.pdb
     RDKit          3D

 27 27  0  0  1  0  0  0  0  0999 V2000
    9.1415  -19.0602   18.4504 N   0  0  0  0  0  0  0  0  0  0  0  0
    8.8448  -19.0024   19.8948 C   0  0  1  0  0  0  0  0  0  0  0  0
    9.3944  -20.2275   20.5697 C   0  0  0  0  0  0  0  0  0  0  0  0
    8.3523  -20.7216   21.9462 S   0  0  0  0  0  0  0  0  0  0  0  0
    9.4569  -17.7452   20.3921 C   0  0  0  0  0  0  0  0  0  0  0  0
   10.6465  -17.4610   19.9894 O   0  0  0  0  0  0  0  0  0  0  0  0
    6.8144  -13.0708   16.5828 O   0  0  0  0  0  0  0  0  0  0  0  0
    7.2591  -13.4102   17.8662 C   0  0  0  0  0  0  0  0  0  0  0  0
    6.8108  -12.7386   18.9840 C   0  0  0  0  0  0  0  0  0  0  0  0
    7.2545  -13.0797   20.2488 C   0  0  0  0  0  0  0  0  0  0  0  0
    8.1598  -14.0991   20.4596 C   0  0  0  0  0  0  0  0  0  0  0  0
    8.6630  -14.5025   21.7857 C   0  0  0  0  0  0  0  0  0  0  0  0
    9.5325  -15.7050   21.7670 C   0  0  2  0  0  0  0  0  0  0  0  0
    8.7964  -16.8506   21.2787 N   0  0  0  0  0  0  0  0  0  0  0  0
   10.0711  -16.0729   23.1165 C   0  0  0  0  0  0  0  0  0  0  0  0
    9.4149  -16.7199   23.9720 O   0  0  0  0  0  0  0  0  0  0  0  0
    8.6047  -14.7681   19.3301 C   0  0  0  0  0  0  0  0  0  0  0  0
    8.1641  -14.4306   18.0635 C   0  0  0  0  0  0  0  0  0  0  0  0
   13.3959  -18.2963   26.0927 N   0  0  0  0  0  0  0  0  0  0  0  0
   12.3871  -18.8498   25.2452 C   0  0  0  0  0  0  0  0  0  0  0  0
   12.1688  -20.0900   25.3496 O   0  0  0  0  0  0  0  0  0  0  0  0
   11.6648  -17.9793   24.3134 C   0  0  0  0  0  0  0  0  0  0  0  0
   12.1745  -16.5382   24.3898 C   0  0  2  0  0  0  0  0  0  0  0  0
   11.3979  -15.6939   23.5070 N   0  0  0  0  0  0  0  0  0  0  0  0
   13.6003  -16.5065   24.0018 C   0  0  0  0  0  0  0  0  0  0  0  0
   14.4300  -17.1302   24.7076 O   0  0  0  0  0  0  0  0  0  0  0  0
   14.0325  -15.8189   22.8995 O   0  0  0  0  0  0  0  0  0  0  0  0
  2  1  1  6
  3  2  1  0
  4  3  1  0
  5  2  1  0
  5  6  2  0
  7  8  1  0
  8 18  2  0
  9  8  1  0
  9 10  2  0
 10 11  1  0
 11 17  2  0
 11 12  1  0
 13 12  1  1
 13 14  1  0
 14  5  1  0
 15 13  1  0
 16 15  2  0
 18 17  1  0
 20 21  2  0
 20 19  1  0
 23 22  1  6
 22 20  1  0
 23 24  1  0
 24 15  1  0
 25 23  1  0
 26 25  2  0
 27 25  1  0
M  END
$$$$
