CYN.pdb
     RDKit          3D

 27 27  0  0  1  0  0  0  0  0999 V2000
    8.1135  -13.1121   19.6451 N   0  0  0  0  0  0  0  0  0  0  0  0
    7.3952  -14.0711   20.5065 C   0  0  1  0  0  0  0  0  0  0  0  0
    7.2451  -15.3804   19.7841 C   0  0  0  0  0  0  0  0  0  0  0  0
    6.2884  -16.5443   20.7611 S   0  0  0  0  0  0  0  0  0  0  0  0
    8.1945  -14.1867   21.7517 C   0  0  0  0  0  0  0  0  0  0  0  0
    9.4753  -14.1044   21.6481 O   0  0  0  0  0  0  0  0  0  0  0  0
   10.8232  -15.4502   30.1214 O   0  0  0  0  0  0  0  0  0  0  0  0
   10.0889  -15.1386   28.9709 C   0  0  0  0  0  0  0  0  0  0  0  0
   10.1381  -13.8823   28.4045 C   0  0  0  0  0  0  0  0  0  0  0  0
    9.4100  -13.5819   27.2675 C   0  0  0  0  0  0  0  0  0  0  0  0
    8.6036  -14.5118   26.6445 C   0  0  0  0  0  0  0  0  0  0  0  0
    7.8092  -14.2430   25.4316 C   0  0  0  0  0  0  0  0  0  0  0  0
    8.5046  -14.5728   24.1627 C   0  0  2  0  0  0  0  0  0  0  0  0
    7.6170  -14.3781   23.0372 N   0  0  0  0  0  0  0  0  0  0  0  0
    8.9891  -15.9897   24.0987 C   0  0  0  0  0  0  0  0  0  0  0  0
    8.4586  -16.8720   23.3768 O   0  0  0  0  0  0  0  0  0  0  0  0
    8.5607  -15.7713   27.2213 C   0  0  0  0  0  0  0  0  0  0  0  0
    9.2866  -16.0765   28.3579 C   0  0  0  0  0  0  0  0  0  0  0  0
    9.7685  -18.7760   22.2886 N   0  0  0  0  0  0  0  0  0  0  0  0
   11.0063  -18.0864   22.1026 C   0  0  0  0  0  0  0  0  0  0  0  0
   11.5096  -18.1160   20.9439 O   0  0  0  0  0  0  0  0  0  0  0  0
   11.6259  -17.3903   23.2336 C   0  0  0  0  0  0  0  0  0  0  0  0
   10.8393  -17.6196   24.5263 C   0  0  2  0  0  0  0  0  0  0  0  0
   10.1127  -16.4186   24.8799 N   0  0  0  0  0  0  0  0  0  0  0  0
   11.7784  -17.9844   25.6076 C   0  0  0  0  0  0  0  0  0  0  0  0
   12.5509  -17.1028   26.0564 O   0  0  0  0  0  0  0  0  0  0  0  0
   11.8238  -19.2506   26.1265 O   0  0  0  0  0  0  0  0  0  0  0  0
  2  1  1  6
  3  2  1  0
  4  3  1  0
  5  2  1  0
  5  6  2  0
  7  8  1  0
  8 18  2  0
  9  8  1  0
  9 10  2  0
 10 11  1  0
 11 17  2  0
 11 12  1  0
 13 12  1  1
 13 14  1  0
 14  5  1  0
 15 13  1  0
 16 15  2  0
 18 17  1  0
 20 21  2  0
 20 19  1  0
 23 22  1  6
 22 20  1  0
 23 24  1  0
 24 15  1  0
 25 23  1  0
 26 25  2  0
 27 25  1  0
M  END
$$$$
