CYN.pdb
     RDKit          3D

 27 27  0  0  1  0  0  0  0  0999 V2000
   12.0418  -15.8835   14.0989 N   0  0  0  0  0  0  0  0  0  0  0  0
   11.4937  -15.4445   15.3968 C   0  0  1  0  0  0  0  0  0  0  0  0
   10.1339  -16.0516   15.5989 C   0  0  0  0  0  0  0  0  0  0  0  0
    8.9688  -15.4313   14.3814 S   0  0  0  0  0  0  0  0  0  0  0  0
   12.4753  -15.8709   16.4250 C   0  0  0  0  0  0  0  0  0  0  0  0
   13.2416  -16.8662   16.1416 O   0  0  0  0  0  0  0  0  0  0  0  0
   18.8325  -12.8198   15.8253 O   0  0  0  0  0  0  0  0  0  0  0  0
   17.7410  -13.2113   16.6098 C   0  0  0  0  0  0  0  0  0  0  0  0
   16.4645  -12.7648   16.3405 C   0  0  0  0  0  0  0  0  0  0  0  0
   15.3910  -13.1561   17.1200 C   0  0  0  0  0  0  0  0  0  0  0  0
   15.5365  -14.0049   18.1976 C   0  0  0  0  0  0  0  0  0  0  0  0
   14.4260  -14.4527   19.0584 C   0  0  0  0  0  0  0  0  0  0  0  0
   13.7010  -15.6425   18.5473 C   0  0  2  0  0  0  0  0  0  0  0  0
   12.6084  -15.2362   17.6907 N   0  0  0  0  0  0  0  0  0  0  0  0
   13.1143  -16.4950   19.6314 C   0  0  0  0  0  0  0  0  0  0  0  0
   12.3835  -16.0434   20.5496 O   0  0  0  0  0  0  0  0  0  0  0  0
   16.8231  -14.4482   18.4604 C   0  0  0  0  0  0  0  0  0  0  0  0
   17.8995  -14.0598   17.6841 C   0  0  0  0  0  0  0  0  0  0  0  0
   10.5125  -21.6373   20.6071 N   0  0  0  0  0  0  0  0  0  0  0  0
   11.7498  -21.0183   20.9652 C   0  0  0  0  0  0  0  0  0  0  0  0
   12.2108  -21.2814   22.1119 O   0  0  0  0  0  0  0  0  0  0  0  0
   12.4171  -20.1267   20.0127 C   0  0  0  0  0  0  0  0  0  0  0  0
   12.6733  -18.7484   20.6266 C   0  0  2  0  0  0  0  0  0  0  0  0
   13.3656  -17.9062   19.6742 N   0  0  0  0  0  0  0  0  0  0  0  0
   13.4845  -18.9060   21.8519 C   0  0  0  0  0  0  0  0  0  0  0  0
   14.7354  -18.9141   21.7484 O   0  0  0  0  0  0  0  0  0  0  0  0
   12.9075  -19.0414   23.0862 O   0  0  0  0  0  0  0  0  0  0  0  0
  2  1  1  6
  3  2  1  0
  4  3  1  0
  5  2  1  0
  5  6  2  0
  7  8  1  0
  8 18  2  0
  9  8  1  0
  9 10  2  0
 10 11  1  0
 11 17  2  0
 11 12  1  0
 13 12  1  1
 13 14  1  0
 14  5  1  0
 15 13  1  0
 16 15  2  0
 18 17  1  0
 20 21  2  0
 20 19  1  0
 23 22  1  6
 22 20  1  0
 23 24  1  0
 24 15  1  0
 25 23  1  0
 26 25  2  0
 27 25  1  0
M  END
$$$$
