CYN.pdb
     RDKit          3D

 27 27  0  0  1  0  0  0  0  0999 V2000
    7.8607  -14.2888   19.6164 N   0  0  0  0  0  0  0  0  0  0  0  0
    7.6267  -15.4078   20.5495 C   0  0  1  0  0  0  0  0  0  0  0  0
    8.0697  -16.6945   19.9120 C   0  0  0  0  0  0  0  0  0  0  0  0
    6.6897  -17.5225   19.1154 S   0  0  0  0  0  0  0  0  0  0  0  0
    8.3857  -15.0827   21.7827 C   0  0  0  0  0  0  0  0  0  0  0  0
    9.3996  -14.2971   21.6693 O   0  0  0  0  0  0  0  0  0  0  0  0
   10.9642  -14.4082   30.2534 O   0  0  0  0  0  0  0  0  0  0  0  0
   10.2379  -14.5730   29.0679 C   0  0  0  0  0  0  0  0  0  0  0  0
    9.8499  -13.4913   28.3057 C   0  0  0  0  0  0  0  0  0  0  0  0
    9.1327  -13.6620   27.1354 C   0  0  0  0  0  0  0  0  0  0  0  0
    8.7700  -14.9095   26.6714 C   0  0  0  0  0  0  0  0  0  0  0  0
    8.0078  -15.1455   25.4313 C   0  0  0  0  0  0  0  0  0  0  0  0
    8.8373  -15.1644   24.2009 C   0  0  2  0  0  0  0  0  0  0  0  0
    8.0462  -15.5901   23.0672 N   0  0  0  0  0  0  0  0  0  0  0  0
   10.0125  -16.0905   24.2878 C   0  0  0  0  0  0  0  0  0  0  0  0
   10.9255  -15.9737   25.1445 O   0  0  0  0  0  0  0  0  0  0  0  0
    9.1644  -15.9903   27.4443 C   0  0  0  0  0  0  0  0  0  0  0  0
    9.8814  -15.8248   28.6151 C   0  0  0  0  0  0  0  0  0  0  0  0
   10.8006  -18.7962   20.9210 N   0  0  0  0  0  0  0  0  0  0  0  0
   12.0662  -18.2077   21.2280 C   0  0  0  0  0  0  0  0  0  0  0  0
   12.8656  -18.0342   20.2648 O   0  0  0  0  0  0  0  0  0  0  0  0
   12.3779  -17.8384   22.6115 C   0  0  0  0  0  0  0  0  0  0  0  0
   11.2116  -18.1591   23.5490 C   0  0  2  0  0  0  0  0  0  0  0  0
   10.1555  -17.1849   23.3722 N   0  0  0  0  0  0  0  0  0  0  0  0
   11.6930  -18.1412   24.9463 C   0  0  0  0  0  0  0  0  0  0  0  0
   11.6850  -19.2132   25.5992 O   0  0  0  0  0  0  0  0  0  0  0  0
   12.1439  -16.9922   25.5389 O   0  0  0  0  0  0  0  0  0  0  0  0
  2  1  1  6
  3  2  1  0
  4  3  1  0
  5  2  1  0
  5  6  2  0
  7  8  1  0
  8 18  2  0
  9  8  1  0
  9 10  2  0
 10 11  1  0
 11 17  2  0
 11 12  1  0
 13 12  1  1
 13 14  1  0
 14  5  1  0
 15 13  1  0
 16 15  2  0
 18 17  1  0
 20 21  2  0
 20 19  1  0
 23 22  1  6
 22 20  1  0
 23 24  1  0
 24 15  1  0
 25 23  1  0
 26 25  2  0
 27 25  1  0
M  END
$$$$
