CYN.pdb
     RDKit          3D

 27 27  0  0  1  0  0  0  0  0999 V2000
    8.2928  -12.7891   17.8178 N   0  0  0  0  0  0  0  0  0  0  0  0
    8.0590  -14.0699   18.5125 C   0  0  1  0  0  0  0  0  0  0  0  0
    8.9504  -15.1287   17.9272 C   0  0  0  0  0  0  0  0  0  0  0  0
    8.6862  -16.7084   18.7393 S   0  0  0  0  0  0  0  0  0  0  0  0
    8.3302  -13.8158   19.9493 C   0  0  0  0  0  0  0  0  0  0  0  0
    9.1443  -12.8624   20.2431 O   0  0  0  0  0  0  0  0  0  0  0  0
    7.1392  -12.7288   28.6185 O   0  0  0  0  0  0  0  0  0  0  0  0
    7.0285  -13.0028   27.2501 C   0  0  0  0  0  0  0  0  0  0  0  0
    7.2831  -12.0364   26.2999 C   0  0  0  0  0  0  0  0  0  0  0  0
    7.1718  -12.3147   24.9496 C   0  0  0  0  0  0  0  0  0  0  0  0
    6.8043  -13.5602   24.4842 C   0  0  0  0  0  0  0  0  0  0  0  0
    6.6725  -13.9083   23.0573 C   0  0  0  0  0  0  0  0  0  0  0  0
    7.9650  -14.1311   22.3630 C   0  0  2  0  0  0  0  0  0  0  0  0
    7.7369  -14.5655   21.0022 N   0  0  0  0  0  0  0  0  0  0  0  0
    8.8223  -15.1719   23.0174 C   0  0  0  0  0  0  0  0  0  0  0  0
    9.0728  -15.1893   24.2495 O   0  0  0  0  0  0  0  0  0  0  0  0
    6.5504  -14.5247   25.4466 C   0  0  0  0  0  0  0  0  0  0  0  0
    6.6601  -14.2514   26.7977 C   0  0  0  0  0  0  0  0  0  0  0  0
    8.5245  -19.5937   21.6939 N   0  0  0  0  0  0  0  0  0  0  0  0
    9.4927  -18.7317   21.0927 C   0  0  0  0  0  0  0  0  0  0  0  0
    9.2875  -18.3879   19.8942 O   0  0  0  0  0  0  0  0  0  0  0  0
   10.6545  -18.2920   21.8703 C   0  0  0  0  0  0  0  0  0  0  0  0
   10.2702  -17.2084   22.8803 C   0  0  2  0  0  0  0  0  0  0  0  0
    9.4143  -16.2272   22.2477 N   0  0  0  0  0  0  0  0  0  0  0  0
   11.4979  -16.5616   23.3891 C   0  0  0  0  0  0  0  0  0  0  0  0
   11.9707  -16.9472   24.4860 O   0  0  0  0  0  0  0  0  0  0  0  0
   12.1256  -15.5610   22.6968 O   0  0  0  0  0  0  0  0  0  0  0  0
  2  1  1  6
  3  2  1  0
  4  3  1  0
  5  2  1  0
  5  6  2  0
  7  8  1  0
  8 18  2  0
  9  8  1  0
  9 10  2  0
 10 11  1  0
 11 17  2  0
 11 12  1  0
 13 12  1  1
 13 14  1  0
 14  5  1  0
 15 13  1  0
 16 15  2  0
 18 17  1  0
 20 21  2  0
 20 19  1  0
 23 22  1  6
 22 20  1  0
 23 24  1  0
 24 15  1  0
 25 23  1  0
 26 25  2  0
 27 25  1  0
M  END
$$$$
