CYN.pdb
     RDKit          3D

 27 27  0  0  1  0  0  0  0  0999 V2000
   11.8069  -17.8541   18.8231 N   0  0  0  0  0  0  0  0  0  0  0  0
   10.4396  -17.7847   19.3737 C   0  0  1  0  0  0  0  0  0  0  0  0
   10.0926  -19.0947   20.0231 C   0  0  0  0  0  0  0  0  0  0  0  0
   11.3532  -19.5755   21.2081 S   0  0  0  0  0  0  0  0  0  0  0  0
   10.4360  -16.6480   20.3279 C   0  0  0  0  0  0  0  0  0  0  0  0
   11.4411  -15.8436   20.3012 O   0  0  0  0  0  0  0  0  0  0  0  0
    6.9047  -12.3354   17.0209 O   0  0  0  0  0  0  0  0  0  0  0  0
    7.2242  -12.8733   18.2733 C   0  0  0  0  0  0  0  0  0  0  0  0
    6.6459  -14.0414   18.7233 C   0  0  0  0  0  0  0  0  0  0  0  0
    6.9667  -14.5670   19.9619 C   0  0  0  0  0  0  0  0  0  0  0  0
    7.8726  -13.9584   20.8058 C   0  0  0  0  0  0  0  0  0  0  0  0
    8.2497  -14.4774   22.1335 C   0  0  0  0  0  0  0  0  0  0  0  0
    9.5029  -15.2723   22.1432 C   0  0  2  0  0  0  0  0  0  0  0  0
    9.3850  -16.4084   21.2556 N   0  0  0  0  0  0  0  0  0  0  0  0
    9.8589  -15.8086   23.4967 C   0  0  0  0  0  0  0  0  0  0  0  0
    9.0301  -15.9294   24.4346 O   0  0  0  0  0  0  0  0  0  0  0  0
    8.4483  -12.7850   20.3448 C   0  0  0  0  0  0  0  0  0  0  0  0
    8.1308  -12.2556   19.1074 C   0  0  0  0  0  0  0  0  0  0  0  0
   11.7865  -19.4364   26.3985 N   0  0  0  0  0  0  0  0  0  0  0  0
   10.9561  -19.6520   25.2556 C   0  0  0  0  0  0  0  0  0  0  0  0
   10.4600  -20.8060   25.1178 O   0  0  0  0  0  0  0  0  0  0  0  0
   10.7192  -18.5544   24.3138 C   0  0  0  0  0  0  0  0  0  0  0  0
   11.4484  -17.2811   24.7488 C   0  0  2  0  0  0  0  0  0  0  0  0
   11.1996  -16.2212   23.7948 N   0  0  0  0  0  0  0  0  0  0  0  0
   12.8975  -17.5578   24.8371 C   0  0  0  0  0  0  0  0  0  0  0  0
   13.3051  -18.3564   25.7156 O   0  0  0  0  0  0  0  0  0  0  0  0
   13.7971  -16.9686   23.9896 O   0  0  0  0  0  0  0  0  0  0  0  0
  2  1  1  1
  3  2  1  0
  4  3  1  0
  5  2  1  0
  5  6  2  0
  7  8  1  0
  8 18  2  0
  9  8  1  0
  9 10  2  0
 10 11  1  0
 11 17  2  0
 11 12  1  0
 13 12  1  1
 13 14  1  0
 14  5  1  0
 15 13  1  0
 16 15  2  0
 18 17  1  0
 20 21  2  0
 20 19  1  0
 23 22  1  6
 22 20  1  0
 23 24  1  0
 24 15  1  0
 25 23  1  0
 26 25  2  0
 27 25  1  0
M  END
$$$$
