FHD.pdb
     RDKit          3D

 30 31  0  0  1  0  0  0  0  0999 V2000
   26.6282  -22.2076  -11.9995 N   0  0  0  0  0  0  0  0  0  0  0  0
   26.0778  -20.9979  -11.3867 C   0  0  1  0  0  0  0  0  0  0  0  0
   27.2449  -20.0665  -11.1657 C   0  0  0  0  0  0  0  0  0  0  0  0
   28.1307  -20.6932  -10.1499 C   0  0  0  0  0  0  0  0  0  0  0  0
   29.3892  -21.1637  -10.4546 C   0  0  0  0  0  0  0  0  0  0  0  0
   30.1905  -21.7449   -9.4781 C   0  0  0  0  0  0  0  0  0  0  0  0
   29.7521  -21.8690   -8.1739 C   0  0  0  0  0  0  0  0  0  0  0  0
   28.4973  -21.4027   -7.8578 C   0  0  0  0  0  0  0  0  0  0  0  0
   27.7082  -20.8276   -8.8310 C   0  0  0  0  0  0  0  0  0  0  0  0
   25.0842  -20.4480  -12.3313 C   0  0  0  0  0  0  0  0  0  0  0  0
   24.5032  -19.3292  -12.1414 O   0  0  0  0  0  0  0  0  0  0  0  0
   24.6809  -21.0951  -13.5242 N   0  0  0  0  0  0  0  0  0  0  0  0
   23.8080  -20.5486  -14.5097 C   0  0  1  0  0  0  0  0  0  0  0  0
   24.3169  -20.5178  -15.8995 C   0  0  0  0  0  0  0  0  0  0  0  0
   25.5357  -19.6529  -15.9222 C   0  0  0  0  0  0  0  0  0  0  0  0
   25.5879  -18.2642  -15.9246 C   0  0  0  0  0  0  0  0  0  0  0  0
   26.8432  -17.8369  -15.9458 N   0  0  0  0  0  0  0  0  0  0  0  0
   27.6226  -18.9313  -15.9577 C   0  0  0  0  0  0  0  0  0  0  0  0
   26.8272  -20.0361  -15.9434 N   0  0  0  0  0  0  0  0  0  0  0  0
   22.4724  -21.1551  -14.3477 C   0  0  0  0  0  0  0  0  0  0  0  0
   22.3100  -22.3985  -14.4568 O   0  0  0  0  0  0  0  0  0  0  0  0
   21.2842  -20.3898  -14.0596 N   0  0  0  0  0  0  0  0  0  0  0  0
   20.0260  -20.9896  -13.7487 C   0  0  1  0  0  0  0  0  0  0  0  0
   19.9955  -21.3623  -12.2822 C   0  0  0  0  0  0  0  0  0  0  0  0
   19.6908  -22.7782  -12.0610 C   0  0  0  0  0  0  0  0  0  0  0  0
   19.4138  -23.5319  -13.0166 O   0  0  0  0  0  0  0  0  0  0  0  0
   18.8678  -20.1956  -14.1606 C   0  0  0  0  0  0  0  0  0  0  0  0
   18.0252  -20.6043  -15.0072 O   0  0  0  0  0  0  0  0  0  0  0  0
   19.7065  -23.2985  -10.7850 O   0  0  0  0  0  0  0  0  0  0  0  0
   18.6345  -18.9321  -13.6314 O   0  0  0  0  0  0  0  0  0  0  0  0
  2  1  1  6
  2 10  1  0
  3  2  1  0
  3  4  1  0
  4  5  2  0
  4  9  1  0
  5  6  1  0
  6  7  2  0
  8  7  1  0
  9  8  2  0
 10 11  2  0
 12 10  1  0
 12 13  1  0
 13 20  1  0
 13 14  1  6
 14 15  1  0
 15 16  2  0
 16 17  1  0
 18 17  1  0
 19 15  1  0
 19 18  2  0
 20 21  2  0
 22 23  1  0
 22 20  1  0
 23 27  1  0
 23 24  1  1
 25 24  1  0
 25 29  1  0
 26 25  2  0
 27 28  2  0
 27 30  1  0
M  END
$$$$
