FHD.pdb
     RDKit          3D

 30 31  0  0  1  0  0  0  0  0999 V2000
   21.2857   -7.1685  -17.9519 N   0  0  0  0  0  0  0  0  0  0  0  0
   21.6993   -6.6666  -16.6408 C   0  0  1  0  0  0  0  0  0  0  0  0
   21.8115   -5.1676  -16.7773 C   0  0  0  0  0  0  0  0  0  0  0  0
   23.1348   -4.8719  -17.3863 C   0  0  0  0  0  0  0  0  0  0  0  0
   24.2685   -5.5917  -17.0786 C   0  0  0  0  0  0  0  0  0  0  0  0
   25.4904   -5.2865  -17.6678 C   0  0  0  0  0  0  0  0  0  0  0  0
   25.6071   -4.2543  -18.5787 C   0  0  0  0  0  0  0  0  0  0  0  0
   24.4819   -3.5287  -18.8937 C   0  0  0  0  0  0  0  0  0  0  0  0
   23.2737   -3.8368  -18.3057 C   0  0  0  0  0  0  0  0  0  0  0  0
   20.6585   -7.0720  -15.6743 C   0  0  0  0  0  0  0  0  0  0  0  0
   19.4415   -7.2485  -16.0107 O   0  0  0  0  0  0  0  0  0  0  0  0
   20.9001   -7.3023  -14.2984 N   0  0  0  0  0  0  0  0  0  0  0  0
   19.9577   -7.8295  -13.3680 C   0  0  1  0  0  0  0  0  0  0  0  0
   20.3038   -9.1238  -12.7382 C   0  0  0  0  0  0  0  0  0  0  0  0
   20.3140  -10.1664  -13.8090 C   0  0  0  0  0  0  0  0  0  0  0  0
   19.2253  -10.8555  -14.3295 C   0  0  0  0  0  0  0  0  0  0  0  0
   19.6091  -11.7072  -15.2709 N   0  0  0  0  0  0  0  0  0  0  0  0
   20.9431  -11.5876  -15.3779 C   0  0  0  0  0  0  0  0  0  0  0  0
   21.3720  -10.6504  -14.4885 N   0  0  0  0  0  0  0  0  0  0  0  0
   19.5736   -6.7604  -12.4259 C   0  0  0  0  0  0  0  0  0  0  0  0
   20.4449   -6.1417  -11.7608 O   0  0  0  0  0  0  0  0  0  0  0  0
   18.2077   -6.3541  -12.2026 N   0  0  0  0  0  0  0  0  0  0  0  0
   17.8374   -5.3465  -11.2607 C   0  0  1  0  0  0  0  0  0  0  0  0
   16.7527   -4.4756  -11.8568 C   0  0  0  0  0  0  0  0  0  0  0  0
   16.3203   -3.4064  -10.9532 C   0  0  0  0  0  0  0  0  0  0  0  0
   17.0300   -3.0557   -9.9882 O   0  0  0  0  0  0  0  0  0  0  0  0
   17.4909   -5.8649   -9.9368 C   0  0  0  0  0  0  0  0  0  0  0  0
   17.1999   -5.1150   -8.9639 O   0  0  0  0  0  0  0  0  0  0  0  0
   15.1153   -2.7706  -11.1598 O   0  0  0  0  0  0  0  0  0  0  0  0
   17.4644   -7.2305   -9.6813 O   0  0  0  0  0  0  0  0  0  0  0  0
  2  1  1  6
  2 10  1  0
  3  2  1  0
  3  4  1  0
  4  5  2  0
  4  9  1  0
  5  6  1  0
  6  7  2  0
  8  7  1  0
  9  8  2  0
 10 11  2  0
 12 10  1  0
 12 13  1  0
 13 20  1  0
 13 14  1  1
 14 15  1  0
 15 16  2  0
 16 17  1  0
 18 17  1  0
 19 15  1  0
 19 18  2  0
 20 21  2  0
 22 23  1  0
 22 20  1  0
 23 27  1  0
 23 24  1  6
 25 24  1  0
 25 29  1  0
 26 25  2  0
 27 28  2  0
 27 30  1  0
M  END
$$$$
