FHD.pdb
     RDKit          3D

 30 31  0  0  1  0  0  0  0  0999 V2000
   26.9377  -22.0540  -11.0925 N   0  0  0  0  0  0  0  0  0  0  0  0
   26.0617  -20.9015  -10.8772 C   0  0  1  0  0  0  0  0  0  0  0  0
   26.9659  -19.7372  -10.5525 C   0  0  0  0  0  0  0  0  0  0  0  0
   27.5083  -19.9598   -9.1866 C   0  0  0  0  0  0  0  0  0  0  0  0
   26.7322  -19.8444   -8.0542 C   0  0  0  0  0  0  0  0  0  0  0  0
   27.2739  -20.0596   -6.7918 C   0  0  0  0  0  0  0  0  0  0  0  0
   28.6045  -20.3954   -6.6323 C   0  0  0  0  0  0  0  0  0  0  0  0
   29.3892  -20.5136   -7.7558 C   0  0  0  0  0  0  0  0  0  0  0  0
   28.8455  -20.2987   -9.0043 C   0  0  0  0  0  0  0  0  0  0  0  0
   25.3003  -20.6973  -12.1263 C   0  0  0  0  0  0  0  0  0  0  0  0
   25.8314  -20.2217  -13.1833 O   0  0  0  0  0  0  0  0  0  0  0  0
   23.9262  -21.0030  -12.2766 N   0  0  0  0  0  0  0  0  0  0  0  0
   23.2408  -21.1523  -13.5175 C   0  0  1  0  0  0  0  0  0  0  0  0
   23.8744  -22.0380  -14.5203 C   0  0  0  0  0  0  0  0  0  0  0  0
   25.0373  -21.3063  -15.1086 C   0  0  0  0  0  0  0  0  0  0  0  0
   25.0237  -20.0767  -15.7558 C   0  0  0  0  0  0  0  0  0  0  0  0
   26.2435  -19.7331  -16.1469 N   0  0  0  0  0  0  0  0  0  0  0  0
   27.0646  -20.7253  -15.7639 C   0  0  0  0  0  0  0  0  0  0  0  0
   26.3309  -21.6824  -15.1323 N   0  0  0  0  0  0  0  0  0  0  0  0
   21.8195  -21.4384  -13.2418 C   0  0  0  0  0  0  0  0  0  0  0  0
   21.4879  -22.3487  -12.4383 O   0  0  0  0  0  0  0  0  0  0  0  0
   20.7322  -20.7159  -13.8554 N   0  0  0  0  0  0  0  0  0  0  0  0
   19.3581  -21.0167  -13.6089 C   0  0  1  0  0  0  0  0  0  0  0  0
   18.4962  -19.8807  -14.1160 C   0  0  0  0  0  0  0  0  0  0  0  0
   18.6811  -18.6424  -13.3550 C   0  0  0  0  0  0  0  0  0  0  0  0
   18.9712  -18.6723  -12.1414 O   0  0  0  0  0  0  0  0  0  0  0  0
   18.9335  -22.3241  -14.1108 C   0  0  0  0  0  0  0  0  0  0  0  0
   19.3644  -22.8141  -15.1915 O   0  0  0  0  0  0  0  0  0  0  0  0
   18.5355  -17.4205  -13.9754 O   0  0  0  0  0  0  0  0  0  0  0  0
   18.0204  -23.1035  -13.4110 O   0  0  0  0  0  0  0  0  0  0  0  0
  2  1  1  6
  2 10  1  0
  3  2  1  0
  3  4  1  0
  4  5  2  0
  4  9  1  0
  5  6  1  0
  6  7  2  0
  8  7  1  0
  9  8  2  0
 10 11  2  0
 12 10  1  0
 12 13  1  0
 13 20  1  0
 13 14  1  1
 14 15  1  0
 15 16  2  0
 16 17  1  0
 18 17  1  0
 19 15  1  0
 19 18  2  0
 20 21  2  0
 22 23  1  0
 22 20  1  0
 23 27  1  0
 23 24  1  6
 25 24  1  0
 25 29  1  0
 26 25  2  0
 27 28  2  0
 27 30  1  0
M  END
$$$$
