FHD.pdb
     RDKit          3D

 30 31  0  0  1  0  0  0  0  0999 V2000
   34.6314   -8.0063  -15.3098 N   0  0  0  0  0  0  0  0  0  0  0  0
   34.5852   -6.6153  -15.7626 C   0  0  1  0  0  0  0  0  0  0  0  0
   33.1362   -6.3147  -16.0599 C   0  0  0  0  0  0  0  0  0  0  0  0
   32.8333   -6.8634  -17.4077 C   0  0  0  0  0  0  0  0  0  0  0  0
   31.9713   -7.9210  -17.5997 C   0  0  0  0  0  0  0  0  0  0  0  0
   31.7118   -8.4086  -18.8757 C   0  0  0  0  0  0  0  0  0  0  0  0
   32.3080   -7.8499  -19.9897 C   0  0  0  0  0  0  0  0  0  0  0  0
   33.1704   -6.7935  -19.8104 C   0  0  0  0  0  0  0  0  0  0  0  0
   33.4232   -6.3152  -18.5424 C   0  0  0  0  0  0  0  0  0  0  0  0
   35.1233   -5.7851  -14.6658 C   0  0  0  0  0  0  0  0  0  0  0  0
   34.8365   -5.9963  -13.4416 O   0  0  0  0  0  0  0  0  0  0  0  0
   35.9978   -4.6882  -14.8568 N   0  0  0  0  0  0  0  0  0  0  0  0
   36.5245   -3.8581  -13.8248 C   0  0  1  0  0  0  0  0  0  0  0  0
   37.9300   -4.1048  -13.4307 C   0  0  0  0  0  0  0  0  0  0  0  0
   37.9869   -5.4294  -12.7408 C   0  0  0  0  0  0  0  0  0  0  0  0
   38.4736   -6.6278  -13.2487 C   0  0  0  0  0  0  0  0  0  0  0  0
   38.3677   -7.6003  -12.3532 N   0  0  0  0  0  0  0  0  0  0  0  0
   37.8148   -7.0555  -11.2564 C   0  0  0  0  0  0  0  0  0  0  0  0
   37.5830   -5.7349  -11.4922 N   0  0  0  0  0  0  0  0  0  0  0  0
   36.2017   -2.4523  -14.1369 C   0  0  0  0  0  0  0  0  0  0  0  0
   36.5030   -1.9526  -15.2522 O   0  0  0  0  0  0  0  0  0  0  0  0
   35.5341   -1.5686  -13.2128 N   0  0  0  0  0  0  0  0  0  0  0  0
   35.3310   -0.1787  -13.4707 C   0  0  1  0  0  0  0  0  0  0  0  0
   34.4845    0.4187  -12.3675 C   0  0  0  0  0  0  0  0  0  0  0  0
   34.0724    1.7962  -12.6488 C   0  0  0  0  0  0  0  0  0  0  0  0
   34.4241    2.3692  -13.7005 O   0  0  0  0  0  0  0  0  0  0  0  0
   36.5645    0.5701  -13.7136 C   0  0  0  0  0  0  0  0  0  0  0  0
   36.7475    1.2683  -14.7494 O   0  0  0  0  0  0  0  0  0  0  0  0
   33.2853    2.4809  -11.7483 O   0  0  0  0  0  0  0  0  0  0  0  0
   37.6124    0.5495  -12.8012 O   0  0  0  0  0  0  0  0  0  0  0  0
  2  1  1  1
  2 10  1  0
  3  2  1  0
  3  4  1  0
  4  5  2  0
  4  9  1  0
  5  6  1  0
  6  7  2  0
  8  7  1  0
  9  8  2  0
 10 11  2  0
 12 10  1  0
 12 13  1  0
 13 20  1  0
 13 14  1  6
 14 15  1  0
 15 16  2  0
 16 17  1  0
 18 17  1  0
 19 15  1  0
 19 18  2  0
 20 21  2  0
 22 23  1  0
 22 20  1  0
 23 27  1  0
 23 24  1  1
 25 24  1  0
 25 29  1  0
 26 25  2  0
 27 28  2  0
 27 30  1  0
M  END
$$$$
