FHD.pdb
     RDKit          3D

 30 31  0  0  1  0  0  0  0  0999 V2000
   19.5689   -8.5689  -18.1250 N   0  0  0  0  0  0  0  0  0  0  0  0
   20.4747   -7.4213  -18.1915 C   0  0  1  0  0  0  0  0  0  0  0  0
   20.0680   -6.6309  -19.4114 C   0  0  0  0  0  0  0  0  0  0  0  0
   20.4852   -7.4085  -20.6075 C   0  0  0  0  0  0  0  0  0  0  0  0
   21.7915   -7.4525  -21.0430 C   0  0  0  0  0  0  0  0  0  0  0  0
   22.1456   -8.1906  -22.1669 C   0  0  0  0  0  0  0  0  0  0  0  0
   21.2014   -8.9022  -22.8816 C   0  0  0  0  0  0  0  0  0  0  0  0
   19.8938   -8.8659  -22.4562 C   0  0  0  0  0  0  0  0  0  0  0  0
   19.5500   -8.1320  -21.3411 C   0  0  0  0  0  0  0  0  0  0  0  0
   20.3007   -6.6596  -16.9380 C   0  0  0  0  0  0  0  0  0  0  0  0
   19.1606   -6.4830  -16.3954 O   0  0  0  0  0  0  0  0  0  0  0  0
   21.3631   -6.0571  -16.2219 N   0  0  0  0  0  0  0  0  0  0  0  0
   21.2274   -5.2813  -15.0339 C   0  0  1  0  0  0  0  0  0  0  0  0
   22.1378   -5.6187  -13.9164 C   0  0  0  0  0  0  0  0  0  0  0  0
   21.8192   -7.0089  -13.4694 C   0  0  0  0  0  0  0  0  0  0  0  0
   20.8444   -7.8587  -13.9779 C   0  0  0  0  0  0  0  0  0  0  0  0
   20.8470   -9.0202  -13.3378 N   0  0  0  0  0  0  0  0  0  0  0  0
   21.8156   -8.9463  -12.4095 C   0  0  0  0  0  0  0  0  0  0  0  0
   22.4070   -7.7227  -12.4894 N   0  0  0  0  0  0  0  0  0  0  0  0
   21.1952   -3.8526  -15.4026 C   0  0  0  0  0  0  0  0  0  0  0  0
   22.1420   -3.3302  -16.0467 O   0  0  0  0  0  0  0  0  0  0  0  0
   20.1056   -2.9708  -15.0623 N   0  0  0  0  0  0  0  0  0  0  0  0
   20.0202   -1.6219  -15.5235 C   0  0  1  0  0  0  0  0  0  0  0  0
   20.2460   -1.5870  -17.0196 C   0  0  0  0  0  0  0  0  0  0  0  0
   20.0653   -0.2503  -17.5915 C   0  0  0  0  0  0  0  0  0  0  0  0
   20.6124    0.7469  -17.0774 O   0  0  0  0  0  0  0  0  0  0  0  0
   18.7996   -0.9267  -15.1135 C   0  0  0  0  0  0  0  0  0  0  0  0
   17.8211   -1.5202  -14.5807 O   0  0  0  0  0  0  0  0  0  0  0  0
   19.2828   -0.0770  -18.7125 O   0  0  0  0  0  0  0  0  0  0  0  0
   18.6552    0.4437  -15.2931 O   0  0  0  0  0  0  0  0  0  0  0  0
  2  1  1  1
  2 10  1  0
  3  2  1  0
  3  4  1  0
  4  5  2  0
  4  9  1  0
  5  6  1  0
  6  7  2  0
  8  7  1  0
  9  8  2  0
 10 11  2  0
 12 10  1  0
 12 13  1  0
 13 20  1  0
 13 14  1  1
 14 15  1  0
 15 16  2  0
 16 17  1  0
 18 17  1  0
 19 15  1  0
 19 18  2  0
 20 21  2  0
 22 23  1  0
 22 20  1  0
 23 27  1  0
 23 24  1  6
 25 24  1  0
 25 29  1  0
 26 25  2  0
 27 28  2  0
 27 30  1  0
M  END
$$$$
