FHD.pdb
     RDKit          3D

 30 31  0  0  1  0  0  0  0  0999 V2000
   25.6959  -19.2930  -16.9039 N   0  0  0  0  0  0  0  0  0  0  0  0
   25.1134  -18.8642  -15.6316 C   0  0  1  0  0  0  0  0  0  0  0  0
   24.4353  -17.5426  -15.9004 C   0  0  0  0  0  0  0  0  0  0  0  0
   25.4983  -16.5105  -16.0180 C   0  0  0  0  0  0  0  0  0  0  0  0
   25.8752  -15.9706  -17.2283 C   0  0  0  0  0  0  0  0  0  0  0  0
   26.8746  -15.0065  -17.3004 C   0  0  0  0  0  0  0  0  0  0  0  0
   27.5205  -14.5596  -16.1639 C   0  0  0  0  0  0  0  0  0  0  0  0
   27.1527  -15.0914  -14.9498 C   0  0  0  0  0  0  0  0  0  0  0  0
   26.1611  -16.0470  -14.8857 C   0  0  0  0  0  0  0  0  0  0  0  0
   24.1630  -19.9151  -15.2148 C   0  0  0  0  0  0  0  0  0  0  0  0
   23.5930  -20.6940  -16.0478 O   0  0  0  0  0  0  0  0  0  0  0  0
   23.7928  -20.1621  -13.8708 N   0  0  0  0  0  0  0  0  0  0  0  0
   22.8265  -21.1168  -13.4389 C   0  0  1  0  0  0  0  0  0  0  0  0
   23.2384  -22.0261  -12.3457 C   0  0  0  0  0  0  0  0  0  0  0  0
   24.3708  -21.3804  -11.6145 C   0  0  0  0  0  0  0  0  0  0  0  0
   24.9662  -20.1552  -11.8890 C   0  0  0  0  0  0  0  0  0  0  0  0
   25.9438  -19.9000  -11.0300 N   0  0  0  0  0  0  0  0  0  0  0  0
   26.0006  -20.9463  -10.1889 C   0  0  0  0  0  0  0  0  0  0  0  0
   25.0437  -21.8470  -10.5445 N   0  0  0  0  0  0  0  0  0  0  0  0
   21.5408  -20.4249  -13.2237 C   0  0  0  0  0  0  0  0  0  0  0  0
   21.4929  -19.3266  -12.6108 O   0  0  0  0  0  0  0  0  0  0  0  0
   20.2760  -20.9408  -13.6872 N   0  0  0  0  0  0  0  0  0  0  0  0
   19.0714  -20.1739  -13.6820 C   0  0  1  0  0  0  0  0  0  0  0  0
   19.3022  -18.8705  -14.4159 C   0  0  0  0  0  0  0  0  0  0  0  0
   18.0932  -18.0483  -14.5099 C   0  0  0  0  0  0  0  0  0  0  0  0
   17.4258  -17.7700  -13.4925 O   0  0  0  0  0  0  0  0  0  0  0  0
   17.8978  -20.9018  -14.1658 C   0  0  0  0  0  0  0  0  0  0  0  0
   17.9106  -21.5957  -15.2203 O   0  0  0  0  0  0  0  0  0  0  0  0
   17.6754  -17.5691  -15.7325 O   0  0  0  0  0  0  0  0  0  0  0  0
   16.6915  -20.8648  -13.4768 O   0  0  0  0  0  0  0  0  0  0  0  0
  2  1  1  6
  2 10  1  0
  3  2  1  0
  3  4  1  0
  4  5  2  0
  4  9  1  0
  5  6  1  0
  6  7  2  0
  8  7  1  0
  9  8  2  0
 10 11  2  0
 12 10  1  0
 12 13  1  0
 13 20  1  0
 13 14  1  1
 14 15  1  0
 15 16  2  0
 16 17  1  0
 18 17  1  0
 19 15  1  0
 19 18  2  0
 20 21  2  0
 22 23  1  0
 22 20  1  0
 23 27  1  0
 23 24  1  6
 25 24  1  0
 25 29  1  0
 26 25  2  0
 27 28  2  0
 27 30  1  0
M  END
$$$$
