FHD.pdb
     RDKit          3D

 30 31  0  0  1  0  0  0  0  0999 V2000
   35.1690  -21.9761    7.0345 N   0  0  0  0  0  0  0  0  0  0  0  0
   34.4733  -23.1813    6.5813 C   0  0  1  0  0  0  0  0  0  0  0  0
   34.7673  -23.3105    5.1063 C   0  0  0  0  0  0  0  0  0  0  0  0
   33.8574  -22.3816    4.3862 C   0  0  0  0  0  0  0  0  0  0  0  0
   32.5487  -22.7021    4.0986 C   0  0  0  0  0  0  0  0  0  0  0  0
   31.7262  -21.8079    3.4225 C   0  0  0  0  0  0  0  0  0  0  0  0
   32.1931  -20.5721    3.0181 C   0  0  0  0  0  0  0  0  0  0  0  0
   33.4981  -20.2411    3.2997 C   0  0  0  0  0  0  0  0  0  0  0  0
   34.3080  -21.1326    3.9703 C   0  0  0  0  0  0  0  0  0  0  0  0
   35.0085  -24.3114    7.3675 C   0  0  0  0  0  0  0  0  0  0  0  0
   36.2443  -24.4172    7.6628 O   0  0  0  0  0  0  0  0  0  0  0  0
   34.2188  -25.3755    7.8659 N   0  0  0  0  0  0  0  0  0  0  0  0
   34.7097  -26.5128    8.5712 C   0  0  1  0  0  0  0  0  0  0  0  0
   33.6954  -27.3920    9.1954 C   0  0  0  0  0  0  0  0  0  0  0  0
   34.4176  -28.4512    9.9639 C   0  0  0  0  0  0  0  0  0  0  0  0
   35.7810  -28.5294   10.2206 C   0  0  0  0  0  0  0  0  0  0  0  0
   36.0676  -29.6082   10.9368 N   0  0  0  0  0  0  0  0  0  0  0  0
   34.9050  -30.2450   11.1563 C   0  0  0  0  0  0  0  0  0  0  0  0
   33.9011  -29.5412   10.5643 N   0  0  0  0  0  0  0  0  0  0  0  0
   35.6985  -27.2057    7.7225 C   0  0  0  0  0  0  0  0  0  0  0  0
   35.8409  -26.8947    6.5112 O   0  0  0  0  0  0  0  0  0  0  0  0
   36.5537  -28.2627    8.2039 N   0  0  0  0  0  0  0  0  0  0  0  0
   37.5050  -28.9343    7.3773 C   0  0  1  0  0  0  0  0  0  0  0  0
   38.4024  -27.9131    6.7121 C   0  0  0  0  0  0  0  0  0  0  0  0
   39.4601  -28.5253    5.9039 C   0  0  0  0  0  0  0  0  0  0  0  0
   39.5189  -29.7632    5.7554 O   0  0  0  0  0  0  0  0  0  0  0  0
   38.2511  -29.9906    8.0621 C   0  0  0  0  0  0  0  0  0  0  0  0
   38.2643  -31.1877    7.6617 O   0  0  0  0  0  0  0  0  0  0  0  0
   40.4100  -27.7352    5.2936 O   0  0  0  0  0  0  0  0  0  0  0  0
   38.9941  -29.7235    9.2057 O   0  0  0  0  0  0  0  0  0  0  0  0
  2  1  1  1
  2 10  1  0
  3  2  1  0
  3  4  1  0
  4  5  2  0
  4  9  1  0
  5  6  1  0
  6  7  2  0
  8  7  1  0
  9  8  2  0
 10 11  2  0
 12 10  1  0
 12 13  1  0
 13 20  1  0
 13 14  1  6
 14 15  1  0
 15 16  2  0
 16 17  1  0
 18 17  1  0
 19 15  1  0
 19 18  2  0
 20 21  2  0
 22 23  1  0
 22 20  1  0
 23 27  1  0
 23 24  1  1
 25 24  1  0
 25 29  1  0
 26 25  2  0
 27 28  2  0
 27 30  1  0
M  END
$$$$
