FHD.pdb
     RDKit          3D

 30 31  0  0  1  0  0  0  0  0999 V2000
   19.3831  -12.2714  -15.9688 N   0  0  0  0  0  0  0  0  0  0  0  0
   19.0893  -11.0110  -16.6522 C   0  0  1  0  0  0  0  0  0  0  0  0
   17.5863  -10.9311  -16.7656 C   0  0  0  0  0  0  0  0  0  0  0  0
   17.1627  -11.9154  -17.7957 C   0  0  0  0  0  0  0  0  0  0  0  0
   16.5568  -13.1100  -17.4731 C   0  0  0  0  0  0  0  0  0  0  0  0
   16.1741  -14.0075  -18.4638 C   0  0  0  0  0  0  0  0  0  0  0  0
   16.3883  -13.7313  -19.8004 C   0  0  0  0  0  0  0  0  0  0  0  0
   16.9925  -12.5416  -20.1346 C   0  0  0  0  0  0  0  0  0  0  0  0
   17.3693  -11.6565  -19.1471 C   0  0  0  0  0  0  0  0  0  0  0  0
   19.6541   -9.9271  -15.8229 C   0  0  0  0  0  0  0  0  0  0  0  0
   19.5664   -9.9200  -14.5510 O   0  0  0  0  0  0  0  0  0  0  0  0
   20.3392   -8.8035  -16.3450 N   0  0  0  0  0  0  0  0  0  0  0  0
   20.7672   -7.6705  -15.5935 C   0  0  1  0  0  0  0  0  0  0  0  0
   22.2256   -7.5311  -15.3805 C   0  0  0  0  0  0  0  0  0  0  0  0
   22.7007   -8.7468  -14.6523 C   0  0  0  0  0  0  0  0  0  0  0  0
   23.4419   -9.8045  -15.1649 C   0  0  0  0  0  0  0  0  0  0  0  0
   23.6855  -10.7109  -14.2279 N   0  0  0  0  0  0  0  0  0  0  0  0
   23.1115  -10.2619  -13.0990 C   0  0  0  0  0  0  0  0  0  0  0  0
   22.5123   -9.0671  -13.3572 N   0  0  0  0  0  0  0  0  0  0  0  0
   20.0969   -6.4684  -16.1262 C   0  0  0  0  0  0  0  0  0  0  0  0
   20.2864   -6.0958  -17.3135 O   0  0  0  0  0  0  0  0  0  0  0  0
   19.1979   -5.6520  -15.3480 N   0  0  0  0  0  0  0  0  0  0  0  0
   18.4574   -4.5626  -15.8998 C   0  0  1  0  0  0  0  0  0  0  0  0
   17.7136   -5.0331  -17.1311 C   0  0  0  0  0  0  0  0  0  0  0  0
   16.9303   -3.9690  -17.7642 C   0  0  0  0  0  0  0  0  0  0  0  0
   16.9978   -2.7920  -17.3543 O   0  0  0  0  0  0  0  0  0  0  0  0
   17.5935   -3.8790  -14.9368 C   0  0  0  0  0  0  0  0  0  0  0  0
   16.8221   -4.4971  -14.1515 O   0  0  0  0  0  0  0  0  0  0  0  0
   16.1033   -4.2577  -18.8280 O   0  0  0  0  0  0  0  0  0  0  0  0
   17.5794   -2.4930  -14.8374 O   0  0  0  0  0  0  0  0  0  0  0  0
  2  1  1  1
  2 10  1  0
  3  2  1  0
  3  4  1  0
  4  5  2  0
  4  9  1  0
  5  6  1  0
  6  7  2  0
  8  7  1  0
  9  8  2  0
 10 11  2  0
 12 10  1  0
 12 13  1  0
 13 20  1  0
 13 14  1  6
 14 15  1  0
 15 16  2  0
 16 17  1  0
 18 17  1  0
 19 15  1  0
 19 18  2  0
 20 21  2  0
 22 23  1  0
 22 20  1  0
 23 27  1  0
 23 24  1  6
 25 24  1  0
 25 29  1  0
 26 25  2  0
 27 28  2  0
 27 30  1  0
M  END
$$$$
