FHD.pdb
     RDKit          3D

 30 31  0  0  1  0  0  0  0  0999 V2000
   23.1599  -13.0639  -17.5477 N   0  0  0  0  0  0  0  0  0  0  0  0
   22.9183  -11.9112  -18.4166 C   0  0  1  0  0  0  0  0  0  0  0  0
   21.4837  -12.0188  -18.8737 C   0  0  0  0  0  0  0  0  0  0  0  0
   21.3909  -13.1913  -19.7826 C   0  0  0  0  0  0  0  0  0  0  0  0
   21.9346  -13.1913  -21.0484 C   0  0  0  0  0  0  0  0  0  0  0  0
   21.8281  -14.3068  -21.8718 C   0  0  0  0  0  0  0  0  0  0  0  0
   21.1753  -15.4484  -21.4484 C   0  0  0  0  0  0  0  0  0  0  0  0
   20.6284  -15.4600  -20.1863 C   0  0  0  0  0  0  0  0  0  0  0  0
   20.7378  -14.3505  -19.3754 C   0  0  0  0  0  0  0  0  0  0  0  0
   23.1668  -10.7003  -17.6082 C   0  0  0  0  0  0  0  0  0  0  0  0
   22.7385  -10.5730  -16.4141 O   0  0  0  0  0  0  0  0  0  0  0  0
   23.8933   -9.5753  -18.0674 N   0  0  0  0  0  0  0  0  0  0  0  0
   24.2033   -8.4172  -17.2963 C   0  0  1  0  0  0  0  0  0  0  0  0
   25.6395   -8.1392  -17.0692 C   0  0  0  0  0  0  0  0  0  0  0  0
   26.2469   -9.3510  -16.4395 C   0  0  0  0  0  0  0  0  0  0  0  0
   25.9928   -9.8641  -15.1734 C   0  0  0  0  0  0  0  0  0  0  0  0
   26.7133  -10.9550  -14.9504 N   0  0  0  0  0  0  0  0  0  0  0  0
   27.4425  -11.1683  -16.0587 C   0  0  0  0  0  0  0  0  0  0  0  0
   27.1589  -10.1924  -16.9645 N   0  0  0  0  0  0  0  0  0  0  0  0
   23.4222   -7.2785  -17.8174 C   0  0  0  0  0  0  0  0  0  0  0  0
   23.5612   -6.8901  -19.0065 O   0  0  0  0  0  0  0  0  0  0  0  0
   22.4661   -6.5447  -17.0250 N   0  0  0  0  0  0  0  0  0  0  0  0
   21.7118   -5.4441  -17.5340 C   0  0  1  0  0  0  0  0  0  0  0  0
   20.2729   -5.5688  -17.0814 C   0  0  0  0  0  0  0  0  0  0  0  0
   19.4094   -4.5229  -17.6353 C   0  0  0  0  0  0  0  0  0  0  0  0
   19.8577   -3.6793  -18.4386 O   0  0  0  0  0  0  0  0  0  0  0  0
   22.2925   -4.1341  -17.2376 C   0  0  0  0  0  0  0  0  0  0  0  0
   22.5814   -3.7638  -16.0658 O   0  0  0  0  0  0  0  0  0  0  0  0
   18.0815   -4.4577  -17.2727 O   0  0  0  0  0  0  0  0  0  0  0  0
   22.5590   -3.2180  -18.2480 O   0  0  0  0  0  0  0  0  0  0  0  0
  2  1  1  1
  2 10  1  0
  3  2  1  0
  3  4  1  0
  4  5  2  0
  4  9  1  0
  5  6  1  0
  6  7  2  0
  8  7  1  0
  9  8  2  0
 10 11  2  0
 12 10  1  0
 12 13  1  0
 13 20  1  0
 13 14  1  6
 14 15  1  0
 15 16  2  0
 16 17  1  0
 18 17  1  0
 19 15  1  0
 19 18  2  0
 20 21  2  0
 22 23  1  0
 22 20  1  0
 23 27  1  0
 23 24  1  1
 25 24  1  0
 25 29  1  0
 26 25  2  0
 27 28  2  0
 27 30  1  0
M  END
$$$$
