FHD.pdb
     RDKit          3D

 30 31  0  0  1  0  0  0  0  0999 V2000
   17.5675  -22.9882  -10.0656 N   0  0  0  0  0  0  0  0  0  0  0  0
   17.7289  -23.9441  -11.1620 C   0  0  1  0  0  0  0  0  0  0  0  0
   16.3865  -24.6097  -11.3446 C   0  0  0  0  0  0  0  0  0  0  0  0
   16.1718  -25.5094  -10.1811 C   0  0  0  0  0  0  0  0  0  0  0  0
   15.2573  -25.2308   -9.1890 C   0  0  0  0  0  0  0  0  0  0  0  0
   15.0833  -26.0958   -8.1143 C   0  0  0  0  0  0  0  0  0  0  0  0
   15.8197  -27.2598   -8.0066 C   0  0  0  0  0  0  0  0  0  0  0  0
   16.7358  -27.5485   -8.9913 C   0  0  0  0  0  0  0  0  0  0  0  0
   16.9031  -26.6863  -10.0539 C   0  0  0  0  0  0  0  0  0  0  0  0
   18.1461  -23.1728  -12.3506 C   0  0  0  0  0  0  0  0  0  0  0  0
   17.6020  -22.0666  -12.6761 O   0  0  0  0  0  0  0  0  0  0  0  0
   19.1749  -23.5747  -13.2362 N   0  0  0  0  0  0  0  0  0  0  0  0
   19.5658  -22.8851  -14.4208 C   0  0  1  0  0  0  0  0  0  0  0  0
   21.0133  -22.8712  -14.7306 C   0  0  0  0  0  0  0  0  0  0  0  0
   21.6821  -21.9576  -13.7548 C   0  0  0  0  0  0  0  0  0  0  0  0
   21.0749  -21.1013  -12.8443 C   0  0  0  0  0  0  0  0  0  0  0  0
   21.9817  -20.4418  -12.1361 N   0  0  0  0  0  0  0  0  0  0  0  0
   23.1845  -20.8546  -12.5703 C   0  0  0  0  0  0  0  0  0  0  0  0
   23.0022  -21.7766  -13.5551 N   0  0  0  0  0  0  0  0  0  0  0  0
   18.6946  -23.3188  -15.5303 C   0  0  0  0  0  0  0  0  0  0  0  0
   18.0475  -24.3962  -15.4603 O   0  0  0  0  0  0  0  0  0  0  0  0
   18.5230  -22.5614  -16.7458 N   0  0  0  0  0  0  0  0  0  0  0  0
   17.6390  -22.9587  -17.7946 C   0  0  1  0  0  0  0  0  0  0  0  0
   16.2657  -23.2294  -17.2190 C   0  0  0  0  0  0  0  0  0  0  0  0
   15.2670  -23.5320  -18.2473 C   0  0  0  0  0  0  0  0  0  0  0  0
   15.4716  -24.4217  -19.0984 O   0  0  0  0  0  0  0  0  0  0  0  0
   17.6104  -22.0388  -18.9323 C   0  0  0  0  0  0  0  0  0  0  0  0
   17.7541  -20.7910  -18.8061 O   0  0  0  0  0  0  0  0  0  0  0  0
   14.0806  -22.8320  -18.2872 O   0  0  0  0  0  0  0  0  0  0  0  0
   17.4208  -22.5010  -20.2290 O   0  0  0  0  0  0  0  0  0  0  0  0
  2  1  1  1
  2 10  1  0
  3  2  1  0
  3  4  1  0
  4  5  2  0
  4  9  1  0
  5  6  1  0
  6  7  2  0
  8  7  1  0
  9  8  2  0
 10 11  2  0
 12 10  1  0
 12 13  1  0
 13 20  1  0
 13 14  1  6
 14 15  1  0
 15 16  2  0
 16 17  1  0
 18 17  1  0
 19 15  1  0
 19 18  2  0
 20 21  2  0
 22 23  1  0
 22 20  1  0
 23 27  1  0
 23 24  1  1
 25 24  1  0
 25 29  1  0
 26 25  2  0
 27 28  2  0
 27 30  1  0
M  END
$$$$
