MNW.pdb
     RDKit          3D

 31 32  0  0  1  0  0  0  0  0999 V2000
   22.7385  -17.3734  -19.5444 C   0  0  0  0  0  0  0  0  0  0  0  0
   24.0073  -16.2006  -19.0186 S   0  0  0  0  0  0  0  0  0  0  0  0
   25.6630  -16.8723  -19.1443 C   0  0  0  0  0  0  0  0  0  0  0  0
   25.6763  -18.3383  -18.7412 C   0  0  0  0  0  0  0  0  0  0  0  0
   25.9067  -18.4707  -17.2309 C   0  0  2  0  0  0  0  0  0  0  0  0
   27.1938  -17.8587  -16.9747 N   0  0  0  0  0  0  0  0  0  0  0  0
   25.9856  -19.9261  -16.9430 C   0  0  0  0  0  0  0  0  0  0  0  0
   25.0003  -20.6994  -17.1638 O   0  0  0  0  0  0  0  0  0  0  0  0
   28.1030  -23.4166  -18.7759 N   0  0  0  0  0  0  0  0  0  0  0  0
   28.6637  -22.6052  -17.7630 C   0  0  0  0  0  0  0  0  0  0  0  0
   29.4932  -21.7114  -18.2098 O   0  0  0  0  0  0  0  0  0  0  0  0
   28.3988  -22.6868  -16.3226 C   0  0  0  0  0  0  0  0  0  0  0  0
   27.1712  -21.9091  -15.9532 C   0  0  2  0  0  0  0  0  0  0  0  0
   27.1776  -20.5335  -16.4018 N   0  0  0  0  0  0  0  0  0  0  0  0
   26.9415  -22.0207  -14.4912 C   0  0  0  0  0  0  0  0  0  0  0  0
   27.8179  -22.4920  -13.7092 O   0  0  0  0  0  0  0  0  0  0  0  0
   25.7203  -21.6103  -13.8507 N   0  0  0  0  0  0  0  0  0  0  0  0
   25.6138  -21.5766  -12.4071 C   0  0  1  0  0  0  0  0  0  0  0  0
   26.6948  -20.6718  -11.8117 C   0  0  0  0  0  0  0  0  0  0  0  0
   26.4669  -20.4602  -10.3684 C   0  0  0  0  0  0  0  0  0  0  0  0
   25.2926  -20.1878   -9.6882 C   0  0  0  0  0  0  0  0  0  0  0  0
   25.5217  -20.0630   -8.3676 N   0  0  0  0  0  0  0  0  0  0  0  0
   26.8381  -20.2522   -8.1832 C   0  0  0  0  0  0  0  0  0  0  0  0
   27.5996  -20.2322   -7.0213 C   0  0  0  0  0  0  0  0  0  0  0  0
   28.9725  -20.4616   -7.0915 C   0  0  0  0  0  0  0  0  0  0  0  0
   29.5592  -20.7057   -8.3137 C   0  0  0  0  0  0  0  0  0  0  0  0
   28.7876  -20.7243   -9.4780 C   0  0  0  0  0  0  0  0  0  0  0  0
   27.4491  -20.4984   -9.3911 C   0  0  0  0  0  0  0  0  0  0  0  0
   24.2676  -21.1252  -11.9594 C   0  0  0  0  0  0  0  0  0  0  0  0
   23.6793  -21.6398  -10.8040 O   0  0  0  0  0  0  0  0  0  0  0  0
   23.6361  -20.2672  -12.6211 O   0  0  0  0  0  0  0  0  0  0  0  0
  2  1  1  0
  3  2  1  0
  4  5  1  0
  4  3  1  0
  5  6  1  6
  7  5  1  0
  8  7  2  0
  9 10  1  0
 10 12  1  0
 10 11  2  0
 13 12  1  1
 13 14  1  0
 14  7  1  0
 15 13  1  0
 15 16  2  0
 17 15  1  0
 18 17  1  0
 18 19  1  1
 20 19  1  0
 20 21  2  0
 22 21  1  0
 23 22  1  0
 24 23  2  0
 25 24  1  0
 26 25  2  0
 26 27  1  0
 27 28  2  0
 28 23  1  0
 28 20  1  0
 29 18  1  0
 30 29  1  0
 31 29  2  0
M  END
$$$$
