MNW.pdb
     RDKit          3D

 31 32  0  0  1  0  0  0  0  0999 V2000
   41.3803  -31.2741  -22.6979 C   0  0  0  0  0  0  0  0  0  0  0  0
   40.4375  -29.7540  -22.4485 S   0  0  0  0  0  0  0  0  0  0  0  0
   41.1425  -28.7047  -21.1796 C   0  0  0  0  0  0  0  0  0  0  0  0
   41.3549  -29.4899  -19.8949 C   0  0  0  0  0  0  0  0  0  0  0  0
   40.8766  -28.6724  -18.6888 C   0  0  2  0  0  0  0  0  0  0  0  0
   42.0593  -28.0278  -18.1571 N   0  0  0  0  0  0  0  0  0  0  0  0
   40.3584  -29.6495  -17.6968 C   0  0  0  0  0  0  0  0  0  0  0  0
   41.0315  -30.6760  -17.3642 O   0  0  0  0  0  0  0  0  0  0  0  0
   37.5807  -31.3164  -13.0087 N   0  0  0  0  0  0  0  0  0  0  0  0
   37.0605  -31.0267  -14.2909 C   0  0  0  0  0  0  0  0  0  0  0  0
   36.0860  -31.8078  -14.6474 O   0  0  0  0  0  0  0  0  0  0  0  0
   37.5089  -29.9706  -15.2047 C   0  0  0  0  0  0  0  0  0  0  0  0
   38.5687  -30.4758  -16.1373 C   0  0  2  0  0  0  0  0  0  0  0  0
   39.0723  -29.4845  -17.0633 N   0  0  0  0  0  0  0  0  0  0  0  0
   38.0728  -31.6903  -16.8315 C   0  0  0  0  0  0  0  0  0  0  0  0
   37.2369  -31.6258  -17.7795 O   0  0  0  0  0  0  0  0  0  0  0  0
   38.4931  -33.0226  -16.4881 N   0  0  0  0  0  0  0  0  0  0  0  0
   37.9134  -34.1763  -17.1433 C   0  0  1  0  0  0  0  0  0  0  0  0
   38.9635  -34.8912  -17.9964 C   0  0  0  0  0  0  0  0  0  0  0  0
   38.8340  -34.5114  -19.4173 C   0  0  0  0  0  0  0  0  0  0  0  0
   39.4180  -33.4655  -20.1108 C   0  0  0  0  0  0  0  0  0  0  0  0
   39.0335  -33.4721  -21.4008 N   0  0  0  0  0  0  0  0  0  0  0  0
   38.2022  -34.5157  -21.5520 C   0  0  0  0  0  0  0  0  0  0  0  0
   37.5248  -34.9759  -22.6743 C   0  0  0  0  0  0  0  0  0  0  0  0
   36.7069  -36.0999  -22.5745 C   0  0  0  0  0  0  0  0  0  0  0  0
   36.5794  -36.7422  -21.3627 C   0  0  0  0  0  0  0  0  0  0  0  0
   37.2633  -36.2741  -20.2382 C   0  0  0  0  0  0  0  0  0  0  0  0
   38.0574  -35.1758  -20.3536 C   0  0  0  0  0  0  0  0  0  0  0  0
   37.3156  -35.1282  -16.1669 C   0  0  0  0  0  0  0  0  0  0  0  0
   36.6404  -36.2721  -16.5925 O   0  0  0  0  0  0  0  0  0  0  0  0
   37.4111  -34.9132  -14.9350 O   0  0  0  0  0  0  0  0  0  0  0  0
  2  1  1  0
  3  2  1  0
  4  5  1  0
  4  3  1  0
  5  6  1  1
  7  5  1  0
  8  7  2  0
  9 10  1  0
 10 12  1  0
 10 11  2  0
 13 12  1  6
 13 14  1  0
 14  7  1  0
 15 13  1  0
 15 16  2  0
 17 15  1  0
 18 17  1  0
 18 19  1  1
 20 19  1  0
 20 21  2  0
 22 21  1  0
 23 22  1  0
 24 23  2  0
 25 24  1  0
 26 25  2  0
 26 27  1  0
 27 28  2  0
 28 23  1  0
 28 20  1  0
 29 18  1  0
 30 29  1  0
 31 29  2  0
M  END
$$$$
