MNW.pdb
     RDKit          3D

 31 32  0  0  1  0  0  0  0  0999 V2000
   29.7045  -18.9970   -8.1771 C   0  0  0  0  0  0  0  0  0  0  0  0
   29.9032  -20.7773   -8.4065 S   0  0  0  0  0  0  0  0  0  0  0  0
   30.7165  -21.1883   -9.9486 C   0  0  0  0  0  0  0  0  0  0  0  0
   30.0478  -20.4727  -11.1117 C   0  0  0  0  0  0  0  0  0  0  0  0
   28.9282  -21.3426  -11.6961 C   0  0  2  0  0  0  0  0  0  0  0  0
   29.5359  -22.6255  -11.9820 N   0  0  0  0  0  0  0  0  0  0  0  0
   28.5145  -20.6973  -12.9688 C   0  0  0  0  0  0  0  0  0  0  0  0
   27.9769  -19.5448  -12.9829 O   0  0  0  0  0  0  0  0  0  0  0  0
   29.4556  -23.8255  -16.6725 N   0  0  0  0  0  0  0  0  0  0  0  0
   29.1598  -22.4619  -16.8994 C   0  0  0  0  0  0  0  0  0  0  0  0
   30.1243  -21.8070  -17.4718 O   0  0  0  0  0  0  0  0  0  0  0  0
   27.9166  -21.7622  -16.5581 C   0  0  0  0  0  0  0  0  0  0  0  0
   28.1380  -20.7735  -15.4528 C   0  0  2  0  0  0  0  0  0  0  0  0
   28.7010  -21.3412  -14.2468 N   0  0  0  0  0  0  0  0  0  0  0  0
   26.8746  -20.0404  -15.1902 C   0  0  0  0  0  0  0  0  0  0  0  0
   26.8152  -19.0815  -14.3664 O   0  0  0  0  0  0  0  0  0  0  0  0
   25.6299  -20.3554  -15.8392 N   0  0  0  0  0  0  0  0  0  0  0  0
   24.4467  -20.6669  -15.0650 C   0  0  1  0  0  0  0  0  0  0  0  0
   24.7372  -21.7969  -14.0748 C   0  0  0  0  0  0  0  0  0  0  0  0
   24.1257  -21.5148  -12.7609 C   0  0  0  0  0  0  0  0  0  0  0  0
   22.7935  -21.3562  -12.4203 C   0  0  0  0  0  0  0  0  0  0  0  0
   22.6620  -21.1066  -11.1041 N   0  0  0  0  0  0  0  0  0  0  0  0
   23.9003  -21.1014  -10.5851 C   0  0  0  0  0  0  0  0  0  0  0  0
   24.3324  -20.8946   -9.2809 C   0  0  0  0  0  0  0  0  0  0  0  0
   25.6945  -20.9399   -8.9894 C   0  0  0  0  0  0  0  0  0  0  0  0
   26.5977  -21.1894   -9.9991 C   0  0  0  0  0  0  0  0  0  0  0  0
   26.1564  -21.3964  -11.3082 C   0  0  0  0  0  0  0  0  0  0  0  0
   24.8234  -21.3488  -11.5748 C   0  0  0  0  0  0  0  0  0  0  0  0
   23.9268  -19.4749  -14.3401 C   0  0  0  0  0  0  0  0  0  0  0  0
   22.5674  -19.3339  -14.0613 O   0  0  0  0  0  0  0  0  0  0  0  0
   24.7113  -18.5708  -13.9660 O   0  0  0  0  0  0  0  0  0  0  0  0
  2  1  1  0
  3  2  1  0
  4  5  1  0
  4  3  1  0
  5  6  1  6
  7  5  1  0
  8  7  2  0
  9 10  1  0
 10 12  1  0
 10 11  2  0
 13 12  1  6
 13 14  1  0
 14  7  1  0
 15 13  1  0
 15 16  2  0
 17 15  1  0
 18 17  1  0
 18 19  1  1
 20 19  1  0
 20 21  2  0
 22 21  1  0
 23 22  1  0
 24 23  2  0
 25 24  1  0
 26 25  2  0
 26 27  1  0
 27 28  2  0
 28 23  1  0
 28 20  1  0
 29 18  1  0
 30 29  1  0
 31 29  2  0
M  END
$$$$
