MNW.pdb
     RDKit          3D

 31 32  0  0  1  0  0  0  0  0999 V2000
   31.4579  -16.4504  -16.8063 C   0  0  0  0  0  0  0  0  0  0  0  0
   30.5570  -16.8807  -18.3113 S   0  0  0  0  0  0  0  0  0  0  0  0
   28.9214  -17.5289  -17.9754 C   0  0  0  0  0  0  0  0  0  0  0  0
   28.6509  -17.5457  -16.4793 C   0  0  0  0  0  0  0  0  0  0  0  0
   28.0916  -18.9098  -16.0570 C   0  0  2  0  0  0  0  0  0  0  0  0
   27.0142  -19.1959  -16.9814 N   0  0  0  0  0  0  0  0  0  0  0  0
   27.5360  -18.7323  -14.6906 C   0  0  0  0  0  0  0  0  0  0  0  0
   27.9664  -17.8221  -13.9136 O   0  0  0  0  0  0  0  0  0  0  0  0
   22.6294  -20.8963  -12.4831 N   0  0  0  0  0  0  0  0  0  0  0  0
   23.6870  -20.3223  -13.2250 C   0  0  0  0  0  0  0  0  0  0  0  0
   24.0073  -20.9990  -14.2863 O   0  0  0  0  0  0  0  0  0  0  0  0
   24.4150  -19.0885  -12.9099 C   0  0  0  0  0  0  0  0  0  0  0  0
   25.8952  -19.3259  -12.8813 C   0  0  2  0  0  0  0  0  0  0  0  0
   26.4853  -19.5786  -14.1782 N   0  0  0  0  0  0  0  0  0  0  0  0
   26.2005  -20.4034  -11.9073 C   0  0  0  0  0  0  0  0  0  0  0  0
   26.3291  -21.6112  -12.2628 O   0  0  0  0  0  0  0  0  0  0  0  0
   26.3709  -20.1683  -10.4983 N   0  0  0  0  0  0  0  0  0  0  0  0
   26.4021  -21.2706   -9.5599 C   0  0  1  0  0  0  0  0  0  0  0  0
   27.7059  -21.2549   -8.7590 C   0  0  0  0  0  0  0  0  0  0  0  0
   27.6804  -20.1927   -7.7337 C   0  0  0  0  0  0  0  0  0  0  0  0
   26.9636  -19.0090   -7.7031 C   0  0  0  0  0  0  0  0  0  0  0  0
   27.2306  -18.3162   -6.5802 N   0  0  0  0  0  0  0  0  0  0  0  0
   28.1171  -19.0412   -5.8792 C   0  0  0  0  0  0  0  0  0  0  0  0
   28.7223  -18.7897   -4.6541 C   0  0  0  0  0  0  0  0  0  0  0  0
   29.6238  -19.7126   -4.1270 C   0  0  0  0  0  0  0  0  0  0  0  0
   29.9047  -20.8648   -4.8277 C   0  0  0  0  0  0  0  0  0  0  0  0
   29.2927  -21.1113   -6.0589 C   0  0  0  0  0  0  0  0  0  0  0  0
   28.4153  -20.1998   -6.5585 C   0  0  0  0  0  0  0  0  0  0  0  0
   25.2354  -21.2468   -8.6353 C   0  0  0  0  0  0  0  0  0  0  0  0
   24.2871  -20.2254   -8.6933 O   0  0  0  0  0  0  0  0  0  0  0  0
   25.0867  -22.1536   -7.7818 O   0  0  0  0  0  0  0  0  0  0  0  0
  2  1  1  0
  3  2  1  0
  4  5  1  0
  4  3  1  0
  5  6  1  6
  7  5  1  0
  8  7  2  0
  9 10  1  0
 10 12  1  0
 10 11  2  0
 13 12  1  6
 13 14  1  0
 14  7  1  0
 15 13  1  0
 15 16  2  0
 17 15  1  0
 18 17  1  0
 18 19  1  1
 20 19  1  0
 20 21  2  0
 22 21  1  0
 23 22  1  0
 24 23  2  0
 25 24  1  0
 26 25  2  0
 26 27  1  0
 27 28  2  0
 28 23  1  0
 28 20  1  0
 29 18  1  0
 30 29  1  0
 31 29  2  0
M  END
$$$$
