MNW.pdb
     RDKit          3D

 31 32  0  0  1  0  0  0  0  0999 V2000
   31.8905  -17.2168  -20.2158 C   0  0  0  0  0  0  0  0  0  0  0  0
   30.8803  -15.8435  -19.6198 S   0  0  0  0  0  0  0  0  0  0  0  0
   30.5444  -15.9449  -17.8633 C   0  0  0  0  0  0  0  0  0  0  0  0
   29.1483  -16.4949  -17.6179 C   0  0  0  0  0  0  0  0  0  0  0  0
   29.2169  -17.7297  -16.7110 C   0  0  2  0  0  0  0  0  0  0  0  0
   29.8209  -18.7732  -17.5131 N   0  0  0  0  0  0  0  0  0  0  0  0
   27.8128  -18.0991  -16.3958 C   0  0  0  0  0  0  0  0  0  0  0  0
   27.0336  -17.2912  -15.7977 O   0  0  0  0  0  0  0  0  0  0  0  0
   25.5018  -19.3822  -20.0130 N   0  0  0  0  0  0  0  0  0  0  0  0
   25.1058  -19.1690  -18.6728 C   0  0  0  0  0  0  0  0  0  0  0  0
   24.7459  -17.9463  -18.4233 O   0  0  0  0  0  0  0  0  0  0  0  0
   25.0705  -20.1648  -17.5964 C   0  0  0  0  0  0  0  0  0  0  0  0
   25.8957  -19.7245  -16.4246 C   0  0  2  0  0  0  0  0  0  0  0  0
   27.2642  -19.3859  -16.7506 N   0  0  0  0  0  0  0  0  0  0  0  0
   25.8118  -20.7482  -15.3533 C   0  0  0  0  0  0  0  0  0  0  0  0
   26.4721  -21.8267  -15.4039 O   0  0  0  0  0  0  0  0  0  0  0  0
   24.9834  -20.6029  -14.1861 N   0  0  0  0  0  0  0  0  0  0  0  0
   24.9409  -21.6358  -13.1722 C   0  0  1  0  0  0  0  0  0  0  0  0
   26.2541  -21.6693  -12.3872 C   0  0  0  0  0  0  0  0  0  0  0  0
   26.0902  -21.0404  -11.0614 C   0  0  0  0  0  0  0  0  0  0  0  0
   24.9739  -20.4520  -10.4927 C   0  0  0  0  0  0  0  0  0  0  0  0
   25.2505  -19.9945   -9.2573 N   0  0  0  0  0  0  0  0  0  0  0  0
   26.5402  -20.2809   -9.0177 C   0  0  0  0  0  0  0  0  0  0  0  0
   27.3289  -20.0309   -7.9016 C   0  0  0  0  0  0  0  0  0  0  0  0
   28.6633  -20.4331   -7.8949 C   0  0  0  0  0  0  0  0  0  0  0  0
   29.1853  -21.0745   -8.9965 C   0  0  0  0  0  0  0  0  0  0  0  0
   28.3866  -21.3226  -10.1154 C   0  0  0  0  0  0  0  0  0  0  0  0
   27.0864  -20.9234  -10.1048 C   0  0  0  0  0  0  0  0  0  0  0  0
   23.7943  -21.4533  -12.2403 C   0  0  0  0  0  0  0  0  0  0  0  0
   23.3380  -22.5014  -11.4409 O   0  0  0  0  0  0  0  0  0  0  0  0
   23.2156  -20.3435  -12.1597 O   0  0  0  0  0  0  0  0  0  0  0  0
  2  1  1  0
  3  2  1  0
  4  5  1  0
  4  3  1  0
  5  6  1  6
  7  5  1  0
  8  7  2  0
  9 10  1  0
 10 12  1  0
 10 11  2  0
 13 12  1  6
 13 14  1  0
 14  7  1  0
 15 13  1  0
 15 16  2  0
 17 15  1  0
 18 17  1  0
 18 19  1  1
 20 19  1  0
 20 21  2  0
 22 21  1  0
 23 22  1  0
 24 23  2  0
 25 24  1  0
 26 25  2  0
 26 27  1  0
 27 28  2  0
 28 23  1  0
 28 20  1  0
 29 18  1  0
 30 29  1  0
 31 29  2  0
M  END
$$$$
