MNW.pdb
     RDKit          3D

 31 32  0  0  1  0  0  0  0  0999 V2000
   27.1954  -14.3968  -16.3178 C   0  0  0  0  0  0  0  0  0  0  0  0
   27.5910  -15.1682  -17.9021 S   0  0  0  0  0  0  0  0  0  0  0  0
   27.7484  -16.9485  -17.7830 C   0  0  0  0  0  0  0  0  0  0  0  0
   26.7489  -17.5069  -16.7825 C   0  0  0  0  0  0  0  0  0  0  0  0
   27.4846  -18.1893  -15.6228 C   0  0  2  0  0  0  0  0  0  0  0  0
   28.3562  -19.1710  -16.2339 N   0  0  0  0  0  0  0  0  0  0  0  0
   26.4474  -18.8833  -14.8166 C   0  0  0  0  0  0  0  0  0  0  0  0
   25.2082  -18.7284  -15.0568 O   0  0  0  0  0  0  0  0  0  0  0  0
   25.6680  -23.9294  -13.7181 N   0  0  0  0  0  0  0  0  0  0  0  0
   26.2708  -23.3135  -14.8388 C   0  0  0  0  0  0  0  0  0  0  0  0
   26.4342  -24.1134  -15.8488 O   0  0  0  0  0  0  0  0  0  0  0  0
   26.7048  -21.9167  -14.9480 C   0  0  0  0  0  0  0  0  0  0  0  0
   26.3464  -21.1408  -13.7160 C   0  0  2  0  0  0  0  0  0  0  0  0
   26.7912  -19.7639  -13.7261 N   0  0  0  0  0  0  0  0  0  0  0  0
   26.8240  -21.8750  -12.5178 C   0  0  0  0  0  0  0  0  0  0  0  0
   28.0388  -22.1974  -12.3696 O   0  0  0  0  0  0  0  0  0  0  0  0
   25.9580  -22.2775  -11.4418 N   0  0  0  0  0  0  0  0  0  0  0  0
   25.8366  -21.4716  -10.2450 C   0  0  1  0  0  0  0  0  0  0  0  0
   27.1616  -21.4469   -9.4798 C   0  0  0  0  0  0  0  0  0  0  0  0
   27.0805  -20.5403   -8.3172 C   0  0  0  0  0  0  0  0  0  0  0  0
   26.0526  -19.7044   -7.9165 C   0  0  0  0  0  0  0  0  0  0  0  0
   26.3848  -19.0410   -6.7934 N   0  0  0  0  0  0  0  0  0  0  0  0
   27.6229  -19.4393   -6.4599 C   0  0  0  0  0  0  0  0  0  0  0  0
   28.4348  -19.0695   -5.3948 C   0  0  0  0  0  0  0  0  0  0  0  0
   29.7022  -19.6343   -5.2640 C   0  0  0  0  0  0  0  0  0  0  0  0
   30.1357  -20.5537   -6.1936 C   0  0  0  0  0  0  0  0  0  0  0  0
   29.3143  -20.9210   -7.2621 C   0  0  0  0  0  0  0  0  0  0  0  0
   28.0803  -20.3600   -7.3743 C   0  0  0  0  0  0  0  0  0  0  0  0
   25.3995  -20.0820  -10.5525 C   0  0  0  0  0  0  0  0  0  0  0  0
   24.9333  -19.2317   -9.5498 O   0  0  0  0  0  0  0  0  0  0  0  0
   25.4441  -19.6511  -11.7295 O   0  0  0  0  0  0  0  0  0  0  0  0
  2  1  1  0
  3  2  1  0
  4  5  1  0
  4  3  1  0
  5  6  1  6
  7  5  1  0
  8  7  2  0
  9 10  1  0
 10 12  1  0
 10 11  2  0
 13 12  1  6
 13 14  1  0
 14  7  1  0
 15 13  1  0
 15 16  2  0
 17 15  1  0
 18 17  1  0
 18 19  1  6
 20 19  1  0
 20 21  2  0
 22 21  1  0
 23 22  1  0
 24 23  2  0
 25 24  1  0
 26 25  2  0
 26 27  1  0
 27 28  2  0
 28 23  1  0
 28 20  1  0
 29 18  1  0
 30 29  1  0
 31 29  2  0
M  END
$$$$
