MNW.pdb
     RDKit          3D

 31 32  0  0  1  0  0  0  0  0999 V2000
   29.6224  -24.3797  -15.3913 C   0  0  0  0  0  0  0  0  0  0  0  0
   30.0898  -23.0361  -16.5039 S   0  0  0  0  0  0  0  0  0  0  0  0
   28.7289  -21.9258  -16.8556 C   0  0  0  0  0  0  0  0  0  0  0  0
   28.1095  -21.4151  -15.5643 C   0  0  0  0  0  0  0  0  0  0  0  0
   26.8598  -20.5804  -15.8697 C   0  0  2  0  0  0  0  0  0  0  0  0
   27.3351  -19.3992  -16.5596 N   0  0  0  0  0  0  0  0  0  0  0  0
   26.2846  -20.1880  -14.5573 C   0  0  0  0  0  0  0  0  0  0  0  0
   26.7948  -19.2519  -13.8637 O   0  0  0  0  0  0  0  0  0  0  0  0
   22.8307  -18.9355  -14.5456 N   0  0  0  0  0  0  0  0  0  0  0  0
   22.3051  -19.8278  -13.5834 C   0  0  0  0  0  0  0  0  0  0  0  0
   21.0075  -19.8832  -13.5769 O   0  0  0  0  0  0  0  0  0  0  0  0
   23.0666  -20.6534  -12.6399 C   0  0  0  0  0  0  0  0  0  0  0  0
   24.5386  -20.3953  -12.7610 C   0  0  2  0  0  0  0  0  0  0  0  0
   25.1239  -20.8447  -14.0057 N   0  0  0  0  0  0  0  0  0  0  0  0
   25.2346  -20.9606  -11.5783 C   0  0  0  0  0  0  0  0  0  0  0  0
   25.5642  -22.1809  -11.5147 O   0  0  0  0  0  0  0  0  0  0  0  0
   25.5854  -20.1804  -10.4216 N   0  0  0  0  0  0  0  0  0  0  0  0
   26.0667  -20.8179   -9.2139 C   0  0  1  0  0  0  0  0  0  0  0  0
   27.2331  -20.0259   -8.6190 C   0  0  0  0  0  0  0  0  0  0  0  0
   27.5692  -20.5193   -7.2686 C   0  0  0  0  0  0  0  0  0  0  0  0
   27.3720  -21.7696   -6.7086 C   0  0  0  0  0  0  0  0  0  0  0  0
   27.8236  -21.8034   -5.4409 N   0  0  0  0  0  0  0  0  0  0  0  0
   28.3137  -20.5827   -5.1716 C   0  0  0  0  0  0  0  0  0  0  0  0
   28.8971  -20.0782   -4.0159 C   0  0  0  0  0  0  0  0  0  0  0  0
   29.3336  -18.7551   -3.9837 C   0  0  0  0  0  0  0  0  0  0  0  0
   29.1812  -17.9618   -5.0995 C   0  0  0  0  0  0  0  0  0  0  0  0
   28.5938  -18.4755   -6.2581 C   0  0  0  0  0  0  0  0  0  0  0  0
   28.1735  -19.7691   -6.2721 C   0  0  0  0  0  0  0  0  0  0  0  0
   24.9876  -20.9751   -8.2003 C   0  0  0  0  0  0  0  0  0  0  0  0
   25.0463  -21.9760   -7.2305 O   0  0  0  0  0  0  0  0  0  0  0  0
   23.9998  -20.2024   -8.2036 O   0  0  0  0  0  0  0  0  0  0  0  0
  2  1  1  0
  3  2  1  0
  4  5  1  0
  4  3  1  0
  5  6  1  6
  7  5  1  0
  8  7  2  0
  9 10  1  0
 10 12  1  0
 10 11  2  0
 13 12  1  6
 13 14  1  0
 14  7  1  0
 15 13  1  0
 15 16  2  0
 17 15  1  0
 18 17  1  0
 18 19  1  1
 20 19  1  0
 20 21  2  0
 22 21  1  0
 23 22  1  0
 24 23  2  0
 25 24  1  0
 26 25  2  0
 26 27  1  0
 27 28  2  0
 28 23  1  0
 28 20  1  0
 29 18  1  0
 30 29  1  0
 31 29  2  0
M  END
$$$$
