MNW.pdb
     RDKit          3D

 31 32  0  0  1  0  0  0  0  0999 V2000
   19.7562  -21.6173  -19.7918 C   0  0  0  0  0  0  0  0  0  0  0  0
   19.6483  -19.9081  -19.2187 S   0  0  0  0  0  0  0  0  0  0  0  0
   21.2474  -19.2176  -18.8012 C   0  0  0  0  0  0  0  0  0  0  0  0
   22.2636  -20.3252  -18.5721 C   0  0  0  0  0  0  0  0  0  0  0  0
   22.8232  -20.2444  -17.1466 C   0  0  2  0  0  0  0  0  0  0  0  0
   23.6723  -19.0716  -17.1237 N   0  0  0  0  0  0  0  0  0  0  0  0
   23.6547  -21.4601  -16.9513 C   0  0  0  0  0  0  0  0  0  0  0  0
   23.8798  -22.2691  -17.9065 O   0  0  0  0  0  0  0  0  0  0  0  0
   28.7382  -20.2492  -14.9017 N   0  0  0  0  0  0  0  0  0  0  0  0
   27.8593  -20.7809  -15.8729 C   0  0  0  0  0  0  0  0  0  0  0  0
   28.4538  -21.4977  -16.7781 O   0  0  0  0  0  0  0  0  0  0  0  0
   26.4054  -20.5978  -15.9386 C   0  0  0  0  0  0  0  0  0  0  0  0
   25.6837  -21.8430  -15.5179 C   0  0  2  0  0  0  0  0  0  0  0  0
   24.2465  -21.7830  -15.6753 N   0  0  0  0  0  0  0  0  0  0  0  0
   26.0813  -22.1959  -14.1323 C   0  0  0  0  0  0  0  0  0  0  0  0
   27.2952  -22.2956  -13.7883 O   0  0  0  0  0  0  0  0  0  0  0  0
   25.1338  -22.4526  -13.0805 N   0  0  0  0  0  0  0  0  0  0  0  0
   25.0992  -21.6240  -11.8937 C   0  0  1  0  0  0  0  0  0  0  0  0
   26.2051  -22.0371  -10.9200 C   0  0  0  0  0  0  0  0  0  0  0  0
   26.1540  -21.2222   -9.6899 C   0  0  0  0  0  0  0  0  0  0  0  0
   25.0790  -20.5867   -9.0930 C   0  0  0  0  0  0  0  0  0  0  0  0
   25.4634  -19.9424   -7.9754 N   0  0  0  0  0  0  0  0  0  0  0  0
   26.7825  -20.1540   -7.8405 C   0  0  0  0  0  0  0  0  0  0  0  0
   27.6723  -19.7184   -6.8665 C   0  0  0  0  0  0  0  0  0  0  0  0
   29.0164  -20.0779   -6.9487 C   0  0  0  0  0  0  0  0  0  0  0  0
   29.4474  -20.8618   -7.9962 C   0  0  0  0  0  0  0  0  0  0  0  0
   28.5472  -21.2962   -8.9721 C   0  0  0  0  0  0  0  0  0  0  0  0
   27.2391  -20.9361   -8.8763 C   0  0  0  0  0  0  0  0  0  0  0  0
   25.2232  -20.1771  -12.2219 C   0  0  0  0  0  0  0  0  0  0  0  0
   26.0914  -19.7335  -13.2195 O   0  0  0  0  0  0  0  0  0  0  0  0
   24.5423  -19.3272  -11.5999 O   0  0  0  0  0  0  0  0  0  0  0  0
  2  1  1  0
  3  2  1  0
  4  5  1  0
  4  3  1  0
  5  6  1  6
  7  5  1  0
  8  7  2  0
  9 10  1  0
 10 12  1  0
 10 11  2  0
 13 12  1  1
 13 14  1  0
 14  7  1  0
 15 13  1  0
 15 16  2  0
 17 15  1  0
 18 17  1  0
 18 19  1  1
 20 19  1  0
 20 21  2  0
 22 21  1  0
 23 22  1  0
 24 23  2  0
 25 24  1  0
 26 25  2  0
 26 27  1  0
 27 28  2  0
 28 23  1  0
 28 20  1  0
 29 18  1  0
 30 29  1  0
 31 29  2  0
M  END
$$$$
