MNW.pdb
     RDKit          3D

 31 32  0  0  1  0  0  0  0  0999 V2000
   25.8355  -16.8631  -21.7683 C   0  0  0  0  0  0  0  0  0  0  0  0
   25.3007  -17.3732  -20.1205 S   0  0  0  0  0  0  0  0  0  0  0  0
   23.7237  -18.2223  -20.1384 C   0  0  0  0  0  0  0  0  0  0  0  0
   23.3271  -18.6411  -18.7316 C   0  0  0  0  0  0  0  0  0  0  0  0
   24.5194  -19.2860  -18.0145 C   0  0  2  0  0  0  0  0  0  0  0  0
   24.7632  -20.5360  -18.7038 N   0  0  0  0  0  0  0  0  0  0  0  0
   24.0736  -19.5667  -16.6253 C   0  0  0  0  0  0  0  0  0  0  0  0
   23.5675  -18.6565  -15.8954 O   0  0  0  0  0  0  0  0  0  0  0  0
   20.6721  -22.0498  -14.7894 N   0  0  0  0  0  0  0  0  0  0  0  0
   21.9038  -22.6506  -15.1369 C   0  0  0  0  0  0  0  0  0  0  0  0
   21.8345  -23.4145  -16.1849 O   0  0  0  0  0  0  0  0  0  0  0  0
   23.1874  -22.4901  -14.4454 C   0  0  0  0  0  0  0  0  0  0  0  0
   23.7598  -21.1238  -14.6773 C   0  0  2  0  0  0  0  0  0  0  0  0
   24.1910  -20.8791  -16.0367 N   0  0  0  0  0  0  0  0  0  0  0  0
   24.8411  -20.8715  -13.6925 C   0  0  0  0  0  0  0  0  0  0  0  0
   26.0455  -21.1830  -13.9252 O   0  0  0  0  0  0  0  0  0  0  0  0
   24.6132  -20.2627  -12.4090 N   0  0  0  0  0  0  0  0  0  0  0  0
   25.6966  -20.0971  -11.4628 C   0  0  1  0  0  0  0  0  0  0  0  0
   25.2676  -19.1832  -10.3127 C   0  0  0  0  0  0  0  0  0  0  0  0
   26.4060  -18.8947   -9.4178 C   0  0  0  0  0  0  0  0  0  0  0  0
   27.3742  -17.9096   -9.5065 C   0  0  0  0  0  0  0  0  0  0  0  0
   28.2400  -17.9949   -8.4794 N   0  0  0  0  0  0  0  0  0  0  0  0
   27.8420  -19.0297   -7.7221 C   0  0  0  0  0  0  0  0  0  0  0  0
   28.3778  -19.5508   -6.5508 C   0  0  0  0  0  0  0  0  0  0  0  0
   27.7722  -20.6493   -5.9434 C   0  0  0  0  0  0  0  0  0  0  0  0
   26.6481  -21.2064   -6.5123 C   0  0  0  0  0  0  0  0  0  0  0  0
   26.1148  -20.6775   -7.6901 C   0  0  0  0  0  0  0  0  0  0  0  0
   26.7185  -19.6051   -8.2694 C   0  0  0  0  0  0  0  0  0  0  0  0
   26.1710  -21.4026  -10.9268 C   0  0  0  0  0  0  0  0  0  0  0  0
   27.5312  -21.6678  -10.7676 O   0  0  0  0  0  0  0  0  0  0  0  0
   25.3466  -22.2921  -10.6077 O   0  0  0  0  0  0  0  0  0  0  0  0
  2  1  1  0
  3  2  1  0
  4  5  1  0
  4  3  1  0
  5  6  1  6
  7  5  1  0
  8  7  2  0
  9 10  1  0
 10 12  1  0
 10 11  2  0
 13 12  1  6
 13 14  1  0
 14  7  1  0
 15 13  1  0
 15 16  2  0
 17 15  1  0
 18 17  1  0
 18 19  1  1
 20 19  1  0
 20 21  2  0
 22 21  1  0
 23 22  1  0
 24 23  2  0
 25 24  1  0
 26 25  2  0
 26 27  1  0
 27 28  2  0
 28 23  1  0
 28 20  1  0
 29 18  1  0
 30 29  1  0
 31 29  2  0
M  END
$$$$
