MNW.pdb
     RDKit          3D

 31 32  0  0  1  0  0  0  0  0999 V2000
   29.0145  -17.1473  -20.1973 C   0  0  0  0  0  0  0  0  0  0  0  0
   30.1730  -16.8251  -18.8498 S   0  0  0  0  0  0  0  0  0  0  0  0
   30.0744  -18.0502  -17.5467 C   0  0  0  0  0  0  0  0  0  0  0  0
   28.6262  -18.4275  -17.2776 C   0  0  0  0  0  0  0  0  0  0  0  0
   28.5442  -19.4107  -16.1035 C   0  0  2  0  0  0  0  0  0  0  0  0
   29.4692  -20.4789  -16.4200 N   0  0  0  0  0  0  0  0  0  0  0  0
   27.1574  -19.9439  -16.0970 C   0  0  0  0  0  0  0  0  0  0  0  0
   26.1535  -19.1768  -15.9509 O   0  0  0  0  0  0  0  0  0  0  0  0
   26.1547  -25.4037  -15.8944 N   0  0  0  0  0  0  0  0  0  0  0  0
   26.3470  -24.1376  -16.4932 C   0  0  0  0  0  0  0  0  0  0  0  0
   27.5929  -23.8536  -16.7247 O   0  0  0  0  0  0  0  0  0  0  0  0
   25.3074  -23.1682  -16.8553 C   0  0  0  0  0  0  0  0  0  0  0  0
   25.5271  -21.8558  -16.1644 C   0  0  2  0  0  0  0  0  0  0  0  0
   26.8802  -21.3512  -16.2558 N   0  0  0  0  0  0  0  0  0  0  0  0
   25.0606  -21.9572  -14.7591 C   0  0  0  0  0  0  0  0  0  0  0  0
   23.8870  -22.3309  -14.4680 O   0  0  0  0  0  0  0  0  0  0  0  0
   25.8908  -21.6415  -13.6273 N   0  0  0  0  0  0  0  0  0  0  0  0
   25.3483  -21.6432  -12.2849 C   0  0  1  0  0  0  0  0  0  0  0  0
   26.4314  -22.0168  -11.2705 C   0  0  0  0  0  0  0  0  0  0  0  0
   26.3063  -21.2037  -10.0444 C   0  0  0  0  0  0  0  0  0  0  0  0
   25.1762  -20.6788   -9.4419 C   0  0  0  0  0  0  0  0  0  0  0  0
   25.5011  -19.9912   -8.3311 N   0  0  0  0  0  0  0  0  0  0  0  0
   26.8359  -20.0648   -8.2063 C   0  0  0  0  0  0  0  0  0  0  0  0
   27.6838  -19.5337   -7.2423 C   0  0  0  0  0  0  0  0  0  0  0  0
   29.0571  -19.7532   -7.3341 C   0  0  0  0  0  0  0  0  0  0  0  0
   29.5583  -20.4950   -8.3810 C   0  0  0  0  0  0  0  0  0  0  0  0
   28.7000  -21.0261   -9.3468 C   0  0  0  0  0  0  0  0  0  0  0  0
   27.3625  -20.8022   -9.2417 C   0  0  0  0  0  0  0  0  0  0  0  0
   24.7459  -20.3296  -11.9270 C   0  0  0  0  0  0  0  0  0  0  0  0
   23.6690  -20.2440  -11.0446 O   0  0  0  0  0  0  0  0  0  0  0  0
   25.2021  -19.2700  -12.4189 O   0  0  0  0  0  0  0  0  0  0  0  0
  2  1  1  0
  3  2  1  0
  4  5  1  0
  4  3  1  0
  5  6  1  6
  7  5  1  0
  8  7  2  0
  9 10  1  0
 10 12  1  0
 10 11  2  0
 13 12  1  1
 13 14  1  0
 14  7  1  0
 15 13  1  0
 15 16  2  0
 17 15  1  0
 18 17  1  0
 18 19  1  1
 20 19  1  0
 20 21  2  0
 22 21  1  0
 23 22  1  0
 24 23  2  0
 25 24  1  0
 26 25  2  0
 26 27  1  0
 27 28  2  0
 28 23  1  0
 28 20  1  0
 29 18  1  0
 30 29  1  0
 31 29  2  0
M  END
$$$$
