MNW.pdb
     RDKit          3D

 31 32  0  0  1  0  0  0  0  0999 V2000
   27.2836  -18.1680  -14.2600 C   0  0  0  0  0  0  0  0  0  0  0  0
   26.3127  -16.7318  -14.7662 S   0  0  0  0  0  0  0  0  0  0  0  0
   26.7484  -16.1454  -16.4016 C   0  0  0  0  0  0  0  0  0  0  0  0
   25.9851  -14.8729  -16.7332 C   0  0  0  0  0  0  0  0  0  0  0  0
   24.4877  -15.0680  -16.4657 C   0  0  2  0  0  0  0  0  0  0  0  0
   24.0944  -16.2175  -17.2537 N   0  0  0  0  0  0  0  0  0  0  0  0
   23.8055  -13.8553  -16.9864 C   0  0  0  0  0  0  0  0  0  0  0  0
   24.3735  -13.0832  -17.8224 O   0  0  0  0  0  0  0  0  0  0  0  0
   21.1304  -14.0478  -19.2167 N   0  0  0  0  0  0  0  0  0  0  0  0
   20.1482  -13.3564  -18.4712 C   0  0  0  0  0  0  0  0  0  0  0  0
   18.9320  -13.6067  -18.8518 O   0  0  0  0  0  0  0  0  0  0  0  0
   20.3789  -12.4268  -17.3603 C   0  0  0  0  0  0  0  0  0  0  0  0
   21.8427  -12.2872  -17.0666 C   0  0  2  0  0  0  0  0  0  0  0  0
   22.4710  -13.4936  -16.5730 N   0  0  0  0  0  0  0  0  0  0  0  0
   22.0526  -11.1336  -16.1568 C   0  0  0  0  0  0  0  0  0  0  0  0
   21.3457  -10.9594  -15.1215 O   0  0  0  0  0  0  0  0  0  0  0  0
   23.0608  -10.1306  -16.3740 N   0  0  0  0  0  0  0  0  0  0  0  0
   23.1499   -8.9688  -15.5145 C   0  0  1  0  0  0  0  0  0  0  0  0
   24.5139   -8.9182  -14.8226 C   0  0  0  0  0  0  0  0  0  0  0  0
   25.6053   -9.1170  -15.7969 C   0  0  0  0  0  0  0  0  0  0  0  0
   26.0063   -8.3166  -16.8525 C   0  0  0  0  0  0  0  0  0  0  0  0
   27.0503   -8.8660  -17.5007 N   0  0  0  0  0  0  0  0  0  0  0  0
   27.3320  -10.0195  -16.8739 C   0  0  0  0  0  0  0  0  0  0  0  0
   28.3097  -10.9724  -17.1317 C   0  0  0  0  0  0  0  0  0  0  0  0
   28.4007  -12.1044  -16.3238 C   0  0  0  0  0  0  0  0  0  0  0  0
   27.5190  -12.2655  -15.2778 C   0  0  0  0  0  0  0  0  0  0  0  0
   26.5383  -11.3035  -15.0244 C   0  0  0  0  0  0  0  0  0  0  0  0
   26.4638  -10.2048  -15.8228 C   0  0  0  0  0  0  0  0  0  0  0  0
   22.9105   -7.7040  -16.2627 C   0  0  0  0  0  0  0  0  0  0  0  0
   22.8524   -7.6879  -17.6563 O   0  0  0  0  0  0  0  0  0  0  0  0
   22.7564   -6.6236  -15.6448 O   0  0  0  0  0  0  0  0  0  0  0  0
  2  1  1  0
  3  2  1  0
  4  5  1  0
  4  3  1  0
  5  6  1  6
  7  5  1  0
  8  7  2  0
  9 10  1  0
 10 12  1  0
 10 11  2  0
 13 12  1  1
 13 14  1  0
 14  7  1  0
 15 13  1  0
 15 16  2  0
 17 15  1  0
 18 17  1  0
 18 19  1  6
 20 19  1  0
 20 21  2  0
 22 21  1  0
 23 22  1  0
 24 23  2  0
 25 24  1  0
 26 25  2  0
 26 27  1  0
 27 28  2  0
 28 23  1  0
 28 20  1  0
 29 18  1  0
 30 29  1  0
 31 29  2  0
M  END
$$$$
