TIV.pdb
     RDKit          3D

 23 22  0  0  1  0  0  0  0  0999 V2000
    9.3623  -18.8349   20.2584 C   0  0  0  0  0  0  0  0  0  0  0  0
    9.5234  -17.9200   21.4306 C   0  0  1  0  0  0  0  0  0  0  0  0
   10.8339  -18.0254   21.8749 O   0  0  0  0  0  0  0  0  0  0  0  0
    9.1266  -16.5172   21.1097 C   0  0  2  0  0  0  0  0  0  0  0  0
    9.8653  -16.0255   19.9571 N   0  0  0  0  0  0  0  0  0  0  0  0
    9.2614  -15.5863   22.2409 C   0  0  0  0  0  0  0  0  0  0  0  0
   10.2209  -14.7881   22.2503 O   0  0  0  0  0  0  0  0  0  0  0  0
    6.0194  -12.3347   26.0540 C   0  0  0  0  0  0  0  0  0  0  0  0
    7.3061  -13.0806   25.8100 C   0  0  0  0  0  0  0  0  0  0  0  0
    7.1259  -14.2193   24.7952 C   0  0  2  0  0  0  0  0  0  0  0  0
    6.2835  -15.2471   25.4961 C   0  0  0  0  0  0  0  0  0  0  0  0
    8.5010  -14.6668   24.4245 C   0  0  2  0  0  0  0  0  0  0  0  0
    8.3277  -15.5930   23.2967 N   0  0  0  0  0  0  0  0  0  0  0  0
    9.2513  -15.3680   25.4746 C   0  0  0  0  0  0  0  0  0  0  0  0
    9.7497  -16.5056   25.1746 O   0  0  0  0  0  0  0  0  0  0  0  0
   11.4717  -15.3799   29.9315 C   0  0  0  0  0  0  0  0  0  0  0  0
   10.5397  -14.7321   28.9591 C   0  0  1  0  0  0  0  0  0  0  0  0
   11.0534  -13.3825   28.4909 C   0  0  0  0  0  0  0  0  0  0  0  0
   10.3164  -15.5613   27.7101 C   0  0  2  0  0  0  0  0  0  0  0  0
    9.4437  -14.8534   26.7697 N   0  0  0  0  0  0  0  0  0  0  0  0
    9.7291  -16.8903   28.0138 C   0  0  0  0  0  0  0  0  0  0  0  0
   10.5037  -18.0321   28.1579 O   0  0  0  0  0  0  0  0  0  0  0  0
    8.4718  -17.0512   28.1589 O   0  0  0  0  0  0  0  0  0  0  0  0
  2  3  1  0
  2  1  1  6
  4  2  1  0
  4  5  1  6
  6  4  1  0
  6 13  1  0
  7  6  2  0
  8  9  1  0
 10 11  1  1
 10 12  1  0
 10  9  1  0
 12 13  1  6
 14 12  1  0
 15 14  2  0
 17 16  1  1
 18 17  1  0
 19 20  1  6
 19 17  1  0
 20 14  1  0
 21 19  1  0
 22 21  1  0
 23 21  2  0
M  END
$$$$
