TIV.pdb
     RDKit          3D

 23 22  0  0  1  0  0  0  0  0999 V2000
    7.1721  -17.8316   20.1941 C   0  0  0  0  0  0  0  0  0  0  0  0
    7.7185  -17.2227   21.4462 C   0  0  1  0  0  0  0  0  0  0  0  0
    8.8187  -17.9723   21.8381 O   0  0  0  0  0  0  0  0  0  0  0  0
    8.0297  -15.7724   21.2786 C   0  0  2  0  0  0  0  0  0  0  0  0
    8.9198  -15.5656   20.1468 N   0  0  0  0  0  0  0  0  0  0  0  0
    8.5794  -15.1375   22.4866 C   0  0  0  0  0  0  0  0  0  0  0  0
    9.8087  -14.9306   22.5494 O   0  0  0  0  0  0  0  0  0  0  0  0
    6.8265  -11.6205   27.1717 C   0  0  0  0  0  0  0  0  0  0  0  0
    7.8090  -12.5702   26.5361 C   0  0  0  0  0  0  0  0  0  0  0  0
    7.2190  -13.2637   25.2992 C   0  0  2  0  0  0  0  0  0  0  0  0
    6.0169  -14.0136   25.7991 C   0  0  0  0  0  0  0  0  0  0  0  0
    8.3119  -14.1118   24.7377 C   0  0  2  0  0  0  0  0  0  0  0  0
    7.7378  -14.7694   23.5555 N   0  0  0  0  0  0  0  0  0  0  0  0
    8.8334  -15.1569   25.6283 C   0  0  0  0  0  0  0  0  0  0  0  0
    8.1120  -16.1991   25.7895 O   0  0  0  0  0  0  0  0  0  0  0  0
   12.6705  -17.5643   27.4622 C   0  0  0  0  0  0  0  0  0  0  0  0
   12.0511  -16.4550   26.6749 C   0  0  1  0  0  0  0  0  0  0  0  0
   12.1054  -16.7181   25.1809 C   0  0  0  0  0  0  0  0  0  0  0  0
   10.5919  -16.2291   27.0166 C   0  0  2  0  0  0  0  0  0  0  0  0
   10.0674  -15.0651   26.2973 N   0  0  0  0  0  0  0  0  0  0  0  0
   10.3771  -16.0392   28.4730 C   0  0  0  0  0  0  0  0  0  0  0  0
   10.3159  -17.1022   29.3622 O   0  0  0  0  0  0  0  0  0  0  0  0
   10.2368  -14.8791   28.9851 O   0  0  0  0  0  0  0  0  0  0  0  0
  2  3  1  0
  2  1  1  6
  4  2  1  0
  4  5  1  6
  6  4  1  0
  6 13  1  0
  7  6  2  0
  8  9  1  0
 10 11  1  1
 10 12  1  0
 10  9  1  0
 12 13  1  6
 14 12  1  0
 15 14  2  0
 17 16  1  1
 18 17  1  0
 19 20  1  6
 19 17  1  0
 20 14  1  0
 21 19  1  0
 22 21  1  0
 23 21  2  0
M  END
$$$$
