TIV.pdb
     RDKit          3D

 23 22  0  0  1  0  0  0  0  0999 V2000
   11.8980  -20.0720   20.7889 C   0  0  0  0  0  0  0  0  0  0  0  0
   11.4880  -18.9166   21.6457 C   0  0  1  0  0  0  0  0  0  0  0  0
   12.4229  -18.7897   22.6635 O   0  0  0  0  0  0  0  0  0  0  0  0
   11.3118  -17.6629   20.8549 C   0  0  2  0  0  0  0  0  0  0  0  0
   12.5109  -17.3679   20.0860 N   0  0  0  0  0  0  0  0  0  0  0  0
   10.9217  -16.4979   21.6642 C   0  0  0  0  0  0  0  0  0  0  0  0
   11.7683  -15.6067   21.8806 O   0  0  0  0  0  0  0  0  0  0  0  0
    6.7096  -13.6015   20.8657 C   0  0  0  0  0  0  0  0  0  0  0  0
    8.0419  -14.0909   21.3727 C   0  0  0  0  0  0  0  0  0  0  0  0
    7.9081  -14.8422   22.7055 C   0  0  2  0  0  0  0  0  0  0  0  0
    7.2570  -13.8691   23.6470 C   0  0  0  0  0  0  0  0  0  0  0  0
    9.2884  -15.2681   23.0826 C   0  0  2  0  0  0  0  0  0  0  0  0
    9.6180  -16.3867   22.1882 N   0  0  0  0  0  0  0  0  0  0  0  0
    9.4609  -15.7294   24.4664 C   0  0  0  0  0  0  0  0  0  0  0  0
    9.5761  -16.9883   24.6515 O   0  0  0  0  0  0  0  0  0  0  0  0
   10.4249  -14.7246   29.2519 C   0  0  0  0  0  0  0  0  0  0  0  0
    9.9277  -14.2734   27.9165 C   0  0  1  0  0  0  0  0  0  0  0  0
   10.7818  -13.1600   27.3375 C   0  0  0  0  0  0  0  0  0  0  0  0
    9.9138  -15.3828   26.8838 C   0  0  2  0  0  0  0  0  0  0  0  0
    9.5057  -14.8648   25.5752 N   0  0  0  0  0  0  0  0  0  0  0  0
    9.0140  -16.4990   27.2681 C   0  0  0  0  0  0  0  0  0  0  0  0
    7.6922  -16.5676   26.8525 O   0  0  0  0  0  0  0  0  0  0  0  0
    9.4138  -17.4598   28.0061 O   0  0  0  0  0  0  0  0  0  0  0  0
  2  3  1  0
  2  1  1  6
  4  2  1  0
  4  5  1  1
  6  4  1  0
  6 13  1  0
  7  6  2  0
  8  9  1  0
 10 11  1  1
 10 12  1  0
 10  9  1  0
 12 13  1  6
 14 12  1  0
 15 14  2  0
 17 16  1  1
 18 17  1  0
 19 20  1  6
 19 17  1  0
 20 14  1  0
 21 19  1  0
 22 21  1  0
 23 21  2  0
M  END
$$$$
