TIV.pdb
     RDKit          3D

 23 22  0  0  1  0  0  0  0  0999 V2000
    6.2367  -16.9647   20.2180 C   0  0  0  0  0  0  0  0  0  0  0  0
    7.0139  -16.6347   21.4526 C   0  0  1  0  0  0  0  0  0  0  0  0
    8.1127  -17.4810   21.5019 O   0  0  0  0  0  0  0  0  0  0  0  0
    7.3859  -15.1904   21.5153 C   0  0  2  0  0  0  0  0  0  0  0  0
    8.1434  -14.8035   20.3353 N   0  0  0  0  0  0  0  0  0  0  0  0
    8.1132  -14.8150   22.7379 C   0  0  0  0  0  0  0  0  0  0  0  0
    9.3431  -14.6148   22.6670 O   0  0  0  0  0  0  0  0  0  0  0  0
    6.1124  -11.4070   26.1180 C   0  0  0  0  0  0  0  0  0  0  0  0
    7.0717  -12.2908   25.3629 C   0  0  0  0  0  0  0  0  0  0  0  0
    7.3013  -13.6308   26.0774 C   0  0  2  0  0  0  0  0  0  0  0  0
    7.8688  -13.2728   27.4217 C   0  0  0  0  0  0  0  0  0  0  0  0
    8.2065  -14.4231   25.1933 C   0  0  2  0  0  0  0  0  0  0  0  0
    7.4380  -14.6839   23.9681 N   0  0  0  0  0  0  0  0  0  0  0  0
    8.6557  -15.7148   25.7292 C   0  0  0  0  0  0  0  0  0  0  0  0
    7.7518  -16.5521   26.0673 O   0  0  0  0  0  0  0  0  0  0  0  0
   11.5134  -18.0986   24.3973 C   0  0  0  0  0  0  0  0  0  0  0  0
   11.6248  -17.9095   25.8757 C   0  0  1  0  0  0  0  0  0  0  0  0
   12.7454  -16.9542   26.2445 C   0  0  0  0  0  0  0  0  0  0  0  0
   10.3620  -17.3479   26.4980 C   0  0  2  0  0  0  0  0  0  0  0  0
   10.0094  -16.0657   25.8825 N   0  0  0  0  0  0  0  0  0  0  0  0
   10.4902  -17.1649   27.9654 C   0  0  0  0  0  0  0  0  0  0  0  0
   10.4993  -18.2323   28.8515 O   0  0  0  0  0  0  0  0  0  0  0  0
   10.5995  -16.0074   28.4905 O   0  0  0  0  0  0  0  0  0  0  0  0
  2  3  1  0
  2  1  1  6
  4  2  1  0
  4  5  1  6
  6  4  1  0
  6 13  1  0
  7  6  2  0
  8  9  1  0
 10 11  1  1
 10 12  1  0
 10  9  1  0
 12 13  1  6
 14 12  1  0
 15 14  2  0
 17 16  1  6
 18 17  1  0
 19 20  1  6
 19 17  1  0
 20 14  1  0
 21 19  1  0
 22 21  1  0
 23 21  2  0
M  END
$$$$
