TIV.pdb
     RDKit          3D

 23 22  0  0  1  0  0  0  0  0999 V2000
    6.2596  -16.5367   20.0553 C   0  0  0  0  0  0  0  0  0  0  0  0
    6.9445  -16.3345   21.3695 C   0  0  1  0  0  0  0  0  0  0  0  0
    7.8877  -17.3419   21.5164 O   0  0  0  0  0  0  0  0  0  0  0  0
    7.5268  -14.9660   21.4971 C   0  0  2  0  0  0  0  0  0  0  0  0
    8.4053  -14.6751   20.3748 N   0  0  0  0  0  0  0  0  0  0  0  0
    8.2262  -14.7325   22.7703 C   0  0  0  0  0  0  0  0  0  0  0  0
    9.4741  -14.7048   22.7733 O   0  0  0  0  0  0  0  0  0  0  0  0
    6.2618  -11.3194   26.2740 C   0  0  0  0  0  0  0  0  0  0  0  0
    7.2337  -12.1935   25.5236 C   0  0  0  0  0  0  0  0  0  0  0  0
    7.3192  -13.6042   26.1248 C   0  0  2  0  0  0  0  0  0  0  0  0
    7.8098  -13.4082   27.5312 C   0  0  0  0  0  0  0  0  0  0  0  0
    8.2310  -14.3808   25.2336 C   0  0  2  0  0  0  0  0  0  0  0  0
    7.5049  -14.5443   23.9664 N   0  0  0  0  0  0  0  0  0  0  0  0
    8.6108  -15.7162   25.7129 C   0  0  0  0  0  0  0  0  0  0  0  0
    7.6836  -16.5913   25.7968 O   0  0  0  0  0  0  0  0  0  0  0  0
   12.5689  -17.1631   25.5783 C   0  0  0  0  0  0  0  0  0  0  0  0
   11.3350  -18.0064   25.5613 C   0  0  1  0  0  0  0  0  0  0  0  0
   11.6042  -19.4189   26.0478 C   0  0  0  0  0  0  0  0  0  0  0  0
   10.2288  -17.4554   26.4388 C   0  0  2  0  0  0  0  0  0  0  0  0
    9.9236  -16.0691   26.0751 N   0  0  0  0  0  0  0  0  0  0  0  0
   10.5711  -17.5164   27.8818 C   0  0  0  0  0  0  0  0  0  0  0  0
   10.8166  -16.3796   28.6382 O   0  0  0  0  0  0  0  0  0  0  0  0
   10.6577  -18.6263   28.5048 O   0  0  0  0  0  0  0  0  0  0  0  0
  2  3  1  0
  2  1  1  6
  4  2  1  0
  4  5  1  6
  6  4  1  0
  6 13  1  0
  7  6  2  0
  8  9  1  0
 10 11  1  1
 10 12  1  0
 10  9  1  0
 12 13  1  6
 14 12  1  0
 15 14  2  0
 17 16  1  1
 18 17  1  0
 19 20  1  6
 19 17  1  0
 20 14  1  0
 21 19  1  0
 22 21  1  0
 23 21  2  0
M  END
$$$$
