TIV.pdb
     RDKit          3D

 23 22  0  0  1  0  0  0  0  0999 V2000
    6.5235  -17.3755   21.9219 C   0  0  0  0  0  0  0  0  0  0  0  0
    7.2480  -16.4873   20.9611 C   0  0  1  0  0  0  0  0  0  0  0  0
    6.6797  -16.6646   19.7074 O   0  0  0  0  0  0  0  0  0  0  0  0
    7.2519  -15.0619   21.4042 C   0  0  2  0  0  0  0  0  0  0  0  0
    7.6816  -14.1891   20.3228 N   0  0  0  0  0  0  0  0  0  0  0  0
    8.0549  -14.8157   22.6122 C   0  0  0  0  0  0  0  0  0  0  0  0
    9.2915  -14.6922   22.4960 O   0  0  0  0  0  0  0  0  0  0  0  0
    6.2806  -11.5614   26.2989 C   0  0  0  0  0  0  0  0  0  0  0  0
    7.2202  -12.3917   25.4627 C   0  0  0  0  0  0  0  0  0  0  0  0
    7.4240  -13.7956   26.0511 C   0  0  2  0  0  0  0  0  0  0  0  0
    8.0400  -13.5746   27.4035 C   0  0  0  0  0  0  0  0  0  0  0  0
    8.2773  -14.5353   25.0746 C   0  0  2  0  0  0  0  0  0  0  0  0
    7.4437  -14.7215   23.8787 N   0  0  0  0  0  0  0  0  0  0  0  0
    8.7482  -15.8573   25.5082 C   0  0  0  0  0  0  0  0  0  0  0  0
    7.8653  -16.7665   25.6706 O   0  0  0  0  0  0  0  0  0  0  0  0
   12.2880  -19.2543   25.9042 C   0  0  0  0  0  0  0  0  0  0  0  0
   11.7738  -17.9284   25.4445 C   0  0  1  0  0  0  0  0  0  0  0  0
   11.4935  -17.9127   23.9527 C   0  0  0  0  0  0  0  0  0  0  0  0
   10.4816  -17.5253   26.1266 C   0  0  2  0  0  0  0  0  0  0  0  0
   10.1007  -16.1623   25.7465 N   0  0  0  0  0  0  0  0  0  0  0  0
   10.5749  -17.6105   27.6055 C   0  0  0  0  0  0  0  0  0  0  0  0
   10.3464  -18.7896   28.2999 O   0  0  0  0  0  0  0  0  0  0  0  0
   10.8723  -16.5956   28.3190 O   0  0  0  0  0  0  0  0  0  0  0  0
  2  3  1  0
  2  1  1  1
  4  2  1  0
  4  5  1  6
  6  4  1  0
  6 13  1  0
  7  6  2  0
  8  9  1  0
 10 11  1  1
 10 12  1  0
 10  9  1  0
 12 13  1  6
 14 12  1  0
 15 14  2  0
 17 16  1  1
 18 17  1  0
 19 20  1  1
 19 17  1  0
 20 14  1  0
 21 19  1  0
 22 21  1  0
 23 21  2  0
M  END
$$$$
