TIV.pdb
     RDKit          3D

 23 22  0  0  1  0  0  0  0  0999 V2000
    7.7263  -19.1930   19.0773 C   0  0  0  0  0  0  0  0  0  0  0  0
    8.1655  -18.8492   17.6895 C   0  0  1  0  0  0  0  0  0  0  0  0
    7.4214  -19.6182   16.8057 O   0  0  0  0  0  0  0  0  0  0  0  0
    8.0692  -17.3853   17.4140 C   0  0  2  0  0  0  0  0  0  0  0  0
    8.3817  -17.1032   16.0217 N   0  0  0  0  0  0  0  0  0  0  0  0
    8.8967  -16.5560   18.3039 C   0  0  0  0  0  0  0  0  0  0  0  0
   10.1121  -16.4304   18.0491 O   0  0  0  0  0  0  0  0  0  0  0  0
    6.6896  -13.2909   22.2901 C   0  0  0  0  0  0  0  0  0  0  0  0
    7.1246  -14.2670   21.2273 C   0  0  0  0  0  0  0  0  0  0  0  0
    8.4684  -13.8699   20.5987 C   0  0  2  0  0  0  0  0  0  0  0  0
    8.1152  -13.0660   19.3795 C   0  0  0  0  0  0  0  0  0  0  0  0
    9.1957  -15.1462   20.3324 C   0  0  2  0  0  0  0  0  0  0  0  0
    8.3322  -15.9145   19.4247 N   0  0  0  0  0  0  0  0  0  0  0  0
    9.4739  -15.9821   21.5077 C   0  0  0  0  0  0  0  0  0  0  0  0
    8.6272  -16.8977   21.7858 O   0  0  0  0  0  0  0  0  0  0  0  0
   13.3443  -15.9497   23.3694 C   0  0  0  0  0  0  0  0  0  0  0  0
   12.5288  -17.1620   23.0544 C   0  0  1  0  0  0  0  0  0  0  0  0
   12.8629  -18.3264   23.9692 C   0  0  0  0  0  0  0  0  0  0  0  0
   11.0380  -16.9250   23.1911 C   0  0  2  0  0  0  0  0  0  0  0  0
   10.6086  -15.8244   22.3241 N   0  0  0  0  0  0  0  0  0  0  0  0
   10.6409  -16.6265   24.5899 C   0  0  0  0  0  0  0  0  0  0  0  0
   10.5852  -17.6033   25.5734 O   0  0  0  0  0  0  0  0  0  0  0  0
   10.3283  -15.4468   24.9618 O   0  0  0  0  0  0  0  0  0  0  0  0
  2  3  1  0
  2  1  1  1
  4  2  1  0
  4  5  1  6
  6  4  1  0
  6 13  1  0
  7  6  2  0
  8  9  1  0
 10 11  1  6
 10 12  1  0
 10  9  1  0
 12 13  1  6
 14 12  1  0
 15 14  2  0
 17 16  1  1
 18 17  1  0
 19 20  1  6
 19 17  1  0
 20 14  1  0
 21 19  1  0
 22 21  1  0
 23 21  2  0
M  END
$$$$
