TIV.pdb
     RDKit          3D

 23 22  0  0  1  0  0  0  0  0999 V2000
    6.3871  -16.7696   20.2810 C   0  0  0  0  0  0  0  0  0  0  0  0
    7.1019  -16.4742   21.5612 C   0  0  1  0  0  0  0  0  0  0  0  0
    8.1683  -17.3561   21.6657 O   0  0  0  0  0  0  0  0  0  0  0  0
    7.5156  -15.0433   21.6587 C   0  0  2  0  0  0  0  0  0  0  0  0
    8.3318  -14.6657   20.5154 N   0  0  0  0  0  0  0  0  0  0  0  0
    8.2042  -14.7064   22.9145 C   0  0  0  0  0  0  0  0  0  0  0  0
    9.4462  -14.5824   22.9034 O   0  0  0  0  0  0  0  0  0  0  0  0
    5.8078  -11.3708   26.2405 C   0  0  0  0  0  0  0  0  0  0  0  0
    6.8557  -12.1594   25.4980 C   0  0  0  0  0  0  0  0  0  0  0  0
    7.1892  -13.4806   26.2067 C   0  0  2  0  0  0  0  0  0  0  0  0
    7.6779  -13.0873   27.5719 C   0  0  0  0  0  0  0  0  0  0  0  0
    8.1927  -14.1725   25.3448 C   0  0  2  0  0  0  0  0  0  0  0  0
    7.4794  -14.5275   24.1099 N   0  0  0  0  0  0  0  0  0  0  0  0
    8.7752  -15.4012   25.8999 C   0  0  0  0  0  0  0  0  0  0  0  0
    7.9794  -16.3763   26.1199 O   0  0  0  0  0  0  0  0  0  0  0  0
   12.1090  -17.2725   24.7744 C   0  0  0  0  0  0  0  0  0  0  0  0
   12.0342  -17.1092   26.2582 C   0  0  1  0  0  0  0  0  0  0  0  0
   12.9097  -15.9710   26.7504 C   0  0  0  0  0  0  0  0  0  0  0  0
   10.6318  -16.8143   26.7518 C   0  0  2  0  0  0  0  0  0  0  0  0
   10.1430  -15.5509   26.1931 N   0  0  0  0  0  0  0  0  0  0  0  0
   10.5571  -16.7531   28.2330 C   0  0  0  0  0  0  0  0  0  0  0  0
   10.5660  -17.8905   29.0272 O   0  0  0  0  0  0  0  0  0  0  0  0
   10.4803  -15.6424   28.8560 O   0  0  0  0  0  0  0  0  0  0  0  0
  2  3  1  0
  2  1  1  6
  4  2  1  0
  4  5  1  6
  6  4  1  0
  6 13  1  0
  7  6  2  0
  8  9  1  0
 10 11  1  1
 10 12  1  0
 10  9  1  0
 12 13  1  6
 14 12  1  0
 15 14  2  0
 17 16  1  6
 18 17  1  0
 19 20  1  6
 19 17  1  0
 20 14  1  0
 21 19  1  0
 22 21  1  0
 23 21  2  0
M  END
$$$$
