ATD.pdb
     RDKit          3D

 21 20  0  0  1  0  0  0  0  0999 V2000
    8.2322  -19.0101   17.6008 C   0  0  0  0  0  0  0  0  0  0  0  0
    8.3149  -17.5363   17.3931 C   0  0  2  0  0  0  0  0  0  0  0  0
    9.0088  -17.1257   16.2175 N   0  0  0  0  0  0  0  0  0  0  0  0
    8.9812  -16.8873   18.5668 C   0  0  0  0  0  0  0  0  0  0  0  0
   10.2313  -16.7149   18.5007 O   0  0  0  0  0  0  0  0  0  0  0  0
    7.2243  -13.9040   20.8163 C   0  0  0  0  0  0  0  0  0  0  0  0
    7.9167  -14.9783   21.6153 C   0  0  1  0  0  0  0  0  0  0  0  0
    6.9195  -15.8101   22.1309 O   0  0  0  0  0  0  0  0  0  0  0  0
    8.8971  -15.7720   20.8120 C   0  0  2  0  0  0  0  0  0  0  0  0
    8.2723  -16.4722   19.7170 N   0  0  0  0  0  0  0  0  0  0  0  0
    9.5111  -16.7786   21.7480 C   0  0  0  0  0  0  0  0  0  0  0  0
    9.6314  -17.9827   21.3793 O   0  0  0  0  0  0  0  0  0  0  0  0
    9.9587  -16.4237   23.0264 N   0  0  0  0  0  0  0  0  0  0  0  0
   11.1147  -17.1178   23.5942 C   0  0  1  0  0  0  0  0  0  0  0  0
   12.2678  -16.9054   22.6539 C   0  0  0  0  0  0  0  0  0  0  0  0
   13.4779  -17.5215   23.2094 C   0  0  0  0  0  0  0  0  0  0  0  0
   13.4189  -18.5704   23.8641 O   0  0  0  0  0  0  0  0  0  0  0  0
   11.3640  -16.6342   24.9697 C   0  0  0  0  0  0  0  0  0  0  0  0
   12.1036  -17.4262   25.8709 O   0  0  0  0  0  0  0  0  0  0  0  0
   14.7128  -16.8920   22.9812 O   0  0  0  0  0  0  0  0  0  0  0  0
   10.9598  -15.5406   25.4207 O   0  0  0  0  0  0  0  0  0  0  0  0
  2  1  1  1
  3  2  1  0
  4 10  1  0
  4  2  1  0
  5  4  2  0
  7  9  1  0
  7  6  1  6
  8  7  1  0
  9 11  1  0
  9 10  1  6
 11 13  1  0
 12 11  2  0
 13 14  1  0
 14 18  1  0
 14 15  1  6
 16 15  1  0
 16 20  1  0
 17 16  2  0
 18 19  1  0
 21 18  2  0
M  END
$$$$
