ATD.pdb
     RDKit          3D

 21 20  0  0  1  0  0  0  0  0999 V2000
    7.9696  -12.1797   19.5248 C   0  0  0  0  0  0  0  0  0  0  0  0
    8.0091  -13.3088   18.5523 C   0  0  2  0  0  0  0  0  0  0  0  0
    6.8338  -13.4725   17.7624 N   0  0  0  0  0  0  0  0  0  0  0  0
    8.2599  -14.5987   19.2706 C   0  0  0  0  0  0  0  0  0  0  0  0
    7.2609  -15.1822   19.7790 O   0  0  0  0  0  0  0  0  0  0  0  0
    9.4720  -17.7114   17.7835 C   0  0  0  0  0  0  0  0  0  0  0  0
   10.3758  -17.4232   18.9548 C   0  0  1  0  0  0  0  0  0  0  0  0
   11.5606  -16.8950   18.4359 O   0  0  0  0  0  0  0  0  0  0  0  0
    9.7731  -16.4812   19.9477 C   0  0  2  0  0  0  0  0  0  0  0  0
    9.5473  -15.1688   19.3941 N   0  0  0  0  0  0  0  0  0  0  0  0
   10.7499  -16.3685   21.0875 C   0  0  0  0  0  0  0  0  0  0  0  0
   11.5523  -15.3913   21.1287 O   0  0  0  0  0  0  0  0  0  0  0  0
   10.8011  -17.3184   22.1150 N   0  0  0  0  0  0  0  0  0  0  0  0
   11.7352  -17.1188   23.2233 C   0  0  1  0  0  0  0  0  0  0  0  0
   11.1321  -17.7692   24.4366 C   0  0  0  0  0  0  0  0  0  0  0  0
   12.0845  -17.7142   25.5512 C   0  0  0  0  0  0  0  0  0  0  0  0
   12.3294  -16.6484   26.1313 O   0  0  0  0  0  0  0  0  0  0  0  0
   13.0674  -17.6476   22.8575 C   0  0  0  0  0  0  0  0  0  0  0  0
   13.2229  -18.4129   21.6843 O   0  0  0  0  0  0  0  0  0  0  0  0
   12.7166  -18.9040   25.9489 O   0  0  0  0  0  0  0  0  0  0  0  0
   14.1090  -17.4677   23.5249 O   0  0  0  0  0  0  0  0  0  0  0  0
  2  1  1  1
  3  2  1  0
  4 10  1  0
  4  2  1  0
  5  4  2  0
  7  9  1  0
  7  6  1  6
  8  7  1  0
  9 11  1  0
  9 10  1  6
 11 13  1  0
 12 11  2  0
 13 14  1  0
 14 18  1  0
 14 15  1  1
 16 15  1  0
 16 20  1  0
 17 16  2  0
 18 19  1  0
 21 18  2  0
M  END
$$$$
