ATD.pdb
     RDKit          3D

 21 20  0  0  1  0  0  0  0  0999 V2000
    8.7923  -17.2564   15.0695 C   0  0  0  0  0  0  0  0  0  0  0  0
    8.4045  -15.8178   15.0205 C   0  0  2  0  0  0  0  0  0  0  0  0
    8.6219  -15.1717   13.7685 N   0  0  0  0  0  0  0  0  0  0  0  0
    9.1489  -15.0477   16.0672 C   0  0  0  0  0  0  0  0  0  0  0  0
   10.2486  -14.5250   15.7291 O   0  0  0  0  0  0  0  0  0  0  0  0
    7.3593  -12.5998   18.8910 C   0  0  0  0  0  0  0  0  0  0  0  0
    8.3888  -13.5659   19.4190 C   0  0  1  0  0  0  0  0  0  0  0  0
    7.6917  -14.6321   19.9927 O   0  0  0  0  0  0  0  0  0  0  0  0
    9.3286  -14.0606   18.3662 C   0  0  2  0  0  0  0  0  0  0  0  0
    8.6710  -14.8917   17.3881 N   0  0  0  0  0  0  0  0  0  0  0  0
   10.3800  -14.8755   19.0710 C   0  0  0  0  0  0  0  0  0  0  0  0
   10.2985  -16.1379   19.0681 O   0  0  0  0  0  0  0  0  0  0  0  0
   11.4569  -14.2774   19.7367 N   0  0  0  0  0  0  0  0  0  0  0  0
   12.4681  -15.1289   20.3636 C   0  0  1  0  0  0  0  0  0  0  0  0
   13.7257  -14.3143   20.4808 C   0  0  0  0  0  0  0  0  0  0  0  0
   14.7952  -15.1372   21.0565 C   0  0  0  0  0  0  0  0  0  0  0  0
   15.0562  -15.0925   22.2658 O   0  0  0  0  0  0  0  0  0  0  0  0
   11.9613  -15.6411   21.6555 C   0  0  0  0  0  0  0  0  0  0  0  0
   12.4603  -16.8515   22.1771 O   0  0  0  0  0  0  0  0  0  0  0  0
   15.5216  -15.9822   20.2012 O   0  0  0  0  0  0  0  0  0  0  0  0
   11.0944  -15.0712   22.3529 O   0  0  0  0  0  0  0  0  0  0  0  0
  2  1  1  6
  3  2  1  0
  4 10  1  0
  4  2  1  0
  5  4  2  0
  7  9  1  0
  7  6  1  6
  8  7  1  0
  9 11  1  0
  9 10  1  6
 11 13  1  0
 12 11  2  0
 13 14  1  0
 14 18  1  0
 14 15  1  1
 16 15  1  0
 16 20  1  0
 17 16  2  0
 18 19  1  0
 21 18  2  0
M  END
$$$$
