ATD.pdb
     RDKit          3D

 21 20  0  0  1  0  0  0  0  0999 V2000
    7.4725  -19.0068   18.0158 C   0  0  0  0  0  0  0  0  0  0  0  0
    7.7784  -17.5895   17.6694 C   0  0  2  0  0  0  0  0  0  0  0  0
    8.5014  -17.4026   16.4552 N   0  0  0  0  0  0  0  0  0  0  0  0
    8.5631  -16.9477   18.7717 C   0  0  0  0  0  0  0  0  0  0  0  0
    9.8207  -16.9257   18.6503 O   0  0  0  0  0  0  0  0  0  0  0  0
    7.2935  -13.5874   20.8535 C   0  0  0  0  0  0  0  0  0  0  0  0
    7.8397  -14.7127   21.6944 C   0  0  1  0  0  0  0  0  0  0  0  0
    6.7428  -15.3800   22.2454 O   0  0  0  0  0  0  0  0  0  0  0  0
    8.6976  -15.6638   20.9224 C   0  0  2  0  0  0  0  0  0  0  0  0
    7.9553  -16.3804   19.9147 N   0  0  0  0  0  0  0  0  0  0  0  0
    9.2521  -16.6512   21.9142 C   0  0  0  0  0  0  0  0  0  0  0  0
    8.9328  -17.8721   21.8260 O   0  0  0  0  0  0  0  0  0  0  0  0
   10.1190  -16.2602   22.9420 N   0  0  0  0  0  0  0  0  0  0  0  0
   10.8352  -17.2873   23.6987 C   0  0  1  0  0  0  0  0  0  0  0  0
   11.6850  -18.0494   22.7209 C   0  0  0  0  0  0  0  0  0  0  0  0
   12.5113  -19.0251   23.4404 C   0  0  0  0  0  0  0  0  0  0  0  0
   12.0723  -19.6317   24.4262 O   0  0  0  0  0  0  0  0  0  0  0  0
   11.6004  -16.6585   24.7974 C   0  0  0  0  0  0  0  0  0  0  0  0
   11.8025  -17.3578   26.0043 O   0  0  0  0  0  0  0  0  0  0  0  0
   13.8192  -19.2582   22.9841 O   0  0  0  0  0  0  0  0  0  0  0  0
   12.1036  -15.5153   24.7469 O   0  0  0  0  0  0  0  0  0  0  0  0
  2  1  1  1
  3  2  1  0
  4 10  1  0
  4  2  1  0
  5  4  2  0
  7  9  1  0
  7  6  1  6
  8  7  1  0
  9 11  1  0
  9 10  1  6
 11 13  1  0
 12 11  2  0
 13 14  1  0
 14 18  1  0
 14 15  1  6
 16 15  1  0
 16 20  1  0
 17 16  2  0
 18 19  1  0
 21 18  2  0
M  END
$$$$
