ATD.pdb
     RDKit          3D

 21 20  0  0  1  0  0  0  0  0999 V2000
    9.8517  -18.0829   16.1758 C   0  0  0  0  0  0  0  0  0  0  0  0
    9.6309  -16.6852   15.7071 C   0  0  2  0  0  0  0  0  0  0  0  0
   10.4588  -16.2690   14.6238 N   0  0  0  0  0  0  0  0  0  0  0  0
    9.8392  -15.7241   16.8365 C   0  0  0  0  0  0  0  0  0  0  0  0
   11.0036  -15.2590   16.9939 O   0  0  0  0  0  0  0  0  0  0  0  0
    7.9964  -12.9539   20.5491 C   0  0  0  0  0  0  0  0  0  0  0  0
    7.7870  -13.7997   19.3192 C   0  0  1  0  0  0  0  0  0  0  0  0
    7.3286  -12.9477   18.3112 O   0  0  0  0  0  0  0  0  0  0  0  0
    9.0235  -14.5156   18.8776 C   0  0  2  0  0  0  0  0  0  0  0  0
    8.7995  -15.3314   17.7097 N   0  0  0  0  0  0  0  0  0  0  0  0
    9.4425  -15.4028   20.0194 C   0  0  0  0  0  0  0  0  0  0  0  0
    8.9249  -16.5506   20.1415 O   0  0  0  0  0  0  0  0  0  0  0  0
   10.3962  -14.9966   20.9608 N   0  0  0  0  0  0  0  0  0  0  0  0
   10.6912  -15.8692   22.0974 C   0  0  1  0  0  0  0  0  0  0  0  0
   12.0943  -15.5636   22.5410 C   0  0  0  0  0  0  0  0  0  0  0  0
   13.0477  -16.0684   21.5468 C   0  0  0  0  0  0  0  0  0  0  0  0
   12.8917  -17.1756   21.0155 O   0  0  0  0  0  0  0  0  0  0  0  0
    9.6724  -15.6794   23.1529 C   0  0  0  0  0  0  0  0  0  0  0  0
    9.5497  -16.6251   24.1907 O   0  0  0  0  0  0  0  0  0  0  0  0
   14.1483  -15.2639   21.2082 O   0  0  0  0  0  0  0  0  0  0  0  0
    8.8790  -14.7149   23.2071 O   0  0  0  0  0  0  0  0  0  0  0  0
  2  1  1  1
  3  2  1  0
  4 10  1  0
  4  2  1  0
  5  4  2  0
  7  9  1  0
  7  6  1  1
  8  7  1  0
  9 11  1  0
  9 10  1  6
 11 13  1  0
 12 11  2  0
 13 14  1  0
 14 18  1  0
 14 15  1  1
 16 15  1  0
 16 20  1  0
 17 16  2  0
 18 19  1  0
 21 18  2  0
M  END
$$$$
