ATD.pdb
     RDKit          3D

 21 20  0  0  1  0  0  0  0  0999 V2000
    8.7339  -17.9453   16.0914 C   0  0  0  0  0  0  0  0  0  0  0  0
    8.3239  -16.5177   15.9646 C   0  0  2  0  0  0  0  0  0  0  0  0
    8.6774  -15.8904   14.7343 N   0  0  0  0  0  0  0  0  0  0  0  0
    8.9189  -15.7102   17.0765 C   0  0  0  0  0  0  0  0  0  0  0  0
   10.0617  -15.2077   16.8800 O   0  0  0  0  0  0  0  0  0  0  0  0
    7.0974  -12.9190   19.4423 C   0  0  0  0  0  0  0  0  0  0  0  0
    7.7958  -14.0214   20.1965 C   0  0  1  0  0  0  0  0  0  0  0  0
    6.8093  -14.9173   20.6163 O   0  0  0  0  0  0  0  0  0  0  0  0
    8.8329  -14.7279   19.3830 C   0  0  2  0  0  0  0  0  0  0  0  0
    8.2581  -15.4983   18.3078 N   0  0  0  0  0  0  0  0  0  0  0  0
    9.5573  -15.6596   20.3176 C   0  0  0  0  0  0  0  0  0  0  0  0
    9.3097  -16.8996   20.2802 O   0  0  0  0  0  0  0  0  0  0  0  0
   10.5062  -15.1955   21.2368 N   0  0  0  0  0  0  0  0  0  0  0  0
   11.1400  -16.1484   22.1482 C   0  0  1  0  0  0  0  0  0  0  0  0
   12.5887  -15.7637   22.2578 C   0  0  0  0  0  0  0  0  0  0  0  0
   13.2594  -16.6362   23.2280 C   0  0  0  0  0  0  0  0  0  0  0  0
   12.7479  -17.7044   23.5883 O   0  0  0  0  0  0  0  0  0  0  0  0
   10.4216  -16.1594   23.4412 C   0  0  0  0  0  0  0  0  0  0  0  0
   10.4947  -17.2917   24.2773 O   0  0  0  0  0  0  0  0  0  0  0  0
   14.5022  -16.2315   23.7428 O   0  0  0  0  0  0  0  0  0  0  0  0
    9.7276  -15.2143   23.8746 O   0  0  0  0  0  0  0  0  0  0  0  0
  2  1  1  6
  3  2  1  0
  4 10  1  0
  4  2  1  0
  5  4  2  0
  7  9  1  0
  7  6  1  6
  8  7  1  0
  9 11  1  0
  9 10  1  6
 11 13  1  0
 12 11  2  0
 13 14  1  0
 14 18  1  0
 14 15  1  1
 16 15  1  0
 16 20  1  0
 17 16  2  0
 18 19  1  0
 21 18  2  0
M  END
$$$$
