ATD.pdb
     RDKit          3D

 21 20  0  0  1  0  0  0  0  0999 V2000
    8.1584  -12.1144   18.5971 C   0  0  0  0  0  0  0  0  0  0  0  0
    9.0683  -13.2918   18.6850 C   0  0  2  0  0  0  0  0  0  0  0  0
    8.6776  -14.4218   17.9087 N   0  0  0  0  0  0  0  0  0  0  0  0
    9.1969  -13.7382   20.1087 C   0  0  0  0  0  0  0  0  0  0  0  0
    9.6857  -12.9137   20.9322 O   0  0  0  0  0  0  0  0  0  0  0  0
    6.3823  -15.4560   22.2442 C   0  0  0  0  0  0  0  0  0  0  0  0
    7.6735  -16.2263   22.3493 C   0  0  1  0  0  0  0  0  0  0  0  0
    7.5356  -17.3650   21.5514 O   0  0  0  0  0  0  0  0  0  0  0  0
    8.8697  -15.4337   21.9282 C   0  0  2  0  0  0  0  0  0  0  0  0
    8.7984  -15.0211   20.5481 N   0  0  0  0  0  0  0  0  0  0  0  0
   10.0679  -16.3268   22.1091 C   0  0  0  0  0  0  0  0  0  0  0  0
   10.6512  -16.8037   21.0929 O   0  0  0  0  0  0  0  0  0  0  0  0
   10.5645  -16.6510   23.3776 N   0  0  0  0  0  0  0  0  0  0  0  0
   11.9445  -17.1206   23.5033 C   0  0  1  0  0  0  0  0  0  0  0  0
   12.8303  -16.0661   22.9015 C   0  0  0  0  0  0  0  0  0  0  0  0
   14.2349  -16.4711   23.0259 C   0  0  0  0  0  0  0  0  0  0  0  0
   14.5897  -17.6321   22.7835 O   0  0  0  0  0  0  0  0  0  0  0  0
   12.2448  -17.4207   24.9203 C   0  0  0  0  0  0  0  0  0  0  0  0
   12.8498  -18.6455   25.2672 O   0  0  0  0  0  0  0  0  0  0  0  0
   15.1747  -15.5077   23.4283 O   0  0  0  0  0  0  0  0  0  0  0  0
   11.9990  -16.6522   25.8751 O   0  0  0  0  0  0  0  0  0  0  0  0
  2  1  1  1
  3  2  1  0
  4 10  1  0
  4  2  1  0
  5  4  2  0
  7  9  1  0
  7  6  1  6
  8  7  1  0
  9 11  1  0
  9 10  1  6
 11 13  1  0
 12 11  2  0
 13 14  1  0
 14 18  1  0
 14 15  1  1
 16 15  1  0
 16 20  1  0
 17 16  2  0
 18 19  1  0
 21 18  2  0
M  END
$$$$
