ATD.pdb
     RDKit          3D

 21 20  0  0  1  0  0  0  0  0999 V2000
    7.5734  -11.4862   26.6857 C   0  0  0  0  0  0  0  0  0  0  0  0
    6.4483  -12.2385   26.0612 C   0  0  2  0  0  0  0  0  0  0  0  0
    5.3828  -12.5826   26.9435 N   0  0  0  0  0  0  0  0  0  0  0  0
    6.9557  -13.5044   25.4424 C   0  0  0  0  0  0  0  0  0  0  0  0
    7.0734  -14.5111   26.1971 O   0  0  0  0  0  0  0  0  0  0  0  0
    6.3529  -14.2749   21.4306 C   0  0  0  0  0  0  0  0  0  0  0  0
    7.6686  -14.7789   21.9663 C   0  0  1  0  0  0  0  0  0  0  0  0
    8.6610  -13.9224   21.4831 O   0  0  0  0  0  0  0  0  0  0  0  0
    7.7127  -14.8416   23.4598 C   0  0  2  0  0  0  0  0  0  0  0  0
    7.2983  -13.6047   24.0749 N   0  0  0  0  0  0  0  0  0  0  0  0
    9.1421  -15.1210   23.8405 C   0  0  0  0  0  0  0  0  0  0  0  0
    9.7188  -14.3813   24.6893 O   0  0  0  0  0  0  0  0  0  0  0  0
    9.8627  -16.1834   23.2814 N   0  0  0  0  0  0  0  0  0  0  0  0
   10.9442  -16.7948   24.0541 C   0  0  1  0  0  0  0  0  0  0  0  0
   10.3204  -17.4405   25.2594 C   0  0  0  0  0  0  0  0  0  0  0  0
   11.3583  -18.1011   26.0586 C   0  0  0  0  0  0  0  0  0  0  0  0
   12.5489  -18.0585   25.7219 O   0  0  0  0  0  0  0  0  0  0  0  0
   11.7054  -17.7304   23.1976 C   0  0  0  0  0  0  0  0  0  0  0  0
   11.0212  -18.6684   22.3987 O   0  0  0  0  0  0  0  0  0  0  0  0
   10.9704  -18.7874   27.2212 O   0  0  0  0  0  0  0  0  0  0  0  0
   12.9525  -17.7629   23.1174 O   0  0  0  0  0  0  0  0  0  0  0  0
  2  1  1  1
  3  2  1  0
  4 10  1  0
  4  2  1  0
  5  4  2  0
  7  9  1  0
  7  6  1  1
  8  7  1  0
  9 11  1  0
  9 10  1  1
 11 13  1  0
 12 11  2  0
 13 14  1  0
 14 18  1  0
 14 15  1  1
 16 15  1  0
 16 20  1  0
 17 16  2  0
 18 19  1  0
 21 18  2  0
M  END
$$$$
