ATD.pdb
     RDKit          3D

 21 20  0  0  1  0  0  0  0  0999 V2000
    9.4788  -17.7588   16.1225 C   0  0  0  0  0  0  0  0  0  0  0  0
    9.5363  -16.2696   16.0872 C   0  0  2  0  0  0  0  0  0  0  0  0
   10.5066  -15.7192   15.1997 N   0  0  0  0  0  0  0  0  0  0  0  0
    9.8136  -15.7322   17.4573 C   0  0  0  0  0  0  0  0  0  0  0  0
   11.0225  -15.5355   17.7683 O   0  0  0  0  0  0  0  0  0  0  0  0
    7.6193  -12.8169   19.1707 C   0  0  0  0  0  0  0  0  0  0  0  0
    7.9081  -13.9578   20.1124 C   0  0  1  0  0  0  0  0  0  0  0  0
    6.7345  -14.7090   20.2154 O   0  0  0  0  0  0  0  0  0  0  0  0
    9.0443  -14.8204   19.6638 C   0  0  2  0  0  0  0  0  0  0  0  0
    8.7905  -15.4458   18.3893 N   0  0  0  0  0  0  0  0  0  0  0  0
    9.2145  -15.8916   20.7076 C   0  0  0  0  0  0  0  0  0  0  0  0
    8.9858  -17.0990   20.4072 O   0  0  0  0  0  0  0  0  0  0  0  0
    9.6220  -15.5941   22.0138 N   0  0  0  0  0  0  0  0  0  0  0  0
   10.2185  -16.6505   22.8316 C   0  0  1  0  0  0  0  0  0  0  0  0
   11.4211  -17.1625   22.0897 C   0  0  0  0  0  0  0  0  0  0  0  0
   12.1178  -18.1614   22.9079 C   0  0  0  0  0  0  0  0  0  0  0  0
   11.5087  -18.8398   23.7453 O   0  0  0  0  0  0  0  0  0  0  0  0
   10.5227  -16.1280   24.1816 C   0  0  0  0  0  0  0  0  0  0  0  0
   10.3563  -16.9554   25.3104 O   0  0  0  0  0  0  0  0  0  0  0  0
   13.4992  -18.3330   22.7198 O   0  0  0  0  0  0  0  0  0  0  0  0
   10.9308  -14.9704   24.4182 O   0  0  0  0  0  0  0  0  0  0  0  0
  2  1  1  1
  3  2  1  0
  4 10  1  0
  4  2  1  0
  5  4  2  0
  7  9  1  0
  7  6  1  6
  8  7  1  0
  9 11  1  0
  9 10  1  6
 11 13  1  0
 12 11  2  0
 13 14  1  0
 14 18  1  0
 14 15  1  6
 16 15  1  0
 16 20  1  0
 17 16  2  0
 18 19  1  0
 21 18  2  0
M  END
$$$$
