ATD.pdb
     RDKit          3D

 21 20  0  0  1  0  0  0  0  0999 V2000
    9.1821  -18.4362   16.2862 C   0  0  0  0  0  0  0  0  0  0  0  0
    9.3213  -17.0180   15.8489 C   0  0  2  0  0  0  0  0  0  0  0  0
   10.3251  -16.7807   14.8650 N   0  0  0  0  0  0  0  0  0  0  0  0
    9.6202  -16.1427   17.0267 C   0  0  0  0  0  0  0  0  0  0  0  0
   10.8359  -15.9658   17.3229 O   0  0  0  0  0  0  0  0  0  0  0  0
    7.9795  -12.8298   20.3864 C   0  0  0  0  0  0  0  0  0  0  0  0
    7.7046  -13.7870   19.2550 C   0  0  1  0  0  0  0  0  0  0  0  0
    7.2677  -13.0222   18.1704 O   0  0  0  0  0  0  0  0  0  0  0  0
    8.8958  -14.6061   18.8722 C   0  0  2  0  0  0  0  0  0  0  0  0
    8.6098  -15.5243   17.7975 N   0  0  0  0  0  0  0  0  0  0  0  0
    9.2924  -15.3925   20.0931 C   0  0  0  0  0  0  0  0  0  0  0  0
    8.6527  -16.4409   20.3963 O   0  0  0  0  0  0  0  0  0  0  0  0
   10.3568  -14.9989   20.9134 N   0  0  0  0  0  0  0  0  0  0  0  0
   10.7502  -15.8579   22.0304 C   0  0  1  0  0  0  0  0  0  0  0  0
   12.1151  -15.4129   22.4752 C   0  0  0  0  0  0  0  0  0  0  0  0
   12.5972  -16.2931   23.5454 C   0  0  0  0  0  0  0  0  0  0  0  0
   11.9328  -17.2685   23.9194 O   0  0  0  0  0  0  0  0  0  0  0  0
    9.7231  -15.7999   23.0935 C   0  0  0  0  0  0  0  0  0  0  0  0
    9.3630  -16.9717   23.7888 O   0  0  0  0  0  0  0  0  0  0  0  0
   13.8363  -16.0040   24.1406 O   0  0  0  0  0  0  0  0  0  0  0  0
    9.1227  -14.7606   23.4429 O   0  0  0  0  0  0  0  0  0  0  0  0
  2  1  1  1
  3  2  1  0
  4 10  1  0
  4  2  1  0
  5  4  2  0
  7  9  1  0
  7  6  1  1
  8  7  1  0
  9 11  1  0
  9 10  1  6
 11 13  1  0
 12 11  2  0
 13 14  1  0
 14 18  1  0
 14 15  1  1
 16 15  1  0
 16 20  1  0
 17 16  2  0
 18 19  1  0
 21 18  2  0
M  END
$$$$
