EQH.pdb
     RDKit          3D

 29 29  0  0  1  0  0  0  0  0999 V2000
   13.0890  -14.5452   16.7987 N   0  0  0  0  0  0  0  0  0  0  0  0
   13.4732  -15.3177   17.9398 C   0  0  1  0  0  0  0  0  0  0  0  0
   14.9486  -15.2266   18.2632 C   0  0  0  0  0  0  0  0  0  0  0  0
   15.4875  -13.8300   18.1926 C   0  0  0  0  0  0  0  0  0  0  0  0
   16.9644  -13.9285   18.4300 C   0  0  0  0  0  0  0  0  0  0  0  0
   17.4885  -13.7821   19.5541 O   0  0  0  0  0  0  0  0  0  0  0  0
   12.6723  -14.9154   19.1091 C   0  0  0  0  0  0  0  0  0  0  0  0
   13.1157  -14.2087   20.0313 O   0  0  0  0  0  0  0  0  0  0  0  0
   17.7644  -14.1969   17.3258 O   0  0  0  0  0  0  0  0  0  0  0  0
    7.4898  -12.7717   17.3880 N   0  0  0  0  0  0  0  0  0  0  0  0
    7.8598  -12.7843   18.7539 C   0  0  0  0  0  0  0  0  0  0  0  0
    7.0230  -12.3959   19.6025 O   0  0  0  0  0  0  0  0  0  0  0  0
    9.1944  -13.2378   19.2150 C   0  0  0  0  0  0  0  0  0  0  0  0
    9.1117  -14.5424   19.9708 C   0  0  0  0  0  0  0  0  0  0  0  0
   10.4699  -14.9972   20.3065 C   0  0  2  0  0  0  0  0  0  0  0  0
   11.3278  -15.3401   19.2147 N   0  0  0  0  0  0  0  0  0  0  0  0
   10.4837  -16.1270   21.3024 C   0  0  0  0  0  0  0  0  0  0  0  0
    9.7996  -17.1594   21.0851 O   0  0  0  0  0  0  0  0  0  0  0  0
   11.2398  -16.0876   22.4920 N   0  0  0  0  0  0  0  0  0  0  0  0
   11.2381  -17.1465   23.4907 C   0  0  1  0  0  0  0  0  0  0  0  0
   11.5615  -18.4773   22.9082 C   0  0  0  0  0  0  0  0  0  0  0  0
   12.9268  -18.4532   22.3360 C   0  0  0  0  0  0  0  0  0  0  0  0
   13.7800  -17.3514   22.2181 C   0  0  0  0  0  0  0  0  0  0  0  0
   14.9377  -17.7097   21.6498 N   0  0  0  0  0  0  0  0  0  0  0  0
   14.8482  -19.0297   21.3967 C   0  0  0  0  0  0  0  0  0  0  0  0
   13.6506  -19.4648   21.8071 N   0  0  0  0  0  0  0  0  0  0  0  0
   12.1210  -16.7366   24.6018 C   0  0  0  0  0  0  0  0  0  0  0  0
   12.3060  -17.4767   25.5941 O   0  0  0  0  0  0  0  0  0  0  0  0
   12.7634  -15.5173   24.5633 O   0  0  0  0  0  0  0  0  0  0  0  0
  2  1  1  6
  2  3  1  0
  4  3  1  0
  4  5  1  0
  5  9  1  0
  5  6  2  0
  7  2  1  0
  8  7  2  0
 11 12  2  0
 11 10  1  0
 13 11  1  0
 14 13  1  0
 15 14  1  6
 15 16  1  0
 16  7  1  0
 17 15  1  0
 18 17  2  0
 19 17  1  0
 20 19  1  0
 20 21  1  6
 22 21  1  0
 22 23  2  0
 24 23  1  0
 25 24  1  0
 26 25  2  0
 26 22  1  0
 27 20  1  0
 27 29  1  0
 28 27  2  0
M  END
$$$$
