EQH.pdb
     RDKit          3D

 29 29  0  0  1  0  0  0  0  0999 V2000
   12.7745  -17.9937   22.4003 N   0  0  0  0  0  0  0  0  0  0  0  0
   12.9406  -16.8841   21.5127 C   0  0  1  0  0  0  0  0  0  0  0  0
   13.4912  -17.2707   20.1572 C   0  0  0  0  0  0  0  0  0  0  0  0
   13.4130  -18.7417   19.8815 C   0  0  0  0  0  0  0  0  0  0  0  0
   13.9953  -18.9529   18.5163 C   0  0  0  0  0  0  0  0  0  0  0  0
   13.3579  -19.4633   17.5714 O   0  0  0  0  0  0  0  0  0  0  0  0
   11.6599  -16.1731   21.3554 C   0  0  0  0  0  0  0  0  0  0  0  0
   11.3245  -15.5918   20.3085 O   0  0  0  0  0  0  0  0  0  0  0  0
   15.3115  -18.5508   18.3227 O   0  0  0  0  0  0  0  0  0  0  0  0
    6.3186  -17.3648   20.0854 N   0  0  0  0  0  0  0  0  0  0  0  0
    6.1095  -16.1240   20.7329 C   0  0  0  0  0  0  0  0  0  0  0  0
    5.0129  -15.5405   20.5650 O   0  0  0  0  0  0  0  0  0  0  0  0
    7.1351  -15.4925   21.5981 C   0  0  0  0  0  0  0  0  0  0  0  0
    8.4113  -16.2991   21.6334 C   0  0  0  0  0  0  0  0  0  0  0  0
    9.4467  -15.5405   22.3519 C   0  0  2  0  0  0  0  0  0  0  0  0
   10.7460  -16.1329   22.4335 N   0  0  0  0  0  0  0  0  0  0  0  0
    9.0197  -15.1251   23.7353 C   0  0  0  0  0  0  0  0  0  0  0  0
    7.9860  -14.4254   23.8859 O   0  0  0  0  0  0  0  0  0  0  0  0
    9.7335  -15.4873   24.8962 N   0  0  0  0  0  0  0  0  0  0  0  0
    9.1496  -15.5276   26.2289 C   0  0  1  0  0  0  0  0  0  0  0  0
    7.6622  -15.4904   26.1988 C   0  0  0  0  0  0  0  0  0  0  0  0
    7.1949  -14.0931   26.3453 C   0  0  0  0  0  0  0  0  0  0  0  0
    7.9549  -12.9253   26.2249 C   0  0  0  0  0  0  0  0  0  0  0  0
    7.1920  -11.8434   26.4225 N   0  0  0  0  0  0  0  0  0  0  0  0
    5.9464  -12.2924   26.6697 C   0  0  0  0  0  0  0  0  0  0  0  0
    5.9555  -13.6302   26.6222 N   0  0  0  0  0  0  0  0  0  0  0  0
    9.7160  -16.6872   26.9477 C   0  0  0  0  0  0  0  0  0  0  0  0
    9.7496  -16.7255   28.1983 O   0  0  0  0  0  0  0  0  0  0  0  0
   10.2228  -17.7590   26.2441 O   0  0  0  0  0  0  0  0  0  0  0  0
  2  1  1  1
  2  3  1  0
  4  3  1  0
  4  5  1  0
  5  9  1  0
  5  6  2  0
  7  2  1  0
  8  7  2  0
 11 12  2  0
 11 10  1  0
 13 11  1  0
 14 13  1  0
 15 14  1  1
 15 16  1  0
 16  7  1  0
 17 15  1  0
 18 17  2  0
 19 17  1  0
 20 19  1  0
 20 21  1  6
 22 21  1  0
 22 23  2  0
 24 23  1  0
 25 24  1  0
 26 25  2  0
 26 22  1  0
 27 20  1  0
 27 29  1  0
 28 27  2  0
M  END
$$$$
