EQH.pdb
     RDKit          3D

 29 29  0  0  1  0  0  0  0  0999 V2000
    9.2845  -13.0976   17.2354 N   0  0  0  0  0  0  0  0  0  0  0  0
    8.9277  -14.4759   17.3748 C   0  0  1  0  0  0  0  0  0  0  0  0
    8.7323  -15.1870   16.0534 C   0  0  0  0  0  0  0  0  0  0  0  0
    9.8992  -15.0448   15.1237 C   0  0  0  0  0  0  0  0  0  0  0  0
    9.5457  -15.7956   13.8753 C   0  0  0  0  0  0  0  0  0  0  0  0
    8.5030  -16.4722   13.7551 O   0  0  0  0  0  0  0  0  0  0  0  0
    9.9418  -15.1762   18.1820 C   0  0  0  0  0  0  0  0  0  0  0  0
   10.0038  -16.4145   18.2781 O   0  0  0  0  0  0  0  0  0  0  0  0
   10.4420  -15.7159   12.8161 O   0  0  0  0  0  0  0  0  0  0  0  0
   16.1159  -14.9998   16.9738 N   0  0  0  0  0  0  0  0  0  0  0  0
   15.2103  -14.3182   17.8211 C   0  0  0  0  0  0  0  0  0  0  0  0
   15.6048  -13.2823   18.4063 O   0  0  0  0  0  0  0  0  0  0  0  0
   13.8190  -14.7826   18.0405 C   0  0  0  0  0  0  0  0  0  0  0  0
   13.3231  -14.4310   19.4229 C   0  0  0  0  0  0  0  0  0  0  0  0
   11.9879  -15.0147   19.6239 C   0  0  2  0  0  0  0  0  0  0  0  0
   10.9065  -14.4275   18.8948 N   0  0  0  0  0  0  0  0  0  0  0  0
   11.5965  -15.1047   21.0755 C   0  0  0  0  0  0  0  0  0  0  0  0
   12.0994  -14.3083   21.9084 O   0  0  0  0  0  0  0  0  0  0  0  0
   10.6757  -16.0560   21.5609 N   0  0  0  0  0  0  0  0  0  0  0  0
   10.3745  -16.2480   22.9719 C   0  0  1  0  0  0  0  0  0  0  0  0
    8.9140  -16.3734   23.2292 C   0  0  0  0  0  0  0  0  0  0  0  0
    8.2071  -15.1955   22.6769 C   0  0  0  0  0  0  0  0  0  0  0  0
    8.5628  -13.8498   22.8123 C   0  0  0  0  0  0  0  0  0  0  0  0
    7.6858  -13.0637   22.1764 N   0  0  0  0  0  0  0  0  0  0  0  0
    6.7648  -13.8805   21.6296 C   0  0  0  0  0  0  0  0  0  0  0  0
    7.0809  -15.1459   21.9311 N   0  0  0  0  0  0  0  0  0  0  0  0
   11.1803  -17.3827   23.4672 C   0  0  0  0  0  0  0  0  0  0  0  0
   11.8877  -18.0663   22.6933 O   0  0  0  0  0  0  0  0  0  0  0  0
   11.1663  -17.7111   24.8060 O   0  0  0  0  0  0  0  0  0  0  0  0
  2  1  1  6
  2  3  1  0
  4  3  1  0
  4  5  1  0
  5  9  1  0
  5  6  2  0
  7  2  1  0
  8  7  2  0
 11 12  2  0
 11 10  1  0
 13 11  1  0
 14 13  1  0
 15 14  1  1
 15 16  1  0
 16  7  1  0
 17 15  1  0
 18 17  2  0
 19 17  1  0
 20 19  1  0
 20 21  1  6
 22 21  1  0
 22 23  2  0
 24 23  1  0
 25 24  1  0
 26 25  2  0
 26 22  1  0
 27 20  1  0
 27 29  1  0
 28 27  2  0
M  END
$$$$
