EQH.pdb
     RDKit          3D

 29 29  0  0  1  0  0  0  0  0999 V2000
   10.6036  -16.6684   16.1269 N   0  0  0  0  0  0  0  0  0  0  0  0
   10.1082  -15.4865   15.4913 C   0  0  1  0  0  0  0  0  0  0  0  0
    8.9092  -15.7350   14.6020 C   0  0  0  0  0  0  0  0  0  0  0  0
    7.9481  -16.7367   15.1664 C   0  0  0  0  0  0  0  0  0  0  0  0
    7.2772  -17.3923   13.9970 C   0  0  0  0  0  0  0  0  0  0  0  0
    7.9043  -17.8942   13.0407 O   0  0  0  0  0  0  0  0  0  0  0  0
    9.7834  -14.4705   16.5076 C   0  0  0  0  0  0  0  0  0  0  0  0
    9.2797  -13.3667   16.2346 O   0  0  0  0  0  0  0  0  0  0  0  0
    5.8879  -17.4281   14.0053 O   0  0  0  0  0  0  0  0  0  0  0  0
    6.9820  -14.4595   21.2936 N   0  0  0  0  0  0  0  0  0  0  0  0
    7.3365  -13.0896   21.2742 C   0  0  0  0  0  0  0  0  0  0  0  0
    6.9960  -12.3712   22.2432 O   0  0  0  0  0  0  0  0  0  0  0  0
    8.0922  -12.4767   20.1549 C   0  0  0  0  0  0  0  0  0  0  0  0
    8.2727  -13.4411   19.0071 C   0  0  0  0  0  0  0  0  0  0  0  0
    9.6822  -13.8562   18.9373 C   0  0  2  0  0  0  0  0  0  0  0  0
   10.0475  -14.7365   17.8709 N   0  0  0  0  0  0  0  0  0  0  0  0
   10.1917  -14.4321   20.2324 C   0  0  0  0  0  0  0  0  0  0  0  0
    9.3964  -15.0157   21.0119 O   0  0  0  0  0  0  0  0  0  0  0  0
   11.5434  -14.3496   20.6258 N   0  0  0  0  0  0  0  0  0  0  0  0
   12.4554  -15.4839   20.6403 C   0  0  1  0  0  0  0  0  0  0  0  0
   12.1853  -16.4443   19.5361 C   0  0  0  0  0  0  0  0  0  0  0  0
   11.1146  -17.3830   19.9419 C   0  0  0  0  0  0  0  0  0  0  0  0
   10.4951  -17.4771   21.1922 C   0  0  0  0  0  0  0  0  0  0  0  0
    9.5699  -18.4443   21.1887 N   0  0  0  0  0  0  0  0  0  0  0  0
    9.5799  -18.9801   19.9529 C   0  0  0  0  0  0  0  0  0  0  0  0
   10.5003  -18.3446   19.2174 N   0  0  0  0  0  0  0  0  0  0  0  0
   13.8384  -14.9656   20.6729 C   0  0  0  0  0  0  0  0  0  0  0  0
   14.0748  -13.7371   20.6356 O   0  0  0  0  0  0  0  0  0  0  0  0
   14.9040  -15.8373   20.7459 O   0  0  0  0  0  0  0  0  0  0  0  0
  2  1  1  1
  2  3  1  0
  4  3  1  0
  4  5  1  0
  5  9  1  0
  5  6  2  0
  7  2  1  0
  8  7  2  0
 11 12  2  0
 11 10  1  0
 13 11  1  0
 14 13  1  0
 15 14  1  1
 15 16  1  0
 16  7  1  0
 17 15  1  0
 18 17  2  0
 19 17  1  0
 20 19  1  0
 20 21  1  6
 22 21  1  0
 22 23  2  0
 24 23  1  0
 25 24  1  0
 26 25  2  0
 26 22  1  0
 27 20  1  0
 27 29  1  0
 28 27  2  0
M  END
$$$$
