EQH.pdb
     RDKit          3D

 29 29  0  0  1  0  0  0  0  0999 V2000
   12.5163  -14.6880   16.9176 N   0  0  0  0  0  0  0  0  0  0  0  0
   11.4310  -15.3998   17.5192 C   0  0  1  0  0  0  0  0  0  0  0  0
   11.2032  -16.7720   16.9233 C   0  0  0  0  0  0  0  0  0  0  0  0
   12.1227  -17.8194   17.4741 C   0  0  0  0  0  0  0  0  0  0  0  0
   11.7158  -19.1189   16.8472 C   0  0  0  0  0  0  0  0  0  0  0  0
   10.8915  -19.1998   15.9125 O   0  0  0  0  0  0  0  0  0  0  0  0
   11.6480  -15.5081   18.9723 C   0  0  0  0  0  0  0  0  0  0  0  0
   12.0304  -16.5514   19.5309 O   0  0  0  0  0  0  0  0  0  0  0  0
   12.3014  -20.2736   17.3521 O   0  0  0  0  0  0  0  0  0  0  0  0
    7.2381  -14.4131   17.6839 N   0  0  0  0  0  0  0  0  0  0  0  0
    7.8415  -13.1681   17.9814 C   0  0  0  0  0  0  0  0  0  0  0  0
    7.5925  -12.1910   17.2369 O   0  0  0  0  0  0  0  0  0  0  0  0
    8.7529  -12.9787   19.1360 C   0  0  0  0  0  0  0  0  0  0  0  0
    8.9494  -14.2603   19.9100 C   0  0  0  0  0  0  0  0  0  0  0  0
   10.2464  -14.2164   20.6028 C   0  0  2  0  0  0  0  0  0  0  0  0
   11.4174  -14.3844   19.7990 N   0  0  0  0  0  0  0  0  0  0  0  0
   10.3236  -15.1656   21.7696 C   0  0  0  0  0  0  0  0  0  0  0  0
    9.4620  -15.1035   22.6832 O   0  0  0  0  0  0  0  0  0  0  0  0
   11.3334  -16.1420   21.8947 N   0  0  0  0  0  0  0  0  0  0  0  0
   11.4230  -17.0799   23.0041 C   0  0  1  0  0  0  0  0  0  0  0  0
   11.5505  -18.4903   22.5467 C   0  0  0  0  0  0  0  0  0  0  0  0
   10.3153  -18.8995   21.8402 C   0  0  0  0  0  0  0  0  0  0  0  0
    9.1610  -18.1371   21.6348 C   0  0  0  0  0  0  0  0  0  0  0  0
    8.2473  -18.8386   20.9533 N   0  0  0  0  0  0  0  0  0  0  0  0
    8.7923  -20.0467   20.7130 C   0  0  0  0  0  0  0  0  0  0  0  0
   10.0213  -20.0758   21.2429 N   0  0  0  0  0  0  0  0  0  0  0  0
   12.5048  -16.6307   23.9040 C   0  0  0  0  0  0  0  0  0  0  0  0
   13.6951  -16.5851   23.5197 O   0  0  0  0  0  0  0  0  0  0  0  0
   12.2175  -16.2497   25.1974 O   0  0  0  0  0  0  0  0  0  0  0  0
  2  1  1  6
  2  3  1  0
  4  3  1  0
  4  5  1  0
  5  9  1  0
  5  6  2  0
  7  2  1  0
  8  7  2  0
 11 12  2  0
 11 10  1  0
 13 11  1  0
 14 13  1  0
 15 14  1  6
 15 16  1  0
 16  7  1  0
 17 15  1  0
 18 17  2  0
 19 17  1  0
 20 19  1  0
 20 21  1  6
 22 21  1  0
 22 23  2  0
 24 23  1  0
 25 24  1  0
 26 25  2  0
 26 22  1  0
 27 20  1  0
 27 29  1  0
 28 27  2  0
M  END
$$$$
