EQH.pdb
     RDKit          3D

 29 29  0  0  1  0  0  0  0  0999 V2000
    9.9555  -15.5408   20.1494 N   0  0  0  0  0  0  0  0  0  0  0  0
    8.6112  -15.8760   20.5058 C   0  0  1  0  0  0  0  0  0  0  0  0
    7.8671  -16.6263   19.4225 C   0  0  0  0  0  0  0  0  0  0  0  0
    8.6653  -17.7399   18.8152 C   0  0  0  0  0  0  0  0  0  0  0  0
    7.7763  -18.4034   17.8069 C   0  0  0  0  0  0  0  0  0  0  0  0
    6.6122  -18.0217   17.5640 O   0  0  0  0  0  0  0  0  0  0  0  0
    8.6044  -16.6538   21.7570 C   0  0  0  0  0  0  0  0  0  0  0  0
    7.5675  -17.0976   22.2808 O   0  0  0  0  0  0  0  0  0  0  0  0
    8.3008  -19.4946   17.1245 O   0  0  0  0  0  0  0  0  0  0  0  0
    9.1827  -20.7630   24.7917 N   0  0  0  0  0  0  0  0  0  0  0  0
    9.4390  -20.8608   23.4034 C   0  0  0  0  0  0  0  0  0  0  0  0
    8.9009  -21.7932   22.7613 O   0  0  0  0  0  0  0  0  0  0  0  0
   10.3164  -19.9053   22.6846 C   0  0  0  0  0  0  0  0  0  0  0  0
   10.8522  -18.8356   23.6059 C   0  0  0  0  0  0  0  0  0  0  0  0
    9.9235  -17.6948   23.6191 C   0  0  2  0  0  0  0  0  0  0  0  0
    9.8246  -16.9246   22.4180 N   0  0  0  0  0  0  0  0  0  0  0  0
   10.1585  -16.7570   24.7740 C   0  0  0  0  0  0  0  0  0  0  0  0
   11.1697  -16.0098   24.7758 O   0  0  0  0  0  0  0  0  0  0  0  0
    9.2853  -16.6706   25.8778 N   0  0  0  0  0  0  0  0  0  0  0  0
    9.5662  -15.8943   27.0766 C   0  0  1  0  0  0  0  0  0  0  0  0
    8.3898  -15.1036   27.5300 C   0  0  0  0  0  0  0  0  0  0  0  0
    8.1015  -14.0315   26.5503 C   0  0  0  0  0  0  0  0  0  0  0  0
    8.8491  -13.6902   25.4188 C   0  0  0  0  0  0  0  0  0  0  0  0
    8.2812  -12.6670   24.7690 N   0  0  0  0  0  0  0  0  0  0  0  0
    7.1745  -12.3388   25.4631 C   0  0  0  0  0  0  0  0  0  0  0  0
    7.0740  -13.1537   26.5204 N   0  0  0  0  0  0  0  0  0  0  0  0
   10.1191  -16.8055   28.0993 C   0  0  0  0  0  0  0  0  0  0  0  0
   10.0835  -18.0480   27.9526 O   0  0  0  0  0  0  0  0  0  0  0  0
   10.6903  -16.2960   29.2460 O   0  0  0  0  0  0  0  0  0  0  0  0
  2  1  1  6
  2  3  1  0
  4  3  1  0
  4  5  1  0
  5  9  1  0
  5  6  2  0
  7  2  1  0
  8  7  2  0
 11 12  2  0
 11 10  1  0
 13 11  1  0
 14 13  1  0
 15 14  1  6
 15 16  1  0
 16  7  1  0
 17 15  1  0
 18 17  2  0
 19 17  1  0
 20 19  1  0
 20 21  1  1
 22 21  1  0
 22 23  2  0
 24 23  1  0
 25 24  1  0
 26 25  2  0
 26 22  1  0
 27 20  1  0
 27 29  1  0
 28 27  2  0
M  END
$$$$
