EQH.pdb
     RDKit          3D

 29 29  0  0  1  0  0  0  0  0999 V2000
   12.3275  -16.0404   14.5788 N   0  0  0  0  0  0  0  0  0  0  0  0
   11.0459  -16.3356   15.1416 C   0  0  1  0  0  0  0  0  0  0  0  0
   10.6742  -17.8005   15.0647 C   0  0  0  0  0  0  0  0  0  0  0  0
   11.5116  -18.6734   15.9494 C   0  0  0  0  0  0  0  0  0  0  0  0
   11.0750  -20.0848   15.6953 C   0  0  0  0  0  0  0  0  0  0  0  0
   11.0990  -20.6162   14.5654 O   0  0  0  0  0  0  0  0  0  0  0  0
   10.9943  -15.8724   16.5392 C   0  0  0  0  0  0  0  0  0  0  0  0
   11.9259  -16.0321   17.3474 O   0  0  0  0  0  0  0  0  0  0  0  0
   10.6262  -20.8132   16.7905 O   0  0  0  0  0  0  0  0  0  0  0  0
    6.3919  -12.2142   19.4316 N   0  0  0  0  0  0  0  0  0  0  0  0
    7.4357  -12.4669   20.3531 C   0  0  0  0  0  0  0  0  0  0  0  0
    7.3564  -11.9626   21.4979 O   0  0  0  0  0  0  0  0  0  0  0  0
    8.6136  -13.3024   20.0153 C   0  0  0  0  0  0  0  0  0  0  0  0
    8.5569  -13.7995   18.5905 C   0  0  0  0  0  0  0  0  0  0  0  0
    9.7238  -14.6556   18.3270 C   0  0  2  0  0  0  0  0  0  0  0  0
    9.8390  -15.2095   17.0134 N   0  0  0  0  0  0  0  0  0  0  0  0
    9.8792  -15.7660   19.3327 C   0  0  0  0  0  0  0  0  0  0  0  0
    9.9743  -16.9563   18.9389 O   0  0  0  0  0  0  0  0  0  0  0  0
    9.9247  -15.5365   20.7232 N   0  0  0  0  0  0  0  0  0  0  0  0
   10.7137  -16.3323   21.6522 C   0  0  1  0  0  0  0  0  0  0  0  0
   12.1405  -16.4357   21.2418 C   0  0  0  0  0  0  0  0  0  0  0  0
   12.8835  -17.2588   22.2231 C   0  0  0  0  0  0  0  0  0  0  0  0
   13.3489  -16.8669   23.4823 C   0  0  0  0  0  0  0  0  0  0  0  0
   13.9781  -17.8805   24.0892 N   0  0  0  0  0  0  0  0  0  0  0  0
   13.9280  -18.9258   23.2411 C   0  0  0  0  0  0  0  0  0  0  0  0
   13.2760  -18.5491   22.1343 N   0  0  0  0  0  0  0  0  0  0  0  0
   10.5080  -15.7950   23.0127 C   0  0  0  0  0  0  0  0  0  0  0  0
   10.4029  -16.5526   24.0034 O   0  0  0  0  0  0  0  0  0  0  0  0
   10.4277  -14.4338   23.2158 O   0  0  0  0  0  0  0  0  0  0  0  0
  2  1  1  1
  2  3  1  0
  4  3  1  0
  4  5  1  0
  5  9  1  0
  5  6  2  0
  7  2  1  0
  8  7  2  0
 11 12  2  0
 11 10  1  0
 13 11  1  0
 14 13  1  0
 15 14  1  6
 15 16  1  0
 16  7  1  0
 17 15  1  0
 18 17  2  0
 19 17  1  0
 20 19  1  0
 20 21  1  6
 22 21  1  0
 22 23  2  0
 24 23  1  0
 25 24  1  0
 26 25  2  0
 26 22  1  0
 27 20  1  0
 27 29  1  0
 28 27  2  0
M  END
$$$$
