EQH.pdb
     RDKit          3D

 29 29  0  0  1  0  0  0  0  0999 V2000
    9.1194  -16.9295   19.9719 N   0  0  0  0  0  0  0  0  0  0  0  0
    9.7061  -17.4979   21.1463 C   0  0  1  0  0  0  0  0  0  0  0  0
   11.1954  -17.2537   21.2575 C   0  0  0  0  0  0  0  0  0  0  0  0
   11.7882  -16.6278   20.0316 C   0  0  0  0  0  0  0  0  0  0  0  0
   13.2729  -16.8082   20.1341 C   0  0  0  0  0  0  0  0  0  0  0  0
   13.8263  -17.4070   21.0801 O   0  0  0  0  0  0  0  0  0  0  0  0
    9.0183  -16.9891   22.3457 C   0  0  0  0  0  0  0  0  0  0  0  0
    8.5568  -15.8375   22.4326 O   0  0  0  0  0  0  0  0  0  0  0  0
   14.0457  -16.2719   19.1111 O   0  0  0  0  0  0  0  0  0  0  0  0
    5.7936  -20.7333   26.1782 N   0  0  0  0  0  0  0  0  0  0  0  0
    5.7601  -20.4228   24.7980 C   0  0  0  0  0  0  0  0  0  0  0  0
    5.0461  -21.1260   24.0451 O   0  0  0  0  0  0  0  0  0  0  0  0
    6.5350  -19.3016   24.2132 C   0  0  0  0  0  0  0  0  0  0  0  0
    7.3199  -18.5551   25.2653 C   0  0  0  0  0  0  0  0  0  0  0  0
    8.0919  -17.4793   24.6245 C   0  0  2  0  0  0  0  0  0  0  0  0
    8.8607  -17.8308   23.4708 N   0  0  0  0  0  0  0  0  0  0  0  0
    8.9814  -16.7381   25.5877 C   0  0  0  0  0  0  0  0  0  0  0  0
   10.2270  -16.9030   25.5408 O   0  0  0  0  0  0  0  0  0  0  0  0
    8.4803  -15.8492   26.5610 N   0  0  0  0  0  0  0  0  0  0  0  0
    9.3194  -15.0959   27.4814 C   0  0  1  0  0  0  0  0  0  0  0  0
    8.7122  -13.7932   27.8672 C   0  0  0  0  0  0  0  0  0  0  0  0
    7.7800  -13.3439   26.8082 C   0  0  0  0  0  0  0  0  0  0  0  0
    6.3963  -13.1693   26.9114 C   0  0  0  0  0  0  0  0  0  0  0  0
    5.8854  -12.7510   25.7471 N   0  0  0  0  0  0  0  0  0  0  0  0
    6.9185  -12.6516   24.8886 C   0  0  0  0  0  0  0  0  0  0  0  0
    8.0413  -13.0055   25.5259 N   0  0  0  0  0  0  0  0  0  0  0  0
    9.6584  -15.9719   28.6215 C   0  0  0  0  0  0  0  0  0  0  0  0
    9.1610  -17.1149   28.7353 O   0  0  0  0  0  0  0  0  0  0  0  0
   10.5388  -15.5396   29.5903 O   0  0  0  0  0  0  0  0  0  0  0  0
  2  1  1  6
  2  3  1  0
  4  3  1  0
  4  5  1  0
  5  9  1  0
  5  6  2  0
  7  2  1  0
  8  7  2  0
 11 12  2  0
 11 10  1  0
 13 11  1  0
 14 13  1  0
 15 14  1  1
 15 16  1  0
 16  7  1  0
 17 15  1  0
 18 17  2  0
 19 17  1  0
 20 19  1  0
 20 21  1  1
 22 21  1  0
 22 23  2  0
 24 23  1  0
 25 24  1  0
 26 25  2  0
 26 22  1  0
 27 20  1  0
 27 29  1  0
 28 27  2  0
M  END
$$$$
