AAS.pdb
     RDKit          3D

 17 16  0  0  1  0  0  0  0  0999 V2000
   18.1442  -11.1622  -17.8505 C   0  0  0  0  0  0  0  0  0  0  0  0
   19.1512  -10.1142  -18.2294 C   0  0  2  0  0  0  0  0  0  0  0  0
   20.1724  -10.7192  -19.0314 N   0  0  0  0  0  0  0  0  0  0  0  0
   19.7031   -9.4046  -17.0456 C   0  0  0  0  0  0  0  0  0  0  0  0
   18.9297   -8.7444  -16.3409 O   0  0  0  0  0  0  0  0  0  0  0  0
   23.0713   -9.3298  -15.2747 C   0  0  0  0  0  0  0  0  0  0  0  0
   21.6569   -8.8741  -15.5387 C   0  0  2  0  0  0  0  0  0  0  0  0
   21.0769   -9.4647  -16.7079 N   0  0  0  0  0  0  0  0  0  0  0  0
   21.6728   -7.3889  -15.5922 C   0  0  0  0  0  0  0  0  0  0  0  0
   21.9025   -6.8340  -16.6984 O   0  0  0  0  0  0  0  0  0  0  0  0
   20.1214   -3.1590  -14.5313 O   0  0  0  0  0  0  0  0  0  0  0  0
   20.0173   -4.5530  -14.4710 C   0  0  0  0  0  0  0  0  0  0  0  0
   21.4287   -5.0960  -14.5540 C   0  0  2  0  0  0  0  0  0  0  0  0
   21.4486   -6.5454  -14.4906 N   0  0  0  0  0  0  0  0  0  0  0  0
   22.1533   -4.5974  -13.3760 C   0  0  0  0  0  0  0  0  0  0  0  0
   22.3011   -5.3132  -12.3736 O   0  0  0  0  0  0  0  0  0  0  0  0
   22.6747   -3.3233  -13.3817 O   0  0  0  0  0  0  0  0  0  0  0  0
  2  1  1  1
  2  3  1  0
  4  5  2  0
  4  2  1  0
  7  6  1  6
  7  8  1  0
  8  4  1  0
  9  7  1  0
 10  9  2  0
 11 12  1  0
 13 12  1  1
 13 15  1  0
 13 14  1  0
 14  9  1  0
 15 17  1  0
 16 15  2  0
M  END
$$$$
