AAS.pdb
     RDKit          3D

 17 16  0  0  1  0  0  0  0  0999 V2000
   18.2666   -8.8952  -19.6379 C   0  0  0  0  0  0  0  0  0  0  0  0
   18.9889   -9.8998  -18.7864 C   0  0  2  0  0  0  0  0  0  0  0  0
   18.1081  -10.9957  -18.5123 N   0  0  0  0  0  0  0  0  0  0  0  0
   19.5478   -9.2956  -17.5487 C   0  0  0  0  0  0  0  0  0  0  0  0
   18.7615   -8.8682  -16.6944 O   0  0  0  0  0  0  0  0  0  0  0  0
   22.9911   -9.0342  -15.9734 C   0  0  0  0  0  0  0  0  0  0  0  0
   21.5442   -8.6423  -16.1497 C   0  0  2  0  0  0  0  0  0  0  0  0
   20.9426   -9.1980  -17.3250 N   0  0  0  0  0  0  0  0  0  0  0  0
   21.4805   -7.1578  -16.1180 C   0  0  0  0  0  0  0  0  0  0  0  0
   21.5977   -6.5321  -17.2039 O   0  0  0  0  0  0  0  0  0  0  0  0
   20.3102   -3.0717  -13.8434 O   0  0  0  0  0  0  0  0  0  0  0  0
   20.4670   -4.4544  -13.6960 C   0  0  0  0  0  0  0  0  0  0  0  0
   21.1893   -4.9420  -14.9348 C   0  0  2  0  0  0  0  0  0  0  0  0
   21.2972   -6.3887  -14.9560 N   0  0  0  0  0  0  0  0  0  0  0  0
   22.5558   -4.4029  -14.8783 C   0  0  0  0  0  0  0  0  0  0  0  0
   23.4007   -4.8975  -14.1163 O   0  0  0  0  0  0  0  0  0  0  0  0
   22.9053   -3.3381  -15.6779 O   0  0  0  0  0  0  0  0  0  0  0  0
  2  1  1  1
  2  3  1  0
  4  5  2  0
  4  2  1  0
  7  6  1  6
  7  8  1  0
  8  4  1  0
  9  7  1  0
 10  9  2  0
 11 12  1  0
 13 12  1  1
 13 15  1  0
 13 14  1  0
 14  9  1  0
 15 17  1  0
 16 15  2  0
M  END
$$$$
