AAS.pdb
     RDKit          3D

 17 16  0  0  1  0  0  0  0  0999 V2000
   15.2940  -10.4769  -16.3197 C   0  0  0  0  0  0  0  0  0  0  0  0
   16.3012  -10.1066  -15.2687 C   0  0  2  0  0  0  0  0  0  0  0  0
   15.6520  -10.0787  -13.9921 N   0  0  0  0  0  0  0  0  0  0  0  0
   17.0014   -8.8327  -15.5790 C   0  0  0  0  0  0  0  0  0  0  0  0
   17.7394   -8.7924  -16.5712 O   0  0  0  0  0  0  0  0  0  0  0  0
   16.8145   -5.2426  -14.4231 C   0  0  0  0  0  0  0  0  0  0  0  0
   17.5426   -6.4413  -14.9808 C   0  0  2  0  0  0  0  0  0  0  0  0
   16.8467   -7.6766  -14.7762 N   0  0  0  0  0  0  0  0  0  0  0  0
   18.9066   -6.4450  -14.3905 C   0  0  0  0  0  0  0  0  0  0  0  0
   19.0627   -6.9581  -13.2517 O   0  0  0  0  0  0  0  0  0  0  0  0
   23.6797   -6.1283  -15.0340 O   0  0  0  0  0  0  0  0  0  0  0  0
   22.4174   -6.0709  -15.6350 C   0  0  0  0  0  0  0  0  0  0  0  0
   21.4031   -6.0606  -14.5103 C   0  0  2  0  0  0  0  0  0  0  0  0
   20.0498   -5.9139  -15.0122 N   0  0  0  0  0  0  0  0  0  0  0  0
   21.6910   -4.8822  -13.6798 C   0  0  0  0  0  0  0  0  0  0  0  0
   21.2309   -3.7694  -13.9782 O   0  0  0  0  0  0  0  0  0  0  0  0
   22.4792   -5.0110  -12.5585 O   0  0  0  0  0  0  0  0  0  0  0  0
  2  1  1  6
  2  3  1  0
  4  5  2  0
  4  2  1  0
  7  6  1  1
  7  8  1  0
  8  4  1  0
  9  7  1  0
 10  9  2  0
 11 12  1  0
 13 12  1  6
 13 15  1  0
 13 14  1  0
 14  9  1  0
 15 17  1  0
 16 15  2  0
M  END
$$$$
