AAS.pdb
     RDKit          3D

 17 16  0  0  1  0  0  0  0  0999 V2000
   21.4243  -12.2539  -18.8614 C   0  0  0  0  0  0  0  0  0  0  0  0
   20.5341  -11.1177  -18.4460 C   0  0  2  0  0  0  0  0  0  0  0  0
   19.7456  -10.7099  -19.5702 N   0  0  0  0  0  0  0  0  0  0  0  0
   21.2962   -9.9909  -17.8467 C   0  0  0  0  0  0  0  0  0  0  0  0
   21.8339  -10.1626  -16.7458 O   0  0  0  0  0  0  0  0  0  0  0  0
   22.3657   -6.5186  -18.9717 C   0  0  0  0  0  0  0  0  0  0  0  0
   22.0993   -7.6007  -17.9539 C   0  0  2  0  0  0  0  0  0  0  0  0
   21.4208   -8.7394  -18.4972 N   0  0  0  0  0  0  0  0  0  0  0  0
   21.3608   -6.9755  -16.8258 C   0  0  0  0  0  0  0  0  0  0  0  0
   20.1220   -6.7920  -16.9521 O   0  0  0  0  0  0  0  0  0  0  0  0
   21.8342   -7.7250  -13.0868 O   0  0  0  0  0  0  0  0  0  0  0  0
   20.7104   -7.0283  -13.5446 C   0  0  0  0  0  0  0  0  0  0  0  0
   21.2173   -5.9751  -14.5077 C   0  0  2  0  0  0  0  0  0  0  0  0
   21.9449   -6.5682  -15.6140 N   0  0  0  0  0  0  0  0  0  0  0  0
   22.1642   -5.1306  -13.7651 C   0  0  0  0  0  0  0  0  0  0  0  0
   23.3547   -5.0621  -14.1072 O   0  0  0  0  0  0  0  0  0  0  0  0
   21.7288   -4.4066  -12.6781 O   0  0  0  0  0  0  0  0  0  0  0  0
  2  1  1  6
  2  3  1  0
  4  5  2  0
  4  2  1  0
  7  6  1  6
  7  8  1  0
  8  4  1  0
  9  7  1  0
 10  9  2  0
 11 12  1  0
 13 12  1  1
 13 15  1  0
 13 14  1  0
 14  9  1  0
 15 17  1  0
 16 15  2  0
M  END
$$$$
