KEI.pdb
     RDKit          3D

 27 26  0  0  1  0  0  0  0  0999 V2000
    7.9481  -14.8058   20.4437 N   0  0  0  0  0  0  0  0  0  0  0  0
    7.2223  -15.7534   21.2183 C   0  0  1  0  0  0  0  0  0  0  0  0
    6.6350  -16.9006   20.4284 C   0  0  0  0  0  0  0  0  0  0  0  0
    7.0032  -16.8944   18.9950 C   0  0  0  0  0  0  0  0  0  0  0  0
    6.4174  -17.9280   18.1128 C   0  0  0  0  0  0  0  0  0  0  0  0
    6.5334  -19.3406   18.5725 C   0  0  0  0  0  0  0  0  0  0  0  0
    5.9410  -20.2492   17.6469 N   0  0  0  0  0  0  0  0  0  0  0  0
    8.1144  -16.2979   22.2856 C   0  0  0  0  0  0  0  0  0  0  0  0
    7.6475  -17.1673   23.1050 O   0  0  0  0  0  0  0  0  0  0  0  0
    9.4421  -15.8711   22.3941 N   0  0  0  0  0  0  0  0  0  0  0  0
   10.4198  -16.5519   23.3141 C   0  0  1  0  0  0  0  0  0  0  0  0
   11.7331  -16.3855   22.6664 C   0  0  0  0  0  0  0  0  0  0  0  0
   12.9829  -16.7931   23.3048 C   0  0  0  0  0  0  0  0  0  0  0  0
   14.2511  -16.3900   22.7142 C   0  0  0  0  0  0  0  0  0  0  0  0
   14.5096  -16.5637   21.5027 O   0  0  0  0  0  0  0  0  0  0  0  0
   10.2542  -15.9229   24.6067 C   0  0  0  0  0  0  0  0  0  0  0  0
   11.0068  -16.2783   25.5859 O   0  0  0  0  0  0  0  0  0  0  0  0
   15.2253  -15.7906   23.5012 O   0  0  0  0  0  0  0  0  0  0  0  0
    5.8436  -12.7411   26.5747 C   0  0  0  0  0  0  0  0  0  0  0  0
    6.8916  -13.6700   26.0325 C   0  0  0  0  0  0  0  0  0  0  0  0
    8.2809  -13.1337   26.1763 C   0  0  2  0  0  0  0  0  0  0  0  0
    8.7241  -12.2740   25.0445 C   0  0  0  0  0  0  0  0  0  0  0  0
    9.2347  -14.3362   26.2617 C   0  0  2  0  0  0  0  0  0  0  0  0
    9.3075  -14.8877   24.9284 N   0  0  0  0  0  0  0  0  0  0  0  0
    8.7758  -15.2980   27.2633 C   0  0  0  0  0  0  0  0  0  0  0  0
    8.9339  -15.0769   28.6144 O   0  0  0  0  0  0  0  0  0  0  0  0
    8.2118  -16.3830   26.9447 O   0  0  0  0  0  0  0  0  0  0  0  0
  2  1  1  6
  3  2  1  0
  4  3  1  0
  4  5  1  0
  5  6  1  0
  7  6  1  0
  8  2  1  0
  8  9  2  0
 10  8  1  0
 11 10  1  0
 11 12  1  6
 13 12  1  0
 13 14  1  0
 14 15  2  0
 16 24  1  0
 16 11  1  0
 17 16  2  0
 18 14  1  0
 19 20  1  0
 20 21  1  0
 21 22  1  6
 23 24  1  6
 23 21  1  0
 25 23  1  0
 26 25  1  0
 27 25  2  0
M  END
$$$$
