KEI.pdb
     RDKit          3D

 27 26  0  0  1  0  0  0  0  0999 V2000
    7.4552  -16.2797   19.0633 N   0  0  0  0  0  0  0  0  0  0  0  0
    8.2303  -15.3841   19.8520 C   0  0  1  0  0  0  0  0  0  0  0  0
    7.7768  -13.9430   19.8042 C   0  0  0  0  0  0  0  0  0  0  0  0
    8.1682  -13.2302   18.5677 C   0  0  0  0  0  0  0  0  0  0  0  0
    7.7229  -13.7788   17.2675 C   0  0  0  0  0  0  0  0  0  0  0  0
    8.1983  -13.0693   16.0465 C   0  0  0  0  0  0  0  0  0  0  0  0
    7.7347  -13.6985   14.8539 N   0  0  0  0  0  0  0  0  0  0  0  0
    8.2264  -15.8534   21.2702 C   0  0  0  0  0  0  0  0  0  0  0  0
    7.1110  -16.1686   21.8196 O   0  0  0  0  0  0  0  0  0  0  0  0
    9.4194  -15.9519   21.9939 N   0  0  0  0  0  0  0  0  0  0  0  0
    9.4755  -16.6229   23.3401 C   0  0  1  0  0  0  0  0  0  0  0  0
   10.6260  -17.5406   23.2616 C   0  0  0  0  0  0  0  0  0  0  0  0
   11.0813  -18.3315   24.4030 C   0  0  0  0  0  0  0  0  0  0  0  0
   12.1815  -19.2690   24.2289 C   0  0  0  0  0  0  0  0  0  0  0  0
   13.1042  -19.0720   23.4075 O   0  0  0  0  0  0  0  0  0  0  0  0
    9.5674  -15.5559   24.3132 C   0  0  0  0  0  0  0  0  0  0  0  0
   10.4318  -14.6195   24.1478 O   0  0  0  0  0  0  0  0  0  0  0  0
   12.2319  -20.4306   24.9878 O   0  0  0  0  0  0  0  0  0  0  0  0
    5.9458  -12.3618   25.5857 C   0  0  0  0  0  0  0  0  0  0  0  0
    7.2749  -13.0516   25.4724 C   0  0  0  0  0  0  0  0  0  0  0  0
    7.7236  -13.6737   26.7570 C   0  0  2  0  0  0  0  0  0  0  0  0
    7.9552  -12.7000   27.8591 C   0  0  0  0  0  0  0  0  0  0  0  0
    9.0483  -14.4027   26.4804 C   0  0  2  0  0  0  0  0  0  0  0  0
    8.7527  -15.4132   25.4911 N   0  0  0  0  0  0  0  0  0  0  0  0
    9.6139  -14.9465   27.7145 C   0  0  0  0  0  0  0  0  0  0  0  0
   10.3482  -14.1708   28.5854 O   0  0  0  0  0  0  0  0  0  0  0  0
    9.4616  -16.1558   28.0481 O   0  0  0  0  0  0  0  0  0  0  0  0
  2  1  1  6
  3  2  1  0
  4  3  1  0
  4  5  1  0
  5  6  1  0
  7  6  1  0
  8  2  1  0
  8  9  2  0
 10  8  1  0
 11 10  1  0
 11 12  1  6
 13 12  1  0
 13 14  1  0
 14 15  2  0
 16 24  1  0
 16 11  1  0
 17 16  2  0
 18 14  1  0
 19 20  1  0
 20 21  1  0
 21 22  1  1
 23 24  1  6
 23 21  1  0
 25 23  1  0
 26 25  1  0
 27 25  2  0
M  END
$$$$
