KEI.pdb
     RDKit          3D

 27 26  0  0  1  0  0  0  0  0999 V2000
    9.0944  -17.0851   18.9503 N   0  0  0  0  0  0  0  0  0  0  0  0
    9.0310  -15.7615   19.4687 C   0  0  1  0  0  0  0  0  0  0  0  0
    8.0794  -14.8405   18.7400 C   0  0  0  0  0  0  0  0  0  0  0  0
    8.5399  -14.4461   17.3900 C   0  0  0  0  0  0  0  0  0  0  0  0
    7.7216  -13.4831   16.6201 C   0  0  0  0  0  0  0  0  0  0  0  0
    8.2333  -13.0999   15.2741 C   0  0  0  0  0  0  0  0  0  0  0  0
    7.3971  -12.1309   14.6456 N   0  0  0  0  0  0  0  0  0  0  0  0
    8.6495  -15.8198   20.9119 C   0  0  0  0  0  0  0  0  0  0  0  0
    7.5247  -15.3252   21.2800 O   0  0  0  0  0  0  0  0  0  0  0  0
    9.5019  -16.4060   21.8535 N   0  0  0  0  0  0  0  0  0  0  0  0
    8.9936  -16.9022   23.1806 C   0  0  1  0  0  0  0  0  0  0  0  0
    9.6744  -18.1921   23.3921 C   0  0  0  0  0  0  0  0  0  0  0  0
    9.5272  -18.9675   24.6220 C   0  0  0  0  0  0  0  0  0  0  0  0
   10.1641  -20.2727   24.7240 C   0  0  0  0  0  0  0  0  0  0  0  0
   10.6840  -20.6818   25.7856 O   0  0  0  0  0  0  0  0  0  0  0  0
    9.2858  -15.8550   24.1356 C   0  0  0  0  0  0  0  0  0  0  0  0
   10.4185  -15.2500   24.0865 O   0  0  0  0  0  0  0  0  0  0  0  0
   10.2107  -21.1119   23.6188 O   0  0  0  0  0  0  0  0  0  0  0  0
    5.7679  -12.2121   25.5144 C   0  0  0  0  0  0  0  0  0  0  0  0
    7.0143  -13.0134   25.2707 C   0  0  0  0  0  0  0  0  0  0  0  0
    7.5901  -13.5964   26.5224 C   0  0  2  0  0  0  0  0  0  0  0  0
    7.9901  -12.5854   27.5395 C   0  0  0  0  0  0  0  0  0  0  0  0
    8.8429  -14.3948   26.1275 C   0  0  2  0  0  0  0  0  0  0  0  0
    8.4042  -15.3854   25.1717 N   0  0  0  0  0  0  0  0  0  0  0  0
    9.4890  -14.9716   27.3059 C   0  0  0  0  0  0  0  0  0  0  0  0
   10.4832  -14.3082   27.9920 O   0  0  0  0  0  0  0  0  0  0  0  0
    9.1721  -16.1085   27.7575 O   0  0  0  0  0  0  0  0  0  0  0  0
  2  1  1  6
  3  2  1  0
  4  3  1  0
  4  5  1  0
  5  6  1  0
  7  6  1  0
  8  2  1  0
  8  9  2  0
 10  8  1  0
 11 10  1  0
 11 12  1  1
 13 12  1  0
 13 14  1  0
 14 15  2  0
 16 24  1  0
 16 11  1  0
 17 16  2  0
 18 14  1  0
 19 20  1  0
 20 21  1  0
 21 22  1  1
 23 24  1  6
 23 21  1  0
 25 23  1  0
 26 25  1  0
 27 25  2  0
M  END
$$$$
