KEI.pdb
     RDKit          3D

 27 26  0  0  1  0  0  0  0  0999 V2000
    9.9830  -15.3850   18.9969 N   0  0  0  0  0  0  0  0  0  0  0  0
    9.1173  -14.4108   19.5681 C   0  0  1  0  0  0  0  0  0  0  0  0
    7.9162  -14.0563   18.7215 C   0  0  0  0  0  0  0  0  0  0  0  0
    8.0130  -14.5162   17.3182 C   0  0  0  0  0  0  0  0  0  0  0  0
    7.7012  -13.5536   16.2385 C   0  0  0  0  0  0  0  0  0  0  0  0
    7.7302  -14.0818   14.8455 C   0  0  0  0  0  0  0  0  0  0  0  0
    7.4669  -13.0604   13.8860 N   0  0  0  0  0  0  0  0  0  0  0  0
    8.6519  -14.8935   20.9030 C   0  0  0  0  0  0  0  0  0  0  0  0
    7.7060  -14.2643   21.4985 O   0  0  0  0  0  0  0  0  0  0  0  0
    9.2342  -16.0166   21.4999 N   0  0  0  0  0  0  0  0  0  0  0  0
    8.7535  -16.5483   22.8235 C   0  0  1  0  0  0  0  0  0  0  0  0
    9.3676  -17.8825   22.9449 C   0  0  0  0  0  0  0  0  0  0  0  0
    9.2682  -18.6873   24.1606 C   0  0  0  0  0  0  0  0  0  0  0  0
    9.9715  -19.9599   24.2342 C   0  0  0  0  0  0  0  0  0  0  0  0
   11.2187  -20.0319   24.2981 O   0  0  0  0  0  0  0  0  0  0  0  0
    9.1440  -15.5667   23.8124 C   0  0  0  0  0  0  0  0  0  0  0  0
   10.3624  -15.1605   23.8559 O   0  0  0  0  0  0  0  0  0  0  0  0
    9.2568  -21.1503   24.2340 O   0  0  0  0  0  0  0  0  0  0  0  0
    5.6388  -12.2670   26.8148 C   0  0  0  0  0  0  0  0  0  0  0  0
    6.5625  -13.3896   26.4385 C   0  0  0  0  0  0  0  0  0  0  0  0
    7.8964  -12.9140   25.9559 C   0  0  2  0  0  0  0  0  0  0  0  0
    7.8628  -12.2493   24.6242 C   0  0  0  0  0  0  0  0  0  0  0  0
    8.8155  -14.1417   25.8514 C   0  0  2  0  0  0  0  0  0  0  0  0
    8.2779  -14.9575   24.7871 N   0  0  0  0  0  0  0  0  0  0  0  0
    8.9013  -14.8418   27.1325 C   0  0  0  0  0  0  0  0  0  0  0  0
    9.5357  -14.2908   28.2249 O   0  0  0  0  0  0  0  0  0  0  0  0
    8.4004  -15.9888   27.3068 O   0  0  0  0  0  0  0  0  0  0  0  0
  2  1  1  6
  3  2  1  0
  4  3  1  0
  4  5  1  0
  5  6  1  0
  7  6  1  0
  8  2  1  0
  8  9  2  0
 10  8  1  0
 11 10  1  0
 11 12  1  1
 13 12  1  0
 13 14  1  0
 14 15  2  0
 16 24  1  0
 16 11  1  0
 17 16  2  0
 18 14  1  0
 19 20  1  0
 20 21  1  0
 21 22  1  6
 23 24  1  6
 23 21  1  0
 25 23  1  0
 26 25  1  0
 27 25  2  0
M  END
$$$$
