KEI.pdb
     RDKit          3D

 27 26  0  0  1  0  0  0  0  0999 V2000
    6.2989  -15.7743   19.7903 N   0  0  0  0  0  0  0  0  0  0  0  0
    7.4907  -15.2073   20.3221 C   0  0  1  0  0  0  0  0  0  0  0  0
    7.5382  -13.6966   20.3002 C   0  0  0  0  0  0  0  0  0  0  0  0
    7.6149  -13.1171   18.9407 C   0  0  0  0  0  0  0  0  0  0  0  0
    8.3539  -13.8629   17.8978 C   0  0  0  0  0  0  0  0  0  0  0  0
    8.5078  -13.1881   16.5783 C   0  0  0  0  0  0  0  0  0  0  0  0
    9.2565  -13.9827   15.6611 N   0  0  0  0  0  0  0  0  0  0  0  0
    7.6746  -15.6841   21.7258 C   0  0  0  0  0  0  0  0  0  0  0  0
    6.6651  -15.6978   22.5169 O   0  0  0  0  0  0  0  0  0  0  0  0
    8.9273  -16.1129   22.1768 N   0  0  0  0  0  0  0  0  0  0  0  0
    9.1032  -16.7679   23.5207 C   0  0  1  0  0  0  0  0  0  0  0  0
   10.1679  -17.7674   23.3218 C   0  0  0  0  0  0  0  0  0  0  0  0
   10.6788  -18.6001   24.4086 C   0  0  0  0  0  0  0  0  0  0  0  0
   11.7854  -19.5104   24.1513 C   0  0  0  0  0  0  0  0  0  0  0  0
   12.0792  -20.4432   24.9313 O   0  0  0  0  0  0  0  0  0  0  0  0
    9.3899  -15.6972   24.4509 C   0  0  0  0  0  0  0  0  0  0  0  0
   10.2947  -14.8316   24.1620 O   0  0  0  0  0  0  0  0  0  0  0  0
   12.5586  -19.3593   23.0079 O   0  0  0  0  0  0  0  0  0  0  0  0
    5.9492  -12.5678   26.3676 C   0  0  0  0  0  0  0  0  0  0  0  0
    7.2159  -13.2806   25.9901 C   0  0  0  0  0  0  0  0  0  0  0  0
    8.0058  -13.7390   27.1752 C   0  0  2  0  0  0  0  0  0  0  0  0
    8.4840  -12.6365   28.0541 C   0  0  0  0  0  0  0  0  0  0  0  0
    9.2363  -14.4941   26.6475 C   0  0  2  0  0  0  0  0  0  0  0  0
    8.7358  -15.4763   25.7137 N   0  0  0  0  0  0  0  0  0  0  0  0
   10.0040  -15.0771   27.7472 C   0  0  0  0  0  0  0  0  0  0  0  0
   10.0699  -16.4385   27.9507 O   0  0  0  0  0  0  0  0  0  0  0  0
   10.6463  -14.3651   28.5703 O   0  0  0  0  0  0  0  0  0  0  0  0
  2  1  1  1
  3  2  1  0
  4  3  1  0
  4  5  1  0
  5  6  1  0
  7  6  1  0
  8  2  1  0
  8  9  2  0
 10  8  1  0
 11 10  1  0
 11 12  1  6
 13 12  1  0
 13 14  1  0
 14 15  2  0
 16 24  1  0
 16 11  1  0
 17 16  2  0
 18 14  1  0
 19 20  1  0
 20 21  1  0
 21 22  1  6
 23 24  1  6
 23 21  1  0
 25 23  1  0
 26 25  1  0
 27 25  2  0
M  END
$$$$
