KEI.pdb
     RDKit          3D

 27 26  0  0  1  0  0  0  0  0999 V2000
    9.6842  -14.4228   18.8605 N   0  0  0  0  0  0  0  0  0  0  0  0
    8.5675  -13.9131   19.5803 C   0  0  1  0  0  0  0  0  0  0  0  0
    7.2817  -13.8434   18.7888 C   0  0  0  0  0  0  0  0  0  0  0  0
    7.4643  -13.4262   17.3807 C   0  0  0  0  0  0  0  0  0  0  0  0
    7.9611  -14.4253   16.4088 C   0  0  0  0  0  0  0  0  0  0  0  0
    8.0365  -13.9907   14.9855 C   0  0  0  0  0  0  0  0  0  0  0  0
    8.3685  -15.0727   14.1182 N   0  0  0  0  0  0  0  0  0  0  0  0
    8.3493  -14.7488   20.7992 C   0  0  0  0  0  0  0  0  0  0  0  0
    7.2307  -14.6641   21.4211 O   0  0  0  0  0  0  0  0  0  0  0  0
    9.3463  -15.6150   21.2600 N   0  0  0  0  0  0  0  0  0  0  0  0
    9.1559  -16.4561   22.4938 C   0  0  1  0  0  0  0  0  0  0  0  0
   10.1927  -17.5000   22.4080 C   0  0  0  0  0  0  0  0  0  0  0  0
   10.4312  -18.4626   23.4812 C   0  0  0  0  0  0  0  0  0  0  0  0
   11.5099  -19.4309   23.3455 C   0  0  0  0  0  0  0  0  0  0  0  0
   11.7739  -20.2671   24.2376 O   0  0  0  0  0  0  0  0  0  0  0  0
    9.2493  -15.5455   23.6145 C   0  0  0  0  0  0  0  0  0  0  0  0
   10.3185  -14.8523   23.7809 O   0  0  0  0  0  0  0  0  0  0  0  0
   12.2887  -19.4476   22.1962 O   0  0  0  0  0  0  0  0  0  0  0  0
    6.5097  -11.2223   26.6378 C   0  0  0  0  0  0  0  0  0  0  0  0
    7.5249  -12.3286   26.6600 C   0  0  0  0  0  0  0  0  0  0  0  0
    7.2802  -13.3696   25.6136 C   0  0  2  0  0  0  0  0  0  0  0  0
    6.0070  -14.1217   25.7861 C   0  0  0  0  0  0  0  0  0  0  0  0
    8.4399  -14.3761   25.6818 C   0  0  2  0  0  0  0  0  0  0  0  0
    8.2270  -15.3094   24.5997 N   0  0  0  0  0  0  0  0  0  0  0  0
    8.5016  -15.0152   26.9957 C   0  0  0  0  0  0  0  0  0  0  0  0
    8.2270  -16.3544   27.1702 O   0  0  0  0  0  0  0  0  0  0  0  0
    8.8081  -14.3748   28.0411 O   0  0  0  0  0  0  0  0  0  0  0  0
  2  1  1  6
  3  2  1  0
  4  3  1  0
  4  5  1  0
  5  6  1  0
  7  6  1  0
  8  2  1  0
  8  9  2  0
 10  8  1  0
 11 10  1  0
 11 12  1  1
 13 12  1  0
 13 14  1  0
 14 15  2  0
 16 24  1  0
 16 11  1  0
 17 16  2  0
 18 14  1  0
 19 20  1  0
 20 21  1  0
 21 22  1  1
 23 24  1  6
 23 21  1  0
 25 23  1  0
 26 25  1  0
 27 25  2  0
M  END
$$$$
