KEI.pdb
     RDKit          3D

 27 26  0  0  1  0  0  0  0  0999 V2000
    6.3835  -16.7034   20.8577 N   0  0  0  0  0  0  0  0  0  0  0  0
    7.7343  -16.3568   21.1405 C   0  0  1  0  0  0  0  0  0  0  0  0
    8.0669  -14.8949   20.9481 C   0  0  0  0  0  0  0  0  0  0  0  0
    7.7798  -14.3869   19.5881 C   0  0  0  0  0  0  0  0  0  0  0  0
    8.1003  -12.9752   19.2813 C   0  0  0  0  0  0  0  0  0  0  0  0
    7.7067  -12.4802   17.9321 C   0  0  0  0  0  0  0  0  0  0  0  0
    7.9337  -11.0793   17.7948 N   0  0  0  0  0  0  0  0  0  0  0  0
    8.0567  -16.7533   22.5442 C   0  0  0  0  0  0  0  0  0  0  0  0
    7.1061  -16.8438   23.4006 O   0  0  0  0  0  0  0  0  0  0  0  0
    9.3749  -17.0252   22.9254 N   0  0  0  0  0  0  0  0  0  0  0  0
    9.7220  -17.4493   24.3273 C   0  0  1  0  0  0  0  0  0  0  0  0
   10.8881  -18.3384   24.1796 C   0  0  0  0  0  0  0  0  0  0  0  0
   11.5598  -18.9523   25.3230 C   0  0  0  0  0  0  0  0  0  0  0  0
   12.6708  -19.8647   25.0933 C   0  0  0  0  0  0  0  0  0  0  0  0
   12.5491  -20.9091   24.4155 O   0  0  0  0  0  0  0  0  0  0  0  0
    9.9338  -16.2269   25.0721 C   0  0  0  0  0  0  0  0  0  0  0  0
   10.7947  -15.3700   24.6527 O   0  0  0  0  0  0  0  0  0  0  0  0
   13.9194  -19.5903   25.6350 O   0  0  0  0  0  0  0  0  0  0  0  0
    6.7278  -12.6278   25.9617 C   0  0  0  0  0  0  0  0  0  0  0  0
    7.9834  -13.4502   25.9137 C   0  0  0  0  0  0  0  0  0  0  0  0
    8.5040  -13.8044   27.2708 C   0  0  2  0  0  0  0  0  0  0  0  0
    8.9452  -12.6353   28.0801 C   0  0  0  0  0  0  0  0  0  0  0  0
    9.7148  -14.7310   27.0747 C   0  0  2  0  0  0  0  0  0  0  0  0
    9.2472  -15.8408   26.2766 N   0  0  0  0  0  0  0  0  0  0  0  0
   10.2763  -15.1380   28.3623 C   0  0  0  0  0  0  0  0  0  0  0  0
   10.1530  -16.4253   28.8387 O   0  0  0  0  0  0  0  0  0  0  0  0
   10.9026  -14.3322   29.1074 O   0  0  0  0  0  0  0  0  0  0  0  0
  2  1  1  1
  3  2  1  0
  4  3  1  0
  4  5  1  0
  5  6  1  0
  7  6  1  0
  8  2  1  0
  8  9  2  0
 10  8  1  0
 11 10  1  0
 11 12  1  6
 13 12  1  0
 13 14  1  0
 14 15  2  0
 16 24  1  0
 16 11  1  0
 17 16  2  0
 18 14  1  0
 19 20  1  0
 20 21  1  0
 21 22  1  6
 23 24  1  1
 23 21  1  0
 25 23  1  0
 26 25  1  0
 27 25  2  0
M  END
$$$$
