TWP.pdb
     RDKit          3D

 29 31  0  0  1  0  0  0  0  0999 V2000
   11.1084  -18.1968   19.5047 C   0  0  0  0  0  0  0  0  0  0  0  0
   11.0647  -17.4672   20.8005 C   0  0  1  0  0  0  0  0  0  0  0  0
   12.3137  -16.9951   21.1357 O   0  0  0  0  0  0  0  0  0  0  0  0
   10.0145  -16.3631   20.8341 C   0  0  2  0  0  0  0  0  0  0  0  0
   10.4020  -15.4357   19.7768 N   0  0  0  0  0  0  0  0  0  0  0  0
    9.9838  -15.6997   22.1770 C   0  0  0  0  0  0  0  0  0  0  0  0
   10.6595  -14.6517   22.3225 O   0  0  0  0  0  0  0  0  0  0  0  0
    9.2189  -16.2310   23.2201 N   0  0  0  0  0  0  0  0  0  0  0  0
    9.1338  -15.7984   24.5604 C   0  0  1  0  0  0  0  0  0  0  0  0
    7.7521  -16.2780   25.1425 C   0  0  0  0  0  0  0  0  0  0  0  0
    6.8711  -15.1231   25.4282 C   0  0  0  0  0  0  0  0  0  0  0  0
    5.5106  -15.2527   25.7601 C   0  0  0  0  0  0  0  0  0  0  0  0
    4.9655  -14.0465   25.9476 N   0  0  0  0  0  0  0  0  0  0  0  0
    5.9317  -13.0983   25.7539 C   0  0  0  0  0  0  0  0  0  0  0  0
    5.8680  -11.7292   25.8319 C   0  0  0  0  0  0  0  0  0  0  0  0
    7.0424  -11.0258   25.5762 C   0  0  0  0  0  0  0  0  0  0  0  0
    8.2095  -11.6681   25.2575 C   0  0  0  0  0  0  0  0  0  0  0  0
    8.2454  -13.0369   25.1838 C   0  0  0  0  0  0  0  0  0  0  0  0
    7.1018  -13.7811   25.4320 C   0  0  0  0  0  0  0  0  0  0  0  0
   10.1790  -16.1931   25.4793 C   0  0  0  0  0  0  0  0  0  0  0  0
   11.1190  -16.9909   25.1350 O   0  0  0  0  0  0  0  0  0  0  0  0
   10.2479  -15.7248   26.8330 N   0  0  0  0  0  0  0  0  0  0  0  0
    9.3420  -14.8528   27.4885 C   0  0  0  0  0  0  0  0  0  0  0  0
   10.2889  -13.9070   28.2542 C   0  0  0  0  0  0  0  0  0  0  0  0
   11.3834  -14.8343   28.6713 C   0  0  0  0  0  0  0  0  0  0  0  0
   11.3526  -16.0142   27.7565 C   0  0  1  0  0  0  0  0  0  0  0  0
   11.0309  -17.2221   28.5583 C   0  0  0  0  0  0  0  0  0  0  0  0
   11.9288  -17.8896   29.3582 O   0  0  0  0  0  0  0  0  0  0  0  0
    9.8485  -17.7286   28.5468 O   0  0  0  0  0  0  0  0  0  0  0  0
  2  1  1  6
  2  3  1  0
  4  2  1  0
  4  5  1  6
  6  7  2  0
  6  4  1  0
  8  6  1  0
  9  8  1  0
  9 10  1  1
 10 11  1  0
 11 19  1  0
 11 12  2  0
 12 13  1  0
 14 13  1  0
 14 15  2  0
 16 15  1  0
 17 16  2  0
 18 19  2  0
 18 17  1  0
 19 14  1  0
 20  9  1  0
 21 20  2  0
 22 20  1  0
 22 26  1  0
 23 24  1  0
 23 22  1  0
 24 25  1  0
 25 26  1  0
 26 27  1  1
 27 28  1  0
 29 27  2  0
M  END
$$$$
