TWP.pdb
     RDKit          3D

 29 31  0  0  1  0  0  0  0  0999 V2000
    7.6088  -20.1706   21.3232 C   0  0  0  0  0  0  0  0  0  0  0  0
    6.6014  -19.3216   20.6321 C   0  0  1  0  0  0  0  0  0  0  0  0
    5.6444  -20.1006   20.0221 O   0  0  0  0  0  0  0  0  0  0  0  0
    5.9787  -18.2674   21.5400 C   0  0  2  0  0  0  0  0  0  0  0  0
    4.9267  -17.6489   20.7408 N   0  0  0  0  0  0  0  0  0  0  0  0
    7.0069  -17.2705   21.9798 C   0  0  0  0  0  0  0  0  0  0  0  0
    7.3732  -16.4074   21.1449 O   0  0  0  0  0  0  0  0  0  0  0  0
    7.5254  -17.3028   23.2781 N   0  0  0  0  0  0  0  0  0  0  0  0
    8.6839  -16.6737   23.7811 C   0  0  1  0  0  0  0  0  0  0  0  0
    8.5023  -16.4828   25.3330 C   0  0  0  0  0  0  0  0  0  0  0  0
    7.4992  -15.4328   25.6210 C   0  0  0  0  0  0  0  0  0  0  0  0
    6.1165  -15.6821   25.6855 C   0  0  0  0  0  0  0  0  0  0  0  0
    5.4560  -14.5490   25.9446 N   0  0  0  0  0  0  0  0  0  0  0  0
    6.3646  -13.5338   26.0622 C   0  0  0  0  0  0  0  0  0  0  0  0
    6.1828  -12.1983   26.3230 C   0  0  0  0  0  0  0  0  0  0  0  0
    7.3253  -11.4043   26.3820 C   0  0  0  0  0  0  0  0  0  0  0  0
    8.5755  -11.9285   26.1858 C   0  0  0  0  0  0  0  0  0  0  0  0
    8.7292  -13.2658   25.9244 C   0  0  0  0  0  0  0  0  0  0  0  0
    7.6213  -14.0975   25.8576 C   0  0  0  0  0  0  0  0  0  0  0  0
    9.9660  -17.3006   23.5444 C   0  0  0  0  0  0  0  0  0  0  0  0
   10.1283  -18.5672   23.6340 O   0  0  0  0  0  0  0  0  0  0  0  0
   11.1437  -16.5628   23.1905 N   0  0  0  0  0  0  0  0  0  0  0  0
   11.2606  -15.1600   23.0198 C   0  0  0  0  0  0  0  0  0  0  0  0
   12.1222  -15.0528   21.7456 C   0  0  0  0  0  0  0  0  0  0  0  0
   13.0653  -16.1996   21.9111 C   0  0  0  0  0  0  0  0  0  0  0  0
   12.4356  -17.1735   22.8518 C   0  0  1  0  0  0  0  0  0  0  0  0
   13.2807  -17.2642   24.0695 C   0  0  0  0  0  0  0  0  0  0  0  0
   12.9308  -16.7623   25.3014 O   0  0  0  0  0  0  0  0  0  0  0  0
   14.4308  -17.8395   24.0357 O   0  0  0  0  0  0  0  0  0  0  0  0
  2  1  1  1
  2  3  1  0
  4  2  1  0
  4  5  1  6
  6  7  2  0
  6  4  1  0
  8  6  1  0
  9  8  1  0
  9 10  1  1
 10 11  1  0
 11 19  1  0
 11 12  2  0
 12 13  1  0
 14 13  1  0
 14 15  2  0
 16 15  1  0
 17 16  2  0
 18 19  2  0
 18 17  1  0
 19 14  1  0
 20  9  1  0
 21 20  2  0
 22 20  1  0
 22 26  1  0
 23 24  1  0
 23 22  1  0
 24 25  1  0
 25 26  1  0
 26 27  1  1
 27 28  1  0
 29 27  2  0
M  END
$$$$
