TWP.pdb
     RDKit          3D

 29 31  0  0  1  0  0  0  0  0999 V2000
   11.0649  -19.1104   18.5498 C   0  0  0  0  0  0  0  0  0  0  0  0
   10.9752  -18.3983   19.8529 C   0  0  1  0  0  0  0  0  0  0  0  0
   12.1062  -18.6178   20.6064 O   0  0  0  0  0  0  0  0  0  0  0  0
   10.6725  -16.9117   19.7065 C   0  0  2  0  0  0  0  0  0  0  0  0
   11.8014  -16.3639   18.9625 N   0  0  0  0  0  0  0  0  0  0  0  0
   10.5207  -16.2656   21.0496 C   0  0  0  0  0  0  0  0  0  0  0  0
   11.5495  -15.7783   21.5791 O   0  0  0  0  0  0  0  0  0  0  0  0
    9.2725  -16.2036   21.6768 N   0  0  0  0  0  0  0  0  0  0  0  0
    8.9624  -15.7704   22.9833 C   0  0  1  0  0  0  0  0  0  0  0  0
    7.4223  -15.4496   23.0398 C   0  0  0  0  0  0  0  0  0  0  0  0
    7.0377  -14.9457   24.3776 C   0  0  0  0  0  0  0  0  0  0  0  0
    6.5757  -15.7776   25.4131 C   0  0  0  0  0  0  0  0  0  0  0  0
    6.2896  -15.0485   26.4965 N   0  0  0  0  0  0  0  0  0  0  0  0
    6.5529  -13.7357   26.2186 C   0  0  0  0  0  0  0  0  0  0  0  0
    6.4233  -12.6139   26.9994 C   0  0  0  0  0  0  0  0  0  0  0  0
    6.7789  -11.3974   26.4225 C   0  0  0  0  0  0  0  0  0  0  0  0
    7.2347  -11.3196   25.1331 C   0  0  0  0  0  0  0  0  0  0  0  0
    7.3525  -12.4553   24.3738 C   0  0  0  0  0  0  0  0  0  0  0  0
    7.0125  -13.6905   24.9049 C   0  0  0  0  0  0  0  0  0  0  0  0
    9.2897  -16.6389   24.0929 C   0  0  0  0  0  0  0  0  0  0  0  0
    9.2269  -17.9139   23.9974 O   0  0  0  0  0  0  0  0  0  0  0  0
    9.7097  -16.1477   25.3731 N   0  0  0  0  0  0  0  0  0  0  0  0
    9.6562  -14.8100   25.8405 C   0  0  0  0  0  0  0  0  0  0  0  0
   11.0224  -14.6484   26.5369 C   0  0  0  0  0  0  0  0  0  0  0  0
   11.2196  -15.9962   27.1503 C   0  0  0  0  0  0  0  0  0  0  0  0
   10.3647  -16.9654   26.4021 C   0  0  1  0  0  0  0  0  0  0  0  0
    9.3440  -17.5086   27.3341 C   0  0  0  0  0  0  0  0  0  0  0  0
    9.6139  -18.3734   28.3690 O   0  0  0  0  0  0  0  0  0  0  0  0
    8.1040  -17.1865   27.2185 O   0  0  0  0  0  0  0  0  0  0  0  0
  2  1  1  6
  2  3  1  0
  4  2  1  0
  4  5  1  1
  6  7  2  0
  6  4  1  0
  8  6  1  0
  9  8  1  0
  9 10  1  6
 10 11  1  0
 11 19  1  0
 11 12  2  0
 12 13  1  0
 14 13  1  0
 14 15  2  0
 16 15  1  0
 17 16  2  0
 18 19  2  0
 18 17  1  0
 19 14  1  0
 20  9  1  0
 21 20  2  0
 22 20  1  0
 22 26  1  0
 23 24  1  0
 23 22  1  0
 24 25  1  0
 25 26  1  0
 26 27  1  1
 27 28  1  0
 29 27  2  0
M  END
$$$$
