TWP.pdb
     RDKit          3D

 29 31  0  0  1  0  0  0  0  0999 V2000
   10.0480  -16.4336   19.0993 C   0  0  0  0  0  0  0  0  0  0  0  0
    9.9280  -14.9878   18.7701 C   0  0  1  0  0  0  0  0  0  0  0  0
    9.8728  -14.8018   17.4072 O   0  0  0  0  0  0  0  0  0  0  0  0
    8.7673  -14.3030   19.4822 C   0  0  2  0  0  0  0  0  0  0  0  0
    8.6785  -12.9775   18.8796 N   0  0  0  0  0  0  0  0  0  0  0  0
    9.0170  -14.2315   20.9577 C   0  0  0  0  0  0  0  0  0  0  0  0
    9.9748  -13.5213   21.3507 O   0  0  0  0  0  0  0  0  0  0  0  0
    8.2008  -14.9259   21.8560 N   0  0  0  0  0  0  0  0  0  0  0  0
    8.3048  -15.0072   23.2607 C   0  0  1  0  0  0  0  0  0  0  0  0
    6.9802  -15.6539   23.8129 C   0  0  0  0  0  0  0  0  0  0  0  0
    6.4711  -14.8979   24.9795 C   0  0  0  0  0  0  0  0  0  0  0  0
    5.7817  -15.4984   26.0482 C   0  0  0  0  0  0  0  0  0  0  0  0
    5.4296  -14.5732   26.9467 N   0  0  0  0  0  0  0  0  0  0  0  0
    5.8710  -13.3544   26.5110 C   0  0  0  0  0  0  0  0  0  0  0  0
    5.7577  -12.1089   27.0771 C   0  0  0  0  0  0  0  0  0  0  0  0
    6.3208  -11.0435   26.3792 C   0  0  0  0  0  0  0  0  0  0  0  0
    6.9568  -11.2262   25.1799 C   0  0  0  0  0  0  0  0  0  0  0  0
    7.0539  -12.4808   24.6350 C   0  0  0  0  0  0  0  0  0  0  0  0
    6.5104  -13.5736   25.2937 C   0  0  0  0  0  0  0  0  0  0  0  0
    9.4309  -15.7163   23.8280 C   0  0  0  0  0  0  0  0  0  0  0  0
   10.1121  -16.5610   23.1491 O   0  0  0  0  0  0  0  0  0  0  0  0
    9.8723  -15.5293   25.1797 N   0  0  0  0  0  0  0  0  0  0  0  0
    9.3592  -14.6134   26.1328 C   0  0  0  0  0  0  0  0  0  0  0  0
   10.6429  -14.0552   26.7793 C   0  0  0  0  0  0  0  0  0  0  0  0
   11.5243  -15.2610   26.8107 C   0  0  0  0  0  0  0  0  0  0  0  0
   11.0216  -16.2182   25.7806 C   0  0  1  0  0  0  0  0  0  0  0  0
   10.5617  -17.4508   26.4695 C   0  0  0  0  0  0  0  0  0  0  0  0
    9.2484  -17.8490   26.5625 O   0  0  0  0  0  0  0  0  0  0  0  0
   11.4002  -18.2431   27.0387 O   0  0  0  0  0  0  0  0  0  0  0  0
  2  1  1  6
  2  3  1  0
  4  2  1  0
  4  5  1  6
  6  7  2  0
  6  4  1  0
  8  6  1  0
  9  8  1  0
  9 10  1  6
 10 11  1  0
 11 19  1  0
 11 12  2  0
 12 13  1  0
 14 13  1  0
 14 15  2  0
 16 15  1  0
 17 16  2  0
 18 19  2  0
 18 17  1  0
 19 14  1  0
 20  9  1  0
 21 20  2  0
 22 20  1  0
 22 26  1  0
 23 24  1  0
 23 22  1  0
 24 25  1  0
 25 26  1  0
 26 27  1  1
 27 28  1  0
 29 27  2  0
M  END
$$$$
