LKH.pdb
     RDKit          3D

 28 28  0  0  1  0  0  0  0  0999 V2000
    9.2485  -12.8776   19.2934 C   0  0  0  0  0  0  0  0  0  0  0  0
    7.8910  -13.3741   18.8846 C   0  0  2  0  0  0  0  0  0  0  0  0
    7.0422  -12.2644   18.2650 C   0  0  0  0  0  0  0  0  0  0  0  0
    7.1534  -13.9991   20.0780 C   0  0  0  0  0  0  0  0  0  0  0  0
    8.0806  -15.0429   20.6429 C   0  0  2  0  0  0  0  0  0  0  0  0
    8.3511  -16.0180   19.6319 N   0  0  0  0  0  0  0  0  0  0  0  0
    7.5680  -15.6423   21.8990 C   0  0  0  0  0  0  0  0  0  0  0  0
    7.0898  -14.9924   22.8372 O   0  0  0  0  0  0  0  0  0  0  0  0
    7.6347  -17.0460   22.0220 N   0  0  0  0  0  0  0  0  0  0  0  0
    7.2912  -17.7795   23.2316 C   0  0  1  0  0  0  0  0  0  0  0  0
    7.0607  -19.2179   22.9806 C   0  0  0  0  0  0  0  0  0  0  0  0
    6.6450  -19.9162   24.2361 C   0  0  0  0  0  0  0  0  0  0  0  0
    6.3105  -21.3841   24.0391 C   0  0  0  0  0  0  0  0  0  0  0  0
    5.8556  -21.9544   25.3500 C   0  0  0  0  0  0  0  0  0  0  0  0
    5.5849  -23.3900   25.2291 N   0  0  0  0  0  0  0  0  0  0  0  0
    8.3099  -17.5056   24.2321 C   0  0  0  0  0  0  0  0  0  0  0  0
    9.5536  -17.6939   24.1287 O   0  0  0  0  0  0  0  0  0  0  0  0
    7.8957  -16.9546   25.5048 N   0  0  0  0  0  0  0  0  0  0  0  0
    8.8971  -16.5314   26.4742 C   0  0  1  0  0  0  0  0  0  0  0  0
    8.2573  -15.4021   27.2566 C   0  0  0  0  0  0  0  0  0  0  0  0
    9.2139  -14.9958   28.3168 C   0  0  0  0  0  0  0  0  0  0  0  0
    9.9627  -13.8131   28.3411 C   0  0  0  0  0  0  0  0  0  0  0  0
   10.7226  -13.7728   29.4464 N   0  0  0  0  0  0  0  0  0  0  0  0
   10.4624  -14.9083   30.1131 C   0  0  0  0  0  0  0  0  0  0  0  0
    9.5650  -15.6404   29.4456 N   0  0  0  0  0  0  0  0  0  0  0  0
    9.2037  -17.6912   27.3426 C   0  0  0  0  0  0  0  0  0  0  0  0
    8.3424  -18.5490   27.6249 O   0  0  0  0  0  0  0  0  0  0  0  0
   10.4710  -17.8624   27.8749 O   0  0  0  0  0  0  0  0  0  0  0  0
  2  1  1  1
  3  2  1  0
  4  2  1  0
  5  4  1  0
  5  6  1  6
  7  5  1  0
  7  8  2  0
  9  7  1  0
 10  9  1  0
 10 11  1  6
 11 12  1  0
 12 13  1  0
 13 14  1  0
 14 15  1  0
 16 10  1  0
 17 16  2  0
 18 16  1  0
 19 18  1  0
 19 20  1  1
 20 21  1  0
 21 22  2  0
 22 23  1  0
 24 23  1  0
 25 21  1  0
 25 24  2  0
 26 28  1  0
 26 19  1  0
 27 26  2  0
M  END
$$$$
