LKH.pdb
     RDKit          3D

 28 28  0  0  1  0  0  0  0  0999 V2000
    9.1642  -13.4763   19.0536 C   0  0  0  0  0  0  0  0  0  0  0  0
    7.8309  -13.2160   19.6947 C   0  0  2  0  0  0  0  0  0  0  0  0
    7.5349  -11.7207   19.8051 C   0  0  0  0  0  0  0  0  0  0  0  0
    7.7509  -13.8738   21.0803 C   0  0  0  0  0  0  0  0  0  0  0  0
    7.9320  -15.3516   20.8530 C   0  0  2  0  0  0  0  0  0  0  0  0
    6.8048  -15.8500   20.1271 N   0  0  0  0  0  0  0  0  0  0  0  0
    8.1822  -16.0963   22.1111 C   0  0  0  0  0  0  0  0  0  0  0  0
    7.3180  -16.3337   22.9643 O   0  0  0  0  0  0  0  0  0  0  0  0
    9.4946  -16.5599   22.3400 N   0  0  0  0  0  0  0  0  0  0  0  0
    9.8957  -17.3442   23.4989 C   0  0  1  0  0  0  0  0  0  0  0  0
   11.0957  -18.1686   23.2425 C   0  0  0  0  0  0  0  0  0  0  0  0
   11.3700  -19.0805   24.3957 C   0  0  0  0  0  0  0  0  0  0  0  0
   12.5890  -19.9646   24.2016 C   0  0  0  0  0  0  0  0  0  0  0  0
   12.7466  -20.8396   25.4100 C   0  0  0  0  0  0  0  0  0  0  0  0
   13.9277  -21.6984   25.2824 N   0  0  0  0  0  0  0  0  0  0  0  0
   10.0235  -16.4437   24.6332 C   0  0  0  0  0  0  0  0  0  0  0  0
   10.7972  -15.4522   24.7391 O   0  0  0  0  0  0  0  0  0  0  0  0
    9.1888  -16.6731   25.7931 N   0  0  0  0  0  0  0  0  0  0  0  0
    9.3919  -15.8864   27.0020 C   0  0  1  0  0  0  0  0  0  0  0  0
    8.0087  -15.4553   27.4466 C   0  0  0  0  0  0  0  0  0  0  0  0
    7.7284  -14.1391   26.8193 C   0  0  0  0  0  0  0  0  0  0  0  0
    8.6213  -13.3896   26.0440 C   0  0  0  0  0  0  0  0  0  0  0  0
    8.0354  -12.2524   25.6387 N   0  0  0  0  0  0  0  0  0  0  0  0
    6.7932  -12.2775   26.1464 C   0  0  0  0  0  0  0  0  0  0  0  0
    6.6046  -13.3982   26.8502 N   0  0  0  0  0  0  0  0  0  0  0  0
   10.0398  -16.7607   28.0065 C   0  0  0  0  0  0  0  0  0  0  0  0
   10.9400  -16.3417   28.7623 O   0  0  0  0  0  0  0  0  0  0  0  0
    9.6623  -18.0869   28.1402 O   0  0  0  0  0  0  0  0  0  0  0  0
  2  1  1  1
  3  2  1  0
  4  2  1  0
  5  4  1  0
  5  6  1  1
  7  5  1  0
  7  8  2  0
  9  7  1  0
 10  9  1  0
 10 11  1  6
 11 12  1  0
 12 13  1  0
 13 14  1  0
 14 15  1  0
 16 10  1  0
 17 16  2  0
 18 16  1  0
 19 18  1  0
 19 20  1  1
 20 21  1  0
 21 22  2  0
 22 23  1  0
 24 23  1  0
 25 21  1  0
 25 24  2  0
 26 28  1  0
 26 19  1  0
 27 26  2  0
M  END
$$$$
