LKH.pdb
     RDKit          3D

 28 28  0  0  1  0  0  0  0  0999 V2000
    9.7957  -13.0124   18.7244 C   0  0  0  0  0  0  0  0  0  0  0  0
    8.3505  -13.3319   18.9808 C   0  0  2  0  0  0  0  0  0  0  0  0
    7.5147  -12.0676   19.1781 C   0  0  0  0  0  0  0  0  0  0  0  0
    8.2010  -14.2585   20.1965 C   0  0  0  0  0  0  0  0  0  0  0  0
    9.0576  -15.4641   19.9114 C   0  0  2  0  0  0  0  0  0  0  0  0
    8.4650  -16.2118   18.8456 N   0  0  0  0  0  0  0  0  0  0  0  0
    9.3087  -16.2850   21.1210 C   0  0  0  0  0  0  0  0  0  0  0  0
    8.4214  -16.7102   21.8715 O   0  0  0  0  0  0  0  0  0  0  0  0
   10.6502  -16.5956   21.4267 N   0  0  0  0  0  0  0  0  0  0  0  0
   11.0749  -17.2980   22.6289 C   0  0  1  0  0  0  0  0  0  0  0  0
   12.2996  -18.0989   22.4194 C   0  0  0  0  0  0  0  0  0  0  0  0
   12.0952  -19.1083   21.3349 C   0  0  0  0  0  0  0  0  0  0  0  0
   13.3077  -19.9848   21.0770 C   0  0  0  0  0  0  0  0  0  0  0  0
   12.9982  -20.9121   19.9389 C   0  0  0  0  0  0  0  0  0  0  0  0
   14.1365  -21.7918   19.6578 N   0  0  0  0  0  0  0  0  0  0  0  0
   11.1747  -16.3291   23.7082 C   0  0  0  0  0  0  0  0  0  0  0  0
   11.4709  -15.1060   23.6130 O   0  0  0  0  0  0  0  0  0  0  0  0
   10.9133  -16.7740   25.0605 N   0  0  0  0  0  0  0  0  0  0  0  0
   10.4239  -15.8289   26.0550 C   0  0  1  0  0  0  0  0  0  0  0  0
    9.0817  -15.3505   25.5386 C   0  0  0  0  0  0  0  0  0  0  0  0
    8.5229  -14.4157   26.5476 C   0  0  0  0  0  0  0  0  0  0  0  0
    9.1591  -13.9946   27.7215 C   0  0  0  0  0  0  0  0  0  0  0  0
    8.3646  -13.1506   28.3976 N   0  0  0  0  0  0  0  0  0  0  0  0
    7.2438  -13.0365   27.6678 C   0  0  0  0  0  0  0  0  0  0  0  0
    7.3322  -13.7873   26.5654 N   0  0  0  0  0  0  0  0  0  0  0  0
   10.2873  -16.5543   27.3388 C   0  0  0  0  0  0  0  0  0  0  0  0
    9.7827  -17.6940   27.4014 O   0  0  0  0  0  0  0  0  0  0  0  0
   10.7203  -15.9839   28.5245 O   0  0  0  0  0  0  0  0  0  0  0  0
  2  1  1  1
  3  2  1  0
  4  2  1  0
  5  4  1  0
  5  6  1  6
  7  5  1  0
  7  8  2  0
  9  7  1  0
 10  9  1  0
 10 11  1  6
 11 12  1  0
 12 13  1  0
 13 14  1  0
 14 15  1  0
 16 10  1  0
 17 16  2  0
 18 16  1  0
 19 18  1  0
 19 20  1  6
 20 21  1  0
 21 22  2  0
 22 23  1  0
 24 23  1  0
 25 21  1  0
 25 24  2  0
 26 28  1  0
 26 19  1  0
 27 26  2  0
M  END
$$$$
