LKH.pdb
     RDKit          3D

 28 28  0  0  1  0  0  0  0  0999 V2000
    8.9507  -12.1437   19.2231 C   0  0  0  0  0  0  0  0  0  0  0  0
    8.0645  -13.2537   18.7343 C   0  0  2  0  0  0  0  0  0  0  0  0
    6.6964  -12.7363   18.2912 C   0  0  0  0  0  0  0  0  0  0  0  0
    7.8962  -14.3357   19.8112 C   0  0  0  0  0  0  0  0  0  0  0  0
    9.2787  -14.6233   20.3350 C   0  0  2  0  0  0  0  0  0  0  0  0
   10.0440  -15.2507   19.3022 N   0  0  0  0  0  0  0  0  0  0  0  0
    9.2607  -15.4058   21.5949 C   0  0  0  0  0  0  0  0  0  0  0  0
    8.5382  -15.1474   22.5657 O   0  0  0  0  0  0  0  0  0  0  0  0
   10.1276  -16.5151   21.6816 N   0  0  0  0  0  0  0  0  0  0  0  0
   10.2593  -17.3618   22.8585 C   0  0  1  0  0  0  0  0  0  0  0  0
   11.0391  -18.5895   22.5939 C   0  0  0  0  0  0  0  0  0  0  0  0
   10.3792  -19.4212   21.5407 C   0  0  0  0  0  0  0  0  0  0  0  0
   11.1292  -20.6992   21.2097 C   0  0  0  0  0  0  0  0  0  0  0  0
   10.3125  -21.4989   20.2381 C   0  0  0  0  0  0  0  0  0  0  0  0
   10.9853  -22.7572   19.9019 N   0  0  0  0  0  0  0  0  0  0  0  0
   10.7799  -16.5487   23.9455 C   0  0  0  0  0  0  0  0  0  0  0  0
   11.5899  -15.5847   23.8594 O   0  0  0  0  0  0  0  0  0  0  0  0
   10.3472  -16.8430   25.2950 N   0  0  0  0  0  0  0  0  0  0  0  0
    9.7696  -15.7900   26.1192 C   0  0  1  0  0  0  0  0  0  0  0  0
    8.5286  -15.3282   25.3821 C   0  0  0  0  0  0  0  0  0  0  0  0
    7.9638  -14.1799   26.1350 C   0  0  0  0  0  0  0  0  0  0  0  0
    8.5336  -13.5731   27.2607 C   0  0  0  0  0  0  0  0  0  0  0  0
    7.7545  -12.5656   27.6836 N   0  0  0  0  0  0  0  0  0  0  0  0
    6.7087  -12.5318   26.8430 C   0  0  0  0  0  0  0  0  0  0  0  0
    6.8277  -13.4904   25.9190 N   0  0  0  0  0  0  0  0  0  0  0  0
    9.4344  -16.3795   27.4357 C   0  0  0  0  0  0  0  0  0  0  0  0
    8.9163  -17.5101   27.5389 O   0  0  0  0  0  0  0  0  0  0  0  0
    9.6883  -15.6862   28.6078 O   0  0  0  0  0  0  0  0  0  0  0  0
  2  1  1  1
  3  2  1  0
  4  2  1  0
  5  4  1  0
  5  6  1  6
  7  5  1  0
  7  8  2  0
  9  7  1  0
 10  9  1  0
 10 11  1  6
 11 12  1  0
 12 13  1  0
 13 14  1  0
 14 15  1  0
 16 10  1  0
 17 16  2  0
 18 16  1  0
 19 18  1  0
 19 20  1  6
 20 21  1  0
 21 22  2  0
 22 23  1  0
 24 23  1  0
 25 21  1  0
 25 24  2  0
 26 28  1  0
 26 19  1  0
 27 26  2  0
M  END
$$$$
