LKH.pdb
     RDKit          3D

 28 28  0  0  1  0  0  0  0  0999 V2000
    5.9576  -11.8330   24.5716 C   0  0  0  0  0  0  0  0  0  0  0  0
    5.9315  -12.4809   25.9266 C   0  0  2  0  0  0  0  0  0  0  0  0
    6.2559  -11.4851   27.0397 C   0  0  0  0  0  0  0  0  0  0  0  0
    6.9005  -13.6711   25.9841 C   0  0  0  0  0  0  0  0  0  0  0  0
    6.4081  -14.6613   24.9617 C   0  0  2  0  0  0  0  0  0  0  0  0
    5.1940  -15.2510   25.4353 N   0  0  0  0  0  0  0  0  0  0  0  0
    7.4355  -15.6685   24.6012 C   0  0  0  0  0  0  0  0  0  0  0  0
    7.8978  -16.5049   25.3874 O   0  0  0  0  0  0  0  0  0  0  0  0
    7.9098  -15.6641   23.2728 N   0  0  0  0  0  0  0  0  0  0  0  0
    8.9999  -16.4990   22.7895 C   0  0  1  0  0  0  0  0  0  0  0  0
    9.0883  -16.5245   21.3141 C   0  0  0  0  0  0  0  0  0  0  0  0
   10.0905  -17.5372   20.8594 C   0  0  0  0  0  0  0  0  0  0  0  0
   10.2473  -17.6100   19.3510 C   0  0  0  0  0  0  0  0  0  0  0  0
   11.1349  -18.7718   19.0147 C   0  0  0  0  0  0  0  0  0  0  0  0
   11.2558  -18.9334   17.5627 N   0  0  0  0  0  0  0  0  0  0  0  0
   10.2229  -16.0755   23.4517 C   0  0  0  0  0  0  0  0  0  0  0  0
   10.7256  -14.9179   23.4620 O   0  0  0  0  0  0  0  0  0  0  0  0
   10.9811  -17.0596   24.1944 N   0  0  0  0  0  0  0  0  0  0  0  0
   11.4278  -16.7627   25.5487 C   0  0  1  0  0  0  0  0  0  0  0  0
   10.1649  -16.5380   26.3557 C   0  0  0  0  0  0  0  0  0  0  0  0
   10.5722  -16.2866   27.7611 C   0  0  0  0  0  0  0  0  0  0  0  0
   11.5756  -15.4058   28.1826 C   0  0  0  0  0  0  0  0  0  0  0  0
   11.6757  -15.4294   29.5206 N   0  0  0  0  0  0  0  0  0  0  0  0
   10.7535  -16.3086   29.9428 C   0  0  0  0  0  0  0  0  0  0  0  0
   10.0935  -16.8221   28.8999 N   0  0  0  0  0  0  0  0  0  0  0  0
   12.1882  -17.9343   26.0406 C   0  0  0  0  0  0  0  0  0  0  0  0
   12.9345  -17.8641   27.0383 O   0  0  0  0  0  0  0  0  0  0  0  0
   12.0940  -19.1596   25.4012 O   0  0  0  0  0  0  0  0  0  0  0  0
  2  1  1  6
  3  2  1  0
  4  2  1  0
  5  4  1  0
  5  6  1  1
  7  5  1  0
  7  8  2  0
  9  7  1  0
 10  9  1  0
 10 11  1  6
 11 12  1  0
 12 13  1  0
 13 14  1  0
 14 15  1  0
 16 10  1  0
 17 16  2  0
 18 16  1  0
 19 18  1  0
 19 20  1  1
 20 21  1  0
 21 22  2  0
 22 23  1  0
 24 23  1  0
 25 21  1  0
 25 24  2  0
 26 28  1  0
 26 19  1  0
 27 26  2  0
M  END
$$$$
