LKH.pdb
     RDKit          3D

 28 28  0  0  1  0  0  0  0  0999 V2000
    9.2088  -13.5875   18.2448 C   0  0  0  0  0  0  0  0  0  0  0  0
    7.9106  -13.2192   18.9047 C   0  0  2  0  0  0  0  0  0  0  0  0
    7.7724  -11.7077   19.0840 C   0  0  0  0  0  0  0  0  0  0  0  0
    7.7640  -13.9272   20.2597 C   0  0  0  0  0  0  0  0  0  0  0  0
    7.7308  -15.4027   19.9594 C   0  0  2  0  0  0  0  0  0  0  0  0
    6.6261  -15.6741   19.0921 N   0  0  0  0  0  0  0  0  0  0  0  0
    7.7176  -16.2351   21.1869 C   0  0  0  0  0  0  0  0  0  0  0  0
    6.7702  -16.2913   21.9809 O   0  0  0  0  0  0  0  0  0  0  0  0
    8.8651  -17.0095   21.4575 N   0  0  0  0  0  0  0  0  0  0  0  0
    8.9950  -17.9127   22.5917 C   0  0  1  0  0  0  0  0  0  0  0  0
    9.7371  -19.1465   22.2566 C   0  0  0  0  0  0  0  0  0  0  0  0
    8.9401  -20.0113   21.3326 C   0  0  0  0  0  0  0  0  0  0  0  0
    9.6609  -21.2767   20.9031 C   0  0  0  0  0  0  0  0  0  0  0  0
    8.8195  -21.9880   19.8849 C   0  0  0  0  0  0  0  0  0  0  0  0
    9.5136  -23.1717   19.3690 N   0  0  0  0  0  0  0  0  0  0  0  0
    9.5562  -17.1644   23.7048 C   0  0  0  0  0  0  0  0  0  0  0  0
   10.5678  -16.4101   23.6866 O   0  0  0  0  0  0  0  0  0  0  0  0
    8.9141  -17.2670   24.9979 N   0  0  0  0  0  0  0  0  0  0  0  0
    9.4856  -16.5823   26.1496 C   0  0  1  0  0  0  0  0  0  0  0  0
    8.3053  -16.0361   26.9277 C   0  0  0  0  0  0  0  0  0  0  0  0
    7.8571  -14.7955   26.2463 C   0  0  0  0  0  0  0  0  0  0  0  0
    8.4424  -14.2223   25.1109 C   0  0  0  0  0  0  0  0  0  0  0  0
    7.7808  -13.1069   24.7662 N   0  0  0  0  0  0  0  0  0  0  0  0
    6.7931  -12.9726   25.6651 C   0  0  0  0  0  0  0  0  0  0  0  0
    6.8335  -13.9748   26.5487 N   0  0  0  0  0  0  0  0  0  0  0  0
   10.2438  -17.5805   26.9381 C   0  0  0  0  0  0  0  0  0  0  0  0
   10.2089  -18.7983   26.6678 O   0  0  0  0  0  0  0  0  0  0  0  0
   11.0248  -17.1892   28.0133 O   0  0  0  0  0  0  0  0  0  0  0  0
  2  1  1  1
  3  2  1  0
  4  2  1  0
  5  4  1  0
  5  6  1  1
  7  5  1  0
  7  8  2  0
  9  7  1  0
 10  9  1  0
 10 11  1  6
 11 12  1  0
 12 13  1  0
 13 14  1  0
 14 15  1  0
 16 10  1  0
 17 16  2  0
 18 16  1  0
 19 18  1  0
 19 20  1  1
 20 21  1  0
 21 22  2  0
 22 23  1  0
 24 23  1  0
 25 21  1  0
 25 24  2  0
 26 28  1  0
 26 19  1  0
 27 26  2  0
M  END
$$$$
