LKH.pdb
     RDKit          3D

 28 28  0  0  1  0  0  0  0  0999 V2000
    8.9871  -13.1340   19.4289 C   0  0  0  0  0  0  0  0  0  0  0  0
    7.5409  -13.3524   19.0864 C   0  0  2  0  0  0  0  0  0  0  0  0
    6.8403  -12.0456   18.7160 C   0  0  0  0  0  0  0  0  0  0  0  0
    6.8007  -14.0384   20.2442 C   0  0  0  0  0  0  0  0  0  0  0  0
    7.6637  -15.1996   20.6628 C   0  0  2  0  0  0  0  0  0  0  0  0
    7.5672  -16.2286   19.6739 N   0  0  0  0  0  0  0  0  0  0  0  0
    7.3477  -15.6824   22.0293 C   0  0  0  0  0  0  0  0  0  0  0  0
    7.1975  -14.9452   23.0117 O   0  0  0  0  0  0  0  0  0  0  0  0
    7.2118  -17.0748   22.2096 N   0  0  0  0  0  0  0  0  0  0  0  0
    6.8222  -17.7041   23.4631 C   0  0  1  0  0  0  0  0  0  0  0  0
    6.3353  -19.0879   23.2798 C   0  0  0  0  0  0  0  0  0  0  0  0
    4.9114  -19.0938   22.8224 C   0  0  0  0  0  0  0  0  0  0  0  0
    4.7126  -19.7008   21.4450 C   0  0  0  0  0  0  0  0  0  0  0  0
    3.2659  -19.5756   21.0680 C   0  0  0  0  0  0  0  0  0  0  0  0
    3.0028  -20.2294   19.7826 N   0  0  0  0  0  0  0  0  0  0  0  0
    7.9312  -17.5820   24.3952 C   0  0  0  0  0  0  0  0  0  0  0  0
    9.1561  -17.7685   24.1551 O   0  0  0  0  0  0  0  0  0  0  0  0
    7.6439  -17.2063   25.7632 N   0  0  0  0  0  0  0  0  0  0  0  0
    8.7241  -16.7787   26.6418 C   0  0  1  0  0  0  0  0  0  0  0  0
    8.2246  -15.5193   27.3209 C   0  0  0  0  0  0  0  0  0  0  0  0
    9.2385  -15.1249   28.3312 C   0  0  0  0  0  0  0  0  0  0  0  0
   10.3872  -15.8494   28.6712 C   0  0  0  0  0  0  0  0  0  0  0  0
   11.0767  -15.1988   29.6210 N   0  0  0  0  0  0  0  0  0  0  0  0
   10.3799  -14.0813   29.8806 C   0  0  0  0  0  0  0  0  0  0  0  0
    9.2847  -14.0318   29.1159 N   0  0  0  0  0  0  0  0  0  0  0  0
    8.9686  -17.8647   27.6185 C   0  0  0  0  0  0  0  0  0  0  0  0
    9.9760  -17.8743   28.3551 O   0  0  0  0  0  0  0  0  0  0  0  0
    8.0762  -18.9165   27.7469 O   0  0  0  0  0  0  0  0  0  0  0  0
  2  1  1  1
  3  2  1  0
  4  2  1  0
  5  4  1  0
  5  6  1  6
  7  5  1  0
  7  8  2  0
  9  7  1  0
 10  9  1  0
 10 11  1  6
 11 12  1  0
 12 13  1  0
 13 14  1  0
 14 15  1  0
 16 10  1  0
 17 16  2  0
 18 16  1  0
 19 18  1  0
 19 20  1  1
 20 21  1  0
 21 22  2  0
 22 23  1  0
 24 23  1  0
 25 21  1  0
 25 24  2  0
 26 28  1  0
 26 19  1  0
 27 26  2  0
M  END
$$$$
