LKH.pdb
     RDKit          3D

 28 28  0  0  1  0  0  0  0  0999 V2000
    9.6975  -13.5949   18.8628 C   0  0  0  0  0  0  0  0  0  0  0  0
    8.2438  -13.2526   19.0243 C   0  0  2  0  0  0  0  0  0  0  0  0
    8.0099  -11.7424   19.0098 C   0  0  0  0  0  0  0  0  0  0  0  0
    7.6770  -13.8623   20.3150 C   0  0  0  0  0  0  0  0  0  0  0  0
    7.9318  -15.3439   20.2249 C   0  0  2  0  0  0  0  0  0  0  0  0
    7.0781  -15.9005   19.2211 N   0  0  0  0  0  0  0  0  0  0  0  0
    7.8013  -16.0265   21.5353 C   0  0  0  0  0  0  0  0  0  0  0  0
    6.7344  -16.1629   22.1471 O   0  0  0  0  0  0  0  0  0  0  0  0
    8.9765  -16.5507   22.1131 N   0  0  0  0  0  0  0  0  0  0  0  0
    8.9995  -17.4015   23.2940 C   0  0  1  0  0  0  0  0  0  0  0  0
    9.7154  -18.6746   23.0664 C   0  0  0  0  0  0  0  0  0  0  0  0
    8.7658  -19.8297   23.0902 C   0  0  0  0  0  0  0  0  0  0  0  0
    9.4325  -21.1760   22.8702 C   0  0  0  0  0  0  0  0  0  0  0  0
    8.3683  -22.2271   22.7545 C   0  0  0  0  0  0  0  0  0  0  0  0
    8.9529  -23.5262   22.4093 N   0  0  0  0  0  0  0  0  0  0  0  0
    9.5150  -16.6194   24.4059 C   0  0  0  0  0  0  0  0  0  0  0  0
   10.5509  -15.8985   24.4185 O   0  0  0  0  0  0  0  0  0  0  0  0
    8.7902  -16.6408   25.6585 N   0  0  0  0  0  0  0  0  0  0  0  0
    9.2629  -15.8483   26.7856 C   0  0  1  0  0  0  0  0  0  0  0  0
    8.0394  -15.5807   27.6390 C   0  0  0  0  0  0  0  0  0  0  0  0
    7.2350  -14.5392   26.9517 C   0  0  0  0  0  0  0  0  0  0  0  0
    7.5980  -13.8544   25.7857 C   0  0  0  0  0  0  0  0  0  0  0  0
    6.6349  -12.9844   25.4448 N   0  0  0  0  0  0  0  0  0  0  0  0
    5.6770  -13.1129   26.3762 C   0  0  0  0  0  0  0  0  0  0  0  0
    6.0285  -14.0369   27.2758 N   0  0  0  0  0  0  0  0  0  0  0  0
   10.2700  -16.6539   27.5135 C   0  0  0  0  0  0  0  0  0  0  0  0
   10.5040  -17.8427   27.2148 O   0  0  0  0  0  0  0  0  0  0  0  0
   10.9924  -16.1067   28.5612 O   0  0  0  0  0  0  0  0  0  0  0  0
  2  1  1  1
  3  2  1  0
  4  2  1  0
  5  4  1  0
  5  6  1  6
  7  5  1  0
  7  8  2  0
  9  7  1  0
 10  9  1  0
 10 11  1  6
 11 12  1  0
 12 13  1  0
 13 14  1  0
 14 15  1  0
 16 10  1  0
 17 16  2  0
 18 16  1  0
 19 18  1  0
 19 20  1  1
 20 21  1  0
 21 22  2  0
 22 23  1  0
 24 23  1  0
 25 21  1  0
 25 24  2  0
 26 28  1  0
 26 19  1  0
 27 26  2  0
M  END
$$$$
