YYY.pdb
     RDKit          3D

 37 39  0  0  1  0  0  0  0  0999 V2000
   26.9747  -12.3099  -19.9602 O   0  0  0  0  0  0  0  0  0  0  0  0
   26.4433  -13.5122  -19.4615 C   0  0  0  0  0  0  0  0  0  0  0  0
   25.7514  -14.3375  -20.3273 C   0  0  0  0  0  0  0  0  0  0  0  0
   25.2190  -15.5264  -19.8598 C   0  0  0  0  0  0  0  0  0  0  0  0
   25.3605  -15.9158  -18.5393 C   0  0  0  0  0  0  0  0  0  0  0  0
   24.7946  -17.1759  -18.0450 C   0  0  0  0  0  0  0  0  0  0  0  0
   25.8776  -18.2045  -17.8265 C   0  0  2  0  0  0  0  0  0  0  0  0
   26.5880  -18.5123  -19.0488 N   0  0  0  0  0  0  0  0  0  0  0  0
   25.3377  -19.4268  -17.1801 C   0  0  0  0  0  0  0  0  0  0  0  0
   24.7287  -20.2498  -17.9068 O   0  0  0  0  0  0  0  0  0  0  0  0
   26.0578  -15.0630  -17.7104 C   0  0  0  0  0  0  0  0  0  0  0  0
   26.5976  -13.8729  -18.1535 C   0  0  0  0  0  0  0  0  0  0  0  0
   29.8287  -24.1933  -17.3150 O   0  0  0  0  0  0  0  0  0  0  0  0
   28.8666  -23.5469  -16.5475 C   0  0  0  0  0  0  0  0  0  0  0  0
   29.0719  -22.2224  -16.2452 C   0  0  0  0  0  0  0  0  0  0  0  0
   28.1067  -21.5755  -15.4757 C   0  0  0  0  0  0  0  0  0  0  0  0
   26.9755  -22.1881  -15.0113 C   0  0  0  0  0  0  0  0  0  0  0  0
   25.9447  -21.5216  -14.2113 C   0  0  0  0  0  0  0  0  0  0  0  0
   24.9331  -20.7342  -15.0702 C   0  0  2  0  0  0  0  0  0  0  0  0
   25.5058  -19.6539  -15.7868 N   0  0  0  0  0  0  0  0  0  0  0  0
   23.7937  -20.4041  -14.1978 C   0  0  0  0  0  0  0  0  0  0  0  0
   23.9487  -19.4859  -13.3324 O   0  0  0  0  0  0  0  0  0  0  0  0
   26.8399  -23.5443  -15.3642 C   0  0  0  0  0  0  0  0  0  0  0  0
   27.7464  -24.2292  -16.1111 C   0  0  0  0  0  0  0  0  0  0  0  0
   19.3622  -17.3887  -18.6645 O   0  0  0  0  0  0  0  0  0  0  0  0
   19.8097  -17.7951  -17.4129 C   0  0  0  0  0  0  0  0  0  0  0  0
   18.9720  -18.4893  -16.5793 C   0  0  0  0  0  0  0  0  0  0  0  0
   19.4277  -18.8967  -15.3194 C   0  0  0  0  0  0  0  0  0  0  0  0
   20.6984  -18.6185  -14.8927 C   0  0  0  0  0  0  0  0  0  0  0  0
   21.1476  -19.0607  -13.5731 C   0  0  0  0  0  0  0  0  0  0  0  0
   21.4005  -20.5358  -13.4387 C   0  0  2  0  0  0  0  0  0  0  0  0
   22.5184  -21.0132  -14.2208 N   0  0  0  0  0  0  0  0  0  0  0  0
   20.2201  -21.3559  -13.7573 C   0  0  0  0  0  0  0  0  0  0  0  0
   20.2734  -22.3218  -14.7423 O   0  0  0  0  0  0  0  0  0  0  0  0
   21.5441  -17.9251  -15.7173 C   0  0  0  0  0  0  0  0  0  0  0  0
   21.0962  -17.5218  -16.9621 C   0  0  0  0  0  0  0  0  0  0  0  0
   19.1523  -21.1863  -13.1375 O   0  0  0  0  0  0  0  0  0  0  0  0
  2  1  1  0
  3  2  2  0
  4  3  1  0
  5 11  1  0
  5  4  2  0
  6  5  1  0
  7  6  1  0
  7  8  1  6
  9  7  1  0
 10  9  2  0
 11 12  2  0
 12  2  1  0
 13 14  1  0
 14 24  2  0
 14 15  1  0
 15 16  2  0
 16 17  1  0
 17 18  1  0
 19 18  1  1
 19 20  1  0
 20  9  1  0
 21 19  1  0
 21 32  1  0
 22 21  2  0
 23 17  2  0
 24 23  1  0
 25 26  1  0
 26 36  2  0
 27 26  1  0
 27 28  2  0
 28 29  1  0
 29 35  2  0
 29 30  1  0
 31 32  1  0
 31 33  1  0
 31 30  1  6
 33 37  2  0
 33 34  1  0
 36 35  1  0
M  END
$$$$
