YYY.pdb
     RDKit          3D

 37 39  0  0  1  0  0  0  0  0999 V2000
   36.7051   -6.1397   -6.4862 O   0  0  0  0  0  0  0  0  0  0  0  0
   37.6876   -7.0536   -6.9056 C   0  0  0  0  0  0  0  0  0  0  0  0
   38.7247   -6.5926   -7.6940 C   0  0  0  0  0  0  0  0  0  0  0  0
   39.7039   -7.4733   -8.1192 C   0  0  0  0  0  0  0  0  0  0  0  0
   39.6743   -8.8135   -7.7751 C   0  0  0  0  0  0  0  0  0  0  0  0
   40.7125   -9.7460   -8.2277 C   0  0  0  0  0  0  0  0  0  0  0  0
   41.3977  -10.4017   -7.0533 C   0  0  2  0  0  0  0  0  0  0  0  0
   42.0542   -9.4354   -6.1995 N   0  0  0  0  0  0  0  0  0  0  0  0
   42.3305  -11.4667   -7.4991 C   0  0  0  0  0  0  0  0  0  0  0  0
   43.4986  -11.1262   -7.8088 O   0  0  0  0  0  0  0  0  0  0  0  0
   38.6225   -9.2306   -6.9875 C   0  0  0  0  0  0  0  0  0  0  0  0
   37.6347   -8.3714   -6.5513 C   0  0  0  0  0  0  0  0  0  0  0  0
   45.2332  -19.4139  -10.0841 O   0  0  0  0  0  0  0  0  0  0  0  0
   44.4542  -18.3901   -9.5574 C   0  0  0  0  0  0  0  0  0  0  0  0
   43.3309  -18.0160  -10.2547 C   0  0  0  0  0  0  0  0  0  0  0  0
   42.5508  -16.9896   -9.7256 C   0  0  0  0  0  0  0  0  0  0  0  0
   42.8451  -16.3424   -8.5573 C   0  0  0  0  0  0  0  0  0  0  0  0
   42.0311  -15.2695   -7.9799 C   0  0  0  0  0  0  0  0  0  0  0  0
   42.6895  -13.8800   -8.1092 C   0  0  2  0  0  0  0  0  0  0  0  0
   41.9123  -12.8235   -7.5720 N   0  0  0  0  0  0  0  0  0  0  0  0
   43.1066  -13.7310   -9.5135 C   0  0  0  0  0  0  0  0  0  0  0  0
   42.2506  -13.3024  -10.3499 O   0  0  0  0  0  0  0  0  0  0  0  0
   44.0115  -16.7842   -7.9042 C   0  0  0  0  0  0  0  0  0  0  0  0
   44.8124  -17.7793   -8.3702 C   0  0  0  0  0  0  0  0  0  0  0  0
   47.0252  -11.7949  -17.0801 O   0  0  0  0  0  0  0  0  0  0  0  0
   46.6693  -11.9836  -15.7498 C   0  0  0  0  0  0  0  0  0  0  0  0
   45.8913  -13.0548  -15.3952 C   0  0  0  0  0  0  0  0  0  0  0  0
   45.5358  -13.2404  -14.0536 C   0  0  0  0  0  0  0  0  0  0  0  0
   45.9472  -12.3740  -13.0767 C   0  0  0  0  0  0  0  0  0  0  0  0
   45.5634  -12.5963  -11.6832 C   0  0  0  0  0  0  0  0  0  0  0  0
   44.7300  -13.8210  -11.4311 C   0  0  2  0  0  0  0  0  0  0  0  0
   44.3854  -14.0204  -10.0417 N   0  0  0  0  0  0  0  0  0  0  0  0
   45.3472  -15.0554  -11.9437 C   0  0  0  0  0  0  0  0  0  0  0  0
   46.4793  -15.5798  -11.3528 O   0  0  0  0  0  0  0  0  0  0  0  0
   46.7248  -11.2999  -13.4196 C   0  0  0  0  0  0  0  0  0  0  0  0
   47.0772  -11.1145  -14.7440 C   0  0  0  0  0  0  0  0  0  0  0  0
   44.8514  -15.6448  -12.9236 O   0  0  0  0  0  0  0  0  0  0  0  0
  2  1  1  0
  3  2  2  0
  4  3  1  0
  5 11  1  0
  5  4  2  0
  6  5  1  0
  7  6  1  0
  7  8  1  6
  9  7  1  0
 10  9  2  0
 11 12  2  0
 12  2  1  0
 13 14  1  0
 14 24  2  0
 14 15  1  0
 15 16  2  0
 16 17  1  0
 17 18  1  0
 19 18  1  6
 19 20  1  0
 20  9  1  0
 21 19  1  0
 21 32  1  0
 22 21  2  0
 23 17  2  0
 24 23  1  0
 25 26  1  0
 26 36  2  0
 27 26  1  0
 27 28  2  0
 28 29  1  0
 29 35  2  0
 29 30  1  0
 31 32  1  0
 31 33  1  0
 31 30  1  1
 33 37  2  0
 33 34  1  0
 36 35  1  0
M  END
$$$$
