YYY.pdb
     RDKit          3D

 37 39  0  0  1  0  0  0  0  0999 V2000
   29.5028  -12.1650  -17.6788 O   0  0  0  0  0  0  0  0  0  0  0  0
   28.3671  -11.4299  -17.2962 C   0  0  0  0  0  0  0  0  0  0  0  0
   27.9257  -11.5288  -15.9905 C   0  0  0  0  0  0  0  0  0  0  0  0
   26.8099  -10.8147  -15.5901 C   0  0  0  0  0  0  0  0  0  0  0  0
   26.1174   -9.9979  -16.4667 C   0  0  0  0  0  0  0  0  0  0  0  0
   24.9340   -9.2424  -16.0410 C   0  0  0  0  0  0  0  0  0  0  0  0
   23.7740  -10.1680  -15.7647 C   0  0  2  0  0  0  0  0  0  0  0  0
   23.4345  -10.9720  -16.9189 N   0  0  0  0  0  0  0  0  0  0  0  0
   22.5995   -9.4214  -15.2485 C   0  0  0  0  0  0  0  0  0  0  0  0
   21.6869   -9.1359  -16.0621 O   0  0  0  0  0  0  0  0  0  0  0  0
   26.5920   -9.9285  -17.7592 C   0  0  0  0  0  0  0  0  0  0  0  0
   27.7021  -10.6308  -18.1817 C   0  0  0  0  0  0  0  0  0  0  0  0
   16.9058   -5.5795   -9.7137 O   0  0  0  0  0  0  0  0  0  0  0  0
   17.9897   -6.2795  -10.2309 C   0  0  0  0  0  0  0  0  0  0  0  0
   19.1955   -5.6258  -10.3110 C   0  0  0  0  0  0  0  0  0  0  0  0
   20.2813   -6.3287  -10.8297 C   0  0  0  0  0  0  0  0  0  0  0  0
   20.2068   -7.6252  -11.2586 C   0  0  0  0  0  0  0  0  0  0  0  0
   21.3395   -8.3837  -11.7957 C   0  0  0  0  0  0  0  0  0  0  0  0
   21.4837   -8.2454  -13.3258 C   0  0  2  0  0  0  0  0  0  0  0  0
   22.5148   -9.0441  -13.8805 N   0  0  0  0  0  0  0  0  0  0  0  0
   21.5465   -6.8046  -13.6231 C   0  0  0  0  0  0  0  0  0  0  0  0
   22.6909   -6.2539  -13.6770 O   0  0  0  0  0  0  0  0  0  0  0  0
   18.9374   -8.2231  -11.1432 C   0  0  0  0  0  0  0  0  0  0  0  0
   17.8416   -7.5897  -10.6464 C   0  0  0  0  0  0  0  0  0  0  0  0
   21.8190    0.0903  -18.6948 O   0  0  0  0  0  0  0  0  0  0  0  0
   21.7140   -1.0932  -17.9734 C   0  0  0  0  0  0  0  0  0  0  0  0
   21.4339   -2.2673  -18.6225 C   0  0  0  0  0  0  0  0  0  0  0  0
   21.3294   -3.4569  -17.8912 C   0  0  0  0  0  0  0  0  0  0  0  0
   21.5006   -3.4805  -16.5331 C   0  0  0  0  0  0  0  0  0  0  0  0
   21.3896   -4.7390  -15.7967 C   0  0  0  0  0  0  0  0  0  0  0  0
   20.5617   -4.6825  -14.5439 C   0  0  2  0  0  0  0  0  0  0  0  0
   20.4454   -5.9504  -13.8598 N   0  0  0  0  0  0  0  0  0  0  0  0
   19.2099   -4.1443  -14.7684 C   0  0  0  0  0  0  0  0  0  0  0  0
   18.0910   -4.9175  -14.5312 O   0  0  0  0  0  0  0  0  0  0  0  0
   21.7807   -2.3130  -15.8739 C   0  0  0  0  0  0  0  0  0  0  0  0
   21.8844   -1.1369  -16.5941 C   0  0  0  0  0  0  0  0  0  0  0  0
   19.0593   -2.9769  -15.1780 O   0  0  0  0  0  0  0  0  0  0  0  0
  2  1  1  0
  3  2  2  0
  4  3  1  0
  5 11  1  0
  5  4  2  0
  6  5  1  0
  7  6  1  0
  7  8  1  6
  9  7  1  0
 10  9  2  0
 11 12  2  0
 12  2  1  0
 13 14  1  0
 14 24  2  0
 14 15  1  0
 15 16  2  0
 16 17  1  0
 17 18  1  0
 19 18  1  1
 19 20  1  0
 20  9  1  0
 21 19  1  0
 21 32  1  0
 22 21  2  0
 23 17  2  0
 24 23  1  0
 25 26  1  0
 26 36  2  0
 27 26  1  0
 27 28  2  0
 28 29  1  0
 29 35  2  0
 29 30  1  0
 31 32  1  0
 31 33  1  0
 31 30  1  6
 33 37  2  0
 33 34  1  0
 36 35  1  0
M  END
$$$$
