YYY.pdb
     RDKit          3D

 37 39  0  0  1  0  0  0  0  0999 V2000
   30.7860  -10.3323  -18.9370 O   0  0  0  0  0  0  0  0  0  0  0  0
   29.4565   -9.9425  -18.6983 C   0  0  0  0  0  0  0  0  0  0  0  0
   28.8019  -10.4667  -17.6000 C   0  0  0  0  0  0  0  0  0  0  0  0
   27.4927  -10.0980  -17.3442 C   0  0  0  0  0  0  0  0  0  0  0  0
   26.8144   -9.2123  -18.1632 C   0  0  0  0  0  0  0  0  0  0  0  0
   25.4262   -8.8234  -17.8913 C   0  0  0  0  0  0  0  0  0  0  0  0
   24.5360  -10.0383  -17.7887 C   0  0  2  0  0  0  0  0  0  0  0  0
   24.5667  -10.8367  -18.9951 N   0  0  0  0  0  0  0  0  0  0  0  0
   23.1505   -9.6613  -17.4125 C   0  0  0  0  0  0  0  0  0  0  0  0
   22.3618   -9.3435  -18.3363 O   0  0  0  0  0  0  0  0  0  0  0  0
   27.5050   -8.7137  -19.2471 C   0  0  0  0  0  0  0  0  0  0  0  0
   28.8103   -9.0663  -19.5226 C   0  0  0  0  0  0  0  0  0  0  0  0
   18.9699  -14.9338  -16.9039 O   0  0  0  0  0  0  0  0  0  0  0  0
   19.4081  -13.7465  -16.3288 C   0  0  0  0  0  0  0  0  0  0  0  0
   20.6976  -13.7009  -15.8567 C   0  0  0  0  0  0  0  0  0  0  0  0
   21.1357  -12.5100  -15.2805 C   0  0  0  0  0  0  0  0  0  0  0  0
   20.3529  -11.3947  -15.1632 C   0  0  0  0  0  0  0  0  0  0  0  0
   20.7995  -10.1310  -14.5711 C   0  0  0  0  0  0  0  0  0  0  0  0
   21.4777   -9.1951  -15.5934 C   0  0  2  0  0  0  0  0  0  0  0  0
   22.7350   -9.6606  -16.0530 N   0  0  0  0  0  0  0  0  0  0  0  0
   21.4577   -7.8408  -15.0156 C   0  0  0  0  0  0  0  0  0  0  0  0
   22.4927   -7.4389  -14.3965 O   0  0  0  0  0  0  0  0  0  0  0  0
   19.0459  -11.5232  -15.6705 C   0  0  0  0  0  0  0  0  0  0  0  0
   18.5612  -12.6573  -16.2428 C   0  0  0  0  0  0  0  0  0  0  0  0
   22.1736    0.7110  -14.6422 O   0  0  0  0  0  0  0  0  0  0  0  0
   22.0709   -0.6655  -14.8060 C   0  0  0  0  0  0  0  0  0  0  0  0
   21.7481   -1.1862  -16.0320 C   0  0  0  0  0  0  0  0  0  0  0  0
   21.6461   -2.5736  -16.1917 C   0  0  0  0  0  0  0  0  0  0  0  0
   21.8617   -3.4328  -15.1480 C   0  0  0  0  0  0  0  0  0  0  0  0
   21.7522   -4.8776  -15.3463 C   0  0  0  0  0  0  0  0  0  0  0  0
   20.5293   -5.5191  -14.7537 C   0  0  2  0  0  0  0  0  0  0  0  0
   20.3867   -6.9206  -15.0774 N   0  0  0  0  0  0  0  0  0  0  0  0
   19.2815   -4.8250  -15.1120 C   0  0  0  0  0  0  0  0  0  0  0  0
   18.2884   -5.4725  -15.8195 O   0  0  0  0  0  0  0  0  0  0  0  0
   22.1847   -2.9236  -13.9182 C   0  0  0  0  0  0  0  0  0  0  0  0
   22.2860   -1.5536  -13.7581 C   0  0  0  0  0  0  0  0  0  0  0  0
   19.1063   -3.6369  -14.7785 O   0  0  0  0  0  0  0  0  0  0  0  0
  2  1  1  0
  3  2  2  0
  4  3  1  0
  5 11  1  0
  5  4  2  0
  6  5  1  0
  7  6  1  0
  7  8  1  6
  9  7  1  0
 10  9  2  0
 11 12  2  0
 12  2  1  0
 13 14  1  0
 14 24  2  0
 14 15  1  0
 15 16  2  0
 16 17  1  0
 17 18  1  0
 19 18  1  1
 19 20  1  0
 20  9  1  0
 21 19  1  0
 21 32  1  0
 22 21  2  0
 23 17  2  0
 24 23  1  0
 25 26  1  0
 26 36  2  0
 27 26  1  0
 27 28  2  0
 28 29  1  0
 29 35  2  0
 29 30  1  0
 31 32  1  0
 31 33  1  0
 31 30  1  6
 33 37  2  0
 33 34  1  0
 36 35  1  0
M  END
$$$$
