YYY.pdb
     RDKit          3D

 37 39  0  0  1  0  0  0  0  0999 V2000
   21.9027   -9.3916  -24.7558 O   0  0  0  0  0  0  0  0  0  0  0  0
   21.6391   -8.7011  -23.5598 C   0  0  0  0  0  0  0  0  0  0  0  0
   20.5319   -9.0652  -22.8176 C   0  0  0  0  0  0  0  0  0  0  0  0
   20.2516   -8.4002  -21.6367 C   0  0  0  0  0  0  0  0  0  0  0  0
   21.0546   -7.3724  -21.1738 C   0  0  0  0  0  0  0  0  0  0  0  0
   20.7554   -6.6677  -19.9223 C   0  0  0  0  0  0  0  0  0  0  0  0
   21.4825   -7.2999  -18.7603 C   0  0  2  0  0  0  0  0  0  0  0  0
   21.0184   -8.6448  -18.4968 N   0  0  0  0  0  0  0  0  0  0  0  0
   21.4100   -6.4448  -17.5492 C   0  0  0  0  0  0  0  0  0  0  0  0
   20.4166   -6.5865  -16.7944 O   0  0  0  0  0  0  0  0  0  0  0  0
   22.1484   -7.0419  -21.9450 C   0  0  0  0  0  0  0  0  0  0  0  0
   22.4483   -7.6904  -23.1256 C   0  0  0  0  0  0  0  0  0  0  0  0
   22.6904   -9.8366  -12.5738 O   0  0  0  0  0  0  0  0  0  0  0  0
   22.8672   -8.5992  -13.1822 C   0  0  0  0  0  0  0  0  0  0  0  0
   23.7366   -8.5254  -14.2436 C   0  0  0  0  0  0  0  0  0  0  0  0
   23.9128   -7.2844  -14.8527 C   0  0  0  0  0  0  0  0  0  0  0  0
   23.2689   -6.1470  -14.4501 C   0  0  0  0  0  0  0  0  0  0  0  0
   23.4327   -4.8367  -15.0850 C   0  0  0  0  0  0  0  0  0  0  0  0
   22.3884   -4.5692  -16.1891 C   0  0  2  0  0  0  0  0  0  0  0  0
   22.4307   -5.4992  -17.2578 N   0  0  0  0  0  0  0  0  0  0  0  0
   22.5078   -3.1488  -16.5586 C   0  0  0  0  0  0  0  0  0  0  0  0
   23.4037   -2.8222  -17.3992 O   0  0  0  0  0  0  0  0  0  0  0  0
   22.3962   -6.3067  -13.3569 C   0  0  0  0  0  0  0  0  0  0  0  0
   22.1829   -7.4899  -12.7217 C   0  0  0  0  0  0  0  0  0  0  0  0
   16.5305   -2.0799  -20.0323 O   0  0  0  0  0  0  0  0  0  0  0  0
   17.7890   -1.7351  -19.5535 C   0  0  0  0  0  0  0  0  0  0  0  0
   18.0031   -0.4868  -19.0297 C   0  0  0  0  0  0  0  0  0  0  0  0
   19.2728   -0.1444  -18.5485 C   0  0  0  0  0  0  0  0  0  0  0  0
   20.3163   -1.0297  -18.5870 C   0  0  0  0  0  0  0  0  0  0  0  0
   21.6302   -0.6449  -18.0730 C   0  0  0  0  0  0  0  0  0  0  0  0
   21.7924   -0.7387  -16.5820 C   0  0  2  0  0  0  0  0  0  0  0  0
   21.7148   -2.0870  -16.0670 N   0  0  0  0  0  0  0  0  0  0  0  0
   20.8365    0.1022  -15.8427 C   0  0  0  0  0  0  0  0  0  0  0  0
   20.8027    1.4695  -16.0308 O   0  0  0  0  0  0  0  0  0  0  0  0
   20.1140   -2.2798  -19.1085 C   0  0  0  0  0  0  0  0  0  0  0  0
   18.8608   -2.6203  -19.5843 C   0  0  0  0  0  0  0  0  0  0  0  0
   20.0418   -0.4141  -15.0333 O   0  0  0  0  0  0  0  0  0  0  0  0
  2  1  1  0
  3  2  2  0
  4  3  1  0
  5 11  1  0
  5  4  2  0
  6  5  1  0
  7  6  1  0
  7  8  1  1
  9  7  1  0
 10  9  2  0
 11 12  2  0
 12  2  1  0
 13 14  1  0
 14 24  2  0
 14 15  1  0
 15 16  2  0
 16 17  1  0
 17 18  1  0
 19 18  1  1
 19 20  1  0
 20  9  1  0
 21 19  1  0
 21 32  1  0
 22 21  2  0
 23 17  2  0
 24 23  1  0
 25 26  1  0
 26 36  2  0
 27 26  1  0
 27 28  2  0
 28 29  1  0
 29 35  2  0
 29 30  1  0
 31 32  1  0
 31 33  1  0
 31 30  1  6
 33 37  2  0
 33 34  1  0
 36 35  1  0
M  END
$$$$
