QDM.pdb
     RDKit          3D

 26 25  0  0  1  0  0  0  0  0999 V2000
    9.6614  -12.7853   18.8580 N   0  0  0  0  0  0  0  0  0  0  0  0
    8.4543  -12.9361   18.1427 C   0  0  0  0  0  0  0  0  0  0  0  0
    8.4079  -12.7271   16.9213 O   0  0  0  0  0  0  0  0  0  0  0  0
    7.1861  -13.3578   18.8558 C   0  0  0  0  0  0  0  0  0  0  0  0
    7.5259  -13.9928   20.1678 C   0  0  0  0  0  0  0  0  0  0  0  0
    8.1921  -15.2730   20.2208 C   0  0  2  0  0  0  0  0  0  0  0  0
    7.2326  -16.2682   19.5792 N   0  0  0  0  0  0  0  0  0  0  0  0
    8.6106  -15.9368   21.4453 C   0  0  0  0  0  0  0  0  0  0  0  0
    7.6504  -16.0446   22.3233 O   0  0  0  0  0  0  0  0  0  0  0  0
    9.8297  -16.4661   21.8531 N   0  0  0  0  0  0  0  0  0  0  0  0
   10.2560  -17.0268   23.1023 C   0  0  1  0  0  0  0  0  0  0  0  0
   11.2764  -18.1036   23.0986 C   0  0  0  0  0  0  0  0  0  0  0  0
   11.4848  -18.8176   24.3736 C   0  0  0  0  0  0  0  0  0  0  0  0
   11.0862  -19.9589   24.6541 O   0  0  0  0  0  0  0  0  0  0  0  0
   10.3072  -16.0727   24.2071 C   0  0  0  0  0  0  0  0  0  0  0  0
   11.3265  -15.3287   24.3635 O   0  0  0  0  0  0  0  0  0  0  0  0
   12.2046  -18.1305   25.3566 O   0  0  0  0  0  0  0  0  0  0  0  0
    6.0555  -11.9371   25.7187 C   0  0  0  0  0  0  0  0  0  0  0  0
    6.5374  -12.1608   27.4333 S   0  0  0  0  0  0  0  0  0  0  0  0
    8.0627  -13.1934   27.4734 C   0  0  0  0  0  0  0  0  0  0  0  0
    8.0490  -14.1547   26.3208 C   0  0  0  0  0  0  0  0  0  0  0  0
    9.3107  -14.9409   26.2554 C   0  0  2  0  0  0  0  0  0  0  0  0
    9.2654  -15.9084   25.1526 N   0  0  0  0  0  0  0  0  0  0  0  0
    9.7070  -15.5496   27.5012 C   0  0  0  0  0  0  0  0  0  0  0  0
    9.6695  -16.8946   27.7320 O   0  0  0  0  0  0  0  0  0  0  0  0
   10.1161  -14.7989   28.4509 O   0  0  0  0  0  0  0  0  0  0  0  0
  2  1  1  0
  2  3  2  0
  4  5  1  0
  4  2  1  0
  6  7  1  1
  6  5  1  0
  8  6  1  0
  8 10  1  0
  9  8  2  0
 11 10  1  0
 11 12  1  6
 13 14  2  0
 13 12  1  0
 15 11  1  0
 16 15  2  0
 17 13  1  0
 18 19  1  0
 20 21  1  0
 20 19  1  0
 22 21  1  1
 22 24  1  0
 22 23  1  0
 23 15  1  0
 24 25  1  0
 26 24  2  0
M  END
$$$$
