QDM.pdb
     RDKit          3D

 26 25  0  0  1  0  0  0  0  0999 V2000
   13.2429  -15.2158   17.5408 N   0  0  0  0  0  0  0  0  0  0  0  0
   12.9093  -14.4336   18.6671 C   0  0  0  0  0  0  0  0  0  0  0  0
   13.5289  -14.5573   19.7341 O   0  0  0  0  0  0  0  0  0  0  0  0
   11.7827  -13.4234   18.5945 C   0  0  0  0  0  0  0  0  0  0  0  0
   10.7727  -13.7086   19.6615 C   0  0  0  0  0  0  0  0  0  0  0  0
   10.0274  -14.9456   19.6645 C   0  0  2  0  0  0  0  0  0  0  0  0
    8.7477  -14.6622   18.8869 N   0  0  0  0  0  0  0  0  0  0  0  0
    9.5605  -15.6262   20.8621 C   0  0  0  0  0  0  0  0  0  0  0  0
    8.4886  -15.0846   21.3740 O   0  0  0  0  0  0  0  0  0  0  0  0
   10.0407  -16.7292   21.5588 N   0  0  0  0  0  0  0  0  0  0  0  0
    9.5850  -17.3732   22.7564 C   0  0  1  0  0  0  0  0  0  0  0  0
    9.6318  -18.8535   22.8417 C   0  0  0  0  0  0  0  0  0  0  0  0
    9.2148  -19.4526   24.1247 C   0  0  0  0  0  0  0  0  0  0  0  0
    8.0621  -19.4864   24.5834 O   0  0  0  0  0  0  0  0  0  0  0  0
    9.8620  -16.6322   23.9842 C   0  0  0  0  0  0  0  0  0  0  0  0
   11.0623  -16.4138   24.3430 O   0  0  0  0  0  0  0  0  0  0  0  0
   10.2273  -20.0379   24.8920 O   0  0  0  0  0  0  0  0  0  0  0  0
    6.7301  -11.2951   27.0423 C   0  0  0  0  0  0  0  0  0  0  0  0
    6.1394  -12.6472   26.0199 S   0  0  0  0  0  0  0  0  0  0  0  0
    7.5959  -13.6299   25.4658 C   0  0  0  0  0  0  0  0  0  0  0  0
    7.9735  -14.6143   26.5341 C   0  0  0  0  0  0  0  0  0  0  0  0
    9.1296  -15.4522   26.1152 C   0  0  2  0  0  0  0  0  0  0  0  0
    8.8541  -16.1188   24.8368 N   0  0  0  0  0  0  0  0  0  0  0  0
    9.6036  -16.3713   27.1203 C   0  0  0  0  0  0  0  0  0  0  0  0
    9.6749  -17.7222   26.9371 O   0  0  0  0  0  0  0  0  0  0  0  0
    9.9789  -15.9082   28.2506 O   0  0  0  0  0  0  0  0  0  0  0  0
  2  1  1  0
  2  3  2  0
  4  5  1  0
  4  2  1  0
  6  7  1  6
  6  5  1  0
  8  6  1  0
  8 10  1  0
  9  8  2  0
 11 10  1  0
 11 12  1  1
 13 14  2  0
 13 12  1  0
 15 11  1  0
 16 15  2  0
 17 13  1  0
 18 19  1  0
 20 21  1  0
 20 19  1  0
 22 21  1  1
 22 24  1  0
 22 23  1  0
 23 15  1  0
 24 25  1  0
 26 24  2  0
M  END
$$$$
