QDM.pdb
     RDKit          3D

 26 25  0  0  1  0  0  0  0  0999 V2000
    6.9803  -16.0549   16.2238 N   0  0  0  0  0  0  0  0  0  0  0  0
    8.0374  -15.2125   15.8187 C   0  0  0  0  0  0  0  0  0  0  0  0
    8.6396  -15.4140   14.7536 O   0  0  0  0  0  0  0  0  0  0  0  0
    8.4596  -14.0405   16.6809 C   0  0  0  0  0  0  0  0  0  0  0  0
    7.5257  -13.8992   17.8418 C   0  0  0  0  0  0  0  0  0  0  0  0
    8.0186  -13.5323   19.1488 C   0  0  2  0  0  0  0  0  0  0  0  0
    9.1710  -12.5660   18.9027 N   0  0  0  0  0  0  0  0  0  0  0  0
    8.5555  -14.4697   20.1226 C   0  0  0  0  0  0  0  0  0  0  0  0
    7.6885  -14.8110   21.0370 O   0  0  0  0  0  0  0  0  0  0  0  0
    9.8071  -15.0584   20.2633 N   0  0  0  0  0  0  0  0  0  0  0  0
   10.3318  -15.9597   21.2477 C   0  0  1  0  0  0  0  0  0  0  0  0
   11.5134  -16.7900   20.9081 C   0  0  0  0  0  0  0  0  0  0  0  0
   11.4775  -17.4850   19.6064 C   0  0  0  0  0  0  0  0  0  0  0  0
   12.3731  -17.4898   18.7473 O   0  0  0  0  0  0  0  0  0  0  0  0
   10.2392  -15.4743   22.6222 C   0  0  0  0  0  0  0  0  0  0  0  0
   11.1095  -14.6656   23.0754 O   0  0  0  0  0  0  0  0  0  0  0  0
   10.3137  -18.2074   19.3230 O   0  0  0  0  0  0  0  0  0  0  0  0
    6.4543  -11.6947   27.9446 C   0  0  0  0  0  0  0  0  0  0  0  0
    6.5698  -12.3814   26.2902 S   0  0  0  0  0  0  0  0  0  0  0  0
    7.8427  -13.7132   26.3063 C   0  0  0  0  0  0  0  0  0  0  0  0
    8.0256  -14.2501   24.9166 C   0  0  0  0  0  0  0  0  0  0  0  0
    9.0737  -15.3056   24.8767 C   0  0  2  0  0  0  0  0  0  0  0  0
    9.2120  -15.8519   23.5215 N   0  0  0  0  0  0  0  0  0  0  0  0
    8.9261  -16.3397   25.8710 C   0  0  0  0  0  0  0  0  0  0  0  0
    9.1290  -16.1403   27.2061 O   0  0  0  0  0  0  0  0  0  0  0  0
    8.5889  -17.5131   25.4938 O   0  0  0  0  0  0  0  0  0  0  0  0
  2  1  1  0
  2  3  2  0
  4  5  1  0
  4  2  1  0
  6  7  1  6
  6  5  1  0
  8  6  1  0
  8 10  1  0
  9  8  2  0
 11 10  1  0
 11 12  1  6
 13 14  2  0
 13 12  1  0
 15 11  1  0
 16 15  2  0
 17 13  1  0
 18 19  1  0
 20 21  1  0
 20 19  1  0
 22 21  1  6
 22 24  1  0
 22 23  1  0
 23 15  1  0
 24 25  1  0
 26 24  2  0
M  END
$$$$
