QDM.pdb
     RDKit          3D

 26 25  0  0  1  0  0  0  0  0999 V2000
    9.3192  -12.8766   18.3547 N   0  0  0  0  0  0  0  0  0  0  0  0
    7.9811  -12.9719   17.9166 C   0  0  0  0  0  0  0  0  0  0  0  0
    7.6323  -12.4928   16.8274 O   0  0  0  0  0  0  0  0  0  0  0  0
    6.9399  -13.6638   18.7723 C   0  0  0  0  0  0  0  0  0  0  0  0
    7.5799  -14.2158   20.0074 C   0  0  0  0  0  0  0  0  0  0  0  0
    8.2051  -15.5177   19.9994 C   0  0  2  0  0  0  0  0  0  0  0  0
    7.1037  -16.5059   19.6349 N   0  0  0  0  0  0  0  0  0  0  0  0
    8.8529  -16.1304   21.1484 C   0  0  0  0  0  0  0  0  0  0  0  0
    8.0064  -16.5629   22.0432 O   0  0  0  0  0  0  0  0  0  0  0  0
   10.1899  -16.3336   21.4708 N   0  0  0  0  0  0  0  0  0  0  0  0
   10.8174  -16.8679   22.6443 C   0  0  1  0  0  0  0  0  0  0  0  0
   12.1530  -17.5021   22.5225 C   0  0  0  0  0  0  0  0  0  0  0  0
   12.3520  -18.4015   21.3692 C   0  0  0  0  0  0  0  0  0  0  0  0
   13.0504  -18.1751   20.3685 O   0  0  0  0  0  0  0  0  0  0  0  0
   10.5538  -16.1141   23.8673 C   0  0  0  0  0  0  0  0  0  0  0  0
   11.2645  -15.1013   24.1606 O   0  0  0  0  0  0  0  0  0  0  0  0
   11.6825  -19.6287   21.4191 O   0  0  0  0  0  0  0  0  0  0  0  0
    6.5111  -11.9084   26.1448 C   0  0  0  0  0  0  0  0  0  0  0  0
    7.9030  -12.4584   27.1360 S   0  0  0  0  0  0  0  0  0  0  0  0
    7.7808  -14.2856   27.3378 C   0  0  0  0  0  0  0  0  0  0  0  0
    8.0461  -14.9553   26.0211 C   0  0  0  0  0  0  0  0  0  0  0  0
    9.3128  -15.7354   26.0551 C   0  0  2  0  0  0  0  0  0  0  0  0
    9.5253  -16.4400   24.7851 N   0  0  0  0  0  0  0  0  0  0  0  0
    9.4532  -16.6078   27.1948 C   0  0  0  0  0  0  0  0  0  0  0  0
    9.7606  -16.1689   28.4504 O   0  0  0  0  0  0  0  0  0  0  0  0
    9.2850  -17.8641   27.0333 O   0  0  0  0  0  0  0  0  0  0  0  0
  2  1  1  0
  2  3  2  0
  4  5  1  0
  4  2  1  0
  6  7  1  1
  6  5  1  0
  8  6  1  0
  8 10  1  0
  9  8  2  0
 11 10  1  0
 11 12  1  6
 13 14  2  0
 13 12  1  0
 15 11  1  0
 16 15  2  0
 17 13  1  0
 18 19  1  0
 20 21  1  0
 20 19  1  0
 22 21  1  6
 22 24  1  0
 22 23  1  0
 23 15  1  0
 24 25  1  0
 26 24  2  0
M  END
$$$$
