QDM.pdb
     RDKit          3D

 26 25  0  0  1  0  0  0  0  0999 V2000
    6.9517  -12.6168   18.0219 N   0  0  0  0  0  0  0  0  0  0  0  0
    7.7665  -13.3073   17.0995 C   0  0  0  0  0  0  0  0  0  0  0  0
    7.4900  -13.3198   15.8908 O   0  0  0  0  0  0  0  0  0  0  0  0
    9.0001  -14.0503   17.5698 C   0  0  0  0  0  0  0  0  0  0  0  0
    8.9442  -14.2439   19.0528 C   0  0  0  0  0  0  0  0  0  0  0  0
   10.0481  -14.8453   19.7636 C   0  0  2  0  0  0  0  0  0  0  0  0
   10.7590  -15.7358   18.7515 N   0  0  0  0  0  0  0  0  0  0  0  0
    9.9113  -15.6954   20.9358 C   0  0  0  0  0  0  0  0  0  0  0  0
    8.8543  -15.4171   21.6497 O   0  0  0  0  0  0  0  0  0  0  0  0
   10.6903  -16.7328   21.4354 N   0  0  0  0  0  0  0  0  0  0  0  0
   10.6101  -17.4841   22.6543 C   0  0  1  0  0  0  0  0  0  0  0  0
   11.3535  -18.7633   22.7632 C   0  0  0  0  0  0  0  0  0  0  0  0
   11.4150  -19.5948   21.5452 C   0  0  0  0  0  0  0  0  0  0  0  0
   10.4610  -19.9051   20.8145 O   0  0  0  0  0  0  0  0  0  0  0  0
   10.5198  -16.6682   23.8625 C   0  0  0  0  0  0  0  0  0  0  0  0
   11.5499  -16.0728   24.3112 O   0  0  0  0  0  0  0  0  0  0  0  0
   12.6789  -20.0756   21.1878 O   0  0  0  0  0  0  0  0  0  0  0  0
    6.9522  -11.0218   26.8400 C   0  0  0  0  0  0  0  0  0  0  0  0
    6.6204  -12.7618   26.5494 S   0  0  0  0  0  0  0  0  0  0  0  0
    8.2328  -13.6313   26.3531 C   0  0  0  0  0  0  0  0  0  0  0  0
    7.9885  -15.0861   26.0762 C   0  0  0  0  0  0  0  0  0  0  0  0
    9.2673  -15.8287   25.9110 C   0  0  2  0  0  0  0  0  0  0  0  0
    9.3238  -16.4839   24.5988 N   0  0  0  0  0  0  0  0  0  0  0  0
    9.5823  -16.7341   26.9884 C   0  0  0  0  0  0  0  0  0  0  0  0
   10.1459  -16.3400   28.1677 O   0  0  0  0  0  0  0  0  0  0  0  0
    9.3263  -17.9775   26.8429 O   0  0  0  0  0  0  0  0  0  0  0  0
  2  1  1  0
  2  3  2  0
  4  5  1  0
  4  2  1  0
  6  7  1  6
  6  5  1  0
  8  6  1  0
  8 10  1  0
  9  8  2  0
 11 10  1  0
 11 12  1  1
 13 14  2  0
 13 12  1  0
 15 11  1  0
 16 15  2  0
 17 13  1  0
 18 19  1  0
 20 21  1  0
 20 19  1  0
 22 21  1  1
 22 24  1  0
 22 23  1  0
 23 15  1  0
 24 25  1  0
 26 24  2  0
M  END
$$$$
