QDM.pdb
     RDKit          3D

 26 25  0  0  1  0  0  0  0  0999 V2000
    8.5743  -13.6103   16.5278 N   0  0  0  0  0  0  0  0  0  0  0  0
    8.1671  -13.1304   17.7908 C   0  0  0  0  0  0  0  0  0  0  0  0
    8.8378  -12.2804   18.3953 O   0  0  0  0  0  0  0  0  0  0  0  0
    6.8974  -13.6465   18.4362 C   0  0  0  0  0  0  0  0  0  0  0  0
    7.2156  -14.2744   19.7569 C   0  0  0  0  0  0  0  0  0  0  0  0
    8.4927  -14.9080   19.9876 C   0  0  2  0  0  0  0  0  0  0  0  0
    8.5875  -16.0364   18.9677 N   0  0  0  0  0  0  0  0  0  0  0  0
    8.8891  -15.5375   21.2373 C   0  0  0  0  0  0  0  0  0  0  0  0
    8.1952  -15.1227   22.2624 O   0  0  0  0  0  0  0  0  0  0  0  0
    9.8620  -16.4830   21.5414 N   0  0  0  0  0  0  0  0  0  0  0  0
   10.2510  -17.0856   22.7832 C   0  0  1  0  0  0  0  0  0  0  0  0
   11.2503  -18.1820   22.7708 C   0  0  0  0  0  0  0  0  0  0  0  0
   11.6083  -18.7613   24.0804 C   0  0  0  0  0  0  0  0  0  0  0  0
   10.8240  -19.0603   24.9945 O   0  0  0  0  0  0  0  0  0  0  0  0
   10.2975  -16.1629   23.9146 C   0  0  0  0  0  0  0  0  0  0  0  0
   11.2066  -15.2762   23.9803 O   0  0  0  0  0  0  0  0  0  0  0  0
   12.9698  -18.9926   24.3029 O   0  0  0  0  0  0  0  0  0  0  0  0
    6.3963  -11.8592   25.5837 C   0  0  0  0  0  0  0  0  0  0  0  0
    6.6242  -12.4485   27.2639 S   0  0  0  0  0  0  0  0  0  0  0  0
    8.1482  -13.4827   27.3104 C   0  0  0  0  0  0  0  0  0  0  0  0
    8.1813  -14.3827   26.1097 C   0  0  0  0  0  0  0  0  0  0  0  0
    9.3985  -15.2387   26.1071 C   0  0  2  0  0  0  0  0  0  0  0  0
    9.3690  -16.1833   24.9841 N   0  0  0  0  0  0  0  0  0  0  0  0
    9.6800  -15.8901   27.3626 C   0  0  0  0  0  0  0  0  0  0  0  0
   10.0077  -15.2201   28.5060 O   0  0  0  0  0  0  0  0  0  0  0  0
    9.6252  -17.1654   27.4208 O   0  0  0  0  0  0  0  0  0  0  0  0
  2  1  1  0
  2  3  2  0
  4  5  1  0
  4  2  1  0
  6  7  1  6
  6  5  1  0
  8  6  1  0
  8 10  1  0
  9  8  2  0
 11 10  1  0
 11 12  1  6
 13 14  2  0
 13 12  1  0
 15 11  1  0
 16 15  2  0
 17 13  1  0
 18 19  1  0
 20 21  1  0
 20 19  1  0
 22 21  1  1
 22 24  1  0
 22 23  1  0
 23 15  1  0
 24 25  1  0
 26 24  2  0
M  END
$$$$
