DFR.pdb
     RDKit          3D

 31 31  0  0  1  0  0  0  0  0999 V2000
    9.9373  -16.7997   19.8774 N   0  0  0  0  0  0  0  0  0  0  0  0
   10.5865  -17.1422   21.1266 C   0  0  1  0  0  0  0  0  0  0  0  0
   12.0788  -17.2546   20.8315 C   0  0  0  0  0  0  0  0  0  0  0  0
   12.3153  -18.1475   19.6728 C   0  0  0  0  0  0  0  0  0  0  0  0
   11.4065  -18.7807   19.0925 O   0  0  0  0  0  0  0  0  0  0  0  0
   10.3030  -16.0944   22.1149 C   0  0  0  0  0  0  0  0  0  0  0  0
   11.2561  -15.6043   22.8062 O   0  0  0  0  0  0  0  0  0  0  0  0
   13.6047  -18.2815   19.2183 O   0  0  0  0  0  0  0  0  0  0  0  0
    9.0247  -15.5617   22.3778 N   0  0  0  0  0  0  0  0  0  0  0  0
    8.7599  -14.7532   23.5104 C   0  0  1  0  0  0  0  0  0  0  0  0
    7.4462  -14.0201   23.4606 C   0  0  0  0  0  0  0  0  0  0  0  0
    7.1751  -13.2194   24.6630 C   0  0  0  0  0  0  0  0  0  0  0  0
    7.7985  -11.9729   24.7359 C   0  0  0  0  0  0  0  0  0  0  0  0
    7.6362  -11.1254   25.7896 C   0  0  0  0  0  0  0  0  0  0  0  0
    6.8302  -11.4968   26.8312 C   0  0  0  0  0  0  0  0  0  0  0  0
    6.1988  -12.7282   26.7865 C   0  0  0  0  0  0  0  0  0  0  0  0
    6.3716  -13.5864   25.7046 C   0  0  0  0  0  0  0  0  0  0  0  0
    8.8151  -15.4785   24.7949 C   0  0  0  0  0  0  0  0  0  0  0  0
    8.5623  -14.8431   25.8682 O   0  0  0  0  0  0  0  0  0  0  0  0
    6.9638  -24.0048   28.1529 N   0  0  0  0  0  0  0  0  0  0  0  0
    6.8424  -22.5894   28.2107 C   0  0  0  0  0  0  0  0  0  0  0  0
    6.6933  -22.0344   29.3446 N   0  0  0  0  0  0  0  0  0  0  0  0
    6.8819  -21.7801   27.0500 N   0  0  0  0  0  0  0  0  0  0  0  0
    6.5405  -20.3813   27.1733 C   0  0  0  0  0  0  0  0  0  0  0  0
    7.8179  -19.5343   27.2114 C   0  0  0  0  0  0  0  0  0  0  0  0
    7.9385  -18.7025   25.9691 C   0  0  0  0  0  0  0  0  0  0  0  0
    8.9149  -17.5909   26.1857 C   0  0  2  0  0  0  0  0  0  0  0  0
    9.1304  -16.8453   24.9428 N   0  0  0  0  0  0  0  0  0  0  0  0
   10.2091  -18.0904   26.6568 C   0  0  0  0  0  0  0  0  0  0  0  0
   10.4403  -18.6544   27.7454 O   0  0  0  0  0  0  0  0  0  0  0  0
   11.3256  -17.9324   25.8158 O   0  0  0  0  0  0  0  0  0  0  0  0
  2  1  1  6
  2  3  1  0
  3  4  1  0
  4  8  1  0
  5  4  2  0
  6  2  1  0
  6  7  2  0
  9  6  1  0
 10  9  1  0
 10 11  1  6
 11 12  1  0
 12 13  2  0
 12 17  1  0
 13 14  1  0
 14 15  2  0
 16 15  1  0
 17 16  2  0
 18 10  1  0
 19 18  2  0
 20 21  1  0
 21 22  2  0
 21 23  1  0
 24 23  1  0
 24 25  1  0
 25 26  1  0
 27 26  1  6
 27 29  1  0
 27 28  1  0
 28 18  1  0
 29 31  1  0
 30 29  2  0
M  END
$$$$
