DFR.pdb
     RDKit          3D

 31 31  0  0  1  0  0  0  0  0999 V2000
    8.8317  -17.1703   19.9807 N   0  0  0  0  0  0  0  0  0  0  0  0
   10.0088  -17.2440   20.8224 C   0  0  1  0  0  0  0  0  0  0  0  0
   11.1944  -16.8232   19.9599 C   0  0  0  0  0  0  0  0  0  0  0  0
   11.1824  -17.5482   18.6677 C   0  0  0  0  0  0  0  0  0  0  0  0
   10.2507  -18.2998   18.3065 O   0  0  0  0  0  0  0  0  0  0  0  0
    9.8282  -16.3524   21.9745 C   0  0  0  0  0  0  0  0  0  0  0  0
   10.8454  -15.9698   22.6421 O   0  0  0  0  0  0  0  0  0  0  0  0
   12.2563  -17.3805   17.8275 O   0  0  0  0  0  0  0  0  0  0  0  0
    8.5856  -15.8632   22.4258 N   0  0  0  0  0  0  0  0  0  0  0  0
    8.4416  -15.1900   23.6638 C   0  0  1  0  0  0  0  0  0  0  0  0
    7.2842  -14.2294   23.7210 C   0  0  0  0  0  0  0  0  0  0  0  0
    7.2322  -13.4466   24.9639 C   0  0  0  0  0  0  0  0  0  0  0  0
    8.1376  -12.3903   25.0741 C   0  0  0  0  0  0  0  0  0  0  0  0
    8.2001  -11.5809   26.1677 C   0  0  0  0  0  0  0  0  0  0  0  0
    7.3450  -11.7991   27.2134 C   0  0  0  0  0  0  0  0  0  0  0  0
    6.4358  -12.8401   27.1323 C   0  0  0  0  0  0  0  0  0  0  0  0
    6.3806  -13.6610   26.0098 C   0  0  0  0  0  0  0  0  0  0  0  0
    8.3304  -16.0890   24.8294 C   0  0  0  0  0  0  0  0  0  0  0  0
    7.2282  -16.6908   25.0354 O   0  0  0  0  0  0  0  0  0  0  0  0
    7.9405  -20.6279   22.6712 N   0  0  0  0  0  0  0  0  0  0  0  0
    7.2218  -20.7300   23.8938 C   0  0  0  0  0  0  0  0  0  0  0  0
    5.9554  -20.6221   23.8692 N   0  0  0  0  0  0  0  0  0  0  0  0
    7.8685  -20.9469   25.1341 N   0  0  0  0  0  0  0  0  0  0  0  0
    9.2790  -20.6499   25.2371 C   0  0  0  0  0  0  0  0  0  0  0  0
    9.5017  -19.1363   25.1371 C   0  0  0  0  0  0  0  0  0  0  0  0
   10.0162  -18.5902   26.4359 C   0  0  0  0  0  0  0  0  0  0  0  0
    9.2586  -17.3574   26.8132 C   0  0  2  0  0  0  0  0  0  0  0  0
    9.3610  -16.3467   25.7573 N   0  0  0  0  0  0  0  0  0  0  0  0
    9.7577  -16.7756   28.0616 C   0  0  0  0  0  0  0  0  0  0  0  0
   10.2635  -15.6445   28.2085 O   0  0  0  0  0  0  0  0  0  0  0  0
    9.6703  -17.5487   29.2337 O   0  0  0  0  0  0  0  0  0  0  0  0
  2  1  1  6
  2  3  1  0
  3  4  1  0
  4  8  1  0
  5  4  2  0
  6  2  1  0
  6  7  2  0
  9  6  1  0
 10  9  1  0
 10 11  1  6
 11 12  1  0
 12 13  2  0
 12 17  1  0
 13 14  1  0
 14 15  2  0
 16 15  1  0
 17 16  2  0
 18 10  1  0
 19 18  2  0
 20 21  1  0
 21 22  2  0
 21 23  1  0
 24 23  1  0
 24 25  1  0
 25 26  1  0
 27 26  1  6
 27 29  1  0
 27 28  1  0
 28 18  1  0
 29 31  1  0
 30 29  2  0
M  END
$$$$
