DFR.pdb
     RDKit          3D

 31 31  0  0  1  0  0  0  0  0999 V2000
    7.1376  -21.1897   25.4399 N   0  0  0  0  0  0  0  0  0  0  0  0
    6.4404  -20.6936   24.2706 C   0  0  1  0  0  0  0  0  0  0  0  0
    5.0368  -21.2895   24.3084 C   0  0  0  0  0  0  0  0  0  0  0  0
    5.0729  -22.7308   23.9665 C   0  0  0  0  0  0  0  0  0  0  0  0
    6.1311  -23.3671   23.7690 O   0  0  0  0  0  0  0  0  0  0  0  0
    6.4122  -19.2267   24.3185 C   0  0  0  0  0  0  0  0  0  0  0  0
    5.7281  -18.5802   23.4578 O   0  0  0  0  0  0  0  0  0  0  0  0
    3.8755  -23.3961   23.8625 O   0  0  0  0  0  0  0  0  0  0  0  0
    7.0986  -18.4396   25.2653 N   0  0  0  0  0  0  0  0  0  0  0  0
    7.0827  -17.0237   25.2267 C   0  0  1  0  0  0  0  0  0  0  0  0
    7.4187  -16.3599   26.5352 C   0  0  0  0  0  0  0  0  0  0  0  0
    7.1459  -14.9156   26.5475 C   0  0  0  0  0  0  0  0  0  0  0  0
    8.2569  -14.0712   26.5676 C   0  0  0  0  0  0  0  0  0  0  0  0
    8.1535  -12.7133   26.5789 C   0  0  0  0  0  0  0  0  0  0  0  0
    6.9134  -12.1348   26.5703 C   0  0  0  0  0  0  0  0  0  0  0  0
    5.7928  -12.9477   26.5505 C   0  0  0  0  0  0  0  0  0  0  0  0
    5.9101  -14.3344   26.5391 C   0  0  0  0  0  0  0  0  0  0  0  0
    7.9604  -16.4389   24.1939 C   0  0  0  0  0  0  0  0  0  0  0  0
    9.1684  -16.8329   24.1224 O   0  0  0  0  0  0  0  0  0  0  0  0
   10.0409  -13.2956   17.6123 N   0  0  0  0  0  0  0  0  0  0  0  0
    8.6627  -13.3490   17.2669 C   0  0  0  0  0  0  0  0  0  0  0  0
    8.3389  -13.7479   16.1041 N   0  0  0  0  0  0  0  0  0  0  0  0
    7.6420  -12.9734   18.1729 N   0  0  0  0  0  0  0  0  0  0  0  0
    8.0248  -12.4061   19.4457 C   0  0  0  0  0  0  0  0  0  0  0  0
    8.7382  -13.4648   20.2948 C   0  0  0  0  0  0  0  0  0  0  0  0
    7.9278  -13.8015   21.5112 C   0  0  0  0  0  0  0  0  0  0  0  0
    8.3653  -15.1157   22.0747 C   0  0  2  0  0  0  0  0  0  0  0  0
    7.5708  -15.4593   23.2570 N   0  0  0  0  0  0  0  0  0  0  0  0
    9.7798  -15.0980   22.4559 C   0  0  0  0  0  0  0  0  0  0  0  0
   10.7535  -15.3710   21.7252 O   0  0  0  0  0  0  0  0  0  0  0  0
   10.1049  -14.7391   23.7767 O   0  0  0  0  0  0  0  0  0  0  0  0
  2  1  1  1
  2  3  1  0
  3  4  1  0
  4  8  1  0
  5  4  2  0
  6  2  1  0
  6  7  2  0
  9  6  1  0
 10  9  1  0
 10 11  1  1
 11 12  1  0
 12 13  2  0
 12 17  1  0
 13 14  1  0
 14 15  2  0
 16 15  1  0
 17 16  2  0
 18 10  1  0
 19 18  2  0
 20 21  1  0
 21 22  2  0
 21 23  1  0
 24 23  1  0
 24 25  1  0
 25 26  1  0
 27 26  1  1
 27 29  1  0
 27 28  1  0
 28 18  1  0
 29 31  1  0
 30 29  2  0
M  END
$$$$
