DFR.pdb
     RDKit          3D

 31 31  0  0  1  0  0  0  0  0999 V2000
    8.7606  -16.6731   19.9051 N   0  0  0  0  0  0  0  0  0  0  0  0
    9.9099  -16.8303   20.7733 C   0  0  1  0  0  0  0  0  0  0  0  0
   11.1412  -16.4873   19.9409 C   0  0  0  0  0  0  0  0  0  0  0  0
   11.1591  -17.2764   18.6869 C   0  0  0  0  0  0  0  0  0  0  0  0
   10.9286  -18.5045   18.6408 O   0  0  0  0  0  0  0  0  0  0  0  0
    9.7633  -15.9335   21.9262 C   0  0  0  0  0  0  0  0  0  0  0  0
   10.7615  -15.7200   22.6908 O   0  0  0  0  0  0  0  0  0  0  0  0
   11.4457  -16.6160   17.5169 O   0  0  0  0  0  0  0  0  0  0  0  0
    8.5743  -15.2623   22.2769 N   0  0  0  0  0  0  0  0  0  0  0  0
    8.3927  -14.6565   23.5443 C   0  0  1  0  0  0  0  0  0  0  0  0
    7.1431  -13.8262   23.6659 C   0  0  0  0  0  0  0  0  0  0  0  0
    6.9973  -13.1736   24.9748 C   0  0  0  0  0  0  0  0  0  0  0  0
    8.1234  -12.5171   25.4735 C   0  0  0  0  0  0  0  0  0  0  0  0
    8.1316  -11.8688   26.6712 C   0  0  0  0  0  0  0  0  0  0  0  0
    6.9943  -11.8505   27.4319 C   0  0  0  0  0  0  0  0  0  0  0  0
    5.8615  -12.4936   26.9627 C   0  0  0  0  0  0  0  0  0  0  0  0
    5.8643  -13.1531   25.7371 C   0  0  0  0  0  0  0  0  0  0  0  0
    8.4061  -15.6065   24.6740 C   0  0  0  0  0  0  0  0  0  0  0  0
    7.5128  -16.5116   24.7234 O   0  0  0  0  0  0  0  0  0  0  0  0
   13.8899  -22.5416   24.4671 N   0  0  0  0  0  0  0  0  0  0  0  0
   13.8502  -21.1610   24.8045 C   0  0  0  0  0  0  0  0  0  0  0  0
   14.7823  -20.4030   24.3889 N   0  0  0  0  0  0  0  0  0  0  0  0
   12.8097  -20.6043   25.5863 N   0  0  0  0  0  0  0  0  0  0  0  0
   12.6815  -19.1659   25.6393 C   0  0  0  0  0  0  0  0  0  0  0  0
   11.2894  -18.7853   26.1570 C   0  0  0  0  0  0  0  0  0  0  0  0
   10.7998  -17.5352   25.4883 C   0  0  0  0  0  0  0  0  0  0  0  0
    9.8322  -16.8205   26.3766 C   0  0  2  0  0  0  0  0  0  0  0  0
    9.3425  -15.6008   25.7287 N   0  0  0  0  0  0  0  0  0  0  0  0
   10.4418  -16.4525   27.6569 C   0  0  0  0  0  0  0  0  0  0  0  0
   10.7921  -15.3102   28.0161 O   0  0  0  0  0  0  0  0  0  0  0  0
   10.6677  -17.4718   28.5998 O   0  0  0  0  0  0  0  0  0  0  0  0
  2  1  1  6
  2  3  1  0
  3  4  1  0
  4  8  1  0
  5  4  2  0
  6  2  1  0
  6  7  2  0
  9  6  1  0
 10  9  1  0
 10 11  1  6
 11 12  1  0
 12 13  2  0
 12 17  1  0
 13 14  1  0
 14 15  2  0
 16 15  1  0
 17 16  2  0
 18 10  1  0
 19 18  2  0
 20 21  1  0
 21 22  2  0
 21 23  1  0
 24 23  1  0
 24 25  1  0
 25 26  1  0
 27 26  1  6
 27 29  1  0
 27 28  1  0
 28 18  1  0
 29 31  1  0
 30 29  2  0
M  END
$$$$
