DFR.pdb
     RDKit          3D

 31 31  0  0  1  0  0  0  0  0999 V2000
    9.0402  -18.7452   18.0268 N   0  0  0  0  0  0  0  0  0  0  0  0
   10.2560  -17.9586   17.9757 C   0  0  1  0  0  0  0  0  0  0  0  0
   10.1896  -17.1270   16.6988 C   0  0  0  0  0  0  0  0  0  0  0  0
   10.9066  -17.8081   15.5952 C   0  0  0  0  0  0  0  0  0  0  0  0
   10.7409  -19.0129   15.3043 O   0  0  0  0  0  0  0  0  0  0  0  0
   10.3285  -17.1138   19.1741 C   0  0  0  0  0  0  0  0  0  0  0  0
   11.2419  -16.2287   19.2681 O   0  0  0  0  0  0  0  0  0  0  0  0
   11.7996  -17.0695   14.8576 O   0  0  0  0  0  0  0  0  0  0  0  0
    9.4465  -17.1961   20.2706 N   0  0  0  0  0  0  0  0  0  0  0  0
    9.6271  -16.4275   21.4467 C   0  0  1  0  0  0  0  0  0  0  0  0
    8.3540  -15.8868   22.0405 C   0  0  0  0  0  0  0  0  0  0  0  0
    7.9361  -14.6019   21.4620 C   0  0  0  0  0  0  0  0  0  0  0  0
    7.1261  -14.6628   20.3272 C   0  0  0  0  0  0  0  0  0  0  0  0
    6.6635  -13.5524   19.6884 C   0  0  0  0  0  0  0  0  0  0  0  0
    6.9980  -12.3149   20.1670 C   0  0  0  0  0  0  0  0  0  0  0  0
    7.8006  -12.2236   21.2915 C   0  0  0  0  0  0  0  0  0  0  0  0
    8.2678  -13.3649   21.9364 C   0  0  0  0  0  0  0  0  0  0  0  0
   10.3543  -17.1315   22.5212 C   0  0  0  0  0  0  0  0  0  0  0  0
    9.9604  -18.2904   22.8695 O   0  0  0  0  0  0  0  0  0  0  0  0
   17.9587  -17.4628   25.4288 N   0  0  0  0  0  0  0  0  0  0  0  0
   17.9013  -17.8190   24.0535 C   0  0  0  0  0  0  0  0  0  0  0  0
   18.7927  -18.5951   23.5853 N   0  0  0  0  0  0  0  0  0  0  0  0
   16.8870  -17.3388   23.1908 N   0  0  0  0  0  0  0  0  0  0  0  0
   15.8088  -16.5627   23.7597 C   0  0  0  0  0  0  0  0  0  0  0  0
   14.6390  -17.4842   24.1241 C   0  0  0  0  0  0  0  0  0  0  0  0
   13.4662  -16.6843   24.6083 C   0  0  0  0  0  0  0  0  0  0  0  0
   12.1885  -17.3729   24.2484 C   0  0  2  0  0  0  0  0  0  0  0  0
   11.4732  -16.6226   23.2128 N   0  0  0  0  0  0  0  0  0  0  0  0
   11.3059  -17.5182   25.4086 C   0  0  0  0  0  0  0  0  0  0  0  0
   10.5726  -16.6386   25.9038 O   0  0  0  0  0  0  0  0  0  0  0  0
   11.2585  -18.7685   26.0517 O   0  0  0  0  0  0  0  0  0  0  0  0
  2  1  1  1
  2  3  1  0
  3  4  1  0
  4  8  1  0
  5  4  2  0
  6  2  1  0
  6  7  2  0
  9  6  1  0
 10  9  1  0
 10 11  1  1
 11 12  1  0
 12 13  2  0
 12 17  1  0
 13 14  1  0
 14 15  2  0
 16 15  1  0
 17 16  2  0
 18 10  1  0
 19 18  2  0
 20 21  1  0
 21 22  2  0
 21 23  1  0
 24 23  1  0
 24 25  1  0
 25 26  1  0
 27 26  1  1
 27 29  1  0
 27 28  1  0
 28 18  1  0
 29 31  1  0
 30 29  2  0
M  END
$$$$
