DFR.pdb
     RDKit          3D

 31 31  0  0  1  0  0  0  0  0999 V2000
    6.7563  -16.4662   20.1882 N   0  0  0  0  0  0  0  0  0  0  0  0
    8.0937  -15.9090   20.1753 C   0  0  1  0  0  0  0  0  0  0  0  0
    8.0650  -14.7158   19.2256 C   0  0  0  0  0  0  0  0  0  0  0  0
    8.1403  -15.1688   17.8168 C   0  0  0  0  0  0  0  0  0  0  0  0
    8.1578  -16.3725   17.4788 O   0  0  0  0  0  0  0  0  0  0  0  0
    8.4583  -15.5114   21.5406 C   0  0  0  0  0  0  0  0  0  0  0  0
    9.5570  -14.8975   21.7471 O   0  0  0  0  0  0  0  0  0  0  0  0
    8.1939  -14.2086   16.8357 O   0  0  0  0  0  0  0  0  0  0  0  0
    7.6739  -15.7561   22.6860 N   0  0  0  0  0  0  0  0  0  0  0  0
    8.1259  -15.4487   23.9928 C   0  0  1  0  0  0  0  0  0  0  0  0
    7.0325  -15.3365   25.0211 C   0  0  0  0  0  0  0  0  0  0  0  0
    6.9188  -13.9958   25.6128 C   0  0  0  0  0  0  0  0  0  0  0  0
    5.6271  -13.5375   25.8757 C   0  0  0  0  0  0  0  0  0  0  0  0
    5.3728  -12.3169   26.4238 C   0  0  0  0  0  0  0  0  0  0  0  0
    6.4181  -11.4910   26.7365 C   0  0  0  0  0  0  0  0  0  0  0  0
    7.7109  -11.9190   26.4865 C   0  0  0  0  0  0  0  0  0  0  0  0
    7.9593  -13.1684   25.9261 C   0  0  0  0  0  0  0  0  0  0  0  0
    9.1349  -16.3892   24.5185 C   0  0  0  0  0  0  0  0  0  0  0  0
    8.8442  -17.6266   24.5817 O   0  0  0  0  0  0  0  0  0  0  0  0
   17.4040  -16.3739   25.1405 N   0  0  0  0  0  0  0  0  0  0  0  0
   17.2707  -17.6421   24.5116 C   0  0  0  0  0  0  0  0  0  0  0  0
   18.2119  -18.4877   24.6352 N   0  0  0  0  0  0  0  0  0  0  0  0
   16.1276  -17.9928   23.7540 N   0  0  0  0  0  0  0  0  0  0  0  0
   15.0592  -17.0275   23.6315 C   0  0  0  0  0  0  0  0  0  0  0  0
   13.8621  -17.4637   24.4843 C   0  0  0  0  0  0  0  0  0  0  0  0
   12.7326  -16.4860   24.3502 C   0  0  0  0  0  0  0  0  0  0  0  0
   11.5289  -16.9849   25.0839 C   0  0  2  0  0  0  0  0  0  0  0  0
   10.4229  -16.0308   24.9677 N   0  0  0  0  0  0  0  0  0  0  0  0
   11.8105  -17.1971   26.5058 C   0  0  0  0  0  0  0  0  0  0  0  0
   11.4791  -16.4539   27.4516 O   0  0  0  0  0  0  0  0  0  0  0  0
   12.5269  -18.3505   26.8738 O   0  0  0  0  0  0  0  0  0  0  0  0
  2  1  1  1
  2  3  1  0
  3  4  1  0
  4  8  1  0
  5  4  2  0
  6  2  1  0
  6  7  2  0
  9  6  1  0
 10  9  1  0
 10 11  1  1
 11 12  1  0
 12 13  2  0
 12 17  1  0
 13 14  1  0
 14 15  2  0
 16 15  1  0
 17 16  2  0
 18 10  1  0
 19 18  2  0
 20 21  1  0
 21 22  2  0
 21 23  1  0
 24 23  1  0
 24 25  1  0
 25 26  1  0
 27 26  1  6
 27 29  1  0
 27 28  1  0
 28 18  1  0
 29 31  1  0
 30 29  2  0
M  END
$$$$
