DFR.pdb
     RDKit          3D

 31 31  0  0  1  0  0  0  0  0999 V2000
    8.6586  -17.4417   20.1637 N   0  0  0  0  0  0  0  0  0  0  0  0
    9.9278  -17.2404   20.8331 C   0  0  1  0  0  0  0  0  0  0  0  0
   10.9318  -16.8308   19.7603 C   0  0  0  0  0  0  0  0  0  0  0  0
   11.0257  -17.8715   18.7096 C   0  0  0  0  0  0  0  0  0  0  0  0
   10.1248  -18.0879   17.8699 O   0  0  0  0  0  0  0  0  0  0  0  0
    9.7679  -16.2003   21.8566 C   0  0  0  0  0  0  0  0  0  0  0  0
   10.7999  -15.6355   22.3493 O   0  0  0  0  0  0  0  0  0  0  0  0
   12.1666  -18.6353   18.6627 O   0  0  0  0  0  0  0  0  0  0  0  0
    8.5303  -15.7532   22.3623 N   0  0  0  0  0  0  0  0  0  0  0  0
    8.4383  -14.8668   23.4633 C   0  0  1  0  0  0  0  0  0  0  0  0
    7.0861  -14.2296   23.6403 C   0  0  0  0  0  0  0  0  0  0  0  0
    7.0188  -13.3025   24.7789 C   0  0  0  0  0  0  0  0  0  0  0  0
    6.2200  -13.6927   25.8547 C   0  0  0  0  0  0  0  0  0  0  0  0
    6.0668  -12.9342   26.9754 C   0  0  0  0  0  0  0  0  0  0  0  0
    6.7174  -11.7339   27.0671 C   0  0  0  0  0  0  0  0  0  0  0  0
    7.5169  -11.3206   26.0149 C   0  0  0  0  0  0  0  0  0  0  0  0
    7.6664  -12.1038   24.8743 C   0  0  0  0  0  0  0  0  0  0  0  0
    8.8175  -15.4700   24.7561 C   0  0  0  0  0  0  0  0  0  0  0  0
    8.2727  -16.5664   25.1033 O   0  0  0  0  0  0  0  0  0  0  0  0
   15.8834  -18.2997   24.5189 N   0  0  0  0  0  0  0  0  0  0  0  0
   16.2043  -17.2501   25.4227 C   0  0  0  0  0  0  0  0  0  0  0  0
   17.4087  -16.8491   25.4910 N   0  0  0  0  0  0  0  0  0  0  0  0
   15.2294  -16.6388   26.2470 N   0  0  0  0  0  0  0  0  0  0  0  0
   13.8561  -17.0728   26.1280 C   0  0  0  0  0  0  0  0  0  0  0  0
   12.9677  -16.2570   27.0745 C   0  0  0  0  0  0  0  0  0  0  0  0
   12.0633  -15.3466   26.2981 C   0  0  0  0  0  0  0  0  0  0  0  0
   10.6361  -15.7473   26.4945 C   0  0  2  0  0  0  0  0  0  0  0  0
    9.7517  -14.9270   25.6626 N   0  0  0  0  0  0  0  0  0  0  0  0
   10.2208  -15.6055   27.8922 C   0  0  0  0  0  0  0  0  0  0  0  0
    9.6751  -14.6111   28.4118 O   0  0  0  0  0  0  0  0  0  0  0  0
   10.4475  -16.6869   28.7631 O   0  0  0  0  0  0  0  0  0  0  0  0
  2  1  1  6
  2  3  1  0
  3  4  1  0
  4  8  1  0
  5  4  2  0
  6  2  1  0
  6  7  2  0
  9  6  1  0
 10  9  1  0
 10 11  1  1
 11 12  1  0
 12 13  2  0
 12 17  1  0
 13 14  1  0
 14 15  2  0
 16 15  1  0
 17 16  2  0
 18 10  1  0
 19 18  2  0
 20 21  1  0
 21 22  2  0
 21 23  1  0
 24 23  1  0
 24 25  1  0
 25 26  1  0
 27 26  1  1
 27 29  1  0
 27 28  1  0
 28 18  1  0
 29 31  1  0
 30 29  2  0
M  END
$$$$
