DFR.pdb
     RDKit          3D

 31 31  0  0  1  0  0  0  0  0999 V2000
    8.1104  -17.0307   19.8480 N   0  0  0  0  0  0  0  0  0  0  0  0
    9.4626  -17.0022   20.3678 C   0  0  1  0  0  0  0  0  0  0  0  0
   10.3650  -16.5505   19.2240 C   0  0  0  0  0  0  0  0  0  0  0  0
   10.3248  -17.5280   18.1111 C   0  0  0  0  0  0  0  0  0  0  0  0
    9.5339  -18.4957   18.0705 O   0  0  0  0  0  0  0  0  0  0  0  0
    9.5173  -16.0753   21.5049 C   0  0  0  0  0  0  0  0  0  0  0  0
   10.6463  -15.7555   22.0047 O   0  0  0  0  0  0  0  0  0  0  0  0
   11.2073  -17.3551   17.0726 O   0  0  0  0  0  0  0  0  0  0  0  0
    8.3926  -15.4854   22.1163 N   0  0  0  0  0  0  0  0  0  0  0  0
    8.4839  -14.7606   23.3300 C   0  0  1  0  0  0  0  0  0  0  0  0
    7.2981  -13.8808   23.6222 C   0  0  0  0  0  0  0  0  0  0  0  0
    7.4183  -13.1334   24.8821 C   0  0  0  0  0  0  0  0  0  0  0  0
    6.5513  -13.5025   25.9116 C   0  0  0  0  0  0  0  0  0  0  0  0
    6.5528  -12.8981   27.1321 C   0  0  0  0  0  0  0  0  0  0  0  0
    7.4366  -11.8825   27.3766 C   0  0  0  0  0  0  0  0  0  0  0  0
    8.3089  -11.4945   26.3738 C   0  0  0  0  0  0  0  0  0  0  0  0
    8.2988  -12.1192   25.1301 C   0  0  0  0  0  0  0  0  0  0  0  0
    8.7152  -15.6035   24.5195 C   0  0  0  0  0  0  0  0  0  0  0  0
    7.9049  -16.5540   24.7633 O   0  0  0  0  0  0  0  0  0  0  0  0
   16.2914  -18.2250   23.4221 N   0  0  0  0  0  0  0  0  0  0  0  0
   16.0577  -17.1289   24.2971 C   0  0  0  0  0  0  0  0  0  0  0  0
   16.9695  -16.2544   24.4386 N   0  0  0  0  0  0  0  0  0  0  0  0
   14.8463  -16.9800   25.0141 N   0  0  0  0  0  0  0  0  0  0  0  0
   13.9037  -18.0754   25.0096 C   0  0  0  0  0  0  0  0  0  0  0  0
   12.7130  -17.7423   25.9162 C   0  0  0  0  0  0  0  0  0  0  0  0
   11.9187  -16.6034   25.3492 C   0  0  0  0  0  0  0  0  0  0  0  0
   10.5559  -16.5689   25.9638 C   0  0  2  0  0  0  0  0  0  0  0  0
    9.7793  -15.4460   25.4318 N   0  0  0  0  0  0  0  0  0  0  0  0
   10.6220  -16.4374   27.4214 C   0  0  0  0  0  0  0  0  0  0  0  0
   10.9128  -17.3334   28.2395 O   0  0  0  0  0  0  0  0  0  0  0  0
   10.3331  -15.1820   27.9866 O   0  0  0  0  0  0  0  0  0  0  0  0
  2  1  1  6
  2  3  1  0
  3  4  1  0
  4  8  1  0
  5  4  2  0
  6  2  1  0
  6  7  2  0
  9  6  1  0
 10  9  1  0
 10 11  1  1
 11 12  1  0
 12 13  2  0
 12 17  1  0
 13 14  1  0
 14 15  2  0
 16 15  1  0
 17 16  2  0
 18 10  1  0
 19 18  2  0
 20 21  1  0
 21 22  2  0
 21 23  1  0
 24 23  1  0
 24 25  1  0
 25 26  1  0
 27 26  1  6
 27 29  1  0
 27 28  1  0
 28 18  1  0
 29 31  1  0
 30 29  2  0
M  END
$$$$
