FRS.pdb
     RDKit          3D

 29 29  0  0  1  0  0  0  0  0999 V2000
    7.3861  -16.2167   26.7232 N   0  0  0  0  0  0  0  0  0  0  0  0
    7.1354  -15.5190   25.5023 C   0  0  1  0  0  0  0  0  0  0  0  0
    7.8514  -14.1645   25.5956 C   0  0  0  0  0  0  0  0  0  0  0  0
    7.1329  -13.2203   26.4608 C   0  0  0  0  0  0  0  0  0  0  0  0
    5.8850  -12.7722   26.1029 C   0  0  0  0  0  0  0  0  0  0  0  0
    5.1982  -11.8758   26.9199 C   0  0  0  0  0  0  0  0  0  0  0  0
    5.7589  -11.4175   28.1103 C   0  0  0  0  0  0  0  0  0  0  0  0
    7.0215  -11.8742   28.4677 C   0  0  0  0  0  0  0  0  0  0  0  0
    7.6841  -12.7675   27.6348 C   0  0  0  0  0  0  0  0  0  0  0  0
    7.7189  -16.1980   24.3156 C   0  0  0  0  0  0  0  0  0  0  0  0
    8.5895  -17.0967   24.5752 O   0  0  0  0  0  0  0  0  0  0  0  0
    9.0674  -12.5476   18.2236 N   0  0  0  0  0  0  0  0  0  0  0  0
    8.8202  -13.7202   17.4648 C   0  0  0  0  0  0  0  0  0  0  0  0
    9.5281  -14.0044   16.4161 N   0  0  0  0  0  0  0  0  0  0  0  0
    7.7790  -14.6393   17.8209 N   0  0  0  0  0  0  0  0  0  0  0  0
    6.9004  -14.3578   18.9360 C   0  0  0  0  0  0  0  0  0  0  0  0
    7.6094  -14.5720   20.2648 C   0  0  0  0  0  0  0  0  0  0  0  0
    7.6421  -16.0374   20.5505 C   0  0  0  0  0  0  0  0  0  0  0  0
    8.2451  -16.3371   21.9176 C   0  0  2  0  0  0  0  0  0  0  0  0
    7.3793  -15.9174   22.9811 N   0  0  0  0  0  0  0  0  0  0  0  0
    9.6170  -15.7659   22.0184 C   0  0  0  0  0  0  0  0  0  0  0  0
    9.7604  -14.6547   22.5513 O   0  0  0  0  0  0  0  0  0  0  0  0
    9.2594  -14.8382   15.8535 O   0  0  0  0  0  0  0  0  0  0  0  0
   12.8755  -17.6680   24.3078 C   0  0  0  0  0  0  0  0  0  0  0  0
   11.7286  -17.4399   23.5730 C   0  0  1  0  0  0  0  0  0  0  0  0
   11.9524  -16.6707   22.3074 N   0  0  0  0  0  0  0  0  0  0  0  0
   10.7728  -16.4282   21.5352 C   0  0  0  0  0  0  0  0  0  0  0  0
   13.0425  -17.2904   21.5392 O   0  0  0  0  0  0  0  0  0  0  0  0
   12.9057  -18.3465   20.8644 O   0  0  0  0  0  0  0  0  0  0  0  0
  2  1  1  1
  3  2  1  0
  3  4  1  0
  4  9  2  0
  5  4  1  0
  5  6  2  0
  6  7  1  0
  7  8  2  0
  9  8  1  0
 10 20  1  0
 10  2  1  0
 11 10  2  0
 13 12  1  0
 14 13  2  0
 15 13  1  0
 16 15  1  0
 17 16  1  0
 18 17  1  0
 19 18  1  6
 19 20  1  0
 21 19  1  0
 21 26  1  0
 22 21  2  0
 24 23  1  0
 25 24  1  1
 25 26  1  0
 25 27  1  0
 27 28  2  0
 27 29  1  0
M  END
$$$$
