FRS.pdb
     RDKit          3D

 29 29  0  0  1  0  0  0  0  0999 V2000
    7.7808  -13.6796   23.7460 N   0  0  0  0  0  0  0  0  0  0  0  0
    8.2313  -14.6759   24.6650 C   0  0  1  0  0  0  0  0  0  0  0  0
    7.1432  -14.8341   25.7359 C   0  0  0  0  0  0  0  0  0  0  0  0
    6.8467  -13.5646   26.4116 C   0  0  0  0  0  0  0  0  0  0  0  0
    5.6567  -12.9209   26.1750 C   0  0  0  0  0  0  0  0  0  0  0  0
    5.3697  -11.7155   26.8132 C   0  0  0  0  0  0  0  0  0  0  0  0
    6.2780  -11.1405   27.6998 C   0  0  0  0  0  0  0  0  0  0  0  0
    7.4802  -11.7958   27.9356 C   0  0  0  0  0  0  0  0  0  0  0  0
    7.7410  -12.9962   27.2859 C   0  0  0  0  0  0  0  0  0  0  0  0
    8.3757  -16.0175   24.0415 C   0  0  0  0  0  0  0  0  0  0  0  0
    8.3266  -17.0037   24.8526 O   0  0  0  0  0  0  0  0  0  0  0  0
    7.2411  -14.9811   17.3918 N   0  0  0  0  0  0  0  0  0  0  0  0
    8.4521  -14.2682   17.5844 C   0  0  0  0  0  0  0  0  0  0  0  0
    8.5082  -12.9825   17.4255 N   0  0  0  0  0  0  0  0  0  0  0  0
    9.6644  -14.9354   17.9600 N   0  0  0  0  0  0  0  0  0  0  0  0
    9.6209  -16.2308   18.6038 C   0  0  0  0  0  0  0  0  0  0  0  0
    9.5132  -16.0924   20.1150 C   0  0  0  0  0  0  0  0  0  0  0  0
    9.3812  -17.4580   20.7050 C   0  0  0  0  0  0  0  0  0  0  0  0
    9.2684  -17.4129   22.2240 C   0  0  2  0  0  0  0  0  0  0  0  0
    8.5553  -16.2502   22.6671 N   0  0  0  0  0  0  0  0  0  0  0  0
   10.6126  -17.5504   22.8506 C   0  0  0  0  0  0  0  0  0  0  0  0
   11.4248  -16.6210   22.7250 O   0  0  0  0  0  0  0  0  0  0  0  0
    9.4087  -12.5014   17.6298 O   0  0  0  0  0  0  0  0  0  0  0  0
   11.6061  -20.9187   25.2553 C   0  0  0  0  0  0  0  0  0  0  0  0
   12.2990  -19.7350   25.4176 C   0  0  1  0  0  0  0  0  0  0  0  0
   12.2925  -18.8486   24.2103 N   0  0  0  0  0  0  0  0  0  0  0  0
   11.0147  -18.6928   23.5863 C   0  0  0  0  0  0  0  0  0  0  0  0
   13.3537  -19.2694   23.2833 O   0  0  0  0  0  0  0  0  0  0  0  0
   13.1512  -19.5346   22.0675 O   0  0  0  0  0  0  0  0  0  0  0  0
  2  1  1  6
  3  2  1  0
  3  4  1  0
  4  9  2  0
  5  4  1  0
  5  6  2  0
  6  7  1  0
  7  8  2  0
  9  8  1  0
 10 20  1  0
 10  2  1  0
 11 10  2  0
 13 12  1  0
 14 13  2  0
 15 13  1  0
 16 15  1  0
 17 16  1  0
 18 17  1  0
 19 18  1  6
 19 20  1  0
 21 19  1  0
 21 26  1  0
 22 21  2  0
 24 23  1  0
 25 24  1  1
 25 26  1  0
 25 27  1  0
 27 28  2  0
 27 29  1  0
M  END
$$$$
