FRS.pdb
     RDKit          3D

 29 29  0  0  1  0  0  0  0  0999 V2000
    6.7219  -16.4836   25.8251 N   0  0  0  0  0  0  0  0  0  0  0  0
    6.8805  -15.4848   24.8165 C   0  0  1  0  0  0  0  0  0  0  0  0
    7.8762  -14.4478   25.3540 C   0  0  0  0  0  0  0  0  0  0  0  0
    7.2120  -13.4071   26.1489 C   0  0  0  0  0  0  0  0  0  0  0  0
    7.6399  -13.1390   27.4262 C   0  0  0  0  0  0  0  0  0  0  0  0
    7.0134  -12.1524   28.1856 C   0  0  0  0  0  0  0  0  0  0  0  0
    5.9458  -11.4209   27.6691 C   0  0  0  0  0  0  0  0  0  0  0  0
    5.5170  -11.6960   26.3765 C   0  0  0  0  0  0  0  0  0  0  0  0
    6.1594  -12.6849   25.6413 C   0  0  0  0  0  0  0  0  0  0  0  0
    7.4896  -16.0131   23.5676 C   0  0  0  0  0  0  0  0  0  0  0  0
    7.9790  -17.1902   23.6554 O   0  0  0  0  0  0  0  0  0  0  0  0
    9.2075  -15.4590   17.1004 N   0  0  0  0  0  0  0  0  0  0  0  0
    8.4841  -14.2919   16.7443 C   0  0  0  0  0  0  0  0  0  0  0  0
    8.2145  -14.0197   15.5054 N   0  0  0  0  0  0  0  0  0  0  0  0
    8.0222  -13.3635   17.7345 N   0  0  0  0  0  0  0  0  0  0  0  0
    8.8277  -13.0728   18.9012 C   0  0  0  0  0  0  0  0  0  0  0  0
    8.2015  -13.6501   20.1617 C   0  0  0  0  0  0  0  0  0  0  0  0
    7.9613  -15.1078   19.9435 C   0  0  0  0  0  0  0  0  0  0  0  0
    8.1922  -15.9186   21.2129 C   0  0  2  0  0  0  0  0  0  0  0  0
    7.5534  -15.3180   22.3478 N   0  0  0  0  0  0  0  0  0  0  0  0
    9.6474  -16.1605   21.4191 C   0  0  0  0  0  0  0  0  0  0  0  0
   10.3249  -15.2772   21.9670 O   0  0  0  0  0  0  0  0  0  0  0  0
    7.7209  -13.1274   15.2950 O   0  0  0  0  0  0  0  0  0  0  0  0
   11.3798  -20.0066   21.4249 C   0  0  0  0  0  0  0  0  0  0  0  0
   11.9957  -18.8874   21.9499 C   0  0  1  0  0  0  0  0  0  0  0  0
   11.6942  -17.6181   21.2142 N   0  0  0  0  0  0  0  0  0  0  0  0
   10.3020  -17.3522   21.0203 C   0  0  0  0  0  0  0  0  0  0  0  0
   12.4822  -17.5674   19.9737 O   0  0  0  0  0  0  0  0  0  0  0  0
   13.7272  -17.7613   19.9314 O   0  0  0  0  0  0  0  0  0  0  0  0
  2  1  1  1
  3  2  1  0
  3  4  1  0
  4  9  2  0
  5  4  1  0
  5  6  2  0
  6  7  1  0
  7  8  2  0
  9  8  1  0
 10 20  1  0
 10  2  1  0
 11 10  2  0
 13 12  1  0
 14 13  2  0
 15 13  1  0
 16 15  1  0
 17 16  1  0
 18 17  1  0
 19 18  1  6
 19 20  1  0
 21 19  1  0
 21 26  1  0
 22 21  2  0
 24 23  1  0
 25 24  1  1
 25 26  1  0
 25 27  1  0
 27 28  2  0
 27 29  1  0
M  END
$$$$
