FRS.pdb
     RDKit          3D

 29 29  0  0  1  0  0  0  0  0999 V2000
    6.2709  -18.0377   25.9632 N   0  0  0  0  0  0  0  0  0  0  0  0
    6.4077  -16.6515   25.6472 C   0  0  1  0  0  0  0  0  0  0  0  0
    7.0422  -15.9664   26.8654 C   0  0  0  0  0  0  0  0  0  0  0  0
    7.0398  -14.5036   26.7377 C   0  0  0  0  0  0  0  0  0  0  0  0
    8.2207  -13.8054   26.8037 C   0  0  0  0  0  0  0  0  0  0  0  0
    8.2248  -12.4168   26.6833 C   0  0  0  0  0  0  0  0  0  0  0  0
    7.0385  -11.7107   26.4945 C   0  0  0  0  0  0  0  0  0  0  0  0
    5.8467  -12.4219   26.4283 C   0  0  0  0  0  0  0  0  0  0  0  0
    5.8712  -13.8058   26.5515 C   0  0  0  0  0  0  0  0  0  0  0  0
    7.3422  -16.4033   24.5181 C   0  0  0  0  0  0  0  0  0  0  0  0
    8.3565  -17.1791   24.4694 O   0  0  0  0  0  0  0  0  0  0  0  0
    9.9019  -14.3369   17.8945 N   0  0  0  0  0  0  0  0  0  0  0  0
    8.6721  -14.0618   17.2433 C   0  0  0  0  0  0  0  0  0  0  0  0
    8.4911  -14.3599   15.9943 N   0  0  0  0  0  0  0  0  0  0  0  0
    7.5791  -13.4420   17.9339 N   0  0  0  0  0  0  0  0  0  0  0  0
    7.6769  -13.1448   19.3469 C   0  0  0  0  0  0  0  0  0  0  0  0
    7.9226  -14.4066   20.1603 C   0  0  0  0  0  0  0  0  0  0  0  0
    7.8384  -14.0568   21.6097 C   0  0  0  0  0  0  0  0  0  0  0  0
    8.1525  -15.2513   22.5023 C   0  0  2  0  0  0  0  0  0  0  0  0
    7.1776  -15.4048   23.5429 N   0  0  0  0  0  0  0  0  0  0  0  0
    9.5484  -15.1659   23.0147 C   0  0  0  0  0  0  0  0  0  0  0  0
    9.7468  -14.6198   24.1110 O   0  0  0  0  0  0  0  0  0  0  0  0
    7.5840  -14.1002   15.5541 O   0  0  0  0  0  0  0  0  0  0  0  0
   11.8026  -17.9655   23.9514 C   0  0  0  0  0  0  0  0  0  0  0  0
   12.0535  -16.6185   24.1247 C   0  0  1  0  0  0  0  0  0  0  0  0
   11.9805  -15.8127   22.8642 N   0  0  0  0  0  0  0  0  0  0  0  0
   10.6676  -15.6779   22.3124 C   0  0  0  0  0  0  0  0  0  0  0  0
   12.9758  -16.3096   21.9024 O   0  0  0  0  0  0  0  0  0  0  0  0
   12.6902  -16.6695   20.7283 O   0  0  0  0  0  0  0  0  0  0  0  0
  2  1  1  1
  3  2  1  0
  3  4  1  0
  4  9  2  0
  5  4  1  0
  5  6  2  0
  6  7  1  0
  7  8  2  0
  9  8  1  0
 10 20  1  0
 10  2  1  0
 11 10  2  0
 13 12  1  0
 14 13  2  0
 15 13  1  0
 16 15  1  0
 17 16  1  0
 18 17  1  0
 19 18  1  1
 19 20  1  0
 21 19  1  0
 21 26  1  0
 22 21  2  0
 24 23  1  0
 25 24  1  1
 25 26  1  0
 25 27  1  0
 27 28  2  0
 27 29  1  0
M  END
$$$$
