FRS.pdb
     RDKit          3D

 29 29  0  0  1  0  0  0  0  0999 V2000
    6.6072  -16.8280   25.6869 N   0  0  0  0  0  0  0  0  0  0  0  0
    7.0569  -15.7062   24.9258 C   0  0  1  0  0  0  0  0  0  0  0  0
    8.0470  -14.9274   25.8028 C   0  0  0  0  0  0  0  0  0  0  0  0
    7.4474  -13.7089   26.3614 C   0  0  0  0  0  0  0  0  0  0  0  0
    6.2745  -13.2187   25.8414 C   0  0  0  0  0  0  0  0  0  0  0  0
    5.7007  -12.0625   26.3672 C   0  0  0  0  0  0  0  0  0  0  0  0
    6.3003  -11.3827   27.4255 C   0  0  0  0  0  0  0  0  0  0  0  0
    7.4867  -11.8830   27.9478 C   0  0  0  0  0  0  0  0  0  0  0  0
    8.0372  -13.0374   27.4046 C   0  0  0  0  0  0  0  0  0  0  0  0
    7.8209  -16.0973   23.7121 C   0  0  0  0  0  0  0  0  0  0  0  0
    8.3089  -17.2781   23.7321 O   0  0  0  0  0  0  0  0  0  0  0  0
    8.4013  -12.4814   17.6107 N   0  0  0  0  0  0  0  0  0  0  0  0
    7.9850  -13.8204   17.3971 C   0  0  0  0  0  0  0  0  0  0  0  0
    8.4208  -14.5072   16.3871 N   0  0  0  0  0  0  0  0  0  0  0  0
    7.0654  -14.4713   18.2840 N   0  0  0  0  0  0  0  0  0  0  0  0
    6.6156  -13.8101   19.4903 C   0  0  0  0  0  0  0  0  0  0  0  0
    7.7339  -13.7156   20.5173 C   0  0  0  0  0  0  0  0  0  0  0  0
    8.6906  -14.8368   20.2768 C   0  0  0  0  0  0  0  0  0  0  0  0
    8.8253  -15.7410   21.4960 C   0  0  2  0  0  0  0  0  0  0  0  0
    8.0264  -15.2742   22.5917 N   0  0  0  0  0  0  0  0  0  0  0  0
   10.2598  -15.9243   21.8526 C   0  0  0  0  0  0  0  0  0  0  0  0
   10.9591  -14.9167   22.0399 O   0  0  0  0  0  0  0  0  0  0  0  0
    8.0158  -15.4526   16.2249 O   0  0  0  0  0  0  0  0  0  0  0  0
   12.5629  -17.5025   25.2592 C   0  0  0  0  0  0  0  0  0  0  0  0
   11.5500  -17.2254   24.3622 C   0  0  2  0  0  0  0  0  0  0  0  0
   11.9016  -17.5034   22.9331 N   0  0  0  0  0  0  0  0  0  0  0  0
   10.8710  -17.1954   21.9900 C   0  0  0  0  0  0  0  0  0  0  0  0
   12.4226  -18.8731   22.8103 O   0  0  0  0  0  0  0  0  0  0  0  0
   11.6863  -19.8926   22.7218 O   0  0  0  0  0  0  0  0  0  0  0  0
  2  1  1  1
  3  2  1  0
  3  4  1  0
  4  9  2  0
  5  4  1  0
  5  6  2  0
  6  7  1  0
  7  8  2  0
  9  8  1  0
 10 20  1  0
 10  2  1  0
 11 10  2  0
 13 12  1  0
 14 13  2  0
 15 13  1  0
 16 15  1  0
 17 16  1  0
 18 17  1  0
 19 18  1  6
 19 20  1  0
 21 19  1  0
 21 26  1  0
 22 21  2  0
 24 23  1  0
 25 24  1  6
 25 26  1  0
 25 27  1  0
 27 28  2  0
 27 29  1  0
M  END
$$$$
