FRS.pdb
     RDKit          3D

 29 29  0  0  1  0  0  0  0  0999 V2000
    6.4927  -17.2314   25.9307 N   0  0  0  0  0  0  0  0  0  0  0  0
    6.9417  -16.0463   25.2719 C   0  0  1  0  0  0  0  0  0  0  0  0
    7.7075  -15.2111   26.3071 C   0  0  0  0  0  0  0  0  0  0  0  0
    7.1101  -13.8827   26.4936 C   0  0  0  0  0  0  0  0  0  0  0  0
    7.7233  -12.9606   27.3061 C   0  0  0  0  0  0  0  0  0  0  0  0
    7.1611  -11.6982   27.4872 C   0  0  0  0  0  0  0  0  0  0  0  0
    5.9721  -11.3458   26.8519 C   0  0  0  0  0  0  0  0  0  0  0  0
    5.3560  -12.2823   26.0309 C   0  0  0  0  0  0  0  0  0  0  0  0
    5.9380  -13.5336   25.8681 C   0  0  0  0  0  0  0  0  0  0  0  0
    7.9147  -16.3215   24.1823 C   0  0  0  0  0  0  0  0  0  0  0  0
    8.4754  -17.4688   24.2290 O   0  0  0  0  0  0  0  0  0  0  0  0
    9.5447  -14.6583   17.8777 N   0  0  0  0  0  0  0  0  0  0  0  0
    8.4095  -13.8078   17.8700 C   0  0  0  0  0  0  0  0  0  0  0  0
    8.4891  -12.5837   17.4494 N   0  0  0  0  0  0  0  0  0  0  0  0
    7.1286  -14.2613   18.3274 N   0  0  0  0  0  0  0  0  0  0  0  0
    7.0219  -15.0913   19.5082 C   0  0  0  0  0  0  0  0  0  0  0  0
    7.6492  -14.4139   20.7173 C   0  0  0  0  0  0  0  0  0  0  0  0
    9.0363  -14.9409   20.8857 C   0  0  0  0  0  0  0  0  0  0  0  0
    9.1656  -15.8163   22.1262 C   0  0  2  0  0  0  0  0  0  0  0  0
    8.2374  -15.4266   23.1477 N   0  0  0  0  0  0  0  0  0  0  0  0
   10.5781  -15.8462   22.5979 C   0  0  0  0  0  0  0  0  0  0  0  0
   11.4022  -15.0948   22.0543 O   0  0  0  0  0  0  0  0  0  0  0  0
    7.6259  -12.0019   17.4658 O   0  0  0  0  0  0  0  0  0  0  0  0
   12.0008  -18.7933   25.3716 C   0  0  0  0  0  0  0  0  0  0  0  0
   12.5965  -17.5475   25.3463 C   0  0  1  0  0  0  0  0  0  0  0  0
   12.3939  -16.7953   24.0670 N   0  0  0  0  0  0  0  0  0  0  0  0
   11.0324  -16.6920   23.6401 C   0  0  0  0  0  0  0  0  0  0  0  0
   13.2967  -17.3253   23.0343 O   0  0  0  0  0  0  0  0  0  0  0  0
   14.5432  -17.4342   23.1887 O   0  0  0  0  0  0  0  0  0  0  0  0
  2  1  1  1
  3  2  1  0
  3  4  1  0
  4  9  2  0
  5  4  1  0
  5  6  2  0
  6  7  1  0
  7  8  2  0
  9  8  1  0
 10 20  1  0
 10  2  1  0
 11 10  2  0
 13 12  1  0
 14 13  2  0
 15 13  1  0
 16 15  1  0
 17 16  1  0
 18 17  1  0
 19 18  1  6
 19 20  1  0
 21 19  1  0
 21 26  1  0
 22 21  2  0
 24 23  1  0
 25 24  1  1
 25 26  1  0
 25 27  1  0
 27 28  2  0
 27 29  1  0
M  END
$$$$
