FRS.pdb
     RDKit          3D

 29 29  0  0  1  0  0  0  0  0999 V2000
    5.7965  -18.0242   25.4486 N   0  0  0  0  0  0  0  0  0  0  0  0
    6.2012  -16.6740   25.2181 C   0  0  1  0  0  0  0  0  0  0  0  0
    6.7217  -16.1199   26.5515 C   0  0  0  0  0  0  0  0  0  0  0  0
    6.7574  -14.6520   26.5614 C   0  0  0  0  0  0  0  0  0  0  0  0
    7.9493  -13.9941   26.7428 C   0  0  0  0  0  0  0  0  0  0  0  0
    7.9896  -12.6009   26.7534 C   0  0  0  0  0  0  0  0  0  0  0  0
    6.8288  -11.8495   26.5811 C   0  0  0  0  0  0  0  0  0  0  0  0
    5.6258  -12.5200   26.3978 C   0  0  0  0  0  0  0  0  0  0  0  0
    5.6141  -13.9096   26.3917 C   0  0  0  0  0  0  0  0  0  0  0  0
    7.3394  -16.5635   24.2684 C   0  0  0  0  0  0  0  0  0  0  0  0
    8.2119  -17.4933   24.3527 O   0  0  0  0  0  0  0  0  0  0  0  0
    9.7300  -12.9118   18.7321 N   0  0  0  0  0  0  0  0  0  0  0  0
    8.6489  -13.4874   18.0166 C   0  0  0  0  0  0  0  0  0  0  0  0
    8.8100  -13.9597   16.8198 N   0  0  0  0  0  0  0  0  0  0  0  0
    7.3339  -13.5702   18.5820 N   0  0  0  0  0  0  0  0  0  0  0  0
    7.0716  -13.0582   19.9100 C   0  0  0  0  0  0  0  0  0  0  0  0
    7.0516  -14.1784   20.9391 C   0  0  0  0  0  0  0  0  0  0  0  0
    8.4598  -14.4813   21.3334 C   0  0  0  0  0  0  0  0  0  0  0  0
    8.5362  -15.6274   22.3349 C   0  0  2  0  0  0  0  0  0  0  0  0
    7.5009  -15.5361   23.3232 N   0  0  0  0  0  0  0  0  0  0  0  0
    9.9019  -15.7153   22.9228 C   0  0  0  0  0  0  0  0  0  0  0  0
   10.2091  -14.9294   23.8324 O   0  0  0  0  0  0  0  0  0  0  0  0
    8.0072  -14.4495   16.3730 O   0  0  0  0  0  0  0  0  0  0  0  0
   12.4870  -18.9326   22.0168 C   0  0  0  0  0  0  0  0  0  0  0  0
   12.7235  -18.1571   23.1349 C   0  0  1  0  0  0  0  0  0  0  0  0
   12.1938  -16.7595   23.0368 N   0  0  0  0  0  0  0  0  0  0  0  0
   10.8737  -16.6540   22.4958 C   0  0  0  0  0  0  0  0  0  0  0  0
   13.1790  -15.9047   22.3576 O   0  0  0  0  0  0  0  0  0  0  0  0
   12.9001  -15.1670   21.3741 O   0  0  0  0  0  0  0  0  0  0  0  0
  2  1  1  1
  3  2  1  0
  3  4  1  0
  4  9  2  0
  5  4  1  0
  5  6  2  0
  6  7  1  0
  7  8  2  0
  9  8  1  0
 10 20  1  0
 10  2  1  0
 11 10  2  0
 13 12  1  0
 14 13  2  0
 15 13  1  0
 16 15  1  0
 17 16  1  0
 18 17  1  0
 19 18  1  6
 19 20  1  0
 21 19  1  0
 21 26  1  0
 22 21  2  0
 24 23  1  0
 25 24  1  1
 25 26  1  0
 25 27  1  0
 27 28  2  0
 27 29  1  0
M  END
$$$$
