FRS.pdb
     RDKit          3D

 29 29  0  0  1  0  0  0  0  0999 V2000
    6.0542  -17.9502   25.9967 N   0  0  0  0  0  0  0  0  0  0  0  0
    6.3213  -16.5800   25.6946 C   0  0  1  0  0  0  0  0  0  0  0  0
    7.1890  -16.0230   26.8316 C   0  0  0  0  0  0  0  0  0  0  0  0
    7.2230  -14.5550   26.8299 C   0  0  0  0  0  0  0  0  0  0  0  0
    8.4173  -13.8948   26.6752 C   0  0  0  0  0  0  0  0  0  0  0  0
    8.4560  -12.5015   26.6728 C   0  0  0  0  0  0  0  0  0  0  0  0
    7.2912  -11.7524   26.8263 C   0  0  0  0  0  0  0  0  0  0  0  0
    6.0856  -12.4253   26.9823 C   0  0  0  0  0  0  0  0  0  0  0  0
    6.0756  -13.8149   26.9811 C   0  0  0  0  0  0  0  0  0  0  0  0
    7.1251  -16.4048   24.4565 C   0  0  0  0  0  0  0  0  0  0  0  0
    8.0212  -17.2940   24.2580 O   0  0  0  0  0  0  0  0  0  0  0  0
    9.8161  -14.5724   16.9674 N   0  0  0  0  0  0  0  0  0  0  0  0
    8.4709  -14.1299   17.0492 C   0  0  0  0  0  0  0  0  0  0  0  0
    7.9240  -13.4583   16.0841 N   0  0  0  0  0  0  0  0  0  0  0  0
    7.6594  -14.4026   18.1994 N   0  0  0  0  0  0  0  0  0  0  0  0
    8.2509  -14.9452   19.4037 C   0  0  0  0  0  0  0  0  0  0  0  0
    8.4948  -13.8561   20.4375 C   0  0  0  0  0  0  0  0  0  0  0  0
    7.5147  -14.0345   21.5500 C   0  0  0  0  0  0  0  0  0  0  0  0
    7.8389  -15.2545   22.4037 C   0  0  2  0  0  0  0  0  0  0  0  0
    6.9600  -15.3593   23.5320 N   0  0  0  0  0  0  0  0  0  0  0  0
    9.2799  -15.2585   22.7807 C   0  0  0  0  0  0  0  0  0  0  0  0
    9.7231  -14.3088   23.4449 O   0  0  0  0  0  0  0  0  0  0  0  0
    6.9171  -13.2075   16.1695 O   0  0  0  0  0  0  0  0  0  0  0  0
   11.8304  -18.5889   21.9866 C   0  0  0  0  0  0  0  0  0  0  0  0
   12.1734  -17.6477   22.9374 C   0  0  1  0  0  0  0  0  0  0  0  0
   11.5776  -16.2934   22.7045 N   0  0  0  0  0  0  0  0  0  0  0  0
   10.1759  -16.2949   22.4187 C   0  0  0  0  0  0  0  0  0  0  0  0
   12.3808  -15.5649   21.7112 O   0  0  0  0  0  0  0  0  0  0  0  0
   11.9210  -15.1500   20.6131 O   0  0  0  0  0  0  0  0  0  0  0  0
  2  1  1  1
  3  2  1  0
  3  4  1  0
  4  9  2  0
  5  4  1  0
  5  6  2  0
  6  7  1  0
  7  8  2  0
  9  8  1  0
 10 20  1  0
 10  2  1  0
 11 10  2  0
 13 12  1  0
 14 13  2  0
 15 13  1  0
 16 15  1  0
 17 16  1  0
 18 17  1  0
 19 18  1  1
 19 20  1  0
 21 19  1  0
 21 26  1  0
 22 21  2  0
 24 23  1  0
 25 24  1  1
 25 26  1  0
 25 27  1  0
 27 28  2  0
 27 29  1  0
M  END
$$$$
