KTM.pdb
     RDKit          3D

 25 24  0  0  1  0  0  0  0  0999 V2000
   10.8353  -19.0218   18.7740 N   0  0  0  0  0  0  0  0  0  0  0  0
   11.0592  -17.6345   18.8023 C   0  0  1  0  0  0  0  0  0  0  0  0
   11.3121  -16.9891   17.5086 C   0  0  0  0  0  0  0  0  0  0  0  0
   10.7568  -17.5555   16.3005 C   0  0  0  0  0  0  0  0  0  0  0  0
   11.5505  -18.2442   15.3039 C   0  0  0  0  0  0  0  0  0  0  0  0
   11.7235  -17.8225   13.9164 C   0  0  0  0  0  0  0  0  0  0  0  0
   12.4530  -18.7386   13.0696 N   0  0  0  0  0  0  0  0  0  0  0  0
    9.8829  -17.0097   19.5156 C   0  0  0  0  0  0  0  0  0  0  0  0
    9.2954  -16.0012   19.0481 O   0  0  0  0  0  0  0  0  0  0  0  0
    6.8555  -19.0233   20.7706 C   0  0  0  0  0  0  0  0  0  0  0  0
    7.4267  -18.2552   21.9518 C   0  0  1  0  0  0  0  0  0  0  0  0
    8.2619  -19.1007   22.6699 O   0  0  0  0  0  0  0  0  0  0  0  0
    8.2497  -17.0862   21.4252 C   0  0  2  0  0  0  0  0  0  0  0  0
    9.4249  -17.5583   20.7300 N   0  0  0  0  0  0  0  0  0  0  0  0
    8.6654  -16.2100   22.5492 C   0  0  0  0  0  0  0  0  0  0  0  0
    9.8871  -16.0850   22.8435 O   0  0  0  0  0  0  0  0  0  0  0  0
    6.6634  -10.6394   27.8595 C   0  0  0  0  0  0  0  0  0  0  0  0
    6.1250  -11.6846   26.4739 S   0  0  0  0  0  0  0  0  0  0  0  0
    7.4145  -12.8814   26.0231 C   0  0  0  0  0  0  0  0  0  0  0  0
    7.0277  -13.6478   24.8002 C   0  0  0  0  0  0  0  0  0  0  0  0
    8.1362  -14.5983   24.4097 C   0  0  2  0  0  0  0  0  0  0  0  0
    7.7393  -15.4827   23.3360 N   0  0  0  0  0  0  0  0  0  0  0  0
    8.4988  -15.4437   25.5788 C   0  0  0  0  0  0  0  0  0  0  0  0
    7.8954  -16.5300   25.7816 O   0  0  0  0  0  0  0  0  0  0  0  0
    9.5017  -15.0688   26.4741 O   0  0  0  0  0  0  0  0  0  0  0  0
  2  1  1  6
  3  2  1  0
  4  3  1  0
  5  6  1  0
  5  4  1  0
  7  6  1  0
  8  2  1  0
  8  9  2  0
 11 10  1  6
 11 13  1  0
 12 11  1  0
 13 14  1  1
 14  8  1  0
 15 13  1  0
 16 15  2  0
 18 19  1  0
 18 17  1  0
 19 20  1  0
 21 20  1  1
 21 23  1  0
 21 22  1  0
 22 15  1  0
 23 25  1  0
 24 23  2  0
M  END
$$$$
