KTM.pdb
     RDKit          3D

 25 24  0  0  1  0  0  0  0  0999 V2000
    6.0009  -19.2738   23.9964 N   0  0  0  0  0  0  0  0  0  0  0  0
    6.9788  -19.8726   23.1836 C   0  0  1  0  0  0  0  0  0  0  0  0
    6.5010  -20.8645   22.2131 C   0  0  0  0  0  0  0  0  0  0  0  0
    5.1248  -20.8362   21.7728 C   0  0  0  0  0  0  0  0  0  0  0  0
    4.7300  -20.5700   20.4050 C   0  0  0  0  0  0  0  0  0  0  0  0
    3.3636  -20.6168   19.8912 C   0  0  0  0  0  0  0  0  0  0  0  0
    3.1877  -20.1482   18.5356 N   0  0  0  0  0  0  0  0  0  0  0  0
    7.7397  -18.7552   22.5088 C   0  0  0  0  0  0  0  0  0  0  0  0
    8.7198  -18.9922   21.7578 O   0  0  0  0  0  0  0  0  0  0  0  0
    6.8570  -16.2387   19.9164 C   0  0  0  0  0  0  0  0  0  0  0  0
    7.0484  -15.5000   21.2314 C   0  0  1  0  0  0  0  0  0  0  0  0
    5.8240  -15.4260   21.8821 O   0  0  0  0  0  0  0  0  0  0  0  0
    8.0178  -16.2902   22.1015 C   0  0  2  0  0  0  0  0  0  0  0  0
    7.3538  -17.4161   22.7168 N   0  0  0  0  0  0  0  0  0  0  0  0
    8.5793  -15.4148   23.1609 C   0  0  0  0  0  0  0  0  0  0  0  0
    8.7797  -14.1883   22.9363 O   0  0  0  0  0  0  0  0  0  0  0  0
    7.0071  -11.3939   27.3987 C   0  0  0  0  0  0  0  0  0  0  0  0
    6.2737  -12.0752   25.8820 S   0  0  0  0  0  0  0  0  0  0  0  0
    7.4070  -13.2471   25.0815 C   0  0  0  0  0  0  0  0  0  0  0  0
    7.6916  -14.4099   25.9755 C   0  0  0  0  0  0  0  0  0  0  0  0
    9.0191  -15.0339   25.6106 C   0  0  2  0  0  0  0  0  0  0  0  0
    8.9143  -15.8928   24.4513 N   0  0  0  0  0  0  0  0  0  0  0  0
    9.5043  -15.8655   26.7446 C   0  0  0  0  0  0  0  0  0  0  0  0
    9.8806  -15.3156   27.8129 O   0  0  0  0  0  0  0  0  0  0  0  0
    9.5579  -17.2578   26.6647 O   0  0  0  0  0  0  0  0  0  0  0  0
  2  1  1  6
  3  2  1  0
  4  3  1  0
  5  6  1  0
  5  4  1  0
  7  6  1  0
  8  2  1  0
  8  9  2  0
 11 10  1  6
 11 13  1  0
 12 11  1  0
 13 14  1  1
 14  8  1  0
 15 13  1  0
 16 15  2  0
 18 19  1  0
 18 17  1  0
 19 20  1  0
 21 20  1  1
 21 23  1  0
 21 22  1  0
 22 15  1  0
 23 25  1  0
 24 23  2  0
M  END
$$$$
