KTM.pdb
     RDKit          3D

 25 24  0  0  1  0  0  0  0  0999 V2000
    7.3505  -17.2913   19.5955 N   0  0  0  0  0  0  0  0  0  0  0  0
    8.5416  -16.8547   20.2006 C   0  0  1  0  0  0  0  0  0  0  0  0
    8.8940  -15.4438   20.0019 C   0  0  0  0  0  0  0  0  0  0  0  0
    7.8571  -14.4372   19.9918 C   0  0  0  0  0  0  0  0  0  0  0  0
    7.8452  -13.3130   19.0787 C   0  0  0  0  0  0  0  0  0  0  0  0
    8.7441  -12.1633   19.1356 C   0  0  0  0  0  0  0  0  0  0  0  0
    8.4675  -11.1046   18.1916 N   0  0  0  0  0  0  0  0  0  0  0  0
    8.4477  -17.2037   21.6677 C   0  0  0  0  0  0  0  0  0  0  0  0
    7.3557  -17.5434   22.1902 O   0  0  0  0  0  0  0  0  0  0  0  0
   10.4074  -19.7559   23.4334 C   0  0  0  0  0  0  0  0  0  0  0  0
   10.6779  -18.4832   24.2199 C   0  0  1  0  0  0  0  0  0  0  0  0
   11.9082  -17.9719   23.8287 O   0  0  0  0  0  0  0  0  0  0  0  0
    9.5964  -17.4625   23.8888 C   0  0  2  0  0  0  0  0  0  0  0  0
    9.5993  -17.1516   22.4779 N   0  0  0  0  0  0  0  0  0  0  0  0
    9.8187  -16.2165   24.6646 C   0  0  0  0  0  0  0  0  0  0  0  0
   10.2801  -15.1858   24.0993 O   0  0  0  0  0  0  0  0  0  0  0  0
    5.7382  -12.5607   27.2425 C   0  0  0  0  0  0  0  0  0  0  0  0
    7.2953  -11.6376   27.4017 S   0  0  0  0  0  0  0  0  0  0  0  0
    8.7095  -12.7680   27.5460 C   0  0  0  0  0  0  0  0  0  0  0  0
    8.4915  -14.0023   26.7327 C   0  0  0  0  0  0  0  0  0  0  0  0
    9.7095  -14.8944   26.8046 C   0  0  2  0  0  0  0  0  0  0  0  0
    9.5334  -16.1149   26.0481 N   0  0  0  0  0  0  0  0  0  0  0  0
    9.9622  -15.2748   28.2204 C   0  0  0  0  0  0  0  0  0  0  0  0
   10.2127  -14.3860   29.0762 O   0  0  0  0  0  0  0  0  0  0  0  0
    9.9309  -16.6054   28.6407 O   0  0  0  0  0  0  0  0  0  0  0  0
  2  1  1  6
  3  2  1  0
  4  3  1  0
  5  6  1  0
  5  4  1  0
  7  6  1  0
  8  2  1  0
  8  9  2  0
 11 10  1  6
 11 13  1  0
 12 11  1  0
 13 14  1  6
 14  8  1  0
 15 13  1  0
 16 15  2  0
 18 19  1  0
 18 17  1  0
 19 20  1  0
 21 20  1  1
 21 23  1  0
 21 22  1  0
 22 15  1  0
 23 25  1  0
 24 23  2  0
M  END
$$$$
