KTM.pdb
     RDKit          3D

 25 24  0  0  1  0  0  0  0  0999 V2000
   10.8264  -17.3154   18.0093 N   0  0  0  0  0  0  0  0  0  0  0  0
   10.5354  -17.7244   19.3223 C   0  0  1  0  0  0  0  0  0  0  0  0
   11.6239  -18.3802   20.0565 C   0  0  0  0  0  0  0  0  0  0  0  0
   12.8050  -18.8220   19.3504 C   0  0  0  0  0  0  0  0  0  0  0  0
   12.8509  -20.0266   18.5476 C   0  0  0  0  0  0  0  0  0  0  0  0
   14.0207  -20.5231   17.8277 C   0  0  0  0  0  0  0  0  0  0  0  0
   14.5808  -21.7607   18.3208 N   0  0  0  0  0  0  0  0  0  0  0  0
   10.0176  -16.5118   20.0601 C   0  0  0  0  0  0  0  0  0  0  0  0
   10.5176  -15.3727   19.8777 O   0  0  0  0  0  0  0  0  0  0  0  0
    6.3784  -15.3159   20.2217 C   0  0  0  0  0  0  0  0  0  0  0  0
    6.8438  -15.6082   21.6393 C   0  0  1  0  0  0  0  0  0  0  0  0
    6.4517  -16.8962   21.9792 O   0  0  0  0  0  0  0  0  0  0  0  0
    8.3648  -15.5328   21.6817 C   0  0  2  0  0  0  0  0  0  0  0  0
    8.9535  -16.6462   20.9739 N   0  0  0  0  0  0  0  0  0  0  0  0
    8.8353  -15.5445   23.0897 C   0  0  0  0  0  0  0  0  0  0  0  0
    9.5897  -16.4689   23.5034 O   0  0  0  0  0  0  0  0  0  0  0  0
    7.3848  -10.9897   27.8486 C   0  0  0  0  0  0  0  0  0  0  0  0
    6.1734  -11.8544   26.8060 S   0  0  0  0  0  0  0  0  0  0  0  0
    6.8506  -13.4212   26.1854 C   0  0  0  0  0  0  0  0  0  0  0  0
    8.3445  -13.3959   26.1892 C   0  0  0  0  0  0  0  0  0  0  0  0
    8.8866  -14.5737   25.4123 C   0  0  2  0  0  0  0  0  0  0  0  0
    8.4742  -14.5451   24.0260 N   0  0  0  0  0  0  0  0  0  0  0  0
    8.3761  -15.8376   26.0079 C   0  0  0  0  0  0  0  0  0  0  0  0
    8.8872  -16.2857   27.0678 O   0  0  0  0  0  0  0  0  0  0  0  0
    7.3326  -16.5566   25.4232 O   0  0  0  0  0  0  0  0  0  0  0  0
  2  1  1  6
  3  2  1  0
  4  3  1  0
  5  6  1  0
  5  4  1  0
  7  6  1  0
  8  2  1  0
  8  9  2  0
 11 10  1  6
 11 13  1  0
 12 11  1  0
 13 14  1  6
 14  8  1  0
 15 13  1  0
 16 15  2  0
 18 19  1  0
 18 17  1  0
 19 20  1  0
 21 20  1  1
 21 23  1  0
 21 22  1  0
 22 15  1  0
 23 25  1  0
 24 23  2  0
M  END
$$$$
