KTM.pdb
     RDKit          3D

 25 24  0  0  1  0  0  0  0  0999 V2000
    6.2259  -21.3788   21.8141 N   0  0  0  0  0  0  0  0  0  0  0  0
    5.9466  -20.3545   22.7352 C   0  0  1  0  0  0  0  0  0  0  0  0
    5.8540  -20.7534   24.1446 C   0  0  0  0  0  0  0  0  0  0  0  0
    6.9111  -21.5370   24.7421 C   0  0  0  0  0  0  0  0  0  0  0  0
    6.8573  -22.0491   26.0958 C   0  0  0  0  0  0  0  0  0  0  0  0
    7.9497  -22.7228   26.7928 C   0  0  0  0  0  0  0  0  0  0  0  0
    7.7032  -23.0457   28.1797 N   0  0  0  0  0  0  0  0  0  0  0  0
    6.9852  -19.2768   22.5287 C   0  0  0  0  0  0  0  0  0  0  0  0
    8.1831  -19.5632   22.2761 O   0  0  0  0  0  0  0  0  0  0  0  0
    6.6514  -16.5151   20.1546 C   0  0  0  0  0  0  0  0  0  0  0  0
    6.9981  -15.8053   21.4537 C   0  0  1  0  0  0  0  0  0  0  0  0
    5.8384  -15.2539   21.9822 O   0  0  0  0  0  0  0  0  0  0  0  0
    7.5471  -16.8281   22.4403 C   0  0  2  0  0  0  0  0  0  0  0  0
    6.6175  -17.9195   22.6182 N   0  0  0  0  0  0  0  0  0  0  0  0
    7.8008  -16.1828   23.7530 C   0  0  0  0  0  0  0  0  0  0  0  0
    6.9416  -16.2532   24.6759 O   0  0  0  0  0  0  0  0  0  0  0  0
    5.8997  -11.3521   25.7009 C   0  0  0  0  0  0  0  0  0  0  0  0
    6.6691  -12.0637   27.1854 S   0  0  0  0  0  0  0  0  0  0  0  0
    8.1584  -13.0101   26.7556 C   0  0  0  0  0  0  0  0  0  0  0  0
    7.9252  -13.8509   25.5427 C   0  0  0  0  0  0  0  0  0  0  0  0
    9.1620  -14.6594   25.2247 C   0  0  2  0  0  0  0  0  0  0  0  0
    8.9904  -15.4694   24.0384 N   0  0  0  0  0  0  0  0  0  0  0  0
    9.4590  -15.5771   26.3572 C   0  0  0  0  0  0  0  0  0  0  0  0
    9.0380  -16.7634   26.3337 O   0  0  0  0  0  0  0  0  0  0  0  0
   10.2010  -15.1621   27.4642 O   0  0  0  0  0  0  0  0  0  0  0  0
  2  1  1  6
  3  2  1  0
  4  3  1  0
  5  6  1  0
  5  4  1  0
  7  6  1  0
  8  2  1  0
  8  9  2  0
 11 10  1  6
 11 13  1  0
 12 11  1  0
 13 14  1  1
 14  8  1  0
 15 13  1  0
 16 15  2  0
 18 19  1  0
 18 17  1  0
 19 20  1  0
 21 20  1  1
 21 23  1  0
 21 22  1  0
 22 15  1  0
 23 25  1  0
 24 23  2  0
M  END
$$$$
