KTM.pdb
     RDKit          3D

 25 24  0  0  1  0  0  0  0  0999 V2000
    7.6112  -16.5405   19.3708 N   0  0  0  0  0  0  0  0  0  0  0  0
    8.2916  -15.6348   20.2029 C   0  0  1  0  0  0  0  0  0  0  0  0
    7.7917  -14.2549   20.2101 C   0  0  0  0  0  0  0  0  0  0  0  0
    7.5702  -13.5629   18.9608 C   0  0  0  0  0  0  0  0  0  0  0  0
    8.5650  -13.4711   17.9121 C   0  0  0  0  0  0  0  0  0  0  0  0
    8.4075  -12.7472   16.6534 C   0  0  0  0  0  0  0  0  0  0  0  0
    8.6212  -13.5236   15.4534 N   0  0  0  0  0  0  0  0  0  0  0  0
    8.3023  -16.2303   21.5916 C   0  0  0  0  0  0  0  0  0  0  0  0
    7.2352  -16.5558   22.1714 O   0  0  0  0  0  0  0  0  0  0  0  0
   10.2863  -19.1798   22.5955 C   0  0  0  0  0  0  0  0  0  0  0  0
   10.6732  -18.1147   23.6092 C   0  0  1  0  0  0  0  0  0  0  0  0
   11.9001  -17.5773   23.2430 O   0  0  0  0  0  0  0  0  0  0  0  0
    9.6266  -17.0079   23.5818 C   0  0  2  0  0  0  0  0  0  0  0  0
    9.5256  -16.4302   22.2615 N   0  0  0  0  0  0  0  0  0  0  0  0
    9.9849  -15.9453   24.5546 C   0  0  0  0  0  0  0  0  0  0  0  0
   10.7160  -14.9776   24.2029 O   0  0  0  0  0  0  0  0  0  0  0  0
    6.1291  -12.1298   26.9361 C   0  0  0  0  0  0  0  0  0  0  0  0
    7.5791  -11.5850   27.8863 S   0  0  0  0  0  0  0  0  0  0  0  0
    8.8436  -12.8873   27.9464 C   0  0  0  0  0  0  0  0  0  0  0  0
    8.6338  -13.8860   26.8551 C   0  0  0  0  0  0  0  0  0  0  0  0
    9.7820  -14.8685   26.8214 C   0  0  2  0  0  0  0  0  0  0  0  0
    9.5387  -15.9557   25.8987 N   0  0  0  0  0  0  0  0  0  0  0  0
    9.9686  -15.4591   28.1740 C   0  0  0  0  0  0  0  0  0  0  0  0
    9.5838  -16.6353   28.4061 O   0  0  0  0  0  0  0  0  0  0  0  0
   10.5658  -14.7431   29.2126 O   0  0  0  0  0  0  0  0  0  0  0  0
  2  1  1  6
  3  2  1  0
  4  3  1  0
  5  6  1  0
  5  4  1  0
  7  6  1  0
  8  2  1  0
  8  9  2  0
 11 10  1  6
 11 13  1  0
 12 11  1  0
 13 14  1  6
 14  8  1  0
 15 13  1  0
 16 15  2  0
 18 19  1  0
 18 17  1  0
 19 20  1  0
 21 20  1  1
 21 23  1  0
 21 22  1  0
 22 15  1  0
 23 25  1  0
 24 23  2  0
M  END
$$$$
