KTM.pdb
     RDKit          3D

 25 24  0  0  1  0  0  0  0  0999 V2000
   10.6461  -19.6849   20.0055 N   0  0  0  0  0  0  0  0  0  0  0  0
   11.6239  -18.7210   20.3061 C   0  0  1  0  0  0  0  0  0  0  0  0
   12.6867  -18.5388   19.3105 C   0  0  0  0  0  0  0  0  0  0  0  0
   12.6149  -19.2336   18.0453 C   0  0  0  0  0  0  0  0  0  0  0  0
   12.0588  -18.6472   16.8434 C   0  0  0  0  0  0  0  0  0  0  0  0
   12.0385  -19.2734   15.5241 C   0  0  0  0  0  0  0  0  0  0  0  0
   11.4246  -18.4967   14.4714 N   0  0  0  0  0  0  0  0  0  0  0  0
   10.8983  -17.4263   20.5892 C   0  0  0  0  0  0  0  0  0  0  0  0
   11.2242  -16.3555   20.0163 O   0  0  0  0  0  0  0  0  0  0  0  0
    7.3923  -16.6649   20.0048 C   0  0  0  0  0  0  0  0  0  0  0  0
    7.5719  -16.4781   21.5030 C   0  0  1  0  0  0  0  0  0  0  0  0
    7.1847  -17.6463   22.1461 O   0  0  0  0  0  0  0  0  0  0  0  0
    9.0462  -16.2259   21.7927 C   0  0  2  0  0  0  0  0  0  0  0  0
    9.8331  -17.4043   21.5113 N   0  0  0  0  0  0  0  0  0  0  0  0
    9.2267  -15.8457   23.2163 C   0  0  0  0  0  0  0  0  0  0  0  0
   10.0450  -16.4724   23.9460 O   0  0  0  0  0  0  0  0  0  0  0  0
    5.6224  -11.1620   26.1919 C   0  0  0  0  0  0  0  0  0  0  0  0
    6.6687  -11.7156   27.5707 S   0  0  0  0  0  0  0  0  0  0  0  0
    7.6319  -13.1839   27.1070 C   0  0  0  0  0  0  0  0  0  0  0  0
    7.5903  -13.4051   25.6299 C   0  0  0  0  0  0  0  0  0  0  0  0
    8.4947  -14.5553   25.2507 C   0  0  2  0  0  0  0  0  0  0  0  0
    8.5096  -14.7855   23.8226 N   0  0  0  0  0  0  0  0  0  0  0  0
    8.0109  -15.8019   25.9026 C   0  0  0  0  0  0  0  0  0  0  0  0
    7.0010  -16.3999   25.4468 O   0  0  0  0  0  0  0  0  0  0  0  0
    8.6483  -16.3413   27.0210 O   0  0  0  0  0  0  0  0  0  0  0  0
  2  1  1  6
  3  2  1  0
  4  3  1  0
  5  6  1  0
  5  4  1  0
  7  6  1  0
  8  2  1  0
  8  9  2  0
 11 10  1  6
 11 13  1  0
 12 11  1  0
 13 14  1  1
 14  8  1  0
 15 13  1  0
 16 15  2  0
 18 19  1  0
 18 17  1  0
 19 20  1  0
 21 20  1  6
 21 23  1  0
 21 22  1  0
 22 15  1  0
 23 25  1  0
 24 23  2  0
M  END
$$$$
