DQC.pdb
     RDKit          3D

 24 23  0  0  1  0  0  0  0  0999 V2000
   19.5035  -23.3542  -12.3319 N   0  0  0  0  0  0  0  0  0  0  0  0
   18.5548  -22.8728  -11.3319 C   0  0  1  0  0  0  0  0  0  0  0  0
   17.3154  -22.4480  -12.0863 C   0  0  0  0  0  0  0  0  0  0  0  0
   17.5437  -21.1882  -12.8425 C   0  0  0  0  0  0  0  0  0  0  0  0
   16.6010  -20.5509  -13.3823 O   0  0  0  0  0  0  0  0  0  0  0  0
   18.2145  -24.0232  -10.4581 C   0  0  0  0  0  0  0  0  0  0  0  0
   17.2117  -23.9142   -9.6928 O   0  0  0  0  0  0  0  0  0  0  0  0
   18.8155  -20.6621  -12.9834 O   0  0  0  0  0  0  0  0  0  0  0  0
   21.1622  -29.8129  -10.2728 N   0  0  0  0  0  0  0  0  0  0  0  0
   20.2202  -29.3680  -11.2732 C   0  0  0  0  0  0  0  0  0  0  0  0
   20.2073  -30.0217  -12.3138 O   0  0  0  0  0  0  0  0  0  0  0  0
   19.3550  -28.2134  -11.0362 C   0  0  0  0  0  0  0  0  0  0  0  0
   19.4826  -27.5150   -9.7422 C   0  0  0  0  0  0  0  0  0  0  0  0
   18.6584  -26.3079   -9.5005 C   0  0  2  0  0  0  0  0  0  0  0  0
   18.9391  -25.2374  -10.4237 N   0  0  0  0  0  0  0  0  0  0  0  0
   18.5311  -25.8097   -8.1243 C   0  0  0  0  0  0  0  0  0  0  0  0
   19.0990  -24.7354   -7.7414 O   0  0  0  0  0  0  0  0  0  0  0  0
   17.7546  -26.4964   -7.1333 N   0  0  0  0  0  0  0  0  0  0  0  0
   17.4996  -26.0983   -5.8010 C   0  0  1  0  0  0  0  0  0  0  0  0
   17.0838  -24.6737   -5.5959 C   0  0  0  0  0  0  0  0  0  0  0  0
   16.6104  -24.4816   -3.8335 S   0  0  0  0  0  0  0  0  0  0  0  0
   16.6809  -27.0534   -4.9890 C   0  0  0  0  0  0  0  0  0  0  0  0
   16.8722  -27.1318   -3.6427 O   0  0  0  0  0  0  0  0  0  0  0  0
   15.8353  -27.7650   -5.5502 O   0  0  0  0  0  0  0  0  0  0  0  0
  2  1  1  6
  2  3  1  0
  4  3  1  0
  4  8  1  0
  5  4  2  0
  6  2  1  0
  7  6  2  0
  9 10  1  0
 10 12  1  0
 11 10  2  0
 12 13  1  0
 14 13  1  1
 14 15  1  0
 15  6  1  0
 16 14  1  0
 16 18  1  0
 17 16  2  0
 19 18  1  0
 19 22  1  0
 19 20  1  6
 20 21  1  0
 22 23  1  0
 24 22  2  0
M  END
$$$$
