DQC.pdb
     RDKit          3D

 24 23  0  0  1  0  0  0  0  0999 V2000
   15.7794  -11.3891  -15.1449 N   0  0  0  0  0  0  0  0  0  0  0  0
   17.1541  -11.1135  -14.7374 C   0  0  1  0  0  0  0  0  0  0  0  0
   17.9809  -11.0956  -16.0030 C   0  0  0  0  0  0  0  0  0  0  0  0
   18.2036  -12.4693  -16.5269 C   0  0  0  0  0  0  0  0  0  0  0  0
   18.4210  -13.4491  -15.7661 O   0  0  0  0  0  0  0  0  0  0  0  0
   17.1709   -9.7578  -14.1335 C   0  0  0  0  0  0  0  0  0  0  0  0
   16.4048   -8.8773  -14.6241 O   0  0  0  0  0  0  0  0  0  0  0  0
   18.1803  -12.7261  -17.8861 O   0  0  0  0  0  0  0  0  0  0  0  0
   15.3588   -7.9714   -8.8843 N   0  0  0  0  0  0  0  0  0  0  0  0
   16.1184   -6.8007   -9.2561 C   0  0  0  0  0  0  0  0  0  0  0  0
   15.9568   -5.8165   -8.5379 O   0  0  0  0  0  0  0  0  0  0  0  0
   17.0096   -6.8147  -10.4151 C   0  0  0  0  0  0  0  0  0  0  0  0
   17.1398   -8.0793  -11.1649 C   0  0  0  0  0  0  0  0  0  0  0  0
   17.9368   -8.0877  -12.4136 C   0  0  2  0  0  0  0  0  0  0  0  0
   17.9893   -9.3835  -13.0422 N   0  0  0  0  0  0  0  0  0  0  0  0
   19.2558   -7.4406  -12.4080 C   0  0  0  0  0  0  0  0  0  0  0  0
   20.3233   -8.0889  -12.1564 O   0  0  0  0  0  0  0  0  0  0  0  0
   19.4218   -6.0450  -12.6932 N   0  0  0  0  0  0  0  0  0  0  0  0
   20.6145   -5.3629  -13.0261 C   0  0  1  0  0  0  0  0  0  0  0  0
   21.4893   -6.0080  -14.0571 C   0  0  0  0  0  0  0  0  0  0  0  0
   23.0117   -4.9946  -14.2063 S   0  0  0  0  0  0  0  0  0  0  0  0
   20.4743   -3.8876  -13.2401 C   0  0  0  0  0  0  0  0  0  0  0  0
   21.5738   -3.0869  -13.1668 O   0  0  0  0  0  0  0  0  0  0  0  0
   19.3574   -3.4078  -13.4824 O   0  0  0  0  0  0  0  0  0  0  0  0
  2  1  1  6
  2  3  1  0
  4  3  1  0
  4  8  1  0
  5  4  2  0
  6  2  1  0
  7  6  2  0
  9 10  1  0
 10 12  1  0
 11 10  2  0
 12 13  1  0
 14 13  1  1
 14 15  1  0
 15  6  1  0
 16 14  1  0
 16 18  1  0
 17 16  2  0
 19 18  1  0
 19 22  1  0
 19 20  1  6
 20 21  1  0
 22 23  1  0
 24 22  2  0
M  END
$$$$
