DQC.pdb
     RDKit          3D

 24 23  0  0  1  0  0  0  0  0999 V2000
   20.9491  -13.2695  -16.0052 N   0  0  0  0  0  0  0  0  0  0  0  0
   21.0618  -12.1189  -16.8969 C   0  0  1  0  0  0  0  0  0  0  0  0
   19.6570  -11.6020  -17.1092 C   0  0  0  0  0  0  0  0  0  0  0  0
   18.8024  -12.6120  -17.7879 C   0  0  0  0  0  0  0  0  0  0  0  0
   19.1386  -13.1520  -18.8749 O   0  0  0  0  0  0  0  0  0  0  0  0
   21.8514  -11.0845  -16.1833 C   0  0  0  0  0  0  0  0  0  0  0  0
   21.4915  -10.7619  -15.0130 O   0  0  0  0  0  0  0  0  0  0  0  0
   17.5912  -13.0015  -17.2446 O   0  0  0  0  0  0  0  0  0  0  0  0
   28.0804  -10.1692  -16.4042 N   0  0  0  0  0  0  0  0  0  0  0  0
   27.2155  -11.2455  -15.9807 C   0  0  0  0  0  0  0  0  0  0  0  0
   27.7755  -12.3171  -15.7600 O   0  0  0  0  0  0  0  0  0  0  0  0
   25.7745  -11.0446  -15.8354 C   0  0  0  0  0  0  0  0  0  0  0  0
   25.2351   -9.7044  -16.1378 C   0  0  0  0  0  0  0  0  0  0  0  0
   23.7780   -9.4757  -15.9988 C   0  0  2  0  0  0  0  0  0  0  0  0
   22.9834  -10.4330  -16.7262 N   0  0  0  0  0  0  0  0  0  0  0  0
   23.2630   -8.1105  -16.1704 C   0  0  0  0  0  0  0  0  0  0  0  0
   23.0618   -7.6061  -17.3229 O   0  0  0  0  0  0  0  0  0  0  0  0
   22.9481   -7.2681  -15.0533 N   0  0  0  0  0  0  0  0  0  0  0  0
   22.4303   -5.9528  -15.0767 C   0  0  1  0  0  0  0  0  0  0  0  0
   21.3089   -5.6917  -16.0351 C   0  0  0  0  0  0  0  0  0  0  0  0
   19.8500   -6.6415  -15.4549 S   0  0  0  0  0  0  0  0  0  0  0  0
   22.1903   -5.3314  -13.7357 C   0  0  0  0  0  0  0  0  0  0  0  0
   22.2541   -6.1006  -12.6135 O   0  0  0  0  0  0  0  0  0  0  0  0
   21.9353   -4.1208  -13.6592 O   0  0  0  0  0  0  0  0  0  0  0  0
  2  1  1  1
  2  3  1  0
  4  3  1  0
  4  8  1  0
  5  4  2  0
  6  2  1  0
  7  6  2  0
  9 10  1  0
 10 12  1  0
 11 10  2  0
 12 13  1  0
 14 13  1  6
 14 15  1  0
 15  6  1  0
 16 14  1  0
 16 18  1  0
 17 16  2  0
 19 18  1  0
 19 22  1  0
 19 20  1  1
 20 21  1  0
 22 23  1  0
 24 22  2  0
M  END
$$$$
