DQC.pdb
     RDKit          3D

 24 23  0  0  1  0  0  0  0  0999 V2000
   26.8024  -19.5662  -16.9159 N   0  0  0  0  0  0  0  0  0  0  0  0
   25.5367  -20.0368  -17.4714 C   0  0  1  0  0  0  0  0  0  0  0  0
   25.8836  -21.1044  -18.4841 C   0  0  0  0  0  0  0  0  0  0  0  0
   26.7763  -20.5748  -19.5488 C   0  0  0  0  0  0  0  0  0  0  0  0
   27.2681  -21.3160  -20.4404 O   0  0  0  0  0  0  0  0  0  0  0  0
   24.7726  -20.6582  -16.3611 C   0  0  0  0  0  0  0  0  0  0  0  0
   23.9516  -21.5794  -16.6449 O   0  0  0  0  0  0  0  0  0  0  0  0
   27.1044  -19.2318  -19.6011 O   0  0  0  0  0  0  0  0  0  0  0  0
   26.2750  -21.6191  -10.2788 N   0  0  0  0  0  0  0  0  0  0  0  0
   24.9021  -21.1760  -10.2096 C   0  0  0  0  0  0  0  0  0  0  0  0
   24.4123  -21.1491   -9.0827 O   0  0  0  0  0  0  0  0  0  0  0  0
   24.1695  -20.7939  -11.4159 C   0  0  0  0  0  0  0  0  0  0  0  0
   24.7690  -21.1375  -12.7201 C   0  0  0  0  0  0  0  0  0  0  0  0
   24.0378  -20.7765  -13.9569 C   0  0  2  0  0  0  0  0  0  0  0  0
   24.9014  -20.2878  -15.0021 N   0  0  0  0  0  0  0  0  0  0  0  0
   22.8224  -19.9596  -13.8398 C   0  0  0  0  0  0  0  0  0  0  0  0
   22.8541  -18.6886  -13.9226 O   0  0  0  0  0  0  0  0  0  0  0  0
   21.5284  -20.5427  -13.6342 N   0  0  0  0  0  0  0  0  0  0  0  0
   20.2642  -19.9374  -13.8186 C   0  0  1  0  0  0  0  0  0  0  0  0
   19.9961  -19.3450  -15.1683 C   0  0  0  0  0  0  0  0  0  0  0  0
   18.3859  -18.4694  -15.0806 S   0  0  0  0  0  0  0  0  0  0  0  0
   19.0959  -20.7137  -13.2948 C   0  0  0  0  0  0  0  0  0  0  0  0
   18.9013  -21.9987  -13.7023 O   0  0  0  0  0  0  0  0  0  0  0  0
   18.3156  -20.1790  -12.4938 O   0  0  0  0  0  0  0  0  0  0  0  0
  2  1  1  1
  2  3  1  0
  4  3  1  0
  4  8  1  0
  5  4  2  0
  6  2  1  0
  7  6  2  0
  9 10  1  0
 10 12  1  0
 11 10  2  0
 12 13  1  0
 14 13  1  1
 14 15  1  0
 15  6  1  0
 16 14  1  0
 16 18  1  0
 17 16  2  0
 19 18  1  0
 19 22  1  0
 19 20  1  6
 20 21  1  0
 22 23  1  0
 24 22  2  0
M  END
$$$$
