DQC.pdb
     RDKit          3D

 24 23  0  0  1  0  0  0  0  0999 V2000
   20.6911  -12.7390  -17.6142 N   0  0  0  0  0  0  0  0  0  0  0  0
   21.3275  -11.6775  -18.3888 C   0  0  1  0  0  0  0  0  0  0  0  0
   20.2146  -10.9324  -19.0901 C   0  0  0  0  0  0  0  0  0  0  0  0
   19.5361  -11.7901  -20.0977 C   0  0  0  0  0  0  0  0  0  0  0  0
   18.3106  -12.0704  -20.0223 O   0  0  0  0  0  0  0  0  0  0  0  0
   21.9849  -10.7616  -17.4236 C   0  0  0  0  0  0  0  0  0  0  0  0
   21.3060  -10.3464  -16.4388 O   0  0  0  0  0  0  0  0  0  0  0  0
   20.2337  -12.3188  -21.1690 O   0  0  0  0  0  0  0  0  0  0  0  0
   28.2382  -10.5277  -16.1640 N   0  0  0  0  0  0  0  0  0  0  0  0
   27.2414  -11.5526  -15.9598 C   0  0  0  0  0  0  0  0  0  0  0  0
   27.6797  -12.6705  -15.6979 O   0  0  0  0  0  0  0  0  0  0  0  0
   25.8146  -11.2512  -16.0663 C   0  0  0  0  0  0  0  0  0  0  0  0
   25.4291   -9.8632  -16.3877 C   0  0  0  0  0  0  0  0  0  0  0  0
   23.9902   -9.5370  -16.5217 C   0  0  2  0  0  0  0  0  0  0  0  0
   23.3245  -10.3204  -17.5317 N   0  0  0  0  0  0  0  0  0  0  0  0
   23.5951   -8.1237  -16.5924 C   0  0  0  0  0  0  0  0  0  0  0  0
   23.9824   -7.3623  -17.5376 O   0  0  0  0  0  0  0  0  0  0  0  0
   22.7445   -7.5195  -15.6085 N   0  0  0  0  0  0  0  0  0  0  0  0
   22.3111   -6.1754  -15.5433 C   0  0  1  0  0  0  0  0  0  0  0  0
   21.0419   -5.8454  -16.2676 C   0  0  0  0  0  0  0  0  0  0  0  0
   20.7245   -4.0522  -16.0430 S   0  0  0  0  0  0  0  0  0  0  0  0
   22.3743   -5.5435  -14.1874 C   0  0  0  0  0  0  0  0  0  0  0  0
   22.3937   -4.1862  -14.0749 O   0  0  0  0  0  0  0  0  0  0  0  0
   22.4085   -6.2623  -13.1782 O   0  0  0  0  0  0  0  0  0  0  0  0
  2  1  1  1
  2  3  1  0
  4  3  1  0
  4  8  1  0
  5  4  2  0
  6  2  1  0
  7  6  2  0
  9 10  1  0
 10 12  1  0
 11 10  2  0
 12 13  1  0
 14 13  1  6
 14 15  1  0
 15  6  1  0
 16 14  1  0
 16 18  1  0
 17 16  2  0
 19 18  1  0
 19 22  1  0
 19 20  1  1
 20 21  1  0
 22 23  1  0
 24 22  2  0
M  END
$$$$
