DQC.pdb
     RDKit          3D

 24 23  0  0  1  0  0  0  0  0999 V2000
   13.8891   -3.8481  -15.5479 N   0  0  0  0  0  0  0  0  0  0  0  0
   15.3138   -3.5293  -15.5271 C   0  0  1  0  0  0  0  0  0  0  0  0
   15.4802   -2.3723  -14.5683 C   0  0  0  0  0  0  0  0  0  0  0  0
   15.6392   -1.0836  -15.2929 C   0  0  0  0  0  0  0  0  0  0  0  0
   15.6768   -1.0226  -16.5503 O   0  0  0  0  0  0  0  0  0  0  0  0
   16.0220   -4.7129  -14.9790 C   0  0  0  0  0  0  0  0  0  0  0  0
   15.4374   -5.3978  -14.0889 O   0  0  0  0  0  0  0  0  0  0  0  0
   15.7532    0.1113  -14.6051 O   0  0  0  0  0  0  0  0  0  0  0  0
   15.8795  -10.1393  -15.0068 N   0  0  0  0  0  0  0  0  0  0  0  0
   16.0891   -9.4047  -16.2325 C   0  0  0  0  0  0  0  0  0  0  0  0
   15.7228   -9.9740  -17.2583 O   0  0  0  0  0  0  0  0  0  0  0  0
   16.7002   -8.0765  -16.2225 C   0  0  0  0  0  0  0  0  0  0  0  0
   17.0884   -7.5100  -14.9160 C   0  0  0  0  0  0  0  0  0  0  0  0
   17.9619   -6.3137  -14.8901 C   0  0  2  0  0  0  0  0  0  0  0  0
   17.3113   -5.1276  -15.3869 N   0  0  0  0  0  0  0  0  0  0  0  0
   19.3302   -6.4331  -15.4116 C   0  0  0  0  0  0  0  0  0  0  0  0
   19.5885   -6.3332  -16.6552 O   0  0  0  0  0  0  0  0  0  0  0  0
   20.4564   -6.6603  -14.5533 N   0  0  0  0  0  0  0  0  0  0  0  0
   21.8168   -6.7787  -14.9192 C   0  0  1  0  0  0  0  0  0  0  0  0
   22.8248   -6.5264  -13.8400 C   0  0  0  0  0  0  0  0  0  0  0  0
   22.4087   -4.9205  -13.0559 S   0  0  0  0  0  0  0  0  0  0  0  0
   22.1585   -7.9772  -15.7491 C   0  0  0  0  0  0  0  0  0  0  0  0
   23.1898   -7.9127  -16.6365 O   0  0  0  0  0  0  0  0  0  0  0  0
   21.4987   -9.0187  -15.6208 O   0  0  0  0  0  0  0  0  0  0  0  0
  2  1  1  1
  2  3  1  0
  4  3  1  0
  4  8  1  0
  5  4  2  0
  6  2  1  0
  7  6  2  0
  9 10  1  0
 10 12  1  0
 11 10  2  0
 12 13  1  0
 14 13  1  6
 14 15  1  0
 15  6  1  0
 16 14  1  0
 16 18  1  0
 17 16  2  0
 19 18  1  0
 19 22  1  0
 19 20  1  1
 20 21  1  0
 22 23  1  0
 24 22  2  0
M  END
$$$$
