DQC.pdb
     RDKit          3D

 24 23  0  0  1  0  0  0  0  0999 V2000
   20.9609  -13.9248  -15.6094 N   0  0  0  0  0  0  0  0  0  0  0  0
   21.0244  -12.8459  -16.5912 C   0  0  1  0  0  0  0  0  0  0  0  0
   19.5998  -12.4000  -16.8307 C   0  0  0  0  0  0  0  0  0  0  0  0
   18.7851  -13.4848  -17.4394 C   0  0  0  0  0  0  0  0  0  0  0  0
   17.5587  -13.6227  -17.1882 O   0  0  0  0  0  0  0  0  0  0  0  0
   21.7792  -11.7292  -15.9700 C   0  0  0  0  0  0  0  0  0  0  0  0
   21.4157  -11.3280  -14.8254 O   0  0  0  0  0  0  0  0  0  0  0  0
   19.3502  -14.3945  -18.3153 O   0  0  0  0  0  0  0  0  0  0  0  0
   27.9299  -10.8841  -16.1236 N   0  0  0  0  0  0  0  0  0  0  0  0
   27.0399  -11.8235  -15.4823 C   0  0  0  0  0  0  0  0  0  0  0  0
   27.5743  -12.8356  -15.0343 O   0  0  0  0  0  0  0  0  0  0  0  0
   25.6043  -11.5620  -15.3894 C   0  0  0  0  0  0  0  0  0  0  0  0
   25.1014  -10.2908  -15.9459 C   0  0  0  0  0  0  0  0  0  0  0  0
   23.6419  -10.0371  -15.9351 C   0  0  2  0  0  0  0  0  0  0  0  0
   22.8817  -11.0813  -16.5745 N   0  0  0  0  0  0  0  0  0  0  0  0
   23.1587   -8.7059  -16.3260 C   0  0  0  0  0  0  0  0  0  0  0  0
   22.8887   -8.4157  -17.5368 O   0  0  0  0  0  0  0  0  0  0  0  0
   22.9539   -7.6575  -15.3691 N   0  0  0  0  0  0  0  0  0  0  0  0
   22.4488   -6.3575  -15.6004 C   0  0  1  0  0  0  0  0  0  0  0  0
   21.2453   -6.2548  -16.4866 C   0  0  0  0  0  0  0  0  0  0  0  0
   20.8197   -4.4766  -16.6414 S   0  0  0  0  0  0  0  0  0  0  0  0
   22.3409   -5.4837  -14.3893 C   0  0  0  0  0  0  0  0  0  0  0  0
   22.1194   -4.1480  -14.5377 O   0  0  0  0  0  0  0  0  0  0  0  0
   22.4543   -5.9846  -13.2612 O   0  0  0  0  0  0  0  0  0  0  0  0
  2  1  1  1
  2  3  1  0
  4  3  1  0
  4  8  1  0
  5  4  2  0
  6  2  1  0
  7  6  2  0
  9 10  1  0
 10 12  1  0
 11 10  2  0
 12 13  1  0
 14 13  1  6
 14 15  1  0
 15  6  1  0
 16 14  1  0
 16 18  1  0
 17 16  2  0
 19 18  1  0
 19 22  1  0
 19 20  1  1
 20 21  1  0
 22 23  1  0
 24 22  2  0
M  END
$$$$
