MVV.pdb
     RDKit          3D

 23 22  0  0  1  0  0  0  0  0999 V2000
    6.4804  -11.1382   26.9302 C   0  0  0  0  0  0  0  0  0  0  0  0
    4.9193  -11.9583   27.3456 S   0  0  0  0  0  0  0  0  0  0  0  0
    4.6438  -13.4331   26.3395 C   0  0  0  0  0  0  0  0  0  0  0  0
    5.8965  -14.2292   26.1104 C   0  0  0  0  0  0  0  0  0  0  0  0
    5.6835  -15.3713   25.1347 C   0  0  2  0  0  0  0  0  0  0  0  0
    4.7337  -16.2632   25.6903 N   0  0  0  0  0  0  0  0  0  0  0  0
    6.9118  -15.9368   24.6047 C   0  0  0  0  0  0  0  0  0  0  0  0
    7.3105  -17.0351   25.1201 O   0  0  0  0  0  0  0  0  0  0  0  0
    8.2764  -14.9217   20.9018 C   0  0  0  0  0  0  0  0  0  0  0  0
    9.3747  -15.0136   21.9116 C   0  0  1  0  0  0  0  0  0  0  0  0
    9.6144  -13.6238   22.4599 C   0  0  0  0  0  0  0  0  0  0  0  0
    8.9372  -15.8937   23.0648 C   0  0  2  0  0  0  0  0  0  0  0  0
    7.6628  -15.3600   23.5898 N   0  0  0  0  0  0  0  0  0  0  0  0
    9.9648  -15.8106   24.1241 C   0  0  0  0  0  0  0  0  0  0  0  0
   11.1850  -16.1081   23.8164 O   0  0  0  0  0  0  0  0  0  0  0  0
   11.4775  -14.4656   28.6613 C   0  0  0  0  0  0  0  0  0  0  0  0
   10.4000  -14.6235   27.6307 C   0  0  1  0  0  0  0  0  0  0  0  0
    9.8121  -13.2997   27.2709 C   0  0  0  0  0  0  0  0  0  0  0  0
   10.9118  -15.3788   26.4094 C   0  0  2  0  0  0  0  0  0  0  0  0
    9.7728  -15.4309   25.4673 N   0  0  0  0  0  0  0  0  0  0  0  0
   11.3116  -16.7269   26.8567 C   0  0  0  0  0  0  0  0  0  0  0  0
   10.4981  -17.6751   27.0028 O   0  0  0  0  0  0  0  0  0  0  0  0
   12.6419  -16.9707   27.1302 O   0  0  0  0  0  0  0  0  0  0  0  0
  1  2  1  0
  3  2  1  0
  4  3  1  0
  5  6  1  1
  5  4  1  0
  7  5  1  0
  7 13  1  0
  8  7  2  0
 10  9  1  6
 10 12  1  0
 11 10  1  0
 12 13  1  1
 12 14  1  0
 14 20  1  0
 15 14  2  0
 17 19  1  0
 17 16  1  1
 18 17  1  0
 19 21  1  0
 19 20  1  6
 21 22  2  0
 21 23  1  0
M  END
$$$$
