MVV.pdb
     RDKit          3D

 23 22  0  0  1  0  0  0  0  0999 V2000
    7.2143  -21.6367   25.6399 C   0  0  0  0  0  0  0  0  0  0  0  0
    5.6644  -21.4155   24.7284 S   0  0  0  0  0  0  0  0  0  0  0  0
    5.7365  -19.9992   23.6094 C   0  0  0  0  0  0  0  0  0  0  0  0
    6.4089  -18.8030   24.2199 C   0  0  0  0  0  0  0  0  0  0  0  0
    6.4864  -17.6320   23.2584 C   0  0  2  0  0  0  0  0  0  0  0  0
    6.7457  -18.1354   21.9601 N   0  0  0  0  0  0  0  0  0  0  0  0
    7.3042  -16.5286   23.7308 C   0  0  0  0  0  0  0  0  0  0  0  0
    8.5522  -16.5806   23.4649 O   0  0  0  0  0  0  0  0  0  0  0  0
    5.8441  -13.8554   26.6331 C   0  0  0  0  0  0  0  0  0  0  0  0
    6.7085  -13.2916   25.5518 C   0  0  1  0  0  0  0  0  0  0  0  0
    7.5615  -12.2022   26.1643 C   0  0  0  0  0  0  0  0  0  0  0  0
    7.6403  -14.3660   25.0292 C   0  0  2  0  0  0  0  0  0  0  0  0
    6.8144  -15.4426   24.4431 N   0  0  0  0  0  0  0  0  0  0  0  0
    8.4008  -14.9132   26.1725 C   0  0  0  0  0  0  0  0  0  0  0  0
    7.8008  -15.7393   26.9661 O   0  0  0  0  0  0  0  0  0  0  0  0
   12.7387  -16.1247   28.1963 C   0  0  0  0  0  0  0  0  0  0  0  0
   11.8992  -15.4508   27.1526 C   0  0  1  0  0  0  0  0  0  0  0  0
   12.1023  -16.0858   25.8174 C   0  0  0  0  0  0  0  0  0  0  0  0
   10.4306  -15.4220   27.5606 C   0  0  2  0  0  0  0  0  0  0  0  0
    9.7411  -14.6407   26.5111 N   0  0  0  0  0  0  0  0  0  0  0  0
   10.3484  -14.7593   28.8764 C   0  0  0  0  0  0  0  0  0  0  0  0
   10.5373  -15.3605   29.9650 O   0  0  0  0  0  0  0  0  0  0  0  0
   10.0512  -13.4128   28.9266 O   0  0  0  0  0  0  0  0  0  0  0  0
  1  2  1  0
  3  2  1  0
  4  3  1  0
  5  6  1  6
  5  4  1  0
  7  5  1  0
  7 13  1  0
  8  7  2  0
 10  9  1  1
 10 12  1  0
 11 10  1  0
 12 13  1  1
 12 14  1  0
 14 20  1  0
 15 14  2  0
 17 19  1  0
 17 16  1  1
 18 17  1  0
 19 21  1  0
 19 20  1  6
 21 22  2  0
 21 23  1  0
M  END
$$$$
