MVV.pdb
     RDKit          3D

 23 22  0  0  1  0  0  0  0  0999 V2000
    6.1707  -11.5183   25.6787 C   0  0  0  0  0  0  0  0  0  0  0  0
    4.6760  -12.4163   26.1700 S   0  0  0  0  0  0  0  0  0  0  0  0
    4.7080  -14.1346   25.6133 C   0  0  0  0  0  0  0  0  0  0  0  0
    6.0529  -14.7812   25.7833 C   0  0  0  0  0  0  0  0  0  0  0  0
    6.1314  -16.1358   25.1046 C   0  0  2  0  0  0  0  0  0  0  0  0
    5.3331  -17.0494   25.8356 N   0  0  0  0  0  0  0  0  0  0  0  0
    7.4792  -16.5472   24.7535 C   0  0  0  0  0  0  0  0  0  0  0  0
    7.9358  -17.5864   25.3386 O   0  0  0  0  0  0  0  0  0  0  0  0
   10.1707  -14.0618   22.6682 C   0  0  0  0  0  0  0  0  0  0  0  0
   10.0306  -15.4772   22.2088 C   0  0  1  0  0  0  0  0  0  0  0  0
   11.3931  -15.9504   21.7509 C   0  0  0  0  0  0  0  0  0  0  0  0
    9.6063  -16.3527   23.3704 C   0  0  2  0  0  0  0  0  0  0  0  0
    8.2838  -15.8853   23.8363 N   0  0  0  0  0  0  0  0  0  0  0  0
   10.5882  -16.1792   24.4615 C   0  0  0  0  0  0  0  0  0  0  0  0
   11.8288  -16.4489   24.2158 O   0  0  0  0  0  0  0  0  0  0  0  0
   10.6033  -13.3684   27.2766 C   0  0  0  0  0  0  0  0  0  0  0  0
   10.9235  -14.7141   27.8549 C   0  0  1  0  0  0  0  0  0  0  0  0
    9.7553  -15.2601   28.6063 C   0  0  0  0  0  0  0  0  0  0  0  0
   11.4164  -15.6738   26.7777 C   0  0  2  0  0  0  0  0  0  0  0  0
   10.3313  -15.7379   25.7747 N   0  0  0  0  0  0  0  0  0  0  0  0
   11.6436  -16.9828   27.4198 C   0  0  0  0  0  0  0  0  0  0  0  0
   10.8433  -17.9481   27.3211 O   0  0  0  0  0  0  0  0  0  0  0  0
   12.7886  -17.1682   28.1672 O   0  0  0  0  0  0  0  0  0  0  0  0
  1  2  1  0
  3  2  1  0
  4  3  1  0
  5  6  1  1
  5  4  1  0
  7  5  1  0
  7 13  1  0
  8  7  2  0
 10  9  1  1
 10 12  1  0
 11 10  1  0
 12 13  1  1
 12 14  1  0
 14 20  1  0
 15 14  2  0
 17 19  1  0
 17 16  1  6
 18 17  1  0
 19 21  1  0
 19 20  1  6
 21 22  2  0
 21 23  1  0
M  END
$$$$
