MVV.pdb
     RDKit          3D

 23 22  0  0  1  0  0  0  0  0999 V2000
   14.0497  -15.9043   21.9181 C   0  0  0  0  0  0  0  0  0  0  0  0
   14.0775  -17.1200   20.5752 S   0  0  0  0  0  0  0  0  0  0  0  0
   12.5912  -18.1466   20.5640 C   0  0  0  0  0  0  0  0  0  0  0  0
   11.4380  -17.5169   21.2916 C   0  0  0  0  0  0  0  0  0  0  0  0
   10.2381  -18.4412   21.3801 C   0  0  2  0  0  0  0  0  0  0  0  0
   10.0626  -19.0681   20.1221 N   0  0  0  0  0  0  0  0  0  0  0  0
    9.0718  -17.8424   22.0050 C   0  0  0  0  0  0  0  0  0  0  0  0
    8.1841  -17.3585   21.2249 O   0  0  0  0  0  0  0  0  0  0  0  0
    6.5021  -19.3109   24.1775 C   0  0  0  0  0  0  0  0  0  0  0  0
    7.1006  -18.1945   24.9710 C   0  0  1  0  0  0  0  0  0  0  0  0
    8.2300  -18.7699   25.7975 C   0  0  0  0  0  0  0  0  0  0  0  0
    7.6956  -17.1626   24.0346 C   0  0  2  0  0  0  0  0  0  0  0  0
    8.8731  -17.7669   23.3767 N   0  0  0  0  0  0  0  0  0  0  0  0
    8.1380  -16.0069   24.8428 C   0  0  0  0  0  0  0  0  0  0  0  0
    9.3924  -15.9161   25.1437 O   0  0  0  0  0  0  0  0  0  0  0  0
    7.2350  -11.7763   27.3110 C   0  0  0  0  0  0  0  0  0  0  0  0
    6.7875  -12.8971   26.4214 C   0  0  1  0  0  0  0  0  0  0  0  0
    6.1686  -12.3672   25.1710 C   0  0  0  0  0  0  0  0  0  0  0  0
    7.9314  -13.8633   26.1345 C   0  0  2  0  0  0  0  0  0  0  0  0
    7.3374  -14.9578   25.3364 N   0  0  0  0  0  0  0  0  0  0  0  0
    8.4388  -14.3482   27.4325 C   0  0  0  0  0  0  0  0  0  0  0  0
    9.2625  -13.7072   28.1346 O   0  0  0  0  0  0  0  0  0  0  0  0
    7.9933  -15.5638   27.9097 O   0  0  0  0  0  0  0  0  0  0  0  0
  1  2  1  0
  3  2  1  0
  4  3  1  0
  5  6  1  6
  5  4  1  0
  7  5  1  0
  7 13  1  0
  8  7  2  0
 10  9  1  6
 10 12  1  0
 11 10  1  0
 12 13  1  1
 12 14  1  0
 14 20  1  0
 15 14  2  0
 17 19  1  0
 17 16  1  1
 18 17  1  0
 19 21  1  0
 19 20  1  6
 21 22  2  0
 21 23  1  0
M  END
$$$$
