MVV.pdb
     RDKit          3D

 23 22  0  0  1  0  0  0  0  0999 V2000
    5.2580  -12.1378   25.0565 C   0  0  0  0  0  0  0  0  0  0  0  0
    6.2349  -13.6540   25.2278 S   0  0  0  0  0  0  0  0  0  0  0  0
    5.2224  -15.0519   25.7606 C   0  0  0  0  0  0  0  0  0  0  0  0
    6.0241  -16.2990   26.0009 C   0  0  0  0  0  0  0  0  0  0  0  0
    6.4095  -16.9945   24.7088 C   0  0  2  0  0  0  0  0  0  0  0  0
    5.6137  -18.1583   24.5726 N   0  0  0  0  0  0  0  0  0  0  0  0
    7.8420  -17.1288   24.5109 C   0  0  0  0  0  0  0  0  0  0  0  0
    8.3673  -18.2457   24.8384 O   0  0  0  0  0  0  0  0  0  0  0  0
   11.9599  -15.2428   22.4646 C   0  0  0  0  0  0  0  0  0  0  0  0
   10.4973  -15.1551   22.7602 C   0  0  1  0  0  0  0  0  0  0  0  0
    9.7508  -15.3622   21.4603 C   0  0  0  0  0  0  0  0  0  0  0  0
   10.0979  -16.2722   23.7027 C   0  0  2  0  0  0  0  0  0  0  0  0
    8.6564  -16.1291   23.9969 N   0  0  0  0  0  0  0  0  0  0  0  0
   10.8618  -16.1121   24.9579 C   0  0  0  0  0  0  0  0  0  0  0  0
   12.1503  -16.2089   24.9056 O   0  0  0  0  0  0  0  0  0  0  0  0
   10.3202  -13.4407   27.6378 C   0  0  0  0  0  0  0  0  0  0  0  0
   10.5820  -14.7368   28.3447 C   0  0  1  0  0  0  0  0  0  0  0  0
    9.3307  -15.2665   28.9618 C   0  0  0  0  0  0  0  0  0  0  0  0
   11.2398  -15.7492   27.4138 C   0  0  2  0  0  0  0  0  0  0  0  0
   10.3431  -15.8543   26.2423 N   0  0  0  0  0  0  0  0  0  0  0  0
   11.3345  -17.0277   28.1445 C   0  0  0  0  0  0  0  0  0  0  0  0
   10.5746  -18.0058   27.9255 O   0  0  0  0  0  0  0  0  0  0  0  0
   12.3023  -17.1683   29.1180 O   0  0  0  0  0  0  0  0  0  0  0  0
  1  2  1  0
  3  2  1  0
  4  3  1  0
  5  6  1  1
  5  4  1  0
  7  5  1  0
  7 13  1  0
  8  7  2  0
 10  9  1  6
 10 12  1  0
 11 10  1  0
 12 13  1  1
 12 14  1  0
 14 20  1  0
 15 14  2  0
 17 19  1  0
 17 16  1  6
 18 17  1  0
 19 21  1  0
 19 20  1  6
 21 22  2  0
 21 23  1  0
M  END
$$$$
