MVV.pdb
     RDKit          3D

 23 22  0  0  1  0  0  0  0  0999 V2000
    2.3033  -18.0066   22.5797 C   0  0  0  0  0  0  0  0  0  0  0  0
    3.3947  -18.9566   21.4894 S   0  0  0  0  0  0  0  0  0  0  0  0
    4.9430  -18.0861   21.1603 C   0  0  0  0  0  0  0  0  0  0  0  0
    5.4604  -17.3375   22.3552 C   0  0  0  0  0  0  0  0  0  0  0  0
    6.2042  -16.0737   21.9661 C   0  0  2  0  0  0  0  0  0  0  0  0
    6.5996  -16.1866   20.6107 N   0  0  0  0  0  0  0  0  0  0  0  0
    7.2067  -15.6540   22.9295 C   0  0  0  0  0  0  0  0  0  0  0  0
    8.4002  -16.0652   22.7362 O   0  0  0  0  0  0  0  0  0  0  0  0
    6.1278  -14.0339   26.6051 C   0  0  0  0  0  0  0  0  0  0  0  0
    7.2836  -13.3765   25.9225 C   0  0  1  0  0  0  0  0  0  0  0  0
    8.2886  -12.9907   26.9860 C   0  0  0  0  0  0  0  0  0  0  0  0
    7.9565  -14.3637   24.9906 C   0  0  2  0  0  0  0  0  0  0  0  0
    6.9443  -14.8476   24.0284 N   0  0  0  0  0  0  0  0  0  0  0  0
    8.4365  -15.5057   25.7970 C   0  0  0  0  0  0  0  0  0  0  0  0
    7.5618  -16.3405   26.2555 O   0  0  0  0  0  0  0  0  0  0  0  0
   11.9101  -18.8326   26.6793 C   0  0  0  0  0  0  0  0  0  0  0  0
   11.3665  -17.5891   26.0420 C   0  0  1  0  0  0  0  0  0  0  0  0
   11.1270  -17.8012   24.5843 C   0  0  0  0  0  0  0  0  0  0  0  0
   10.1179  -17.0989   26.7667 C   0  0  2  0  0  0  0  0  0  0  0  0
    9.7709  -15.8082   26.1333 N   0  0  0  0  0  0  0  0  0  0  0  0
   10.4682  -16.9312   28.1902 C   0  0  0  0  0  0  0  0  0  0  0  0
   10.9107  -15.8560   28.6700 O   0  0  0  0  0  0  0  0  0  0  0  0
   10.3049  -18.0006   29.0468 O   0  0  0  0  0  0  0  0  0  0  0  0
  1  2  1  0
  3  2  1  0
  4  3  1  0
  5  6  1  6
  5  4  1  0
  7  5  1  0
  7 13  1  0
  8  7  2  0
 10  9  1  1
 10 12  1  0
 11 10  1  0
 12 13  1  6
 12 14  1  0
 14 20  1  0
 15 14  2  0
 17 19  1  0
 17 16  1  1
 18 17  1  0
 19 21  1  0
 19 20  1  6
 21 22  2  0
 21 23  1  0
M  END
$$$$
