MVV.pdb
     RDKit          3D

 23 22  0  0  1  0  0  0  0  0999 V2000
    8.6760  -17.5870   28.1396 C   0  0  0  0  0  0  0  0  0  0  0  0
    6.9394  -18.0371   28.3920 S   0  0  0  0  0  0  0  0  0  0  0  0
    6.0486  -18.1914   26.8280 C   0  0  0  0  0  0  0  0  0  0  0  0
    6.9622  -18.3271   25.6436 C   0  0  0  0  0  0  0  0  0  0  0  0
    6.2091  -18.2897   24.3272 C   0  0  2  0  0  0  0  0  0  0  0  0
    5.4524  -19.4814   24.2105 N   0  0  0  0  0  0  0  0  0  0  0  0
    7.0196  -17.8901   23.1902 C   0  0  0  0  0  0  0  0  0  0  0  0
    7.3313  -18.8040   22.3546 O   0  0  0  0  0  0  0  0  0  0  0  0
    6.6498  -14.8625   20.8776 C   0  0  0  0  0  0  0  0  0  0  0  0
    8.0424  -14.8229   21.4193 C   0  0  1  0  0  0  0  0  0  0  0  0
    8.0500  -13.8804   22.6031 C   0  0  0  0  0  0  0  0  0  0  0  0
    8.4348  -16.1969   21.9230 C   0  0  2  0  0  0  0  0  0  0  0  0
    7.4670  -16.5952   22.9667 N   0  0  0  0  0  0  0  0  0  0  0  0
    9.7799  -16.0997   22.5280 C   0  0  0  0  0  0  0  0  0  0  0  0
    9.9146  -15.4038   23.6096 O   0  0  0  0  0  0  0  0  0  0  0  0
   11.6446  -18.5526   24.2528 C   0  0  0  0  0  0  0  0  0  0  0  0
   12.5910  -18.0128   23.2227 C   0  0  1  0  0  0  0  0  0  0  0  0
   12.6632  -18.9213   22.0409 C   0  0  0  0  0  0  0  0  0  0  0  0
   12.2248  -16.5854   22.8320 C   0  0  2  0  0  0  0  0  0  0  0  0
   10.9683  -16.6941   22.0594 N   0  0  0  0  0  0  0  0  0  0  0  0
   13.3275  -16.0542   22.0079 C   0  0  0  0  0  0  0  0  0  0  0  0
   14.4428  -15.7170   22.4818 O   0  0  0  0  0  0  0  0  0  0  0  0
   13.1367  -15.9173   20.6482 O   0  0  0  0  0  0  0  0  0  0  0  0
  1  2  1  0
  3  2  1  0
  4  3  1  0
  5  6  1  6
  5  4  1  0
  7  5  1  0
  7 13  1  0
  8  7  2  0
 10  9  1  1
 10 12  1  0
 11 10  1  0
 12 13  1  1
 12 14  1  0
 14 20  1  0
 15 14  2  0
 17 19  1  0
 17 16  1  1
 18 17  1  0
 19 21  1  0
 19 20  1  6
 21 22  2  0
 21 23  1  0
M  END
$$$$
