LAK.pdb
     RDKit          3D

 23 22  0  0  1  0  0  0  0  0999 V2000
    5.2149  -17.8947   16.5007 C   0  0  0  0  0  0  0  0  0  0  0  0
    6.2348  -18.8598   17.0214 C   0  0  2  0  0  0  0  0  0  0  0  0
    5.6556  -20.1916   17.4226 C   0  0  0  0  0  0  0  0  0  0  0  0
    6.9819  -18.1960   18.1579 C   0  0  0  0  0  0  0  0  0  0  0  0
    7.5434  -16.8909   17.6373 C   0  0  2  0  0  0  0  0  0  0  0  0
    8.4045  -17.1585   16.5151 N   0  0  0  0  0  0  0  0  0  0  0  0
    8.2736  -16.1554   18.7211 C   0  0  0  0  0  0  0  0  0  0  0  0
    9.4082  -16.5090   19.1115 O   0  0  0  0  0  0  0  0  0  0  0  0
    7.2626  -13.1746   20.8802 C   0  0  0  0  0  0  0  0  0  0  0  0
    8.1991  -14.2827   20.4054 C   0  0  2  0  0  0  0  0  0  0  0  0
    7.6548  -15.0266   19.3173 N   0  0  0  0  0  0  0  0  0  0  0  0
    8.4733  -15.1373   21.6007 C   0  0  0  0  0  0  0  0  0  0  0  0
    7.5599  -15.8695   22.0609 O   0  0  0  0  0  0  0  0  0  0  0  0
    9.7203  -15.1665   22.2496 N   0  0  0  0  0  0  0  0  0  0  0  0
   10.0558  -16.0563   23.3446 C   0  0  1  0  0  0  0  0  0  0  0  0
   11.1115  -16.9970   22.8324 C   0  0  0  0  0  0  0  0  0  0  0  0
   10.7064  -18.4167   22.7524 C   0  0  0  0  0  0  0  0  0  0  0  0
   11.6962  -19.3861   22.2236 C   0  0  0  0  0  0  0  0  0  0  0  0
   11.2245  -20.8113   22.1342 C   0  0  0  0  0  0  0  0  0  0  0  0
   12.2598  -21.7245   21.7106 N   0  0  0  0  0  0  0  0  0  0  0  0
   10.4872  -15.2517   24.4846 C   0  0  0  0  0  0  0  0  0  0  0  0
   10.4739  -15.6884   25.8025 O   0  0  0  0  0  0  0  0  0  0  0  0
   10.9050  -14.0813   24.3032 O   0  0  0  0  0  0  0  0  0  0  0  0
  2  1  1  1
  2  3  1  0
  4  2  1  0
  5  4  1  0
  5  7  1  0
  5  6  1  6
  7  8  2  0
  7 11  1  0
 10  9  1  1
 11 10  1  0
 12 10  1  0
 12 14  1  0
 13 12  2  0
 15 14  1  0
 15 21  1  0
 15 16  1  6
 17 18  1  0
 17 16  1  0
 19 18  1  0
 20 19  1  0
 21 22  1  0
 23 21  2  0
M  END
$$$$
