LAK.pdb
     RDKit          3D

 23 22  0  0  1  0  0  0  0  0999 V2000
    5.5948  -12.9699   27.1872 C   0  0  0  0  0  0  0  0  0  0  0  0
    7.0243  -12.7203   26.8172 C   0  0  2  0  0  0  0  0  0  0  0  0
    7.2569  -11.3739   26.1823 C   0  0  0  0  0  0  0  0  0  0  0  0
    7.4931  -13.8567   25.9345 C   0  0  0  0  0  0  0  0  0  0  0  0
    7.3051  -15.1446   26.7063 C   0  0  2  0  0  0  0  0  0  0  0  0
    8.0436  -15.0710   27.9399 N   0  0  0  0  0  0  0  0  0  0  0  0
    7.7322  -16.3246   25.8853 C   0  0  0  0  0  0  0  0  0  0  0  0
    8.8939  -16.7847   25.9432 O   0  0  0  0  0  0  0  0  0  0  0  0
    5.8234  -18.5289   23.4229 C   0  0  0  0  0  0  0  0  0  0  0  0
    7.0666  -18.0333   24.1570 C   0  0  2  0  0  0  0  0  0  0  0  0
    6.7870  -16.9327   25.0197 N   0  0  0  0  0  0  0  0  0  0  0  0
    8.0660  -17.6903   23.0998 C   0  0  0  0  0  0  0  0  0  0  0  0
    8.4270  -18.5728   22.2795 O   0  0  0  0  0  0  0  0  0  0  0  0
    8.6342  -16.4105   22.9714 N   0  0  0  0  0  0  0  0  0  0  0  0
    9.6175  -16.0452   21.9700 C   0  0  1  0  0  0  0  0  0  0  0  0
    9.1430  -14.7637   21.3420 C   0  0  0  0  0  0  0  0  0  0  0  0
    8.6950  -14.8775   19.9376 C   0  0  0  0  0  0  0  0  0  0  0  0
    8.3959  -13.6223   19.2068 C   0  0  0  0  0  0  0  0  0  0  0  0
    7.7814  -13.7951   17.8451 C   0  0  0  0  0  0  0  0  0  0  0  0
    7.3719  -12.5465   17.2465 N   0  0  0  0  0  0  0  0  0  0  0  0
   10.9230  -15.9362   22.6156 C   0  0  0  0  0  0  0  0  0  0  0  0
   11.1565  -16.1903   23.9605 O   0  0  0  0  0  0  0  0  0  0  0  0
   11.9273  -15.5925   21.9443 O   0  0  0  0  0  0  0  0  0  0  0  0
  2  1  1  6
  2  3  1  0
  4  2  1  0
  5  4  1  0
  5  7  1  0
  5  6  1  1
  7  8  2  0
  7 11  1  0
 10  9  1  6
 11 10  1  0
 12 10  1  0
 12 14  1  0
 13 12  2  0
 15 14  1  0
 15 21  1  0
 15 16  1  1
 17 18  1  0
 17 16  1  0
 19 18  1  0
 20 19  1  0
 21 22  1  0
 23 21  2  0
M  END
$$$$
