LAK.pdb
     RDKit          3D

 23 22  0  0  1  0  0  0  0  0999 V2000
    8.6107  -11.8674   20.4192 C   0  0  0  0  0  0  0  0  0  0  0  0
    8.6125  -13.3414   20.1541 C   0  0  2  0  0  0  0  0  0  0  0  0
    8.2746  -13.6987   18.7299 C   0  0  0  0  0  0  0  0  0  0  0  0
    7.6813  -14.0047   21.1457 C   0  0  0  0  0  0  0  0  0  0  0  0
    7.8742  -15.5008   21.0261 C   0  0  2  0  0  0  0  0  0  0  0  0
    6.6528  -16.1010   20.5570 N   0  0  0  0  0  0  0  0  0  0  0  0
    8.3016  -16.0890   22.3377 C   0  0  0  0  0  0  0  0  0  0  0  0
    7.5366  -16.1253   23.3266 O   0  0  0  0  0  0  0  0  0  0  0  0
   11.4728  -17.9280   23.3766 C   0  0  0  0  0  0  0  0  0  0  0  0
   10.1405  -17.2277   23.6306 C   0  0  2  0  0  0  0  0  0  0  0  0
    9.6126  -16.6183   22.4543 N   0  0  0  0  0  0  0  0  0  0  0  0
   10.3911  -16.2384   24.7227 C   0  0  0  0  0  0  0  0  0  0  0  0
   11.2329  -15.3207   24.5455 O   0  0  0  0  0  0  0  0  0  0  0  0
    9.7239  -16.2800   25.9597 N   0  0  0  0  0  0  0  0  0  0  0  0
    9.9102  -15.3151   27.0262 C   0  0  1  0  0  0  0  0  0  0  0  0
    8.5479  -14.7785   27.3698 C   0  0  0  0  0  0  0  0  0  0  0  0
    8.1029  -13.6227   26.5621 C   0  0  0  0  0  0  0  0  0  0  0  0
    6.7334  -13.1051   26.7974 C   0  0  0  0  0  0  0  0  0  0  0  0
    6.3539  -11.8881   25.9996 C   0  0  0  0  0  0  0  0  0  0  0  0
    4.9805  -11.4880   26.1966 N   0  0  0  0  0  0  0  0  0  0  0  0
   10.5810  -15.9765   28.1423 C   0  0  0  0  0  0  0  0  0  0  0  0
   10.8830  -17.3310   28.1843 O   0  0  0  0  0  0  0  0  0  0  0  0
   10.9240  -15.3107   29.1505 O   0  0  0  0  0  0  0  0  0  0  0  0
  2  1  1  6
  2  3  1  0
  4  2  1  0
  5  4  1  0
  5  7  1  0
  5  6  1  1
  7  8  2  0
  7 11  1  0
 10  9  1  6
 11 10  1  0
 12 10  1  0
 12 14  1  0
 13 12  2  0
 15 14  1  0
 15 21  1  0
 15 16  1  1
 17 18  1  0
 17 16  1  0
 19 18  1  0
 20 19  1  0
 21 22  1  0
 23 21  2  0
M  END
$$$$
