LAK.pdb
     RDKit          3D

 23 22  0  0  1  0  0  0  0  0999 V2000
    7.6876  -14.7350   18.4114 C   0  0  0  0  0  0  0  0  0  0  0  0
    7.6907  -13.6328   19.4253 C   0  0  2  0  0  0  0  0  0  0  0  0
    7.7811  -12.2562   18.8196 C   0  0  0  0  0  0  0  0  0  0  0  0
    8.8069  -13.8970   20.4125 C   0  0  0  0  0  0  0  0  0  0  0  0
    8.4791  -15.1813   21.1426 C   0  0  2  0  0  0  0  0  0  0  0  0
    7.0500  -15.3098   21.2588 N   0  0  0  0  0  0  0  0  0  0  0  0
    9.1402  -15.2124   22.4882 C   0  0  0  0  0  0  0  0  0  0  0  0
   10.3847  -15.2218   22.6134 O   0  0  0  0  0  0  0  0  0  0  0  0
    7.8915  -14.5042   25.9536 C   0  0  0  0  0  0  0  0  0  0  0  0
    8.8188  -15.2368   24.9874 C   0  0  2  0  0  0  0  0  0  0  0  0
    8.3254  -15.2314   23.6494 N   0  0  0  0  0  0  0  0  0  0  0  0
    8.9789  -16.6199   25.5312 C   0  0  0  0  0  0  0  0  0  0  0  0
    7.9744  -17.3722   25.6152 O   0  0  0  0  0  0  0  0  0  0  0  0
   10.2150  -17.1337   25.9616 N   0  0  0  0  0  0  0  0  0  0  0  0
   10.4263  -18.4959   26.4119 C   0  0  1  0  0  0  0  0  0  0  0  0
   11.4965  -19.0831   25.5335 C   0  0  0  0  0  0  0  0  0  0  0  0
   11.2230  -19.0252   24.0815 C   0  0  0  0  0  0  0  0  0  0  0  0
   12.2894  -19.4889   23.1613 C   0  0  0  0  0  0  0  0  0  0  0  0
   12.0097  -19.2987   21.6960 C   0  0  0  0  0  0  0  0  0  0  0  0
   13.0974  -19.7329   20.8513 N   0  0  0  0  0  0  0  0  0  0  0  0
   10.7769  -18.4700   27.8295 C   0  0  0  0  0  0  0  0  0  0  0  0
   10.7166  -19.5715   28.6726 O   0  0  0  0  0  0  0  0  0  0  0  0
   11.1636  -17.3991   28.3597 O   0  0  0  0  0  0  0  0  0  0  0  0
  2  1  1  6
  2  3  1  0
  4  2  1  0
  5  4  1  0
  5  7  1  0
  5  6  1  1
  7  8  2  0
  7 11  1  0
 10  9  1  1
 11 10  1  0
 12 10  1  0
 12 14  1  0
 13 12  2  0
 15 14  1  0
 15 21  1  0
 15 16  1  6
 17 18  1  0
 17 16  1  0
 19 18  1  0
 20 19  1  0
 21 22  1  0
 23 21  2  0
M  END
$$$$
