LAK.pdb
     RDKit          3D

 23 22  0  0  1  0  0  0  0  0999 V2000
    6.7110  -13.0730   26.5258 C   0  0  0  0  0  0  0  0  0  0  0  0
    6.4312  -13.7604   25.2251 C   0  0  2  0  0  0  0  0  0  0  0  0
    5.5099  -12.9854   24.3191 C   0  0  0  0  0  0  0  0  0  0  0  0
    5.9052  -15.1478   25.5232 C   0  0  0  0  0  0  0  0  0  0  0  0
    5.6657  -15.8417   24.1999 C   0  0  2  0  0  0  0  0  0  0  0  0
    5.0220  -17.1073   24.4371 N   0  0  0  0  0  0  0  0  0  0  0  0
    6.9525  -16.0169   23.4501 C   0  0  0  0  0  0  0  0  0  0  0  0
    7.7779  -16.9068   23.7524 O   0  0  0  0  0  0  0  0  0  0  0  0
    8.5282  -14.0393   20.5970 C   0  0  0  0  0  0  0  0  0  0  0  0
    8.3870  -15.2392   21.5300 C   0  0  2  0  0  0  0  0  0  0  0  0
    7.2364  -15.1455   22.3673 N   0  0  0  0  0  0  0  0  0  0  0  0
    9.6584  -15.3105   22.3127 C   0  0  0  0  0  0  0  0  0  0  0  0
   10.7594  -15.3288   21.7048 O   0  0  0  0  0  0  0  0  0  0  0  0
    9.6894  -15.3591   23.7176 N   0  0  0  0  0  0  0  0  0  0  0  0
   10.8985  -15.4828   24.5086 C   0  0  1  0  0  0  0  0  0  0  0  0
   10.5214  -15.1714   25.9308 C   0  0  0  0  0  0  0  0  0  0  0  0
   11.5207  -15.5613   26.9484 C   0  0  0  0  0  0  0  0  0  0  0  0
   11.1633  -15.3659   28.3743 C   0  0  0  0  0  0  0  0  0  0  0  0
   12.1755  -15.8606   29.3704 C   0  0  0  0  0  0  0  0  0  0  0  0
   11.7299  -15.7381   30.7384 N   0  0  0  0  0  0  0  0  0  0  0  0
   11.4416  -16.8260   24.3244 C   0  0  0  0  0  0  0  0  0  0  0  0
   12.7942  -17.1372   24.3627 O   0  0  0  0  0  0  0  0  0  0  0  0
   10.6666  -17.7919   24.1150 O   0  0  0  0  0  0  0  0  0  0  0  0
  2  1  1  1
  2  3  1  0
  4  2  1  0
  5  4  1  0
  5  7  1  0
  5  6  1  1
  7  8  2  0
  7 11  1  0
 10  9  1  6
 11 10  1  0
 12 10  1  0
 12 14  1  0
 13 12  2  0
 15 14  1  0
 15 21  1  0
 15 16  1  1
 17 18  1  0
 17 16  1  0
 19 18  1  0
 20 19  1  0
 21 22  1  0
 23 21  2  0
M  END
$$$$
