LAK.pdb
     RDKit          3D

 23 22  0  0  1  0  0  0  0  0999 V2000
    2.5896  -17.6213   20.8831 C   0  0  0  0  0  0  0  0  0  0  0  0
    3.4231  -18.8462   21.1013 C   0  0  2  0  0  0  0  0  0  0  0  0
    2.8698  -19.7731   22.1524 C   0  0  0  0  0  0  0  0  0  0  0  0
    4.8385  -18.4099   21.4123 C   0  0  0  0  0  0  0  0  0  0  0  0
    5.3006  -17.5137   20.2841 C   0  0  2  0  0  0  0  0  0  0  0  0
    5.3272  -18.2686   19.0586 N   0  0  0  0  0  0  0  0  0  0  0  0
    6.6448  -16.9233   20.5895 C   0  0  0  0  0  0  0  0  0  0  0  0
    7.7046  -17.5619   20.4062 O   0  0  0  0  0  0  0  0  0  0  0  0
    7.6503  -13.5555   22.0787 C   0  0  0  0  0  0  0  0  0  0  0  0
    7.9104  -14.9465   21.5061 C   0  0  2  0  0  0  0  0  0  0  0  0
    6.7103  -15.6017   21.1010 N   0  0  0  0  0  0  0  0  0  0  0  0
    8.6440  -15.7031   22.5662 C   0  0  0  0  0  0  0  0  0  0  0  0
    8.0317  -16.0675   23.6027 O   0  0  0  0  0  0  0  0  0  0  0  0
   10.0065  -16.0350   22.4642 N   0  0  0  0  0  0  0  0  0  0  0  0
   10.7294  -16.8430   23.4273 C   0  0  1  0  0  0  0  0  0  0  0  0
   11.9053  -17.4364   22.7015 C   0  0  0  0  0  0  0  0  0  0  0  0
   11.5679  -18.2574   21.5190 C   0  0  0  0  0  0  0  0  0  0  0  0
   12.6501  -18.5383   20.5448 C   0  0  0  0  0  0  0  0  0  0  0  0
   12.2468  -19.3465   19.3424 C   0  0  0  0  0  0  0  0  0  0  0  0
   13.2825  -19.4239   18.3392 N   0  0  0  0  0  0  0  0  0  0  0  0
   11.1014  -15.9986   24.5594 C   0  0  0  0  0  0  0  0  0  0  0  0
   10.8727  -14.6308   24.6262 O   0  0  0  0  0  0  0  0  0  0  0  0
   11.6682  -16.5051   25.5592 O   0  0  0  0  0  0  0  0  0  0  0  0
  2  1  1  1
  2  3  1  0
  4  2  1  0
  5  4  1  0
  5  7  1  0
  5  6  1  6
  7  8  2  0
  7 11  1  0
 10  9  1  1
 11 10  1  0
 12 10  1  0
 12 14  1  0
 13 12  2  0
 15 14  1  0
 15 21  1  0
 15 16  1  6
 17 18  1  0
 17 16  1  0
 19 18  1  0
 20 19  1  0
 21 22  1  0
 23 21  2  0
M  END
$$$$
