KEP.pdb
     RDKit          3D

 26 26  0  0  1  0  0  0  0  0999 V2000
   18.0618  -15.3115  -16.3178 N   0  0  0  0  0  0  0  0  0  0  0  0
   17.4948  -13.9982  -16.2578 C   0  0  1  0  0  0  0  0  0  0  0  0
   16.5599  -13.7904  -15.1225 C   0  0  0  0  0  0  0  0  0  0  0  0
   15.2881  -14.5489  -15.2819 C   0  0  0  0  0  0  0  0  0  0  0  0
   14.0507  -13.8837  -14.7963 C   0  0  0  0  0  0  0  0  0  0  0  0
   12.8192  -14.7507  -14.9397 C   0  0  0  0  0  0  0  0  0  0  0  0
   11.6617  -14.0367  -14.4613 N   0  0  0  0  0  0  0  0  0  0  0  0
   18.5683  -12.9927  -16.3471 C   0  0  0  0  0  0  0  0  0  0  0  0
   19.6082  -13.1479  -15.6614 O   0  0  0  0  0  0  0  0  0  0  0  0
   18.5081  -11.8374  -17.1705 N   0  0  0  0  0  0  0  0  0  0  0  0
   19.6098  -10.8231  -17.1231 C   0  0  1  0  0  0  0  0  0  0  0  0
   19.5801  -10.2683  -18.5237 C   0  0  0  0  0  0  0  0  0  0  0  0
   20.4074   -9.0940  -18.8253 C   0  0  0  0  0  0  0  0  0  0  0  0
   21.6981   -9.5955  -19.4093 C   0  0  0  0  0  0  0  0  0  0  0  0
   22.8220   -9.2003  -19.0348 O   0  0  0  0  0  0  0  0  0  0  0  0
   19.2977   -9.8465  -16.0676 C   0  0  0  0  0  0  0  0  0  0  0  0
   18.0739   -9.4475  -15.9674 O   0  0  0  0  0  0  0  0  0  0  0  0
   21.6260  -10.5417  -20.4106 O   0  0  0  0  0  0  0  0  0  0  0  0
   20.2085   -9.2931  -15.1329 N   0  0  0  0  0  0  0  0  0  0  0  0
   21.6015   -9.7559  -15.0639 C   0  0  0  0  0  0  0  0  0  0  0  0
   22.3017   -8.4985  -14.5942 C   0  0  0  0  0  0  0  0  0  0  0  0
   21.3529   -8.1105  -13.4525 C   0  0  0  0  0  0  0  0  0  0  0  0
   20.0151   -8.2245  -14.1864 C   0  0  1  0  0  0  0  0  0  0  0  0
   19.8907   -6.9241  -14.9512 C   0  0  0  0  0  0  0  0  0  0  0  0
   19.4698   -5.8257  -14.2432 O   0  0  0  0  0  0  0  0  0  0  0  0
   20.1506   -6.8345  -16.1553 O   0  0  0  0  0  0  0  0  0  0  0  0
  2  1  1  1
  3  2  1  0
  3  4  1  0
  4  5  1  0
  5  6  1  0
  6  7  1  0
  8  2  1  0
  8  9  2  0
 10  8  1  0
 11 16  1  0
 11 10  1  0
 11 12  1  6
 13 12  1  0
 13 14  1  0
 14 18  1  0
 15 14  2  0
 16 19  1  0
 17 16  2  0
 19 20  1  0
 19 23  1  0
 20 21  1  0
 21 22  1  0
 23 22  1  0
 24 25  1  0
 23 24  1  6
 26 24  2  0
M  END
$$$$
