KEP.pdb
     RDKit          3D

 26 26  0  0  1  0  0  0  0  0999 V2000
   28.5549  -21.7582  -18.8278 N   0  0  0  0  0  0  0  0  0  0  0  0
   27.9513  -22.4252  -17.7141 C   0  0  1  0  0  0  0  0  0  0  0  0
   28.8512  -23.3776  -17.0146 C   0  0  0  0  0  0  0  0  0  0  0  0
   28.5874  -24.7948  -17.3892 C   0  0  0  0  0  0  0  0  0  0  0  0
   28.3426  -25.0683  -18.8296 C   0  0  0  0  0  0  0  0  0  0  0  0
   28.0352  -26.5228  -19.1104 C   0  0  0  0  0  0  0  0  0  0  0  0
   27.8362  -26.7149  -20.5253 N   0  0  0  0  0  0  0  0  0  0  0  0
   27.3181  -21.4323  -16.8283 C   0  0  0  0  0  0  0  0  0  0  0  0
   27.9809  -20.4314  -16.4615 O   0  0  0  0  0  0  0  0  0  0  0  0
   25.9845  -21.5299  -16.3508 N   0  0  0  0  0  0  0  0  0  0  0  0
   25.4568  -20.5145  -15.3836 C   0  0  1  0  0  0  0  0  0  0  0  0
   24.3150  -19.9115  -16.1602 C   0  0  0  0  0  0  0  0  0  0  0  0
   24.6298  -18.9944  -17.2621 C   0  0  0  0  0  0  0  0  0  0  0  0
   23.4108  -18.1483  -17.5005 C   0  0  0  0  0  0  0  0  0  0  0  0
   22.3217  -18.6088  -17.9021 O   0  0  0  0  0  0  0  0  0  0  0  0
   25.0616  -21.2101  -14.1486 C   0  0  0  0  0  0  0  0  0  0  0  0
   24.0878  -22.0545  -14.2254 O   0  0  0  0  0  0  0  0  0  0  0  0
   23.5114  -16.7936  -17.2600 O   0  0  0  0  0  0  0  0  0  0  0  0
   25.6469  -21.0540  -12.8671 N   0  0  0  0  0  0  0  0  0  0  0  0
   26.8191  -20.1907  -12.6672 C   0  0  0  0  0  0  0  0  0  0  0  0
   26.6020  -19.7328  -11.2406 C   0  0  0  0  0  0  0  0  0  0  0  0
   26.2792  -21.0900  -10.6019 C   0  0  0  0  0  0  0  0  0  0  0  0
   25.2330  -21.5951  -11.5978 C   0  0  1  0  0  0  0  0  0  0  0  0
   23.9501  -20.9088  -11.1801 C   0  0  0  0  0  0  0  0  0  0  0  0
   23.5689  -19.8095  -11.9090 O   0  0  0  0  0  0  0  0  0  0  0  0
   23.2643  -21.3033  -10.2317 O   0  0  0  0  0  0  0  0  0  0  0  0
  2  1  1  6
  3  2  1  0
  3  4  1  0
  4  5  1  0
  5  6  1  0
  6  7  1  0
  8  2  1  0
  8  9  2  0
 10  8  1  0
 11 16  1  0
 11 10  1  0
 11 12  1  6
 13 12  1  0
 13 14  1  0
 14 18  1  0
 15 14  2  0
 16 19  1  0
 17 16  2  0
 19 20  1  0
 19 23  1  0
 20 21  1  0
 21 22  1  0
 23 22  1  0
 24 25  1  0
 23 24  1  1
 26 24  2  0
M  END
$$$$
