KEP.pdb
     RDKit          3D

 26 26  0  0  1  0  0  0  0  0999 V2000
   25.2087  -19.9203  -17.3390 N   0  0  0  0  0  0  0  0  0  0  0  0
   25.5418  -20.3248  -16.0067 C   0  0  1  0  0  0  0  0  0  0  0  0
   26.9458  -20.0367  -15.6164 C   0  0  0  0  0  0  0  0  0  0  0  0
   27.9358  -20.7129  -16.5002 C   0  0  0  0  0  0  0  0  0  0  0  0
   28.0555  -22.1878  -16.3597 C   0  0  0  0  0  0  0  0  0  0  0  0
   29.1270  -22.7804  -17.2485 C   0  0  0  0  0  0  0  0  0  0  0  0
   29.2395  -24.1959  -16.9992 N   0  0  0  0  0  0  0  0  0  0  0  0
   24.5351  -19.8024  -15.0660 C   0  0  0  0  0  0  0  0  0  0  0  0
   24.8828  -18.9526  -14.2100 O   0  0  0  0  0  0  0  0  0  0  0  0
   23.1721  -20.2003  -15.0593 N   0  0  0  0  0  0  0  0  0  0  0  0
   22.2382  -19.6644  -14.0174 C   0  0  1  0  0  0  0  0  0  0  0  0
   21.0557  -19.2413  -14.8498 C   0  0  0  0  0  0  0  0  0  0  0  0
   19.8303  -18.8244  -14.1578 C   0  0  0  0  0  0  0  0  0  0  0  0
   18.7713  -18.6265  -15.2057 C   0  0  0  0  0  0  0  0  0  0  0  0
   17.8479  -17.7922  -15.1014 O   0  0  0  0  0  0  0  0  0  0  0  0
   21.9573  -20.7363  -13.0492 C   0  0  0  0  0  0  0  0  0  0  0  0
   21.6558  -21.9005  -13.5193 O   0  0  0  0  0  0  0  0  0  0  0  0
   18.8321  -19.4126  -16.3376 O   0  0  0  0  0  0  0  0  0  0  0  0
   21.9875  -20.6274  -11.6362 N   0  0  0  0  0  0  0  0  0  0  0  0
   22.2574  -19.3412  -10.9788 C   0  0  0  0  0  0  0  0  0  0  0  0
   21.4709  -19.5011   -9.6952 C   0  0  0  0  0  0  0  0  0  0  0  0
   21.9422  -20.9071   -9.3013 C   0  0  0  0  0  0  0  0  0  0  0  0
   21.7259  -21.6281  -10.6335 C   0  0  1  0  0  0  0  0  0  0  0  0
   20.2472  -21.9512  -10.6538 C   0  0  0  0  0  0  0  0  0  0  0  0
   19.4310  -21.0798  -11.3316 O   0  0  0  0  0  0  0  0  0  0  0  0
   19.7773  -22.9464  -10.0934 O   0  0  0  0  0  0  0  0  0  0  0  0
  2  1  1  6
  3  2  1  0
  3  4  1  0
  4  5  1  0
  5  6  1  0
  6  7  1  0
  8  2  1  0
  8  9  2  0
 10  8  1  0
 11 16  1  0
 11 10  1  0
 11 12  1  6
 13 12  1  0
 13 14  1  0
 14 18  1  0
 15 14  2  0
 16 19  1  0
 17 16  2  0
 19 20  1  0
 19 23  1  0
 20 21  1  0
 21 22  1  0
 23 22  1  0
 24 25  1  0
 23 24  1  1
 26 24  2  0
M  END
$$$$
