KEP.pdb
     RDKit          3D

 26 26  0  0  1  0  0  0  0  0999 V2000
   16.5727  -13.8215  -16.7087 N   0  0  0  0  0  0  0  0  0  0  0  0
   17.9156  -14.3003  -16.8385 C   0  0  1  0  0  0  0  0  0  0  0  0
   18.0825  -15.3777  -17.8473 C   0  0  0  0  0  0  0  0  0  0  0  0
   17.1375  -16.5097  -17.6376 C   0  0  0  0  0  0  0  0  0  0  0  0
   17.7058  -17.7515  -17.0507 C   0  0  0  0  0  0  0  0  0  0  0  0
   16.6717  -18.8382  -16.8536 C   0  0  0  0  0  0  0  0  0  0  0  0
   17.3131  -20.0438  -16.3915 N   0  0  0  0  0  0  0  0  0  0  0  0
   18.8312  -13.1596  -17.0173 C   0  0  0  0  0  0  0  0  0  0  0  0
   20.0503  -13.3815  -17.2181 O   0  0  0  0  0  0  0  0  0  0  0  0
   18.4236  -11.8000  -16.9775 N   0  0  0  0  0  0  0  0  0  0  0  0
   19.4330  -10.7077  -17.1587 C   0  0  1  0  0  0  0  0  0  0  0  0
   18.6524   -9.6939  -17.9544 C   0  0  0  0  0  0  0  0  0  0  0  0
   19.2535   -8.3741  -18.1814 C   0  0  0  0  0  0  0  0  0  0  0  0
   18.2296   -7.5336  -18.8912 C   0  0  0  0  0  0  0  0  0  0  0  0
   17.7959   -7.7959  -20.0326 O   0  0  0  0  0  0  0  0  0  0  0  0
   19.8637  -10.2472  -15.8291 C   0  0  0  0  0  0  0  0  0  0  0  0
   18.9433   -9.9746  -14.9656 O   0  0  0  0  0  0  0  0  0  0  0  0
   17.7507   -6.4164  -18.2388 O   0  0  0  0  0  0  0  0  0  0  0  0
   21.1993  -10.0734  -15.3872 N   0  0  0  0  0  0  0  0  0  0  0  0
   22.3364  -10.4479  -16.2394 C   0  0  0  0  0  0  0  0  0  0  0  0
   23.3823   -9.4544  -15.7801 C   0  0  0  0  0  0  0  0  0  0  0  0
   23.2144   -9.6165  -14.2636 C   0  0  0  0  0  0  0  0  0  0  0  0
   21.6924   -9.4944  -14.1638 C   0  0  1  0  0  0  0  0  0  0  0  0
   21.4288   -8.0042  -14.1990 C   0  0  0  0  0  0  0  0  0  0  0  0
   21.5012   -7.3330  -13.0035 O   0  0  0  0  0  0  0  0  0  0  0  0
   21.1597   -7.4020  -15.2432 O   0  0  0  0  0  0  0  0  0  0  0  0
  2  1  1  6
  3  2  1  0
  3  4  1  0
  4  5  1  0
  5  6  1  0
  6  7  1  0
  8  2  1  0
  8  9  2  0
 10  8  1  0
 11 16  1  0
 11 10  1  0
 11 12  1  1
 13 12  1  0
 13 14  1  0
 14 18  1  0
 15 14  2  0
 16 19  1  0
 17 16  2  0
 19 20  1  0
 19 23  1  0
 20 21  1  0
 21 22  1  0
 23 22  1  0
 24 25  1  0
 23 24  1  6
 26 24  2  0
M  END
$$$$
