KEP.pdb
     RDKit          3D

 26 26  0  0  1  0  0  0  0  0999 V2000
   21.7897  -19.7091  -14.3749 N   0  0  0  0  0  0  0  0  0  0  0  0
   21.6933  -20.5860  -13.2474 C   0  0  1  0  0  0  0  0  0  0  0  0
   20.8194  -21.7666  -13.4677 C   0  0  0  0  0  0  0  0  0  0  0  0
   19.5770  -21.4277  -14.2161 C   0  0  0  0  0  0  0  0  0  0  0  0
   19.7265  -21.1689  -15.6721 C   0  0  0  0  0  0  0  0  0  0  0  0
   18.4084  -20.8898  -16.3604 C   0  0  0  0  0  0  0  0  0  0  0  0
   17.3285  -21.4647  -15.5976 N   0  0  0  0  0  0  0  0  0  0  0  0
   23.0450  -20.9180  -12.7635 C   0  0  0  0  0  0  0  0  0  0  0  0
   23.1960  -21.9078  -12.0064 O   0  0  0  0  0  0  0  0  0  0  0  0
   24.2121  -20.1825  -13.0998 N   0  0  0  0  0  0  0  0  0  0  0  0
   25.5323  -20.5504  -12.4942 C   0  0  1  0  0  0  0  0  0  0  0  0
   26.4982  -19.8186  -13.3897 C   0  0  0  0  0  0  0  0  0  0  0  0
   27.9210  -19.8215  -13.0292 C   0  0  0  0  0  0  0  0  0  0  0  0
   28.5665  -20.9594  -13.7689 C   0  0  0  0  0  0  0  0  0  0  0  0
   29.6300  -21.5023  -13.4031 O   0  0  0  0  0  0  0  0  0  0  0  0
   25.5392  -20.1089  -11.0905 C   0  0  0  0  0  0  0  0  0  0  0  0
   24.9807  -18.9770  -10.8188 O   0  0  0  0  0  0  0  0  0  0  0  0
   27.9433  -21.4202  -14.9101 O   0  0  0  0  0  0  0  0  0  0  0  0
   26.0965  -20.8054   -9.9889 N   0  0  0  0  0  0  0  0  0  0  0  0
   26.7026  -22.1334  -10.1574 C   0  0  0  0  0  0  0  0  0  0  0  0
   27.7525  -22.1134   -9.0668 C   0  0  0  0  0  0  0  0  0  0  0  0
   26.8887  -21.5826   -7.9151 C   0  0  0  0  0  0  0  0  0  0  0  0
   26.2381  -20.3888   -8.6172 C   0  0  1  0  0  0  0  0  0  0  0  0
   27.2838  -19.2962   -8.5540 C   0  0  0  0  0  0  0  0  0  0  0  0
   27.3515  -18.5685   -7.3917 O   0  0  0  0  0  0  0  0  0  0  0  0
   28.0495  -19.0548   -9.4926 O   0  0  0  0  0  0  0  0  0  0  0  0
  2  1  1  6
  3  2  1  0
  3  4  1  0
  4  5  1  0
  5  6  1  0
  6  7  1  0
  8  2  1  0
  8  9  2  0
 10  8  1  0
 11 16  1  0
 11 10  1  0
 11 12  1  6
 13 12  1  0
 13 14  1  0
 14 18  1  0
 15 14  2  0
 16 19  1  0
 17 16  2  0
 19 20  1  0
 19 23  1  0
 20 21  1  0
 21 22  1  0
 23 22  1  0
 24 25  1  0
 23 24  1  6
 26 24  2  0
M  END
$$$$
