KEP.pdb
     RDKit          3D

 26 26  0  0  1  0  0  0  0  0999 V2000
   19.5368  -13.8096  -17.4922 N   0  0  0  0  0  0  0  0  0  0  0  0
   20.0044  -13.1379  -16.3176 C   0  0  1  0  0  0  0  0  0  0  0  0
   21.3197  -13.6200  -15.8239 C   0  0  0  0  0  0  0  0  0  0  0  0
   21.4824  -15.0930  -15.9733 C   0  0  0  0  0  0  0  0  0  0  0  0
   20.7643  -15.9453  -14.9898 C   0  0  0  0  0  0  0  0  0  0  0  0
   20.8361  -17.4194  -15.3227 C   0  0  0  0  0  0  0  0  0  0  0  0
   20.1556  -18.1826  -14.3064 N   0  0  0  0  0  0  0  0  0  0  0  0
   19.9341  -11.6803  -16.5216 C   0  0  0  0  0  0  0  0  0  0  0  0
   20.4892  -11.1777  -17.5291 O   0  0  0  0  0  0  0  0  0  0  0  0
   19.2695  -10.7860  -15.6413 N   0  0  0  0  0  0  0  0  0  0  0  0
   19.2493   -9.3173  -15.9369 C   0  0  1  0  0  0  0  0  0  0  0  0
   17.8400   -8.9444  -15.5562 C   0  0  0  0  0  0  0  0  0  0  0  0
   17.4645   -7.5256  -15.5797 C   0  0  0  0  0  0  0  0  0  0  0  0
   16.0228   -7.4387  -15.1643 C   0  0  0  0  0  0  0  0  0  0  0  0
   15.3219   -8.4377  -14.8993 O   0  0  0  0  0  0  0  0  0  0  0  0
   20.2964   -8.6668  -15.1334 C   0  0  0  0  0  0  0  0  0  0  0  0
   20.4213   -9.0386  -13.9033 O   0  0  0  0  0  0  0  0  0  0  0  0
   15.4541   -6.1851  -15.0744 O   0  0  0  0  0  0  0  0  0  0  0  0
   21.1985   -7.6655  -15.5729 N   0  0  0  0  0  0  0  0  0  0  0  0
   21.2101   -7.2140  -16.9712 C   0  0  0  0  0  0  0  0  0  0  0  0
   21.6603   -5.7778  -16.8084 C   0  0  0  0  0  0  0  0  0  0  0  0
   22.8406   -6.0054  -15.8548 C   0  0  0  0  0  0  0  0  0  0  0  0
   22.1586   -6.9011  -14.8185 C   0  0  1  0  0  0  0  0  0  0  0  0
   21.4076   -5.9397  -13.9224 C   0  0  0  0  0  0  0  0  0  0  0  0
   22.1149   -5.3702  -12.8927 O   0  0  0  0  0  0  0  0  0  0  0  0
   20.2150   -5.6673  -14.0925 O   0  0  0  0  0  0  0  0  0  0  0  0
  2  1  1  6
  3  2  1  0
  3  4  1  0
  4  5  1  0
  5  6  1  0
  6  7  1  0
  8  2  1  0
  8  9  2  0
 10  8  1  0
 11 16  1  0
 11 10  1  0
 11 12  1  1
 13 12  1  0
 13 14  1  0
 14 18  1  0
 15 14  2  0
 16 19  1  0
 17 16  2  0
 19 20  1  0
 19 23  1  0
 20 21  1  0
 21 22  1  0
 23 22  1  0
 24 25  1  0
 23 24  1  1
 26 24  2  0
M  END
$$$$
