KEP.pdb
     RDKit          3D

 26 26  0  0  1  0  0  0  0  0999 V2000
   27.4864  -23.8007  -16.7307 N   0  0  0  0  0  0  0  0  0  0  0  0
   26.1910  -23.9460  -16.1388 C   0  0  1  0  0  0  0  0  0  0  0  0
   26.0028  -25.2151  -15.3904 C   0  0  0  0  0  0  0  0  0  0  0  0
   25.9371  -26.4035  -16.2859 C   0  0  0  0  0  0  0  0  0  0  0  0
   27.2159  -26.8441  -16.9023 C   0  0  0  0  0  0  0  0  0  0  0  0
   27.0492  -28.0352  -17.8203 C   0  0  0  0  0  0  0  0  0  0  0  0
   26.9352  -29.2412  -17.0386 N   0  0  0  0  0  0  0  0  0  0  0  0
   25.8632  -22.7354  -15.3653 C   0  0  0  0  0  0  0  0  0  0  0  0
   26.7689  -22.1684  -14.7065 O   0  0  0  0  0  0  0  0  0  0  0  0
   24.5692  -22.1531  -15.3115 N   0  0  0  0  0  0  0  0  0  0  0  0
   24.3251  -20.9423  -14.4635 C   0  0  1  0  0  0  0  0  0  0  0  0
   23.5010  -20.0804  -15.3846 C   0  0  0  0  0  0  0  0  0  0  0  0
   22.8425  -18.8942  -14.8247 C   0  0  0  0  0  0  0  0  0  0  0  0
   22.0012  -18.2940  -15.9159 C   0  0  0  0  0  0  0  0  0  0  0  0
   20.8004  -18.5851  -16.0974 O   0  0  0  0  0  0  0  0  0  0  0  0
   23.6341  -21.3663  -13.2354 C   0  0  0  0  0  0  0  0  0  0  0  0
   22.5785  -22.0980  -13.3675 O   0  0  0  0  0  0  0  0  0  0  0  0
   22.5965  -17.3750  -16.7548 O   0  0  0  0  0  0  0  0  0  0  0  0
   24.0115  -21.0574  -11.9045 N   0  0  0  0  0  0  0  0  0  0  0  0
   25.2808  -20.3768  -11.6131 C   0  0  0  0  0  0  0  0  0  0  0  0
   24.9194  -19.6153  -10.3556 C   0  0  0  0  0  0  0  0  0  0  0  0
   24.2280  -20.7464   -9.5832 C   0  0  0  0  0  0  0  0  0  0  0  0
   23.2875  -21.2598  -10.6756 C   0  0  1  0  0  0  0  0  0  0  0  0
   22.1154  -20.3023  -10.6471 C   0  0  0  0  0  0  0  0  0  0  0  0
   22.0932  -19.3201  -11.6061 O   0  0  0  0  0  0  0  0  0  0  0  0
   21.2117  -20.3839   -9.8092 O   0  0  0  0  0  0  0  0  0  0  0  0
  2  1  1  1
  3  2  1  0
  3  4  1  0
  4  5  1  0
  5  6  1  0
  6  7  1  0
  8  2  1  0
  8  9  2  0
 10  8  1  0
 11 16  1  0
 11 10  1  0
 11 12  1  6
 13 12  1  0
 13 14  1  0
 14 18  1  0
 15 14  2  0
 16 19  1  0
 17 16  2  0
 19 20  1  0
 19 23  1  0
 20 21  1  0
 21 22  1  0
 23 22  1  0
 24 25  1  0
 23 24  1  6
 26 24  2  0
M  END
$$$$
