WYR.pdb
     RDKit          3D

 38 40  0  0  1  0  0  0  0  0999 V2000
   24.8056  -20.0962  -19.6353 N   0  0  0  0  0  0  0  0  0  0  0  0
   23.9452  -19.4839  -18.6617 C   0  0  1  0  0  0  0  0  0  0  0  0
   22.5664  -19.2942  -19.1970 C   0  0  0  0  0  0  0  0  0  0  0  0
   22.4251  -18.3099  -20.2675 C   0  0  0  0  0  0  0  0  0  0  0  0
   22.2791  -18.5579  -21.6318 C   0  0  0  0  0  0  0  0  0  0  0  0
   22.1886  -17.3688  -22.2305 N   0  0  0  0  0  0  0  0  0  0  0  0
   22.2708  -16.3804  -21.3102 C   0  0  0  0  0  0  0  0  0  0  0  0
   22.2321  -14.9887  -21.3911 C   0  0  0  0  0  0  0  0  0  0  0  0
   22.3385  -14.1875  -20.2708 C   0  0  0  0  0  0  0  0  0  0  0  0
   22.4885  -14.7516  -19.0220 C   0  0  0  0  0  0  0  0  0  0  0  0
   22.5263  -16.1277  -18.9483 C   0  0  0  0  0  0  0  0  0  0  0  0
   22.4210  -16.9469  -20.0590 C   0  0  0  0  0  0  0  0  0  0  0  0
   24.0117  -20.0823  -17.3222 C   0  0  0  0  0  0  0  0  0  0  0  0
   24.0548  -21.3349  -17.2379 O   0  0  0  0  0  0  0  0  0  0  0  0
   25.0664  -22.1115   -8.8934 O   0  0  0  0  0  0  0  0  0  0  0  0
   25.0372  -21.4266  -10.1166 C   0  0  0  0  0  0  0  0  0  0  0  0
   24.1858  -20.3638  -10.3026 C   0  0  0  0  0  0  0  0  0  0  0  0
   24.1306  -19.6692  -11.4893 C   0  0  0  0  0  0  0  0  0  0  0  0
   24.9559  -20.0362  -12.5542 C   0  0  0  0  0  0  0  0  0  0  0  0
   24.9251  -19.3102  -13.8456 C   0  0  0  0  0  0  0  0  0  0  0  0
   24.0225  -20.0117  -14.8048 C   0  0  2  0  0  0  0  0  0  0  0  0
   24.0294  -19.3406  -16.1129 N   0  0  0  0  0  0  0  0  0  0  0  0
   22.5994  -20.0707  -14.3775 C   0  0  0  0  0  0  0  0  0  0  0  0
   21.8309  -19.0839  -14.3900 O   0  0  0  0  0  0  0  0  0  0  0  0
   25.7985  -21.0892  -12.3673 C   0  0  0  0  0  0  0  0  0  0  0  0
   25.8454  -21.7809  -11.1683 C   0  0  0  0  0  0  0  0  0  0  0  0
   20.0013  -27.8046  -13.0698 N   0  0  0  0  0  0  0  0  0  0  0  0
   21.1669  -27.3531  -13.7342 C   0  0  0  0  0  0  0  0  0  0  0  0
   22.1089  -28.1695  -14.0990 N   0  0  0  0  0  0  0  0  0  0  0  0
   21.3087  -25.9636  -14.0077 N   0  0  0  0  0  0  0  0  0  0  0  0
   20.0920  -25.1453  -13.8670 C   0  0  0  0  0  0  0  0  0  0  0  0
   20.4201  -23.7469  -14.2521 C   0  0  0  0  0  0  0  0  0  0  0  0
   20.3087  -22.8005  -13.1279 C   0  0  0  0  0  0  0  0  0  0  0  0
   20.6817  -21.3779  -13.3576 C   0  0  2  0  0  0  0  0  0  0  0  0
   22.0385  -21.3198  -13.9225 N   0  0  0  0  0  0  0  0  0  0  0  0
   20.5387  -20.4550  -12.2412 C   0  0  0  0  0  0  0  0  0  0  0  0
   19.5973  -19.6310  -12.1613 O   0  0  0  0  0  0  0  0  0  0  0  0
   21.4574  -20.4519  -11.2011 O   0  0  0  0  0  0  0  0  0  0  0  0
  2  1  1  6
  2  3  1  0
  3  4  1  0
  4  5  2  0
  4 12  1  0
  5  6  1  0
  6  7  1  0
  7  8  2  0
  9  8  1  0
 10  9  2  0
 11 12  2  0
 11 10  1  0
 12  7  1  0
 13 22  1  0
 13  2  1  0
 14 13  2  0
 16 15  1  0
 17 16  2  0
 18 17  1  0
 19 18  2  0
 19 25  1  0
 21 20  1  1
 20 19  1  0
 21 23  1  0
 21 22  1  0
 23 35  1  0
 24 23  2  0
 25 26  2  0
 26 16  1  0
 27 28  1  0
 28 29  2  0
 30 28  1  0
 31 30  1  0
 32 31  1  0
 34 33  1  1
 33 32  1  0
 34 35  1  0
 36 34  1  0
 37 36  2  0
 38 36  1  0
M  END
$$$$
