WYR.pdb
     RDKit          3D

 38 40  0  0  1  0  0  0  0  0999 V2000
   28.0404  -19.8009  -10.7368 N   0  0  0  0  0  0  0  0  0  0  0  0
   27.0004  -20.7889  -10.6675 C   0  0  1  0  0  0  0  0  0  0  0  0
   26.7728  -21.2419   -9.2652 C   0  0  0  0  0  0  0  0  0  0  0  0
   27.7860  -20.8429   -8.2911 C   0  0  0  0  0  0  0  0  0  0  0  0
   27.6399  -19.9394   -7.2392 C   0  0  0  0  0  0  0  0  0  0  0  0
   28.8184  -19.8821   -6.6160 N   0  0  0  0  0  0  0  0  0  0  0  0
   29.7033  -20.7058   -7.2236 C   0  0  0  0  0  0  0  0  0  0  0  0
   31.0407  -21.0207   -6.9852 C   0  0  0  0  0  0  0  0  0  0  0  0
   31.7325  -21.9197   -7.7736 C   0  0  0  0  0  0  0  0  0  0  0  0
   31.1089  -22.5397   -8.8352 C   0  0  0  0  0  0  0  0  0  0  0  0
   29.7869  -22.2244   -9.0661 C   0  0  0  0  0  0  0  0  0  0  0  0
   29.0772  -21.3268   -8.2873 C   0  0  0  0  0  0  0  0  0  0  0  0
   25.7816  -20.4495  -11.4133 C   0  0  0  0  0  0  0  0  0  0  0  0
   25.1430  -19.4257  -11.0639 O   0  0  0  0  0  0  0  0  0  0  0  0
   19.7682  -18.8988  -17.5317 O   0  0  0  0  0  0  0  0  0  0  0  0
   20.9150  -19.2933  -16.8279 C   0  0  0  0  0  0  0  0  0  0  0  0
   21.3329  -20.6025  -16.8498 C   0  0  0  0  0  0  0  0  0  0  0  0
   22.4531  -21.0246  -16.1710 C   0  0  0  0  0  0  0  0  0  0  0  0
   23.2067  -20.1131  -15.4286 C   0  0  0  0  0  0  0  0  0  0  0  0
   24.4193  -20.5313  -14.6868 C   0  0  0  0  0  0  0  0  0  0  0  0
   24.0865  -20.7587  -13.2500 C   0  0  2  0  0  0  0  0  0  0  0  0
   25.2736  -21.2013  -12.5039 N   0  0  0  0  0  0  0  0  0  0  0  0
   23.0427  -21.7921  -13.0178 C   0  0  0  0  0  0  0  0  0  0  0  0
   23.2540  -23.0218  -13.1048 O   0  0  0  0  0  0  0  0  0  0  0  0
   22.7906  -18.8169  -15.4086 C   0  0  0  0  0  0  0  0  0  0  0  0
   21.6615  -18.4035  -16.0959 C   0  0  0  0  0  0  0  0  0  0  0  0
   17.6306  -25.0985   -9.0250 N   0  0  0  0  0  0  0  0  0  0  0  0
   18.4476  -24.3345   -8.1574 C   0  0  0  0  0  0  0  0  0  0  0  0
   18.9930  -24.8496   -7.0972 N   0  0  0  0  0  0  0  0  0  0  0  0
   18.6751  -22.9620   -8.4573 N   0  0  0  0  0  0  0  0  0  0  0  0
   18.0144  -22.4422   -9.6670 C   0  0  0  0  0  0  0  0  0  0  0  0
   18.7550  -22.9400  -10.8566 C   0  0  0  0  0  0  0  0  0  0  0  0
   19.8843  -22.0718  -11.2348 C   0  0  0  0  0  0  0  0  0  0  0  0
   20.6390  -22.3895  -12.4778 C   0  0  2  0  0  0  0  0  0  0  0  0
   21.7023  -21.3908  -12.6656 N   0  0  0  0  0  0  0  0  0  0  0  0
   19.8736  -22.5768  -13.7016 C   0  0  0  0  0  0  0  0  0  0  0  0
   19.4430  -21.6170  -14.3836 O   0  0  0  0  0  0  0  0  0  0  0  0
   19.5854  -23.8509  -14.1701 O   0  0  0  0  0  0  0  0  0  0  0  0
  2  1  1  1
  2  3  1  0
  3  4  1  0
  4  5  2  0
  4 12  1  0
  5  6  1  0
  6  7  1  0
  7  8  2  0
  9  8  1  0
 10  9  2  0
 11 12  2  0
 11 10  1  0
 12  7  1  0
 13 22  1  0
 13  2  1  0
 14 13  2  0
 16 15  1  0
 17 16  2  0
 18 17  1  0
 19 18  2  0
 19 25  1  0
 21 20  1  6
 20 19  1  0
 21 23  1  0
 21 22  1  0
 23 35  1  0
 24 23  2  0
 25 26  2  0
 26 16  1  0
 27 28  1  0
 28 29  2  0
 30 28  1  0
 31 30  1  0
 32 31  1  0
 34 33  1  1
 33 32  1  0
 34 35  1  0
 36 34  1  0
 37 36  2  0
 38 36  1  0
M  END
$$$$
