WYR.pdb
     RDKit          3D

 38 40  0  0  1  0  0  0  0  0999 V2000
   28.2121  -21.6941   -8.9374 N   0  0  0  0  0  0  0  0  0  0  0  0
   26.9254  -21.0811   -9.1142 C   0  0  1  0  0  0  0  0  0  0  0  0
   26.7758  -19.8723   -8.2540 C   0  0  0  0  0  0  0  0  0  0  0  0
   26.9868  -20.0751   -6.8226 C   0  0  0  0  0  0  0  0  0  0  0  0
   26.2039  -20.8300   -5.9499 C   0  0  0  0  0  0  0  0  0  0  0  0
   26.7673  -20.7298   -4.7445 N   0  0  0  0  0  0  0  0  0  0  0  0
   27.8689  -19.9472   -4.8126 C   0  0  0  0  0  0  0  0  0  0  0  0
   28.8059  -19.5255   -3.8698 C   0  0  0  0  0  0  0  0  0  0  0  0
   29.8670  -18.7081   -4.2077 C   0  0  0  0  0  0  0  0  0  0  0  0
   30.0306  -18.2798   -5.5077 C   0  0  0  0  0  0  0  0  0  0  0  0
   29.1012  -18.6997   -6.4353 C   0  0  0  0  0  0  0  0  0  0  0  0
   28.0320  -19.5187   -6.1160 C   0  0  0  0  0  0  0  0  0  0  0  0
   26.5207  -20.8979  -10.5140 C   0  0  0  0  0  0  0  0  0  0  0  0
   27.3166  -20.3058  -11.2848 O   0  0  0  0  0  0  0  0  0  0  0  0
   24.1035  -22.6584  -18.6566 O   0  0  0  0  0  0  0  0  0  0  0  0
   24.3550  -22.6773  -17.2773 C   0  0  0  0  0  0  0  0  0  0  0  0
   25.5797  -22.2945  -16.7846 C   0  0  0  0  0  0  0  0  0  0  0  0
   25.8611  -22.3008  -15.4376 C   0  0  0  0  0  0  0  0  0  0  0  0
   24.8883  -22.7049  -14.5210 C   0  0  0  0  0  0  0  0  0  0  0  0
   25.1551  -22.7226  -13.0636 C   0  0  0  0  0  0  0  0  0  0  0  0
   25.0472  -21.3419  -12.5075 C   0  0  2  0  0  0  0  0  0  0  0  0
   25.2883  -21.3440  -11.0572 N   0  0  0  0  0  0  0  0  0  0  0  0
   23.7193  -20.7025  -12.7053 C   0  0  0  0  0  0  0  0  0  0  0  0
   22.7698  -20.8142  -11.8989 O   0  0  0  0  0  0  0  0  0  0  0  0
   23.6759  -23.0834  -15.0117 C   0  0  0  0  0  0  0  0  0  0  0  0
   23.4040  -23.0729  -16.3696 C   0  0  0  0  0  0  0  0  0  0  0  0
   18.7543  -19.6698  -19.0380 N   0  0  0  0  0  0  0  0  0  0  0  0
   18.3891  -18.4017  -18.5255 C   0  0  0  0  0  0  0  0  0  0  0  0
   17.4073  -17.7153  -19.0273 N   0  0  0  0  0  0  0  0  0  0  0  0
   19.1217  -17.8653  -17.4296 N   0  0  0  0  0  0  0  0  0  0  0  0
   20.3752  -18.5576  -17.0837 C   0  0  0  0  0  0  0  0  0  0  0  0
   20.9569  -17.9022  -15.8822 C   0  0  0  0  0  0  0  0  0  0  0  0
   22.1928  -18.5544  -15.4141 C   0  0  0  0  0  0  0  0  0  0  0  0
   22.1326  -19.3896  -14.1834 C   0  0  2  0  0  0  0  0  0  0  0  0
   23.4788  -19.8974  -13.8782 N   0  0  0  0  0  0  0  0  0  0  0  0
   21.1469  -20.4599  -14.1429 C   0  0  0  0  0  0  0  0  0  0  0  0
   21.4056  -21.6315  -14.5063 O   0  0  0  0  0  0  0  0  0  0  0  0
   19.8570  -20.2197  -13.6911 O   0  0  0  0  0  0  0  0  0  0  0  0
  2  1  1  6
  2  3  1  0
  3  4  1  0
  4  5  2  0
  4 12  1  0
  5  6  1  0
  6  7  1  0
  7  8  2  0
  9  8  1  0
 10  9  2  0
 11 12  2  0
 11 10  1  0
 12  7  1  0
 13 22  1  0
 13  2  1  0
 14 13  2  0
 16 15  1  0
 17 16  2  0
 18 17  1  0
 19 18  2  0
 19 25  1  0
 21 20  1  1
 20 19  1  0
 21 23  1  0
 21 22  1  0
 23 35  1  0
 24 23  2  0
 25 26  2  0
 26 16  1  0
 27 28  1  0
 28 29  2  0
 30 28  1  0
 31 30  1  0
 32 31  1  0
 34 33  1  6
 33 32  1  0
 34 35  1  0
 36 34  1  0
 37 36  2  0
 38 36  1  0
M  END
$$$$
