WYR.pdb
     RDKit          3D

 38 40  0  0  1  0  0  0  0  0999 V2000
   25.0144  -14.8922  -20.1665 N   0  0  0  0  0  0  0  0  0  0  0  0
   25.8796  -15.9042  -19.6280 C   0  0  1  0  0  0  0  0  0  0  0  0
   27.2878  -15.4227  -19.5345 C   0  0  0  0  0  0  0  0  0  0  0  0
   27.9346  -15.0856  -20.8005 C   0  0  0  0  0  0  0  0  0  0  0  0
   28.2881  -13.8172  -21.2593 C   0  0  0  0  0  0  0  0  0  0  0  0
   28.8470  -13.9852  -22.4592 N   0  0  0  0  0  0  0  0  0  0  0  0
   28.8636  -15.2991  -22.7818 C   0  0  0  0  0  0  0  0  0  0  0  0
   29.3233  -16.0090  -23.8906 C   0  0  0  0  0  0  0  0  0  0  0  0
   29.2202  -17.3841  -23.9733 C   0  0  0  0  0  0  0  0  0  0  0  0
   28.6501  -18.1034  -22.9447 C   0  0  0  0  0  0  0  0  0  0  0  0
   28.1973  -17.3963  -21.8513 C   0  0  0  0  0  0  0  0  0  0  0  0
   28.2922  -16.0191  -21.7502 C   0  0  0  0  0  0  0  0  0  0  0  0
   25.3710  -16.5663  -18.4198 C   0  0  0  0  0  0  0  0  0  0  0  0
   24.8570  -15.8481  -17.5264 O   0  0  0  0  0  0  0  0  0  0  0  0
   20.9430  -20.8759  -12.5052 O   0  0  0  0  0  0  0  0  0  0  0  0
   21.5274  -20.3225  -13.6533 C   0  0  0  0  0  0  0  0  0  0  0  0
   21.5166  -18.9633  -13.8575 C   0  0  0  0  0  0  0  0  0  0  0  0
   22.0802  -18.3862  -14.9724 C   0  0  0  0  0  0  0  0  0  0  0  0
   22.6887  -19.1852  -15.9425 C   0  0  0  0  0  0  0  0  0  0  0  0
   23.3073  -18.5986  -17.1544 C   0  0  0  0  0  0  0  0  0  0  0  0
   24.7921  -18.5693  -17.0073 C   0  0  2  0  0  0  0  0  0  0  0  0
   25.4212  -17.9656  -18.1910 N   0  0  0  0  0  0  0  0  0  0  0  0
   25.4191  -19.9076  -16.8426 C   0  0  0  0  0  0  0  0  0  0  0  0
   24.8657  -20.9779  -17.1784 O   0  0  0  0  0  0  0  0  0  0  0  0
   22.6982  -20.5312  -15.7378 C   0  0  0  0  0  0  0  0  0  0  0  0
   22.1278  -21.1010  -14.6116 C   0  0  0  0  0  0  0  0  0  0  0  0
   23.5663  -20.6936  -10.5549 N   0  0  0  0  0  0  0  0  0  0  0  0
   24.7945  -20.8079   -9.8605 C   0  0  0  0  0  0  0  0  0  0  0  0
   24.8427  -21.0783   -8.5910 N   0  0  0  0  0  0  0  0  0  0  0  0
   26.0100  -20.6193  -10.5762 N   0  0  0  0  0  0  0  0  0  0  0  0
   25.8785  -20.2380  -11.9930 C   0  0  0  0  0  0  0  0  0  0  0  0
   27.2332  -19.9306  -12.5238 C   0  0  0  0  0  0  0  0  0  0  0  0
   27.2214  -19.5672  -13.9521 C   0  0  0  0  0  0  0  0  0  0  0  0
   26.9461  -20.6333  -14.9537 C   0  0  2  0  0  0  0  0  0  0  0  0
   26.7401  -20.0153  -16.2724 N   0  0  0  0  0  0  0  0  0  0  0  0
   25.8883  -21.5861  -14.6503 C   0  0  0  0  0  0  0  0  0  0  0  0
   24.6758  -21.2680  -14.6343 O   0  0  0  0  0  0  0  0  0  0  0  0
   26.1875  -22.9100  -14.3613 O   0  0  0  0  0  0  0  0  0  0  0  0
  2  1  1  1
  2  3  1  0
  3  4  1  0
  4  5  2  0
  4 12  1  0
  5  6  1  0
  6  7  1  0
  7  8  2  0
  9  8  1  0
 10  9  2  0
 11 12  2  0
 11 10  1  0
 12  7  1  0
 13 22  1  0
 13  2  1  0
 14 13  2  0
 16 15  1  0
 17 16  2  0
 18 17  1  0
 19 18  2  0
 19 25  1  0
 21 20  1  6
 20 19  1  0
 21 23  1  0
 21 22  1  0
 23 35  1  0
 24 23  2  0
 25 26  2  0
 26 16  1  0
 27 28  1  0
 28 29  2  0
 30 28  1  0
 31 30  1  0
 32 31  1  0
 34 33  1  1
 33 32  1  0
 34 35  1  0
 36 34  1  0
 37 36  2  0
 38 36  1  0
M  END
$$$$
