WYR.pdb
     RDKit          3D

 38 40  0  0  1  0  0  0  0  0999 V2000
   28.0536  -25.3680  -17.9929 N   0  0  0  0  0  0  0  0  0  0  0  0
   26.6285  -25.5350  -18.0571 C   0  0  1  0  0  0  0  0  0  0  0  0
   26.1136  -26.2757  -16.8697 C   0  0  0  0  0  0  0  0  0  0  0  0
   26.5829  -27.6512  -16.7202 C   0  0  0  0  0  0  0  0  0  0  0  0
   27.7667  -28.0817  -16.1222 C   0  0  0  0  0  0  0  0  0  0  0  0
   27.7815  -29.4127  -16.2146 N   0  0  0  0  0  0  0  0  0  0  0  0
   26.6639  -29.8450  -16.8428 C   0  0  0  0  0  0  0  0  0  0  0  0
   26.1865  -31.1084  -17.1905 C   0  0  0  0  0  0  0  0  0  0  0  0
   24.9816  -31.2811  -17.8436 C   0  0  0  0  0  0  0  0  0  0  0  0
   24.2058  -30.1908  -18.1750 C   0  0  0  0  0  0  0  0  0  0  0  0
   24.6828  -28.9445  -17.8289 C   0  0  0  0  0  0  0  0  0  0  0  0
   25.8870  -28.7515  -17.1743 C   0  0  0  0  0  0  0  0  0  0  0  0
   25.8830  -24.3162  -18.3967 C   0  0  0  0  0  0  0  0  0  0  0  0
   26.1449  -23.2676  -17.7563 O   0  0  0  0  0  0  0  0  0  0  0  0
   29.5565  -19.7264  -20.6821 O   0  0  0  0  0  0  0  0  0  0  0  0
   28.3329  -20.4056  -20.7692 C   0  0  0  0  0  0  0  0  0  0  0  0
   27.1476  -19.7394  -20.5678 C   0  0  0  0  0  0  0  0  0  0  0  0
   25.9290  -20.3742  -20.6454 C   0  0  0  0  0  0  0  0  0  0  0  0
   25.8676  -21.7385  -20.9365 C   0  0  0  0  0  0  0  0  0  0  0  0
   24.5736  -22.4543  -21.0298 C   0  0  0  0  0  0  0  0  0  0  0  0
   24.1832  -22.9813  -19.6894 C   0  0  2  0  0  0  0  0  0  0  0  0
   24.8833  -24.2414  -19.4006 N   0  0  0  0  0  0  0  0  0  0  0  0
   22.7320  -23.2711  -19.5426 C   0  0  0  0  0  0  0  0  0  0  0  0
   22.1457  -24.1955  -20.1478 O   0  0  0  0  0  0  0  0  0  0  0  0
   27.0431  -22.3959  -21.1356 C   0  0  0  0  0  0  0  0  0  0  0  0
   28.2638  -21.7466  -21.0551 C   0  0  0  0  0  0  0  0  0  0  0  0
   19.2361  -23.1597  -12.5086 N   0  0  0  0  0  0  0  0  0  0  0  0
   18.5986  -23.8112  -13.5916 C   0  0  0  0  0  0  0  0  0  0  0  0
   17.3679  -24.2200  -13.5185 N   0  0  0  0  0  0  0  0  0  0  0  0
   19.3301  -24.0244  -14.7936 N   0  0  0  0  0  0  0  0  0  0  0  0
   20.7574  -23.6616  -14.7596 C   0  0  0  0  0  0  0  0  0  0  0  0
   21.0894  -22.9451  -16.0198 C   0  0  0  0  0  0  0  0  0  0  0  0
   20.2719  -23.3865  -17.1638 C   0  0  0  0  0  0  0  0  0  0  0  0
   20.4907  -22.7374  -18.4853 C   0  0  2  0  0  0  0  0  0  0  0  0
   21.9258  -22.4654  -18.6579 N   0  0  0  0  0  0  0  0  0  0  0  0
   19.6928  -21.5610  -18.7986 C   0  0  0  0  0  0  0  0  0  0  0  0
   20.2028  -20.4380  -19.0228 O   0  0  0  0  0  0  0  0  0  0  0  0
   18.3087  -21.6391  -18.8627 O   0  0  0  0  0  0  0  0  0  0  0  0
  2  1  1  1
  2  3  1  0
  3  4  1  0
  4  5  2  0
  4 12  1  0
  5  6  1  0
  6  7  1  0
  7  8  2  0
  9  8  1  0
 10  9  2  0
 11 12  2  0
 11 10  1  0
 12  7  1  0
 13 22  1  0
 13  2  1  0
 14 13  2  0
 16 15  1  0
 17 16  2  0
 18 17  1  0
 19 18  2  0
 19 25  1  0
 21 20  1  6
 20 19  1  0
 21 23  1  0
 21 22  1  0
 23 35  1  0
 24 23  2  0
 25 26  2  0
 26 16  1  0
 27 28  1  0
 28 29  2  0
 30 28  1  0
 31 30  1  0
 32 31  1  0
 34 33  1  1
 33 32  1  0
 34 35  1  0
 36 34  1  0
 37 36  2  0
 38 36  1  0
M  END
$$$$
