WYR.pdb
     RDKit          3D

 38 40  0  0  1  0  0  0  0  0999 V2000
   26.6761  -18.9311   -9.2585 N   0  0  0  0  0  0  0  0  0  0  0  0
   26.4239  -20.2997   -9.6136 C   0  0  1  0  0  0  0  0  0  0  0  0
   26.3630  -21.1727   -8.4062 C   0  0  0  0  0  0  0  0  0  0  0  0
   27.4030  -20.9524   -7.4039 C   0  0  0  0  0  0  0  0  0  0  0  0
   27.2602  -20.3521   -6.1535 C   0  0  0  0  0  0  0  0  0  0  0  0
   28.4664  -20.3622   -5.5830 N   0  0  0  0  0  0  0  0  0  0  0  0
   29.3656  -20.9398   -6.4127 C   0  0  0  0  0  0  0  0  0  0  0  0
   30.7317  -21.2018   -6.3143 C   0  0  0  0  0  0  0  0  0  0  0  0
   31.4330  -21.8218   -7.3302 C   0  0  0  0  0  0  0  0  0  0  0  0
   30.7903  -22.2043   -8.4882 C   0  0  0  0  0  0  0  0  0  0  0  0
   29.4399  -21.9426   -8.5799 C   0  0  0  0  0  0  0  0  0  0  0  0
   28.7203  -21.3229   -7.5729 C   0  0  0  0  0  0  0  0  0  0  0  0
   25.3279  -20.4925  -10.5720 C   0  0  0  0  0  0  0  0  0  0  0  0
   24.1497  -20.4030  -10.1455 O   0  0  0  0  0  0  0  0  0  0  0  0
   21.6340  -17.7794  -18.0243 O   0  0  0  0  0  0  0  0  0  0  0  0
   22.5382  -18.2948  -17.0847 C   0  0  0  0  0  0  0  0  0  0  0  0
   22.9924  -17.5130  -16.0496 C   0  0  0  0  0  0  0  0  0  0  0  0
   23.8797  -17.9858  -15.1100 C   0  0  0  0  0  0  0  0  0  0  0  0
   24.3489  -19.2987  -15.1885 C   0  0  0  0  0  0  0  0  0  0  0  0
   25.3030  -19.8423  -14.1937 C   0  0  0  0  0  0  0  0  0  0  0  0
   24.5724  -20.2672  -12.9638 C   0  0  2  0  0  0  0  0  0  0  0  0
   25.5089  -20.7749  -11.9505 N   0  0  0  0  0  0  0  0  0  0  0  0
   23.5756  -21.3484  -13.1847 C   0  0  0  0  0  0  0  0  0  0  0  0
   23.8840  -22.5399  -13.4076 O   0  0  0  0  0  0  0  0  0  0  0  0
   23.8973  -20.0711  -16.2147 C   0  0  0  0  0  0  0  0  0  0  0  0
   23.0041  -19.5844  -17.1546 C   0  0  0  0  0  0  0  0  0  0  0  0
   17.3015  -23.7187   -8.6510 N   0  0  0  0  0  0  0  0  0  0  0  0
   18.4747  -24.3888   -9.0735 C   0  0  0  0  0  0  0  0  0  0  0  0
   18.7745  -25.5801   -8.6518 N   0  0  0  0  0  0  0  0  0  0  0  0
   19.3499  -23.7351   -9.9857 N   0  0  0  0  0  0  0  0  0  0  0  0
   19.2624  -24.1642  -11.3922 C   0  0  0  0  0  0  0  0  0  0  0  0
   19.0265  -22.9622  -12.2355 C   0  0  0  0  0  0  0  0  0  0  0  0
   20.1610  -22.0215  -12.2246 C   0  0  0  0  0  0  0  0  0  0  0  0
   21.1585  -22.0994  -13.3267 C   0  0  2  0  0  0  0  0  0  0  0  0
   22.1660  -21.0438  -13.1415 N   0  0  0  0  0  0  0  0  0  0  0  0
   20.6546  -22.1094  -14.6922 C   0  0  0  0  0  0  0  0  0  0  0  0
   20.5367  -23.1627  -15.3618 O   0  0  0  0  0  0  0  0  0  0  0  0
   20.2776  -20.9295  -15.3179 O   0  0  0  0  0  0  0  0  0  0  0  0
  2  1  1  1
  2  3  1  0
  3  4  1  0
  4  5  2  0
  4 12  1  0
  5  6  1  0
  6  7  1  0
  7  8  2  0
  9  8  1  0
 10  9  2  0
 11 12  2  0
 11 10  1  0
 12  7  1  0
 13 22  1  0
 13  2  1  0
 14 13  2  0
 16 15  1  0
 17 16  2  0
 18 17  1  0
 19 18  2  0
 19 25  1  0
 21 20  1  6
 20 19  1  0
 21 23  1  0
 21 22  1  0
 23 35  1  0
 24 23  2  0
 25 26  2  0
 26 16  1  0
 27 28  1  0
 28 29  2  0
 30 28  1  0
 31 30  1  0
 32 31  1  0
 34 33  1  1
 33 32  1  0
 34 35  1  0
 36 34  1  0
 37 36  2  0
 38 36  1  0
M  END
$$$$
