WYR.pdb
     RDKit          3D

 38 40  0  0  1  0  0  0  0  0999 V2000
   27.9100  -17.8051  -14.5196 N   0  0  0  0  0  0  0  0  0  0  0  0
   26.5796  -18.3333  -14.4016 C   0  0  1  0  0  0  0  0  0  0  0  0
   25.8045  -18.1418  -15.6609 C   0  0  0  0  0  0  0  0  0  0  0  0
   25.4951  -16.7594  -16.0183 C   0  0  0  0  0  0  0  0  0  0  0  0
   26.3364  -15.8367  -16.6389 C   0  0  0  0  0  0  0  0  0  0  0  0
   25.6391  -14.7062  -16.7658 N   0  0  0  0  0  0  0  0  0  0  0  0
   24.3970  -14.8692  -16.2547 C   0  0  0  0  0  0  0  0  0  0  0  0
   23.2908  -14.0285  -16.1351 C   0  0  0  0  0  0  0  0  0  0  0  0
   22.1085  -14.4522  -15.5598 C   0  0  0  0  0  0  0  0  0  0  0  0
   21.9886  -15.7390  -15.0802 C   0  0  0  0  0  0  0  0  0  0  0  0
   23.0854  -16.5655  -15.2010 C   0  0  0  0  0  0  0  0  0  0  0  0
   24.2778  -16.1593  -15.7744 C   0  0  0  0  0  0  0  0  0  0  0  0
   26.5046  -19.6834  -13.8285 C   0  0  0  0  0  0  0  0  0  0  0  0
   27.2305  -20.5776  -14.3301 O   0  0  0  0  0  0  0  0  0  0  0  0
   29.3129  -19.8003   -7.3436 O   0  0  0  0  0  0  0  0  0  0  0  0
   28.2899  -20.2169   -8.2074 C   0  0  0  0  0  0  0  0  0  0  0  0
   27.0191  -19.7084   -8.0826 C   0  0  0  0  0  0  0  0  0  0  0  0
   25.9915  -20.0947   -8.9124 C   0  0  0  0  0  0  0  0  0  0  0  0
   26.2212  -21.0320   -9.9216 C   0  0  0  0  0  0  0  0  0  0  0  0
   25.1395  -21.4698  -10.8347 C   0  0  0  0  0  0  0  0  0  0  0  0
   25.6170  -21.4317  -12.2480 C   0  0  2  0  0  0  0  0  0  0  0  0
   25.6653  -20.0487  -12.7446 N   0  0  0  0  0  0  0  0  0  0  0  0
   24.7637  -22.1853  -13.2047 C   0  0  0  0  0  0  0  0  0  0  0  0
   25.0338  -23.3351  -13.6165 O   0  0  0  0  0  0  0  0  0  0  0  0
   27.4810  -21.5340  -10.0432 C   0  0  0  0  0  0  0  0  0  0  0  0
   28.5076  -21.1377   -9.2022 C   0  0  0  0  0  0  0  0  0  0  0  0
   18.5026  -25.4018  -10.8442 N   0  0  0  0  0  0  0  0  0  0  0  0
   18.6613  -24.0048  -10.6793 C   0  0  0  0  0  0  0  0  0  0  0  0
   18.3190  -23.3998   -9.5822 N   0  0  0  0  0  0  0  0  0  0  0  0
   19.2109  -23.2435  -11.7488 N   0  0  0  0  0  0  0  0  0  0  0  0
   19.4911  -23.9790  -12.9941 C   0  0  0  0  0  0  0  0  0  0  0  0
   20.0518  -23.0241  -13.9867 C   0  0  0  0  0  0  0  0  0  0  0  0
   21.2623  -22.3371  -13.5024 C   0  0  0  0  0  0  0  0  0  0  0  0
   22.5010  -22.4173  -14.3239 C   0  0  2  0  0  0  0  0  0  0  0  0
   23.5469  -21.5908  -13.7023 N   0  0  0  0  0  0  0  0  0  0  0  0
   22.3854  -22.1338  -15.7469 C   0  0  0  0  0  0  0  0  0  0  0  0
   22.8828  -21.1116  -16.2754 O   0  0  0  0  0  0  0  0  0  0  0  0
   21.7064  -23.0018  -16.5903 O   0  0  0  0  0  0  0  0  0  0  0  0
  2  1  1  6
  2  3  1  0
  3  4  1  0
  4  5  2  0
  4 12  1  0
  5  6  1  0
  6  7  1  0
  7  8  2  0
  9  8  1  0
 10  9  2  0
 11 12  2  0
 11 10  1  0
 12  7  1  0
 13 22  1  0
 13  2  1  0
 14 13  2  0
 16 15  1  0
 17 16  2  0
 18 17  1  0
 19 18  2  0
 19 25  1  0
 21 20  1  1
 20 19  1  0
 21 23  1  0
 21 22  1  0
 23 35  1  0
 24 23  2  0
 25 26  2  0
 26 16  1  0
 27 28  1  0
 28 29  2  0
 30 28  1  0
 31 30  1  0
 32 31  1  0
 34 33  1  1
 33 32  1  0
 34 35  1  0
 36 34  1  0
 37 36  2  0
 38 36  1  0
M  END
$$$$
