EWE.pdb
     RDKit          3D

 33 34  0  0  1  0  0  0  0  0999 V2000
    9.9240  -16.0586   18.0040 N   0  0  0  0  0  0  0  0  0  0  0  0
    9.5858  -16.9402   19.0983 C   0  0  1  0  0  0  0  0  0  0  0  0
   10.5236  -18.0907   19.1562 C   0  0  0  0  0  0  0  0  0  0  0  0
   10.7390  -18.6871   17.7868 C   0  0  0  0  0  0  0  0  0  0  0  0
   11.6123  -19.8871   17.8496 C   0  0  0  0  0  0  0  0  0  0  0  0
   11.8732  -20.5026   16.8004 O   0  0  0  0  0  0  0  0  0  0  0  0
    9.5120  -16.1498   20.3389 C   0  0  0  0  0  0  0  0  0  0  0  0
   10.3974  -15.2671   20.6148 O   0  0  0  0  0  0  0  0  0  0  0  0
   12.1091  -20.2848   19.0758 O   0  0  0  0  0  0  0  0  0  0  0  0
    8.4868  -16.2934   21.3099 N   0  0  0  0  0  0  0  0  0  0  0  0
    8.5606  -15.6600   22.6322 C   0  0  1  0  0  0  0  0  0  0  0  0
    7.1315  -15.4839   23.0545 C   0  0  0  0  0  0  0  0  0  0  0  0
    6.9318  -15.0611   24.4459 C   0  0  0  0  0  0  0  0  0  0  0  0
    6.5859  -15.8583   25.5176 C   0  0  0  0  0  0  0  0  0  0  0  0
    6.4588  -15.0620   26.5729 N   0  0  0  0  0  0  0  0  0  0  0  0
    6.7107  -13.7733   26.2187 C   0  0  0  0  0  0  0  0  0  0  0  0
    6.7168  -12.6059   26.9551 C   0  0  0  0  0  0  0  0  0  0  0  0
    7.0320  -11.4479   26.3269 C   0  0  0  0  0  0  0  0  0  0  0  0
    7.3496  -11.3554   24.9801 C   0  0  0  0  0  0  0  0  0  0  0  0
    7.3282  -12.5457   24.2810 C   0  0  0  0  0  0  0  0  0  0  0  0
    7.0163  -13.7389   24.8744 C   0  0  0  0  0  0  0  0  0  0  0  0
    9.4317  -16.3282   23.5807 C   0  0  0  0  0  0  0  0  0  0  0  0
    9.4888  -17.6066   23.5631 O   0  0  0  0  0  0  0  0  0  0  0  0
   10.2598  -15.7188   24.5682 N   0  0  0  0  0  0  0  0  0  0  0  0
   11.0819  -16.5218   25.4651 C   0  0  1  0  0  0  0  0  0  0  0  0
   10.3152  -17.5245   26.2534 C   0  0  0  0  0  0  0  0  0  0  0  0
   11.1698  -18.4095   27.1230 C   0  0  0  0  0  0  0  0  0  0  0  0
   10.3889  -18.7630   28.3281 C   0  0  0  0  0  0  0  0  0  0  0  0
    9.3711  -19.4925   28.3387 O   0  0  0  0  0  0  0  0  0  0  0  0
   12.2424  -17.1211   24.7484 C   0  0  0  0  0  0  0  0  0  0  0  0
   13.5281  -17.1344   25.2046 O   0  0  0  0  0  0  0  0  0  0  0  0
   10.7669  -18.2745   29.6042 O   0  0  0  0  0  0  0  0  0  0  0  0
   12.0095  -17.6582   23.6374 O   0  0  0  0  0  0  0  0  0  0  0  0
  2  1  1  6
  2  3  1  0
  3  4  1  0
  5  4  1  0
  5  9  1  0
  6  5  2  0
  7  2  1  0
  7  8  2  0
 10  7  1  0
 11 12  1  1
 11 10  1  0
 12 13  1  0
 13 14  2  0
 13 21  1  0
 14 15  1  0
 15 16  1  0
 16 17  2  0
 17 18  1  0
 19 18  2  0
 20 19  1  0
 21 20  2  0
 21 16  1  0
 22 11  1  0
 23 22  2  0
 24 22  1  0
 25 26  1  6
 25 24  1  0
 26 27  1  0
 28 27  1  0
 28 32  1  0
 29 28  2  0
 30 31  1  0
 30 25  1  0
 33 30  2  0
M  END
$$$$
