EWE.pdb
     RDKit          3D

 33 34  0  0  1  0  0  0  0  0999 V2000
    9.4363  -18.1701   21.6559 N   0  0  0  0  0  0  0  0  0  0  0  0
   10.6879  -17.4831   21.8801 C   0  0  1  0  0  0  0  0  0  0  0  0
   10.9704  -16.5306   20.7758 C   0  0  0  0  0  0  0  0  0  0  0  0
   10.8266  -17.1986   19.4303 C   0  0  0  0  0  0  0  0  0  0  0  0
   12.1172  -17.2200   18.6952 C   0  0  0  0  0  0  0  0  0  0  0  0
   12.5873  -18.3115   18.3271 O   0  0  0  0  0  0  0  0  0  0  0  0
   10.6608  -16.8730   23.2204 C   0  0  0  0  0  0  0  0  0  0  0  0
   11.6735  -16.2381   23.6791 O   0  0  0  0  0  0  0  0  0  0  0  0
   12.7587  -16.0229   18.4424 O   0  0  0  0  0  0  0  0  0  0  0  0
    9.5459  -16.9349   24.0966 N   0  0  0  0  0  0  0  0  0  0  0  0
    9.5498  -16.3028   25.4216 C   0  0  1  0  0  0  0  0  0  0  0  0
    8.1181  -15.9320   25.6749 C   0  0  0  0  0  0  0  0  0  0  0  0
    7.6138  -14.7932   24.8982 C   0  0  0  0  0  0  0  0  0  0  0  0
    7.2862  -14.7783   23.5580 C   0  0  0  0  0  0  0  0  0  0  0  0
    6.9265  -13.5358   23.2567 N   0  0  0  0  0  0  0  0  0  0  0  0
    7.0116  -12.7444   24.3596 C   0  0  0  0  0  0  0  0  0  0  0  0
    6.7359  -11.4053   24.5490 C   0  0  0  0  0  0  0  0  0  0  0  0
    6.8955  -10.8823   25.7883 C   0  0  0  0  0  0  0  0  0  0  0  0
    7.3237  -11.6084   26.8896 C   0  0  0  0  0  0  0  0  0  0  0  0
    7.5911  -12.9423   26.6548 C   0  0  0  0  0  0  0  0  0  0  0  0
    7.4433  -13.5133   25.4198 C   0  0  0  0  0  0  0  0  0  0  0  0
   10.2067  -17.0715   26.4619 C   0  0  0  0  0  0  0  0  0  0  0  0
   10.2618  -16.5808   27.6426 O   0  0  0  0  0  0  0  0  0  0  0  0
   10.8241  -18.3496   26.3299 N   0  0  0  0  0  0  0  0  0  0  0  0
   11.5569  -18.9527   27.4364 C   0  0  1  0  0  0  0  0  0  0  0  0
   10.8920  -20.1483   28.0222 C   0  0  0  0  0  0  0  0  0  0  0  0
   10.1974  -21.0243   27.0123 C   0  0  0  0  0  0  0  0  0  0  0  0
    9.5973  -22.1689   27.7314 C   0  0  0  0  0  0  0  0  0  0  0  0
    9.6870  -22.3726   28.9637 O   0  0  0  0  0  0  0  0  0  0  0  0
   12.9787  -19.2078   27.0719 C   0  0  0  0  0  0  0  0  0  0  0  0
   13.5010  -19.1014   25.8160 O   0  0  0  0  0  0  0  0  0  0  0  0
    8.8470  -23.1487   27.0336 O   0  0  0  0  0  0  0  0  0  0  0  0
   13.7530  -19.5441   28.0016 O   0  0  0  0  0  0  0  0  0  0  0  0
  2  1  1  6
  2  3  1  0
  3  4  1  0
  5  4  1  0
  5  9  1  0
  6  5  2  0
  7  2  1  0
  7  8  2  0
 10  7  1  0
 11 12  1  1
 11 10  1  0
 12 13  1  0
 13 14  2  0
 13 21  1  0
 14 15  1  0
 15 16  1  0
 16 17  2  0
 17 18  1  0
 19 18  2  0
 20 19  1  0
 21 20  2  0
 21 16  1  0
 22 11  1  0
 23 22  2  0
 24 22  1  0
 25 26  1  6
 25 24  1  0
 26 27  1  0
 28 27  1  0
 28 32  1  0
 29 28  2  0
 30 31  1  0
 30 25  1  0
 33 30  2  0
M  END
$$$$
