EWE.pdb
     RDKit          3D

 33 34  0  0  1  0  0  0  0  0999 V2000
    8.8545  -16.0829   17.7614 N   0  0  0  0  0  0  0  0  0  0  0  0
    8.5941  -17.0023   18.8457 C   0  0  1  0  0  0  0  0  0  0  0  0
    9.3706  -18.2563   18.6701 C   0  0  0  0  0  0  0  0  0  0  0  0
    9.3821  -18.6919   17.2254 C   0  0  0  0  0  0  0  0  0  0  0  0
    9.5587  -20.1619   17.1039 C   0  0  0  0  0  0  0  0  0  0  0  0
    9.6792  -20.8455   18.1364 O   0  0  0  0  0  0  0  0  0  0  0  0
    8.8340  -16.3095   20.1232 C   0  0  0  0  0  0  0  0  0  0  0  0
    9.9231  -15.6707   20.3351 O   0  0  0  0  0  0  0  0  0  0  0  0
    9.5847  -20.7268   15.8434 O   0  0  0  0  0  0  0  0  0  0  0  0
    7.9098  -16.2911   21.2001 N   0  0  0  0  0  0  0  0  0  0  0  0
    8.2285  -15.6897   22.5009 C   0  0  1  0  0  0  0  0  0  0  0  0
    6.8964  -15.4237   23.1382 C   0  0  0  0  0  0  0  0  0  0  0  0
    6.9413  -15.0099   24.5458 C   0  0  0  0  0  0  0  0  0  0  0  0
    6.9153  -15.8285   25.6562 C   0  0  0  0  0  0  0  0  0  0  0  0
    6.9197  -15.0393   26.7245 N   0  0  0  0  0  0  0  0  0  0  0  0
    6.9469  -13.7346   26.3414 C   0  0  0  0  0  0  0  0  0  0  0  0
    6.9735  -12.5655   27.0746 C   0  0  0  0  0  0  0  0  0  0  0  0
    7.0205  -11.3868   26.4087 C   0  0  0  0  0  0  0  0  0  0  0  0
    7.0414  -11.2748   25.0265 C   0  0  0  0  0  0  0  0  0  0  0  0
    7.0102  -12.4679   24.3328 C   0  0  0  0  0  0  0  0  0  0  0  0
    6.9633  -13.6817   24.9635 C   0  0  0  0  0  0  0  0  0  0  0  0
    9.1840  -16.4343   23.2993 C   0  0  0  0  0  0  0  0  0  0  0  0
    9.1555  -17.7129   23.2523 O   0  0  0  0  0  0  0  0  0  0  0  0
   10.1851  -15.9025   24.1637 N   0  0  0  0  0  0  0  0  0  0  0  0
   11.2544  -16.7429   24.6884 C   0  0  1  0  0  0  0  0  0  0  0  0
   12.6223  -16.2470   24.3760 C   0  0  0  0  0  0  0  0  0  0  0  0
   13.7303  -17.1280   24.8916 C   0  0  0  0  0  0  0  0  0  0  0  0
   15.0195  -16.5479   24.4572 C   0  0  0  0  0  0  0  0  0  0  0  0
   15.1484  -15.4881   23.8026 O   0  0  0  0  0  0  0  0  0  0  0  0
   11.0632  -17.0233   26.1391 C   0  0  0  0  0  0  0  0  0  0  0  0
   10.0731  -16.5002   26.9184 O   0  0  0  0  0  0  0  0  0  0  0  0
   16.2442  -17.1880   24.7738 O   0  0  0  0  0  0  0  0  0  0  0  0
   11.8812  -17.8079   26.6797 O   0  0  0  0  0  0  0  0  0  0  0  0
  2  1  1  6
  2  3  1  0
  3  4  1  0
  5  4  1  0
  5  9  1  0
  6  5  2  0
  7  2  1  0
  7  8  2  0
 10  7  1  0
 11 12  1  1
 11 10  1  0
 12 13  1  0
 13 14  2  0
 13 21  1  0
 14 15  1  0
 15 16  1  0
 16 17  2  0
 17 18  1  0
 19 18  2  0
 20 19  1  0
 21 20  2  0
 21 16  1  0
 22 11  1  0
 23 22  2  0
 24 22  1  0
 25 26  1  1
 25 24  1  0
 26 27  1  0
 28 27  1  0
 28 32  1  0
 29 28  2  0
 30 31  1  0
 30 25  1  0
 33 30  2  0
M  END
$$$$
