EWE.pdb
     RDKit          3D

 33 34  0  0  1  0  0  0  0  0999 V2000
    9.5825  -18.4559   19.8780 N   0  0  0  0  0  0  0  0  0  0  0  0
   10.7188  -17.5796   20.0513 C   0  0  1  0  0  0  0  0  0  0  0  0
   11.0743  -16.9193   18.7690 C   0  0  0  0  0  0  0  0  0  0  0  0
   10.0461  -17.2100   17.7034 C   0  0  0  0  0  0  0  0  0  0  0  0
   10.5987  -16.9887   16.3424 C   0  0  0  0  0  0  0  0  0  0  0  0
   11.7959  -16.6741   16.2179 O   0  0  0  0  0  0  0  0  0  0  0  0
   10.4368  -16.6505   21.1588 C   0  0  0  0  0  0  0  0  0  0  0  0
   11.2957  -15.7729   21.5212 O   0  0  0  0  0  0  0  0  0  0  0  0
    9.7629  -17.1388   15.2526 O   0  0  0  0  0  0  0  0  0  0  0  0
    9.2273  -16.6469   21.9014 N   0  0  0  0  0  0  0  0  0  0  0  0
    9.0314  -15.7979   23.0829 C   0  0  1  0  0  0  0  0  0  0  0  0
    7.5476  -15.7849   23.3053 C   0  0  0  0  0  0  0  0  0  0  0  0
    7.1043  -15.1932   24.5733 C   0  0  0  0  0  0  0  0  0  0  0  0
    6.4753  -15.8377   25.6187 C   0  0  0  0  0  0  0  0  0  0  0  0
    6.2055  -14.9192   26.5393 N   0  0  0  0  0  0  0  0  0  0  0  0
    6.6391  -13.6991   26.1231 C   0  0  0  0  0  0  0  0  0  0  0  0
    6.5980  -12.4582   26.7260 C   0  0  0  0  0  0  0  0  0  0  0  0
    7.1381  -11.4034   26.0698 C   0  0  0  0  0  0  0  0  0  0  0  0
    7.7331  -11.4870   24.8198 C   0  0  0  0  0  0  0  0  0  0  0  0
    7.7496  -12.7453   24.2522 C   0  0  0  0  0  0  0  0  0  0  0  0
    7.2168  -13.8393   24.8787 C   0  0  0  0  0  0  0  0  0  0  0  0
    9.8484  -16.1500   24.2290 C   0  0  0  0  0  0  0  0  0  0  0  0
   10.4816  -15.2192   24.8378 O   0  0  0  0  0  0  0  0  0  0  0  0
   10.0448  -17.4495   24.7810 N   0  0  0  0  0  0  0  0  0  0  0  0
   10.8978  -17.6549   25.9452 C   0  0  1  0  0  0  0  0  0  0  0  0
   10.2059  -18.2951   27.0967 C   0  0  0  0  0  0  0  0  0  0  0  0
   11.1116  -18.6244   28.2548 C   0  0  0  0  0  0  0  0  0  0  0  0
   10.2922  -19.2456   29.3178 C   0  0  0  0  0  0  0  0  0  0  0  0
    9.3569  -20.0559   29.1256 O   0  0  0  0  0  0  0  0  0  0  0  0
   12.1624  -18.3508   25.5766 C   0  0  0  0  0  0  0  0  0  0  0  0
   13.4003  -18.0433   26.0606 O   0  0  0  0  0  0  0  0  0  0  0  0
   10.5309  -18.9468   30.6829 O   0  0  0  0  0  0  0  0  0  0  0  0
   12.0728  -19.2976   24.7565 O   0  0  0  0  0  0  0  0  0  0  0  0
  2  1  1  6
  2  3  1  0
  3  4  1  0
  5  4  1  0
  5  9  1  0
  6  5  2  0
  7  2  1  0
  7  8  2  0
 10  7  1  0
 11 12  1  1
 11 10  1  0
 12 13  1  0
 13 14  2  0
 13 21  1  0
 14 15  1  0
 15 16  1  0
 16 17  2  0
 17 18  1  0
 19 18  2  0
 20 19  1  0
 21 20  2  0
 21 16  1  0
 22 11  1  0
 23 22  2  0
 24 22  1  0
 25 26  1  1
 25 24  1  0
 26 27  1  0
 28 27  1  0
 28 32  1  0
 29 28  2  0
 30 31  1  0
 30 25  1  0
 33 30  2  0
M  END
$$$$
