EWE.pdb
     RDKit          3D

 33 34  0  0  1  0  0  0  0  0999 V2000
    9.1468  -18.1374   21.4671 N   0  0  0  0  0  0  0  0  0  0  0  0
   10.4468  -17.6061   21.8088 C   0  0  1  0  0  0  0  0  0  0  0  0
   10.8871  -16.6055   20.8031 C   0  0  0  0  0  0  0  0  0  0  0  0
   10.6950  -17.1239   19.3989 C   0  0  0  0  0  0  0  0  0  0  0  0
   11.2257  -16.1698   18.3916 C   0  0  0  0  0  0  0  0  0  0  0  0
   11.7956  -15.1339   18.7789 O   0  0  0  0  0  0  0  0  0  0  0  0
   10.4050  -17.1031   23.1925 C   0  0  0  0  0  0  0  0  0  0  0  0
   11.3826  -16.4393   23.6851 O   0  0  0  0  0  0  0  0  0  0  0  0
   11.0690  -16.4627   17.0507 O   0  0  0  0  0  0  0  0  0  0  0  0
    9.3131  -17.3054   24.0763 N   0  0  0  0  0  0  0  0  0  0  0  0
    9.3296  -16.8384   25.4680 C   0  0  1  0  0  0  0  0  0  0  0  0
    7.9177  -16.4148   25.7483 C   0  0  0  0  0  0  0  0  0  0  0  0
    7.4530  -15.2364   25.0067 C   0  0  0  0  0  0  0  0  0  0  0  0
    7.1720  -15.1579   23.6582 C   0  0  0  0  0  0  0  0  0  0  0  0
    6.8365  -13.8988   23.4008 N   0  0  0  0  0  0  0  0  0  0  0  0
    6.8921  -13.1584   24.5403 C   0  0  0  0  0  0  0  0  0  0  0  0
    6.6245  -11.8257   24.7802 C   0  0  0  0  0  0  0  0  0  0  0  0
    6.7469  -11.3603   26.0464 C   0  0  0  0  0  0  0  0  0  0  0  0
    7.1289  -12.1400   27.1279 C   0  0  0  0  0  0  0  0  0  0  0  0
    7.3898  -13.4653   26.8428 C   0  0  0  0  0  0  0  0  0  0  0  0
    7.2785  -13.9790   25.5791 C   0  0  0  0  0  0  0  0  0  0  0  0
    9.9211  -17.7647   26.4151 C   0  0  0  0  0  0  0  0  0  0  0  0
    9.9301  -17.4489   27.6553 O   0  0  0  0  0  0  0  0  0  0  0  0
   10.5183  -19.0269   26.1281 N   0  0  0  0  0  0  0  0  0  0  0  0
   11.4505  -19.6508   27.0592 C   0  0  1  0  0  0  0  0  0  0  0  0
   12.8819  -19.4715   26.6935 C   0  0  0  0  0  0  0  0  0  0  0  0
   13.8491  -20.1057   27.6588 C   0  0  0  0  0  0  0  0  0  0  0  0
   15.2222  -19.8126   27.1939 C   0  0  0  0  0  0  0  0  0  0  0  0
   16.1452  -19.3637   27.9113 O   0  0  0  0  0  0  0  0  0  0  0  0
   11.1633  -19.2517   28.4655 C   0  0  0  0  0  0  0  0  0  0  0  0
   11.4847  -18.0492   29.0240 O   0  0  0  0  0  0  0  0  0  0  0  0
   15.5919  -20.0359   25.8435 O   0  0  0  0  0  0  0  0  0  0  0  0
   10.5747  -20.0941   29.1872 O   0  0  0  0  0  0  0  0  0  0  0  0
  2  1  1  6
  2  3  1  0
  3  4  1  0
  5  4  1  0
  5  9  1  0
  6  5  2  0
  7  2  1  0
  7  8  2  0
 10  7  1  0
 11 12  1  1
 11 10  1  0
 12 13  1  0
 13 14  2  0
 13 21  1  0
 14 15  1  0
 15 16  1  0
 16 17  2  0
 17 18  1  0
 19 18  2  0
 20 19  1  0
 21 20  2  0
 21 16  1  0
 22 11  1  0
 23 22  2  0
 24 22  1  0
 25 26  1  6
 25 24  1  0
 26 27  1  0
 28 27  1  0
 28 32  1  0
 29 28  2  0
 30 31  1  0
 30 25  1  0
 33 30  2  0
M  END
$$$$
