EWE.pdb
     RDKit          3D

 33 34  0  0  1  0  0  0  0  0999 V2000
    8.7729  -15.1184   19.9840 N   0  0  0  0  0  0  0  0  0  0  0  0
    9.2415  -16.2778   20.7087 C   0  0  1  0  0  0  0  0  0  0  0  0
   10.4146  -16.8845   20.0288 C   0  0  0  0  0  0  0  0  0  0  0  0
    9.9981  -17.6257   18.7820 C   0  0  0  0  0  0  0  0  0  0  0  0
   11.1697  -18.2175   18.0865 C   0  0  0  0  0  0  0  0  0  0  0  0
   11.8569  -17.4995   17.3381 O   0  0  0  0  0  0  0  0  0  0  0  0
    9.4788  -15.8966   22.1115 C   0  0  0  0  0  0  0  0  0  0  0  0
   10.0374  -14.7839   22.4094 O   0  0  0  0  0  0  0  0  0  0  0  0
   11.4610  -19.5522   18.2921 O   0  0  0  0  0  0  0  0  0  0  0  0
    9.1231  -16.7044   23.2229 N   0  0  0  0  0  0  0  0  0  0  0  0
    9.4781  -16.3469   24.6018 C   0  0  1  0  0  0  0  0  0  0  0  0
    8.1841  -16.4039   25.3592 C   0  0  0  0  0  0  0  0  0  0  0  0
    7.2562  -15.2946   25.1082 C   0  0  0  0  0  0  0  0  0  0  0  0
    6.1978  -15.2775   24.2232 C   0  0  0  0  0  0  0  0  0  0  0  0
    5.6622  -14.0634   24.2769 N   0  0  0  0  0  0  0  0  0  0  0  0
    6.3408  -13.2924   25.1685 C   0  0  0  0  0  0  0  0  0  0  0  0
    6.1581  -11.9859   25.5744 C   0  0  0  0  0  0  0  0  0  0  0  0
    6.9921  -11.4791   26.5138 C   0  0  0  0  0  0  0  0  0  0  0  0
    8.0287  -12.1909   27.0989 C   0  0  0  0  0  0  0  0  0  0  0  0
    8.1775  -13.4919   26.6616 C   0  0  0  0  0  0  0  0  0  0  0  0
    7.3581  -14.0457   25.7155 C   0  0  0  0  0  0  0  0  0  0  0  0
   10.5829  -17.1020   25.1623 C   0  0  0  0  0  0  0  0  0  0  0  0
   10.4747  -18.3746   25.2444 O   0  0  0  0  0  0  0  0  0  0  0  0
   11.8176  -16.5866   25.6543 N   0  0  0  0  0  0  0  0  0  0  0  0
   12.8127  -17.4612   26.2624 C   0  0  1  0  0  0  0  0  0  0  0  0
   14.2172  -17.1137   25.9141 C   0  0  0  0  0  0  0  0  0  0  0  0
   14.4145  -16.7118   24.4756 C   0  0  0  0  0  0  0  0  0  0  0  0
   15.8560  -16.4596   24.2617 C   0  0  0  0  0  0  0  0  0  0  0  0
   16.7480  -16.5971   25.1299 O   0  0  0  0  0  0  0  0  0  0  0  0
   12.6004  -17.5876   27.7315 C   0  0  0  0  0  0  0  0  0  0  0  0
   13.2762  -18.4405   28.5544 O   0  0  0  0  0  0  0  0  0  0  0  0
   16.3356  -16.0287   22.9991 O   0  0  0  0  0  0  0  0  0  0  0  0
   11.7300  -16.8432   28.2468 O   0  0  0  0  0  0  0  0  0  0  0  0
  2  1  1  6
  2  3  1  0
  3  4  1  0
  5  4  1  0
  5  9  1  0
  6  5  2  0
  7  2  1  0
  7  8  2  0
 10  7  1  0
 11 12  1  1
 11 10  1  0
 12 13  1  0
 13 14  2  0
 13 21  1  0
 14 15  1  0
 15 16  1  0
 16 17  2  0
 17 18  1  0
 19 18  2  0
 20 19  1  0
 21 20  2  0
 21 16  1  0
 22 11  1  0
 23 22  2  0
 24 22  1  0
 25 26  1  1
 25 24  1  0
 26 27  1  0
 28 27  1  0
 28 32  1  0
 29 28  2  0
 30 31  1  0
 30 25  1  0
 33 30  2  0
M  END
$$$$
