EWE.pdb
     RDKit          3D

 33 34  0  0  1  0  0  0  0  0999 V2000
    8.7460  -18.4912   21.7241 N   0  0  0  0  0  0  0  0  0  0  0  0
    9.6711  -17.3963   21.5387 C   0  0  1  0  0  0  0  0  0  0  0  0
    9.1785  -16.4626   20.4937 C   0  0  0  0  0  0  0  0  0  0  0  0
    9.0428  -17.1587   19.1616 C   0  0  0  0  0  0  0  0  0  0  0  0
    8.5303  -16.2351   18.1172 C   0  0  0  0  0  0  0  0  0  0  0  0
    9.2126  -15.2460   17.7947 O   0  0  0  0  0  0  0  0  0  0  0  0
    9.9307  -16.7680   22.8453 C   0  0  0  0  0  0  0  0  0  0  0  0
   10.7577  -15.7975   22.9603 O   0  0  0  0  0  0  0  0  0  0  0  0
    7.3067  -16.5032   17.5344 O   0  0  0  0  0  0  0  0  0  0  0  0
    9.3090  -17.1714   24.0558 N   0  0  0  0  0  0  0  0  0  0  0  0
    9.6141  -16.5406   25.3458 C   0  0  1  0  0  0  0  0  0  0  0  0
    8.2796  -16.3439   26.0028 C   0  0  0  0  0  0  0  0  0  0  0  0
    7.3845  -15.3876   25.3402 C   0  0  0  0  0  0  0  0  0  0  0  0
    6.5156  -15.6431   24.2993 C   0  0  0  0  0  0  0  0  0  0  0  0
    5.9437  -14.4892   23.9746 N   0  0  0  0  0  0  0  0  0  0  0  0
    6.4153  -13.4934   24.7719 C   0  0  0  0  0  0  0  0  0  0  0  0
    6.1194  -12.1463   24.8263 C   0  0  0  0  0  0  0  0  0  0  0  0
    6.7422  -11.3856   25.7582 C   0  0  0  0  0  0  0  0  0  0  0  0
    7.6679  -11.8736   26.6683 C   0  0  0  0  0  0  0  0  0  0  0  0
    7.9365  -13.2247   26.5766 C   0  0  0  0  0  0  0  0  0  0  0  0
    7.3307  -14.0315   25.6518 C   0  0  0  0  0  0  0  0  0  0  0  0
   10.6227  -17.2227   26.1347 C   0  0  0  0  0  0  0  0  0  0  0  0
   10.9748  -16.7096   27.2531 O   0  0  0  0  0  0  0  0  0  0  0  0
   11.2984  -18.4347   25.8083 N   0  0  0  0  0  0  0  0  0  0  0  0
   12.2338  -19.0529   26.7400 C   0  0  1  0  0  0  0  0  0  0  0  0
   13.6368  -18.5790   26.5924 C   0  0  0  0  0  0  0  0  0  0  0  0
   14.0541  -18.3215   25.1678 C   0  0  0  0  0  0  0  0  0  0  0  0
   15.4572  -17.8542   25.1766 C   0  0  0  0  0  0  0  0  0  0  0  0
   16.0416  -17.3109   24.2114 O   0  0  0  0  0  0  0  0  0  0  0  0
   11.7425  -18.9629   28.1435 C   0  0  0  0  0  0  0  0  0  0  0  0
   12.3404  -19.5398   29.2256 O   0  0  0  0  0  0  0  0  0  0  0  0
   16.2609  -17.9992   26.3354 O   0  0  0  0  0  0  0  0  0  0  0  0
   10.6952  -18.2979   28.3384 O   0  0  0  0  0  0  0  0  0  0  0  0
  2  1  1  1
  2  3  1  0
  3  4  1  0
  5  4  1  0
  5  9  1  0
  6  5  2  0
  7  2  1  0
  7  8  2  0
 10  7  1  0
 11 12  1  1
 11 10  1  0
 12 13  1  0
 13 14  2  0
 13 21  1  0
 14 15  1  0
 15 16  1  0
 16 17  2  0
 17 18  1  0
 19 18  2  0
 20 19  1  0
 21 20  2  0
 21 16  1  0
 22 11  1  0
 23 22  2  0
 24 22  1  0
 25 26  1  1
 25 24  1  0
 26 27  1  0
 28 27  1  0
 28 32  1  0
 29 28  2  0
 30 31  1  0
 30 25  1  0
 33 30  2  0
M  END
$$$$
