EWE.pdb
     RDKit          3D

 33 34  0  0  1  0  0  0  0  0999 V2000
    7.8781  -17.7082   18.7067 N   0  0  0  0  0  0  0  0  0  0  0  0
    9.1218  -16.9742   18.7651 C   0  0  1  0  0  0  0  0  0  0  0  0
    9.2724  -16.0987   17.5745 C   0  0  0  0  0  0  0  0  0  0  0  0
    8.7259  -16.7653   16.3358 C   0  0  0  0  0  0  0  0  0  0  0  0
    8.9255  -15.9184   15.1318 C   0  0  0  0  0  0  0  0  0  0  0  0
   10.0041  -15.9853   14.5155 O   0  0  0  0  0  0  0  0  0  0  0  0
    9.1959  -16.2679   20.0554 C   0  0  0  0  0  0  0  0  0  0  0  0
   10.2074  -15.5429   20.3558 O   0  0  0  0  0  0  0  0  0  0  0  0
    7.9037  -15.0787   14.7324 O   0  0  0  0  0  0  0  0  0  0  0  0
    8.1857  -16.3282   21.0506 N   0  0  0  0  0  0  0  0  0  0  0  0
    8.3582  -15.7391   22.3842 C   0  0  1  0  0  0  0  0  0  0  0  0
    6.9638  -15.4736   22.8705 C   0  0  0  0  0  0  0  0  0  0  0  0
    6.8503  -15.0869   24.2820 C   0  0  0  0  0  0  0  0  0  0  0  0
    6.5091  -15.8994   25.3436 C   0  0  0  0  0  0  0  0  0  0  0  0
    6.4737  -15.1329   26.4277 N   0  0  0  0  0  0  0  0  0  0  0  0
    6.7804  -13.8485   26.1018 C   0  0  0  0  0  0  0  0  0  0  0  0
    6.8842  -12.7082   26.8726 C   0  0  0  0  0  0  0  0  0  0  0  0
    7.2345  -11.5487   26.2661 C   0  0  0  0  0  0  0  0  0  0  0  0
    7.4961  -11.4288   24.9094 C   0  0  0  0  0  0  0  0  0  0  0  0
    7.3775  -12.5924   24.1760 C   0  0  0  0  0  0  0  0  0  0  0  0
    7.0270  -13.7861   24.7465 C   0  0  0  0  0  0  0  0  0  0  0  0
    9.2160  -16.4941   23.2781 C   0  0  0  0  0  0  0  0  0  0  0  0
    9.1315  -17.7712   23.2733 O   0  0  0  0  0  0  0  0  0  0  0  0
   10.1739  -15.9744   24.1970 N   0  0  0  0  0  0  0  0  0  0  0  0
   11.2005  -16.8282   24.7820 C   0  0  1  0  0  0  0  0  0  0  0  0
   12.5860  -16.4822   24.3633 C   0  0  0  0  0  0  0  0  0  0  0  0
   13.6566  -17.2981   25.0399 C   0  0  0  0  0  0  0  0  0  0  0  0
   14.9598  -16.9317   24.4445 C   0  0  0  0  0  0  0  0  0  0  0  0
   15.1294  -16.0565   23.5649 O   0  0  0  0  0  0  0  0  0  0  0  0
   11.0540  -16.9186   26.2618 C   0  0  0  0  0  0  0  0  0  0  0  0
   11.6505  -17.8535   27.0565 O   0  0  0  0  0  0  0  0  0  0  0  0
   16.1514  -17.5799   24.8566 O   0  0  0  0  0  0  0  0  0  0  0  0
   10.3239  -16.0595   26.8150 O   0  0  0  0  0  0  0  0  0  0  0  0
  2  1  1  6
  2  3  1  0
  3  4  1  0
  5  4  1  0
  5  9  1  0
  6  5  2  0
  7  2  1  0
  7  8  2  0
 10  7  1  0
 11 12  1  1
 11 10  1  0
 12 13  1  0
 13 14  2  0
 13 21  1  0
 14 15  1  0
 15 16  1  0
 16 17  2  0
 17 18  1  0
 19 18  2  0
 20 19  1  0
 21 20  2  0
 21 16  1  0
 22 11  1  0
 23 22  2  0
 24 22  1  0
 25 26  1  1
 25 24  1  0
 26 27  1  0
 28 27  1  0
 28 32  1  0
 29 28  2  0
 30 31  1  0
 30 25  1  0
 33 30  2  0
M  END
$$$$
