EWE.pdb
     RDKit          3D

 33 34  0  0  1  0  0  0  0  0999 V2000
   10.5060  -18.5258   20.4416 N   0  0  0  0  0  0  0  0  0  0  0  0
   11.3463  -17.3571   20.5721 C   0  0  1  0  0  0  0  0  0  0  0  0
   11.3873  -16.5938   19.2984 C   0  0  0  0  0  0  0  0  0  0  0  0
   11.1777  -17.5025   18.1120 C   0  0  0  0  0  0  0  0  0  0  0  0
   11.3633  -16.7732   16.8312 C   0  0  0  0  0  0  0  0  0  0  0  0
   11.1303  -17.3607   15.7597 O   0  0  0  0  0  0  0  0  0  0  0  0
   10.8959  -16.5766   21.7372 C   0  0  0  0  0  0  0  0  0  0  0  0
   11.6750  -15.7411   22.3152 O   0  0  0  0  0  0  0  0  0  0  0  0
   11.7913  -15.4601   16.8695 O   0  0  0  0  0  0  0  0  0  0  0  0
    9.6001  -16.6798   22.3069 N   0  0  0  0  0  0  0  0  0  0  0  0
    9.2184  -15.9632   23.5300 C   0  0  1  0  0  0  0  0  0  0  0  0
    7.7883  -15.5649   23.3119 C   0  0  0  0  0  0  0  0  0  0  0  0
    7.1233  -14.9436   24.4635 C   0  0  0  0  0  0  0  0  0  0  0  0
    6.3041  -15.5614   25.3859 C   0  0  0  0  0  0  0  0  0  0  0  0
    5.8775  -14.6218   26.2221 N   0  0  0  0  0  0  0  0  0  0  0  0
    6.3939  -13.4139   25.8701 C   0  0  0  0  0  0  0  0  0  0  0  0
    6.2546  -12.1602   26.4305 C   0  0  0  0  0  0  0  0  0  0  0  0
    6.9185  -11.1232   25.8658 C   0  0  0  0  0  0  0  0  0  0  0  0
    7.7346  -11.2373   24.7503 C   0  0  0  0  0  0  0  0  0  0  0  0
    7.8430  -12.5075   24.2203 C   0  0  0  0  0  0  0  0  0  0  0  0
    7.1914  -13.5842   24.7580 C   0  0  0  0  0  0  0  0  0  0  0  0
    9.5064  -16.6683   24.7648 C   0  0  0  0  0  0  0  0  0  0  0  0
    9.1920  -16.1127   25.8740 O   0  0  0  0  0  0  0  0  0  0  0  0
   10.1208  -17.9471   24.9042 N   0  0  0  0  0  0  0  0  0  0  0  0
   10.2757  -18.5724   26.2119 C   0  0  1  0  0  0  0  0  0  0  0  0
   10.5539  -20.0333   26.1547 C   0  0  0  0  0  0  0  0  0  0  0  0
   11.7438  -20.4018   25.3073 C   0  0  0  0  0  0  0  0  0  0  0  0
   11.6600  -21.8458   24.9993 C   0  0  0  0  0  0  0  0  0  0  0  0
   10.8461  -22.3663   24.2024 O   0  0  0  0  0  0  0  0  0  0  0  0
   11.2575  -17.8340   27.0547 C   0  0  0  0  0  0  0  0  0  0  0  0
   12.0161  -16.7791   26.6387 O   0  0  0  0  0  0  0  0  0  0  0  0
   12.5404  -22.7697   25.6167 O   0  0  0  0  0  0  0  0  0  0  0  0
   11.3889  -18.2172   28.2433 O   0  0  0  0  0  0  0  0  0  0  0  0
  2  1  1  6
  2  3  1  0
  3  4  1  0
  5  4  1  0
  5  9  1  0
  6  5  2  0
  7  2  1  0
  7  8  2  0
 10  7  1  0
 11 12  1  6
 11 10  1  0
 12 13  1  0
 13 14  2  0
 13 21  1  0
 14 15  1  0
 15 16  1  0
 16 17  2  0
 17 18  1  0
 19 18  2  0
 20 19  1  0
 21 20  2  0
 21 16  1  0
 22 11  1  0
 23 22  2  0
 24 22  1  0
 25 26  1  6
 25 24  1  0
 26 27  1  0
 28 27  1  0
 28 32  1  0
 29 28  2  0
 30 31  1  0
 30 25  1  0
 33 30  2  0
M  END
$$$$
