EWE.pdb
     RDKit          3D

 33 34  0  0  1  0  0  0  0  0999 V2000
    8.9371  -18.2727   20.6750 N   0  0  0  0  0  0  0  0  0  0  0  0
   10.1416  -17.5004   20.8793 C   0  0  1  0  0  0  0  0  0  0  0  0
   10.3135  -16.4976   19.7970 C   0  0  0  0  0  0  0  0  0  0  0  0
    9.6961  -16.9780   18.5065 C   0  0  0  0  0  0  0  0  0  0  0  0
    9.9786  -16.0410   17.3889 C   0  0  0  0  0  0  0  0  0  0  0  0
   10.7254  -15.0664   17.5889 O   0  0  0  0  0  0  0  0  0  0  0  0
   10.1169  -16.9335   22.2385 C   0  0  0  0  0  0  0  0  0  0  0  0
   11.0334  -16.1342   22.6388 O   0  0  0  0  0  0  0  0  0  0  0  0
    9.4006  -16.2812   16.1573 O   0  0  0  0  0  0  0  0  0  0  0  0
    9.1083  -17.2157   23.1964 N   0  0  0  0  0  0  0  0  0  0  0  0
    9.1658  -16.7088   24.5729 C   0  0  1  0  0  0  0  0  0  0  0  0
    7.7435  -16.3827   24.9223 C   0  0  0  0  0  0  0  0  0  0  0  0
    7.2434  -15.1036   24.4042 C   0  0  0  0  0  0  0  0  0  0  0  0
    6.8842  -14.8145   23.1038 C   0  0  0  0  0  0  0  0  0  0  0  0
    6.5420  -13.5317   23.0681 N   0  0  0  0  0  0  0  0  0  0  0  0
    6.6688  -12.9798   24.3047 C   0  0  0  0  0  0  0  0  0  0  0  0
    6.4240  -11.7024   24.7667 C   0  0  0  0  0  0  0  0  0  0  0  0
    6.6233  -11.4420   26.0810 C   0  0  0  0  0  0  0  0  0  0  0  0
    7.0633  -12.3811   27.0018 C   0  0  0  0  0  0  0  0  0  0  0  0
    7.2989  -13.6441   26.4967 C   0  0  0  0  0  0  0  0  0  0  0  0
    7.1105  -13.9526   25.1767 C   0  0  0  0  0  0  0  0  0  0  0  0
    9.8763  -17.5611   25.5075 C   0  0  0  0  0  0  0  0  0  0  0  0
    9.4035  -18.7242   25.7556 O   0  0  0  0  0  0  0  0  0  0  0  0
   11.0767  -17.2546   26.2127 N   0  0  0  0  0  0  0  0  0  0  0  0
   11.7068  -18.2317   27.0921 C   0  0  1  0  0  0  0  0  0  0  0  0
   13.1624  -18.4180   26.8449 C   0  0  0  0  0  0  0  0  0  0  0  0
   13.8568  -17.1968   26.3007 C   0  0  0  0  0  0  0  0  0  0  0  0
   15.2551  -17.5634   25.9881 C   0  0  0  0  0  0  0  0  0  0  0  0
   15.6951  -17.8150   24.8430 O   0  0  0  0  0  0  0  0  0  0  0  0
   11.3989  -17.9535   28.5230 C   0  0  0  0  0  0  0  0  0  0  0  0
   11.7700  -18.7385   29.5753 O   0  0  0  0  0  0  0  0  0  0  0  0
   16.2267  -17.6534   27.0167 O   0  0  0  0  0  0  0  0  0  0  0  0
   10.7482  -16.9089   28.7724 O   0  0  0  0  0  0  0  0  0  0  0  0
  2  1  1  6
  2  3  1  0
  3  4  1  0
  5  4  1  0
  5  9  1  0
  6  5  2  0
  7  2  1  0
  7  8  2  0
 10  7  1  0
 11 12  1  1
 11 10  1  0
 12 13  1  0
 13 14  2  0
 13 21  1  0
 14 15  1  0
 15 16  1  0
 16 17  2  0
 17 18  1  0
 19 18  2  0
 20 19  1  0
 21 20  2  0
 21 16  1  0
 22 11  1  0
 23 22  2  0
 24 22  1  0
 25 26  1  1
 25 24  1  0
 26 27  1  0
 28 27  1  0
 28 32  1  0
 29 28  2  0
 30 31  1  0
 30 25  1  0
 33 30  2  0
M  END
$$$$
