TKI.pdb
     RDKit          3D

 25 24  0  0  1  0  0  0  0  0999 V2000
   30.3250  -23.7836  -15.3737 C   0  0  0  0  0  0  0  0  0  0  0  0
   31.0116  -23.5173  -14.0534 C   0  0  1  0  0  0  0  0  0  0  0  0
   32.1668  -24.3379  -14.0712 O   0  0  0  0  0  0  0  0  0  0  0  0
   31.4352  -22.0620  -14.0057 C   0  0  2  0  0  0  0  0  0  0  0  0
   32.1178  -21.9232  -12.7005 N   0  0  0  0  0  0  0  0  0  0  0  0
   30.2421  -21.1808  -13.9102 C   0  0  0  0  0  0  0  0  0  0  0  0
   29.8054  -20.7465  -12.7842 O   0  0  0  0  0  0  0  0  0  0  0  0
   29.4863  -20.7419  -15.0269 N   0  0  0  0  0  0  0  0  0  0  0  0
   28.3174  -19.8777  -14.9082 C   0  0  1  0  0  0  0  0  0  0  0  0
   27.8458  -19.4934  -16.2802 C   0  0  0  0  0  0  0  0  0  0  0  0
   26.6233  -18.6195  -16.2696 C   0  0  0  0  0  0  0  0  0  0  0  0
   26.2486  -18.3751  -17.7351 C   0  0  0  0  0  0  0  0  0  0  0  0
   25.1285  -17.3604  -17.8367 C   0  0  0  0  0  0  0  0  0  0  0  0
   24.8529  -16.9969  -19.2089 N   0  0  0  0  0  0  0  0  0  0  0  0
   27.3131  -20.6108  -14.1234 C   0  0  0  0  0  0  0  0  0  0  0  0
   27.0599  -21.8360  -14.3023 O   0  0  0  0  0  0  0  0  0  0  0  0
   25.3277  -20.7617   -8.4682 C   0  0  0  0  0  0  0  0  0  0  0  0
   25.1351  -21.2772   -9.8973 C   0  0  0  0  0  0  0  0  0  0  0  0
   26.0709  -20.5293  -10.8023 C   0  0  2  0  0  0  0  0  0  0  0  0
   25.9267  -19.0466  -10.4805 C   0  0  0  0  0  0  0  0  0  0  0  0
   25.6460  -20.7284  -12.2386 C   0  0  2  0  0  0  0  0  0  0  0  0
   26.5339  -19.9874  -13.0827 N   0  0  0  0  0  0  0  0  0  0  0  0
   24.2355  -20.2889  -12.3478 C   0  0  0  0  0  0  0  0  0  0  0  0
   23.8197  -19.1897  -13.0505 O   0  0  0  0  0  0  0  0  0  0  0  0
   23.3730  -20.9829  -11.7490 O   0  0  0  0  0  0  0  0  0  0  0  0
  2  4  1  0
  2  1  1  6
  3  2  1  0
  4  5  1  1
  6  4  1  0
  7  6  2  0
  8  6  1  0
  9  8  1  0
  9 10  1  6
 10 11  1  0
 11 12  1  0
 12 13  1  0
 13 14  1  0
 15 16  2  0
 15  9  1  0
 18 17  1  0
 19 21  1  0
 19 18  1  0
 19 20  1  1
 21 22  1  6
 22 15  1  0
 23 24  1  0
 23 21  1  0
 25 23  2  0
M  END
$$$$
