TKI.pdb
     RDKit          3D

 25 24  0  0  1  0  0  0  0  0999 V2000
   18.8177  -25.3729  -16.9946 C   0  0  0  0  0  0  0  0  0  0  0  0
   18.6948  -25.2610  -15.4920 C   0  0  1  0  0  0  0  0  0  0  0  0
   17.5741  -26.0611  -15.1573 O   0  0  0  0  0  0  0  0  0  0  0  0
   19.9369  -25.8515  -14.8530 C   0  0  2  0  0  0  0  0  0  0  0  0
   19.7460  -25.6222  -13.4040 N   0  0  0  0  0  0  0  0  0  0  0  0
   21.1339  -25.0477  -15.2141 C   0  0  0  0  0  0  0  0  0  0  0  0
   21.2185  -23.7953  -14.9468 O   0  0  0  0  0  0  0  0  0  0  0  0
   22.2747  -25.5723  -15.8731 N   0  0  0  0  0  0  0  0  0  0  0  0
   23.4435  -24.7661  -16.2066 C   0  0  1  0  0  0  0  0  0  0  0  0
   24.6534  -25.6519  -16.2683 C   0  0  0  0  0  0  0  0  0  0  0  0
   25.9058  -24.9267  -16.6732 C   0  0  0  0  0  0  0  0  0  0  0  0
   27.0194  -25.9775  -16.7309 C   0  0  0  0  0  0  0  0  0  0  0  0
   28.3203  -25.3508  -17.1885 C   0  0  0  0  0  0  0  0  0  0  0  0
   29.4141  -26.2962  -17.1596 N   0  0  0  0  0  0  0  0  0  0  0  0
   23.1504  -24.0793  -17.4733 C   0  0  0  0  0  0  0  0  0  0  0  0
   22.6631  -24.6691  -18.4792 O   0  0  0  0  0  0  0  0  0  0  0  0
   20.6036  -21.7958  -20.6621 C   0  0  0  0  0  0  0  0  0  0  0  0
   20.7577  -21.7795  -19.1386 C   0  0  0  0  0  0  0  0  0  0  0  0
   22.0343  -21.0666  -18.7977 C   0  0  2  0  0  0  0  0  0  0  0  0
   22.2282  -19.9626  -19.8303 C   0  0  0  0  0  0  0  0  0  0  0  0
   23.1950  -22.0249  -18.9301 C   0  0  2  0  0  0  0  0  0  0  0  0
   23.3967  -22.6723  -17.6691 N   0  0  0  0  0  0  0  0  0  0  0  0
   24.3689  -21.2391  -19.3762 C   0  0  0  0  0  0  0  0  0  0  0  0
   25.2871  -20.6731  -18.5327 O   0  0  0  0  0  0  0  0  0  0  0  0
   24.5187  -21.0905  -20.6170 O   0  0  0  0  0  0  0  0  0  0  0  0
  2  4  1  0
  2  1  1  6
  3  2  1  0
  4  5  1  1
  6  4  1  0
  7  6  2  0
  8  6  1  0
  9  8  1  0
  9 10  1  6
 10 11  1  0
 11 12  1  0
 12 13  1  0
 13 14  1  0
 15 16  2  0
 15  9  1  0
 18 17  1  0
 19 21  1  0
 19 18  1  0
 19 20  1  6
 21 22  1  1
 22 15  1  0
 23 24  1  0
 23 21  1  0
 25 23  2  0
M  END
$$$$
