TKI.pdb
     RDKit          3D

 25 24  0  0  1  0  0  0  0  0999 V2000
   20.6000  -10.6361  -20.8527 C   0  0  0  0  0  0  0  0  0  0  0  0
   20.2224  -11.5121  -19.6799 C   0  0  1  0  0  0  0  0  0  0  0  0
   20.5570  -12.8281  -20.0852 O   0  0  0  0  0  0  0  0  0  0  0  0
   21.0743  -11.1270  -18.4858 C   0  0  2  0  0  0  0  0  0  0  0  0
   20.9899  -12.2974  -17.5847 N   0  0  0  0  0  0  0  0  0  0  0  0
   20.4347  -10.0164  -17.7331 C   0  0  0  0  0  0  0  0  0  0  0  0
   20.3213   -8.8369  -18.2264 O   0  0  0  0  0  0  0  0  0  0  0  0
   19.8980  -10.1465  -16.4271 N   0  0  0  0  0  0  0  0  0  0  0  0
   19.2867   -9.0380  -15.7026 C   0  0  1  0  0  0  0  0  0  0  0  0
   18.3543   -9.5833  -14.6606 C   0  0  0  0  0  0  0  0  0  0  0  0
   17.0312  -10.0294  -15.2164 C   0  0  0  0  0  0  0  0  0  0  0  0
   16.2029  -10.5256  -14.0266 C   0  0  0  0  0  0  0  0  0  0  0  0
   14.8045  -10.9020  -14.4709 C   0  0  0  0  0  0  0  0  0  0  0  0
   14.0398  -11.4982  -13.3980 N   0  0  0  0  0  0  0  0  0  0  0  0
   20.3798   -8.2257  -15.1484 C   0  0  0  0  0  0  0  0  0  0  0  0
   21.3187   -8.7144  -14.4579 O   0  0  0  0  0  0  0  0  0  0  0  0
   24.6963   -5.0963  -15.7913 C   0  0  0  0  0  0  0  0  0  0  0  0
   23.3459   -4.4619  -15.4463 C   0  0  0  0  0  0  0  0  0  0  0  0
   22.2557   -5.3461  -15.9788 C   0  0  2  0  0  0  0  0  0  0  0  0
   21.2461   -4.4483  -16.6843 C   0  0  0  0  0  0  0  0  0  0  0  0
   21.5443   -6.0154  -14.8259 C   0  0  2  0  0  0  0  0  0  0  0  0
   20.4678   -6.8008  -15.3497 N   0  0  0  0  0  0  0  0  0  0  0  0
   21.0920   -4.9471  -13.9048 C   0  0  0  0  0  0  0  0  0  0  0  0
   19.7937   -4.5296  -13.7819 O   0  0  0  0  0  0  0  0  0  0  0  0
   21.9721   -4.3955  -13.1938 O   0  0  0  0  0  0  0  0  0  0  0  0
  2  4  1  0
  2  1  1  6
  3  2  1  0
  4  5  1  1
  6  4  1  0
  7  6  2  0
  8  6  1  0
  9  8  1  0
  9 10  1  1
 10 11  1  0
 11 12  1  0
 12 13  1  0
 13 14  1  0
 15 16  2  0
 15  9  1  0
 18 17  1  0
 19 21  1  0
 19 18  1  0
 19 20  1  1
 21 22  1  6
 22 15  1  0
 23 24  1  0
 23 21  1  0
 25 23  2  0
M  END
$$$$
