TKI.pdb
     RDKit          3D

 25 24  0  0  1  0  0  0  0  0999 V2000
   25.0047  -14.2244  -15.1374 C   0  0  0  0  0  0  0  0  0  0  0  0
   24.4019  -12.9327  -15.6411 C   0  0  1  0  0  0  0  0  0  0  0  0
   25.1635  -12.5980  -16.7884 O   0  0  0  0  0  0  0  0  0  0  0  0
   22.9658  -13.1901  -16.0545 C   0  0  2  0  0  0  0  0  0  0  0  0
   23.0803  -13.9311  -17.3299 N   0  0  0  0  0  0  0  0  0  0  0  0
   22.2954  -11.9126  -16.4119 C   0  0  0  0  0  0  0  0  0  0  0  0
   22.4344  -11.3713  -17.5673 O   0  0  0  0  0  0  0  0  0  0  0  0
   21.4549  -11.1828  -15.5334 N   0  0  0  0  0  0  0  0  0  0  0  0
   20.7862   -9.9442  -15.9156 C   0  0  1  0  0  0  0  0  0  0  0  0
   19.3424  -10.0177  -15.5129 C   0  0  0  0  0  0  0  0  0  0  0  0
   18.4637  -10.6581  -16.5503 C   0  0  0  0  0  0  0  0  0  0  0  0
   17.4357  -11.5029  -15.7905 C   0  0  0  0  0  0  0  0  0  0  0  0
   16.5219  -12.2272  -16.7574 C   0  0  0  0  0  0  0  0  0  0  0  0
   15.5829  -13.0866  -16.0713 N   0  0  0  0  0  0  0  0  0  0  0  0
   21.5203   -8.8402  -15.2799 C   0  0  0  0  0  0  0  0  0  0  0  0
   22.0368   -8.9292  -14.1299 O   0  0  0  0  0  0  0  0  0  0  0  0
   25.0810   -4.1745  -16.7395 C   0  0  0  0  0  0  0  0  0  0  0  0
   24.0657   -4.7059  -15.7236 C   0  0  0  0  0  0  0  0  0  0  0  0
   23.3983   -5.9172  -16.3079 C   0  0  2  0  0  0  0  0  0  0  0  0
   22.5894   -5.4534  -17.5135 C   0  0  0  0  0  0  0  0  0  0  0  0
   22.4289   -6.4909  -15.3008 C   0  0  2  0  0  0  0  0  0  0  0  0
   21.7099   -7.5627  -15.9207 N   0  0  0  0  0  0  0  0  0  0  0  0
   21.5525   -5.3848  -14.8503 C   0  0  0  0  0  0  0  0  0  0  0  0
   20.2467   -5.2279  -15.2315 O   0  0  0  0  0  0  0  0  0  0  0  0
   22.0564   -4.5406  -14.0646 O   0  0  0  0  0  0  0  0  0  0  0  0
  2  4  1  0
  2  1  1  6
  3  2  1  0
  4  5  1  6
  6  4  1  0
  7  6  2  0
  8  6  1  0
  9  8  1  0
  9 10  1  1
 10 11  1  0
 11 12  1  0
 12 13  1  0
 13 14  1  0
 15 16  2  0
 15  9  1  0
 18 17  1  0
 19 21  1  0
 19 18  1  0
 19 20  1  6
 21 22  1  6
 22 15  1  0
 23 24  1  0
 23 21  1  0
 25 23  2  0
M  END
$$$$
