TKI.pdb
     RDKit          3D

 25 24  0  0  1  0  0  0  0  0999 V2000
   29.1781  -21.2865  -13.3902 C   0  0  0  0  0  0  0  0  0  0  0  0
   29.1219  -19.9449  -14.0849 C   0  0  1  0  0  0  0  0  0  0  0  0
   30.0744  -20.0355  -15.1302 O   0  0  0  0  0  0  0  0  0  0  0  0
   27.7410  -19.7604  -14.6841 C   0  0  2  0  0  0  0  0  0  0  0  0
   27.7919  -18.4221  -15.3127 N   0  0  0  0  0  0  0  0  0  0  0  0
   26.7238  -19.6401  -13.6071 C   0  0  0  0  0  0  0  0  0  0  0  0
   26.5737  -18.5597  -12.9306 O   0  0  0  0  0  0  0  0  0  0  0  0
   25.8384  -20.6814  -13.2296 N   0  0  0  0  0  0  0  0  0  0  0  0
   24.8240  -20.5284  -12.1929 C   0  0  1  0  0  0  0  0  0  0  0  0
   23.5571  -21.1981  -12.6387 C   0  0  0  0  0  0  0  0  0  0  0  0
   22.3324  -20.3479  -12.4496 C   0  0  0  0  0  0  0  0  0  0  0  0
   21.3731  -21.1542  -11.5679 C   0  0  0  0  0  0  0  0  0  0  0  0
   20.0869  -20.3873  -11.3398 C   0  0  0  0  0  0  0  0  0  0  0  0
   19.2075  -21.0710  -10.4178 N   0  0  0  0  0  0  0  0  0  0  0  0
   25.3820  -21.0882  -10.9530 C   0  0  0  0  0  0  0  0  0  0  0  0
   25.8689  -22.2522  -10.8816 O   0  0  0  0  0  0  0  0  0  0  0  0
   28.2387  -19.4574   -5.8722 C   0  0  0  0  0  0  0  0  0  0  0  0
   27.3628  -20.5089   -6.5594 C   0  0  0  0  0  0  0  0  0  0  0  0
   26.7939  -19.9082   -7.8122 C   0  0  2  0  0  0  0  0  0  0  0  0
   25.9196  -18.7314   -7.3958 C   0  0  0  0  0  0  0  0  0  0  0  0
   25.9030  -20.9203   -8.4943 C   0  0  2  0  0  0  0  0  0  0  0  0
   25.4182  -20.3503   -9.7150 N   0  0  0  0  0  0  0  0  0  0  0  0
   24.8215  -21.2694   -7.5440 C   0  0  0  0  0  0  0  0  0  0  0  0
   24.9752  -22.1036   -6.4692 O   0  0  0  0  0  0  0  0  0  0  0  0
   23.6910  -20.7567   -7.7520 O   0  0  0  0  0  0  0  0  0  0  0  0
  2  4  1  0
  2  1  1  6
  3  2  1  0
  4  5  1  1
  6  4  1  0
  7  6  2  0
  8  6  1  0
  9  8  1  0
  9 10  1  6
 10 11  1  0
 11 12  1  0
 12 13  1  0
 13 14  1  0
 15 16  2  0
 15  9  1  0
 18 17  1  0
 19 21  1  0
 19 18  1  0
 19 20  1  1
 21 22  1  6
 22 15  1  0
 23 24  1  0
 23 21  1  0
 25 23  2  0
M  END
$$$$
