TKI.pdb
     RDKit          3D

 25 24  0  0  1  0  0  0  0  0999 V2000
   22.9622  -21.0539  -11.1449 C   0  0  0  0  0  0  0  0  0  0  0  0
   23.6938  -20.3997   -9.9949 C   0  0  1  0  0  0  0  0  0  0  0  0
   23.0902  -20.9323   -8.8286 O   0  0  0  0  0  0  0  0  0  0  0  0
   25.1504  -20.8198  -10.0380 C   0  0  2  0  0  0  0  0  0  0  0  0
   25.7739  -20.0904   -8.9120 N   0  0  0  0  0  0  0  0  0  0  0  0
   25.8071  -20.2783  -11.2565 C   0  0  0  0  0  0  0  0  0  0  0  0
   26.2170  -19.0640  -11.3259 O   0  0  0  0  0  0  0  0  0  0  0  0
   26.0415  -21.0315  -12.4348 N   0  0  0  0  0  0  0  0  0  0  0  0
   26.7768  -20.5097  -13.5812 C   0  0  1  0  0  0  0  0  0  0  0  0
   27.2242  -21.6537  -14.4435 C   0  0  0  0  0  0  0  0  0  0  0  0
   27.9309  -21.2180  -15.6961 C   0  0  0  0  0  0  0  0  0  0  0  0
   28.3440  -22.4971  -16.4317 C   0  0  0  0  0  0  0  0  0  0  0  0
   27.1229  -23.2505  -16.9174 C   0  0  0  0  0  0  0  0  0  0  0  0
   27.4820  -24.4286  -17.6753 N   0  0  0  0  0  0  0  0  0  0  0  0
   25.8892  -19.5627  -14.2721 C   0  0  0  0  0  0  0  0  0  0  0  0
   24.6717  -19.8066  -14.5072 O   0  0  0  0  0  0  0  0  0  0  0  0
   24.3056  -14.5586  -15.1309 C   0  0  0  0  0  0  0  0  0  0  0  0
   25.3026  -15.0240  -16.1959 C   0  0  0  0  0  0  0  0  0  0  0  0
   26.2176  -16.0413  -15.5781 C   0  0  2  0  0  0  0  0  0  0  0  0
   27.3211  -16.3331  -16.5880 C   0  0  0  0  0  0  0  0  0  0  0  0
   25.4570  -17.3267  -15.3485 C   0  0  2  0  0  0  0  0  0  0  0  0
   26.3394  -18.2747  -14.7382 N   0  0  0  0  0  0  0  0  0  0  0  0
   24.9384  -17.7746  -16.6618 C   0  0  0  0  0  0  0  0  0  0  0  0
   25.6363  -18.5553  -17.5440 O   0  0  0  0  0  0  0  0  0  0  0  0
   23.7765  -17.4044  -16.9735 O   0  0  0  0  0  0  0  0  0  0  0  0
  2  4  1  0
  2  1  1  6
  3  2  1  0
  4  5  1  1
  6  4  1  0
  7  6  2  0
  8  6  1  0
  9  8  1  0
  9 10  1  6
 10 11  1  0
 11 12  1  0
 12 13  1  0
 13 14  1  0
 15 16  2  0
 15  9  1  0
 18 17  1  0
 19 21  1  0
 19 18  1  0
 19 20  1  6
 21 22  1  6
 22 15  1  0
 23 24  1  0
 23 21  1  0
 25 23  2  0
M  END
$$$$
