TKI.pdb
     RDKit          3D

 25 24  0  0  1  0  0  0  0  0999 V2000
   22.7892  -12.8490  -19.0617 C   0  0  0  0  0  0  0  0  0  0  0  0
   22.0800  -11.5627  -18.7037 C   0  0  1  0  0  0  0  0  0  0  0  0
   21.5868  -11.0634  -19.9348 O   0  0  0  0  0  0  0  0  0  0  0  0
   20.9112  -11.8843  -17.7926 C   0  0  2  0  0  0  0  0  0  0  0  0
   19.8952  -12.4692  -18.6951 N   0  0  0  0  0  0  0  0  0  0  0  0
   20.2954  -10.6314  -17.2825 C   0  0  0  0  0  0  0  0  0  0  0  0
   20.0037   -9.6517  -18.0585 O   0  0  0  0  0  0  0  0  0  0  0  0
   19.9756  -10.3999  -15.9205 N   0  0  0  0  0  0  0  0  0  0  0  0
   19.4173   -9.1427  -15.4356 C   0  0  1  0  0  0  0  0  0  0  0  0
   18.2665   -9.4348  -14.5175 C   0  0  0  0  0  0  0  0  0  0  0  0
   17.0181   -9.8581  -15.2391 C   0  0  0  0  0  0  0  0  0  0  0  0
   15.9475  -10.0803  -14.1657 C   0  0  0  0  0  0  0  0  0  0  0  0
   14.6727  -10.6129  -14.7867 C   0  0  0  0  0  0  0  0  0  0  0  0
   13.6673  -10.9040  -13.7889 N   0  0  0  0  0  0  0  0  0  0  0  0
   20.5116   -8.4011  -14.7918 C   0  0  0  0  0  0  0  0  0  0  0  0
   21.3310   -8.9385  -13.9937 O   0  0  0  0  0  0  0  0  0  0  0  0
   24.9128   -4.8016  -16.1499 C   0  0  0  0  0  0  0  0  0  0  0  0
   23.9133   -5.0804  -15.0237 C   0  0  0  0  0  0  0  0  0  0  0  0
   22.7998   -5.9234  -15.5745 C   0  0  2  0  0  0  0  0  0  0  0  0
   22.0273   -5.0638  -16.5680 C   0  0  0  0  0  0  0  0  0  0  0  0
   21.8518   -6.2946  -14.4579 C   0  0  2  0  0  0  0  0  0  0  0  0
   20.7377   -6.9958  -15.0210 N   0  0  0  0  0  0  0  0  0  0  0  0
   21.4645   -5.0405  -13.7710 C   0  0  0  0  0  0  0  0  0  0  0  0
   22.2148   -4.4231  -12.8063 O   0  0  0  0  0  0  0  0  0  0  0  0
   20.3694   -4.5195  -14.1079 O   0  0  0  0  0  0  0  0  0  0  0  0
  2  4  1  0
  2  1  1  6
  3  2  1  0
  4  5  1  6
  6  4  1  0
  7  6  2  0
  8  6  1  0
  9  8  1  0
  9 10  1  1
 10 11  1  0
 11 12  1  0
 12 13  1  0
 13 14  1  0
 15 16  2  0
 15  9  1  0
 18 17  1  0
 19 21  1  0
 19 18  1  0
 19 20  1  6
 21 22  1  6
 22 15  1  0
 23 24  1  0
 23 21  1  0
 25 23  2  0
M  END
$$$$
