TKI.pdb
     RDKit          3D

 25 24  0  0  1  0  0  0  0  0999 V2000
   24.8812  -19.9093  -19.1504 C   0  0  0  0  0  0  0  0  0  0  0  0
   24.5551  -20.1869  -17.7004 C   0  0  1  0  0  0  0  0  0  0  0  0
   25.7211  -19.8136  -16.9867 O   0  0  0  0  0  0  0  0  0  0  0  0
   23.4048  -19.2941  -17.2769 C   0  0  2  0  0  0  0  0  0  0  0  0
   23.9399  -17.9213  -17.4109 N   0  0  0  0  0  0  0  0  0  0  0  0
   23.1315  -19.4594  -15.8253 C   0  0  0  0  0  0  0  0  0  0  0  0
   23.3746  -18.5276  -14.9768 O   0  0  0  0  0  0  0  0  0  0  0  0
   22.5870  -20.6343  -15.2475 N   0  0  0  0  0  0  0  0  0  0  0  0
   22.3108  -20.7668  -13.8215 C   0  0  1  0  0  0  0  0  0  0  0  0
   21.1171  -21.6561  -13.6301 C   0  0  0  0  0  0  0  0  0  0  0  0
   19.9663  -20.9737  -12.9458 C   0  0  0  0  0  0  0  0  0  0  0  0
   18.8583  -22.0226  -12.8045 C   0  0  0  0  0  0  0  0  0  0  0  0
   17.6004  -21.3961  -12.2390 C   0  0  0  0  0  0  0  0  0  0  0  0
   16.5317  -22.3607  -12.1026 N   0  0  0  0  0  0  0  0  0  0  0  0
   23.5349  -21.2785  -13.1876 C   0  0  0  0  0  0  0  0  0  0  0  0
   24.0301  -22.4088  -13.4598 O   0  0  0  0  0  0  0  0  0  0  0  0
   28.1318  -19.3802  -13.6286 C   0  0  0  0  0  0  0  0  0  0  0  0
   26.9160  -20.2623  -13.3304 C   0  0  0  0  0  0  0  0  0  0  0  0
   26.6084  -20.1675  -11.8640 C   0  0  2  0  0  0  0  0  0  0  0  0
   27.8147  -20.7147  -11.1101 C   0  0  0  0  0  0  0  0  0  0  0  0
   25.4275  -21.0531  -11.5407 C   0  0  2  0  0  0  0  0  0  0  0  0
   24.2706  -20.5278  -12.2007 N   0  0  0  0  0  0  0  0  0  0  0  0
   25.2916  -21.0884  -10.0660 C   0  0  0  0  0  0  0  0  0  0  0  0
   25.9857  -21.9364   -9.2450 O   0  0  0  0  0  0  0  0  0  0  0  0
   24.4794  -20.2785   -9.5477 O   0  0  0  0  0  0  0  0  0  0  0  0
  2  4  1  0
  2  1  1  6
  3  2  1  0
  4  5  1  1
  6  4  1  0
  7  6  2  0
  8  6  1  0
  9  8  1  0
  9 10  1  6
 10 11  1  0
 11 12  1  0
 12 13  1  0
 13 14  1  0
 15 16  2  0
 15  9  1  0
 18 17  1  0
 19 21  1  0
 19 18  1  0
 19 20  1  1
 21 22  1  6
 22 15  1  0
 23 24  1  0
 23 21  1  0
 25 23  2  0
M  END
$$$$
