TKI.pdb
     RDKit          3D

 25 24  0  0  1  0  0  0  0  0999 V2000
   17.2667  -14.5683  -18.0590 C   0  0  0  0  0  0  0  0  0  0  0  0
   17.1907  -13.1346  -17.5854 C   0  0  1  0  0  0  0  0  0  0  0  0
   16.4423  -12.4605  -18.5822 O   0  0  0  0  0  0  0  0  0  0  0  0
   16.4283  -13.0907  -16.2752 C   0  0  2  0  0  0  0  0  0  0  0  0
   15.0255  -13.3603  -16.6602 N   0  0  0  0  0  0  0  0  0  0  0  0
   16.4177  -11.7075  -15.7311 C   0  0  0  0  0  0  0  0  0  0  0  0
   15.7713  -10.7569  -16.3018 O   0  0  0  0  0  0  0  0  0  0  0  0
   17.1034  -11.3104  -14.5552 N   0  0  0  0  0  0  0  0  0  0  0  0
   17.1543   -9.9289  -14.0903 C   0  0  1  0  0  0  0  0  0  0  0  0
   16.5645   -9.8493  -12.7125 C   0  0  0  0  0  0  0  0  0  0  0  0
   16.6410   -8.4759  -12.1075 C   0  0  0  0  0  0  0  0  0  0  0  0
   15.8620   -8.5355  -10.7894 C   0  0  0  0  0  0  0  0  0  0  0  0
   15.8122   -7.1690  -10.1375 C   0  0  0  0  0  0  0  0  0  0  0  0
   15.1025   -7.1978   -8.8779 N   0  0  0  0  0  0  0  0  0  0  0  0
   18.5591   -9.4998  -14.1560 C   0  0  0  0  0  0  0  0  0  0  0  0
   19.5056  -10.1616  -13.6429 O   0  0  0  0  0  0  0  0  0  0  0  0
   22.1596   -9.8084  -17.5665 C   0  0  0  0  0  0  0  0  0  0  0  0
   21.6900   -9.4502  -16.1536 C   0  0  0  0  0  0  0  0  0  0  0  0
   20.8954   -8.1785  -16.2249 C   0  0  2  0  0  0  0  0  0  0  0  0
   21.8600   -7.0602  -16.6014 C   0  0  0  0  0  0  0  0  0  0  0  0
   20.3363   -7.8586  -14.8580 C   0  0  2  0  0  0  0  0  0  0  0  0
   18.9701   -8.2846  -14.8141 N   0  0  0  0  0  0  0  0  0  0  0  0
   20.5000   -6.4021  -14.6428 C   0  0  0  0  0  0  0  0  0  0  0  0
   21.6659   -5.8050  -14.2441 O   0  0  0  0  0  0  0  0  0  0  0  0
   19.4904   -5.6780  -14.8441 O   0  0  0  0  0  0  0  0  0  0  0  0
  2  4  1  0
  2  1  1  6
  3  2  1  0
  4  5  1  6
  6  4  1  0
  7  6  2  0
  8  6  1  0
  9  8  1  0
  9 10  1  1
 10 11  1  0
 11 12  1  0
 12 13  1  0
 13 14  1  0
 15 16  2  0
 15  9  1  0
 18 17  1  0
 19 21  1  0
 19 18  1  0
 19 20  1  1
 21 22  1  6
 22 15  1  0
 23 24  1  0
 23 21  1  0
 25 23  2  0
M  END
$$$$
