GIK.pdb
     RDKit          3D

 22 21  0  0  1  0  0  0  0  0999 V2000
   22.7991  -16.2417  -16.9628 N   0  0  0  0  0  0  0  0  0  0  0  0
   23.4173  -15.1036  -17.5939 C   0  0  0  0  0  0  0  0  0  0  0  0
   23.5581  -14.0127  -16.5980 C   0  0  0  0  0  0  0  0  0  0  0  0
   22.8067  -13.9936  -15.5694 O   0  0  0  0  0  0  0  0  0  0  0  0
   28.3971  -12.3084  -16.1113 C   0  0  0  0  0  0  0  0  0  0  0  0
   27.0632  -12.5003  -15.3552 C   0  0  0  0  0  0  0  0  0  0  0  0
   26.0910  -11.4591  -15.7811 C   0  0  2  0  0  0  0  0  0  0  0  0
   26.2935  -10.2293  -14.9129 C   0  0  0  0  0  0  0  0  0  0  0  0
   24.6406  -11.8851  -15.7983 C   0  0  2  0  0  0  0  0  0  0  0  0
   24.5134  -12.9986  -16.7778 N   0  0  0  0  0  0  0  0  0  0  0  0
   23.7101  -10.8091  -16.2063 C   0  0  0  0  0  0  0  0  0  0  0  0
   23.6763  -10.3781  -17.4046 O   0  0  0  0  0  0  0  0  0  0  0  0
   22.8279  -10.2351  -15.2759 N   0  0  0  0  0  0  0  0  0  0  0  0
   21.8723   -9.1342  -15.7361 C   0  0  1  0  0  0  0  0  0  0  0  0
   20.5911   -9.8449  -15.7874 C   0  0  0  0  0  0  0  0  0  0  0  0
   19.2848   -9.3805  -16.1340 C   0  0  0  0  0  0  0  0  0  0  0  0
   18.0168  -10.0763  -16.1551 C   0  0  0  0  0  0  0  0  0  0  0  0
   16.7799   -9.3796  -16.5437 C   0  0  0  0  0  0  0  0  0  0  0  0
   15.6553  -10.2614  -16.7620 N   0  0  0  0  0  0  0  0  0  0  0  0
   22.1325   -8.0704  -14.8043 C   0  0  0  0  0  0  0  0  0  0  0  0
   21.8502   -6.7520  -15.1067 O   0  0  0  0  0  0  0  0  0  0  0  0
   22.6267   -8.2807  -13.6793 O   0  0  0  0  0  0  0  0  0  0  0  0
  2  3  1  0
  2  1  1  0
  3 10  1  0
  4  3  2  0
  6  5  1  0
  7  9  1  0
  7  6  1  0
  7  8  1  1
  9 11  1  0
  9 10  1  6
 11 13  1  0
 11 12  2  0
 13 14  1  0
 14 20  1  0
 14 15  1  1
 16 15  1  0
 17 18  1  0
 17 16  1  0
 19 18  1  0
 20 21  1  0
 22 20  2  0
M  END
$$$$
