GIK.pdb
     RDKit          3D

 22 21  0  0  1  0  0  0  0  0999 V2000
   22.8401  -14.1715  -19.7517 N   0  0  0  0  0  0  0  0  0  0  0  0
   22.9512  -12.7505  -19.9617 C   0  0  0  0  0  0  0  0  0  0  0  0
   23.1387  -12.0789  -18.6520 C   0  0  0  0  0  0  0  0  0  0  0  0
   22.3796  -12.3769  -17.6732 O   0  0  0  0  0  0  0  0  0  0  0  0
   25.9791  -10.5855  -14.5279 C   0  0  0  0  0  0  0  0  0  0  0  0
   26.1018   -9.5270  -15.6472 C   0  0  0  0  0  0  0  0  0  0  0  0
   25.7523  -10.1388  -16.9564 C   0  0  2  0  0  0  0  0  0  0  0  0
   26.3695   -9.2969  -18.0598 C   0  0  0  0  0  0  0  0  0  0  0  0
   24.2777  -10.3663  -17.2003 C   0  0  2  0  0  0  0  0  0  0  0  0
   24.1467  -11.1158  -18.4795 N   0  0  0  0  0  0  0  0  0  0  0  0
   23.4956   -9.1158  -17.3210 C   0  0  0  0  0  0  0  0  0  0  0  0
   23.5968   -8.3644  -18.3448 O   0  0  0  0  0  0  0  0  0  0  0  0
   22.6087   -8.7255  -16.3040 N   0  0  0  0  0  0  0  0  0  0  0  0
   21.8741   -7.3905  -16.4277 C   0  0  1  0  0  0  0  0  0  0  0  0
   20.5246   -7.8196  -16.8070 C   0  0  0  0  0  0  0  0  0  0  0  0
   19.4850   -7.1176  -17.4916 C   0  0  0  0  0  0  0  0  0  0  0  0
   18.1580   -7.5470  -17.8750 C   0  0  0  0  0  0  0  0  0  0  0  0
   17.2974   -6.6890  -18.7054 C   0  0  0  0  0  0  0  0  0  0  0  0
   15.9711   -7.2227  -18.9201 N   0  0  0  0  0  0  0  0  0  0  0  0
   22.1599   -6.7472  -15.1739 C   0  0  0  0  0  0  0  0  0  0  0  0
   22.0495   -5.3790  -15.0154 O   0  0  0  0  0  0  0  0  0  0  0  0
   22.5229   -7.3878  -14.1678 O   0  0  0  0  0  0  0  0  0  0  0  0
  2  3  1  0
  2  1  1  0
  3 10  1  0
  4  3  2  0
  6  5  1  0
  7  9  1  0
  7  6  1  0
  7  8  1  6
  9 11  1  0
  9 10  1  6
 11 13  1  0
 11 12  2  0
 13 14  1  0
 14 20  1  0
 14 15  1  1
 16 15  1  0
 17 18  1  0
 17 16  1  0
 19 18  1  0
 20 21  1  0
 22 20  2  0
M  END
$$$$
