GIK.pdb
     RDKit          3D

 22 21  0  0  1  0  0  0  0  0999 V2000
   20.5813  -28.9081  -16.5821 N   0  0  0  0  0  0  0  0  0  0  0  0
   19.8531  -29.4859  -15.4813 C   0  0  0  0  0  0  0  0  0  0  0  0
   20.8118  -29.8909  -14.4237 C   0  0  0  0  0  0  0  0  0  0  0  0
   22.0473  -30.0218  -14.7055 O   0  0  0  0  0  0  0  0  0  0  0  0
   19.8379  -27.3024  -10.4451 C   0  0  0  0  0  0  0  0  0  0  0  0
   21.0460  -28.0243  -11.0834 C   0  0  0  0  0  0  0  0  0  0  0  0
   20.9360  -29.4885  -10.8497 C   0  0  2  0  0  0  0  0  0  0  0  0
   21.7192  -29.8346   -9.5951 C   0  0  0  0  0  0  0  0  0  0  0  0
   21.3417  -30.3692  -12.0095 C   0  0  2  0  0  0  0  0  0  0  0  0
   20.3704  -30.1319  -13.1120 N   0  0  0  0  0  0  0  0  0  0  0  0
   21.3278  -31.8145  -11.6913 C   0  0  0  0  0  0  0  0  0  0  0  0
   20.2369  -32.4678  -11.6140 O   0  0  0  0  0  0  0  0  0  0  0  0
   22.5281  -32.5103  -11.4713 N   0  0  0  0  0  0  0  0  0  0  0  0
   22.4844  -34.0243  -11.2640 C   0  0  1  0  0  0  0  0  0  0  0  0
   23.5295  -34.4875  -12.1819 C   0  0  0  0  0  0  0  0  0  0  0  0
   23.7073  -35.7514  -12.8248 C   0  0  0  0  0  0  0  0  0  0  0  0
   22.9673  -36.3668  -13.9046 C   0  0  0  0  0  0  0  0  0  0  0  0
   23.0908  -35.8689  -15.2842 C   0  0  0  0  0  0  0  0  0  0  0  0
   22.3594  -36.6501  -16.2562 N   0  0  0  0  0  0  0  0  0  0  0  0
   22.5910  -34.1580   -9.8363 C   0  0  0  0  0  0  0  0  0  0  0  0
   22.0981  -35.2633   -9.1694 O   0  0  0  0  0  0  0  0  0  0  0  0
   23.1301  -33.2856   -9.1272 O   0  0  0  0  0  0  0  0  0  0  0  0
  2  3  1  0
  2  1  1  0
  3 10  1  0
  4  3  2  0
  6  5  1  0
  7  9  1  0
  7  6  1  0
  7  8  1  1
  9 11  1  0
  9 10  1  6
 11 13  1  0
 11 12  2  0
 13 14  1  0
 14 20  1  0
 14 15  1  6
 16 15  1  0
 17 18  1  0
 17 16  1  0
 19 18  1  0
 20 21  1  0
 22 20  2  0
M  END
$$$$
