GIK.pdb
     RDKit          3D

 22 21  0  0  1  0  0  0  0  0999 V2000
   21.4776  -21.6775   -7.1961 N   0  0  0  0  0  0  0  0  0  0  0  0
   22.8758  -21.9876   -7.0395 C   0  0  0  0  0  0  0  0  0  0  0  0
   23.6702  -21.1200   -7.9438 C   0  0  0  0  0  0  0  0  0  0  0  0
   23.0757  -20.3556   -8.7716 O   0  0  0  0  0  0  0  0  0  0  0  0
   27.0924  -19.7855   -5.8305 C   0  0  0  0  0  0  0  0  0  0  0  0
   27.3557  -19.1314   -7.2056 C   0  0  0  0  0  0  0  0  0  0  0  0
   27.2553  -20.1577   -8.2766 C   0  0  2  0  0  0  0  0  0  0  0  0
   28.2804  -19.8339   -9.3496 C   0  0  0  0  0  0  0  0  0  0  0  0
   25.8794  -20.3495   -8.8731 C   0  0  2  0  0  0  0  0  0  0  0  0
   25.0742  -21.1326   -7.8967 N   0  0  0  0  0  0  0  0  0  0  0  0
   25.8857  -21.0869  -10.1562 C   0  0  0  0  0  0  0  0  0  0  0  0
   26.1058  -22.3409  -10.2013 O   0  0  0  0  0  0  0  0  0  0  0  0
   25.6400  -20.4184  -11.3669 N   0  0  0  0  0  0  0  0  0  0  0  0
   25.5453  -21.2288  -12.6597 C   0  0  1  0  0  0  0  0  0  0  0  0
   24.3945  -20.6094  -13.3239 C   0  0  0  0  0  0  0  0  0  0  0  0
   23.6300  -21.0409  -14.4515 C   0  0  0  0  0  0  0  0  0  0  0  0
   22.8144  -22.2213  -14.6356 C   0  0  0  0  0  0  0  0  0  0  0  0
   22.2300  -22.5377  -15.9489 C   0  0  0  0  0  0  0  0  0  0  0  0
   20.7890  -22.6524  -15.9361 N   0  0  0  0  0  0  0  0  0  0  0  0
   26.8804  -21.1510  -13.1881 C   0  0  0  0  0  0  0  0  0  0  0  0
   27.4005  -22.1395  -14.0015 O   0  0  0  0  0  0  0  0  0  0  0  0
   27.6368  -20.1917  -12.9394 O   0  0  0  0  0  0  0  0  0  0  0  0
  2  3  1  0
  2  1  1  0
  3 10  1  0
  4  3  2  0
  6  5  1  0
  7  9  1  0
  7  6  1  0
  7  8  1  6
  9 11  1  0
  9 10  1  1
 11 13  1  0
 11 12  2  0
 13 14  1  0
 14 20  1  0
 14 15  1  6
 16 15  1  0
 17 18  1  0
 17 16  1  0
 19 18  1  0
 20 21  1  0
 22 20  2  0
M  END
$$$$
