MCW.pdb
     RDKit          3D

 29 30  0  0  1  0  0  0  0  0999 V2000
   15.4049  -11.5987  -14.4603 C   0  0  0  0  0  0  0  0  0  0  0  0
   14.7324  -13.0531  -15.2847 S   0  0  0  0  0  0  0  0  0  0  0  0
   15.8051  -13.5900  -16.6394 C   0  0  0  0  0  0  0  0  0  0  0  0
   17.2348  -13.2466  -16.3602 C   0  0  0  0  0  0  0  0  0  0  0  0
   18.1076  -13.7499  -17.4888 C   0  0  2  0  0  0  0  0  0  0  0  0
   18.1747  -15.1819  -17.5347 N   0  0  0  0  0  0  0  0  0  0  0  0
   19.4241  -13.1050  -17.3783 C   0  0  0  0  0  0  0  0  0  0  0  0
   20.4415  -13.8367  -17.4991 O   0  0  0  0  0  0  0  0  0  0  0  0
   19.6337  -11.7215  -17.1460 N   0  0  0  0  0  0  0  0  0  0  0  0
   20.9612  -11.1383  -17.2984 C   0  0  1  0  0  0  0  0  0  0  0  0
   21.3421  -11.3604  -18.7694 C   0  0  0  0  0  0  0  0  0  0  0  0
   22.7774  -10.4119  -19.2712 S   0  0  0  0  0  0  0  0  0  0  0  0
   20.9077   -9.6847  -16.9939 C   0  0  0  0  0  0  0  0  0  0  0  0
   19.9593   -8.9847  -17.4915 O   0  0  0  0  0  0  0  0  0  0  0  0
   21.8212   -8.9810  -16.1894 N   0  0  0  0  0  0  0  0  0  0  0  0
   21.6866   -7.5778  -15.8468 C   0  0  1  0  0  0  0  0  0  0  0  0
   22.9018   -7.2475  -14.9686 C   0  0  0  0  0  0  0  0  0  0  0  0
   24.1541   -7.6629  -15.5999 C   0  0  0  0  0  0  0  0  0  0  0  0
   24.8924   -6.8911  -16.4713 C   0  0  0  0  0  0  0  0  0  0  0  0
   25.9729   -7.6084  -16.8393 N   0  0  0  0  0  0  0  0  0  0  0  0
   25.9307   -8.8085  -16.2214 C   0  0  0  0  0  0  0  0  0  0  0  0
   26.7621   -9.9206  -16.2291 C   0  0  0  0  0  0  0  0  0  0  0  0
   26.4864  -11.0524  -15.4888 C   0  0  0  0  0  0  0  0  0  0  0  0
   25.3347  -11.0840  -14.7055 C   0  0  0  0  0  0  0  0  0  0  0  0
   24.4851   -9.9985  -14.6726 C   0  0  0  0  0  0  0  0  0  0  0  0
   24.7796   -8.8638  -15.4266 C   0  0  0  0  0  0  0  0  0  0  0  0
   21.7176   -6.7378  -17.0669 C   0  0  0  0  0  0  0  0  0  0  0  0
   22.1629   -7.1473  -18.1726 O   0  0  0  0  0  0  0  0  0  0  0  0
   21.2457   -5.4333  -17.0416 O   0  0  0  0  0  0  0  0  0  0  0  0
  2  1  1  0
  3  2  1  0
  4  3  1  0
  4  5  1  0
  5  6  1  1
  7  5  1  0
  7  8  2  0
  9 10  1  0
  9  7  1  0
 10 13  1  0
 11 12  1  0
 10 11  1  6
 13 15  1  0
 14 13  2  0
 15 16  1  0
 16 27  1  0
 16 17  1  1
 18 17  1  0
 19 18  2  0
 20 21  1  0
 20 19  1  0
 21 26  2  0
 22 23  2  0
 22 21  1  0
 23 24  1  0
 24 25  2  0
 26 18  1  0
 26 25  1  0
 27 28  2  0
 27 29  1  0
M  END
$$$$
