MCW.pdb
     RDKit          3D

 29 30  0  0  1  0  0  0  0  0999 V2000
   26.6619  -15.0348  -15.0689 C   0  0  0  0  0  0  0  0  0  0  0  0
   27.0619  -15.1167  -16.8241 S   0  0  0  0  0  0  0  0  0  0  0  0
   25.5991  -15.5234  -17.8086 C   0  0  0  0  0  0  0  0  0  0  0  0
   25.0801  -16.8837  -17.4620 C   0  0  0  0  0  0  0  0  0  0  0  0
   26.1076  -17.9295  -17.8354 C   0  0  2  0  0  0  0  0  0  0  0  0
   26.0874  -18.2444  -19.2346 N   0  0  0  0  0  0  0  0  0  0  0  0
   25.9117  -19.1006  -16.9685 C   0  0  0  0  0  0  0  0  0  0  0  0
   24.7446  -19.5625  -16.8708 O   0  0  0  0  0  0  0  0  0  0  0  0
   26.9382  -19.7484  -16.2345 N   0  0  0  0  0  0  0  0  0  0  0  0
   26.6217  -20.8516  -15.3354 C   0  0  1  0  0  0  0  0  0  0  0  0
   27.5292  -22.0113  -15.7713 C   0  0  0  0  0  0  0  0  0  0  0  0
   29.2734  -21.6169  -15.6539 S   0  0  0  0  0  0  0  0  0  0  0  0
   26.9248  -20.4588  -13.9346 C   0  0  0  0  0  0  0  0  0  0  0  0
   27.8511  -19.6026  -13.7206 O   0  0  0  0  0  0  0  0  0  0  0  0
   26.2757  -20.9475  -12.7871 N   0  0  0  0  0  0  0  0  0  0  0  0
   26.6998  -20.6578  -11.4304 C   0  0  1  0  0  0  0  0  0  0  0  0
   25.7668  -19.5442  -10.9336 C   0  0  0  0  0  0  0  0  0  0  0  0
   24.3742  -19.9883  -10.8822 C   0  0  0  0  0  0  0  0  0  0  0  0
   23.7429  -20.4775   -9.7586 C   0  0  0  0  0  0  0  0  0  0  0  0
   22.4744  -20.7800  -10.1004 N   0  0  0  0  0  0  0  0  0  0  0  0
   22.2948  -20.4932  -11.4078 C   0  0  0  0  0  0  0  0  0  0  0  0
   21.2142  -20.6004  -12.2732 C   0  0  0  0  0  0  0  0  0  0  0  0
   21.2926  -20.2287  -13.6002 C   0  0  0  0  0  0  0  0  0  0  0  0
   22.4962  -19.7281  -14.0921 C   0  0  0  0  0  0  0  0  0  0  0  0
   23.5909  -19.6071  -13.2625 C   0  0  0  0  0  0  0  0  0  0  0  0
   23.4933  -19.9874  -11.9251 C   0  0  0  0  0  0  0  0  0  0  0  0
   26.5430  -21.8527  -10.5685 C   0  0  0  0  0  0  0  0  0  0  0  0
   26.0743  -22.9455  -10.9866 O   0  0  0  0  0  0  0  0  0  0  0  0
   26.9153  -21.8169   -9.2324 O   0  0  0  0  0  0  0  0  0  0  0  0
  2  1  1  0
  3  2  1  0
  4  3  1  0
  4  5  1  0
  5  6  1  6
  7  5  1  0
  7  8  2  0
  9 10  1  0
  9  7  1  0
 10 13  1  0
 11 12  1  0
 10 11  1  6
 13 15  1  0
 14 13  2  0
 15 16  1  0
 16 27  1  0
 16 17  1  1
 18 17  1  0
 19 18  2  0
 20 21  1  0
 20 19  1  0
 21 26  2  0
 22 23  2  0
 22 21  1  0
 23 24  1  0
 24 25  2  0
 26 18  1  0
 26 25  1  0
 27 28  2  0
 27 29  1  0
M  END
$$$$
