MCW.pdb
     RDKit          3D

 29 30  0  0  1  0  0  0  0  0999 V2000
   31.1116  -17.1215  -17.5573 C   0  0  0  0  0  0  0  0  0  0  0  0
   29.7793  -17.6038  -16.4438 S   0  0  0  0  0  0  0  0  0  0  0  0
   28.8965  -16.1543  -15.8160 C   0  0  0  0  0  0  0  0  0  0  0  0
   27.8623  -16.5503  -14.8093 C   0  0  0  0  0  0  0  0  0  0  0  0
   27.0277  -17.6864  -15.3586 C   0  0  2  0  0  0  0  0  0  0  0  0
   26.3310  -17.3256  -16.5593 N   0  0  0  0  0  0  0  0  0  0  0  0
   26.1413  -18.1683  -14.2893 C   0  0  0  0  0  0  0  0  0  0  0  0
   25.0200  -17.6089  -14.1679 O   0  0  0  0  0  0  0  0  0  0  0  0
   26.4546  -19.2152  -13.3849 N   0  0  0  0  0  0  0  0  0  0  0  0
   25.4732  -19.6653  -12.4052 C   0  0  1  0  0  0  0  0  0  0  0  0
   24.4318  -20.4639  -13.2026 C   0  0  0  0  0  0  0  0  0  0  0  0
   23.3528  -21.4434  -12.1595 S   0  0  0  0  0  0  0  0  0  0  0  0
   26.1331  -20.5387  -11.4001 C   0  0  0  0  0  0  0  0  0  0  0  0
   26.9262  -21.4566  -11.8064 O   0  0  0  0  0  0  0  0  0  0  0  0
   25.9689  -20.4540  -10.0062 N   0  0  0  0  0  0  0  0  0  0  0  0
   26.3834  -21.4879   -9.0768 C   0  0  1  0  0  0  0  0  0  0  0  0
   27.7814  -21.0752   -8.5947 C   0  0  0  0  0  0  0  0  0  0  0  0
   27.7124  -20.0884   -7.5173 C   0  0  0  0  0  0  0  0  0  0  0  0
   26.8511  -19.0126   -7.4865 C   0  0  0  0  0  0  0  0  0  0  0  0
   27.0812  -18.3361   -6.3434 N   0  0  0  0  0  0  0  0  0  0  0  0
   28.0635  -18.9597   -5.6578 C   0  0  0  0  0  0  0  0  0  0  0  0
   28.6926  -18.7116   -4.4450 C   0  0  0  0  0  0  0  0  0  0  0  0
   29.6952  -19.5238   -3.9548 C   0  0  0  0  0  0  0  0  0  0  0  0
   30.0925  -20.6320   -4.7000 C   0  0  0  0  0  0  0  0  0  0  0  0
   29.4907  -20.9102   -5.9089 C   0  0  0  0  0  0  0  0  0  0  0  0
   28.4798  -20.0790   -6.3883 C   0  0  0  0  0  0  0  0  0  0  0  0
   25.4611  -21.5486   -7.9188 C   0  0  0  0  0  0  0  0  0  0  0  0
   25.6248  -22.3379   -6.9500 O   0  0  0  0  0  0  0  0  0  0  0  0
   24.3517  -20.7180   -7.8518 O   0  0  0  0  0  0  0  0  0  0  0  0
  2  1  1  0
  3  2  1  0
  4  3  1  0
  4  5  1  0
  5  6  1  6
  7  5  1  0
  7  8  2  0
  9 10  1  0
  9  7  1  0
 10 13  1  0
 11 12  1  0
 10 11  1  6
 13 15  1  0
 14 13  2  0
 15 16  1  0
 16 27  1  0
 16 17  1  1
 18 17  1  0
 19 18  2  0
 20 21  1  0
 20 19  1  0
 21 26  2  0
 22 23  2  0
 22 21  1  0
 23 24  1  0
 24 25  2  0
 26 18  1  0
 26 25  1  0
 27 28  2  0
 27 29  1  0
M  END
$$$$
