MCW.pdb
     RDKit          3D

 29 30  0  0  1  0  0  0  0  0999 V2000
   29.3139  -21.4670  -16.1452 C   0  0  0  0  0  0  0  0  0  0  0  0
   30.1160  -20.9967  -17.6888 S   0  0  0  0  0  0  0  0  0  0  0  0
   30.2946  -19.2002  -17.8107 C   0  0  0  0  0  0  0  0  0  0  0  0
   29.8231  -18.5279  -16.5595 C   0  0  0  0  0  0  0  0  0  0  0  0
   28.4279  -17.9824  -16.7710 C   0  0  2  0  0  0  0  0  0  0  0  0
   28.4307  -16.7016  -17.4166 N   0  0  0  0  0  0  0  0  0  0  0  0
   27.7293  -17.9849  -15.4774 C   0  0  0  0  0  0  0  0  0  0  0  0
   28.0624  -17.1101  -14.6355 O   0  0  0  0  0  0  0  0  0  0  0  0
   26.7092  -18.8983  -15.1071 N   0  0  0  0  0  0  0  0  0  0  0  0
   26.1024  -18.8331  -13.7830 C   0  0  1  0  0  0  0  0  0  0  0  0
   24.5870  -18.7824  -14.0266 C   0  0  0  0  0  0  0  0  0  0  0  0
   23.6306  -19.2377  -12.5811 S   0  0  0  0  0  0  0  0  0  0  0  0
   26.4592  -20.0500  -13.0081 C   0  0  0  0  0  0  0  0  0  0  0  0
   26.5140  -21.1744  -13.6160 O   0  0  0  0  0  0  0  0  0  0  0  0
   26.7522  -20.0903  -11.6336 N   0  0  0  0  0  0  0  0  0  0  0  0
   27.0349  -21.3097  -10.9002 C   0  0  1  0  0  0  0  0  0  0  0  0
   28.1438  -20.9455   -9.9028 C   0  0  0  0  0  0  0  0  0  0  0  0
   27.5991  -20.3548   -8.6806 C   0  0  0  0  0  0  0  0  0  0  0  0
   26.3967  -19.6861   -8.5953 C   0  0  0  0  0  0  0  0  0  0  0  0
   26.2380  -19.2901   -7.3166 N   0  0  0  0  0  0  0  0  0  0  0  0
   27.3088  -19.6931   -6.5991 C   0  0  0  0  0  0  0  0  0  0  0  0
   27.6721  -19.5654   -5.2650 C   0  0  0  0  0  0  0  0  0  0  0  0
   28.8525  -20.0816   -4.7697 C   0  0  0  0  0  0  0  0  0  0  0  0
   29.7118  -20.7549   -5.6353 C   0  0  0  0  0  0  0  0  0  0  0  0
   29.3846  -20.9016   -6.9667 C   0  0  0  0  0  0  0  0  0  0  0  0
   28.1883  -20.3737   -7.4493 C   0  0  0  0  0  0  0  0  0  0  0  0
   25.8347  -21.7626  -10.1588 C   0  0  0  0  0  0  0  0  0  0  0  0
   25.7339  -22.9110   -9.6494 O   0  0  0  0  0  0  0  0  0  0  0  0
   24.7455  -20.9198   -9.9905 O   0  0  0  0  0  0  0  0  0  0  0  0
  2  1  1  0
  3  2  1  0
  4  3  1  0
  4  5  1  0
  5  6  1  1
  7  5  1  0
  7  8  2  0
  9 10  1  0
  9  7  1  0
 10 13  1  0
 11 12  1  0
 10 11  1  6
 13 15  1  0
 14 13  2  0
 15 16  1  0
 16 27  1  0
 16 17  1  1
 18 17  1  0
 19 18  2  0
 20 21  1  0
 20 19  1  0
 21 26  2  0
 22 23  2  0
 22 21  1  0
 23 24  1  0
 24 25  2  0
 26 18  1  0
 26 25  1  0
 27 28  2  0
 27 29  1  0
M  END
$$$$
