MCW.pdb
     RDKit          3D

 29 30  0  0  1  0  0  0  0  0999 V2000
   27.8736  -13.4341  -17.7588 C   0  0  0  0  0  0  0  0  0  0  0  0
   27.0261  -14.9963  -17.4612 S   0  0  0  0  0  0  0  0  0  0  0  0
   27.7035  -15.8405  -16.0112 C   0  0  0  0  0  0  0  0  0  0  0  0
   27.0303  -17.1595  -15.7949 C   0  0  0  0  0  0  0  0  0  0  0  0
   27.9501  -18.2772  -16.2347 C   0  0  2  0  0  0  0  0  0  0  0  0
   27.7586  -18.6374  -17.6097 N   0  0  0  0  0  0  0  0  0  0  0  0
   27.7855  -19.4045  -15.3053 C   0  0  0  0  0  0  0  0  0  0  0  0
   27.8369  -20.5667  -15.7868 O   0  0  0  0  0  0  0  0  0  0  0  0
   27.5731  -19.2809  -13.9084 N   0  0  0  0  0  0  0  0  0  0  0  0
   27.6471  -20.4512  -13.0421 C   0  0  1  0  0  0  0  0  0  0  0  0
   29.0792  -20.9849  -13.1925 C   0  0  0  0  0  0  0  0  0  0  0  0
   30.2313  -20.2288  -12.0469 S   0  0  0  0  0  0  0  0  0  0  0  0
   27.3922  -20.0494  -11.6343 C   0  0  0  0  0  0  0  0  0  0  0  0
   27.9599  -18.9962  -11.1810 O   0  0  0  0  0  0  0  0  0  0  0  0
   26.5646  -20.7301  -10.7240 N   0  0  0  0  0  0  0  0  0  0  0  0
   25.3884  -20.1480  -10.1058 C   0  0  1  0  0  0  0  0  0  0  0  0
   24.4898  -19.6985  -11.2666 C   0  0  0  0  0  0  0  0  0  0  0  0
   23.2133  -20.4126  -11.2700 C   0  0  0  0  0  0  0  0  0  0  0  0
   22.6256  -20.9837  -10.1615 C   0  0  0  0  0  0  0  0  0  0  0  0
   21.4661  -21.5463  -10.5566 N   0  0  0  0  0  0  0  0  0  0  0  0
   21.3121  -21.3427  -11.8827 C   0  0  0  0  0  0  0  0  0  0  0  0
   20.3289  -21.6926  -12.7986 C   0  0  0  0  0  0  0  0  0  0  0  0
   20.4115  -21.3544  -14.1342 C   0  0  0  0  0  0  0  0  0  0  0  0
   21.5183  -20.6369  -14.5828 C   0  0  0  0  0  0  0  0  0  0  0  0
   22.5147  -20.2717  -13.7024 C   0  0  0  0  0  0  0  0  0  0  0  0
   22.4145  -20.6220  -12.3570 C   0  0  0  0  0  0  0  0  0  0  0  0
   24.6730  -21.1582   -9.2916 C   0  0  0  0  0  0  0  0  0  0  0  0
   23.9702  -20.8606   -8.2885 O   0  0  0  0  0  0  0  0  0  0  0  0
   24.7492  -22.5069   -9.6081 O   0  0  0  0  0  0  0  0  0  0  0  0
  2  1  1  0
  3  2  1  0
  4  3  1  0
  4  5  1  0
  5  6  1  6
  7  5  1  0
  7  8  2  0
  9 10  1  0
  9  7  1  0
 10 13  1  0
 11 12  1  0
 10 11  1  1
 13 15  1  0
 14 13  2  0
 15 16  1  0
 16 27  1  0
 16 17  1  6
 18 17  1  0
 19 18  2  0
 20 21  1  0
 20 19  1  0
 21 26  2  0
 22 23  2  0
 22 21  1  0
 23 24  1  0
 24 25  2  0
 26 18  1  0
 26 25  1  0
 27 28  2  0
 27 29  1  0
M  END
$$$$
