RQL.pdb
     RDKit          3D

 29 28  0  0  1  0  0  0  0  0999 V2000
    8.3779  -19.1206   14.0577 N   0  0  0  0  0  0  0  0  0  0  0  0
    7.8422  -20.1965   14.8486 C   0  0  0  0  0  0  0  0  0  0  0  0
    7.8341  -21.4066   14.3889 N   0  0  0  0  0  0  0  0  0  0  0  0
    7.3116  -19.9773   16.1397 N   0  0  0  0  0  0  0  0  0  0  0  0
    6.6580  -18.7083   16.4448 C   0  0  0  0  0  0  0  0  0  0  0  0
    7.4885  -17.9173   17.4288 C   0  0  0  0  0  0  0  0  0  0  0  0
    7.2204  -18.4120   18.8149 C   0  0  0  0  0  0  0  0  0  0  0  0
    8.0366  -17.6781   19.8138 C   0  0  2  0  0  0  0  0  0  0  0  0
    9.2607  -18.4416   20.1536 N   0  0  0  0  0  0  0  0  0  0  0  0
    7.3173  -17.3521   21.0643 C   0  0  0  0  0  0  0  0  0  0  0  0
    6.2547  -16.6919   21.1448 O   0  0  0  0  0  0  0  0  0  0  0  0
    7.6020  -22.2243   14.9892 N   0  0  0  0  0  0  0  0  0  0  0  0
    7.5497  -20.6861   26.2708 C   0  0  0  0  0  0  0  0  0  0  0  0
    6.5735  -20.8742   25.2519 O   0  0  0  0  0  0  0  0  0  0  0  0
    5.8697  -21.8914   25.1327 C   0  0  0  0  0  0  0  0  0  0  0  0
    6.3910  -19.7578   24.2573 C   0  0  0  0  0  0  0  0  0  0  0  0
    7.3063  -18.6135   24.5664 C   0  0  2  0  0  0  0  0  0  0  0  0
    7.1868  -17.5522   23.5259 N   0  0  0  0  0  0  0  0  0  0  0  0
    7.8581  -17.8169   22.2958 C   0  0  0  0  0  0  0  0  0  0  0  0
    7.8126  -16.3057   24.1059 O   0  0  0  0  0  0  0  0  0  0  0  0
    9.0235  -16.0061   23.8522 C   0  0  0  0  0  0  0  0  0  0  0  0
    7.5127  -12.1877   27.5924 C   0  0  1  0  0  0  0  0  0  0  0  0
    7.0716  -11.9011   26.1599 C   0  0  0  0  0  0  0  0  0  0  0  0
    5.9773  -10.8833   26.2313 C   0  0  0  0  0  0  0  0  0  0  0  0
    6.6179  -13.2102   25.5825 C   0  0  2  0  0  0  0  0  0  0  0  0
    7.7319  -14.2183   25.4028 N   0  0  0  0  0  0  0  0  0  0  0  0
    7.0958  -15.4350   24.9389 C   0  0  0  0  0  0  0  0  0  0  0  0
    8.4394  -14.5158   26.6590 O   0  0  0  0  0  0  0  0  0  0  0  0
    7.9579  -15.4655   27.5396 O   0  0  0  0  0  0  0  0  0  0  0  0
  1  2  1  0
  2  3  2  0
  4  5  1  0
  4  2  1  0
  6  5  1  0
  7  6  1  0
  8 10  1  0
  8  7  1  0
  8  9  1  1
 10 11  2  0
 13 12  1  0
 13 14  2  0
 15 13  1  0
 16 15  1  0
 17 16  1  6
 17 19  1  0
 18 17  1  0
 18 10  1  0
 19 20  2  0
 19 26  1  0
 22 21  1  6
 22 24  1  0
 23 22  1  0
 25 24  1  6
 25 27  1  0
 26 25  1  0
 27 29  2  0
 27 28  1  0
M  END
$$$$
