RQL.pdb
     RDKit          3D

 29 28  0  0  1  0  0  0  0  0999 V2000
    8.0720  -12.3554   18.3130 N   0  0  0  0  0  0  0  0  0  0  0  0
    9.1335  -13.2352   18.7247 C   0  0  0  0  0  0  0  0  0  0  0  0
   10.0791  -12.8045   19.4967 N   0  0  0  0  0  0  0  0  0  0  0  0
    9.1843  -14.5844   18.3082 N   0  0  0  0  0  0  0  0  0  0  0  0
    7.9643  -15.2460   17.8561 C   0  0  0  0  0  0  0  0  0  0  0  0
    7.7851  -16.5606   18.5796 C   0  0  0  0  0  0  0  0  0  0  0  0
    7.2031  -16.3062   19.9340 C   0  0  0  0  0  0  0  0  0  0  0  0
    6.9313  -17.5781   20.6488 C   0  0  2  0  0  0  0  0  0  0  0  0
    5.8601  -18.3436   19.9681 N   0  0  0  0  0  0  0  0  0  0  0  0
    6.5639  -17.4088   22.0714 C   0  0  0  0  0  0  0  0  0  0  0  0
    5.3977  -17.2882   22.5151 O   0  0  0  0  0  0  0  0  0  0  0  0
   10.8950  -13.3968   19.7544 N   0  0  0  0  0  0  0  0  0  0  0  0
    7.7237  -20.8789   26.6107 C   0  0  0  0  0  0  0  0  0  0  0  0
    7.2003  -19.7719   27.3368 O   0  0  0  0  0  0  0  0  0  0  0  0
    6.8621  -19.8124   28.5320 C   0  0  0  0  0  0  0  0  0  0  0  0
    7.0513  -18.4692   26.5954 C   0  0  0  0  0  0  0  0  0  0  0  0
    7.5172  -18.6059   25.1787 C   0  0  2  0  0  0  0  0  0  0  0  0
    7.2994  -17.3341   24.4314 N   0  0  0  0  0  0  0  0  0  0  0  0
    7.6064  -17.3770   23.0394 C   0  0  0  0  0  0  0  0  0  0  0  0
    8.2175  -16.3065   25.0501 O   0  0  0  0  0  0  0  0  0  0  0  0
    9.4709  -16.3361   24.8299 C   0  0  0  0  0  0  0  0  0  0  0  0
    7.7926  -12.0472   24.9075 C   0  0  1  0  0  0  0  0  0  0  0  0
    6.9292  -12.6691   26.0013 C   0  0  0  0  0  0  0  0  0  0  0  0
    6.0513  -11.5839   26.5398 C   0  0  0  0  0  0  0  0  0  0  0  0
    7.8736  -13.2228   27.0282 C   0  0  2  0  0  0  0  0  0  0  0  0
    8.6797  -14.4074   26.5421 N   0  0  0  0  0  0  0  0  0  0  0  0
    7.7351  -15.2876   25.8838 C   0  0  0  0  0  0  0  0  0  0  0  0
    9.3181  -15.1516   27.6401 O   0  0  0  0  0  0  0  0  0  0  0  0
   10.4245  -14.6450   28.2946 O   0  0  0  0  0  0  0  0  0  0  0  0
  1  2  1  0
  2  3  2  0
  4  5  1  0
  4  2  1  0
  6  5  1  0
  7  6  1  0
  8 10  1  0
  8  7  1  0
  8  9  1  6
 10 11  2  0
 13 12  1  0
 13 14  2  0
 15 13  1  0
 16 15  1  0
 17 16  1  6
 17 19  1  0
 18 17  1  0
 18 10  1  0
 19 20  2  0
 19 26  1  0
 22 21  1  6
 22 24  1  0
 23 22  1  0
 25 24  1  6
 25 27  1  0
 26 25  1  0
 27 29  2  0
 27 28  1  0
M  END
$$$$
