RQL.pdb
     RDKit          3D

 29 28  0  0  1  0  0  0  0  0999 V2000
    9.2698  -11.8030   17.8877 N   0  0  0  0  0  0  0  0  0  0  0  0
    7.9264  -12.1678   18.2516 C   0  0  0  0  0  0  0  0  0  0  0  0
    6.9290  -11.4144   17.9153 N   0  0  0  0  0  0  0  0  0  0  0  0
    7.6476  -13.3459   18.9800 N   0  0  0  0  0  0  0  0  0  0  0  0
    8.7474  -14.1980   19.4218 C   0  0  0  0  0  0  0  0  0  0  0  0
    8.2094  -15.4110   20.1448 C   0  0  0  0  0  0  0  0  0  0  0  0
    9.3286  -16.3675   20.4099 C   0  0  0  0  0  0  0  0  0  0  0  0
    8.8329  -17.6069   21.0585 C   0  0  2  0  0  0  0  0  0  0  0  0
    7.5268  -18.0117   20.4867 N   0  0  0  0  0  0  0  0  0  0  0  0
    8.6990  -17.5114   22.5284 C   0  0  0  0  0  0  0  0  0  0  0  0
    7.6260  -17.3448   23.1547 O   0  0  0  0  0  0  0  0  0  0  0  0
    5.9463  -11.6586   18.1553 N   0  0  0  0  0  0  0  0  0  0  0  0
   13.1407  -19.8799   25.9943 C   0  0  0  0  0  0  0  0  0  0  0  0
   12.1562  -20.6543   25.3179 O   0  0  0  0  0  0  0  0  0  0  0  0
   12.2806  -21.8585   25.0372 C   0  0  0  0  0  0  0  0  0  0  0  0
   10.8822  -19.9556   24.9209 C   0  0  0  0  0  0  0  0  0  0  0  0
   10.8919  -18.5293   25.3777 C   0  0  2  0  0  0  0  0  0  0  0  0
    9.7818  -17.7673   24.7370 N   0  0  0  0  0  0  0  0  0  0  0  0
    9.8755  -17.6147   23.3222 C   0  0  0  0  0  0  0  0  0  0  0  0
    9.8128  -16.3782   25.3296 O   0  0  0  0  0  0  0  0  0  0  0  0
   10.5175  -15.4597   24.8003 C   0  0  0  0  0  0  0  0  0  0  0  0
    7.8054  -12.6541   25.5521 C   0  0  2  0  0  0  0  0  0  0  0  0
    7.0597  -13.8267   26.1826 C   0  0  0  0  0  0  0  0  0  0  0  0
    5.6857  -13.3428   26.5237 C   0  0  0  0  0  0  0  0  0  0  0  0
    7.8525  -14.2384   27.3889 C   0  0  2  0  0  0  0  0  0  0  0  0
    9.2459  -14.7318   27.0657 N   0  0  0  0  0  0  0  0  0  0  0  0
    9.0757  -16.0439   26.4745 C   0  0  0  0  0  0  0  0  0  0  0  0
   10.0934  -14.8692   28.2614 O   0  0  0  0  0  0  0  0  0  0  0  0
   10.6785  -13.7646   28.8501 O   0  0  0  0  0  0  0  0  0  0  0  0
  1  2  1  0
  2  3  2  0
  4  5  1  0
  4  2  1  0
  6  5  1  0
  7  6  1  0
  8 10  1  0
  8  7  1  0
  8  9  1  6
 10 11  2  0
 13 12  1  0
 13 14  2  0
 15 13  1  0
 16 15  1  0
 17 16  1  6
 17 19  1  0
 18 17  1  0
 18 10  1  0
 19 20  2  0
 19 26  1  0
 22 21  1  6
 22 24  1  0
 23 22  1  0
 25 24  1  6
 25 27  1  0
 26 25  1  0
 27 29  2  0
 27 28  1  0
M  END
$$$$
