RQL.pdb
     RDKit          3D

 29 28  0  0  1  0  0  0  0  0999 V2000
    8.3606  -13.3467   13.6936 N   0  0  0  0  0  0  0  0  0  0  0  0
    8.7662  -14.5600   14.3521 C   0  0  0  0  0  0  0  0  0  0  0  0
    8.6814  -15.6975   13.7402 N   0  0  0  0  0  0  0  0  0  0  0  0
    9.2658  -14.5570   15.6738 N   0  0  0  0  0  0  0  0  0  0  0  0
    8.6734  -13.6662   16.6667 C   0  0  0  0  0  0  0  0  0  0  0  0
    7.3486  -14.2190   17.1389 C   0  0  0  0  0  0  0  0  0  0  0  0
    7.1745  -13.9158   18.5935 C   0  0  0  0  0  0  0  0  0  0  0  0
    8.4024  -14.2423   19.3603 C   0  0  2  0  0  0  0  0  0  0  0  0
    9.3051  -15.1055   18.5624 N   0  0  0  0  0  0  0  0  0  0  0  0
    8.1493  -14.8952   20.6631 C   0  0  0  0  0  0  0  0  0  0  0  0
    7.2294  -14.5995   21.4617 O   0  0  0  0  0  0  0  0  0  0  0  0
    8.9454  -16.5932   14.1995 N   0  0  0  0  0  0  0  0  0  0  0  0
   11.2432  -19.9058   23.1793 C   0  0  0  0  0  0  0  0  0  0  0  0
   10.2403  -19.6146   24.1466 O   0  0  0  0  0  0  0  0  0  0  0  0
   10.0786  -20.2482   25.2034 C   0  0  0  0  0  0  0  0  0  0  0  0
    9.3192  -18.4582   23.8583 C   0  0  0  0  0  0  0  0  0  0  0  0
    9.6558  -17.8234   22.5443 C   0  0  2  0  0  0  0  0  0  0  0  0
    8.7892  -16.6348   22.3004 N   0  0  0  0  0  0  0  0  0  0  0  0
    9.0106  -15.9534   21.0673 C   0  0  0  0  0  0  0  0  0  0  0  0
    9.0877  -15.6482   23.4047 O   0  0  0  0  0  0  0  0  0  0  0  0
   10.2188  -15.0682   23.4719 C   0  0  0  0  0  0  0  0  0  0  0  0
    5.9587  -11.9775   26.9925 C   0  0  1  0  0  0  0  0  0  0  0  0
    7.3604  -12.5204   26.7299 C   0  0  0  0  0  0  0  0  0  0  0  0
    8.2128  -11.3603   26.3223 C   0  0  0  0  0  0  0  0  0  0  0  0
    7.2229  -13.5546   25.6507 C   0  0  2  0  0  0  0  0  0  0  0  0
    8.4833  -14.3555   25.4070 N   0  0  0  0  0  0  0  0  0  0  0  0
    8.1435  -15.3322   24.3918 C   0  0  0  0  0  0  0  0  0  0  0  0
    8.9421  -15.0751   26.6065 O   0  0  0  0  0  0  0  0  0  0  0  0
    9.8868  -14.5230   27.4502 O   0  0  0  0  0  0  0  0  0  0  0  0
  1  2  1  0
  2  3  2  0
  4  5  1  0
  4  2  1  0
  6  5  1  0
  7  6  1  0
  8 10  1  0
  8  7  1  0
  8  9  1  6
 10 11  2  0
 13 12  1  0
 13 14  2  0
 15 13  1  0
 16 15  1  0
 17 16  1  6
 17 19  1  0
 18 17  1  0
 18 10  1  0
 19 20  2  0
 19 26  1  0
 22 21  1  1
 22 24  1  0
 23 22  1  0
 25 24  1  6
 25 27  1  0
 26 25  1  0
 27 29  2  0
 27 28  1  0
M  END
$$$$
