RQL.pdb
     RDKit          3D

 29 28  0  0  1  0  0  0  0  0999 V2000
    7.8301  -13.1494   16.7052 N   0  0  0  0  0  0  0  0  0  0  0  0
    8.0258  -14.5559   16.9370 C   0  0  0  0  0  0  0  0  0  0  0  0
    8.9352  -15.2070   16.2853 N   0  0  0  0  0  0  0  0  0  0  0  0
    7.2441  -15.2710   17.8718 N   0  0  0  0  0  0  0  0  0  0  0  0
    6.7190  -16.5859   17.5169 C   0  0  0  0  0  0  0  0  0  0  0  0
    6.0941  -17.2417   18.7264 C   0  0  0  0  0  0  0  0  0  0  0  0
    7.1512  -17.9617   19.5022 C   0  0  0  0  0  0  0  0  0  0  0  0
    7.2092  -17.4800   20.9048 C   0  0  2  0  0  0  0  0  0  0  0  0
    6.6145  -16.1273   21.0197 N   0  0  0  0  0  0  0  0  0  0  0  0
    8.5711  -17.4509   21.4811 C   0  0  0  0  0  0  0  0  0  0  0  0
    9.2678  -18.4551   21.7596 O   0  0  0  0  0  0  0  0  0  0  0  0
    9.0108  -16.2440   16.3291 N   0  0  0  0  0  0  0  0  0  0  0  0
   14.4966  -13.2648   21.6814 C   0  0  0  0  0  0  0  0  0  0  0  0
   13.5245  -14.0098   20.9559 O   0  0  0  0  0  0  0  0  0  0  0  0
   13.2754  -13.8515   19.7488 C   0  0  0  0  0  0  0  0  0  0  0  0
   12.7524  -15.0579   21.7137 C   0  0  0  0  0  0  0  0  0  0  0  0
   11.2990  -15.0122   21.3556 C   0  0  2  0  0  0  0  0  0  0  0  0
   10.5512  -16.0895   22.0654 N   0  0  0  0  0  0  0  0  0  0  0  0
    9.1633  -16.1857   21.7518 C   0  0  0  0  0  0  0  0  0  0  0  0
   10.6455  -15.7808   23.5412 O   0  0  0  0  0  0  0  0  0  0  0  0
   11.7759  -15.6003   24.0980 C   0  0  0  0  0  0  0  0  0  0  0  0
    7.0904  -13.7068   24.5252 C   0  0  1  0  0  0  0  0  0  0  0  0
    7.4316  -14.2679   25.9027 C   0  0  0  0  0  0  0  0  0  0  0  0
    6.6744  -13.4587   26.9079 C   0  0  0  0  0  0  0  0  0  0  0  0
    8.9200  -14.1492   26.0558 C   0  0  1  0  0  0  0  0  0  0  0  0
    9.6685  -15.4329   25.7706 N   0  0  0  0  0  0  0  0  0  0  0  0
    9.5061  -15.6808   24.3520 C   0  0  0  0  0  0  0  0  0  0  0  0
    9.1246  -16.5855   26.5072 O   0  0  0  0  0  0  0  0  0  0  0  0
    8.5479  -17.6491   25.8400 O   0  0  0  0  0  0  0  0  0  0  0  0
  1  2  1  0
  2  3  2  0
  4  5  1  0
  4  2  1  0
  6  5  1  0
  7  6  1  0
  8 10  1  0
  8  7  1  0
  8  9  1  6
 10 11  2  0
 13 12  1  0
 13 14  2  0
 15 13  1  0
 16 15  1  0
 17 16  1  6
 17 19  1  0
 18 17  1  0
 18 10  1  0
 19 20  2  0
 19 26  1  0
 22 21  1  6
 22 24  1  0
 23 22  1  0
 25 24  1  6
 25 27  1  0
 26 25  1  0
 27 29  2  0
 27 28  1  0
M  END
$$$$
