RQL.pdb
     RDKit          3D

 29 28  0  0  1  0  0  0  0  0999 V2000
    9.3692  -15.2086   16.3487 N   0  0  0  0  0  0  0  0  0  0  0  0
    8.3782  -14.1944   16.1043 C   0  0  0  0  0  0  0  0  0  0  0  0
    8.0283  -13.8985   14.8937 N   0  0  0  0  0  0  0  0  0  0  0  0
    7.7572  -13.4920   17.1614 N   0  0  0  0  0  0  0  0  0  0  0  0
    8.1003  -13.8164   18.5425 C   0  0  0  0  0  0  0  0  0  0  0  0
    7.5208  -15.1593   18.9223 C   0  0  0  0  0  0  0  0  0  0  0  0
    7.8323  -15.4464   20.3571 C   0  0  0  0  0  0  0  0  0  0  0  0
    7.2053  -16.7171   20.7984 C   0  0  2  0  0  0  0  0  0  0  0  0
    6.0064  -17.0216   19.9819 N   0  0  0  0  0  0  0  0  0  0  0  0
    6.8258  -16.7427   22.2277 C   0  0  0  0  0  0  0  0  0  0  0  0
    5.7540  -16.3029   22.7068 O   0  0  0  0  0  0  0  0  0  0  0  0
    7.3066  -13.1778   14.6876 N   0  0  0  0  0  0  0  0  0  0  0  0
    8.4569  -20.7907   26.6858 C   0  0  0  0  0  0  0  0  0  0  0  0
    7.7189  -19.8165   27.4156 O   0  0  0  0  0  0  0  0  0  0  0  0
    7.3892  -19.9332   28.6081 C   0  0  0  0  0  0  0  0  0  0  0  0
    7.3164  -18.5641   26.6819 C   0  0  0  0  0  0  0  0  0  0  0  0
    7.7242  -18.6352   25.2426 C   0  0  2  0  0  0  0  0  0  0  0  0
    7.4233  -17.3497   24.5495 N   0  0  0  0  0  0  0  0  0  0  0  0
    7.7393  -17.3105   23.1594 C   0  0  0  0  0  0  0  0  0  0  0  0
    8.2659  -16.2899   25.2194 O   0  0  0  0  0  0  0  0  0  0  0  0
    9.4859  -16.1264   24.8952 C   0  0  0  0  0  0  0  0  0  0  0  0
    7.8914  -12.0062   25.4317 C   0  0  2  0  0  0  0  0  0  0  0  0
    6.9117  -12.7303   26.3507 C   0  0  0  0  0  0  0  0  0  0  0  0
    5.9842  -11.6968   26.9076 C   0  0  0  0  0  0  0  0  0  0  0  0
    7.7366  -13.4073   27.4063 C   0  0  2  0  0  0  0  0  0  0  0  0
    8.6289  -14.5070   26.8733 N   0  0  0  0  0  0  0  0  0  0  0  0
    7.7471  -15.4503   26.2153 C   0  0  0  0  0  0  0  0  0  0  0  0
    9.3555  -15.2177   27.9381 O   0  0  0  0  0  0  0  0  0  0  0  0
   10.4652  -14.6561   28.5399 O   0  0  0  0  0  0  0  0  0  0  0  0
  1  2  1  0
  2  3  2  0
  4  5  1  0
  4  2  1  0
  6  5  1  0
  7  6  1  0
  8 10  1  0
  8  7  1  0
  8  9  1  6
 10 11  2  0
 13 12  1  0
 13 14  2  0
 15 13  1  0
 16 15  1  0
 17 16  1  6
 17 19  1  0
 18 17  1  0
 18 10  1  0
 19 20  2  0
 19 26  1  0
 22 21  1  6
 22 24  1  0
 23 22  1  0
 25 24  1  6
 25 27  1  0
 26 25  1  0
 27 29  2  0
 27 28  1  0
M  END
$$$$
