RQL.pdb
     RDKit          3D

 29 28  0  0  1  0  0  0  0  0999 V2000
    5.0126  -18.0842   23.8393 N   0  0  0  0  0  0  0  0  0  0  0  0
    5.8241  -19.2722   23.8569 C   0  0  0  0  0  0  0  0  0  0  0  0
    6.4603  -19.6152   24.9307 N   0  0  0  0  0  0  0  0  0  0  0  0
    5.9561  -20.0991   22.7188 N   0  0  0  0  0  0  0  0  0  0  0  0
    6.1819  -19.4937   21.4099 C   0  0  0  0  0  0  0  0  0  0  0  0
    6.3343  -17.9965   21.5470 C   0  0  0  0  0  0  0  0  0  0  0  0
    6.5186  -17.3903   20.1919 C   0  0  0  0  0  0  0  0  0  0  0  0
    7.5869  -16.3603   20.2055 C   0  0  2  0  0  0  0  0  0  0  0  0
    7.9604  -15.9738   18.8243 N   0  0  0  0  0  0  0  0  0  0  0  0
    8.8098  -16.7633   20.9333 C   0  0  0  0  0  0  0  0  0  0  0  0
    9.6579  -17.5948   20.5322 O   0  0  0  0  0  0  0  0  0  0  0  0
    7.0607  -20.4643   24.9700 N   0  0  0  0  0  0  0  0  0  0  0  0
   13.8696  -17.5375   21.2162 C   0  0  0  0  0  0  0  0  0  0  0  0
   13.2502  -17.5180   22.4977 O   0  0  0  0  0  0  0  0  0  0  0  0
   13.1021  -18.5172   23.2216 C   0  0  0  0  0  0  0  0  0  0  0  0
   12.7442  -16.1907   22.9990 C   0  0  0  0  0  0  0  0  0  0  0  0
   11.5054  -15.7805   22.2642 C   0  0  2  0  0  0  0  0  0  0  0  0
   10.3013  -16.4135   22.8748 N   0  0  0  0  0  0  0  0  0  0  0  0
    9.0684  -16.1700   22.2006 C   0  0  0  0  0  0  0  0  0  0  0  0
   10.1634  -15.8314   24.2619 O   0  0  0  0  0  0  0  0  0  0  0  0
   11.1919  -15.5863   24.9707 C   0  0  0  0  0  0  0  0  0  0  0  0
    8.0877  -12.3689   25.9396 C   0  0  2  0  0  0  0  0  0  0  0  0
    7.1906  -13.5309   25.5229 C   0  0  0  0  0  0  0  0  0  0  0  0
    5.7776  -13.0446   25.5959 C   0  0  0  0  0  0  0  0  0  0  0  0
    7.4743  -14.6536   26.4780 C   0  0  2  0  0  0  0  0  0  0  0  0
    8.8110  -15.3256   26.2521 N   0  0  0  0  0  0  0  0  0  0  0  0
    8.9119  -15.5392   24.8223 C   0  0  0  0  0  0  0  0  0  0  0  0
    8.9130  -16.6316   26.9236 O   0  0  0  0  0  0  0  0  0  0  0  0
    9.0567  -16.7177   28.2951 O   0  0  0  0  0  0  0  0  0  0  0  0
  1  2  1  0
  2  3  2  0
  4  5  1  0
  4  2  1  0
  6  5  1  0
  7  6  1  0
  8 10  1  0
  8  7  1  0
  8  9  1  6
 10 11  2  0
 13 12  1  0
 13 14  2  0
 15 13  1  0
 16 15  1  0
 17 16  1  6
 17 19  1  0
 18 17  1  0
 18 10  1  0
 19 20  2  0
 19 26  1  0
 22 21  1  6
 22 24  1  0
 23 22  1  0
 25 24  1  6
 25 27  1  0
 26 25  1  0
 27 29  2  0
 27 28  1  0
M  END
$$$$
