RQL.pdb
     RDKit          3D

 29 28  0  0  1  0  0  0  0  0999 V2000
   10.2938  -14.3647   17.3387 N   0  0  0  0  0  0  0  0  0  0  0  0
   10.6972  -13.6291   18.5076 C   0  0  0  0  0  0  0  0  0  0  0  0
   11.8942  -13.7591   18.9827 N   0  0  0  0  0  0  0  0  0  0  0  0
    9.8148  -12.7486   19.1729 N   0  0  0  0  0  0  0  0  0  0  0  0
    8.4060  -12.7157   18.7925 C   0  0  0  0  0  0  0  0  0  0  0  0
    7.7832  -14.0798   18.9799 C   0  0  0  0  0  0  0  0  0  0  0  0
    7.5698  -14.3316   20.4390 C   0  0  0  0  0  0  0  0  0  0  0  0
    7.4176  -15.7816   20.7166 C   0  0  2  0  0  0  0  0  0  0  0  0
    6.1263  -16.2836   20.1902 N   0  0  0  0  0  0  0  0  0  0  0  0
    7.5188  -16.1398   22.1481 C   0  0  0  0  0  0  0  0  0  0  0  0
    6.5577  -16.2312   22.9477 O   0  0  0  0  0  0  0  0  0  0  0  0
   12.1920  -13.2948   19.8652 N   0  0  0  0  0  0  0  0  0  0  0  0
   11.9009  -19.7877   24.7135 C   0  0  0  0  0  0  0  0  0  0  0  0
   11.1096  -19.4336   25.8426 O   0  0  0  0  0  0  0  0  0  0  0  0
   11.2710  -19.8938   26.9856 C   0  0  0  0  0  0  0  0  0  0  0  0
   10.0054  -18.4326   25.6243 C   0  0  0  0  0  0  0  0  0  0  0  0
   10.0128  -17.9302   24.2134 C   0  0  2  0  0  0  0  0  0  0  0  0
    8.9451  -16.9080   24.0166 N   0  0  0  0  0  0  0  0  0  0  0  0
    8.8077  -16.4085   22.6880 C   0  0  0  0  0  0  0  0  0  0  0  0
    9.3073  -15.7307   24.8910 O   0  0  0  0  0  0  0  0  0  0  0  0
   10.3201  -15.0076   24.6232 C   0  0  0  0  0  0  0  0  0  0  0  0
    7.4011  -12.1369   25.4374 C   0  0  2  0  0  0  0  0  0  0  0  0
    6.7235  -13.2383   26.2477 C   0  0  0  0  0  0  0  0  0  0  0  0
    5.4421  -12.6730   26.7739 C   0  0  0  0  0  0  0  0  0  0  0  0
    7.6849  -13.6222   27.3346 C   0  0  2  0  0  0  0  0  0  0  0  0
    8.9626  -14.2534   26.8261 N   0  0  0  0  0  0  0  0  0  0  0  0
    8.5531  -15.3873   26.0220 C   0  0  0  0  0  0  0  0  0  0  0  0
    9.8272  -14.7440   27.9118 O   0  0  0  0  0  0  0  0  0  0  0  0
   10.0871  -16.0928   28.0606 O   0  0  0  0  0  0  0  0  0  0  0  0
  1  2  1  0
  2  3  2  0
  4  5  1  0
  4  2  1  0
  6  5  1  0
  7  6  1  0
  8 10  1  0
  8  7  1  0
  8  9  1  1
 10 11  2  0
 13 12  1  0
 13 14  2  0
 15 13  1  0
 16 15  1  0
 17 16  1  6
 17 19  1  0
 18 17  1  0
 18 10  1  0
 19 20  2  0
 19 26  1  0
 22 21  1  6
 22 24  1  0
 23 22  1  0
 25 24  1  6
 25 27  1  0
 26 25  1  0
 27 29  2  0
 27 28  1  0
M  END
$$$$
