PDM.pdb
     RDKit          3D

 24 24  0  0  1  0  0  0  0  0999 V2000
   14.1480   -8.1665   -9.6350 N   0  0  0  0  0  0  0  0  0  0  0  0
   12.8619   -8.6235   -9.2044 C   0  0  0  0  0  0  0  0  0  0  0  0
   13.0124  -10.1398   -9.0354 C   0  0  0  0  0  0  0  0  0  0  0  0
   13.9360  -10.4488  -10.2239 C   0  0  0  0  0  0  0  0  0  0  0  0
   14.9050   -9.2871  -10.0989 C   0  0  1  0  0  0  0  0  0  0  0  0
   15.6124   -8.9917  -11.3733 C   0  0  0  0  0  0  0  0  0  0  0  0
   16.2717   -9.8960  -11.9425 O   0  0  0  0  0  0  0  0  0  0  0  0
   15.5661   -7.6948  -11.9799 N   0  0  0  0  0  0  0  0  0  0  0  0
   16.1533   -7.3876  -13.2496 C   0  0  1  0  0  0  0  0  0  0  0  0
   15.3478   -6.3961  -14.0346 C   0  0  0  0  0  0  0  0  0  0  0  0
   14.0177   -6.9236  -14.4221 C   0  0  0  0  0  0  0  0  0  0  0  0
   12.9693   -6.3395  -14.0547 O   0  0  0  0  0  0  0  0  0  0  0  0
   17.5905   -7.0535  -13.1653 C   0  0  0  0  0  0  0  0  0  0  0  0
   17.9798   -6.3250  -12.2198 O   0  0  0  0  0  0  0  0  0  0  0  0
   13.8495   -8.0634  -15.1925 O   0  0  0  0  0  0  0  0  0  0  0  0
   22.5739  -10.5468  -11.7522 C   0  0  0  0  0  0  0  0  0  0  0  0
   23.1355   -9.7703  -13.2823 S   0  0  0  0  0  0  0  0  0  0  0  0
   22.2367   -8.2069  -13.5698 C   0  0  0  0  0  0  0  0  0  0  0  0
   20.7783   -8.4662  -13.8038 C   0  0  0  0  0  0  0  0  0  0  0  0
   19.9899   -7.2269  -13.9993 C   0  0  2  0  0  0  0  0  0  0  0  0
   18.5569   -7.5046  -14.0872 N   0  0  0  0  0  0  0  0  0  0  0  0
   20.4527   -6.3671  -15.0733 C   0  0  0  0  0  0  0  0  0  0  0  0
   19.9622   -6.5403  -16.2282 O   0  0  0  0  0  0  0  0  0  0  0  0
   21.3829   -5.3740  -14.9359 O   0  0  0  0  0  0  0  0  0  0  0  0
  1  5  1  0
  1  2  1  0
  2  3  1  0
  4  5  1  0
  4  3  1  0
  6  7  2  0
  5  6  1  6
  8  6  1  0
  9 13  1  0
  9  8  1  0
  9 10  1  1
 11 10  1  0
 11 12  2  0
 13 21  1  0
 14 13  2  0
 15 11  1  0
 17 16  1  0
 18 17  1  0
 20 19  1  6
 19 18  1  0
 20 22  1  0
 21 20  1  0
 22 23  2  0
 22 24  1  0
M  END
$$$$
