PDM.pdb
     RDKit          3D

 24 24  0  0  1  0  0  0  0  0999 V2000
   27.5618  -18.4694   -5.6972 N   0  0  0  0  0  0  0  0  0  0  0  0
   27.3740  -18.2639   -4.2932 C   0  0  0  0  0  0  0  0  0  0  0  0
   28.2347  -19.3354   -3.6139 C   0  0  0  0  0  0  0  0  0  0  0  0
   28.0123  -20.5076   -4.5822 C   0  0  0  0  0  0  0  0  0  0  0  0
   28.1231  -19.7679   -5.9031 C   0  0  1  0  0  0  0  0  0  0  0  0
   27.4598  -20.4901   -7.0212 C   0  0  0  0  0  0  0  0  0  0  0  0
   27.8390  -21.6477   -7.3255 O   0  0  0  0  0  0  0  0  0  0  0  0
   26.3905  -19.9020   -7.7715 N   0  0  0  0  0  0  0  0  0  0  0  0
   25.8574  -20.4659   -8.9752 C   0  0  1  0  0  0  0  0  0  0  0  0
   24.4291  -20.0765   -9.2131 C   0  0  0  0  0  0  0  0  0  0  0  0
   23.8024  -20.8549  -10.3080 C   0  0  0  0  0  0  0  0  0  0  0  0
   24.4623  -21.7212  -10.9320 O   0  0  0  0  0  0  0  0  0  0  0  0
   26.7314  -20.2711  -10.1510 C   0  0  0  0  0  0  0  0  0  0  0  0
   26.8830  -19.1069  -10.5960 O   0  0  0  0  0  0  0  0  0  0  0  0
   22.4853  -20.6818  -10.7033 O   0  0  0  0  0  0  0  0  0  0  0  0
   32.3275  -22.7283   -9.6701 C   0  0  0  0  0  0  0  0  0  0  0  0
   32.3646  -22.6516  -11.4735 S   0  0  0  0  0  0  0  0  0  0  0  0
   30.9468  -21.6853  -12.0987 C   0  0  0  0  0  0  0  0  0  0  0  0
   29.7402  -21.8882  -11.2316 C   0  0  0  0  0  0  0  0  0  0  0  0
   28.5503  -21.1426  -11.7049 C   0  0  2  0  0  0  0  0  0  0  0  0
   27.4088  -21.3183  -10.8080 N   0  0  0  0  0  0  0  0  0  0  0  0
   28.1992  -21.3645  -13.0957 C   0  0  0  0  0  0  0  0  0  0  0  0
   27.1887  -22.0856  -13.3470 O   0  0  0  0  0  0  0  0  0  0  0  0
   28.8771  -20.8500  -14.1663 O   0  0  0  0  0  0  0  0  0  0  0  0
  1  5  1  0
  1  2  1  0
  2  3  1  0
  4  5  1  0
  4  3  1  0
  6  7  2  0
  5  6  1  6
  8  6  1  0
  9 13  1  0
  9  8  1  0
  9 10  1  6
 11 10  1  0
 11 12  2  0
 13 21  1  0
 14 13  2  0
 15 11  1  0
 17 16  1  0
 18 17  1  0
 20 19  1  1
 19 18  1  0
 20 22  1  0
 21 20  1  0
 22 23  2  0
 22 24  1  0
M  END
$$$$
