PDM.pdb
     RDKit          3D

 24 24  0  0  1  0  0  0  0  0999 V2000
   19.6656  -12.9630  -15.8769 N   0  0  0  0  0  0  0  0  0  0  0  0
   18.8393  -14.1131  -16.0845 C   0  0  0  0  0  0  0  0  0  0  0  0
   18.7794  -14.2927  -17.6059 C   0  0  0  0  0  0  0  0  0  0  0  0
   18.7278  -12.8212  -18.0451 C   0  0  0  0  0  0  0  0  0  0  0  0
   19.7703  -12.2413  -17.1065 C   0  0  1  0  0  0  0  0  0  0  0  0
   19.6098  -10.7762  -16.9072 C   0  0  0  0  0  0  0  0  0  0  0  0
   19.9223   -9.9852  -17.8309 O   0  0  0  0  0  0  0  0  0  0  0  0
   19.1050  -10.2312  -15.6824 N   0  0  0  0  0  0  0  0  0  0  0  0
   18.9437   -8.8288  -15.4410 C   0  0  1  0  0  0  0  0  0  0  0  0
   17.7589   -8.5237  -14.5741 C   0  0  0  0  0  0  0  0  0  0  0  0
   16.4717   -8.8351  -15.2401 C   0  0  0  0  0  0  0  0  0  0  0  0
   16.3254   -8.6313  -16.4699 O   0  0  0  0  0  0  0  0  0  0  0  0
   20.1883   -8.1622  -15.0042 C   0  0  0  0  0  0  0  0  0  0  0  0
   20.7646   -8.5893  -13.9739 O   0  0  0  0  0  0  0  0  0  0  0  0
   15.3771   -9.3560  -14.5681 O   0  0  0  0  0  0  0  0  0  0  0  0
   26.4352   -3.7759  -17.1453 C   0  0  0  0  0  0  0  0  0  0  0  0
   24.8129   -4.4469  -17.5667 S   0  0  0  0  0  0  0  0  0  0  0  0
   24.0302   -5.1914  -16.0944 C   0  0  0  0  0  0  0  0  0  0  0  0
   22.7264   -5.8390  -16.4544 C   0  0  0  0  0  0  0  0  0  0  0  0
   22.0207   -6.4172  -15.2867 C   0  0  2  0  0  0  0  0  0  0  0  0
   20.7714   -7.0692  -15.6769 N   0  0  0  0  0  0  0  0  0  0  0  0
   21.8448   -5.5126  -14.1653 C   0  0  0  0  0  0  0  0  0  0  0  0
   20.7876   -4.8163  -14.1221 O   0  0  0  0  0  0  0  0  0  0  0  0
   22.7364   -5.3526  -13.1407 O   0  0  0  0  0  0  0  0  0  0  0  0
  1  5  1  0
  1  2  1  0
  2  3  1  0
  4  5  1  0
  4  3  1  0
  6  7  2  0
  5  6  1  1
  8  6  1  0
  9 13  1  0
  9  8  1  0
  9 10  1  1
 11 10  1  0
 11 12  2  0
 13 21  1  0
 14 13  2  0
 15 11  1  0
 17 16  1  0
 18 17  1  0
 20 19  1  6
 19 18  1  0
 20 22  1  0
 21 20  1  0
 22 23  2  0
 22 24  1  0
M  END
$$$$
