PDM.pdb
     RDKit          3D

 24 24  0  0  1  0  0  0  0  0999 V2000
   20.4080  -13.5155  -16.4475 N   0  0  0  0  0  0  0  0  0  0  0  0
   19.7586  -14.6887  -16.9478 C   0  0  0  0  0  0  0  0  0  0  0  0
   20.0733  -14.7107  -18.4480 C   0  0  0  0  0  0  0  0  0  0  0  0
   19.9960  -13.2077  -18.7575 C   0  0  0  0  0  0  0  0  0  0  0  0
   20.7338  -12.6630  -17.5479 C   0  0  1  0  0  0  0  0  0  0  0  0
   20.4020  -11.2407  -17.2674 C   0  0  0  0  0  0  0  0  0  0  0  0
   20.6864  -10.3573  -18.1131 O   0  0  0  0  0  0  0  0  0  0  0  0
   19.7615  -10.8403  -16.0502 N   0  0  0  0  0  0  0  0  0  0  0  0
   19.3944   -9.4889  -15.7500 C   0  0  1  0  0  0  0  0  0  0  0  0
   18.1730   -9.3999  -14.8849 C   0  0  0  0  0  0  0  0  0  0  0  0
   17.0014  -10.0831  -15.4832 C   0  0  0  0  0  0  0  0  0  0  0  0
   16.6855   -9.8751  -16.6799 O   0  0  0  0  0  0  0  0  0  0  0  0
   20.5251   -8.6671  -15.2700 C   0  0  0  0  0  0  0  0  0  0  0  0
   21.1396   -9.0399  -14.2407 O   0  0  0  0  0  0  0  0  0  0  0  0
   16.2009  -10.9702  -14.7806 O   0  0  0  0  0  0  0  0  0  0  0  0
   26.2196   -3.5827  -17.3843 C   0  0  0  0  0  0  0  0  0  0  0  0
   24.7095   -4.4745  -17.8133 S   0  0  0  0  0  0  0  0  0  0  0  0
   23.9950   -5.2660  -16.3308 C   0  0  0  0  0  0  0  0  0  0  0  0
   22.7713   -6.0566  -16.6866 C   0  0  0  0  0  0  0  0  0  0  0  0
   22.1448   -6.7184  -15.5181 C   0  0  2  0  0  0  0  0  0  0  0  0
   20.9583   -7.4828  -15.9002 N   0  0  0  0  0  0  0  0  0  0  0  0
   21.9007   -5.8523  -14.3792 C   0  0  0  0  0  0  0  0  0  0  0  0
   20.7770   -5.2729  -14.3017 O   0  0  0  0  0  0  0  0  0  0  0  0
   22.7945   -5.6118  -13.3723 O   0  0  0  0  0  0  0  0  0  0  0  0
  1  5  1  0
  1  2  1  0
  2  3  1  0
  4  5  1  0
  4  3  1  0
  6  7  2  0
  5  6  1  1
  8  6  1  0
  9 13  1  0
  9  8  1  0
  9 10  1  1
 11 10  1  0
 11 12  2  0
 13 21  1  0
 14 13  2  0
 15 11  1  0
 17 16  1  0
 18 17  1  0
 20 19  1  6
 19 18  1  0
 20 22  1  0
 21 20  1  0
 22 23  2  0
 22 24  1  0
M  END
$$$$
