PDM.pdb
     RDKit          3D

 24 24  0  0  1  0  0  0  0  0999 V2000
   25.6141  -21.7273  -13.7335 N   0  0  0  0  0  0  0  0  0  0  0  0
   26.9234  -21.1582  -13.8357 C   0  0  0  0  0  0  0  0  0  0  0  0
   27.3940  -20.9758  -12.3881 C   0  0  0  0  0  0  0  0  0  0  0  0
   26.0713  -20.5531  -11.7303 C   0  0  0  0  0  0  0  0  0  0  0  0
   25.1301  -21.5366  -12.4019 C   0  0  1  0  0  0  0  0  0  0  0  0
   23.7153  -21.0786  -12.3842 C   0  0  0  0  0  0  0  0  0  0  0  0
   23.1714  -20.7818  -11.2921 O   0  0  0  0  0  0  0  0  0  0  0  0
   22.9434  -20.9637  -13.5855 N   0  0  0  0  0  0  0  0  0  0  0  0
   21.5935  -20.4867  -13.6227 C   0  0  1  0  0  0  0  0  0  0  0  0
   21.3004  -19.6755  -14.8493 C   0  0  0  0  0  0  0  0  0  0  0  0
   20.1469  -18.7629  -14.6652 C   0  0  0  0  0  0  0  0  0  0  0  0
   19.0924  -19.1713  -14.1205 O   0  0  0  0  0  0  0  0  0  0  0  0
   20.5921  -21.5393  -13.3517 C   0  0  0  0  0  0  0  0  0  0  0  0
   20.6477  -22.6020  -14.0178 O   0  0  0  0  0  0  0  0  0  0  0  0
   20.1565  -17.4377  -15.0711 O   0  0  0  0  0  0  0  0  0  0  0  0
   19.1394  -23.5166   -7.7634 C   0  0  0  0  0  0  0  0  0  0  0  0
   17.7351  -24.3487   -8.5349 S   0  0  0  0  0  0  0  0  0  0  0  0
   17.6490  -23.9367  -10.3119 C   0  0  0  0  0  0  0  0  0  0  0  0
   18.6639  -22.8910  -10.6659 C   0  0  0  0  0  0  0  0  0  0  0  0
   18.5865  -22.4591  -12.0813 C   0  0  2  0  0  0  0  0  0  0  0  0
   19.5717  -21.4225  -12.3861 N   0  0  0  0  0  0  0  0  0  0  0  0
   17.2562  -22.1104  -12.5455 C   0  0  0  0  0  0  0  0  0  0  0  0
   16.6375  -22.9496  -13.2647 O   0  0  0  0  0  0  0  0  0  0  0  0
   16.6105  -20.9383  -12.2634 O   0  0  0  0  0  0  0  0  0  0  0  0
  1  5  1  0
  1  2  1  0
  2  3  1  0
  4  5  1  0
  4  3  1  0
  6  7  2  0
  5  6  1  6
  8  6  1  0
  9 13  1  0
  9  8  1  0
  9 10  1  6
 11 10  1  0
 11 12  2  0
 13 21  1  0
 14 13  2  0
 15 11  1  0
 17 16  1  0
 18 17  1  0
 20 19  1  1
 19 18  1  0
 20 22  1  0
 21 20  1  0
 22 23  2  0
 22 24  1  0
M  END
$$$$
