PDM.pdb
     RDKit          3D

 24 24  0  0  1  0  0  0  0  0999 V2000
   28.3498  -20.7088  -16.4187 N   0  0  0  0  0  0  0  0  0  0  0  0
   28.5328  -20.5319  -17.8272 C   0  0  0  0  0  0  0  0  0  0  0  0
   29.1944  -19.1568  -17.9746 C   0  0  0  0  0  0  0  0  0  0  0  0
   28.4574  -18.3876  -16.8672 C   0  0  0  0  0  0  0  0  0  0  0  0
   28.4777  -19.4397  -15.7732 C   0  0  1  0  0  0  0  0  0  0  0  0
   27.4176  -19.2251  -14.7525 C   0  0  0  0  0  0  0  0  0  0  0  0
   27.3844  -18.1483  -14.1075 O   0  0  0  0  0  0  0  0  0  0  0  0
   26.4218  -20.2174  -14.4774 N   0  0  0  0  0  0  0  0  0  0  0  0
   25.3626  -20.0421  -13.5295 C   0  0  1  0  0  0  0  0  0  0  0  0
   24.0142  -20.3583  -14.1039 C   0  0  0  0  0  0  0  0  0  0  0  0
   22.9210  -20.1836  -13.1181 C   0  0  0  0  0  0  0  0  0  0  0  0
   22.6697  -19.0508  -12.6399 O   0  0  0  0  0  0  0  0  0  0  0  0
   25.6245  -20.6960  -12.2302 C   0  0  0  0  0  0  0  0  0  0  0  0
   25.6426  -21.9506  -12.1861 O   0  0  0  0  0  0  0  0  0  0  0  0
   22.1282  -21.2295  -12.6723 O   0  0  0  0  0  0  0  0  0  0  0  0
   29.8339  -19.6405   -7.1956 C   0  0  0  0  0  0  0  0  0  0  0  0
   28.1978  -19.5589   -6.4364 S   0  0  0  0  0  0  0  0  0  0  0  0
   26.9806  -20.4696   -7.4483 C   0  0  0  0  0  0  0  0  0  0  0  0
   26.8684  -19.8670   -8.8169 C   0  0  0  0  0  0  0  0  0  0  0  0
   25.9421  -20.6072   -9.7056 C   0  0  2  0  0  0  0  0  0  0  0  0
   25.8557  -19.9936  -11.0301 N   0  0  0  0  0  0  0  0  0  0  0  0
   24.6349  -20.8828   -9.1382 C   0  0  0  0  0  0  0  0  0  0  0  0
   23.6409  -20.2443   -9.5949 O   0  0  0  0  0  0  0  0  0  0  0  0
   24.3881  -21.7872   -8.1425 O   0  0  0  0  0  0  0  0  0  0  0  0
  1  5  1  0
  1  2  1  0
  2  3  1  0
  4  5  1  0
  4  3  1  0
  6  7  2  0
  5  6  1  1
  8  6  1  0
  9 13  1  0
  9  8  1  0
  9 10  1  6
 11 10  1  0
 11 12  2  0
 13 21  1  0
 14 13  2  0
 15 11  1  0
 17 16  1  0
 18 17  1  0
 20 19  1  1
 19 18  1  0
 20 22  1  0
 21 20  1  0
 22 23  2  0
 22 24  1  0
M  END
$$$$
