PDM.pdb
     RDKit          3D

 24 24  0  0  1  0  0  0  0  0999 V2000
   17.9708  -13.8148  -17.1360 N   0  0  0  0  0  0  0  0  0  0  0  0
   16.6690  -14.3775  -16.9432 C   0  0  0  0  0  0  0  0  0  0  0  0
   15.9947  -14.3052  -18.3182 C   0  0  0  0  0  0  0  0  0  0  0  0
   16.5347  -12.9525  -18.8078 C   0  0  0  0  0  0  0  0  0  0  0  0
   17.9804  -13.0826  -18.3639 C   0  0  1  0  0  0  0  0  0  0  0  0
   18.6565  -11.7657  -18.2213 C   0  0  0  0  0  0  0  0  0  0  0  0
   19.8665  -11.6505  -18.5362 O   0  0  0  0  0  0  0  0  0  0  0  0
   17.9652  -10.6109  -17.7308 N   0  0  0  0  0  0  0  0  0  0  0  0
   18.5739   -9.3237  -17.5763 C   0  0  1  0  0  0  0  0  0  0  0  0
   17.5674   -8.2205  -17.4409 C   0  0  0  0  0  0  0  0  0  0  0  0
   16.7667   -8.0269  -18.6732 C   0  0  0  0  0  0  0  0  0  0  0  0
   17.3198   -7.6745  -19.7433 O   0  0  0  0  0  0  0  0  0  0  0  0
   19.6309   -9.2952  -16.5438 C   0  0  0  0  0  0  0  0  0  0  0  0
   19.3601   -9.7353  -15.3996 O   0  0  0  0  0  0  0  0  0  0  0  0
   15.3945   -8.2162  -18.7231 O   0  0  0  0  0  0  0  0  0  0  0  0
   26.9363  -11.0192  -14.7552 C   0  0  0  0  0  0  0  0  0  0  0  0
   25.7070  -10.6549  -16.0263 S   0  0  0  0  0  0  0  0  0  0  0  0
   24.2796   -9.7787  -15.2985 C   0  0  0  0  0  0  0  0  0  0  0  0
   23.1751   -9.6340  -16.3026 C   0  0  0  0  0  0  0  0  0  0  0  0
   22.0234   -8.8526  -15.7938 C   0  0  2  0  0  0  0  0  0  0  0  0
   20.9322   -8.8005  -16.7657 N   0  0  0  0  0  0  0  0  0  0  0  0
   22.3554   -7.5421  -15.2653 C   0  0  0  0  0  0  0  0  0  0  0  0
   22.2382   -6.5427  -16.0346 O   0  0  0  0  0  0  0  0  0  0  0  0
   22.7861   -7.2977  -13.9905 O   0  0  0  0  0  0  0  0  0  0  0  0
  1  5  1  0
  1  2  1  0
  2  3  1  0
  4  5  1  0
  4  3  1  0
  6  7  2  0
  5  6  1  1
  8  6  1  0
  9 13  1  0
  9  8  1  0
  9 10  1  1
 11 10  1  0
 11 12  2  0
 13 21  1  0
 14 13  2  0
 15 11  1  0
 17 16  1  0
 18 17  1  0
 20 19  1  6
 19 18  1  0
 20 22  1  0
 21 20  1  0
 22 23  2  0
 22 24  1  0
M  END
$$$$
