CAW.pdb
     RDKit          3D

 26 27  0  0  1  0  0  0  0  0999 V2000
   19.7718  -20.1179  -11.6264 N   0  0  0  0  0  0  0  0  0  0  0  0
   20.3497  -21.4361  -11.7725 C   0  0  1  0  0  0  0  0  0  0  0  0
   19.3212  -22.4618  -12.1300 C   0  0  0  0  0  0  0  0  0  0  0  0
   17.7225  -22.1992  -11.3560 S   0  0  0  0  0  0  0  0  0  0  0  0
   21.4862  -21.4178  -12.7382 C   0  0  0  0  0  0  0  0  0  0  0  0
   21.9954  -22.5321  -13.0321 O   0  0  0  0  0  0  0  0  0  0  0  0
   22.7888  -19.2292  -15.3204 C   0  0  0  0  0  0  0  0  0  0  0  0
   23.0678  -20.1962  -14.2262 C   0  0  2  0  0  0  0  0  0  0  0  0
   21.9645  -20.2020  -13.2940 N   0  0  0  0  0  0  0  0  0  0  0  0
   24.3677  -19.9985  -13.5483 C   0  0  0  0  0  0  0  0  0  0  0  0
   24.4251  -19.1289  -12.6319 O   0  0  0  0  0  0  0  0  0  0  0  0
   25.5387  -20.7048  -13.8477 N   0  0  0  0  0  0  0  0  0  0  0  0
   26.7811  -20.5856  -13.0893 C   0  0  1  0  0  0  0  0  0  0  0  0
   26.5482  -20.8310  -11.6453 C   0  0  0  0  0  0  0  0  0  0  0  0
   27.6858  -20.7362  -10.7472 C   0  0  0  0  0  0  0  0  0  0  0  0
   29.0222  -20.9408  -11.1077 C   0  0  0  0  0  0  0  0  0  0  0  0
   29.7548  -20.7915   -9.9993 N   0  0  0  0  0  0  0  0  0  0  0  0
   28.9645  -20.5026   -8.9524 C   0  0  0  0  0  0  0  0  0  0  0  0
   29.2104  -20.2440   -7.6151 C   0  0  0  0  0  0  0  0  0  0  0  0
   28.2265  -19.9481   -6.7054 C   0  0  0  0  0  0  0  0  0  0  0  0
   26.9214  -19.9066   -7.1504 C   0  0  0  0  0  0  0  0  0  0  0  0
   26.6430  -20.1585   -8.4686 C   0  0  0  0  0  0  0  0  0  0  0  0
   27.6460  -20.4573   -9.3792 C   0  0  0  0  0  0  0  0  0  0  0  0
   27.8909  -21.2993  -13.6743 C   0  0  0  0  0  0  0  0  0  0  0  0
   29.1259  -20.6313  -13.7923 O   0  0  0  0  0  0  0  0  0  0  0  0
   27.7936  -22.4759  -14.0749 O   0  0  0  0  0  0  0  0  0  0  0  0
  2  1  1  6
  2  3  1  0
  4  3  1  0
  5  6  2  0
  5  2  1  0
  8  7  1  6
  8  9  1  0
  8 10  1  0
  9  5  1  0
 10 11  2  0
 12 10  1  0
 12 13  1  0
 13 14  1  1
 15 16  2  0
 15 14  1  0
 17 16  1  0
 18 23  2  0
 18 17  1  0
 19 18  1  0
 20 19  2  0
 20 21  1  0
 21 22  2  0
 22 23  1  0
 23 15  1  0
 24 25  1  0
 24 13  1  0
 26 24  2  0
M  END
$$$$
