CAW.pdb
     RDKit          3D

 26 27  0  0  1  0  0  0  0  0999 V2000
   25.9101  -25.0049  -16.3184 N   0  0  0  0  0  0  0  0  0  0  0  0
   24.8627  -24.1950  -15.7355 C   0  0  1  0  0  0  0  0  0  0  0  0
   23.7816  -25.0309  -15.1270 C   0  0  0  0  0  0  0  0  0  0  0  0
   22.8098  -25.9563  -16.3200 S   0  0  0  0  0  0  0  0  0  0  0  0
   25.4248  -23.2096  -14.7673 C   0  0  0  0  0  0  0  0  0  0  0  0
   26.3290  -23.6282  -13.9964 O   0  0  0  0  0  0  0  0  0  0  0  0
   25.2596  -19.5227  -14.3527 C   0  0  0  0  0  0  0  0  0  0  0  0
   25.5998  -20.8893  -13.8764 C   0  0  2  0  0  0  0  0  0  0  0  0
   24.9593  -21.8690  -14.7227 N   0  0  0  0  0  0  0  0  0  0  0  0
   25.3232  -21.1268  -12.4427 C   0  0  0  0  0  0  0  0  0  0  0  0
   24.2094  -21.6422  -12.1378 O   0  0  0  0  0  0  0  0  0  0  0  0
   26.2055  -20.8226  -11.3994 N   0  0  0  0  0  0  0  0  0  0  0  0
   25.8593  -20.9153   -9.9835 C   0  0  1  0  0  0  0  0  0  0  0  0
   26.9962  -20.4939   -9.1294 C   0  0  0  0  0  0  0  0  0  0  0  0
   26.7639  -20.3684   -7.7011 C   0  0  0  0  0  0  0  0  0  0  0  0
   25.6006  -20.7635   -7.0314 C   0  0  0  0  0  0  0  0  0  0  0  0
   25.7671  -20.4559   -5.7410 N   0  0  0  0  0  0  0  0  0  0  0  0
   26.9690  -19.8883   -5.5474 C   0  0  0  0  0  0  0  0  0  0  0  0
   27.6280  -19.4095   -4.4284 C   0  0  0  0  0  0  0  0  0  0  0  0
   28.8905  -18.8729   -4.4622 C   0  0  0  0  0  0  0  0  0  0  0  0
   29.5364  -18.8078   -5.6794 C   0  0  0  0  0  0  0  0  0  0  0  0
   28.9119  -19.2726   -6.8076 C   0  0  0  0  0  0  0  0  0  0  0  0
   27.6349  -19.8127   -6.7613 C   0  0  0  0  0  0  0  0  0  0  0  0
   24.5810  -20.3298   -9.6574 C   0  0  0  0  0  0  0  0  0  0  0  0
   24.3110  -19.0228  -10.1094 O   0  0  0  0  0  0  0  0  0  0  0  0
   23.7162  -20.9365   -8.9950 O   0  0  0  0  0  0  0  0  0  0  0  0
  2  1  1  1
  2  3  1  0
  4  3  1  0
  5  6  2  0
  5  2  1  0
  8  7  1  6
  8  9  1  0
  8 10  1  0
  9  5  1  0
 10 11  2  0
 12 10  1  0
 12 13  1  0
 13 14  1  1
 15 16  2  0
 15 14  1  0
 17 16  1  0
 18 23  2  0
 18 17  1  0
 19 18  1  0
 20 19  2  0
 20 21  1  0
 21 22  2  0
 22 23  1  0
 23 15  1  0
 24 25  1  0
 24 13  1  0
 26 24  2  0
M  END
$$$$
