CAW.pdb
     RDKit          3D

 26 27  0  0  1  0  0  0  0  0999 V2000
   28.2509  -23.5393  -17.3116 N   0  0  0  0  0  0  0  0  0  0  0  0
   27.2542  -22.5819  -16.8841 C   0  0  1  0  0  0  0  0  0  0  0  0
   25.9013  -23.2053  -16.7474 C   0  0  0  0  0  0  0  0  0  0  0  0
   25.2673  -23.9240  -18.2658 S   0  0  0  0  0  0  0  0  0  0  0  0
   27.6820  -21.8856  -15.6364 C   0  0  0  0  0  0  0  0  0  0  0  0
   28.6796  -22.3658  -15.0355 O   0  0  0  0  0  0  0  0  0  0  0  0
   27.3860  -18.5628  -14.2403 C   0  0  0  0  0  0  0  0  0  0  0  0
   27.4647  -20.0264  -13.9919 C   0  0  2  0  0  0  0  0  0  0  0  0
   26.9944  -20.7398  -15.1564 N   0  0  0  0  0  0  0  0  0  0  0  0
   26.7911  -20.4766  -12.7542 C   0  0  0  0  0  0  0  0  0  0  0  0
   25.5503  -20.7133  -12.8146 O   0  0  0  0  0  0  0  0  0  0  0  0
   27.4280  -20.6597  -11.5211 N   0  0  0  0  0  0  0  0  0  0  0  0
   26.7216  -20.8288  -10.2540 C   0  0  1  0  0  0  0  0  0  0  0  0
   27.6311  -20.6041   -9.1042 C   0  0  0  0  0  0  0  0  0  0  0  0
   27.0433  -20.5183   -7.7788 C   0  0  0  0  0  0  0  0  0  0  0  0
   25.7315  -20.8766   -7.4492 C   0  0  0  0  0  0  0  0  0  0  0  0
   25.5716  -20.6248   -6.1459 N   0  0  0  0  0  0  0  0  0  0  0  0
   26.7049  -20.1277   -5.6238 C   0  0  0  0  0  0  0  0  0  0  0  0
   27.0717  -19.7244   -4.3516 C   0  0  0  0  0  0  0  0  0  0  0  0
   28.3210  -19.2530   -4.0349 C   0  0  0  0  0  0  0  0  0  0  0  0
   29.2613  -19.1777   -5.0415 C   0  0  0  0  0  0  0  0  0  0  0  0
   28.9307  -19.5684   -6.3130 C   0  0  0  0  0  0  0  0  0  0  0  0
   27.6641  -20.0428   -6.6215 C   0  0  0  0  0  0  0  0  0  0  0  0
   25.4566  -20.1364  -10.1958 C   0  0  0  0  0  0  0  0  0  0  0  0
   24.3048  -20.8779   -9.8660 O   0  0  0  0  0  0  0  0  0  0  0  0
   25.3505  -18.9156  -10.4258 O   0  0  0  0  0  0  0  0  0  0  0  0
  2  1  1  1
  2  3  1  0
  4  3  1  0
  5  6  2  0
  5  2  1  0
  8  7  1  6
  8  9  1  0
  8 10  1  0
  9  5  1  0
 10 11  2  0
 12 10  1  0
 12 13  1  0
 13 14  1  1
 15 16  2  0
 15 14  1  0
 17 16  1  0
 18 23  2  0
 18 17  1  0
 19 18  1  0
 20 19  2  0
 20 21  1  0
 21 22  2  0
 22 23  1  0
 23 15  1  0
 24 25  1  0
 24 13  1  0
 26 24  2  0
M  END
$$$$
