CAW.pdb
     RDKit          3D

 26 27  0  0  1  0  0  0  0  0999 V2000
   29.8854  -21.9723  -17.4657 N   0  0  0  0  0  0  0  0  0  0  0  0
   28.5171  -21.6651  -17.1102 C   0  0  1  0  0  0  0  0  0  0  0  0
   27.6020  -22.8233  -17.3532 C   0  0  0  0  0  0  0  0  0  0  0  0
   26.0195  -22.3708  -18.0706 S   0  0  0  0  0  0  0  0  0  0  0  0
   28.4287  -21.1618  -15.7091 C   0  0  0  0  0  0  0  0  0  0  0  0
   28.9821  -21.8635  -14.8211 O   0  0  0  0  0  0  0  0  0  0  0  0
   27.2851  -18.0281  -14.0534 C   0  0  0  0  0  0  0  0  0  0  0  0
   27.7092  -19.4530  -14.0447 C   0  0  2  0  0  0  0  0  0  0  0  0
   27.7532  -19.9520  -15.3994 N   0  0  0  0  0  0  0  0  0  0  0  0
   26.9115  -20.3260  -13.1559 C   0  0  0  0  0  0  0  0  0  0  0  0
   25.9400  -20.9533  -13.6678 O   0  0  0  0  0  0  0  0  0  0  0  0
   27.1546  -20.5081  -11.7894 N   0  0  0  0  0  0  0  0  0  0  0  0
   26.3561  -21.3741  -10.9259 C   0  0  1  0  0  0  0  0  0  0  0  0
   27.1071  -21.7418   -9.7010 C   0  0  0  0  0  0  0  0  0  0  0  0
   27.0325  -20.8431   -8.5623 C   0  0  0  0  0  0  0  0  0  0  0  0
   26.0777  -19.8356   -8.3860 C   0  0  0  0  0  0  0  0  0  0  0  0
   26.3666  -19.2182   -7.2358 N   0  0  0  0  0  0  0  0  0  0  0  0
   27.4494  -19.7731   -6.6669 C   0  0  0  0  0  0  0  0  0  0  0  0
   28.1407  -19.5282   -5.4931 C   0  0  0  0  0  0  0  0  0  0  0  0
   29.2378  -20.2490   -5.0932 C   0  0  0  0  0  0  0  0  0  0  0  0
   29.6740  -21.2735   -5.9076 C   0  0  0  0  0  0  0  0  0  0  0  0
   29.0126  -21.5422   -7.0777 C   0  0  0  0  0  0  0  0  0  0  0  0
   27.9047  -20.8062   -7.4720 C   0  0  0  0  0  0  0  0  0  0  0  0
   25.0080  -20.9034  -10.7159 C   0  0  0  0  0  0  0  0  0  0  0  0
   24.0201  -21.8443  -10.3637 O   0  0  0  0  0  0  0  0  0  0  0  0
   24.6918  -19.7032  -10.8349 O   0  0  0  0  0  0  0  0  0  0  0  0
  2  1  1  1
  2  3  1  0
  4  3  1  0
  5  6  2  0
  5  2  1  0
  8  7  1  6
  8  9  1  0
  8 10  1  0
  9  5  1  0
 10 11  2  0
 12 10  1  0
 12 13  1  0
 13 14  1  1
 15 16  2  0
 15 14  1  0
 17 16  1  0
 18 23  2  0
 18 17  1  0
 19 18  1  0
 20 19  2  0
 20 21  1  0
 21 22  2  0
 22 23  1  0
 23 15  1  0
 24 25  1  0
 24 13  1  0
 26 24  2  0
M  END
$$$$
