CAW.pdb
     RDKit          3D

 26 27  0  0  1  0  0  0  0  0999 V2000
   23.2599  -14.1484  -18.4396 N   0  0  0  0  0  0  0  0  0  0  0  0
   23.9748  -13.0292  -17.8656 C   0  0  1  0  0  0  0  0  0  0  0  0
   24.8424  -12.3432  -18.8728 C   0  0  0  0  0  0  0  0  0  0  0  0
   26.3115  -13.2695  -19.3287 S   0  0  0  0  0  0  0  0  0  0  0  0
   23.0375  -12.0841  -17.1929 C   0  0  0  0  0  0  0  0  0  0  0  0
   22.0448  -11.6986  -17.8659 O   0  0  0  0  0  0  0  0  0  0  0  0
   22.3879  -10.9891  -13.7298 C   0  0  0  0  0  0  0  0  0  0  0  0
   22.3149  -10.7759  -15.1993 C   0  0  2  0  0  0  0  0  0  0  0  0
   23.2595  -11.6454  -15.8609 N   0  0  0  0  0  0  0  0  0  0  0  0
   22.4644   -9.3666  -15.6238 C   0  0  0  0  0  0  0  0  0  0  0  0
   23.6345   -8.8892  -15.6709 O   0  0  0  0  0  0  0  0  0  0  0  0
   21.4042   -8.5237  -15.9774 N   0  0  0  0  0  0  0  0  0  0  0  0
   21.5716   -7.1411  -16.4173 C   0  0  1  0  0  0  0  0  0  0  0  0
   20.7453   -6.8610  -17.6166 C   0  0  0  0  0  0  0  0  0  0  0  0
   21.1244   -7.4954  -18.8670 C   0  0  0  0  0  0  0  0  0  0  0  0
   22.0714   -8.5164  -19.0033 C   0  0  0  0  0  0  0  0  0  0  0  0
   22.1525   -8.8049  -20.3063 N   0  0  0  0  0  0  0  0  0  0  0  0
   21.3121   -8.0285  -21.0098 C   0  0  0  0  0  0  0  0  0  0  0  0
   21.0030   -7.9334  -22.3556 C   0  0  0  0  0  0  0  0  0  0  0  0
   20.0763   -7.0571  -22.8619 C   0  0  0  0  0  0  0  0  0  0  0  0
   19.4178   -6.2262  -21.9793 C   0  0  0  0  0  0  0  0  0  0  0  0
   19.7006   -6.2941  -20.6398 C   0  0  0  0  0  0  0  0  0  0  0  0
   20.6401   -7.1837  -20.1394 C   0  0  0  0  0  0  0  0  0  0  0  0
   21.4731   -6.1746  -15.3498 C   0  0  0  0  0  0  0  0  0  0  0  0
   21.1076   -6.6314  -14.0680 O   0  0  0  0  0  0  0  0  0  0  0  0
   21.6984   -4.9606  -15.5231 O   0  0  0  0  0  0  0  0  0  0  0  0
  2  1  1  6
  2  3  1  0
  4  3  1  0
  5  6  2  0
  5  2  1  0
  8  7  1  1
  8  9  1  0
  8 10  1  0
  9  5  1  0
 10 11  2  0
 12 10  1  0
 12 13  1  0
 13 14  1  6
 15 16  2  0
 15 14  1  0
 17 16  1  0
 18 23  2  0
 18 17  1  0
 19 18  1  0
 20 19  2  0
 20 21  1  0
 21 22  2  0
 22 23  1  0
 23 15  1  0
 24 25  1  0
 24 13  1  0
 26 24  2  0
M  END
$$$$
