CAW.pdb
     RDKit          3D

 26 27  0  0  1  0  0  0  0  0999 V2000
   28.0472  -19.3763  -18.3126 N   0  0  0  0  0  0  0  0  0  0  0  0
   27.8645  -19.6253  -16.8992 C   0  0  1  0  0  0  0  0  0  0  0  0
   27.9582  -18.3689  -16.0927 C   0  0  0  0  0  0  0  0  0  0  0  0
   29.6375  -17.7948  -15.8205 S   0  0  0  0  0  0  0  0  0  0  0  0
   26.5934  -20.3634  -16.6461 C   0  0  0  0  0  0  0  0  0  0  0  0
   25.5314  -19.6866  -16.6786 O   0  0  0  0  0  0  0  0  0  0  0  0
   25.4747  -23.8774  -16.4293 C   0  0  0  0  0  0  0  0  0  0  0  0
   25.3636  -22.4454  -16.0453 C   0  0  2  0  0  0  0  0  0  0  0  0
   26.5887  -21.7586  -16.3826 N   0  0  0  0  0  0  0  0  0  0  0  0
   24.9661  -22.2155  -14.6391 C   0  0  0  0  0  0  0  0  0  0  0  0
   23.7411  -22.3356  -14.3487 O   0  0  0  0  0  0  0  0  0  0  0  0
   25.8479  -21.8751  -13.6066 N   0  0  0  0  0  0  0  0  0  0  0  0
   25.4253  -21.5296  -12.2519 C   0  0  1  0  0  0  0  0  0  0  0  0
   26.5140  -21.7775  -11.2758 C   0  0  0  0  0  0  0  0  0  0  0  0
   26.3954  -21.1783   -9.9580 C   0  0  0  0  0  0  0  0  0  0  0  0
   25.1997  -20.7648   -9.3604 C   0  0  0  0  0  0  0  0  0  0  0  0
   25.5156  -20.2440   -8.1702 N   0  0  0  0  0  0  0  0  0  0  0  0
   26.8428  -20.3018   -7.9725 C   0  0  0  0  0  0  0  0  0  0  0  0
   27.6684  -19.9229   -6.9282 C   0  0  0  0  0  0  0  0  0  0  0  0
   29.0296  -20.0965   -6.9347 C   0  0  0  0  0  0  0  0  0  0  0  0
   29.6047  -20.6809   -8.0442 C   0  0  0  0  0  0  0  0  0  0  0  0
   28.8158  -21.0672   -9.0965 C   0  0  0  0  0  0  0  0  0  0  0  0
   27.4405  -20.8860   -9.0789 C   0  0  0  0  0  0  0  0  0  0  0  0
   24.7783  -20.2431  -12.1543 C   0  0  0  0  0  0  0  0  0  0  0  0
   23.5880  -20.1501  -11.4061 O   0  0  0  0  0  0  0  0  0  0  0  0
   25.2334  -19.2214  -12.7052 O   0  0  0  0  0  0  0  0  0  0  0  0
  2  1  1  6
  2  3  1  0
  4  3  1  0
  5  6  2  0
  5  2  1  0
  8  7  1  1
  8  9  1  0
  8 10  1  0
  9  5  1  0
 10 11  2  0
 12 10  1  0
 12 13  1  0
 13 14  1  1
 15 16  2  0
 15 14  1  0
 17 16  1  0
 18 23  2  0
 18 17  1  0
 19 18  1  0
 20 19  2  0
 20 21  1  0
 21 22  2  0
 22 23  1  0
 23 15  1  0
 24 25  1  0
 24 13  1  0
 26 24  2  0
M  END
$$$$
