CAW.pdb
     RDKit          3D

 26 27  0  0  1  0  0  0  0  0999 V2000
   26.2201  -15.8296  -14.1210 N   0  0  0  0  0  0  0  0  0  0  0  0
   25.4851  -16.6797  -15.0321 C   0  0  1  0  0  0  0  0  0  0  0  0
   25.1930  -15.9912  -16.3277 C   0  0  0  0  0  0  0  0  0  0  0  0
   24.8356  -14.2392  -16.1638 S   0  0  0  0  0  0  0  0  0  0  0  0
   26.1852  -17.9814  -15.2315 C   0  0  0  0  0  0  0  0  0  0  0  0
   25.6928  -18.7618  -16.0893 O   0  0  0  0  0  0  0  0  0  0  0  0
   29.4368  -19.4656  -14.2691 C   0  0  0  0  0  0  0  0  0  0  0  0
   28.0148  -19.5826  -14.6870 C   0  0  2  0  0  0  0  0  0  0  0  0
   27.3475  -18.3171  -14.4884 N   0  0  0  0  0  0  0  0  0  0  0  0
   27.2804  -20.7032  -14.0598 C   0  0  0  0  0  0  0  0  0  0  0  0
   27.6242  -21.8789  -14.3744 O   0  0  0  0  0  0  0  0  0  0  0  0
   26.2329  -20.5561  -13.1430 N   0  0  0  0  0  0  0  0  0  0  0  0
   25.5021  -21.6738  -12.5513 C   0  0  1  0  0  0  0  0  0  0  0  0
   26.1738  -22.1559  -11.3200 C   0  0  0  0  0  0  0  0  0  0  0  0
   26.1458  -21.2968  -10.1492 C   0  0  0  0  0  0  0  0  0  0  0  0
   25.0204  -20.6186   -9.6683 C   0  0  0  0  0  0  0  0  0  0  0  0
   25.4116  -19.9184   -8.5986 N   0  0  0  0  0  0  0  0  0  0  0  0
   26.7208  -20.1105   -8.3679 C   0  0  0  0  0  0  0  0  0  0  0  0
   27.5972  -19.6443   -7.4034 C   0  0  0  0  0  0  0  0  0  0  0  0
   28.9231  -19.9941   -7.3493 C   0  0  0  0  0  0  0  0  0  0  0  0
   29.4069  -20.8577   -8.3100 C   0  0  0  0  0  0  0  0  0  0  0  0
   28.5658  -21.3376   -9.2802 C   0  0  0  0  0  0  0  0  0  0  0  0
   27.2271  -20.9765   -9.3252 C   0  0  0  0  0  0  0  0  0  0  0  0
   24.0810  -21.4469  -12.4410 C   0  0  0  0  0  0  0  0  0  0  0  0
   23.2377  -22.5639  -12.2789 O   0  0  0  0  0  0  0  0  0  0  0  0
   23.5800  -20.3060  -12.4842 O   0  0  0  0  0  0  0  0  0  0  0  0
  2  1  1  1
  2  3  1  0
  4  3  1  0
  5  6  2  0
  5  2  1  0
  8  7  1  1
  8  9  1  0
  8 10  1  0
  9  5  1  0
 10 11  2  0
 12 10  1  0
 12 13  1  0
 13 14  1  1
 15 16  2  0
 15 14  1  0
 17 16  1  0
 18 23  2  0
 18 17  1  0
 19 18  1  0
 20 19  2  0
 20 21  1  0
 21 22  2  0
 22 23  1  0
 23 15  1  0
 24 25  1  0
 24 13  1  0
 26 24  2  0
M  END
$$$$
