CAW.pdb
     RDKit          3D

 26 27  0  0  1  0  0  0  0  0999 V2000
   28.5630  -22.7006  -17.6251 N   0  0  0  0  0  0  0  0  0  0  0  0
   27.3869  -22.3766  -16.8474 C   0  0  1  0  0  0  0  0  0  0  0  0
   26.5400  -23.5815  -16.5849 C   0  0  0  0  0  0  0  0  0  0  0  0
   24.8357  -23.4125  -17.1239 S   0  0  0  0  0  0  0  0  0  0  0  0
   27.7564  -21.6634  -15.5908 C   0  0  0  0  0  0  0  0  0  0  0  0
   28.6318  -22.2097  -14.8680 O   0  0  0  0  0  0  0  0  0  0  0  0
   27.2738  -18.2832  -14.1840 C   0  0  0  0  0  0  0  0  0  0  0  0
   27.5282  -19.7393  -14.0243 C   0  0  2  0  0  0  0  0  0  0  0  0
   27.1479  -20.4313  -15.2338 N   0  0  0  0  0  0  0  0  0  0  0  0
   26.9130  -20.3421  -12.8217 C   0  0  0  0  0  0  0  0  0  0  0  0
   25.7189  -20.7483  -12.9146 O   0  0  0  0  0  0  0  0  0  0  0  0
   27.5571  -20.4958  -11.5884 N   0  0  0  0  0  0  0  0  0  0  0  0
   26.8893  -20.9392  -10.3676 C   0  0  1  0  0  0  0  0  0  0  0  0
   27.8116  -20.8853   -9.2074 C   0  0  0  0  0  0  0  0  0  0  0  0
   27.2297  -20.7910   -7.8799 C   0  0  0  0  0  0  0  0  0  0  0  0
   25.9751  -21.2863   -7.5078 C   0  0  0  0  0  0  0  0  0  0  0  0
   25.7973  -20.9765   -6.2194 N   0  0  0  0  0  0  0  0  0  0  0  0
   26.8654  -20.3133   -5.7468 C   0  0  0  0  0  0  0  0  0  0  0  0
   27.1912  -19.7909   -4.5072 C   0  0  0  0  0  0  0  0  0  0  0  0
   28.3757  -19.1515   -4.2400 C   0  0  0  0  0  0  0  0  0  0  0  0
   29.2904  -19.0235   -5.2647 C   0  0  0  0  0  0  0  0  0  0  0  0
   28.9990  -19.5290   -6.5050 C   0  0  0  0  0  0  0  0  0  0  0  0
   27.7977  -20.1730   -6.7635 C   0  0  0  0  0  0  0  0  0  0  0  0
   25.5917  -20.3409  -10.1638 C   0  0  0  0  0  0  0  0  0  0  0  0
   25.4891  -18.9366  -10.2152 O   0  0  0  0  0  0  0  0  0  0  0  0
   24.5686  -21.0193   -9.9456 O   0  0  0  0  0  0  0  0  0  0  0  0
  2  1  1  1
  2  3  1  0
  4  3  1  0
  5  6  2  0
  5  2  1  0
  8  7  1  6
  8  9  1  0
  8 10  1  0
  9  5  1  0
 10 11  2  0
 12 10  1  0
 12 13  1  0
 13 14  1  1
 15 16  2  0
 15 14  1  0
 17 16  1  0
 18 23  2  0
 18 17  1  0
 19 18  1  0
 20 19  2  0
 20 21  1  0
 21 22  2  0
 22 23  1  0
 23 15  1  0
 24 25  1  0
 24 13  1  0
 26 24  2  0
M  END
$$$$
