TAF.pdb
     RDKit          3D

 24 24  0  0  1  0  0  0  0  0999 V2000
    8.9668  -13.4522   17.7964 C   0  0  0  0  0  0  0  0  0  0  0  0
    9.0532  -14.0959   19.1691 C   0  0  1  0  0  0  0  0  0  0  0  0
    9.8491  -13.3358   19.9622 O   0  0  0  0  0  0  0  0  0  0  0  0
    7.6488  -14.3338   19.6215 C   0  0  2  0  0  0  0  0  0  0  0  0
    6.8471  -13.1349   19.5011 N   0  0  0  0  0  0  0  0  0  0  0  0
    7.5187  -14.9891   20.9437 C   0  0  0  0  0  0  0  0  0  0  0  0
    7.3296  -14.2242   21.9245 O   0  0  0  0  0  0  0  0  0  0  0  0
    7.1192  -18.4549   22.3831 C   0  0  0  0  0  0  0  0  0  0  0  0
    7.3437  -16.9723   22.4296 C   0  0  2  0  0  0  0  0  0  0  0  0
    7.5950  -16.3754   21.1523 N   0  0  0  0  0  0  0  0  0  0  0  0
    8.2695  -16.5300   23.4819 C   0  0  0  0  0  0  0  0  0  0  0  0
    9.4328  -16.1913   23.1453 O   0  0  0  0  0  0  0  0  0  0  0  0
    7.8720  -16.4866   24.8267 N   0  0  0  0  0  0  0  0  0  0  0  0
    8.7198  -16.0458   25.9116 C   0  0  1  0  0  0  0  0  0  0  0  0
    8.0399  -15.3332   27.0123 C   0  0  0  0  0  0  0  0  0  0  0  0
    7.4011  -14.0530   26.6564 C   0  0  0  0  0  0  0  0  0  0  0  0
    6.0260  -13.9462   26.5777 C   0  0  0  0  0  0  0  0  0  0  0  0
    5.3745  -12.7659   26.2771 C   0  0  0  0  0  0  0  0  0  0  0  0
    6.1197  -11.6431   26.0462 C   0  0  0  0  0  0  0  0  0  0  0  0
    7.4879  -11.7108   26.1177 C   0  0  0  0  0  0  0  0  0  0  0  0
    8.1359  -12.9123   26.4229 C   0  0  0  0  0  0  0  0  0  0  0  0
    9.4770  -17.2509   26.4513 C   0  0  0  0  0  0  0  0  0  0  0  0
    9.1675  -18.4053   26.1060 O   0  0  0  0  0  0  0  0  0  0  0  0
   10.4998  -17.0301   27.3260 O   0  0  0  0  0  0  0  0  0  0  0  0
  2  1  1  6
  2  3  1  0
  4  6  1  0
  4  2  1  0
  4  5  1  1
  6 10  1  0
  7  6  2  0
  9  8  1  6
  9 11  1  0
 10  9  1  0
 11 12  2  0
 11 13  1  0
 13 14  1  0
 14 15  1  1
 14 22  1  0
 16 15  1  0
 16 21  2  0
 17 16  1  0
 18 17  2  0
 18 19  1  0
 19 20  2  0
 20 21  1  0
 22 24  1  0
 23 22  2  0
M  END
$$$$
