TAF.pdb
     RDKit          3D

 24 24  0  0  1  0  0  0  0  0999 V2000
    8.9694  -13.3520   17.4463 C   0  0  0  0  0  0  0  0  0  0  0  0
    9.1068  -14.0034   18.8112 C   0  0  1  0  0  0  0  0  0  0  0  0
   10.0367  -13.3264   19.5303 O   0  0  0  0  0  0  0  0  0  0  0  0
    7.7284  -14.1032   19.3805 C   0  0  2  0  0  0  0  0  0  0  0  0
    7.0617  -12.8187   19.3725 N   0  0  0  0  0  0  0  0  0  0  0  0
    7.6385  -14.7961   20.6869 C   0  0  0  0  0  0  0  0  0  0  0  0
    7.4065  -14.0669   21.6855 O   0  0  0  0  0  0  0  0  0  0  0  0
    7.3749  -18.3106   22.0240 C   0  0  0  0  0  0  0  0  0  0  0  0
    7.5558  -16.8244   22.1188 C   0  0  2  0  0  0  0  0  0  0  0  0
    7.7959  -16.1800   20.8626 N   0  0  0  0  0  0  0  0  0  0  0  0
    8.4632  -16.3891   23.1899 C   0  0  0  0  0  0  0  0  0  0  0  0
    9.6195  -16.0109   22.8715 O   0  0  0  0  0  0  0  0  0  0  0  0
    8.0562  -16.3952   24.5327 N   0  0  0  0  0  0  0  0  0  0  0  0
    8.8756  -15.9388   25.6328 C   0  0  1  0  0  0  0  0  0  0  0  0
    8.1588  -15.2614   26.7325 C   0  0  0  0  0  0  0  0  0  0  0  0
    7.5500  -13.9599   26.4022 C   0  0  0  0  0  0  0  0  0  0  0  0
    8.3384  -12.8594   26.1272 C   0  0  0  0  0  0  0  0  0  0  0  0
    7.8220  -11.6251   25.7844 C   0  0  0  0  0  0  0  0  0  0  0  0
    6.4649  -11.4770   25.7097 C   0  0  0  0  0  0  0  0  0  0  0  0
    5.6504  -12.5486   25.9741 C   0  0  0  0  0  0  0  0  0  0  0  0
    6.1856  -13.7937   26.3205 C   0  0  0  0  0  0  0  0  0  0  0  0
    9.6656  -17.1241   26.1691 C   0  0  0  0  0  0  0  0  0  0  0  0
   10.5555  -16.9632   27.0234 O   0  0  0  0  0  0  0  0  0  0  0  0
    9.3738  -18.3650   25.6843 O   0  0  0  0  0  0  0  0  0  0  0  0
  2  1  1  6
  2  3  1  0
  4  6  1  0
  4  2  1  0
  4  5  1  1
  6 10  1  0
  7  6  2  0
  9  8  1  6
  9 11  1  0
 10  9  1  0
 11 12  2  0
 11 13  1  0
 13 14  1  0
 14 15  1  1
 14 22  1  0
 16 15  1  0
 16 21  2  0
 17 16  1  0
 18 17  2  0
 18 19  1  0
 19 20  2  0
 20 21  1  0
 22 24  1  0
 23 22  2  0
M  END
$$$$
