TAF.pdb
     RDKit          3D

 24 24  0  0  1  0  0  0  0  0999 V2000
   10.4936  -13.4408   19.9176 C   0  0  0  0  0  0  0  0  0  0  0  0
    9.1846  -12.8683   19.4026 C   0  0  1  0  0  0  0  0  0  0  0  0
    9.4306  -12.1492   18.2790 O   0  0  0  0  0  0  0  0  0  0  0  0
    8.2273  -14.0113   19.2979 C   0  0  2  0  0  0  0  0  0  0  0  0
    6.9858  -13.6024   18.6766 N   0  0  0  0  0  0  0  0  0  0  0  0
    8.0254  -14.7765   20.5503 C   0  0  0  0  0  0  0  0  0  0  0  0
    7.3546  -14.2036   21.4472 O   0  0  0  0  0  0  0  0  0  0  0  0
    8.3175  -18.2930   21.8119 C   0  0  0  0  0  0  0  0  0  0  0  0
    8.2296  -16.8038   21.9715 C   0  0  2  0  0  0  0  0  0  0  0  0
    8.5298  -16.0662   20.7812 N   0  0  0  0  0  0  0  0  0  0  0  0
    8.8922  -16.2808   23.1746 C   0  0  0  0  0  0  0  0  0  0  0  0
   10.0362  -15.7739   23.0495 O   0  0  0  0  0  0  0  0  0  0  0  0
    8.2707  -16.3445   24.4309 N   0  0  0  0  0  0  0  0  0  0  0  0
    8.8977  -15.9418   25.6697 C   0  0  1  0  0  0  0  0  0  0  0  0
    7.9990  -15.3605   26.6876 C   0  0  0  0  0  0  0  0  0  0  0  0
    7.4742  -14.0145   26.3935 C   0  0  0  0  0  0  0  0  0  0  0  0
    6.1267  -13.8151   26.1637 C   0  0  0  0  0  0  0  0  0  0  0  0
    5.5774  -12.5730   25.9123 C   0  0  0  0  0  0  0  0  0  0  0  0
    6.4006  -11.4816   25.8897 C   0  0  0  0  0  0  0  0  0  0  0  0
    7.7442  -11.6410   26.1158 C   0  0  0  0  0  0  0  0  0  0  0  0
    8.2884  -12.9044   26.3690 C   0  0  0  0  0  0  0  0  0  0  0  0
    9.6416  -17.1389   26.2444 C   0  0  0  0  0  0  0  0  0  0  0  0
    9.4393  -18.2856   25.8063 O   0  0  0  0  0  0  0  0  0  0  0  0
   10.5314  -16.9201   27.2545 O   0  0  0  0  0  0  0  0  0  0  0  0
  2  1  1  6
  2  3  1  0
  4  6  1  0
  4  2  1  0
  4  5  1  1
  6 10  1  0
  7  6  2  0
  9  8  1  6
  9 11  1  0
 10  9  1  0
 11 12  2  0
 11 13  1  0
 13 14  1  0
 14 15  1  1
 14 22  1  0
 16 15  1  0
 16 21  2  0
 17 16  1  0
 18 17  2  0
 18 19  1  0
 19 20  2  0
 20 21  1  0
 22 24  1  0
 23 22  2  0
M  END
$$$$
