TAF.pdb
     RDKit          3D

 24 24  0  0  1  0  0  0  0  0999 V2000
    7.8531  -12.4405   19.7562 C   0  0  0  0  0  0  0  0  0  0  0  0
    7.7183  -13.7270   18.9606 C   0  0  1  0  0  0  0  0  0  0  0  0
    7.6105  -13.4208   17.6435 O   0  0  0  0  0  0  0  0  0  0  0  0
    8.8503  -14.6100   19.3763 C   0  0  2  0  0  0  0  0  0  0  0  0
    9.1540  -15.5911   18.3566 N   0  0  0  0  0  0  0  0  0  0  0  0
    8.7212  -15.1995   20.7293 C   0  0  0  0  0  0  0  0  0  0  0  0
    8.4810  -14.3926   21.6642 O   0  0  0  0  0  0  0  0  0  0  0  0
    8.5818  -18.5861   22.3995 C   0  0  0  0  0  0  0  0  0  0  0  0
    8.7065  -17.0924   22.3382 C   0  0  2  0  0  0  0  0  0  0  0  0
    8.8509  -16.5683   21.0132 N   0  0  0  0  0  0  0  0  0  0  0  0
    9.6525  -16.5206   23.3069 C   0  0  0  0  0  0  0  0  0  0  0  0
   10.8031  -16.2136   22.9030 O   0  0  0  0  0  0  0  0  0  0  0  0
    9.2874  -16.3224   24.6471 N   0  0  0  0  0  0  0  0  0  0  0  0
   10.1544  -15.7440   25.6490 C   0  0  1  0  0  0  0  0  0  0  0  0
   10.1769  -14.2683   25.7075 C   0  0  0  0  0  0  0  0  0  0  0  0
    8.8957  -13.6146   26.0310 C   0  0  0  0  0  0  0  0  0  0  0  0
    7.9660  -13.3522   25.0435 C   0  0  0  0  0  0  0  0  0  0  0  0
    6.7394  -12.7688   25.2944 C   0  0  0  0  0  0  0  0  0  0  0  0
    6.4212  -12.4328   26.5810 C   0  0  0  0  0  0  0  0  0  0  0  0
    7.3189  -12.6804   27.5882 C   0  0  0  0  0  0  0  0  0  0  0  0
    8.5582  -13.2716   27.3211 C   0  0  0  0  0  0  0  0  0  0  0  0
    9.7740  -16.3201   27.0056 C   0  0  0  0  0  0  0  0  0  0  0  0
   10.4820  -16.1131   28.0074 O   0  0  0  0  0  0  0  0  0  0  0  0
    8.6394  -17.0720   27.0909 O   0  0  0  0  0  0  0  0  0  0  0  0
  2  1  1  1
  2  3  1  0
  4  6  1  0
  4  2  1  0
  4  5  1  6
  6 10  1  0
  7  6  2  0
  9  8  1  6
  9 11  1  0
 10  9  1  0
 11 12  2  0
 11 13  1  0
 13 14  1  0
 14 15  1  1
 14 22  1  0
 16 15  1  0
 16 21  2  0
 17 16  1  0
 18 17  2  0
 18 19  1  0
 19 20  2  0
 20 21  1  0
 22 24  1  0
 23 22  2  0
M  END
$$$$
