TAF.pdb
     RDKit          3D

 24 24  0  0  1  0  0  0  0  0999 V2000
   10.7980  -14.3096   19.0311 C   0  0  0  0  0  0  0  0  0  0  0  0
    9.6580  -13.3446   18.7564 C   0  0  1  0  0  0  0  0  0  0  0  0
    9.8630  -12.7523   17.5534 O   0  0  0  0  0  0  0  0  0  0  0  0
    8.3899  -14.1132   18.9432 C   0  0  2  0  0  0  0  0  0  0  0  0
    7.2404  -13.3421   18.5207 N   0  0  0  0  0  0  0  0  0  0  0  0
    8.2189  -14.7246   20.2817 C   0  0  0  0  0  0  0  0  0  0  0  0
    8.0884  -13.9242   21.2435 O   0  0  0  0  0  0  0  0  0  0  0  0
    7.6461  -18.1202   21.8323 C   0  0  0  0  0  0  0  0  0  0  0  0
    7.9545  -16.6520   21.8267 C   0  0  2  0  0  0  0  0  0  0  0  0
    8.1977  -16.1072   20.5247 N   0  0  0  0  0  0  0  0  0  0  0  0
    8.9368  -16.2329   22.8364 C   0  0  0  0  0  0  0  0  0  0  0  0
   10.1233  -16.0407   22.4666 O   0  0  0  0  0  0  0  0  0  0  0  0
    8.5667  -16.0523   24.1776 N   0  0  0  0  0  0  0  0  0  0  0  0
    9.4824  -15.6726   25.2299 C   0  0  1  0  0  0  0  0  0  0  0  0
    9.5822  -14.2250   25.5060 C   0  0  0  0  0  0  0  0  0  0  0  0
    8.3298  -13.5542   25.9000 C   0  0  0  0  0  0  0  0  0  0  0  0
    7.3898  -13.1976   24.9526 C   0  0  0  0  0  0  0  0  0  0  0  0
    6.1883  -12.5939   25.2683 C   0  0  0  0  0  0  0  0  0  0  0  0
    5.9068  -12.3345   26.5809 C   0  0  0  0  0  0  0  0  0  0  0  0
    6.8158  -12.6767   27.5497 C   0  0  0  0  0  0  0  0  0  0  0  0
    8.0294  -13.2875   27.2170 C   0  0  0  0  0  0  0  0  0  0  0  0
    9.1004  -16.4262   26.4960 C   0  0  0  0  0  0  0  0  0  0  0  0
    9.8010  -16.3470   27.5210 O   0  0  0  0  0  0  0  0  0  0  0  0
    7.9727  -17.1929   26.4738 O   0  0  0  0  0  0  0  0  0  0  0  0
  2  1  1  6
  2  3  1  0
  4  6  1  0
  4  2  1  0
  4  5  1  1
  6 10  1  0
  7  6  2  0
  9  8  1  6
  9 11  1  0
 10  9  1  0
 11 12  2  0
 11 13  1  0
 13 14  1  0
 14 15  1  1
 14 22  1  0
 16 15  1  0
 16 21  2  0
 17 16  1  0
 18 17  2  0
 18 19  1  0
 19 20  2  0
 20 21  1  0
 22 24  1  0
 23 22  2  0
M  END
$$$$
