GRN.pdb
     RDKit          3D

 24 23  0  0  1  0  0  0  0  0999 V2000
    7.5229  -22.4769   19.3808 N   0  0  0  0  0  0  0  0  0  0  0  0
    7.4354  -22.0354   20.7362 C   0  0  0  0  0  0  0  0  0  0  0  0
    8.2291  -20.7853   20.9740 C   0  0  0  0  0  0  0  0  0  0  0  0
    9.4783  -20.8543   20.8767 O   0  0  0  0  0  0  0  0  0  0  0  0
    7.5665  -12.8849   18.6280 N   0  0  0  0  0  0  0  0  0  0  0  0
    8.3570  -12.6055   19.7818 C   0  0  0  0  0  0  0  0  0  0  0  0
    8.8822  -11.4709   20.0365 N   0  0  0  0  0  0  0  0  0  0  0  0
    8.5723  -13.6779   20.7142 N   0  0  0  0  0  0  0  0  0  0  0  0
    7.8916  -14.9362   20.5817 C   0  0  0  0  0  0  0  0  0  0  0  0
    8.2054  -15.8266   21.7834 C   0  0  0  0  0  0  0  0  0  0  0  0
    7.5134  -17.1484   21.6257 C   0  0  0  0  0  0  0  0  0  0  0  0
    8.4312  -18.3335   21.5179 C   0  0  2  0  0  0  0  0  0  0  0  0
    7.6322  -19.5541   21.2981 N   0  0  0  0  0  0  0  0  0  0  0  0
    9.2397  -18.4695   22.7395 C   0  0  0  0  0  0  0  0  0  0  0  0
    8.8139  -19.0637   23.7447 O   0  0  0  0  0  0  0  0  0  0  0  0
    9.5187  -11.3554   20.8594 N   0  0  0  0  0  0  0  0  0  0  0  0
   14.0503  -18.2995   21.5617 C   0  0  0  0  0  0  0  0  0  0  0  0
   13.2886  -18.7676   22.6761 O   0  0  0  0  0  0  0  0  0  0  0  0
   13.0690  -20.0025   22.8312 C   0  0  0  0  0  0  0  0  0  0  0  0
   12.7741  -17.7770   23.6258 C   0  0  2  0  0  0  0  0  0  0  0  0
   11.3549  -18.0470   24.0014 N   0  0  0  0  0  0  0  0  0  0  0  0
   10.5461  -17.9098   22.7841 C   0  0  0  0  0  0  0  0  0  0  0  0
   10.8145  -17.1290   25.0194 O   0  0  0  0  0  0  0  0  0  0  0  0
   11.1459  -17.1747   26.3631 O   0  0  0  0  0  0  0  0  0  0  0  0
  1  2  1  0
  2  3  1  0
  3 13  1  0
  3  4  2  0
  5  6  1  0
  6  8  1  0
  7  6  2  0
  8  9  1  0
  9 10  1  0
 11 10  1  0
 12 11  1  1
 12 14  1  0
 13 12  1  0
 14 21  1  0
 14 15  2  0
 16 17  1  0
 17 19  1  0
 18 17  2  0
 20 19  1  6
 20 22  1  0
 21 20  1  0
 22 23  1  0
 24 22  2  0
M  END
$$$$
