GRN.pdb
     RDKit          3D

 24 23  0  0  1  0  0  0  0  0999 V2000
   10.1361  -21.5629   19.8239 N   0  0  0  0  0  0  0  0  0  0  0  0
    9.5544  -20.5941   20.6972 C   0  0  0  0  0  0  0  0  0  0  0  0
   10.4362  -19.3941   20.8748 C   0  0  0  0  0  0  0  0  0  0  0  0
   11.6399  -19.4930   20.5340 O   0  0  0  0  0  0  0  0  0  0  0  0
    7.0245  -12.1349   20.1012 N   0  0  0  0  0  0  0  0  0  0  0  0
    7.1718  -12.9763   18.9592 C   0  0  0  0  0  0  0  0  0  0  0  0
    6.7918  -12.6644   17.7818 N   0  0  0  0  0  0  0  0  0  0  0  0
    7.7895  -14.2593   19.1555 N   0  0  0  0  0  0  0  0  0  0  0  0
    8.2433  -14.6838   20.4509 C   0  0  0  0  0  0  0  0  0  0  0  0
    9.6376  -15.2990   20.3378 C   0  0  0  0  0  0  0  0  0  0  0  0
   10.0934  -15.7665   21.6886 C   0  0  0  0  0  0  0  0  0  0  0  0
   10.8774  -17.0486   21.6823 C   0  0  2  0  0  0  0  0  0  0  0  0
    9.9695  -18.1773   21.4029 N   0  0  0  0  0  0  0  0  0  0  0  0
   11.5489  -17.2460   22.9764 C   0  0  0  0  0  0  0  0  0  0  0  0
   11.0543  -17.9541   23.8703 O   0  0  0  0  0  0  0  0  0  0  0  0
    6.8603  -13.3595   17.0022 N   0  0  0  0  0  0  0  0  0  0  0  0
   14.1575  -21.0273   24.3872 C   0  0  0  0  0  0  0  0  0  0  0  0
   13.9713  -19.6454   24.6985 O   0  0  0  0  0  0  0  0  0  0  0  0
   13.8560  -19.2668   25.8989 C   0  0  0  0  0  0  0  0  0  0  0  0
   13.9184  -18.6888   23.5895 C   0  0  2  0  0  0  0  0  0  0  0  0
   13.7953  -17.2812   24.0707 N   0  0  0  0  0  0  0  0  0  0  0  0
   12.7987  -16.6146   23.2238 C   0  0  0  0  0  0  0  0  0  0  0  0
   15.0480  -16.5082   24.0035 O   0  0  0  0  0  0  0  0  0  0  0  0
   15.5534  -15.9444   22.8442 O   0  0  0  0  0  0  0  0  0  0  0  0
  1  2  1  0
  2  3  1  0
  3 13  1  0
  3  4  2  0
  5  6  1  0
  6  8  1  0
  7  6  2  0
  8  9  1  0
  9 10  1  0
 11 10  1  0
 12 11  1  1
 12 14  1  0
 13 12  1  0
 14 21  1  0
 14 15  2  0
 16 17  1  0
 17 19  1  0
 18 17  2  0
 20 19  1  1
 20 22  1  0
 21 20  1  0
 22 23  1  0
 24 22  2  0
M  END
$$$$
