GRN.pdb
     RDKit          3D

 24 23  0  0  1  0  0  0  0  0999 V2000
   11.7937  -17.6665   16.7860 N   0  0  0  0  0  0  0  0  0  0  0  0
   11.0150  -17.9714   17.9437 C   0  0  0  0  0  0  0  0  0  0  0  0
   11.0843  -16.8823   18.9724 C   0  0  0  0  0  0  0  0  0  0  0  0
   12.2007  -16.3546   19.1959 O   0  0  0  0  0  0  0  0  0  0  0  0
    8.3525  -14.6848   16.0812 N   0  0  0  0  0  0  0  0  0  0  0  0
    7.5821  -13.6256   16.6457 C   0  0  0  0  0  0  0  0  0  0  0  0
    6.8569  -12.8234   15.9687 N   0  0  0  0  0  0  0  0  0  0  0  0
    7.6315  -13.4566   18.0723 N   0  0  0  0  0  0  0  0  0  0  0  0
    8.3075  -14.4015   18.9174 C   0  0  0  0  0  0  0  0  0  0  0  0
    8.1460  -13.9979   20.3825 C   0  0  0  0  0  0  0  0  0  0  0  0
    8.7165  -15.0679   21.2660 C   0  0  0  0  0  0  0  0  0  0  0  0
   10.0796  -15.5578   20.8656 C   0  0  2  0  0  0  0  0  0  0  0  0
    9.9582  -16.4365   19.6868 N   0  0  0  0  0  0  0  0  0  0  0  0
   10.7108  -16.2853   21.9778 C   0  0  0  0  0  0  0  0  0  0  0  0
   10.6288  -17.5211   22.0831 O   0  0  0  0  0  0  0  0  0  0  0  0
    6.3875  -12.0125   16.4352 N   0  0  0  0  0  0  0  0  0  0  0  0
    8.9816  -17.1714   24.9347 C   0  0  0  0  0  0  0  0  0  0  0  0
   10.3334  -16.9591   25.3454 O   0  0  0  0  0  0  0  0  0  0  0  0
   10.5893  -16.3847   26.4418 C   0  0  0  0  0  0  0  0  0  0  0  0
   11.4051  -17.4249   24.4610 C   0  0  2  0  0  0  0  0  0  0  0  0
   12.2410  -16.2971   23.9534 N   0  0  0  0  0  0  0  0  0  0  0  0
   11.4373  -15.5662   22.9662 C   0  0  0  0  0  0  0  0  0  0  0  0
   13.4951  -16.7191   23.3051 O   0  0  0  0  0  0  0  0  0  0  0  0
   14.5695  -15.8786   23.0674 O   0  0  0  0  0  0  0  0  0  0  0  0
  1  2  1  0
  2  3  1  0
  3 13  1  0
  3  4  2  0
  5  6  1  0
  6  8  1  0
  7  6  2  0
  8  9  1  0
  9 10  1  0
 11 10  1  0
 12 11  1  1
 12 14  1  0
 13 12  1  0
 14 21  1  0
 14 15  2  0
 16 17  1  0
 17 19  1  0
 18 17  2  0
 20 19  1  1
 20 22  1  0
 21 20  1  0
 22 23  1  0
 24 22  2  0
M  END
$$$$
