GRN.pdb
     RDKit          3D

 24 23  0  0  1  0  0  0  0  0999 V2000
    7.8426  -20.8373   20.1890 N   0  0  0  0  0  0  0  0  0  0  0  0
    7.5760  -19.8069   21.1413 C   0  0  0  0  0  0  0  0  0  0  0  0
    8.5749  -18.6913   21.0589 C   0  0  0  0  0  0  0  0  0  0  0  0
    9.7734  -18.9900   20.8371 O   0  0  0  0  0  0  0  0  0  0  0  0
    9.1387  -12.7813   17.4447 N   0  0  0  0  0  0  0  0  0  0  0  0
    7.7876  -13.1843   17.2299 C   0  0  0  0  0  0  0  0  0  0  0  0
    7.3439  -13.6576   16.1313 N   0  0  0  0  0  0  0  0  0  0  0  0
    6.8709  -13.0443   18.3281 N   0  0  0  0  0  0  0  0  0  0  0  0
    7.2583  -13.3618   19.6747 C   0  0  0  0  0  0  0  0  0  0  0  0
    8.2343  -14.5377   19.6718 C   0  0  0  0  0  0  0  0  0  0  0  0
    8.5494  -14.9347   21.0839 C   0  0  0  0  0  0  0  0  0  0  0  0
    9.2331  -16.2652   21.2288 C   0  0  2  0  0  0  0  0  0  0  0  0
    8.2221  -17.3396   21.2193 N   0  0  0  0  0  0  0  0  0  0  0  0
   10.0094  -16.3101   22.4777 C   0  0  0  0  0  0  0  0  0  0  0  0
    9.4618  -16.4434   23.5856 O   0  0  0  0  0  0  0  0  0  0  0  0
    6.3579  -14.0022   16.0635 N   0  0  0  0  0  0  0  0  0  0  0  0
   13.5363  -19.4658   25.0713 C   0  0  0  0  0  0  0  0  0  0  0  0
   12.7509  -18.2793   25.1991 O   0  0  0  0  0  0  0  0  0  0  0  0
   12.7695  -17.6085   26.2702 C   0  0  0  0  0  0  0  0  0  0  0  0
   11.9294  -17.8686   24.0570 C   0  0  2  0  0  0  0  0  0  0  0  0
   12.2181  -16.4658   23.6363 N   0  0  0  0  0  0  0  0  0  0  0  0
   11.4262  -16.1989   22.4295 C   0  0  0  0  0  0  0  0  0  0  0  0
   13.6349  -16.2084   23.3239 O   0  0  0  0  0  0  0  0  0  0  0  0
   14.6500  -16.1970   24.2656 O   0  0  0  0  0  0  0  0  0  0  0  0
  1  2  1  0
  2  3  1  0
  3 13  1  0
  3  4  2  0
  5  6  1  0
  6  8  1  0
  7  6  2  0
  8  9  1  0
  9 10  1  0
 11 10  1  0
 12 11  1  1
 12 14  1  0
 13 12  1  0
 14 21  1  0
 14 15  2  0
 16 17  1  0
 17 19  1  0
 18 17  2  0
 20 19  1  1
 20 22  1  0
 21 20  1  0
 22 23  1  0
 24 22  2  0
M  END
$$$$
