GRN.pdb
     RDKit          3D

 24 23  0  0  1  0  0  0  0  0999 V2000
    5.5955  -20.9221   24.1646 N   0  0  0  0  0  0  0  0  0  0  0  0
    5.7399  -19.5991   24.6827 C   0  0  0  0  0  0  0  0  0  0  0  0
    6.6630  -18.7639   23.8463 C   0  0  0  0  0  0  0  0  0  0  0  0
    7.5520  -19.3528   23.1849 O   0  0  0  0  0  0  0  0  0  0  0  0
    6.9834  -12.6898   18.8197 N   0  0  0  0  0  0  0  0  0  0  0  0
    8.3735  -12.8644   19.0868 C   0  0  0  0  0  0  0  0  0  0  0  0
    9.2733  -12.0038   18.8083 N   0  0  0  0  0  0  0  0  0  0  0  0
    8.7800  -14.0939   19.7105 N   0  0  0  0  0  0  0  0  0  0  0  0
    7.8772  -14.8551   20.5289 C   0  0  0  0  0  0  0  0  0  0  0  0
    7.8654  -14.2947   21.9505 C   0  0  0  0  0  0  0  0  0  0  0  0
    7.0223  -15.1699   22.8304 C   0  0  0  0  0  0  0  0  0  0  0  0
    7.5732  -16.5482   23.0651 C   0  0  2  0  0  0  0  0  0  0  0  0
    6.5700  -17.3626   23.7771 N   0  0  0  0  0  0  0  0  0  0  0  0
    8.8172  -16.4776   23.8474 C   0  0  0  0  0  0  0  0  0  0  0  0
    8.8495  -15.9740   24.9833 O   0  0  0  0  0  0  0  0  0  0  0  0
   10.2746  -12.1877   19.0513 N   0  0  0  0  0  0  0  0  0  0  0  0
   10.3271  -20.0834   25.1211 C   0  0  0  0  0  0  0  0  0  0  0  0
   10.8947  -18.8068   25.4200 O   0  0  0  0  0  0  0  0  0  0  0  0
   10.6496  -18.2363   26.5209 C   0  0  0  0  0  0  0  0  0  0  0  0
   11.7631  -18.1851   24.4165 C   0  0  2  0  0  0  0  0  0  0  0  0
   11.2852  -16.8251   24.0289 N   0  0  0  0  0  0  0  0  0  0  0  0
   10.0227  -16.9960   23.2998 C   0  0  0  0  0  0  0  0  0  0  0  0
   12.2186  -16.0802   23.1657 O   0  0  0  0  0  0  0  0  0  0  0  0
   13.4565  -15.6156   23.5766 O   0  0  0  0  0  0  0  0  0  0  0  0
  1  2  1  0
  2  3  1  0
  3 13  1  0
  3  4  2  0
  5  6  1  0
  6  8  1  0
  7  6  2  0
  8  9  1  0
  9 10  1  0
 11 10  1  0
 12 11  1  1
 12 14  1  0
 13 12  1  0
 14 21  1  0
 14 15  2  0
 16 17  1  0
 17 19  1  0
 18 17  2  0
 20 19  1  1
 20 22  1  0
 21 20  1  0
 22 23  1  0
 24 22  2  0
M  END
$$$$
