GRN.pdb
     RDKit          3D

 24 23  0  0  1  0  0  0  0  0999 V2000
    8.8745  -17.7923   17.9347 N   0  0  0  0  0  0  0  0  0  0  0  0
    8.0945  -17.8561   19.1293 C   0  0  0  0  0  0  0  0  0  0  0  0
    8.6974  -17.0483   20.2398 C   0  0  0  0  0  0  0  0  0  0  0  0
    9.8886  -16.6737   20.1149 O   0  0  0  0  0  0  0  0  0  0  0  0
    5.0657  -12.3553   26.8471 N   0  0  0  0  0  0  0  0  0  0  0  0
    6.3299  -11.7828   26.5183 C   0  0  0  0  0  0  0  0  0  0  0  0
    6.7046  -10.6152   26.8708 N   0  0  0  0  0  0  0  0  0  0  0  0
    7.2361  -12.5795   25.7373 N   0  0  0  0  0  0  0  0  0  0  0  0
    6.8624  -13.8766   25.2450 C   0  0  0  0  0  0  0  0  0  0  0  0
    8.0426  -14.5155   24.5141 C   0  0  0  0  0  0  0  0  0  0  0  0
    7.5389  -15.3322   23.3607 C   0  0  0  0  0  0  0  0  0  0  0  0
    8.6110  -15.9407   22.5012 C   0  0  2  0  0  0  0  0  0  0  0  0
    7.9859  -16.6998   21.4015 N   0  0  0  0  0  0  0  0  0  0  0  0
    9.4716  -16.8247   23.3027 C   0  0  0  0  0  0  0  0  0  0  0  0
    9.1179  -17.9737   23.6185 O   0  0  0  0  0  0  0  0  0  0  0  0
    7.6496  -10.2578   26.5974 N   0  0  0  0  0  0  0  0  0  0  0  0
   13.9618  -15.9012   22.0826 C   0  0  0  0  0  0  0  0  0  0  0  0
   13.3811  -17.0119   22.7683 O   0  0  0  0  0  0  0  0  0  0  0  0
   13.1724  -18.1023   22.1643 C   0  0  0  0  0  0  0  0  0  0  0  0
   13.0378  -16.8469   24.1835 C   0  0  2  0  0  0  0  0  0  0  0  0
   11.6353  -17.2690   24.4715 N   0  0  0  0  0  0  0  0  0  0  0  0
   10.7454  -16.3635   23.7345 C   0  0  0  0  0  0  0  0  0  0  0  0
   11.2691  -17.2150   25.8977 O   0  0  0  0  0  0  0  0  0  0  0  0
   11.8642  -17.9836   26.8837 O   0  0  0  0  0  0  0  0  0  0  0  0
  1  2  1  0
  2  3  1  0
  3 13  1  0
  3  4  2  0
  5  6  1  0
  6  8  1  0
  7  6  2  0
  8  9  1  0
  9 10  1  0
 11 10  1  0
 12 11  1  1
 12 14  1  0
 13 12  1  0
 14 21  1  0
 14 15  2  0
 16 17  1  0
 17 19  1  0
 18 17  2  0
 20 19  1  6
 20 22  1  0
 21 20  1  0
 22 23  1  0
 24 22  2  0
M  END
$$$$
