GRN.pdb
     RDKit          3D

 24 23  0  0  1  0  0  0  0  0999 V2000
   11.9560  -19.3929   16.3848 N   0  0  0  0  0  0  0  0  0  0  0  0
   10.9602  -19.5989   17.3876 C   0  0  0  0  0  0  0  0  0  0  0  0
   10.9591  -18.5052   18.4138 C   0  0  0  0  0  0  0  0  0  0  0  0
   12.0610  -17.9954   18.7312 O   0  0  0  0  0  0  0  0  0  0  0  0
    7.4554  -11.5259   23.1130 N   0  0  0  0  0  0  0  0  0  0  0  0
    7.4256  -12.4994   22.0711 C   0  0  0  0  0  0  0  0  0  0  0  0
    7.8644  -12.3021   20.8894 N   0  0  0  0  0  0  0  0  0  0  0  0
    6.8619  -13.7850   22.3801 N   0  0  0  0  0  0  0  0  0  0  0  0
    6.9322  -14.8786   21.4510 C   0  0  0  0  0  0  0  0  0  0  0  0
    8.3795  -15.3478   21.3081 C   0  0  0  0  0  0  0  0  0  0  0  0
    8.4428  -16.5044   20.3546 C   0  0  0  0  0  0  0  0  0  0  0  0
    9.8161  -17.0784   20.1476 C   0  0  2  0  0  0  0  0  0  0  0  0
    9.7833  -18.0361   19.0258 N   0  0  0  0  0  0  0  0  0  0  0  0
   10.2829  -17.7472   21.3720 C   0  0  0  0  0  0  0  0  0  0  0  0
    9.8963  -18.8864   21.6849 O   0  0  0  0  0  0  0  0  0  0  0  0
    7.8229  -13.0662   20.1753 N   0  0  0  0  0  0  0  0  0  0  0  0
   12.9614  -20.1442   23.4776 C   0  0  0  0  0  0  0  0  0  0  0  0
   13.8090  -18.9963   23.4071 O   0  0  0  0  0  0  0  0  0  0  0  0
   15.0639  -19.1275   23.3332 C   0  0  0  0  0  0  0  0  0  0  0  0
   13.1810  -17.6722   23.4234 C   0  0  2  0  0  0  0  0  0  0  0  0
   11.6910  -17.7601   23.4365 N   0  0  0  0  0  0  0  0  0  0  0  0
   11.2018  -17.0825   22.2298 C   0  0  0  0  0  0  0  0  0  0  0  0
   11.0589  -17.1282   24.6080 O   0  0  0  0  0  0  0  0  0  0  0  0
   10.1436  -16.0918   24.5341 O   0  0  0  0  0  0  0  0  0  0  0  0
  1  2  1  0
  2  3  1  0
  3 13  1  0
  3  4  2  0
  5  6  1  0
  6  8  1  0
  7  6  2  0
  8  9  1  0
  9 10  1  0
 11 10  1  0
 12 11  1  1
 12 14  1  0
 13 12  1  0
 14 21  1  0
 14 15  2  0
 16 17  1  0
 17 19  1  0
 18 17  2  0
 20 19  1  6
 20 22  1  0
 21 20  1  0
 22 23  1  0
 24 22  2  0
M  END
$$$$
