GRN.pdb
     RDKit          3D

 24 23  0  0  1  0  0  0  0  0999 V2000
   13.4096  -18.5046   16.3861 N   0  0  0  0  0  0  0  0  0  0  0  0
   12.5216  -18.7591   17.4752 C   0  0  0  0  0  0  0  0  0  0  0  0
   12.4593  -17.6066   18.4328 C   0  0  0  0  0  0  0  0  0  0  0  0
   13.2541  -16.6516   18.2563 O   0  0  0  0  0  0  0  0  0  0  0  0
    7.2328  -12.0954   21.1127 N   0  0  0  0  0  0  0  0  0  0  0  0
    7.2438  -13.1796   20.1862 C   0  0  0  0  0  0  0  0  0  0  0  0
    6.7050  -13.1438   19.0303 N   0  0  0  0  0  0  0  0  0  0  0  0
    7.9071  -14.3896   20.5888 N   0  0  0  0  0  0  0  0  0  0  0  0
    8.5345  -14.5095   21.8757 C   0  0  0  0  0  0  0  0  0  0  0  0
   10.0112  -14.8632   21.7038 C   0  0  0  0  0  0  0  0  0  0  0  0
   10.1470  -16.0070   20.7424 C   0  0  0  0  0  0  0  0  0  0  0  0
   11.5594  -16.4496   20.4821 C   0  0  2  0  0  0  0  0  0  0  0  0
   11.5544  -17.5575   19.5080 N   0  0  0  0  0  0  0  0  0  0  0  0
   12.2023  -16.8778   21.7342 C   0  0  0  0  0  0  0  0  0  0  0  0
   12.0033  -18.0038   22.2216 O   0  0  0  0  0  0  0  0  0  0  0  0
    6.7625  -13.9728   18.3938 N   0  0  0  0  0  0  0  0  0  0  0  0
   16.4230  -14.9209   21.8678 C   0  0  0  0  0  0  0  0  0  0  0  0
   15.9396  -15.9902   22.6826 O   0  0  0  0  0  0  0  0  0  0  0  0
   16.3048  -17.1804   22.4644 C   0  0  0  0  0  0  0  0  0  0  0  0
   15.0135  -15.6648   23.7709 C   0  0  2  0  0  0  0  0  0  0  0  0
   13.7304  -16.4190   23.6576 N   0  0  0  0  0  0  0  0  0  0  0  0
   13.0775  -15.9880   22.4156 C   0  0  0  0  0  0  0  0  0  0  0  0
   12.7950  -16.1906   24.7730 O   0  0  0  0  0  0  0  0  0  0  0  0
   11.5004  -15.7240   24.6200 O   0  0  0  0  0  0  0  0  0  0  0  0
  1  2  1  0
  2  3  1  0
  3 13  1  0
  3  4  2  0
  5  6  1  0
  6  8  1  0
  7  6  2  0
  8  9  1  0
  9 10  1  0
 11 10  1  0
 12 11  1  1
 12 14  1  0
 13 12  1  0
 14 21  1  0
 14 15  2  0
 16 17  1  0
 17 19  1  0
 18 17  2  0
 20 19  1  6
 20 22  1  0
 21 20  1  0
 22 23  1  0
 24 22  2  0
M  END
$$$$
