WHA.pdb
     RDKit          3D

 30 32  0  0  1  0  0  0  0  0999 V2000
   18.2999   -8.6308  -19.0772 N   0  0  0  0  0  0  0  0  0  0  0  0
   19.3170   -7.6680  -18.7050 C   0  0  1  0  0  0  0  0  0  0  0  0
   19.3075   -6.4466  -19.5764 C   0  0  0  0  0  0  0  0  0  0  0  0
   19.6580   -6.8604  -20.9531 C   0  0  0  0  0  0  0  0  0  0  0  0
   20.5288   -7.8452  -21.3742 C   0  0  0  0  0  0  0  0  0  0  0  0
   20.5319   -7.8682  -22.6990 N   0  0  0  0  0  0  0  0  0  0  0  0
   19.6890   -6.9281  -23.1728 C   0  0  0  0  0  0  0  0  0  0  0  0
   19.3703   -6.5889  -24.4691 C   0  0  0  0  0  0  0  0  0  0  0  0
   18.4634   -5.5729  -24.6864 C   0  0  0  0  0  0  0  0  0  0  0  0
   17.8689   -4.8894  -23.6314 C   0  0  0  0  0  0  0  0  0  0  0  0
   18.2212   -5.2664  -22.3480 C   0  0  0  0  0  0  0  0  0  0  0  0
   19.1219   -6.2748  -22.0875 C   0  0  0  0  0  0  0  0  0  0  0  0
   19.2393   -7.3715  -17.2615 C   0  0  0  0  0  0  0  0  0  0  0  0
   18.1544   -7.1153  -16.6890 O   0  0  0  0  0  0  0  0  0  0  0  0
   20.4215   -7.3721  -16.4819 N   0  0  0  0  0  0  0  0  0  0  0  0
   20.4024   -7.1468  -15.0497 C   0  0  1  0  0  0  0  0  0  0  0  0
   20.9672   -8.3605  -14.3581 C   0  0  0  0  0  0  0  0  0  0  0  0
   20.1693   -9.5668  -14.5916 C   0  0  0  0  0  0  0  0  0  0  0  0
   20.5669  -10.6173  -15.3949 C   0  0  0  0  0  0  0  0  0  0  0  0
   19.5910  -11.5300  -15.3677 N   0  0  0  0  0  0  0  0  0  0  0  0
   18.5881  -11.1059  -14.5811 C   0  0  0  0  0  0  0  0  0  0  0  0
   18.9636   -9.8999  -14.1155 N   0  0  0  0  0  0  0  0  0  0  0  0
   21.2235   -5.9597  -14.7563 C   0  0  0  0  0  0  0  0  0  0  0  0
   21.4198   -5.6198  -13.5618 O   0  0  0  0  0  0  0  0  0  0  0  0
   23.3097   -3.7039  -16.9088 C   0  0  0  0  0  0  0  0  0  0  0  0
   22.5334   -4.0275  -15.6271 C   0  0  2  0  0  0  0  0  0  0  0  0
   21.7791   -5.2211  -15.8510 N   0  0  0  0  0  0  0  0  0  0  0  0
   21.6925   -2.8659  -15.3234 C   0  0  0  0  0  0  0  0  0  0  0  0
   22.2121   -1.6805  -14.8094 O   0  0  0  0  0  0  0  0  0  0  0  0
   20.4546   -2.9087  -15.5227 O   0  0  0  0  0  0  0  0  0  0  0  0
  2  1  1  6
  2 13  1  0
  2  3  1  0
  3  4  1  0
  4  5  2  0
  5  6  1  0
  7  6  1  0
  8  7  2  0
  9  8  1  0
 10 11  1  0
 10  9  2  0
 11 12  2  0
 12  4  1  0
 12  7  1  0
 13 14  2  0
 15 13  1  0
 15 16  1  0
 16 17  1  1
 18 17  1  0
 19 18  2  0
 20 21  1  0
 20 19  1  0
 21 22  2  0
 22 18  1  0
 23 24  2  0
 23 16  1  0
 26 25  1  6
 26 27  1  0
 27 23  1  0
 28 29  1  0
 28 26  1  0
 30 28  2  0
M  END
$$$$
