WHA.pdb
     RDKit          3D

 30 32  0  0  1  0  0  0  0  0999 V2000
   25.9081  -20.0979  -20.5300 N   0  0  0  0  0  0  0  0  0  0  0  0
   24.6563  -19.7278  -19.9008 C   0  0  1  0  0  0  0  0  0  0  0  0
   23.7078  -19.0523  -20.8471 C   0  0  0  0  0  0  0  0  0  0  0  0
   24.2040  -17.6807  -21.0956 C   0  0  0  0  0  0  0  0  0  0  0  0
   25.1560  -17.2459  -21.9957 C   0  0  0  0  0  0  0  0  0  0  0  0
   25.2834  -15.9327  -21.8744 N   0  0  0  0  0  0  0  0  0  0  0  0
   24.4446  -15.4798  -20.9205 C   0  0  0  0  0  0  0  0  0  0  0  0
   24.2321  -14.2012  -20.4547 C   0  0  0  0  0  0  0  0  0  0  0  0
   23.3021  -14.0038  -19.4556 C   0  0  0  0  0  0  0  0  0  0  0  0
   22.5804  -15.0615  -18.9133 C   0  0  0  0  0  0  0  0  0  0  0  0
   22.8291  -16.3266  -19.4141 C   0  0  0  0  0  0  0  0  0  0  0  0
   23.7486  -16.5669  -20.4106 C   0  0  0  0  0  0  0  0  0  0  0  0
   24.0730  -20.8865  -19.1975 C   0  0  0  0  0  0  0  0  0  0  0  0
   24.0689  -22.0373  -19.6939 O   0  0  0  0  0  0  0  0  0  0  0  0
   23.4939  -20.7098  -17.9174 N   0  0  0  0  0  0  0  0  0  0  0  0
   22.8442  -21.7942  -17.2071 C   0  0  1  0  0  0  0  0  0  0  0  0
   23.6876  -22.1715  -16.0170 C   0  0  0  0  0  0  0  0  0  0  0  0
   24.9467  -22.8164  -16.3980 C   0  0  0  0  0  0  0  0  0  0  0  0
   26.1787  -22.1935  -16.3664 C   0  0  0  0  0  0  0  0  0  0  0  0
   27.0854  -23.0846  -16.7788 N   0  0  0  0  0  0  0  0  0  0  0  0
   26.4836  -24.2492  -17.0720 C   0  0  0  0  0  0  0  0  0  0  0  0
   25.1723  -24.0625  -16.8313 N   0  0  0  0  0  0  0  0  0  0  0  0
   21.5161  -21.3314  -16.7696 C   0  0  0  0  0  0  0  0  0  0  0  0
   21.4036  -20.2171  -16.1980 O   0  0  0  0  0  0  0  0  0  0  0  0
   18.0624  -22.7632  -17.2014 C   0  0  0  0  0  0  0  0  0  0  0  0
   19.0703  -21.7761  -16.6015 C   0  0  2  0  0  0  0  0  0  0  0  0
   20.3815  -22.1724  -17.0108 N   0  0  0  0  0  0  0  0  0  0  0  0
   18.8910  -21.8022  -15.1469 C   0  0  0  0  0  0  0  0  0  0  0  0
   18.0033  -20.9555  -14.4877 O   0  0  0  0  0  0  0  0  0  0  0  0
   19.5464  -22.6056  -14.4406 O   0  0  0  0  0  0  0  0  0  0  0  0
  2  1  1  6
  2 13  1  0
  2  3  1  0
  3  4  1  0
  4  5  2  0
  5  6  1  0
  7  6  1  0
  8  7  2  0
  9  8  1  0
 10 11  1  0
 10  9  2  0
 11 12  2  0
 12  4  1  0
 12  7  1  0
 13 14  2  0
 15 13  1  0
 15 16  1  0
 16 17  1  1
 18 17  1  0
 19 18  2  0
 20 21  1  0
 20 19  1  0
 21 22  2  0
 22 18  1  0
 23 24  2  0
 23 16  1  0
 26 25  1  6
 26 27  1  0
 27 23  1  0
 28 29  1  0
 28 26  1  0
 30 28  2  0
M  END
$$$$
