WHA.pdb
     RDKit          3D

 30 32  0  0  1  0  0  0  0  0999 V2000
   21.5981  -21.6016  -13.7794 N   0  0  0  0  0  0  0  0  0  0  0  0
   21.5997  -21.3777  -12.3477 C   0  0  1  0  0  0  0  0  0  0  0  0
   22.3375  -20.1315  -11.9553 C   0  0  0  0  0  0  0  0  0  0  0  0
   23.7878  -20.3962  -12.0805 C   0  0  0  0  0  0  0  0  0  0  0  0
   24.5668  -20.4725  -13.2176 C   0  0  0  0  0  0  0  0  0  0  0  0
   25.8158  -20.7292  -12.8576 N   0  0  0  0  0  0  0  0  0  0  0  0
   25.8920  -20.8260  -11.5146 C   0  0  0  0  0  0  0  0  0  0  0  0
   26.9729  -21.0792  -10.6994 C   0  0  0  0  0  0  0  0  0  0  0  0
   26.7793  -21.1268   -9.3347 C   0  0  0  0  0  0  0  0  0  0  0  0
   25.5247  -20.9260   -8.7697 C   0  0  0  0  0  0  0  0  0  0  0  0
   24.4706  -20.6752   -9.6296 C   0  0  0  0  0  0  0  0  0  0  0  0
   24.6209  -20.6192  -10.9973 C   0  0  0  0  0  0  0  0  0  0  0  0
   20.2252  -21.4498  -11.8154 C   0  0  0  0  0  0  0  0  0  0  0  0
   19.4872  -20.4404  -11.7307 O   0  0  0  0  0  0  0  0  0  0  0  0
   19.7068  -22.6939  -11.3810 N   0  0  0  0  0  0  0  0  0  0  0  0
   18.6122  -22.7865  -10.4346 C   0  0  1  0  0  0  0  0  0  0  0  0
   17.3283  -22.9991  -11.1940 C   0  0  0  0  0  0  0  0  0  0  0  0
   17.3506  -22.3866  -12.5247 C   0  0  0  0  0  0  0  0  0  0  0  0
   18.4646  -21.7977  -13.0898 C   0  0  0  0  0  0  0  0  0  0  0  0
   18.1088  -21.3528  -14.2989 N   0  0  0  0  0  0  0  0  0  0  0  0
   16.8153  -21.6332  -14.5285 C   0  0  0  0  0  0  0  0  0  0  0  0
   16.3699  -22.2672  -13.4277 N   0  0  0  0  0  0  0  0  0  0  0  0
   18.8718  -23.9242   -9.5358 C   0  0  0  0  0  0  0  0  0  0  0  0
   19.6024  -24.8702   -9.9261 O   0  0  0  0  0  0  0  0  0  0  0  0
   18.1000  -24.4893   -5.9065 C   0  0  0  0  0  0  0  0  0  0  0  0
   18.5537  -24.9612   -7.2928 C   0  0  2  0  0  0  0  0  0  0  0  0
   18.2786  -23.9188   -8.2317 N   0  0  0  0  0  0  0  0  0  0  0  0
   17.8325  -26.2030   -7.5866 C   0  0  0  0  0  0  0  0  0  0  0  0
   18.2534  -27.4425   -7.1112 O   0  0  0  0  0  0  0  0  0  0  0  0
   16.7937  -26.1830   -8.2897 O   0  0  0  0  0  0  0  0  0  0  0  0
  2  1  1  6
  2 13  1  0
  2  3  1  0
  3  4  1  0
  4  5  2  0
  5  6  1  0
  7  6  1  0
  8  7  2  0
  9  8  1  0
 10 11  1  0
 10  9  2  0
 11 12  2  0
 12  4  1  0
 12  7  1  0
 13 14  2  0
 15 13  1  0
 15 16  1  0
 16 17  1  6
 18 17  1  0
 19 18  2  0
 20 21  1  0
 20 19  1  0
 21 22  2  0
 22 18  1  0
 23 24  2  0
 23 16  1  0
 26 25  1  1
 26 27  1  0
 27 23  1  0
 28 29  1  0
 28 26  1  0
 30 28  2  0
M  END
$$$$
