WHA.pdb
     RDKit          3D

 30 32  0  0  1  0  0  0  0  0999 V2000
   24.8346  -35.1173   -7.3785 N   0  0  0  0  0  0  0  0  0  0  0  0
   26.0985  -34.4816   -7.6924 C   0  0  1  0  0  0  0  0  0  0  0  0
   26.0340  -32.9851   -7.6038 C   0  0  0  0  0  0  0  0  0  0  0  0
   25.0377  -32.5081   -8.5883 C   0  0  0  0  0  0  0  0  0  0  0  0
   23.7355  -32.0980   -8.3845 C   0  0  0  0  0  0  0  0  0  0  0  0
   23.2131  -31.7543   -9.5526 N   0  0  0  0  0  0  0  0  0  0  0  0
   24.1286  -31.9232  -10.5284 C   0  0  0  0  0  0  0  0  0  0  0  0
   24.0377  -31.6983  -11.8841 C   0  0  0  0  0  0  0  0  0  0  0  0
   25.1373  -31.9558  -12.6757 C   0  0  0  0  0  0  0  0  0  0  0  0
   26.3265  -32.4342  -12.1368 C   0  0  0  0  0  0  0  0  0  0  0  0
   26.3686  -32.6442  -10.7703 C   0  0  0  0  0  0  0  0  0  0  0  0
   25.2940  -32.4000   -9.9446 C   0  0  0  0  0  0  0  0  0  0  0  0
   27.1862  -35.0800   -6.8946 C   0  0  0  0  0  0  0  0  0  0  0  0
   26.9628  -35.8385   -5.9223 O   0  0  0  0  0  0  0  0  0  0  0  0
   28.5339  -34.7980   -7.2252 N   0  0  0  0  0  0  0  0  0  0  0  0
   29.6441  -35.4827   -6.5919 C   0  0  1  0  0  0  0  0  0  0  0  0
   30.9153  -35.1237   -7.3170 C   0  0  0  0  0  0  0  0  0  0  0  0
   32.0749  -35.8757   -6.8308 C   0  0  0  0  0  0  0  0  0  0  0  0
   32.0208  -36.8241   -5.8286 C   0  0  0  0  0  0  0  0  0  0  0  0
   33.2606  -37.2929   -5.6577 N   0  0  0  0  0  0  0  0  0  0  0  0
   34.1028  -36.6836   -6.5084 C   0  0  0  0  0  0  0  0  0  0  0  0
   33.3548  -35.8185   -7.2183 N   0  0  0  0  0  0  0  0  0  0  0  0
   29.7147  -35.0491   -5.1860 C   0  0  0  0  0  0  0  0  0  0  0  0
   29.7189  -33.8216   -4.9138 O   0  0  0  0  0  0  0  0  0  0  0  0
   29.3207  -36.9151   -1.9693 C   0  0  0  0  0  0  0  0  0  0  0  0
   29.7557  -35.6876   -2.7780 C   0  0  2  0  0  0  0  0  0  0  0  0
   29.7769  -36.0484   -4.1612 N   0  0  0  0  0  0  0  0  0  0  0  0
   31.0687  -35.2769   -2.2720 C   0  0  0  0  0  0  0  0  0  0  0  0
   31.2513  -34.7779   -0.9848 O   0  0  0  0  0  0  0  0  0  0  0  0
   32.0862  -35.3656   -3.0006 O   0  0  0  0  0  0  0  0  0  0  0  0
  2  1  1  1
  2 13  1  0
  2  3  1  0
  3  4  1  0
  4  5  2  0
  5  6  1  0
  7  6  1  0
  8  7  2  0
  9  8  1  0
 10 11  1  0
 10  9  2  0
 11 12  2  0
 12  4  1  0
 12  7  1  0
 13 14  2  0
 15 13  1  0
 15 16  1  0
 16 17  1  6
 18 17  1  0
 19 18  2  0
 20 21  1  0
 20 19  1  0
 21 22  2  0
 22 18  1  0
 23 24  2  0
 23 16  1  0
 26 25  1  1
 26 27  1  0
 27 23  1  0
 28 29  1  0
 28 26  1  0
 30 28  2  0
M  END
$$$$
