WHA.pdb
     RDKit          3D

 30 32  0  0  1  0  0  0  0  0999 V2000
   27.2535  -19.2401   -9.9984 N   0  0  0  0  0  0  0  0  0  0  0  0
   26.8033  -20.4922  -10.5726 C   0  0  1  0  0  0  0  0  0  0  0  0
   26.2578  -21.4398   -9.5449 C   0  0  0  0  0  0  0  0  0  0  0  0
   26.4610  -20.8371   -8.2090 C   0  0  0  0  0  0  0  0  0  0  0  0
   25.5351  -20.2704   -7.3564 C   0  0  0  0  0  0  0  0  0  0  0  0
   26.1628  -19.8579   -6.2649 N   0  0  0  0  0  0  0  0  0  0  0  0
   27.4792  -20.1331   -6.3650 C   0  0  0  0  0  0  0  0  0  0  0  0
   28.5097  -19.8906   -5.4840 C   0  0  0  0  0  0  0  0  0  0  0  0
   29.7869  -20.2774   -5.8324 C   0  0  0  0  0  0  0  0  0  0  0  0
   30.0529  -20.9024   -7.0458 C   0  0  0  0  0  0  0  0  0  0  0  0
   28.9852  -21.1241   -7.8967 C   0  0  0  0  0  0  0  0  0  0  0  0
   27.6954  -20.7538   -7.5874 C   0  0  0  0  0  0  0  0  0  0  0  0
   25.8835  -20.2392  -11.6984 C   0  0  0  0  0  0  0  0  0  0  0  0
   25.0904  -19.2689  -11.7090 O   0  0  0  0  0  0  0  0  0  0  0  0
   25.8839  -21.1129  -12.8129 N   0  0  0  0  0  0  0  0  0  0  0  0
   25.1724  -20.8030  -14.0377 C   0  0  1  0  0  0  0  0  0  0  0  0
   25.9990  -21.2623  -15.2108 C   0  0  0  0  0  0  0  0  0  0  0  0
   27.0097  -20.2795  -15.6095 C   0  0  0  0  0  0  0  0  0  0  0  0
   26.9469  -18.9340  -15.3052 C   0  0  0  0  0  0  0  0  0  0  0  0
   28.0326  -18.3569  -15.8290 N   0  0  0  0  0  0  0  0  0  0  0  0
   28.7848  -19.2774  -16.4544 C   0  0  0  0  0  0  0  0  0  0  0  0
   28.1390  -20.4493  -16.3075 N   0  0  0  0  0  0  0  0  0  0  0  0
   23.8792  -21.5075  -14.0132 C   0  0  0  0  0  0  0  0  0  0  0  0
   23.7941  -22.6310  -13.4552 O   0  0  0  0  0  0  0  0  0  0  0  0
   20.4080  -20.4376  -14.9408 C   0  0  0  0  0  0  0  0  0  0  0  0
   21.4564  -21.5011  -14.5945 C   0  0  2  0  0  0  0  0  0  0  0  0
   22.7463  -20.8857  -14.6317 N   0  0  0  0  0  0  0  0  0  0  0  0
   21.3108  -22.5877  -15.5674 C   0  0  0  0  0  0  0  0  0  0  0  0
   20.2929  -23.5344  -15.4843 O   0  0  0  0  0  0  0  0  0  0  0  0
   22.1169  -22.6971  -16.5225 O   0  0  0  0  0  0  0  0  0  0  0  0
  2  1  1  1
  2 13  1  0
  2  3  1  0
  3  4  1  0
  4  5  2  0
  5  6  1  0
  7  6  1  0
  8  7  2  0
  9  8  1  0
 10 11  1  0
 10  9  2  0
 11 12  2  0
 12  4  1  0
 12  7  1  0
 13 14  2  0
 15 13  1  0
 15 16  1  0
 16 17  1  6
 18 17  1  0
 19 18  2  0
 20 21  1  0
 20 19  1  0
 21 22  2  0
 22 18  1  0
 23 24  2  0
 23 16  1  0
 26 25  1  6
 26 27  1  0
 27 23  1  0
 28 29  1  0
 28 26  1  0
 30 28  2  0
M  END
$$$$
