WHA.pdb
     RDKit          3D

 30 32  0  0  1  0  0  0  0  0999 V2000
   23.6054   -9.9814  -18.9070 N   0  0  0  0  0  0  0  0  0  0  0  0
   23.3707   -9.2209  -17.6960 C   0  0  1  0  0  0  0  0  0  0  0  0
   24.2965   -8.0481  -17.5578 C   0  0  0  0  0  0  0  0  0  0  0  0
   25.6833   -8.5606  -17.4996 C   0  0  0  0  0  0  0  0  0  0  0  0
   26.7628   -8.2525  -18.3028 C   0  0  0  0  0  0  0  0  0  0  0  0
   27.8107   -8.9488  -17.8875 N   0  0  0  0  0  0  0  0  0  0  0  0
   27.4614   -9.7115  -16.8316 C   0  0  0  0  0  0  0  0  0  0  0  0
   28.2107  -10.5889  -16.0794 C   0  0  0  0  0  0  0  0  0  0  0  0
   27.6039  -11.2555  -15.0356 C   0  0  0  0  0  0  0  0  0  0  0  0
   26.2614  -11.0613  -14.7299 C   0  0  0  0  0  0  0  0  0  0  0  0
   25.5510  -10.1704  -15.5140 C   0  0  0  0  0  0  0  0  0  0  0  0
   26.1184   -9.4847  -16.5648 C   0  0  0  0  0  0  0  0  0  0  0  0
   21.9421   -8.8701  -17.5790 C   0  0  0  0  0  0  0  0  0  0  0  0
   21.2362   -8.5989  -18.5784 O   0  0  0  0  0  0  0  0  0  0  0  0
   21.3323   -8.8338  -16.3015 N   0  0  0  0  0  0  0  0  0  0  0  0
   19.9180   -8.5652  -16.1280 C   0  0  1  0  0  0  0  0  0  0  0  0
   19.4138   -9.3528  -14.9466 C   0  0  0  0  0  0  0  0  0  0  0  0
   19.1122  -10.7464  -15.2835 C   0  0  0  0  0  0  0  0  0  0  0  0
   19.1266  -11.2556  -16.5670 C   0  0  0  0  0  0  0  0  0  0  0  0
   18.8037  -12.5498  -16.4849 N   0  0  0  0  0  0  0  0  0  0  0  0
   18.5842  -12.8874  -15.2034 C   0  0  0  0  0  0  0  0  0  0  0  0
   18.7788  -11.7665  -14.4837 N   0  0  0  0  0  0  0  0  0  0  0  0
   19.7459   -7.1212  -15.8939 C   0  0  0  0  0  0  0  0  0  0  0  0
   20.5172   -6.5242  -15.1004 O   0  0  0  0  0  0  0  0  0  0  0  0
   17.3272   -4.5924  -17.2923 C   0  0  0  0  0  0  0  0  0  0  0  0
   18.4227   -5.0545  -16.3245 C   0  0  2  0  0  0  0  0  0  0  0  0
   18.6952   -6.4337  -16.5838 N   0  0  0  0  0  0  0  0  0  0  0  0
   17.9316   -4.8124  -14.9648 C   0  0  0  0  0  0  0  0  0  0  0  0
   18.1541   -3.6137  -14.2917 O   0  0  0  0  0  0  0  0  0  0  0  0
   17.2832   -5.6978  -14.3568 O   0  0  0  0  0  0  0  0  0  0  0  0
  2  1  1  6
  2 13  1  0
  2  3  1  0
  3  4  1  0
  4  5  2  0
  5  6  1  0
  7  6  1  0
  8  7  2  0
  9  8  1  0
 10 11  1  0
 10  9  2  0
 11 12  2  0
 12  4  1  0
 12  7  1  0
 13 14  2  0
 15 13  1  0
 15 16  1  0
 16 17  1  1
 18 17  1  0
 19 18  2  0
 20 21  1  0
 20 19  1  0
 21 22  2  0
 22 18  1  0
 23 24  2  0
 23 16  1  0
 26 25  1  6
 26 27  1  0
 27 23  1  0
 28 29  1  0
 28 26  1  0
 30 28  2  0
M  END
$$$$
