WHA.pdb
     RDKit          3D

 30 32  0  0  1  0  0  0  0  0999 V2000
   25.9446  -19.3583  -11.5262 N   0  0  0  0  0  0  0  0  0  0  0  0
   26.1544  -20.7153  -11.9895 C   0  0  1  0  0  0  0  0  0  0  0  0
   25.9187  -21.7383  -10.9174 C   0  0  0  0  0  0  0  0  0  0  0  0
   26.2947  -21.1386   -9.6181 C   0  0  0  0  0  0  0  0  0  0  0  0
   25.4931  -20.5357   -8.6697 C   0  0  0  0  0  0  0  0  0  0  0  0
   26.2558  -20.1423   -7.6602 N   0  0  0  0  0  0  0  0  0  0  0  0
   27.5415  -20.4652   -7.9079 C   0  0  0  0  0  0  0  0  0  0  0  0
   28.6740  -20.2569   -7.1523 C   0  0  0  0  0  0  0  0  0  0  0  0
   29.8884  -20.6908   -7.6414 C   0  0  0  0  0  0  0  0  0  0  0  0
   29.9915  -21.3293   -8.8723 C   0  0  0  0  0  0  0  0  0  0  0  0
   28.8262  -21.5154   -9.5940 C   0  0  0  0  0  0  0  0  0  0  0  0
   27.5943  -21.0976   -9.1422 C   0  0  0  0  0  0  0  0  0  0  0  0
   25.3875  -20.9598  -13.2262 C   0  0  0  0  0  0  0  0  0  0  0  0
   24.5717  -20.1252  -13.6832 O   0  0  0  0  0  0  0  0  0  0  0  0
   25.5670  -22.1736  -13.9332 N   0  0  0  0  0  0  0  0  0  0  0  0
   25.0751  -22.3606  -15.2843 C   0  0  1  0  0  0  0  0  0  0  0  0
   25.8496  -23.4777  -15.9344 C   0  0  0  0  0  0  0  0  0  0  0  0
   27.1673  -23.0494  -16.4106 C   0  0  0  0  0  0  0  0  0  0  0  0
   27.5898  -21.7353  -16.4484 C   0  0  0  0  0  0  0  0  0  0  0  0
   28.8337  -21.7316  -16.9373 N   0  0  0  0  0  0  0  0  0  0  0  0
   29.2221  -22.9877  -17.2126 C   0  0  0  0  0  0  0  0  0  0  0  0
   28.1850  -23.7797  -16.8821 N   0  0  0  0  0  0  0  0  0  0  0  0
   23.6439  -22.7013  -15.2134 C   0  0  0  0  0  0  0  0  0  0  0  0
   23.2394  -23.5054  -14.3354 O   0  0  0  0  0  0  0  0  0  0  0  0
   20.6326  -21.2091  -16.8612 C   0  0  0  0  0  0  0  0  0  0  0  0
   21.3368  -22.3198  -16.0733 C   0  0  2  0  0  0  0  0  0  0  0  0
   22.7471  -22.1006  -16.1555 N   0  0  0  0  0  0  0  0  0  0  0  0
   20.9198  -23.5980  -16.6571 C   0  0  0  0  0  0  0  0  0  0  0  0
   19.7525  -24.2515  -16.2701 O   0  0  0  0  0  0  0  0  0  0  0  0
   21.6183  -24.1505  -17.5407 O   0  0  0  0  0  0  0  0  0  0  0  0
  2  1  1  1
  2 13  1  0
  2  3  1  0
  3  4  1  0
  4  5  2  0
  5  6  1  0
  7  6  1  0
  8  7  2  0
  9  8  1  0
 10 11  1  0
 10  9  2  0
 11 12  2  0
 12  4  1  0
 12  7  1  0
 13 14  2  0
 15 13  1  0
 15 16  1  0
 16 17  1  1
 18 17  1  0
 19 18  2  0
 20 21  1  0
 20 19  1  0
 21 22  2  0
 22 18  1  0
 23 24  2  0
 23 16  1  0
 26 25  1  6
 26 27  1  0
 27 23  1  0
 28 29  1  0
 28 26  1  0
 30 28  2  0
M  END
$$$$
