WHA.pdb
     RDKit          3D

 30 32  0  0  1  0  0  0  0  0999 V2000
   24.0063  -16.0172  -18.2056 N   0  0  0  0  0  0  0  0  0  0  0  0
   23.9821  -17.2939  -17.5204 C   0  0  1  0  0  0  0  0  0  0  0  0
   25.2893  -17.6251  -16.8625 C   0  0  0  0  0  0  0  0  0  0  0  0
   26.3254  -17.7129  -17.9152 C   0  0  0  0  0  0  0  0  0  0  0  0
   27.3877  -16.8685  -18.1678 C   0  0  0  0  0  0  0  0  0  0  0  0
   28.0587  -17.3342  -19.2111 N   0  0  0  0  0  0  0  0  0  0  0  0
   27.4751  -18.4638  -19.6607 C   0  0  0  0  0  0  0  0  0  0  0  0
   27.8177  -19.2866  -20.7107 C   0  0  0  0  0  0  0  0  0  0  0  0
   27.0421  -20.3985  -20.9642 C   0  0  0  0  0  0  0  0  0  0  0  0
   25.9299  -20.7030  -20.1871 C   0  0  0  0  0  0  0  0  0  0  0  0
   25.6265  -19.8465  -19.1442 C   0  0  0  0  0  0  0  0  0  0  0  0
   26.3744  -18.7264  -18.8573 C   0  0  0  0  0  0  0  0  0  0  0  0
   22.8217  -17.3668  -16.6118 C   0  0  0  0  0  0  0  0  0  0  0  0
   22.5633  -16.4628  -15.7832 O   0  0  0  0  0  0  0  0  0  0  0  0
   21.9604  -18.4897  -16.6645 N   0  0  0  0  0  0  0  0  0  0  0  0
   20.7730  -18.5919  -15.8387 C   0  0  1  0  0  0  0  0  0  0  0  0
   19.6077  -18.9877  -16.7079 C   0  0  0  0  0  0  0  0  0  0  0  0
   18.3445  -19.0459  -15.9680 C   0  0  0  0  0  0  0  0  0  0  0  0
   18.1986  -18.6619  -14.6496 C   0  0  0  0  0  0  0  0  0  0  0  0
   16.9180  -18.8542  -14.3190 N   0  0  0  0  0  0  0  0  0  0  0  0
   16.2413  -19.3444  -15.3707 C   0  0  0  0  0  0  0  0  0  0  0  0
   17.1353  -19.4541  -16.3712 N   0  0  0  0  0  0  0  0  0  0  0  0
   21.0136  -19.6137  -14.8055 C   0  0  0  0  0  0  0  0  0  0  0  0
   21.5152  -20.7199  -15.1306 O   0  0  0  0  0  0  0  0  0  0  0  0
   21.0926  -19.3976  -11.0873 C   0  0  0  0  0  0  0  0  0  0  0  0
   21.0059  -20.2078  -12.3859 C   0  0  2  0  0  0  0  0  0  0  0  0
   20.6659  -19.3138  -13.4484 N   0  0  0  0  0  0  0  0  0  0  0  0
   20.0047  -21.2578  -12.1769 C   0  0  0  0  0  0  0  0  0  0  0  0
   18.8224  -21.3201  -12.9100 O   0  0  0  0  0  0  0  0  0  0  0  0
   20.1896  -22.1486  -11.3131 O   0  0  0  0  0  0  0  0  0  0  0  0
  2  1  1  1
  2 13  1  0
  2  3  1  0
  3  4  1  0
  4  5  2  0
  5  6  1  0
  7  6  1  0
  8  7  2  0
  9  8  1  0
 10 11  1  0
 10  9  2  0
 11 12  2  0
 12  4  1  0
 12  7  1  0
 13 14  2  0
 15 13  1  0
 15 16  1  0
 16 17  1  6
 18 17  1  0
 19 18  2  0
 20 21  1  0
 20 19  1  0
 21 22  2  0
 22 18  1  0
 23 24  2  0
 23 16  1  0
 26 25  1  1
 26 27  1  0
 27 23  1  0
 28 29  1  0
 28 26  1  0
 30 28  2  0
M  END
$$$$
