IGN.pdb
     RDKit          3D

 21 20  0  0  1  0  0  0  0  0999 V2000
    6.7575  -11.0211   26.3815 C   0  0  0  0  0  0  0  0  0  0  0  0
    7.1749  -12.4514   26.3796 C   0  0  0  0  0  0  0  0  0  0  0  0
    6.2842  -13.3633   25.5614 C   0  0  2  0  0  0  0  0  0  0  0  0
    4.9226  -13.3220   26.2690 C   0  0  0  0  0  0  0  0  0  0  0  0
    6.8401  -14.7496   25.4600 C   0  0  2  0  0  0  0  0  0  0  0  0
    7.0623  -15.2709   26.8188 N   0  0  0  0  0  0  0  0  0  0  0  0
    8.1261  -14.8284   24.7486 C   0  0  0  0  0  0  0  0  0  0  0  0
    9.1912  -14.3735   25.3020 O   0  0  0  0  0  0  0  0  0  0  0  0
    8.3406  -15.3744   23.4652 N   0  0  0  0  0  0  0  0  0  0  0  0
    9.5724  -15.2519   22.7315 C   0  0  0  0  0  0  0  0  0  0  0  0
   10.7083  -15.9128   23.3726 C   0  0  0  0  0  0  0  0  0  0  0  0
   11.7844  -16.0306   22.7410 O   0  0  0  0  0  0  0  0  0  0  0  0
   10.8152  -14.7463   27.9813 N   0  0  0  0  0  0  0  0  0  0  0  0
   11.8069  -15.3959   27.1768 C   0  0  0  0  0  0  0  0  0  0  0  0
   12.7968  -14.6671   26.8184 O   0  0  0  0  0  0  0  0  0  0  0  0
   11.6837  -16.8168   26.7933 C   0  0  0  0  0  0  0  0  0  0  0  0
   11.8058  -17.0818   25.3180 C   0  0  2  0  0  0  0  0  0  0  0  0
   10.6482  -16.4304   24.6852 N   0  0  0  0  0  0  0  0  0  0  0  0
   11.8204  -18.5190   25.0441 C   0  0  0  0  0  0  0  0  0  0  0  0
   12.8476  -19.3491   25.4486 O   0  0  0  0  0  0  0  0  0  0  0  0
   10.8598  -19.0255   24.4116 O   0  0  0  0  0  0  0  0  0  0  0  0
  1  2  1  0
  2  3  1  0
  3  4  1  1
  5  7  1  0
  5  3  1  0
  5  6  1  1
  7  8  2  0
  7  9  1  0
  9 10  1  0
 10 11  1  0
 11 12  2  0
 13 14  1  0
 14 15  2  0
 16 14  1  0
 17 16  1  1
 17 19  1  0
 18 11  1  0
 18 17  1  0
 19 21  2  0
 19 20  1  0
M  END
$$$$
