IGN.pdb
     RDKit          3D

 21 20  0  0  1  0  0  0  0  0999 V2000
    7.3716  -12.1628   19.3954 C   0  0  0  0  0  0  0  0  0  0  0  0
    7.9605  -13.4498   19.8608 C   0  0  0  0  0  0  0  0  0  0  0  0
    7.5093  -13.8833   21.2402 C   0  0  2  0  0  0  0  0  0  0  0  0
    7.9530  -12.7486   22.1740 C   0  0  0  0  0  0  0  0  0  0  0  0
    8.0848  -15.2093   21.6294 C   0  0  2  0  0  0  0  0  0  0  0  0
    7.4245  -16.2619   20.8399 N   0  0  0  0  0  0  0  0  0  0  0  0
    7.8984  -15.5494   23.0492 C   0  0  0  0  0  0  0  0  0  0  0  0
    8.6786  -15.0446   23.9346 O   0  0  0  0  0  0  0  0  0  0  0  0
    6.9123  -16.4066   23.5820 N   0  0  0  0  0  0  0  0  0  0  0  0
    6.7028  -16.6192   24.9897 C   0  0  0  0  0  0  0  0  0  0  0  0
    7.5948  -17.6200   25.5735 C   0  0  0  0  0  0  0  0  0  0  0  0
    7.1388  -18.7500   25.8666 O   0  0  0  0  0  0  0  0  0  0  0  0
   10.6819  -19.2426   23.5618 N   0  0  0  0  0  0  0  0  0  0  0  0
   11.2293  -18.1616   24.3263 C   0  0  0  0  0  0  0  0  0  0  0  0
   11.7351  -17.2009   23.6477 O   0  0  0  0  0  0  0  0  0  0  0  0
   11.2041  -18.1670   25.8030 C   0  0  0  0  0  0  0  0  0  0  0  0
    9.8454  -18.3917   26.4070 C   0  0  2  0  0  0  0  0  0  0  0  0
    8.9617  -17.3693   25.8253 N   0  0  0  0  0  0  0  0  0  0  0  0
    9.8963  -18.2810   27.8651 C   0  0  0  0  0  0  0  0  0  0  0  0
   10.4719  -19.2439   28.6707 O   0  0  0  0  0  0  0  0  0  0  0  0
    9.3939  -17.2683   28.4140 O   0  0  0  0  0  0  0  0  0  0  0  0
  1  2  1  0
  2  3  1  0
  3  4  1  1
  5  7  1  0
  5  3  1  0
  5  6  1  6
  7  8  2  0
  7  9  1  0
  9 10  1  0
 10 11  1  0
 11 12  2  0
 13 14  1  0
 14 15  2  0
 16 14  1  0
 17 16  1  6
 17 19  1  0
 18 11  1  0
 18 17  1  0
 19 21  2  0
 19 20  1  0
M  END
$$$$
