IGN.pdb
     RDKit          3D

 21 20  0  0  1  0  0  0  0  0999 V2000
    5.2189  -11.5014   26.8269 C   0  0  0  0  0  0  0  0  0  0  0  0
    5.3637  -12.8358   26.1799 C   0  0  0  0  0  0  0  0  0  0  0  0
    6.7659  -13.1520   25.7022 C   0  0  2  0  0  0  0  0  0  0  0  0
    7.0616  -12.0990   24.6252 C   0  0  0  0  0  0  0  0  0  0  0  0
    6.8820  -14.5528   25.1871 C   0  0  2  0  0  0  0  0  0  0  0  0
    6.4712  -15.4838   26.2509 N   0  0  0  0  0  0  0  0  0  0  0  0
    8.2455  -14.9305   24.7816 C   0  0  0  0  0  0  0  0  0  0  0  0
    9.2072  -14.8569   25.6286 O   0  0  0  0  0  0  0  0  0  0  0  0
    8.6430  -15.3898   23.5080 N   0  0  0  0  0  0  0  0  0  0  0  0
    9.9982  -15.3574   23.0250 C   0  0  0  0  0  0  0  0  0  0  0  0
   10.9459  -16.0690   23.8813 C   0  0  0  0  0  0  0  0  0  0  0  0
   12.1562  -16.1045   23.5577 O   0  0  0  0  0  0  0  0  0  0  0  0
   11.9830  -15.0619   27.3431 N   0  0  0  0  0  0  0  0  0  0  0  0
   11.2343  -16.1097   27.9712 C   0  0  0  0  0  0  0  0  0  0  0  0
   10.7775  -15.8443   29.1375 O   0  0  0  0  0  0  0  0  0  0  0  0
   11.0100  -17.4081   27.3042 C   0  0  0  0  0  0  0  0  0  0  0  0
   11.5149  -17.4828   25.8896 C   0  0  2  0  0  0  0  0  0  0  0  0
   10.5564  -16.7254   25.0695 N   0  0  0  0  0  0  0  0  0  0  0  0
   11.6135  -18.8724   25.4420 C   0  0  0  0  0  0  0  0  0  0  0  0
   10.5257  -19.5937   24.9903 O   0  0  0  0  0  0  0  0  0  0  0  0
   12.7343  -19.4400   25.4695 O   0  0  0  0  0  0  0  0  0  0  0  0
  1  2  1  0
  2  3  1  0
  3  4  1  6
  5  7  1  0
  5  3  1  0
  5  6  1  1
  7  8  2  0
  7  9  1  0
  9 10  1  0
 10 11  1  0
 11 12  2  0
 13 14  1  0
 14 15  2  0
 16 14  1  0
 17 16  1  1
 17 19  1  0
 18 11  1  0
 18 17  1  0
 19 21  2  0
 19 20  1  0
M  END
$$$$
