IGN.pdb
     RDKit          3D

 21 20  0  0  1  0  0  0  0  0999 V2000
    6.0767  -10.7656   25.5002 C   0  0  0  0  0  0  0  0  0  0  0  0
    7.0953  -11.8338   25.2966 C   0  0  0  0  0  0  0  0  0  0  0  0
    6.5976  -13.2364   25.5779 C   0  0  2  0  0  0  0  0  0  0  0  0
    6.2012  -13.2233   27.0608 C   0  0  0  0  0  0  0  0  0  0  0  0
    7.6315  -14.2732   25.2660 C   0  0  2  0  0  0  0  0  0  0  0  0
    7.9808  -14.1787   23.8390 N   0  0  0  0  0  0  0  0  0  0  0  0
    7.1881  -15.6545   25.5144 C   0  0  0  0  0  0  0  0  0  0  0  0
    7.0834  -16.0846   26.7192 O   0  0  0  0  0  0  0  0  0  0  0  0
    6.8444  -16.6119   24.5365 N   0  0  0  0  0  0  0  0  0  0  0  0
    6.4013  -17.9479   24.8357 C   0  0  0  0  0  0  0  0  0  0  0  0
    7.4377  -18.7942   25.4252 C   0  0  0  0  0  0  0  0  0  0  0  0
    7.1286  -19.9291   25.8578 O   0  0  0  0  0  0  0  0  0  0  0  0
   12.7622  -17.3862   25.2506 N   0  0  0  0  0  0  0  0  0  0  0  0
   11.4626  -17.8251   24.8369 C   0  0  0  0  0  0  0  0  0  0  0  0
   10.7527  -16.9564   24.2199 O   0  0  0  0  0  0  0  0  0  0  0  0
   10.9848  -19.1957   25.1101 C   0  0  0  0  0  0  0  0  0  0  0  0
    9.8273  -19.2782   26.0665 C   0  0  2  0  0  0  0  0  0  0  0  0
    8.7860  -18.3874   25.5309 N   0  0  0  0  0  0  0  0  0  0  0  0
   10.2312  -18.8721   27.4129 C   0  0  0  0  0  0  0  0  0  0  0  0
    9.7375  -17.7422   28.0351 O   0  0  0  0  0  0  0  0  0  0  0  0
   11.0650  -19.5776   28.0344 O   0  0  0  0  0  0  0  0  0  0  0  0
  1  2  1  0
  2  3  1  0
  3  4  1  1
  5  7  1  0
  5  3  1  0
  5  6  1  6
  7  8  2  0
  7  9  1  0
  9 10  1  0
 10 11  1  0
 11 12  2  0
 13 14  1  0
 14 15  2  0
 16 14  1  0
 17 16  1  6
 17 19  1  0
 18 11  1  0
 18 17  1  0
 19 21  2  0
 19 20  1  0
M  END
$$$$
