IGN.pdb
     RDKit          3D

 21 20  0  0  1  0  0  0  0  0999 V2000
    7.8099  -12.3023   27.6164 C   0  0  0  0  0  0  0  0  0  0  0  0
    7.5267  -13.4037   26.6538 C   0  0  0  0  0  0  0  0  0  0  0  0
    6.7604  -12.9759   25.4193 C   0  0  2  0  0  0  0  0  0  0  0  0
    5.3926  -12.5177   25.9444 C   0  0  0  0  0  0  0  0  0  0  0  0
    6.6524  -14.0796   24.4137 C   0  0  2  0  0  0  0  0  0  0  0  0
    6.0952  -15.2704   25.0760 N   0  0  0  0  0  0  0  0  0  0  0  0
    7.9391  -14.4752   23.8186 C   0  0  0  0  0  0  0  0  0  0  0  0
    8.7248  -13.5791   23.3421 O   0  0  0  0  0  0  0  0  0  0  0  0
    8.4398  -15.7896   23.7050 N   0  0  0  0  0  0  0  0  0  0  0  0
    9.7031  -16.1227   23.1018 C   0  0  0  0  0  0  0  0  0  0  0  0
   10.6400  -16.7725   24.0172 C   0  0  0  0  0  0  0  0  0  0  0  0
   11.8580  -16.8070   23.7240 O   0  0  0  0  0  0  0  0  0  0  0  0
    7.9912  -18.9371   27.2592 N   0  0  0  0  0  0  0  0  0  0  0  0
    9.0130  -17.9400   27.3798 C   0  0  0  0  0  0  0  0  0  0  0  0
    8.6024  -16.7299   27.4588 O   0  0  0  0  0  0  0  0  0  0  0  0
   10.4453  -18.2989   27.4108 C   0  0  0  0  0  0  0  0  0  0  0  0
   11.1863  -18.0367   26.1288 C   0  0  2  0  0  0  0  0  0  0  0  0
   10.2314  -17.3696   25.2300 N   0  0  0  0  0  0  0  0  0  0  0  0
   11.6805  -19.2843   25.5456 C   0  0  0  0  0  0  0  0  0  0  0  0
   11.2409  -19.7692   24.3294 O   0  0  0  0  0  0  0  0  0  0  0  0
   12.5413  -19.9488   26.1754 O   0  0  0  0  0  0  0  0  0  0  0  0
  1  2  1  0
  2  3  1  0
  3  4  1  1
  5  7  1  0
  5  3  1  0
  5  6  1  1
  7  8  2  0
  7  9  1  0
  9 10  1  0
 10 11  1  0
 11 12  2  0
 13 14  1  0
 14 15  2  0
 16 14  1  0
 17 16  1  1
 17 19  1  0
 18 11  1  0
 18 17  1  0
 19 21  2  0
 19 20  1  0
M  END
$$$$
