IGN.pdb
     RDKit          3D

 21 20  0  0  1  0  0  0  0  0999 V2000
    6.9378  -12.1226   20.0728 C   0  0  0  0  0  0  0  0  0  0  0  0
    7.1641  -13.5820   20.2701 C   0  0  0  0  0  0  0  0  0  0  0  0
    8.6165  -13.9728   20.4483 C   0  0  2  0  0  0  0  0  0  0  0  0
    9.2989  -13.5602   19.1367 C   0  0  0  0  0  0  0  0  0  0  0  0
    8.7740  -15.4313   20.7469 C   0  0  2  0  0  0  0  0  0  0  0  0
    8.1236  -16.2062   19.6774 N   0  0  0  0  0  0  0  0  0  0  0  0
    8.1652  -15.8510   22.0195 C   0  0  0  0  0  0  0  0  0  0  0  0
    7.4084  -16.8872   22.0544 O   0  0  0  0  0  0  0  0  0  0  0  0
    8.3236  -15.2197   23.2715 N   0  0  0  0  0  0  0  0  0  0  0  0
    7.9672  -15.8209   24.5294 C   0  0  0  0  0  0  0  0  0  0  0  0
    9.1156  -16.1393   25.3765 C   0  0  0  0  0  0  0  0  0  0  0  0
   10.2650  -16.1349   24.8768 O   0  0  0  0  0  0  0  0  0  0  0  0
   10.1709  -13.9731   27.3786 N   0  0  0  0  0  0  0  0  0  0  0  0
   10.0572  -14.5743   28.6741 C   0  0  0  0  0  0  0  0  0  0  0  0
    9.9817  -13.7608   29.6599 O   0  0  0  0  0  0  0  0  0  0  0  0
   10.0287  -16.0407   28.8474 C   0  0  0  0  0  0  0  0  0  0  0  0
   10.1495  -16.8264   27.5708 C   0  0  2  0  0  0  0  0  0  0  0  0
    8.9882  -16.4552   26.7471 N   0  0  0  0  0  0  0  0  0  0  0  0
   10.1697  -18.2642   27.8412 C   0  0  0  0  0  0  0  0  0  0  0  0
    9.1050  -19.0960   27.5552 O   0  0  0  0  0  0  0  0  0  0  0  0
   11.1977  -18.7694   28.3582 O   0  0  0  0  0  0  0  0  0  0  0  0
  1  2  1  0
  2  3  1  0
  3  4  1  6
  5  7  1  0
  5  3  1  0
  5  6  1  6
  7  8  2  0
  7  9  1  0
  9 10  1  0
 10 11  1  0
 11 12  2  0
 13 14  1  0
 14 15  2  0
 16 14  1  0
 17 16  1  1
 17 19  1  0
 18 11  1  0
 18 17  1  0
 19 21  2  0
 19 20  1  0
M  END
$$$$
