IEM.pdb
     RDKit          3D

 26 25  0  0  1  0  0  0  0  0999 V2000
   25.9252  -12.7863  -15.3671 C   0  0  0  0  0  0  0  0  0  0  0  0
   24.5964  -12.6216  -16.0253 C   0  0  0  0  0  0  0  0  0  0  0  0
   23.7319  -11.5385  -15.3632 C   0  0  2  0  0  0  0  0  0  0  0  0
   23.3694  -12.1503  -13.9970 C   0  0  0  0  0  0  0  0  0  0  0  0
   22.4573  -11.3941  -16.1371 C   0  0  2  0  0  0  0  0  0  0  0  0
   22.7739  -11.0751  -17.5106 N   0  0  0  0  0  0  0  0  0  0  0  0
   21.5288  -10.4106  -15.5398 C   0  0  0  0  0  0  0  0  0  0  0  0
   20.8463  -10.6706  -14.5195 O   0  0  0  0  0  0  0  0  0  0  0  0
   21.3344   -9.0835  -16.0781 N   0  0  0  0  0  0  0  0  0  0  0  0
   20.3944   -8.1663  -15.5476 C   0  0  1  0  0  0  0  0  0  0  0  0
   20.9110   -6.7899  -15.4012 C   0  0  0  0  0  0  0  0  0  0  0  0
   21.9352   -6.5537  -14.3363 C   0  0  0  0  0  0  0  0  0  0  0  0
   22.2728   -5.1461  -14.0897 C   0  0  0  0  0  0  0  0  0  0  0  0
   21.9679   -4.5415  -13.0041 O   0  0  0  0  0  0  0  0  0  0  0  0
   19.0872   -8.1742  -16.2446 C   0  0  0  0  0  0  0  0  0  0  0  0
   18.9328   -8.5620  -17.4286 O   0  0  0  0  0  0  0  0  0  0  0  0
   22.9482   -4.4068  -15.0434 O   0  0  0  0  0  0  0  0  0  0  0  0
   12.0460  -10.4133  -17.2972 C   0  0  0  0  0  0  0  0  0  0  0  0
   13.6883  -10.5495  -16.5568 S   0  0  0  0  0  0  0  0  0  0  0  0
   14.5222   -8.9434  -16.6769 C   0  0  0  0  0  0  0  0  0  0  0  0
   15.9148   -9.0104  -16.0728 C   0  0  0  0  0  0  0  0  0  0  0  0
   16.6510   -7.7005  -16.2478 C   0  0  2  0  0  0  0  0  0  0  0  0
   17.9378   -7.7238  -15.5526 N   0  0  0  0  0  0  0  0  0  0  0  0
   15.8219   -6.6433  -15.6367 C   0  0  0  0  0  0  0  0  0  0  0  0
   14.6322   -6.2840  -16.2398 O   0  0  0  0  0  0  0  0  0  0  0  0
   16.1548   -6.0501  -14.5820 O   0  0  0  0  0  0  0  0  0  0  0  0
  1  2  1  0
  2  3  1  0
  3  4  1  1
  5  3  1  0
  5  6  1  6
  7  8  2  0
  7  5  1  0
  9  7  1  0
 10  9  1  0
 10 11  1  6
 12 13  1  0
 12 11  1  0
 13 14  2  0
 15 23  1  0
 15 10  1  0
 16 15  2  0
 17 13  1  0
 19 18  1  0
 20 19  1  0
 20 21  1  0
 22 21  1  1
 22 24  1  0
 22 23  1  0
 24 25  1  0
 26 24  2  0
M  END
$$$$
