IEM.pdb
     RDKit          3D

 26 25  0  0  1  0  0  0  0  0999 V2000
   29.1962  -16.3835  -18.1249 C   0  0  0  0  0  0  0  0  0  0  0  0
   27.7587  -16.7790  -18.0696 C   0  0  0  0  0  0  0  0  0  0  0  0
   27.2215  -16.8799  -16.6342 C   0  0  2  0  0  0  0  0  0  0  0  0
   28.0168  -18.0534  -16.0323 C   0  0  0  0  0  0  0  0  0  0  0  0
   25.7833  -17.2965  -16.6820 C   0  0  2  0  0  0  0  0  0  0  0  0
   25.0089  -16.2453  -17.3014 N   0  0  0  0  0  0  0  0  0  0  0  0
   25.2476  -17.6714  -15.3559 C   0  0  0  0  0  0  0  0  0  0  0  0
   25.0067  -16.8186  -14.4676 O   0  0  0  0  0  0  0  0  0  0  0  0
   24.9615  -19.0371  -14.9798 N   0  0  0  0  0  0  0  0  0  0  0  0
   24.4304  -19.3937  -13.7159 C   0  0  1  0  0  0  0  0  0  0  0  0
   23.1888  -20.1915  -13.7866 C   0  0  0  0  0  0  0  0  0  0  0  0
   22.5598  -20.5935  -12.4899 C   0  0  0  0  0  0  0  0  0  0  0  0
   21.3676  -21.4429  -12.6060 C   0  0  0  0  0  0  0  0  0  0  0  0
   20.9467  -21.8950  -13.7264 O   0  0  0  0  0  0  0  0  0  0  0  0
   25.4160  -20.0203  -12.8046 C   0  0  0  0  0  0  0  0  0  0  0  0
   26.1861  -20.9509  -13.1468 O   0  0  0  0  0  0  0  0  0  0  0  0
   20.6407  -21.7928  -11.4829 O   0  0  0  0  0  0  0  0  0  0  0  0
   28.8226  -19.9959   -5.6553 C   0  0  0  0  0  0  0  0  0  0  0  0
   27.5879  -19.2124   -6.7162 S   0  0  0  0  0  0  0  0  0  0  0  0
   27.4941  -20.1241   -8.2813 C   0  0  0  0  0  0  0  0  0  0  0  0
   26.5030  -19.4706   -9.2296 C   0  0  0  0  0  0  0  0  0  0  0  0
   26.4720  -20.1818  -10.5644 C   0  0  2  0  0  0  0  0  0  0  0  0
   25.5092  -19.5564  -11.4709 N   0  0  0  0  0  0  0  0  0  0  0  0
   26.0300  -21.5678  -10.3157 C   0  0  0  0  0  0  0  0  0  0  0  0
   26.9709  -22.5778  -10.2605 O   0  0  0  0  0  0  0  0  0  0  0  0
   24.8235  -21.8719  -10.1508 O   0  0  0  0  0  0  0  0  0  0  0  0
  1  2  1  0
  2  3  1  0
  3  4  1  1
  5  3  1  0
  5  6  1  1
  7  8  2  0
  7  5  1  0
  9  7  1  0
 10  9  1  0
 10 11  1  6
 12 13  1  0
 12 11  1  0
 13 14  2  0
 15 23  1  0
 15 10  1  0
 16 15  2  0
 17 13  1  0
 19 18  1  0
 20 19  1  0
 20 21  1  0
 22 21  1  1
 22 24  1  0
 22 23  1  0
 24 25  1  0
 26 24  2  0
M  END
$$$$
