IEM.pdb
     RDKit          3D

 26 25  0  0  1  0  0  0  0  0999 V2000
   16.5659  -20.8407  -15.4018 C   0  0  0  0  0  0  0  0  0  0  0  0
   17.6795  -20.0605  -14.7877 C   0  0  0  0  0  0  0  0  0  0  0  0
   18.9444  -20.9017  -14.5612 C   0  0  2  0  0  0  0  0  0  0  0  0
   18.5132  -21.9221  -13.4912 C   0  0  0  0  0  0  0  0  0  0  0  0
   20.0008  -20.0347  -13.9476 C   0  0  2  0  0  0  0  0  0  0  0  0
   20.2159  -18.8836  -14.7945 N   0  0  0  0  0  0  0  0  0  0  0  0
   21.2576  -20.7639  -13.6742 C   0  0  0  0  0  0  0  0  0  0  0  0
   21.3454  -21.6266  -12.7673 O   0  0  0  0  0  0  0  0  0  0  0  0
   22.4744  -20.5437  -14.4222 N   0  0  0  0  0  0  0  0  0  0  0  0
   23.7032  -21.1689  -14.0973 C   0  0  1  0  0  0  0  0  0  0  0  0
   24.5328  -21.5148  -15.2699 C   0  0  0  0  0  0  0  0  0  0  0  0
   25.8398  -22.1938  -15.0063 C   0  0  0  0  0  0  0  0  0  0  0  0
   26.6623  -22.4572  -16.1939 C   0  0  0  0  0  0  0  0  0  0  0  0
   26.3068  -22.1092  -17.3726 O   0  0  0  0  0  0  0  0  0  0  0  0
   24.4962  -20.4428  -13.0782 C   0  0  0  0  0  0  0  0  0  0  0  0
   24.5371  -19.1912  -12.9909 O   0  0  0  0  0  0  0  0  0  0  0  0
   27.8784  -23.1052  -16.0781 O   0  0  0  0  0  0  0  0  0  0  0  0
   27.6331  -19.6329   -6.0670 C   0  0  0  0  0  0  0  0  0  0  0  0
   26.6428  -20.6806   -7.1557 S   0  0  0  0  0  0  0  0  0  0  0  0
   26.8583  -20.1196   -8.8669 C   0  0  0  0  0  0  0  0  0  0  0  0
   25.9369  -20.8801   -9.8058 C   0  0  0  0  0  0  0  0  0  0  0  0
   26.1694  -20.4783  -11.2455 C   0  0  2  0  0  0  0  0  0  0  0  0
   25.2555  -21.1851  -12.1426 N   0  0  0  0  0  0  0  0  0  0  0  0
   27.5479  -20.8721  -11.5964 C   0  0  0  0  0  0  0  0  0  0  0  0
   28.5892  -20.0077  -11.3193 O   0  0  0  0  0  0  0  0  0  0  0  0
   27.8178  -21.9698  -12.1417 O   0  0  0  0  0  0  0  0  0  0  0  0
  1  2  1  0
  2  3  1  0
  3  4  1  1
  5  3  1  0
  5  6  1  6
  7  8  2  0
  7  5  1  0
  9  7  1  0
 10  9  1  0
 10 11  1  6
 12 13  1  0
 12 11  1  0
 13 14  2  0
 15 23  1  0
 15 10  1  0
 16 15  2  0
 17 13  1  0
 19 18  1  0
 20 19  1  0
 20 21  1  0
 22 21  1  1
 22 24  1  0
 22 23  1  0
 24 25  1  0
 26 24  2  0
M  END
$$$$
