IEM.pdb
     RDKit          3D

 26 25  0  0  1  0  0  0  0  0999 V2000
   15.7196  -13.1516  -16.3269 C   0  0  0  0  0  0  0  0  0  0  0  0
   16.8115  -12.2903  -15.7865 C   0  0  0  0  0  0  0  0  0  0  0  0
   16.3540  -10.8513  -15.5057 C   0  0  2  0  0  0  0  0  0  0  0  0
   16.0235  -10.2976  -16.9043 C   0  0  0  0  0  0  0  0  0  0  0  0
   17.5165  -10.0658  -14.9805 C   0  0  2  0  0  0  0  0  0  0  0  0
   17.9846  -10.6778  -13.7580 N   0  0  0  0  0  0  0  0  0  0  0  0
   17.2077   -8.6313  -14.7991 C   0  0  0  0  0  0  0  0  0  0  0  0
   16.5901   -7.9663  -15.6657 O   0  0  0  0  0  0  0  0  0  0  0  0
   17.5889   -7.8868  -13.6206 N   0  0  0  0  0  0  0  0  0  0  0  0
   17.2621   -6.5215  -13.4318 C   0  0  1  0  0  0  0  0  0  0  0  0
   17.3724   -6.0627  -12.0317 C   0  0  0  0  0  0  0  0  0  0  0  0
   16.4515   -6.6890  -11.0325 C   0  0  0  0  0  0  0  0  0  0  0  0
   16.6211   -6.2312   -9.6476 C   0  0  0  0  0  0  0  0  0  0  0  0
   17.5136   -5.3812   -9.3045 O   0  0  0  0  0  0  0  0  0  0  0  0
   17.9695   -5.6011  -14.3521 C   0  0  0  0  0  0  0  0  0  0  0  0
   18.9468   -5.9428  -15.0621 O   0  0  0  0  0  0  0  0  0  0  0  0
   15.8035   -6.7132   -8.6420 O   0  0  0  0  0  0  0  0  0  0  0  0
   18.9544   -2.5357  -20.7750 C   0  0  0  0  0  0  0  0  0  0  0  0
   18.3166   -3.7132  -19.5624 S   0  0  0  0  0  0  0  0  0  0  0  0
   18.4874   -2.9995  -17.9038 C   0  0  0  0  0  0  0  0  0  0  0  0
   17.9522   -3.9516  -16.8474 C   0  0  0  0  0  0  0  0  0  0  0  0
   18.1346   -3.3848  -15.4567 C   0  0  2  0  0  0  0  0  0  0  0  0
   17.5326   -4.2586  -14.4499 N   0  0  0  0  0  0  0  0  0  0  0  0
   17.4318   -2.0876  -15.4134 C   0  0  0  0  0  0  0  0  0  0  0  0
   18.0412   -0.9703  -15.9506 O   0  0  0  0  0  0  0  0  0  0  0  0
   16.2927   -1.9542  -14.9038 O   0  0  0  0  0  0  0  0  0  0  0  0
  1  2  1  0
  2  3  1  0
  3  4  1  6
  5  3  1  0
  5  6  1  1
  7  8  2  0
  7  5  1  0
  9  7  1  0
 10  9  1  0
 10 11  1  1
 12 13  1  0
 12 11  1  0
 13 14  2  0
 15 23  1  0
 15 10  1  0
 16 15  2  0
 17 13  1  0
 19 18  1  0
 20 19  1  0
 20 21  1  0
 22 21  1  6
 22 24  1  0
 22 23  1  0
 24 25  1  0
 26 24  2  0
M  END
$$$$
