IEM.pdb
     RDKit          3D

 26 25  0  0  1  0  0  0  0  0999 V2000
   25.6889  -34.0411  -12.3381 C   0  0  0  0  0  0  0  0  0  0  0  0
   25.2330  -33.0667  -11.3043 C   0  0  0  0  0  0  0  0  0  0  0  0
   25.1309  -33.6866   -9.9028 C   0  0  2  0  0  0  0  0  0  0  0  0
   24.0749  -34.7946  -10.0735 C   0  0  0  0  0  0  0  0  0  0  0  0
   24.5595  -32.6699   -8.9625 C   0  0  2  0  0  0  0  0  0  0  0  0
   25.5253  -31.6126   -8.7686 N   0  0  0  0  0  0  0  0  0  0  0  0
   24.1154  -33.2566   -7.6801 C   0  0  0  0  0  0  0  0  0  0  0  0
   23.2600  -34.1731   -7.6256 O   0  0  0  0  0  0  0  0  0  0  0  0
   24.6256  -32.8256   -6.3985 N   0  0  0  0  0  0  0  0  0  0  0  0
   24.2464  -33.4301   -5.1748 C   0  0  1  0  0  0  0  0  0  0  0  0
   25.3542  -33.5846   -4.2095 C   0  0  0  0  0  0  0  0  0  0  0  0
   26.1787  -34.8293   -4.3086 C   0  0  0  0  0  0  0  0  0  0  0  0
   27.2986  -34.9187   -3.3630 C   0  0  0  0  0  0  0  0  0  0  0  0
   27.5517  -34.0066   -2.5023 O   0  0  0  0  0  0  0  0  0  0  0  0
   23.0653  -32.8046   -4.5357 C   0  0  0  0  0  0  0  0  0  0  0  0
   22.9332  -31.5659   -4.3802 O   0  0  0  0  0  0  0  0  0  0  0  0
   28.1386  -36.0171   -3.3688 O   0  0  0  0  0  0  0  0  0  0  0  0
   16.6099  -34.1144   -6.7898 C   0  0  0  0  0  0  0  0  0  0  0  0
   17.3845  -34.5420   -5.2147 S   0  0  0  0  0  0  0  0  0  0  0  0
   18.8254  -33.4709   -4.9583 C   0  0  0  0  0  0  0  0  0  0  0  0
   19.6031  -33.8964   -3.7242 C   0  0  0  0  0  0  0  0  0  0  0  0
   20.8151  -33.0166   -3.5106 C   0  0  2  0  0  0  0  0  0  0  0  0
   22.0178  -33.6339   -4.0693 N   0  0  0  0  0  0  0  0  0  0  0  0
   21.0085  -32.8782   -2.0539 C   0  0  0  0  0  0  0  0  0  0  0  0
   20.2498  -31.9590   -1.3556 O   0  0  0  0  0  0  0  0  0  0  0  0
   21.8415  -33.5665   -1.4155 O   0  0  0  0  0  0  0  0  0  0  0  0
  1  2  1  0
  2  3  1  0
  3  4  1  6
  5  3  1  0
  5  6  1  1
  7  8  2  0
  7  5  1  0
  9  7  1  0
 10  9  1  0
 10 11  1  1
 12 13  1  0
 12 11  1  0
 13 14  2  0
 15 23  1  0
 15 10  1  0
 16 15  2  0
 17 13  1  0
 19 18  1  0
 20 19  1  0
 20 21  1  0
 22 21  1  1
 22 24  1  0
 22 23  1  0
 24 25  1  0
 26 24  2  0
M  END
$$$$
