IEM.pdb
     RDKit          3D

 26 25  0  0  1  0  0  0  0  0999 V2000
   29.4015  -17.2866  -17.6852 C   0  0  0  0  0  0  0  0  0  0  0  0
   27.9912  -17.7733  -17.6747 C   0  0  0  0  0  0  0  0  0  0  0  0
   27.3517  -17.7219  -16.2792 C   0  0  2  0  0  0  0  0  0  0  0  0
   28.1796  -18.7334  -15.4647 C   0  0  0  0  0  0  0  0  0  0  0  0
   25.9554  -18.2579  -16.3648 C   0  0  2  0  0  0  0  0  0  0  0  0
   25.1862  -17.4270  -17.2627 N   0  0  0  0  0  0  0  0  0  0  0  0
   25.3077  -18.3922  -15.0425 C   0  0  0  0  0  0  0  0  0  0  0  0
   24.9219  -17.3964  -14.3837 O   0  0  0  0  0  0  0  0  0  0  0  0
   25.0694  -19.6688  -14.4085 N   0  0  0  0  0  0  0  0  0  0  0  0
   24.4259  -19.7982  -13.1533 C   0  0  1  0  0  0  0  0  0  0  0  0
   23.0723  -20.3858  -13.2270 C   0  0  0  0  0  0  0  0  0  0  0  0
   22.0724  -19.6923  -14.0977 C   0  0  0  0  0  0  0  0  0  0  0  0
   20.7490  -20.3252  -14.1626 C   0  0  0  0  0  0  0  0  0  0  0  0
   19.9515  -20.3650  -13.1630 O   0  0  0  0  0  0  0  0  0  0  0  0
   25.2468  -20.4770  -12.1238 C   0  0  0  0  0  0  0  0  0  0  0  0
   25.8221  -21.5776  -12.3075 O   0  0  0  0  0  0  0  0  0  0  0  0
   20.3070  -20.9139  -15.3332 O   0  0  0  0  0  0  0  0  0  0  0  0
   29.2467  -18.4230   -6.9755 C   0  0  0  0  0  0  0  0  0  0  0  0
   27.8403  -19.3294   -6.2941 S   0  0  0  0  0  0  0  0  0  0  0  0
   27.1978  -20.4565   -7.5614 C   0  0  0  0  0  0  0  0  0  0  0  0
   26.5578  -19.6813   -8.7008 C   0  0  0  0  0  0  0  0  0  0  0  0
   26.0508  -20.6125   -9.7797 C   0  0  2  0  0  0  0  0  0  0  0  0
   25.4030  -19.8651  -10.8573 N   0  0  0  0  0  0  0  0  0  0  0  0
   25.0390  -21.4926   -9.1632 C   0  0  0  0  0  0  0  0  0  0  0  0
   25.4500  -22.6233   -8.4843 O   0  0  0  0  0  0  0  0  0  0  0  0
   23.8082  -21.2560   -9.2302 O   0  0  0  0  0  0  0  0  0  0  0  0
  1  2  1  0
  2  3  1  0
  3  4  1  1
  5  3  1  0
  5  6  1  6
  7  8  2  0
  7  5  1  0
  9  7  1  0
 10  9  1  0
 10 11  1  6
 12 13  1  0
 12 11  1  0
 13 14  2  0
 15 23  1  0
 15 10  1  0
 16 15  2  0
 17 13  1  0
 19 18  1  0
 20 19  1  0
 20 21  1  0
 22 21  1  1
 22 24  1  0
 22 23  1  0
 24 25  1  0
 26 24  2  0
M  END
$$$$
