AYH.pdb
     RDKit          3D

 28 29  0  0  1  0  0  0  0  0999 V2000
   10.6567  -17.0544   17.3496 C   0  0  0  0  0  0  0  0  0  0  0  0
   10.5923  -17.7664   18.6727 C   0  0  2  0  0  0  0  0  0  0  0  0
    9.3952  -18.5271   18.8487 N   0  0  0  0  0  0  0  0  0  0  0  0
   10.8653  -16.8572   19.8202 C   0  0  0  0  0  0  0  0  0  0  0  0
   11.9872  -16.3045   19.9086 O   0  0  0  0  0  0  0  0  0  0  0  0
    6.6320  -12.5926   17.4261 O   0  0  0  0  0  0  0  0  0  0  0  0
    7.2422  -13.0714   18.5763 C   0  0  0  0  0  0  0  0  0  0  0  0
    6.7286  -14.1898   19.2056 C   0  0  0  0  0  0  0  0  0  0  0  0
    7.2890  -14.7124   20.3489 C   0  0  0  0  0  0  0  0  0  0  0  0
    8.3968  -14.1163   20.8985 C   0  0  0  0  0  0  0  0  0  0  0  0
    8.9919  -14.6692   22.1106 C   0  0  0  0  0  0  0  0  0  0  0  0
   10.0573  -15.6950   21.9193 C   0  0  2  0  0  0  0  0  0  0  0  0
    9.8971  -16.5890   20.8270 N   0  0  0  0  0  0  0  0  0  0  0  0
   10.5380  -16.3268   23.1864 C   0  0  0  0  0  0  0  0  0  0  0  0
    9.7745  -16.9573   23.9443 O   0  0  0  0  0  0  0  0  0  0  0  0
    8.9339  -13.0048   20.3014 C   0  0  0  0  0  0  0  0  0  0  0  0
    8.3554  -12.4882   19.1451 C   0  0  0  0  0  0  0  0  0  0  0  0
   11.9073  -16.1919   23.5242 N   0  0  0  0  0  0  0  0  0  0  0  0
   12.6557  -17.2548   24.2156 C   0  0  1  0  0  0  0  0  0  0  0  0
   12.5167  -18.4805   23.3821 C   0  0  0  0  0  0  0  0  0  0  0  0
   13.1818  -19.6827   23.8971 C   0  0  0  0  0  0  0  0  0  0  0  0
   13.2430  -19.9421   25.2704 C   0  0  0  0  0  0  0  0  0  0  0  0
   13.8923  -21.0841   25.4910 N   0  0  0  0  0  0  0  0  0  0  0  0
   14.2361  -21.5394   24.2746 C   0  0  0  0  0  0  0  0  0  0  0  0
   13.8109  -20.7009   23.3236 N   0  0  0  0  0  0  0  0  0  0  0  0
   14.0462  -16.8135   24.4588 C   0  0  0  0  0  0  0  0  0  0  0  0
   14.7690  -16.0410   23.5747 O   0  0  0  0  0  0  0  0  0  0  0  0
   14.6028  -17.1628   25.5331 O   0  0  0  0  0  0  0  0  0  0  0  0
  2  1  1  6
  2  3  1  0
  4  5  2  0
  4  2  1  0
  6  7  1  0
  7  8  2  0
  8  9  1  0
 10  9  2  0
 10 11  1  0
 12 11  1  1
 12 13  1  0
 13  4  1  0
 14 12  1  0
 15 14  2  0
 16 10  1  0
 17  7  1  0
 17 16  2  0
 18 14  1  0
 19 26  1  0
 19 18  1  0
 20 21  1  0
 19 20  1  6
 21 22  2  0
 21 25  1  0
 22 23  1  0
 23 24  1  0
 25 24  2  0
 26 27  1  0
 28 26  2  0
M  END
$$$$
