AYH.pdb
     RDKit          3D

 28 29  0  0  1  0  0  0  0  0999 V2000
    6.2570  -14.6640   20.0582 C   0  0  0  0  0  0  0  0  0  0  0  0
    7.1124  -13.5163   20.5194 C   0  0  2  0  0  0  0  0  0  0  0  0
    7.8745  -12.9197   19.4677 N   0  0  0  0  0  0  0  0  0  0  0  0
    7.9479  -13.8700   21.7004 C   0  0  0  0  0  0  0  0  0  0  0  0
    9.1375  -14.2244   21.5233 O   0  0  0  0  0  0  0  0  0  0  0  0
   10.4393  -15.4321   30.0939 O   0  0  0  0  0  0  0  0  0  0  0  0
    9.7666  -14.9773   28.9690 C   0  0  0  0  0  0  0  0  0  0  0  0
    8.9206  -15.8326   28.2883 C   0  0  0  0  0  0  0  0  0  0  0  0
    8.2259  -15.4408   27.1667 C   0  0  0  0  0  0  0  0  0  0  0  0
    8.3648  -14.1601   26.6920 C   0  0  0  0  0  0  0  0  0  0  0  0
    7.6290  -13.7434   25.5030 C   0  0  0  0  0  0  0  0  0  0  0  0
    8.1350  -14.2528   24.1960 C   0  0  2  0  0  0  0  0  0  0  0  0
    7.4467  -13.8216   23.0305 N   0  0  0  0  0  0  0  0  0  0  0  0
    8.5161  -15.6986   24.2049 C   0  0  0  0  0  0  0  0  0  0  0  0
    7.7304  -16.5938   23.8359 O   0  0  0  0  0  0  0  0  0  0  0  0
    9.1956  -13.2837   27.3418 C   0  0  0  0  0  0  0  0  0  0  0  0
    9.8916  -13.6953   28.4753 C   0  0  0  0  0  0  0  0  0  0  0  0
    9.8142  -16.0460   24.6539 N   0  0  0  0  0  0  0  0  0  0  0  0
   10.5635  -17.1820   24.0917 C   0  0  1  0  0  0  0  0  0  0  0  0
   10.7617  -16.8840   22.6465 C   0  0  0  0  0  0  0  0  0  0  0  0
   11.5375  -17.8734   21.8903 C   0  0  0  0  0  0  0  0  0  0  0  0
   12.0663  -19.0077   22.5154 C   0  0  0  0  0  0  0  0  0  0  0  0
   12.7263  -19.7516   21.6292 N   0  0  0  0  0  0  0  0  0  0  0  0
   12.6159  -19.0967   20.4613 C   0  0  0  0  0  0  0  0  0  0  0  0
   11.9054  -17.9749   20.6191 N   0  0  0  0  0  0  0  0  0  0  0  0
   11.8051  -17.3972   24.8658 C   0  0  0  0  0  0  0  0  0  0  0  0
   12.5307  -18.5692   24.8370 O   0  0  0  0  0  0  0  0  0  0  0  0
   12.2241  -16.4584   25.5930 O   0  0  0  0  0  0  0  0  0  0  0  0
  2  1  1  6
  2  3  1  0
  4  5  2  0
  4  2  1  0
  6  7  1  0
  7  8  2  0
  8  9  1  0
 10  9  2  0
 10 11  1  0
 12 11  1  1
 12 13  1  0
 13  4  1  0
 14 12  1  0
 15 14  2  0
 16 10  1  0
 17  7  1  0
 17 16  2  0
 18 14  1  0
 19 26  1  0
 19 18  1  0
 20 21  1  0
 19 20  1  6
 21 22  2  0
 21 25  1  0
 22 23  1  0
 23 24  1  0
 25 24  2  0
 26 27  1  0
 28 26  2  0
M  END
$$$$
