AYH.pdb
     RDKit          3D

 28 29  0  0  1  0  0  0  0  0999 V2000
    9.2302  -20.0379   19.3228 C   0  0  0  0  0  0  0  0  0  0  0  0
    9.2770  -18.5980   18.8915 C   0  0  2  0  0  0  0  0  0  0  0  0
    9.8679  -18.4116   17.6034 N   0  0  0  0  0  0  0  0  0  0  0  0
    9.8778  -17.7141   19.9287 C   0  0  0  0  0  0  0  0  0  0  0  0
   11.1029  -17.4530   19.8742 O   0  0  0  0  0  0  0  0  0  0  0  0
    7.4292  -11.8326   18.0050 O   0  0  0  0  0  0  0  0  0  0  0  0
    7.8239  -12.6212   19.0760 C   0  0  0  0  0  0  0  0  0  0  0  0
    6.9080  -13.4653   19.6752 C   0  0  0  0  0  0  0  0  0  0  0  0
    7.2386  -14.2717   20.7404 C   0  0  0  0  0  0  0  0  0  0  0  0
    8.5174  -14.2510   21.2394 C   0  0  0  0  0  0  0  0  0  0  0  0
    8.8693  -15.1053   22.3687 C   0  0  0  0  0  0  0  0  0  0  0  0
    9.6179  -16.3547   22.0487 C   0  0  2  0  0  0  0  0  0  0  0  0
    9.1117  -17.1504   20.9862 N   0  0  0  0  0  0  0  0  0  0  0  0
   10.0770  -17.1213   23.2475 C   0  0  0  0  0  0  0  0  0  0  0  0
    9.2833  -17.7434   23.9809 O   0  0  0  0  0  0  0  0  0  0  0  0
    9.4530  -13.4257   20.6701 C   0  0  0  0  0  0  0  0  0  0  0  0
    9.1028  -12.6159   19.5929 C   0  0  0  0  0  0  0  0  0  0  0  0
   11.4615  -17.1274   23.5482 N   0  0  0  0  0  0  0  0  0  0  0  0
   12.0186  -17.8939   24.6752 C   0  0  1  0  0  0  0  0  0  0  0  0
   13.2170  -18.6051   24.1515 C   0  0  0  0  0  0  0  0  0  0  0  0
   12.9483  -19.7546   23.2800 C   0  0  0  0  0  0  0  0  0  0  0  0
   11.6825  -20.3486   23.2376 C   0  0  0  0  0  0  0  0  0  0  0  0
   11.6843  -21.3667   22.3787 N   0  0  0  0  0  0  0  0  0  0  0  0
   12.9332  -21.4150   21.8857 C   0  0  0  0  0  0  0  0  0  0  0  0
   13.6870  -20.4512   22.4252 N   0  0  0  0  0  0  0  0  0  0  0  0
   12.2723  -16.9920   25.8195 C   0  0  0  0  0  0  0  0  0  0  0  0
   11.7294  -17.1761   27.0734 O   0  0  0  0  0  0  0  0  0  0  0  0
   13.0259  -15.9991   25.6399 O   0  0  0  0  0  0  0  0  0  0  0  0
  2  1  1  1
  2  3  1  0
  4  5  2  0
  4  2  1  0
  6  7  1  0
  7  8  2  0
  8  9  1  0
 10  9  2  0
 10 11  1  0
 12 11  1  1
 12 13  1  0
 13  4  1  0
 14 12  1  0
 15 14  2  0
 16 10  1  0
 17  7  1  0
 17 16  2  0
 18 14  1  0
 19 26  1  0
 19 18  1  0
 20 21  1  0
 19 20  1  6
 21 22  2  0
 21 25  1  0
 22 23  1  0
 23 24  1  0
 25 24  2  0
 26 27  1  0
 28 26  2  0
M  END
$$$$
