AYH.pdb
     RDKit          3D

 28 29  0  0  1  0  0  0  0  0999 V2000
    8.7908  -20.4530   19.2725 C   0  0  0  0  0  0  0  0  0  0  0  0
    8.3042  -19.0352   19.3927 C   0  0  2  0  0  0  0  0  0  0  0  0
    7.9976  -18.4330   18.1333 N   0  0  0  0  0  0  0  0  0  0  0  0
    9.2092  -18.1931   20.2233 C   0  0  0  0  0  0  0  0  0  0  0  0
   10.3999  -18.0366   19.8629 O   0  0  0  0  0  0  0  0  0  0  0  0
    6.4765  -12.3567   18.5242 O   0  0  0  0  0  0  0  0  0  0  0  0
    7.1072  -13.0849   19.5226 C   0  0  0  0  0  0  0  0  0  0  0  0
    6.3673  -13.9502   20.3063 C   0  0  0  0  0  0  0  0  0  0  0  0
    6.9351  -14.6994   21.3116 C   0  0  0  0  0  0  0  0  0  0  0  0
    8.2815  -14.5976   21.5598 C   0  0  0  0  0  0  0  0  0  0  0  0
    8.8847  -15.3912   22.6252 C   0  0  0  0  0  0  0  0  0  0  0  0
    9.5426  -16.6647   22.2139 C   0  0  2  0  0  0  0  0  0  0  0  0
    8.7737  -17.5549   21.4173 N   0  0  0  0  0  0  0  0  0  0  0  0
   10.3475  -17.3177   23.2916 C   0  0  0  0  0  0  0  0  0  0  0  0
    9.8167  -17.9631   24.2171 O   0  0  0  0  0  0  0  0  0  0  0  0
    9.0473  -13.7490   20.8022 C   0  0  0  0  0  0  0  0  0  0  0  0
    8.4579  -12.9978   19.7887 C   0  0  0  0  0  0  0  0  0  0  0  0
   11.7574  -17.1859   23.2472 N   0  0  0  0  0  0  0  0  0  0  0  0
   12.6342  -17.7581   24.2825 C   0  0  1  0  0  0  0  0  0  0  0  0
   14.0042  -17.7984   23.7012 C   0  0  0  0  0  0  0  0  0  0  0  0
   14.1530  -18.5800   22.4684 C   0  0  0  0  0  0  0  0  0  0  0  0
   13.4031  -19.7414   22.2546 C   0  0  0  0  0  0  0  0  0  0  0  0
   13.7108  -20.2725   21.0724 N   0  0  0  0  0  0  0  0  0  0  0  0
   14.6416  -19.4583   20.5472 C   0  0  0  0  0  0  0  0  0  0  0  0
   14.9046  -18.4478   21.3825 N   0  0  0  0  0  0  0  0  0  0  0  0
   12.5048  -16.9827   25.5352 C   0  0  0  0  0  0  0  0  0  0  0  0
   11.6742  -15.8914   25.6768 O   0  0  0  0  0  0  0  0  0  0  0  0
   13.1917  -17.3377   26.5292 O   0  0  0  0  0  0  0  0  0  0  0  0
  2  1  1  6
  2  3  1  0
  4  5  2  0
  4  2  1  0
  6  7  1  0
  7  8  2  0
  8  9  1  0
 10  9  2  0
 10 11  1  0
 12 11  1  1
 12 13  1  0
 13  4  1  0
 14 12  1  0
 15 14  2  0
 16 10  1  0
 17  7  1  0
 17 16  2  0
 18 14  1  0
 19 26  1  0
 19 18  1  0
 20 21  1  0
 19 20  1  6
 21 22  2  0
 21 25  1  0
 22 23  1  0
 23 24  1  0
 25 24  2  0
 26 27  1  0
 28 26  2  0
M  END
$$$$
