AYH.pdb
     RDKit          3D

 28 29  0  0  1  0  0  0  0  0999 V2000
   10.1009  -17.1414   18.2244 C   0  0  0  0  0  0  0  0  0  0  0  0
   10.1726  -17.9630   19.4820 C   0  0  2  0  0  0  0  0  0  0  0  0
    9.1419  -18.9489   19.5737 N   0  0  0  0  0  0  0  0  0  0  0  0
   10.2671  -17.1199   20.7060 C   0  0  0  0  0  0  0  0  0  0  0  0
   11.2286  -16.3243   20.8274 O   0  0  0  0  0  0  0  0  0  0  0  0
    6.5134  -12.3253   18.8349 O   0  0  0  0  0  0  0  0  0  0  0  0
    6.9496  -13.0790   19.9150 C   0  0  0  0  0  0  0  0  0  0  0  0
    6.3369  -14.2856   20.1962 C   0  0  0  0  0  0  0  0  0  0  0  0
    6.7241  -15.0780   21.2528 C   0  0  0  0  0  0  0  0  0  0  0  0
    7.7525  -14.6730   22.0672 C   0  0  0  0  0  0  0  0  0  0  0  0
    8.1640  -15.5120   23.1877 C   0  0  0  0  0  0  0  0  0  0  0  0
    9.3236  -16.4185   22.9483 C   0  0  2  0  0  0  0  0  0  0  0  0
    9.3034  -17.1817   21.7502 N   0  0  0  0  0  0  0  0  0  0  0  0
    9.7854  -17.1607   24.1613 C   0  0  0  0  0  0  0  0  0  0  0  0
    9.1117  -17.2025   25.2097 O   0  0  0  0  0  0  0  0  0  0  0  0
    8.3838  -13.4813   21.8185 C   0  0  0  0  0  0  0  0  0  0  0  0
    7.9804  -12.6910   20.7455 C   0  0  0  0  0  0  0  0  0  0  0  0
   11.0332  -17.8292   24.1023 N   0  0  0  0  0  0  0  0  0  0  0  0
   11.6208  -18.5032   25.2721 C   0  0  1  0  0  0  0  0  0  0  0  0
   13.0608  -18.7150   24.9588 C   0  0  0  0  0  0  0  0  0  0  0  0
   13.3439  -19.4872   23.7438 C   0  0  0  0  0  0  0  0  0  0  0  0
   12.3082  -20.0138   22.9648 C   0  0  0  0  0  0  0  0  0  0  0  0
   12.8107  -20.6706   21.9205 N   0  0  0  0  0  0  0  0  0  0  0  0
   14.1445  -20.5604   22.0383 C   0  0  0  0  0  0  0  0  0  0  0  0
   14.4613  -19.8532   23.1280 N   0  0  0  0  0  0  0  0  0  0  0  0
   11.3521  -17.7144   26.4939 C   0  0  0  0  0  0  0  0  0  0  0  0
   11.4481  -18.2256   27.7707 O   0  0  0  0  0  0  0  0  0  0  0  0
   11.0160  -16.5079   26.3622 O   0  0  0  0  0  0  0  0  0  0  0  0
  2  1  1  6
  2  3  1  0
  4  5  2  0
  4  2  1  0
  6  7  1  0
  7  8  2  0
  8  9  1  0
 10  9  2  0
 10 11  1  0
 12 11  1  1
 12 13  1  0
 13  4  1  0
 14 12  1  0
 15 14  2  0
 16 10  1  0
 17  7  1  0
 17 16  2  0
 18 14  1  0
 19 26  1  0
 19 18  1  0
 20 21  1  0
 19 20  1  6
 21 22  2  0
 21 25  1  0
 22 23  1  0
 23 24  1  0
 25 24  2  0
 26 27  1  0
 28 26  2  0
M  END
$$$$
