AYH.pdb
     RDKit          3D

 28 29  0  0  1  0  0  0  0  0999 V2000
   11.2623  -15.3697   12.5525 C   0  0  0  0  0  0  0  0  0  0  0  0
   10.8544  -16.2785   13.6791 C   0  0  2  0  0  0  0  0  0  0  0  0
    9.6537  -17.0067   13.4128 N   0  0  0  0  0  0  0  0  0  0  0  0
   10.8163  -15.5744   14.9908 C   0  0  0  0  0  0  0  0  0  0  0  0
   11.8600  -15.0300   15.4228 O   0  0  0  0  0  0  0  0  0  0  0  0
    7.8183  -12.2264   22.6710 O   0  0  0  0  0  0  0  0  0  0  0  0
    7.8951  -12.8250   21.4217 C   0  0  0  0  0  0  0  0  0  0  0  0
    8.2324  -12.0619   20.3197 C   0  0  0  0  0  0  0  0  0  0  0  0
    8.3248  -12.5974   19.0552 C   0  0  0  0  0  0  0  0  0  0  0  0
    8.0771  -13.9337   18.8614 C   0  0  0  0  0  0  0  0  0  0  0  0
    8.1746  -14.5027   17.5215 C   0  0  0  0  0  0  0  0  0  0  0  0
    9.5350  -14.9180   17.0734 C   0  0  2  0  0  0  0  0  0  0  0  0
    9.6349  -15.4941   15.7787 N   0  0  0  0  0  0  0  0  0  0  0  0
   10.3513  -15.5928   18.1288 C   0  0  0  0  0  0  0  0  0  0  0  0
   10.3588  -16.8316   18.2706 O   0  0  0  0  0  0  0  0  0  0  0  0
    7.7396  -14.7218   19.9318 C   0  0  0  0  0  0  0  0  0  0  0  0
    7.6503  -14.1651   21.2048 C   0  0  0  0  0  0  0  0  0  0  0  0
   11.1329  -14.7836   18.9901 N   0  0  0  0  0  0  0  0  0  0  0  0
   12.1274  -15.3513   19.9155 C   0  0  1  0  0  0  0  0  0  0  0  0
   13.1884  -14.3200   20.0806 C   0  0  0  0  0  0  0  0  0  0  0  0
   14.2403  -14.3155   19.0577 C   0  0  0  0  0  0  0  0  0  0  0  0
   14.3311  -15.3409   18.1104 C   0  0  0  0  0  0  0  0  0  0  0  0
   15.3593  -15.1180   17.2934 N   0  0  0  0  0  0  0  0  0  0  0  0
   15.9099  -13.9686   17.7185 C   0  0  0  0  0  0  0  0  0  0  0  0
   15.2402  -13.4905   18.7726 N   0  0  0  0  0  0  0  0  0  0  0  0
   11.4638  -15.7772   21.1667 C   0  0  0  0  0  0  0  0  0  0  0  0
   12.0795  -16.5368   22.1386 O   0  0  0  0  0  0  0  0  0  0  0  0
   10.2689  -15.4276   21.3561 O   0  0  0  0  0  0  0  0  0  0  0  0
  2  1  1  6
  2  3  1  0
  4  5  2  0
  4  2  1  0
  6  7  1  0
  7  8  2  0
  8  9  1  0
 10  9  2  0
 10 11  1  0
 12 11  1  1
 12 13  1  0
 13  4  1  0
 14 12  1  0
 15 14  2  0
 16 10  1  0
 17  7  1  0
 17 16  2  0
 18 14  1  0
 19 26  1  0
 19 18  1  0
 20 21  1  0
 19 20  1  1
 21 22  2  0
 21 25  1  0
 22 23  1  0
 23 24  1  0
 25 24  2  0
 26 27  1  0
 28 26  2  0
M  END
$$$$
