WLV.pdb
     RDKit          3D

 30 31  0  0  1  0  0  0  0  0999 V2000
   27.4576  -22.3257  -12.2777 N   0  0  0  0  0  0  0  0  0  0  0  0
   26.4624  -21.5003  -11.6710 C   0  0  1  0  0  0  0  0  0  0  0  0
   26.9417  -20.2243  -11.0760 C   0  0  0  0  0  0  0  0  0  0  0  0
   27.9248  -20.5008  -10.0108 C   0  0  0  0  0  0  0  0  0  0  0  0
   29.1230  -21.1791  -10.1461 C   0  0  0  0  0  0  0  0  0  0  0  0
   29.7308  -21.1874   -8.9542 N   0  0  0  0  0  0  0  0  0  0  0  0
   28.9789  -20.5419   -8.0414 C   0  0  0  0  0  0  0  0  0  0  0  0
   29.1789  -20.2934   -6.6769 C   0  0  0  0  0  0  0  0  0  0  0  0
   28.2121  -19.6040   -5.9983 C   0  0  0  0  0  0  0  0  0  0  0  0
   27.0883  -19.1799   -6.6604 C   0  0  0  0  0  0  0  0  0  0  0  0
   26.8699  -19.4106   -7.9950 C   0  0  0  0  0  0  0  0  0  0  0  0
   27.8468  -20.1099   -8.6952 C   0  0  0  0  0  0  0  0  0  0  0  0
   25.3960  -21.2653  -12.7080 C   0  0  0  0  0  0  0  0  0  0  0  0
   25.6719  -20.8097  -13.8567 O   0  0  0  0  0  0  0  0  0  0  0  0
   25.2914  -22.8255  -14.6050 C   0  0  0  0  0  0  0  0  0  0  0  0
   23.9690  -23.4651  -14.1155 C   0  0  2  0  0  0  0  0  0  0  0  0
   23.6761  -24.6520  -15.0055 C   0  0  0  0  0  0  0  0  0  0  0  0
   22.9313  -22.4323  -14.3065 C   0  0  0  0  0  0  0  0  0  0  0  0
   23.0111  -21.1959  -13.4622 C   0  0  2  0  0  0  0  0  0  0  0  0
   24.0362  -21.5415  -12.4489 N   0  0  0  0  0  0  0  0  0  0  0  0
   21.7039  -21.0129  -12.7695 C   0  0  0  0  0  0  0  0  0  0  0  0
   21.5150  -21.5520  -11.6210 O   0  0  0  0  0  0  0  0  0  0  0  0
   20.3552  -17.7445  -12.0731 C   0  0  0  0  0  0  0  0  0  0  0  0
   19.1452  -18.5255  -12.4714 C   0  0  1  0  0  0  0  0  0  0  0  0
   18.8177  -18.1736  -13.9223 C   0  0  0  0  0  0  0  0  0  0  0  0
   19.4303  -20.0194  -12.4684 C   0  0  2  0  0  0  0  0  0  0  0  0
   20.6146  -20.2752  -13.2678 N   0  0  0  0  0  0  0  0  0  0  0  0
   18.2624  -20.7870  -12.9455 C   0  0  0  0  0  0  0  0  0  0  0  0
   17.1283  -20.8761  -12.1516 O   0  0  0  0  0  0  0  0  0  0  0  0
   18.2150  -21.3861  -14.0518 O   0  0  0  0  0  0  0  0  0  0  0  0
  2  1  1  6
  2 13  1  0
  2  3  1  0
  4  3  1  0
  4  5  2  0
  6  5  1  0
  7  6  1  0
  8  7  2  0
  9  8  1  0
 10  9  2  0
 10 11  1  0
 11 12  2  0
 12  7  1  0
 12  4  1  0
 13 14  2  0
 16 15  1  6
 17 16  1  0
 18 16  1  0
 19 18  1  6
 20 19  1  0
 20 13  1  0
 21 22  2  0
 21 19  1  0
 24 23  1  6
 24 26  1  0
 25 24  1  0
 26 28  1  0
 26 27  1  6
 27 21  1  0
 28 29  1  0
 30 28  2  0
M  END
$$$$
