WLV.pdb
     RDKit          3D

 30 31  0  0  1  0  0  0  0  0999 V2000
   27.7370  -21.5298   -9.3765 N   0  0  0  0  0  0  0  0  0  0  0  0
   26.4067  -21.0538   -9.1674 C   0  0  1  0  0  0  0  0  0  0  0  0
   26.2605  -19.9007   -8.2398 C   0  0  0  0  0  0  0  0  0  0  0  0
   26.7629  -20.2624   -6.9002 C   0  0  0  0  0  0  0  0  0  0  0  0
   26.2800  -21.2647   -6.0779 C   0  0  0  0  0  0  0  0  0  0  0  0
   27.0270  -21.2857   -4.9682 N   0  0  0  0  0  0  0  0  0  0  0  0
   27.9811  -20.3362   -5.0289 C   0  0  0  0  0  0  0  0  0  0  0  0
   28.9858  -19.9657   -4.1250 C   0  0  0  0  0  0  0  0  0  0  0  0
   29.8158  -18.9350   -4.4703 C   0  0  0  0  0  0  0  0  0  0  0  0
   29.6463  -18.2997   -5.6739 C   0  0  0  0  0  0  0  0  0  0  0  0
   28.6708  -18.6441   -6.5751 C   0  0  0  0  0  0  0  0  0  0  0  0
   27.8217  -19.6914   -6.2349 C   0  0  0  0  0  0  0  0  0  0  0  0
   25.8305  -20.7524  -10.5258 C   0  0  0  0  0  0  0  0  0  0  0  0
   26.0157  -19.6373  -11.0960 O   0  0  0  0  0  0  0  0  0  0  0  0
   25.4403  -23.7430  -15.4021 C   0  0  0  0  0  0  0  0  0  0  0  0
   24.9751  -22.3734  -14.8492 C   0  0  2  0  0  0  0  0  0  0  0  0
   26.0703  -21.3692  -15.1297 C   0  0  0  0  0  0  0  0  0  0  0  0
   24.8321  -22.5590  -13.3915 C   0  0  0  0  0  0  0  0  0  0  0  0
   24.5056  -21.3539  -12.5616 C   0  0  2  0  0  0  0  0  0  0  0  0
   25.0552  -21.6995  -11.2290 N   0  0  0  0  0  0  0  0  0  0  0  0
   23.0231  -21.2467  -12.4486 C   0  0  0  0  0  0  0  0  0  0  0  0
   22.3868  -22.0520  -11.6792 O   0  0  0  0  0  0  0  0  0  0  0  0
   20.8019  -18.1094  -11.8343 C   0  0  0  0  0  0  0  0  0  0  0  0
   20.2818  -18.8672  -13.0124 C   0  0  1  0  0  0  0  0  0  0  0  0
   20.8776  -18.2401  -14.2725 C   0  0  0  0  0  0  0  0  0  0  0  0
   20.7743  -20.3061  -13.0008 C   0  0  2  0  0  0  0  0  0  0  0  0
   22.2204  -20.3107  -13.1258 N   0  0  0  0  0  0  0  0  0  0  0  0
   20.1232  -21.1020  -14.0608 C   0  0  0  0  0  0  0  0  0  0  0  0
   18.7865  -21.4509  -13.9344 O   0  0  0  0  0  0  0  0  0  0  0  0
   20.7058  -21.5013  -15.1029 O   0  0  0  0  0  0  0  0  0  0  0  0
  2  1  1  6
  2 13  1  0
  2  3  1  0
  4  3  1  0
  4  5  2  0
  6  5  1  0
  7  6  1  0
  8  7  2  0
  9  8  1  0
 10  9  2  0
 10 11  1  0
 11 12  2  0
 12  7  1  0
 12  4  1  0
 13 14  2  0
 16 15  1  6
 17 16  1  0
 18 16  1  0
 19 18  1  6
 20 19  1  0
 20 13  1  0
 21 22  2  0
 21 19  1  0
 24 23  1  1
 24 26  1  0
 25 24  1  0
 26 28  1  0
 26 27  1  6
 27 21  1  0
 28 29  1  0
 30 28  2  0
M  END
$$$$
