WLV.pdb
     RDKit          3D

 30 31  0  0  1  0  0  0  0  0999 V2000
   28.3196  -20.9821  -15.4804 N   0  0  0  0  0  0  0  0  0  0  0  0
   27.4080  -20.1842  -14.7240 C   0  0  1  0  0  0  0  0  0  0  0  0
   26.2486  -19.6268  -15.4701 C   0  0  0  0  0  0  0  0  0  0  0  0
   26.7103  -18.6139  -16.4390 C   0  0  0  0  0  0  0  0  0  0  0  0
   26.7950  -18.7600  -17.8121 C   0  0  0  0  0  0  0  0  0  0  0  0
   27.2301  -17.6036  -18.3254 N   0  0  0  0  0  0  0  0  0  0  0  0
   27.4352  -16.7040  -17.3435 C   0  0  0  0  0  0  0  0  0  0  0  0
   27.8871  -15.3779  -17.3742 C   0  0  0  0  0  0  0  0  0  0  0  0
   28.0036  -14.7087  -16.1872 C   0  0  0  0  0  0  0  0  0  0  0  0
   27.6804  -15.3427  -15.0148 C   0  0  0  0  0  0  0  0  0  0  0  0
   27.2358  -16.6394  -14.9591 C   0  0  0  0  0  0  0  0  0  0  0  0
   27.1126  -17.3293  -16.1601 C   0  0  0  0  0  0  0  0  0  0  0  0
   26.9661  -21.0175  -13.5499 C   0  0  0  0  0  0  0  0  0  0  0  0
   26.6336  -22.2320  -13.6819 O   0  0  0  0  0  0  0  0  0  0  0  0
   26.0644  -19.7452   -7.6661 C   0  0  0  0  0  0  0  0  0  0  0  0
   25.4947  -20.6459   -8.7894 C   0  0  2  0  0  0  0  0  0  0  0  0
   25.7189  -22.0848   -8.3821 C   0  0  0  0  0  0  0  0  0  0  0  0
   26.2949  -20.3390   -9.9916 C   0  0  0  0  0  0  0  0  0  0  0  0
   25.9657  -21.0727  -11.2570 C   0  0  2  0  0  0  0  0  0  0  0  0
   26.9010  -20.4838  -12.2447 N   0  0  0  0  0  0  0  0  0  0  0  0
   24.5731  -20.7220  -11.6567 C   0  0  0  0  0  0  0  0  0  0  0  0
   24.1668  -19.5109  -11.5402 O   0  0  0  0  0  0  0  0  0  0  0  0
   23.0812  -21.3581  -14.9750 C   0  0  0  0  0  0  0  0  0  0  0  0
   22.0340  -21.7697  -13.9918 C   0  0  1  0  0  0  0  0  0  0  0  0
   22.1249  -23.2855  -13.8183 C   0  0  0  0  0  0  0  0  0  0  0  0
   22.3119  -21.1842  -12.6160 C   0  0  2  0  0  0  0  0  0  0  0  0
   23.6231  -21.6219  -12.1732 N   0  0  0  0  0  0  0  0  0  0  0  0
   21.2513  -21.5500  -11.6557 C   0  0  0  0  0  0  0  0  0  0  0  0
   19.9830  -21.0052  -11.7930 O   0  0  0  0  0  0  0  0  0  0  0  0
   21.4143  -22.3428  -10.6913 O   0  0  0  0  0  0  0  0  0  0  0  0
  2  1  1  6
  2 13  1  0
  2  3  1  0
  4  3  1  0
  4  5  2  0
  6  5  1  0
  7  6  1  0
  8  7  2  0
  9  8  1  0
 10  9  2  0
 10 11  1  0
 11 12  2  0
 12  7  1  0
 12  4  1  0
 13 14  2  0
 16 15  1  1
 17 16  1  0
 18 16  1  0
 19 18  1  1
 20 19  1  0
 20 13  1  0
 21 22  2  0
 21 19  1  0
 24 23  1  6
 24 26  1  0
 25 24  1  0
 26 28  1  0
 26 27  1  1
 27 21  1  0
 28 29  1  0
 30 28  2  0
M  END
$$$$
