WLV.pdb
     RDKit          3D

 30 31  0  0  1  0  0  0  0  0999 V2000
   27.5239  -18.9199   -9.6052 N   0  0  0  0  0  0  0  0  0  0  0  0
   26.9943  -20.2462   -9.6249 C   0  0  1  0  0  0  0  0  0  0  0  0
   26.3572  -20.7172   -8.3663 C   0  0  0  0  0  0  0  0  0  0  0  0
   27.0781  -20.1718   -7.1998 C   0  0  0  0  0  0  0  0  0  0  0  0
   26.6757  -19.1205   -6.3956 C   0  0  0  0  0  0  0  0  0  0  0  0
   27.5920  -18.9607   -5.4339 N   0  0  0  0  0  0  0  0  0  0  0  0
   28.5807  -19.8652   -5.5751 C   0  0  0  0  0  0  0  0  0  0  0  0
   29.7477  -20.0934   -4.8338 C   0  0  0  0  0  0  0  0  0  0  0  0
   30.5801  -21.1015   -5.2355 C   0  0  0  0  0  0  0  0  0  0  0  0
   30.2565  -21.8520   -6.3370 C   0  0  0  0  0  0  0  0  0  0  0  0
   29.1203  -21.6481   -7.0783 C   0  0  0  0  0  0  0  0  0  0  0  0
   28.2661  -20.6263   -6.6785 C   0  0  0  0  0  0  0  0  0  0  0  0
   26.0452  -20.3219  -10.7917 C   0  0  0  0  0  0  0  0  0  0  0  0
   25.3442  -19.3291  -11.1464 O   0  0  0  0  0  0  0  0  0  0  0  0
   25.9039  -24.2213  -15.3982 C   0  0  0  0  0  0  0  0  0  0  0  0
   25.1194  -22.9898  -14.8829 C   0  0  2  0  0  0  0  0  0  0  0  0
   25.3645  -21.8524  -15.8487 C   0  0  0  0  0  0  0  0  0  0  0  0
   25.7083  -22.6623  -13.5692 C   0  0  0  0  0  0  0  0  0  0  0  0
   25.1823  -21.4581  -12.8474 C   0  0  2  0  0  0  0  0  0  0  0  0
   25.8910  -21.5048  -11.5464 N   0  0  0  0  0  0  0  0  0  0  0  0
   23.7257  -21.6556  -12.6000 C   0  0  0  0  0  0  0  0  0  0  0  0
   23.3362  -22.6172  -11.8457 O   0  0  0  0  0  0  0  0  0  0  0  0
   19.1503  -19.9499  -12.3065 C   0  0  0  0  0  0  0  0  0  0  0  0
   20.5998  -19.7610  -12.6167 C   0  0  1  0  0  0  0  0  0  0  0  0
   21.2614  -19.1267  -11.3936 C   0  0  0  0  0  0  0  0  0  0  0  0
   21.2985  -21.0978  -12.8112 C   0  0  2  0  0  0  0  0  0  0  0  0
   22.6944  -20.8584  -13.1293 N   0  0  0  0  0  0  0  0  0  0  0  0
   20.6244  -21.9072  -13.8463 C   0  0  0  0  0  0  0  0  0  0  0  0
   19.6642  -22.8365  -13.4739 O   0  0  0  0  0  0  0  0  0  0  0  0
   20.8615  -21.8163  -15.0794 O   0  0  0  0  0  0  0  0  0  0  0  0
  2  1  1  1
  2 13  1  0
  2  3  1  0
  4  3  1  0
  4  5  2  0
  6  5  1  0
  7  6  1  0
  8  7  2  0
  9  8  1  0
 10  9  2  0
 10 11  1  0
 11 12  2  0
 12  7  1  0
 12  4  1  0
 13 14  2  0
 16 15  1  6
 17 16  1  0
 18 16  1  0
 19 18  1  6
 20 19  1  0
 20 13  1  0
 21 22  2  0
 21 19  1  0
 24 23  1  1
 24 26  1  0
 25 24  1  0
 26 28  1  0
 26 27  1  6
 27 21  1  0
 28 29  1  0
 30 28  2  0
M  END
$$$$
