WLV.pdb
     RDKit          3D

 30 31  0  0  1  0  0  0  0  0999 V2000
   24.8186  -18.9950   -9.7042 N   0  0  0  0  0  0  0  0  0  0  0  0
   25.8692  -19.8505  -10.1561 C   0  0  1  0  0  0  0  0  0  0  0  0
   26.0483  -21.1224   -9.4064 C   0  0  0  0  0  0  0  0  0  0  0  0
   26.2810  -20.8384   -7.9770 C   0  0  0  0  0  0  0  0  0  0  0  0
   25.3349  -20.8419   -6.9677 C   0  0  0  0  0  0  0  0  0  0  0  0
   25.9571  -20.5649   -5.8161 N   0  0  0  0  0  0  0  0  0  0  0  0
   27.2744  -20.3789   -6.0294 C   0  0  0  0  0  0  0  0  0  0  0  0
   28.3247  -20.0663   -5.1560 C   0  0  0  0  0  0  0  0  0  0  0  0
   29.5805  -19.9298   -5.6804 C   0  0  0  0  0  0  0  0  0  0  0  0
   29.7770  -20.0993   -7.0271 C   0  0  0  0  0  0  0  0  0  0  0  0
   28.7653  -20.4057   -7.9018 C   0  0  0  0  0  0  0  0  0  0  0  0
   27.4845  -20.5479   -7.3795 C   0  0  0  0  0  0  0  0  0  0  0  0
   25.6332  -20.0972  -11.6229 C   0  0  0  0  0  0  0  0  0  0  0  0
   24.4669  -20.1275  -12.1146 O   0  0  0  0  0  0  0  0  0  0  0  0
   29.5459  -19.0194  -15.9111 C   0  0  0  0  0  0  0  0  0  0  0  0
   28.0468  -18.9565  -15.5286 C   0  0  2  0  0  0  0  0  0  0  0  0
   27.7961  -17.6171  -14.8732 C   0  0  0  0  0  0  0  0  0  0  0  0
   27.8400  -20.0379  -14.5449 C   0  0  0  0  0  0  0  0  0  0  0  0
   26.4625  -20.2164  -13.9807 C   0  0  2  0  0  0  0  0  0  0  0  0
   26.7020  -20.3072  -12.5207 N   0  0  0  0  0  0  0  0  0  0  0  0
   25.9248  -21.5236  -14.4541 C   0  0  0  0  0  0  0  0  0  0  0  0
   26.5759  -22.6016  -14.2108 O   0  0  0  0  0  0  0  0  0  0  0  0
   22.8199  -23.1845  -13.6476 C   0  0  0  0  0  0  0  0  0  0  0  0
   22.8884  -23.2761  -15.1374 C   0  0  1  0  0  0  0  0  0  0  0  0
   22.0240  -22.1558  -15.7154 C   0  0  0  0  0  0  0  0  0  0  0  0
   24.2978  -23.0045  -15.6402 C   0  0  2  0  0  0  0  0  0  0  0  0
   24.7246  -21.7006  -15.1663 N   0  0  0  0  0  0  0  0  0  0  0  0
   24.3699  -23.1112  -17.1114 C   0  0  0  0  0  0  0  0  0  0  0  0
   24.5924  -21.9729  -17.8723 O   0  0  0  0  0  0  0  0  0  0  0  0
   24.2405  -24.1893  -17.7486 O   0  0  0  0  0  0  0  0  0  0  0  0
  2  1  1  1
  2 13  1  0
  2  3  1  0
  4  3  1  0
  4  5  2  0
  6  5  1  0
  7  6  1  0
  8  7  2  0
  9  8  1  0
 10  9  2  0
 10 11  1  0
 11 12  2  0
 12  7  1  0
 12  4  1  0
 13 14  2  0
 16 15  1  1
 17 16  1  0
 18 16  1  0
 19 18  1  6
 20 19  1  0
 20 13  1  0
 21 22  2  0
 21 19  1  0
 24 23  1  1
 24 26  1  0
 25 24  1  0
 26 28  1  0
 26 27  1  6
 27 21  1  0
 28 29  1  0
 30 28  2  0
M  END
$$$$
