WLV.pdb
     RDKit          3D

 30 31  0  0  1  0  0  0  0  0999 V2000
   26.2768  -21.3980  -14.9002 N   0  0  0  0  0  0  0  0  0  0  0  0
   25.3379  -20.3353  -14.7300 C   0  0  1  0  0  0  0  0  0  0  0  0
   25.0377  -19.5247  -15.9402 C   0  0  0  0  0  0  0  0  0  0  0  0
   26.2055  -18.6956  -16.2960 C   0  0  0  0  0  0  0  0  0  0  0  0
   27.2165  -19.0260  -17.1806 C   0  0  0  0  0  0  0  0  0  0  0  0
   28.0651  -17.9936  -17.2438 N   0  0  0  0  0  0  0  0  0  0  0  0
   27.6517  -16.9984  -16.4350 C   0  0  0  0  0  0  0  0  0  0  0  0
   28.1958  -15.7376  -16.1560 C   0  0  0  0  0  0  0  0  0  0  0  0
   27.5388  -14.9344  -15.2650 C   0  0  0  0  0  0  0  0  0  0  0  0
   26.3819  -15.3768  -14.6760 C   0  0  0  0  0  0  0  0  0  0  0  0
   25.8297  -16.6061  -14.9330 C   0  0  0  0  0  0  0  0  0  0  0  0
   26.4888  -17.4307  -15.8381 C   0  0  0  0  0  0  0  0  0  0  0  0
   24.0910  -20.9421  -14.1427 C   0  0  0  0  0  0  0  0  0  0  0  0
   23.8182  -22.1707  -14.2814 O   0  0  0  0  0  0  0  0  0  0  0  0
   22.2620  -22.0605  -10.1205 C   0  0  0  0  0  0  0  0  0  0  0  0
   22.6673  -20.5822  -10.3391 C   0  0  2  0  0  0  0  0  0  0  0  0
   22.2947  -19.8147   -9.0906 C   0  0  0  0  0  0  0  0  0  0  0  0
   21.8524  -20.1087  -11.4755 C   0  0  0  0  0  0  0  0  0  0  0  0
   21.9927  -20.8268  -12.7842 C   0  0  2  0  0  0  0  0  0  0  0  0
   23.1652  -20.1693  -13.4089 N   0  0  0  0  0  0  0  0  0  0  0  0
   20.7890  -20.5348  -13.6136 C   0  0  0  0  0  0  0  0  0  0  0  0
   20.4741  -19.3173  -13.8661 O   0  0  0  0  0  0  0  0  0  0  0  0
   20.1488  -21.9005  -17.0039 C   0  0  0  0  0  0  0  0  0  0  0  0
   18.8518  -22.0266  -16.2729 C   0  0  1  0  0  0  0  0  0  0  0  0
   18.7486  -23.4576  -15.7461 C   0  0  0  0  0  0  0  0  0  0  0  0
   18.8269  -21.1355  -15.0406 C   0  0  2  0  0  0  0  0  0  0  0  0
   19.9317  -21.5001  -14.1726 N   0  0  0  0  0  0  0  0  0  0  0  0
   17.5256  -21.2189  -14.3474 C   0  0  0  0  0  0  0  0  0  0  0  0
   16.4004  -20.6531  -14.9287 O   0  0  0  0  0  0  0  0  0  0  0  0
   17.3531  -21.7813  -13.2342 O   0  0  0  0  0  0  0  0  0  0  0  0
  2  1  1  6
  2 13  1  0
  2  3  1  0
  4  3  1  0
  4  5  2  0
  6  5  1  0
  7  6  1  0
  8  7  2  0
  9  8  1  0
 10  9  2  0
 10 11  1  0
 11 12  2  0
 12  7  1  0
 12  4  1  0
 13 14  2  0
 16 15  1  1
 17 16  1  0
 18 16  1  0
 19 18  1  1
 20 19  1  0
 20 13  1  0
 21 22  2  0
 21 19  1  0
 24 23  1  1
 24 26  1  0
 25 24  1  0
 26 28  1  0
 26 27  1  1
 27 21  1  0
 28 29  1  0
 30 28  2  0
M  END
$$$$
