WLV.pdb
     RDKit          3D

 30 31  0  0  1  0  0  0  0  0999 V2000
   25.6919  -20.6916  -13.5495 N   0  0  0  0  0  0  0  0  0  0  0  0
   24.9337  -19.8503  -12.6793 C   0  0  1  0  0  0  0  0  0  0  0  0
   23.6223  -19.3799  -13.1995 C   0  0  0  0  0  0  0  0  0  0  0  0
   23.8155  -18.6351  -14.4588 C   0  0  0  0  0  0  0  0  0  0  0  0
   24.6086  -17.5171  -14.6458 C   0  0  0  0  0  0  0  0  0  0  0  0
   24.5332  -17.1670  -15.9349 N   0  0  0  0  0  0  0  0  0  0  0  0
   23.7215  -18.0106  -16.6018 C   0  0  0  0  0  0  0  0  0  0  0  0
   23.3255  -18.0558  -17.9452 C   0  0  0  0  0  0  0  0  0  0  0  0
   22.4663  -19.0475  -18.3313 C   0  0  0  0  0  0  0  0  0  0  0  0
   22.0208  -19.9584  -17.4079 C   0  0  0  0  0  0  0  0  0  0  0  0
   22.3941  -19.9351  -16.0880 C   0  0  0  0  0  0  0  0  0  0  0  0
   23.2682  -18.9317  -15.6844 C   0  0  0  0  0  0  0  0  0  0  0  0
   24.7829  -20.5901  -11.3762 C   0  0  0  0  0  0  0  0  0  0  0  0
   24.4214  -21.8028  -11.3360 O   0  0  0  0  0  0  0  0  0  0  0  0
   27.7481  -21.3356   -8.1270 C   0  0  0  0  0  0  0  0  0  0  0  0
   27.1922  -19.8935   -8.2214 C   0  0  2  0  0  0  0  0  0  0  0  0
   27.8826  -19.0651   -7.1614 C   0  0  0  0  0  0  0  0  0  0  0  0
   25.7528  -19.9993   -7.9105 C   0  0  0  0  0  0  0  0  0  0  0  0
   24.8802  -20.7382   -8.8802 C   0  0  2  0  0  0  0  0  0  0  0  0
   25.0372  -19.9662  -10.1358 N   0  0  0  0  0  0  0  0  0  0  0  0
   23.4653  -20.6201   -8.4260 C   0  0  0  0  0  0  0  0  0  0  0  0
   22.8774  -19.4811   -8.4754 O   0  0  0  0  0  0  0  0  0  0  0  0
   20.4851  -21.9874   -9.7085 C   0  0  0  0  0  0  0  0  0  0  0  0
   20.3599  -22.2931   -8.2513 C   0  0  1  0  0  0  0  0  0  0  0  0
   20.7832  -23.7465   -8.0399 C   0  0  0  0  0  0  0  0  0  0  0  0
   21.3329  -21.4613   -7.4300 C   0  0  2  0  0  0  0  0  0  0  0  0
   22.6777  -21.6760   -7.9324 N   0  0  0  0  0  0  0  0  0  0  0  0
   21.2213  -21.7748   -5.9912 C   0  0  0  0  0  0  0  0  0  0  0  0
   20.0605  -21.4486   -5.3054 O   0  0  0  0  0  0  0  0  0  0  0  0
   22.1271  -22.3325   -5.3176 O   0  0  0  0  0  0  0  0  0  0  0  0
  2  1  1  6
  2 13  1  0
  2  3  1  0
  4  3  1  0
  4  5  2  0
  6  5  1  0
  7  6  1  0
  8  7  2  0
  9  8  1  0
 10  9  2  0
 10 11  1  0
 11 12  2  0
 12  7  1  0
 12  4  1  0
 13 14  2  0
 16 15  1  1
 17 16  1  0
 18 16  1  0
 19 18  1  1
 20 19  1  0
 20 13  1  0
 21 22  2  0
 21 19  1  0
 24 23  1  6
 24 26  1  0
 25 24  1  0
 26 28  1  0
 26 27  1  6
 27 21  1  0
 28 29  1  0
 30 28  2  0
M  END
$$$$
