RYH.pdb
     RDKit          3D

 34 35  0  0  1  0  0  0  0  0999 V2000
    8.5611  -14.9813   14.6082 N   0  0  0  0  0  0  0  0  0  0  0  0
    8.2231  -14.2108   15.7542 C   0  0  0  0  0  0  0  0  0  0  0  0
    8.2492  -12.9135   15.7042 N   0  0  0  0  0  0  0  0  0  0  0  0
    7.8617  -14.8810   16.9430 N   0  0  0  0  0  0  0  0  0  0  0  0
    8.0547  -16.3461   16.9897 C   0  0  0  0  0  0  0  0  0  0  0  0
    7.6095  -16.7773   18.3407 C   0  0  0  0  0  0  0  0  0  0  0  0
    8.3081  -16.0990   19.4519 C   0  0  0  0  0  0  0  0  0  0  0  0
    9.0368  -16.9593   20.4406 C   0  0  2  0  0  0  0  0  0  0  0  0
    8.1674  -17.7253   21.2737 N   0  0  0  0  0  0  0  0  0  0  0  0
    9.8968  -16.0321   21.2567 C   0  0  0  0  0  0  0  0  0  0  0  0
   10.4439  -15.0846   20.6536 O   0  0  0  0  0  0  0  0  0  0  0  0
    8.0186  -12.3021   16.5100 O   0  0  0  0  0  0  0  0  0  0  0  0
    5.5138  -11.6591   27.0202 C   0  0  0  0  0  0  0  0  0  0  0  0
    6.1265  -12.5544   26.1496 C   0  0  0  0  0  0  0  0  0  0  0  0
    6.1239  -13.9166   26.4182 C   0  0  0  0  0  0  0  0  0  0  0  0
    6.7292  -14.8264   25.5631 C   0  0  0  0  0  0  0  0  0  0  0  0
    7.3454  -14.3676   24.4237 C   0  0  0  0  0  0  0  0  0  0  0  0
    7.9842  -15.3094   23.5110 C   0  0  2  0  0  0  0  0  0  0  0  0
    9.4972  -15.3115   23.6331 N   0  0  0  0  0  0  0  0  0  0  0  0
   10.1036  -16.1893   22.6519 C   0  0  0  0  0  0  0  0  0  0  0  0
    9.9182  -15.7269   24.9820 O   0  0  0  0  0  0  0  0  0  0  0  0
    9.5358  -15.1438   26.0257 C   0  0  0  0  0  0  0  0  0  0  0  0
    7.3441  -13.0186   24.1645 C   0  0  0  0  0  0  0  0  0  0  0  0
    6.7461  -12.0978   25.0051 N   0  0  0  0  0  0  0  0  0  0  0  0
   10.7909  -16.8280   25.1440 C   0  0  2  0  0  0  0  0  0  0  0  0
   10.8397  -17.5466   26.4193 C   0  0  0  0  0  0  0  0  0  0  0  0
    9.8083  -17.0475   27.3657 C   0  0  0  0  0  0  0  0  0  0  0  0
   10.3240  -15.8967   28.1333 C   0  0  0  0  0  0  0  0  0  0  0  0
   11.5591  -15.2620   27.9362 N   0  0  0  0  0  0  0  0  0  0  0  0
   11.7135  -14.2497   28.8045 C   0  0  0  0  0  0  0  0  0  0  0  0
   10.6006  -14.2300   29.5480 N   0  0  0  0  0  0  0  0  0  0  0  0
    9.7698  -15.2053   29.1559 C   0  0  0  0  0  0  0  0  0  0  0  0
   10.6419  -18.9873   26.1586 O   0  0  0  0  0  0  0  0  0  0  0  0
   10.3773  -19.3824   24.9880 O   0  0  0  0  0  0  0  0  0  0  0  0
  2  4  1  0
  2  1  1  0
  3  2  2  0
  5  4  1  0
  6  5  1  0
  7  8  1  0
  7  6  1  0
  8  9  1  1
 10  8  1  0
 10 19  1  0
 11 10  2  0
 12 13  1  0
 13 14  2  0
 14 15  1  0
 16 15  2  0
 16 17  1  0
 18 17  1  6
 18 19  1  0
 20 18  1  0
 21 20  2  0
 22 16  1  0
 23 13  1  0
 23 22  2  0
 24 20  1  0
 25 26  1  6
 25 24  1  0
 26 27  1  0
 27 28  2  0
 29 28  1  0
 30 29  1  0
 31 30  2  0
 31 27  1  0
 32 25  1  0
 33 32  2  0
 34 32  1  0
M  END
$$$$
