RYH.pdb
     RDKit          3D

 34 35  0  0  1  0  0  0  0  0999 V2000
    9.0707  -13.8575   14.9086 N   0  0  0  0  0  0  0  0  0  0  0  0
    7.9661  -13.7500   15.7971 C   0  0  0  0  0  0  0  0  0  0  0  0
    7.2710  -12.6545   15.8510 N   0  0  0  0  0  0  0  0  0  0  0  0
    7.6419  -14.8525   16.6172 N   0  0  0  0  0  0  0  0  0  0  0  0
    8.4851  -15.0924   17.8077 C   0  0  0  0  0  0  0  0  0  0  0  0
    7.8678  -14.3137   18.9132 C   0  0  0  0  0  0  0  0  0  0  0  0
    8.6066  -14.3887   20.1905 C   0  0  0  0  0  0  0  0  0  0  0  0
    8.7216  -15.7320   20.8470 C   0  0  2  0  0  0  0  0  0  0  0  0
    7.4727  -16.4115   20.9691 N   0  0  0  0  0  0  0  0  0  0  0  0
    9.3463  -15.4929   22.1953 C   0  0  0  0  0  0  0  0  0  0  0  0
   10.3348  -14.7300   22.2376 O   0  0  0  0  0  0  0  0  0  0  0  0
    6.4748  -12.5098   16.5003 O   0  0  0  0  0  0  0  0  0  0  0  0
    5.7803  -10.7861   25.6871 C   0  0  0  0  0  0  0  0  0  0  0  0
    6.4383  -12.0115   25.7069 C   0  0  0  0  0  0  0  0  0  0  0  0
    7.7169  -12.1194   26.2372 C   0  0  0  0  0  0  0  0  0  0  0  0
    8.3908  -13.3320   26.2666 C   0  0  0  0  0  0  0  0  0  0  0  0
    7.7775  -14.4520   25.7588 C   0  0  0  0  0  0  0  0  0  0  0  0
    8.4690  -15.7362   25.7840 C   0  0  2  0  0  0  0  0  0  0  0  0
    9.4991  -15.8707   24.6773 N   0  0  0  0  0  0  0  0  0  0  0  0
    8.8655  -16.0862   23.3915 C   0  0  0  0  0  0  0  0  0  0  0  0
   10.4289  -16.9793   24.9522 O   0  0  0  0  0  0  0  0  0  0  0  0
   10.2878  -18.1257   24.4606 C   0  0  0  0  0  0  0  0  0  0  0  0
    6.5124  -14.3377   25.2357 C   0  0  0  0  0  0  0  0  0  0  0  0
    5.8261  -13.1378   25.1981 N   0  0  0  0  0  0  0  0  0  0  0  0
   11.5405  -16.7772   25.8028 C   0  0  2  0  0  0  0  0  0  0  0  0
   11.8884  -17.7820   26.8101 C   0  0  0  0  0  0  0  0  0  0  0  0
   10.8394  -17.8896   27.8573 C   0  0  0  0  0  0  0  0  0  0  0  0
   10.7557  -16.6382   28.6362 C   0  0  0  0  0  0  0  0  0  0  0  0
   11.5181  -15.4810   28.4202 N   0  0  0  0  0  0  0  0  0  0  0  0
   11.1899  -14.5272   29.3063 C   0  0  0  0  0  0  0  0  0  0  0  0
   10.2344  -15.0570   30.0798 N   0  0  0  0  0  0  0  0  0  0  0  0
    9.9705  -16.3109   29.6884 C   0  0  0  0  0  0  0  0  0  0  0  0
   12.0747  -19.0833   26.1358 O   0  0  0  0  0  0  0  0  0  0  0  0
   11.8507  -19.1853   24.8965 O   0  0  0  0  0  0  0  0  0  0  0  0
  2  4  1  0
  2  1  1  0
  3  2  2  0
  5  4  1  0
  6  5  1  0
  7  8  1  0
  7  6  1  0
  8  9  1  1
 10  8  1  0
 10 19  1  0
 11 10  2  0
 12 13  1  0
 13 14  2  0
 14 15  1  0
 16 15  2  0
 16 17  1  0
 18 17  1  6
 18 19  1  0
 20 18  1  0
 21 20  2  0
 22 16  1  0
 23 13  1  0
 23 22  2  0
 24 20  1  0
 25 26  1  1
 25 24  1  0
 26 27  1  0
 27 28  2  0
 29 28  1  0
 30 29  1  0
 31 30  2  0
 31 27  1  0
 32 25  1  0
 33 32  2  0
 34 32  1  0
M  END
$$$$
