RYH.pdb
     RDKit          3D

 34 35  0  0  1  0  0  0  0  0999 V2000
    8.1600  -13.8111   16.5861 N   0  0  0  0  0  0  0  0  0  0  0  0
    7.8162  -13.7218   17.9626 C   0  0  0  0  0  0  0  0  0  0  0  0
    7.6947  -12.5626   18.5351 N   0  0  0  0  0  0  0  0  0  0  0  0
    7.6118  -14.9129   18.6923 N   0  0  0  0  0  0  0  0  0  0  0  0
    8.4257  -16.0908   18.3234 C   0  0  0  0  0  0  0  0  0  0  0  0
    8.4959  -16.9406   19.5409 C   0  0  0  0  0  0  0  0  0  0  0  0
    9.5573  -16.5480   20.4909 C   0  0  0  0  0  0  0  0  0  0  0  0
    9.4296  -15.2119   21.1595 C   0  0  2  0  0  0  0  0  0  0  0  0
   10.3550  -14.2425   20.6691 N   0  0  0  0  0  0  0  0  0  0  0  0
    9.6234  -15.4544   22.6322 C   0  0  0  0  0  0  0  0  0  0  0  0
   10.7993  -15.5030   23.0513 O   0  0  0  0  0  0  0  0  0  0  0  0
    7.5336  -12.4375   19.5523 O   0  0  0  0  0  0  0  0  0  0  0  0
    6.3255  -10.2200   26.8503 C   0  0  0  0  0  0  0  0  0  0  0  0
    6.6065  -11.5557   26.5821 C   0  0  0  0  0  0  0  0  0  0  0  0
    6.2772  -12.1153   25.3548 C   0  0  0  0  0  0  0  0  0  0  0  0
    6.5486  -13.4452   25.0670 C   0  0  0  0  0  0  0  0  0  0  0  0
    7.1578  -14.2262   26.0195 C   0  0  0  0  0  0  0  0  0  0  0  0
    7.4541  -15.6258   25.7340 C   0  0  2  0  0  0  0  0  0  0  0  0
    8.7498  -15.8068   24.9644 N   0  0  0  0  0  0  0  0  0  0  0  0
    8.5466  -15.6247   23.5408 C   0  0  0  0  0  0  0  0  0  0  0  0
    9.3262  -17.1405   25.2057 O   0  0  0  0  0  0  0  0  0  0  0  0
    9.4956  -17.9856   24.2932 C   0  0  0  0  0  0  0  0  0  0  0  0
    7.4806  -13.6658   27.2315 C   0  0  0  0  0  0  0  0  0  0  0  0
    7.2177  -12.3428   27.5356 N   0  0  0  0  0  0  0  0  0  0  0  0
    9.7173  -17.5175   26.5115 C   0  0  2  0  0  0  0  0  0  0  0  0
   10.7627  -18.5251   26.7042 C   0  0  0  0  0  0  0  0  0  0  0  0
   12.0125  -18.1573   25.9892 C   0  0  0  0  0  0  0  0  0  0  0  0
   12.0821  -18.8424   24.6833 C   0  0  0  0  0  0  0  0  0  0  0  0
   11.0963  -19.6776   24.1377 N   0  0  0  0  0  0  0  0  0  0  0  0
   11.4780  -20.1350   22.9345 C   0  0  0  0  0  0  0  0  0  0  0  0
   12.6865  -19.6061   22.7066 N   0  0  0  0  0  0  0  0  0  0  0  0
   13.0528  -18.8369   23.7406 C   0  0  0  0  0  0  0  0  0  0  0  0
   11.0230  -18.6661   28.1517 O   0  0  0  0  0  0  0  0  0  0  0  0
   10.3909  -17.9464   28.9757 O   0  0  0  0  0  0  0  0  0  0  0  0
  2  4  1  0
  2  1  1  0
  3  2  2  0
  5  4  1  0
  6  5  1  0
  7  8  1  0
  7  6  1  0
  8  9  1  6
 10  8  1  0
 10 19  1  0
 11 10  2  0
 12 13  1  0
 13 14  2  0
 14 15  1  0
 16 15  2  0
 16 17  1  0
 18 17  1  1
 18 19  1  0
 20 18  1  0
 21 20  2  0
 22 16  1  0
 23 13  1  0
 23 22  2  0
 24 20  1  0
 25 26  1  6
 25 24  1  0
 26 27  1  0
 27 28  2  0
 29 28  1  0
 30 29  1  0
 31 30  2  0
 31 27  1  0
 32 25  1  0
 33 32  2  0
 34 32  1  0
M  END
$$$$
