RYH.pdb
     RDKit          3D

 34 35  0  0  1  0  0  0  0  0999 V2000
    7.2350  -17.5011   14.9688 N   0  0  0  0  0  0  0  0  0  0  0  0
    7.0583  -17.5497   16.3786 C   0  0  0  0  0  0  0  0  0  0  0  0
    7.0902  -18.6866   17.0055 N   0  0  0  0  0  0  0  0  0  0  0  0
    6.8467  -16.3433   17.0806 N   0  0  0  0  0  0  0  0  0  0  0  0
    8.0377  -15.5557   17.4642 C   0  0  0  0  0  0  0  0  0  0  0  0
    8.1624  -15.6897   18.9393 C   0  0  0  0  0  0  0  0  0  0  0  0
    7.1700  -14.9056   19.7030 C   0  0  0  0  0  0  0  0  0  0  0  0
    7.6055  -13.5774   20.2461 C   0  0  2  0  0  0  0  0  0  0  0  0
    8.3981  -12.8232   19.3299 N   0  0  0  0  0  0  0  0  0  0  0  0
    8.3636  -13.8656   21.5139 C   0  0  0  0  0  0  0  0  0  0  0  0
    9.5907  -14.0751   21.4083 O   0  0  0  0  0  0  0  0  0  0  0  0
    6.8306  -18.8005   18.0034 O   0  0  0  0  0  0  0  0  0  0  0  0
   10.3843  -15.3336   29.9840 C   0  0  0  0  0  0  0  0  0  0  0  0
    9.7000  -15.0311   28.8114 C   0  0  0  0  0  0  0  0  0  0  0  0
    9.7245  -13.7446   28.2898 C   0  0  0  0  0  0  0  0  0  0  0  0
    9.0488  -13.4219   27.1216 C   0  0  0  0  0  0  0  0  0  0  0  0
    8.3391  -14.3991   26.4660 C   0  0  0  0  0  0  0  0  0  0  0  0
    7.6252  -14.0794   25.2347 C   0  0  2  0  0  0  0  0  0  0  0  0
    8.4808  -14.2639   23.9946 N   0  0  0  0  0  0  0  0  0  0  0  0
    7.7520  -13.9063   22.7939 C   0  0  0  0  0  0  0  0  0  0  0  0
    8.9529  -15.6543   23.8800 O   0  0  0  0  0  0  0  0  0  0  0  0
    8.5177  -16.4532   23.0151 C   0  0  0  0  0  0  0  0  0  0  0  0
    8.3194  -15.6696   26.9880 C   0  0  0  0  0  0  0  0  0  0  0  0
    8.9865  -16.0092   28.1506 N   0  0  0  0  0  0  0  0  0  0  0  0
    9.9398  -16.1428   24.7673 C   0  0  1  0  0  0  0  0  0  0  0  0
   10.6556  -17.3834   24.4608 C   0  0  0  0  0  0  0  0  0  0  0  0
   11.4320  -17.2669   23.1990 C   0  0  0  0  0  0  0  0  0  0  0  0
   10.6437  -17.7730   22.0579 C   0  0  0  0  0  0  0  0  0  0  0  0
    9.3423  -18.2921   22.1214 N   0  0  0  0  0  0  0  0  0  0  0  0
    8.9208  -18.6603   20.9010 C   0  0  0  0  0  0  0  0  0  0  0  0
    9.9295  -18.3849   20.0651 N   0  0  0  0  0  0  0  0  0  0  0  0
   10.9569  -17.8575   20.7443 C   0  0  0  0  0  0  0  0  0  0  0  0
   11.5553  -17.7018   25.5886 O   0  0  0  0  0  0  0  0  0  0  0  0
   12.2789  -18.7365   25.5408 O   0  0  0  0  0  0  0  0  0  0  0  0
  2  4  1  0
  2  1  1  0
  3  2  2  0
  5  4  1  0
  6  5  1  0
  7  8  1  0
  7  6  1  0
  8  9  1  6
 10  8  1  0
 10 19  1  0
 11 10  2  0
 12 13  1  0
 13 14  2  0
 14 15  1  0
 16 15  2  0
 16 17  1  0
 18 17  1  1
 18 19  1  0
 20 18  1  0
 21 20  2  0
 22 16  1  0
 23 13  1  0
 23 22  2  0
 24 20  1  0
 25 26  1  1
 25 24  1  0
 26 27  1  0
 27 28  2  0
 29 28  1  0
 30 29  1  0
 31 30  2  0
 31 27  1  0
 32 25  1  0
 33 32  2  0
 34 32  1  0
M  END
$$$$
