RYH.pdb
     RDKit          3D

 34 35  0  0  1  0  0  0  0  0999 V2000
    9.2576  -16.8968   14.5213 N   0  0  0  0  0  0  0  0  0  0  0  0
   10.6688  -16.9300   14.6898 C   0  0  0  0  0  0  0  0  0  0  0  0
   11.4559  -16.7653   13.6702 N   0  0  0  0  0  0  0  0  0  0  0  0
   11.1956  -17.1463   15.9817 N   0  0  0  0  0  0  0  0  0  0  0  0
   10.2361  -17.3531   17.0873 C   0  0  0  0  0  0  0  0  0  0  0  0
   11.0536  -17.5005   18.3199 C   0  0  0  0  0  0  0  0  0  0  0  0
   10.6007  -16.6618   19.4488 C   0  0  0  0  0  0  0  0  0  0  0  0
   10.4191  -17.3295   20.7792 C   0  0  2  0  0  0  0  0  0  0  0  0
    9.4010  -18.3295   20.7767 N   0  0  0  0  0  0  0  0  0  0  0  0
   10.1058  -16.2349   21.7636 C   0  0  0  0  0  0  0  0  0  0  0  0
   11.0232  -15.4303   22.0314 O   0  0  0  0  0  0  0  0  0  0  0  0
   12.4893  -16.8406   13.7232 O   0  0  0  0  0  0  0  0  0  0  0  0
    7.5370  -12.9474   17.4110 C   0  0  0  0  0  0  0  0  0  0  0  0
    7.4980  -13.2575   18.7665 C   0  0  0  0  0  0  0  0  0  0  0  0
    8.1596  -12.4631   19.6932 C   0  0  0  0  0  0  0  0  0  0  0  0
    8.1333  -12.7547   21.0496 C   0  0  0  0  0  0  0  0  0  0  0  0
    7.4359  -13.8557   21.4850 C   0  0  0  0  0  0  0  0  0  0  0  0
    7.3941  -14.1763   22.9075 C   0  0  2  0  0  0  0  0  0  0  0  0
    8.5608  -15.0410   23.3493 N   0  0  0  0  0  0  0  0  0  0  0  0
    8.8377  -16.0855   22.3831 C   0  0  0  0  0  0  0  0  0  0  0  0
    8.2980  -15.6525   24.6632 O   0  0  0  0  0  0  0  0  0  0  0  0
    7.2106  -15.5139   25.2747 C   0  0  0  0  0  0  0  0  0  0  0  0
    6.7838  -14.6371   20.5623 C   0  0  0  0  0  0  0  0  0  0  0  0
    6.7991  -14.3618   19.2073 N   0  0  0  0  0  0  0  0  0  0  0  0
    9.2932  -16.4370   25.2912 C   0  0  1  0  0  0  0  0  0  0  0  0
    8.9164  -17.4484   26.2813 C   0  0  0  0  0  0  0  0  0  0  0  0
    7.8885  -18.3786   25.7459 C   0  0  0  0  0  0  0  0  0  0  0  0
    7.5312  -19.3926   26.7577 C   0  0  0  0  0  0  0  0  0  0  0  0
    7.5215  -19.2020   28.1472 N   0  0  0  0  0  0  0  0  0  0  0  0
    7.1472  -20.3278   28.7756 C   0  0  0  0  0  0  0  0  0  0  0  0
    6.9193  -21.2285   27.8118 N   0  0  0  0  0  0  0  0  0  0  0  0
    7.1451  -20.6810   26.6100 C   0  0  0  0  0  0  0  0  0  0  0  0
   10.1273  -18.1962   26.6783 O   0  0  0  0  0  0  0  0  0  0  0  0
   11.2150  -17.9988   26.0665 O   0  0  0  0  0  0  0  0  0  0  0  0
  2  4  1  0
  2  1  1  0
  3  2  2  0
  5  4  1  0
  6  5  1  0
  7  8  1  0
  7  6  1  0
  8  9  1  6
 10  8  1  0
 10 19  1  0
 11 10  2  0
 12 13  1  0
 13 14  2  0
 14 15  1  0
 16 15  2  0
 16 17  1  0
 18 17  1  6
 18 19  1  0
 20 18  1  0
 21 20  2  0
 22 16  1  0
 23 13  1  0
 23 22  2  0
 24 20  1  0
 25 26  1  1
 25 24  1  0
 26 27  1  0
 27 28  2  0
 29 28  1  0
 30 29  1  0
 31 30  2  0
 31 27  1  0
 32 25  1  0
 33 32  2  0
 34 32  1  0
M  END
$$$$
