HGS.pdb
     RDKit          3D

 21 21  0  0  1  0  0  0  0  0999 V2000
   20.4842  -12.5566  -16.6823 N   0  0  0  0  0  0  0  0  0  0  0  0
   21.6043  -12.3945  -17.5569 C   0  0  1  0  0  0  0  0  0  0  0  0
   21.1976  -12.6747  -18.9917 C   0  0  0  0  0  0  0  0  0  0  0  0
   20.6687  -14.0572  -19.0843 C   0  0  0  0  0  0  0  0  0  0  0  0
   21.3917  -15.1658  -19.5013 C   0  0  0  0  0  0  0  0  0  0  0  0
   20.5638  -16.2221  -19.4456 N   0  0  0  0  0  0  0  0  0  0  0  0
   19.3627  -15.7921  -19.0089 C   0  0  0  0  0  0  0  0  0  0  0  0
   19.4326  -14.4615  -18.7885 N   0  0  0  0  0  0  0  0  0  0  0  0
   22.1794  -11.0350  -17.4514 C   0  0  0  0  0  0  0  0  0  0  0  0
   23.1213  -10.6603  -18.1936 O   0  0  0  0  0  0  0  0  0  0  0  0
   21.6430  -10.1492  -16.4858 N   0  0  0  0  0  0  0  0  0  0  0  0
   22.0926   -8.7797  -16.3960 C   0  0  0  0  0  0  0  0  0  0  0  0
   21.2954   -8.0608  -15.3656 C   0  0  0  0  0  0  0  0  0  0  0  0
   20.3410   -8.6207  -14.8127 O   0  0  0  0  0  0  0  0  0  0  0  0
   22.7767   -4.7687  -13.4202 O   0  0  0  0  0  0  0  0  0  0  0  0
   21.4394   -4.6200  -13.7224 C   0  0  0  0  0  0  0  0  0  0  0  0
   20.8198   -5.9236  -14.1146 C   0  0  2  0  0  0  0  0  0  0  0  0
   21.5972   -6.7262  -14.9857 N   0  0  0  0  0  0  0  0  0  0  0  0
   19.4994   -5.6762  -14.7318 C   0  0  0  0  0  0  0  0  0  0  0  0
   19.3296   -5.7518  -15.9707 O   0  0  0  0  0  0  0  0  0  0  0  0
   18.4306   -5.3548  -13.9216 O   0  0  0  0  0  0  0  0  0  0  0  0
  2  1  1  1
  2  3  1  0
  3  4  1  0
  4  5  2  0
  5  6  1  0
  7  6  1  0
  8  4  1  0
  8  7  2  0
  9  2  1  0
  9 10  2  0
 11  9  1  0
 12 11  1  0
 12 13  1  0
 13 18  1  0
 14 13  2  0
 16 15  1  0
 17 16  1  6
 17 19  1  0
 18 17  1  0
 19 20  2  0
 19 21  1  0
M  END
$$$$
