HGS.pdb
     RDKit          3D

 21 21  0  0  1  0  0  0  0  0999 V2000
   21.9050  -10.7170  -20.2420 N   0  0  0  0  0  0  0  0  0  0  0  0
   23.3224  -10.8654  -20.1200 C   0  0  1  0  0  0  0  0  0  0  0  0
   23.9669  -10.9175  -21.4927 C   0  0  0  0  0  0  0  0  0  0  0  0
   23.4809  -12.1207  -22.2110 C   0  0  0  0  0  0  0  0  0  0  0  0
   24.1857  -13.3072  -22.3556 C   0  0  0  0  0  0  0  0  0  0  0  0
   23.4100  -14.1446  -23.0639 N   0  0  0  0  0  0  0  0  0  0  0  0
   22.2582  -13.5063  -23.3540 C   0  0  0  0  0  0  0  0  0  0  0  0
   22.3069  -12.2634  -22.8278 N   0  0  0  0  0  0  0  0  0  0  0  0
   23.9140   -9.7657  -19.3258 C   0  0  0  0  0  0  0  0  0  0  0  0
   25.1481   -9.7105  -19.0968 O   0  0  0  0  0  0  0  0  0  0  0  0
   23.0541   -8.7611  -18.8201 N   0  0  0  0  0  0  0  0  0  0  0  0
   23.5521   -7.7152  -17.9576 C   0  0  0  0  0  0  0  0  0  0  0  0
   22.4960   -7.3289  -16.9831 C   0  0  0  0  0  0  0  0  0  0  0  0
   21.3012   -7.4745  -17.2679 O   0  0  0  0  0  0  0  0  0  0  0  0
   21.1480   -6.4713  -12.4736 O   0  0  0  0  0  0  0  0  0  0  0  0
   22.0798   -6.9542  -13.3682 C   0  0  0  0  0  0  0  0  0  0  0  0
   21.8793   -6.3740  -14.7321 C   0  0  2  0  0  0  0  0  0  0  0  0
   22.8172   -6.7873  -15.7103 N   0  0  0  0  0  0  0  0  0  0  0  0
   21.8863   -4.8982  -14.6463 C   0  0  0  0  0  0  0  0  0  0  0  0
   20.8224   -4.2391  -14.5892 O   0  0  0  0  0  0  0  0  0  0  0  0
   23.0946   -4.2336  -14.6290 O   0  0  0  0  0  0  0  0  0  0  0  0
  2  1  1  6
  2  3  1  0
  3  4  1  0
  4  5  2  0
  5  6  1  0
  7  6  1  0
  8  4  1  0
  8  7  2  0
  9  2  1  0
  9 10  2  0
 11  9  1  0
 12 11  1  0
 12 13  1  0
 13 18  1  0
 14 13  2  0
 16 15  1  0
 17 16  1  1
 17 19  1  0
 18 17  1  0
 19 20  2  0
 19 21  1  0
M  END
$$$$
