HGS.pdb
     RDKit          3D

 21 21  0  0  1  0  0  0  0  0999 V2000
   20.5461  -12.6221  -18.5607 N   0  0  0  0  0  0  0  0  0  0  0  0
   19.9113  -11.8592  -17.5307 C   0  0  1  0  0  0  0  0  0  0  0  0
   19.0002  -12.7466  -16.7032 C   0  0  0  0  0  0  0  0  0  0  0  0
   17.8808  -13.2193  -17.5538 C   0  0  0  0  0  0  0  0  0  0  0  0
   17.6443  -12.8208  -18.8617 C   0  0  0  0  0  0  0  0  0  0  0  0
   16.5448  -13.4691  -19.2803 N   0  0  0  0  0  0  0  0  0  0  0  0
   16.1060  -14.2476  -18.2706 C   0  0  0  0  0  0  0  0  0  0  0  0
   16.9303  -14.0904  -17.2123 N   0  0  0  0  0  0  0  0  0  0  0  0
   20.9064  -11.2010  -16.6551 C   0  0  0  0  0  0  0  0  0  0  0  0
   21.9221  -11.8122  -16.2391 O   0  0  0  0  0  0  0  0  0  0  0  0
   20.6924   -9.8504  -16.2879 N   0  0  0  0  0  0  0  0  0  0  0  0
   21.6627   -9.1272  -15.4997 C   0  0  0  0  0  0  0  0  0  0  0  0
   21.2405   -7.7061  -15.3724 C   0  0  0  0  0  0  0  0  0  0  0  0
   20.2440   -7.2947  -15.9788 O   0  0  0  0  0  0  0  0  0  0  0  0
   21.8929   -3.4403  -13.0918 O   0  0  0  0  0  0  0  0  0  0  0  0
   22.3540   -4.7274  -13.2717 C   0  0  0  0  0  0  0  0  0  0  0  0
   21.6199   -5.4213  -14.3748 C   0  0  2  0  0  0  0  0  0  0  0  0
   21.9559   -6.7848  -14.5623 N   0  0  0  0  0  0  0  0  0  0  0  0
   21.8300   -4.6910  -15.6429 C   0  0  0  0  0  0  0  0  0  0  0  0
   22.8191   -4.9210  -16.3765 O   0  0  0  0  0  0  0  0  0  0  0  0
   20.9132   -3.7341  -16.0249 O   0  0  0  0  0  0  0  0  0  0  0  0
  2  1  1  6
  2  3  1  0
  3  4  1  0
  4  5  2  0
  5  6  1  0
  7  6  1  0
  8  4  1  0
  8  7  2  0
  9  2  1  0
  9 10  2  0
 11  9  1  0
 12 11  1  0
 12 13  1  0
 13 18  1  0
 14 13  2  0
 16 15  1  0
 17 16  1  1
 17 19  1  0
 18 17  1  0
 19 20  2  0
 19 21  1  0
M  END
$$$$
