HGS.pdb
     RDKit          3D

 21 21  0  0  1  0  0  0  0  0999 V2000
   20.6571  -12.5987  -18.3755 N   0  0  0  0  0  0  0  0  0  0  0  0
   20.0832  -11.8220  -17.3204 C   0  0  1  0  0  0  0  0  0  0  0  0
   19.3909  -12.7258  -16.3173 C   0  0  0  0  0  0  0  0  0  0  0  0
   18.2941  -13.4556  -16.9986 C   0  0  0  0  0  0  0  0  0  0  0  0
   18.2958  -14.8114  -17.2942 C   0  0  0  0  0  0  0  0  0  0  0  0
   17.1322  -15.0843  -17.9074 N   0  0  0  0  0  0  0  0  0  0  0  0
   16.4244  -13.9399  -17.9939 C   0  0  0  0  0  0  0  0  0  0  0  0
   17.1426  -12.9425  -17.4341 N   0  0  0  0  0  0  0  0  0  0  0  0
   21.1065  -10.9997  -16.6372 C   0  0  0  0  0  0  0  0  0  0  0  0
   22.2530  -11.4497  -16.3892 O   0  0  0  0  0  0  0  0  0  0  0  0
   20.7679   -9.6773  -16.2615 N   0  0  0  0  0  0  0  0  0  0  0  0
   21.7522   -8.7863  -15.6930 C   0  0  0  0  0  0  0  0  0  0  0  0
   21.1176   -7.4767  -15.3828 C   0  0  0  0  0  0  0  0  0  0  0  0
   20.0110   -7.1921  -15.8565 O   0  0  0  0  0  0  0  0  0  0  0  0
   23.2434   -4.5190  -13.2053 O   0  0  0  0  0  0  0  0  0  0  0  0
   21.8801   -4.5985  -13.0132 C   0  0  0  0  0  0  0  0  0  0  0  0
   21.2041   -5.2694  -14.1665 C   0  0  2  0  0  0  0  0  0  0  0  0
   21.7502   -6.5209  -14.5444 N   0  0  0  0  0  0  0  0  0  0  0  0
   21.2098   -4.3647  -15.3358 C   0  0  0  0  0  0  0  0  0  0  0  0
   21.9037   -4.6076  -16.3501 O   0  0  0  0  0  0  0  0  0  0  0  0
   20.4312   -3.2267  -15.3062 O   0  0  0  0  0  0  0  0  0  0  0  0
  2  1  1  6
  2  3  1  0
  3  4  1  0
  4  5  2  0
  5  6  1  0
  7  6  1  0
  8  4  1  0
  8  7  2  0
  9  2  1  0
  9 10  2  0
 11  9  1  0
 12 11  1  0
 12 13  1  0
 13 18  1  0
 14 13  2  0
 16 15  1  0
 17 16  1  1
 17 19  1  0
 18 17  1  0
 19 20  2  0
 19 21  1  0
M  END
$$$$
