HGS.pdb
     RDKit          3D

 21 21  0  0  1  0  0  0  0  0999 V2000
   18.7578  -10.9227  -17.3196 N   0  0  0  0  0  0  0  0  0  0  0  0
   19.9604  -11.2914  -16.6388 C   0  0  1  0  0  0  0  0  0  0  0  0
   21.1161  -11.3753  -17.6185 C   0  0  0  0  0  0  0  0  0  0  0  0
   20.7919  -12.3741  -18.6660 C   0  0  0  0  0  0  0  0  0  0  0  0
   21.2173  -12.3186  -19.9856 C   0  0  0  0  0  0  0  0  0  0  0  0
   20.7163  -13.3980  -20.6087 N   0  0  0  0  0  0  0  0  0  0  0  0
   20.0013  -14.1068  -19.7118 C   0  0  0  0  0  0  0  0  0  0  0  0
   20.0509  -13.4734  -18.5199 N   0  0  0  0  0  0  0  0  0  0  0  0
   20.2838  -10.3342  -15.5573 C   0  0  0  0  0  0  0  0  0  0  0  0
   21.2843  -10.4950  -14.8147 O   0  0  0  0  0  0  0  0  0  0  0  0
   19.4346   -9.2169  -15.3698 N   0  0  0  0  0  0  0  0  0  0  0  0
   19.7540   -8.1882  -14.4078 C   0  0  0  0  0  0  0  0  0  0  0  0
   20.2550   -6.9807  -15.1185 C   0  0  0  0  0  0  0  0  0  0  0  0
   20.1577   -6.8957  -16.3486 O   0  0  0  0  0  0  0  0  0  0  0  0
   22.2820   -3.9254  -12.9810 O   0  0  0  0  0  0  0  0  0  0  0  0
   21.5037   -3.5530  -14.0568 C   0  0  0  0  0  0  0  0  0  0  0  0
   21.3052   -4.6908  -15.0071 C   0  0  2  0  0  0  0  0  0  0  0  0
   20.8539   -5.8988  -14.4203 N   0  0  0  0  0  0  0  0  0  0  0  0
   22.5638   -4.9475  -15.7390 C   0  0  0  0  0  0  0  0  0  0  0  0
   23.2231   -5.9980  -15.5625 O   0  0  0  0  0  0  0  0  0  0  0  0
   23.0206   -4.0059  -16.6373 O   0  0  0  0  0  0  0  0  0  0  0  0
  2  1  1  6
  2  3  1  0
  3  4  1  0
  4  5  2  0
  5  6  1  0
  7  6  1  0
  8  4  1  0
  8  7  2  0
  9  2  1  0
  9 10  2  0
 11  9  1  0
 12 11  1  0
 12 13  1  0
 13 18  1  0
 14 13  2  0
 16 15  1  0
 17 16  1  1
 17 19  1  0
 18 17  1  0
 19 20  2  0
 19 21  1  0
M  END
$$$$
