HGS.pdb
     RDKit          3D

 21 21  0  0  1  0  0  0  0  0999 V2000
   19.0089  -12.5559  -18.0257 N   0  0  0  0  0  0  0  0  0  0  0  0
   19.1815  -11.9497  -16.7418 C   0  0  1  0  0  0  0  0  0  0  0  0
   19.3570  -13.0148  -15.6754 C   0  0  0  0  0  0  0  0  0  0  0  0
   18.1566  -13.8857  -15.6581 C   0  0  0  0  0  0  0  0  0  0  0  0
   18.1171  -15.2047  -16.0872 C   0  0  0  0  0  0  0  0  0  0  0  0
   16.8589  -15.6409  -15.9105 N   0  0  0  0  0  0  0  0  0  0  0  0
   16.1335  -14.6311  -15.3886 C   0  0  0  0  0  0  0  0  0  0  0  0
   16.9355  -13.5552  -15.2356 N   0  0  0  0  0  0  0  0  0  0  0  0
   20.3399  -11.0286  -16.7310 C   0  0  0  0  0  0  0  0  0  0  0  0
   21.3903  -11.2861  -17.3702 O   0  0  0  0  0  0  0  0  0  0  0  0
   20.2442   -9.8340  -15.9771 N   0  0  0  0  0  0  0  0  0  0  0  0
   21.3029   -8.8519  -15.9948 C   0  0  0  0  0  0  0  0  0  0  0  0
   20.8892   -7.6600  -15.2060 C   0  0  0  0  0  0  0  0  0  0  0  0
   19.7498   -7.5922  -14.7295 O   0  0  0  0  0  0  0  0  0  0  0  0
   23.3423   -4.2395  -15.0805 O   0  0  0  0  0  0  0  0  0  0  0  0
   22.6448   -4.5250  -13.9256 C   0  0  0  0  0  0  0  0  0  0  0  0
   21.4823   -5.4258  -14.1983 C   0  0  2  0  0  0  0  0  0  0  0  0
   21.7744   -6.5738  -14.9753 N   0  0  0  0  0  0  0  0  0  0  0  0
   20.4053   -4.6558  -14.8562 C   0  0  0  0  0  0  0  0  0  0  0  0
   20.1320   -4.8140  -16.0686 O   0  0  0  0  0  0  0  0  0  0  0  0
   19.6858   -3.7421  -14.1149 O   0  0  0  0  0  0  0  0  0  0  0  0
  2  1  1  6
  2  3  1  0
  3  4  1  0
  4  5  2  0
  5  6  1  0
  7  6  1  0
  8  4  1  0
  8  7  2  0
  9  2  1  0
  9 10  2  0
 11  9  1  0
 12 11  1  0
 12 13  1  0
 13 18  1  0
 14 13  2  0
 16 15  1  0
 17 16  1  6
 17 19  1  0
 18 17  1  0
 19 20  2  0
 19 21  1  0
M  END
$$$$
