HGS.pdb
     RDKit          3D

 21 21  0  0  1  0  0  0  0  0999 V2000
   28.1943   -9.9211  -16.4518 N   0  0  0  0  0  0  0  0  0  0  0  0
   27.6851   -9.8951  -17.7882 C   0  0  1  0  0  0  0  0  0  0  0  0
   26.2784   -9.3264  -17.8052 C   0  0  0  0  0  0  0  0  0  0  0  0
   25.4384  -10.0823  -16.8445 C   0  0  0  0  0  0  0  0  0  0  0  0
   24.7326   -9.5267  -15.7869 C   0  0  0  0  0  0  0  0  0  0  0  0
   24.1028  -10.5334  -15.1590 N   0  0  0  0  0  0  0  0  0  0  0  0
   24.4024  -11.6813  -15.7999 C   0  0  0  0  0  0  0  0  0  0  0  0
   25.2232  -11.3985  -16.8346 N   0  0  0  0  0  0  0  0  0  0  0  0
   28.5597   -9.1059  -18.6839 C   0  0  0  0  0  0  0  0  0  0  0  0
   28.3119   -8.9907  -19.9102 O   0  0  0  0  0  0  0  0  0  0  0  0
   29.6979   -8.4729  -18.1287 N   0  0  0  0  0  0  0  0  0  0  0  0
   30.5427   -7.6175  -18.9290 C   0  0  0  0  0  0  0  0  0  0  0  0
   30.9354   -6.4222  -18.1347 C   0  0  0  0  0  0  0  0  0  0  0  0
   30.6486   -6.3496  -16.9336 O   0  0  0  0  0  0  0  0  0  0  0  0
   33.8899   -3.8363  -19.5412 O   0  0  0  0  0  0  0  0  0  0  0  0
   32.8710   -3.2095  -18.8552 C   0  0  0  0  0  0  0  0  0  0  0  0
   32.0885   -4.1819  -18.0310 C   0  0  2  0  0  0  0  0  0  0  0  0
   31.6430   -5.3380  -18.7182 N   0  0  0  0  0  0  0  0  0  0  0  0
   30.9247   -3.4956  -17.4310 C   0  0  0  0  0  0  0  0  0  0  0  0
   29.7509   -3.7864  -17.7582 O   0  0  0  0  0  0  0  0  0  0  0  0
   31.1395   -2.5118  -16.4886 O   0  0  0  0  0  0  0  0  0  0  0  0
  2  1  1  1
  2  3  1  0
  3  4  1  0
  4  5  2  0
  5  6  1  0
  7  6  1  0
  8  4  1  0
  8  7  2  0
  9  2  1  0
  9 10  2  0
 11  9  1  0
 12 11  1  0
 12 13  1  0
 13 18  1  0
 14 13  2  0
 16 15  1  0
 17 16  1  6
 17 19  1  0
 18 17  1  0
 19 20  2  0
 19 21  1  0
M  END
$$$$
