HGS.pdb
     RDKit          3D

 21 21  0  0  1  0  0  0  0  0999 V2000
   19.9350  -13.4401  -16.7166 N   0  0  0  0  0  0  0  0  0  0  0  0
   19.4113  -12.1108  -16.7832 C   0  0  1  0  0  0  0  0  0  0  0  0
   18.3324  -11.9162  -15.7341 C   0  0  0  0  0  0  0  0  0  0  0  0
   17.3285  -13.0002  -15.8645 C   0  0  0  0  0  0  0  0  0  0  0  0
   17.0768  -13.9783  -14.9129 C   0  0  0  0  0  0  0  0  0  0  0  0
   16.1055  -14.7664  -15.4027 N   0  0  0  0  0  0  0  0  0  0  0  0
   15.7591  -14.2995  -16.6193 C   0  0  0  0  0  0  0  0  0  0  0  0
   16.5134  -13.2145  -16.8982 N   0  0  0  0  0  0  0  0  0  0  0  0
   20.4779  -11.1006  -16.6041 C   0  0  0  0  0  0  0  0  0  0  0  0
   21.4421  -11.2944  -15.8223 O   0  0  0  0  0  0  0  0  0  0  0  0
   20.3933   -9.8934  -17.3390 N   0  0  0  0  0  0  0  0  0  0  0  0
   21.3963   -8.8632  -17.2026 C   0  0  0  0  0  0  0  0  0  0  0  0
   21.0816   -8.0158  -16.0207 C   0  0  0  0  0  0  0  0  0  0  0  0
   20.0370   -8.1970  -15.3836 O   0  0  0  0  0  0  0  0  0  0  0  0
   22.5159   -4.3519  -13.1138 O   0  0  0  0  0  0  0  0  0  0  0  0
   22.8406   -5.1780  -14.1692 C   0  0  0  0  0  0  0  0  0  0  0  0
   21.7078   -6.0907  -14.5170 C   0  0  2  0  0  0  0  0  0  0  0  0
   21.9563   -6.9840  -15.5883 N   0  0  0  0  0  0  0  0  0  0  0  0
   20.5043   -5.2887  -14.8232 C   0  0  0  0  0  0  0  0  0  0  0  0
   20.2614   -4.8870  -15.9847 O   0  0  0  0  0  0  0  0  0  0  0  0
   19.6296   -4.9767  -13.8035 O   0  0  0  0  0  0  0  0  0  0  0  0
  2  1  1  1
  2  3  1  0
  3  4  1  0
  4  5  2  0
  5  6  1  0
  7  6  1  0
  8  4  1  0
  8  7  2  0
  9  2  1  0
  9 10  2  0
 11  9  1  0
 12 11  1  0
 12 13  1  0
 13 18  1  0
 14 13  2  0
 16 15  1  0
 17 16  1  6
 17 19  1  0
 18 17  1  0
 19 20  2  0
 19 21  1  0
M  END
$$$$
