DNG.pdb
     RDKit          3D

 21 20  0  0  1  0  0  0  0  0999 V2000
   14.8415  -13.9642   17.4099 N   0  0  0  0  0  0  0  0  0  0  0  0
   13.8649  -14.9750   17.6546 C   0  0  1  0  0  0  0  0  0  0  0  0
   14.5057  -16.3536   17.8290 C   0  0  0  0  0  0  0  0  0  0  0  0
   15.0907  -16.7683   16.5333 C   0  0  0  0  0  0  0  0  0  0  0  0
   14.6047  -16.3619   15.4563 O   0  0  0  0  0  0  0  0  0  0  0  0
   12.9381  -14.6841   18.7607 C   0  0  0  0  0  0  0  0  0  0  0  0
   13.3058  -13.9161   19.6958 O   0  0  0  0  0  0  0  0  0  0  0  0
   16.1864  -17.6159   16.5530 O   0  0  0  0  0  0  0  0  0  0  0  0
    9.5858  -12.7626   18.8406 N   0  0  0  0  0  0  0  0  0  0  0  0
    8.7881  -13.9396   19.0256 C   0  0  0  0  0  0  0  0  0  0  0  0
    7.6071  -13.8772   18.5522 O   0  0  0  0  0  0  0  0  0  0  0  0
    9.3212  -15.1305   19.7214 C   0  0  0  0  0  0  0  0  0  0  0  0
   10.7704  -14.9355   20.0188 C   0  0  2  0  0  0  0  0  0  0  0  0
   11.6185  -15.2070   18.8779 N   0  0  0  0  0  0  0  0  0  0  0  0
   11.2049  -15.6720   21.2254 C   0  0  0  0  0  0  0  0  0  0  0  0
   11.7797  -16.7753   21.0516 O   0  0  0  0  0  0  0  0  0  0  0  0
   10.9961  -15.1793   22.5534 N   0  0  0  0  0  0  0  0  0  0  0  0
   11.5568  -15.9467   23.6257 C   0  0  0  0  0  0  0  0  0  0  0  0
   10.5760  -16.5386   24.5337 C   0  0  0  0  0  0  0  0  0  0  0  0
    9.3456  -16.4185   24.3944 O   0  0  0  0  0  0  0  0  0  0  0  0
   11.0688  -17.2781   25.6134 O   0  0  0  0  0  0  0  0  0  0  0  0
  2  3  1  0
  2  1  1  1
  3  4  1  0
  4  8  1  0
  5  4  2  0
  6  2  1  0
  6  7  2  0
  9 10  1  0
 10 11  2  0
 10 12  1  0
 13 12  1  6
 13 14  1  0
 13 15  1  0
 14  6  1  0
 15 16  2  0
 17 15  1  0
 17 18  1  0
 19 18  1  0
 19 21  1  0
 20 19  2  0
M  END
$$$$
