DNG.pdb
     RDKit          3D

 21 20  0  0  1  0  0  0  0  0999 V2000
   10.8854  -14.2548   18.0612 N   0  0  0  0  0  0  0  0  0  0  0  0
   11.3700  -14.8039   19.2855 C   0  0  1  0  0  0  0  0  0  0  0  0
   12.7798  -14.3065   19.6123 C   0  0  0  0  0  0  0  0  0  0  0  0
   13.7191  -14.8623   18.6115 C   0  0  0  0  0  0  0  0  0  0  0  0
   13.2935  -15.4954   17.6218 O   0  0  0  0  0  0  0  0  0  0  0  0
   10.4722  -14.6297   20.4391 C   0  0  0  0  0  0  0  0  0  0  0  0
   10.3955  -13.5006   21.0038 O   0  0  0  0  0  0  0  0  0  0  0  0
   15.0758  -14.6599   18.8061 O   0  0  0  0  0  0  0  0  0  0  0  0
    6.9921  -17.1352   19.6924 N   0  0  0  0  0  0  0  0  0  0  0  0
    6.9318  -16.0539   20.6320 C   0  0  0  0  0  0  0  0  0  0  0  0
    6.3765  -14.9904   20.2038 O   0  0  0  0  0  0  0  0  0  0  0  0
    7.4835  -16.1876   21.9975 C   0  0  0  0  0  0  0  0  0  0  0  0
    8.7552  -15.4146   22.1066 C   0  0  2  0  0  0  0  0  0  0  0  0
    9.6531  -15.6527   20.9967 N   0  0  0  0  0  0  0  0  0  0  0  0
    9.4212  -15.6018   23.4138 C   0  0  0  0  0  0  0  0  0  0  0  0
    8.8213  -15.1769   24.4324 O   0  0  0  0  0  0  0  0  0  0  0  0
   10.6972  -16.2363   23.5517 N   0  0  0  0  0  0  0  0  0  0  0  0
   11.2130  -16.3737   24.8814 C   0  0  0  0  0  0  0  0  0  0  0  0
   12.5559  -16.9458   24.9616 C   0  0  0  0  0  0  0  0  0  0  0  0
   13.2821  -17.1442   23.9712 O   0  0  0  0  0  0  0  0  0  0  0  0
   13.0329  -17.2818   26.2325 O   0  0  0  0  0  0  0  0  0  0  0  0
  2  3  1  0
  2  1  1  6
  3  4  1  0
  4  8  1  0
  5  4  2  0
  6  2  1  0
  6  7  2  0
  9 10  1  0
 10 11  2  0
 10 12  1  0
 13 12  1  6
 13 14  1  0
 13 15  1  0
 14  6  1  0
 15 16  2  0
 17 15  1  0
 17 18  1  0
 19 18  1  0
 19 21  1  0
 20 19  2  0
M  END
$$$$
