DNG.pdb
     RDKit          3D

 21 20  0  0  1  0  0  0  0  0999 V2000
    8.9096  -19.1735   19.4370 N   0  0  0  0  0  0  0  0  0  0  0  0
    9.7333  -18.1057   18.9718 C   0  0  1  0  0  0  0  0  0  0  0  0
    9.2005  -17.5031   17.6700 C   0  0  0  0  0  0  0  0  0  0  0  0
    9.0624  -18.5874   16.6710 C   0  0  0  0  0  0  0  0  0  0  0  0
    8.1953  -19.4760   16.8119 O   0  0  0  0  0  0  0  0  0  0  0  0
   10.0005  -17.0532   19.9657 C   0  0  0  0  0  0  0  0  0  0  0  0
   10.8451  -16.1490   19.7037 O   0  0  0  0  0  0  0  0  0  0  0  0
    9.9196  -18.5856   15.5826 O   0  0  0  0  0  0  0  0  0  0  0  0
    6.4501  -14.0969   21.7967 N   0  0  0  0  0  0  0  0  0  0  0  0
    7.8197  -14.5009   21.6678 C   0  0  0  0  0  0  0  0  0  0  0  0
    8.3793  -14.1864   20.5675 O   0  0  0  0  0  0  0  0  0  0  0  0
    8.5129  -15.2317   22.7505 C   0  0  0  0  0  0  0  0  0  0  0  0
    9.7123  -15.9296   22.2017 C   0  0  2  0  0  0  0  0  0  0  0  0
    9.3723  -16.9567   21.2404 N   0  0  0  0  0  0  0  0  0  0  0  0
   10.6094  -16.4338   23.2639 C   0  0  0  0  0  0  0  0  0  0  0  0
   10.9916  -15.6120   24.1337 O   0  0  0  0  0  0  0  0  0  0  0  0
   11.0457  -17.7958   23.3305 N   0  0  0  0  0  0  0  0  0  0  0  0
   11.8922  -18.1527   24.4301 C   0  0  0  0  0  0  0  0  0  0  0  0
   11.2025  -18.7813   25.5554 C   0  0  0  0  0  0  0  0  0  0  0  0
   10.5273  -18.1523   26.3898 O   0  0  0  0  0  0  0  0  0  0  0  0
   11.3205  -20.1688   25.6834 O   0  0  0  0  0  0  0  0  0  0  0  0
  2  3  1  0
  2  1  1  1
  3  4  1  0
  4  8  1  0
  5  4  2  0
  6  2  1  0
  6  7  2  0
  9 10  1  0
 10 11  2  0
 10 12  1  0
 13 12  1  1
 13 14  1  0
 13 15  1  0
 14  6  1  0
 15 16  2  0
 17 15  1  0
 17 18  1  0
 19 18  1  0
 19 21  1  0
 20 19  2  0
M  END
$$$$
