DNG.pdb
     RDKit          3D

 21 20  0  0  1  0  0  0  0  0999 V2000
    6.5106  -21.4131   22.4111 N   0  0  0  0  0  0  0  0  0  0  0  0
    5.7732  -20.2868   22.8830 C   0  0  1  0  0  0  0  0  0  0  0  0
    4.2691  -20.4586   22.6600 C   0  0  0  0  0  0  0  0  0  0  0  0
    4.0471  -20.8952   21.2624 C   0  0  0  0  0  0  0  0  0  0  0  0
    4.6718  -20.3604   20.3217 O   0  0  0  0  0  0  0  0  0  0  0  0
    6.0560  -19.9023   24.2756 C   0  0  0  0  0  0  0  0  0  0  0  0
    5.5530  -18.8402   24.7430 O   0  0  0  0  0  0  0  0  0  0  0  0
    3.1306  -21.9085   21.0326 O   0  0  0  0  0  0  0  0  0  0  0  0
    7.6267  -19.1422   29.0006 N   0  0  0  0  0  0  0  0  0  0  0  0
    7.3534  -20.5438   28.8725 C   0  0  0  0  0  0  0  0  0  0  0  0
    7.2847  -21.1880   29.9694 O   0  0  0  0  0  0  0  0  0  0  0  0
    7.1688  -21.1752   27.5482 C   0  0  0  0  0  0  0  0  0  0  0  0
    7.2556  -20.1391   26.4778 C   0  0  2  0  0  0  0  0  0  0  0  0
    6.8729  -20.6437   25.1765 N   0  0  0  0  0  0  0  0  0  0  0  0
    8.5704  -19.4626   26.4499 C   0  0  0  0  0  0  0  0  0  0  0  0
    8.9687  -18.9325   27.5169 O   0  0  0  0  0  0  0  0  0  0  0  0
    9.3841  -19.3942   25.2739 N   0  0  0  0  0  0  0  0  0  0  0  0
   10.5772  -20.1876   25.2635 C   0  0  0  0  0  0  0  0  0  0  0  0
   11.7594  -19.5236   25.8098 C   0  0  0  0  0  0  0  0  0  0  0  0
   11.9281  -19.3018   27.0222 O   0  0  0  0  0  0  0  0  0  0  0  0
   12.7448  -19.1233   24.9019 O   0  0  0  0  0  0  0  0  0  0  0  0
  2  3  1  0
  2  1  1  1
  3  4  1  0
  4  8  1  0
  5  4  2  0
  6  2  1  0
  6  7  2  0
  9 10  1  0
 10 11  2  0
 10 12  1  0
 13 12  1  1
 13 14  1  0
 13 15  1  0
 14  6  1  0
 15 16  2  0
 17 15  1  0
 17 18  1  0
 19 18  1  0
 19 21  1  0
 20 19  2  0
M  END
$$$$
