DNG.pdb
     RDKit          3D

 21 20  0  0  1  0  0  0  0  0999 V2000
    9.5351  -15.7159   17.5636 N   0  0  0  0  0  0  0  0  0  0  0  0
    9.3273  -14.3610   17.9590 C   0  0  1  0  0  0  0  0  0  0  0  0
    8.2922  -13.6635   17.0738 C   0  0  0  0  0  0  0  0  0  0  0  0
    8.4623  -14.1427   15.6830 C   0  0  0  0  0  0  0  0  0  0  0  0
    9.3768  -14.9433   15.3930 O   0  0  0  0  0  0  0  0  0  0  0  0
    9.0088  -14.1750   19.3841 C   0  0  0  0  0  0  0  0  0  0  0  0
    8.9230  -13.0045   19.8555 O   0  0  0  0  0  0  0  0  0  0  0  0
    7.5813  -13.6782   14.7199 O   0  0  0  0  0  0  0  0  0  0  0  0
    5.9771  -14.1638   21.2230 N   0  0  0  0  0  0  0  0  0  0  0  0
    6.1521  -15.3900   21.9451 C   0  0  0  0  0  0  0  0  0  0  0  0
    5.0762  -15.9952   22.2598 O   0  0  0  0  0  0  0  0  0  0  0  0
    7.4980  -15.8962   22.2898 C   0  0  0  0  0  0  0  0  0  0  0  0
    8.5393  -14.9917   21.7202 C   0  0  2  0  0  0  0  0  0  0  0  0
    8.7802  -15.2300   20.3132 N   0  0  0  0  0  0  0  0  0  0  0  0
    9.7896  -14.9994   22.5100 C   0  0  0  0  0  0  0  0  0  0  0  0
    9.7236  -14.5958   23.6977 O   0  0  0  0  0  0  0  0  0  0  0  0
   11.0426  -15.4417   21.9767 N   0  0  0  0  0  0  0  0  0  0  0  0
   12.1735  -15.3973   22.8554 C   0  0  0  0  0  0  0  0  0  0  0  0
   13.4116  -15.9283   22.2879 C   0  0  0  0  0  0  0  0  0  0  0  0
   13.5037  -16.3786   21.1318 O   0  0  0  0  0  0  0  0  0  0  0  0
   14.5452  -15.9205   23.1066 O   0  0  0  0  0  0  0  0  0  0  0  0
  2  3  1  0
  2  1  1  6
  3  4  1  0
  4  8  1  0
  5  4  2  0
  6  2  1  0
  6  7  2  0
  9 10  1  0
 10 11  2  0
 10 12  1  0
 13 12  1  1
 13 14  1  0
 13 15  1  0
 14  6  1  0
 15 16  2  0
 17 15  1  0
 17 18  1  0
 19 18  1  0
 19 21  1  0
 20 19  2  0
M  END
$$$$
