YSE.pdb
     RDKit          3D

 28 28  0  0  1  0  0  0  0  0999 V2000
    5.1413  -10.5818   27.4475 O   0  0  0  0  0  0  0  0  0  0  0  0
    5.9059  -11.5475   26.8206 C   0  0  0  0  0  0  0  0  0  0  0  0
    5.6722  -11.8308   25.5036 C   0  0  0  0  0  0  0  0  0  0  0  0
    6.4424  -12.8069   24.8653 C   0  0  0  0  0  0  0  0  0  0  0  0
    7.4231  -13.4665   25.5728 C   0  0  0  0  0  0  0  0  0  0  0  0
    8.2790  -14.5080   24.9497 C   0  0  0  0  0  0  0  0  0  0  0  0
    7.3744  -15.5813   24.3786 C   0  0  2  0  0  0  0  0  0  0  0  0
    6.6444  -16.3062   25.3689 N   0  0  0  0  0  0  0  0  0  0  0  0
    8.1828  -16.4992   23.5652 C   0  0  0  0  0  0  0  0  0  0  0  0
    8.5191  -17.5983   24.0982 O   0  0  0  0  0  0  0  0  0  0  0  0
    7.6381  -13.1575   26.9091 C   0  0  0  0  0  0  0  0  0  0  0  0
    6.8865  -12.2053   27.5312 C   0  0  0  0  0  0  0  0  0  0  0  0
   10.1590  -15.5706   19.9005 O   0  0  0  0  0  0  0  0  0  0  0  0
    9.5830  -16.7993   20.1058 C   0  0  0  0  0  0  0  0  0  0  0  0
    9.4747  -17.0920   21.5798 C   0  0  2  0  0  0  0  0  0  0  0  0
    8.5711  -16.1816   22.2589 N   0  0  0  0  0  0  0  0  0  0  0  0
   10.8087  -16.9685   22.2511 C   0  0  0  0  0  0  0  0  0  0  0  0
   11.0404  -15.9677   22.9937 O   0  0  0  0  0  0  0  0  0  0  0  0
   11.8406  -17.9016   22.1172 N   0  0  0  0  0  0  0  0  0  0  0  0
   12.8457  -18.1301   23.1992 C   0  0  1  0  0  0  0  0  0  0  0  0
   12.0447  -18.6268   24.3441 C   0  0  0  0  0  0  0  0  0  0  0  0
   12.7123  -19.1965   25.5245 C   0  0  0  0  0  0  0  0  0  0  0  0
   11.8844  -19.6695   26.6250 C   0  0  0  0  0  0  0  0  0  0  0  0
   11.3279  -18.8347   27.3984 O   0  0  0  0  0  0  0  0  0  0  0  0
   13.8463  -19.0203   22.6231 C   0  0  0  0  0  0  0  0  0  0  0  0
   15.0358  -18.9694   22.9769 O   0  0  0  0  0  0  0  0  0  0  0  0
   11.7003  -21.0528   26.8281 O   0  0  0  0  0  0  0  0  0  0  0  0
   13.5141  -19.9581   21.6596 O   0  0  0  0  0  0  0  0  0  0  0  0
  2  1  1  0
  2 12  2  0
  3  2  1  0
  4  3  2  0
  4  5  1  0
  5 11  2  0
  6  5  1  0
  7  8  1  1
  7  6  1  0
  9  7  1  0
  9 10  2  0
 11 12  1  0
 13 14  1  0
 15 14  1  6
 15 16  1  0
 15 17  1  0
 16  9  1  0
 17 19  1  0
 18 17  2  0
 19 20  1  0
 20 25  1  0
 20 21  1  1
 22 21  1  0
 23 22  1  0
 23 24  2  0
 25 26  2  0
 25 28  1  0
 27 23  1  0
M  END
$$$$
