YSE.pdb
     RDKit          3D

 28 28  0  0  1  0  0  0  0  0999 V2000
    7.5676  -15.2950   14.0827 O   0  0  0  0  0  0  0  0  0  0  0  0
    7.9191  -15.3726   15.4171 C   0  0  0  0  0  0  0  0  0  0  0  0
    6.9806  -15.7628   16.3315 C   0  0  0  0  0  0  0  0  0  0  0  0
    7.3312  -15.8424   17.6822 C   0  0  0  0  0  0  0  0  0  0  0  0
    8.6149  -15.5266   18.0692 C   0  0  0  0  0  0  0  0  0  0  0  0
    9.0506  -15.5981   19.4872 C   0  0  0  0  0  0  0  0  0  0  0  0
    8.9118  -14.2158   20.0927 C   0  0  2  0  0  0  0  0  0  0  0  0
    9.7568  -13.2354   19.4896 N   0  0  0  0  0  0  0  0  0  0  0  0
    9.1763  -14.3014   21.5351 C   0  0  0  0  0  0  0  0  0  0  0  0
   10.2962  -13.8715   21.9425 O   0  0  0  0  0  0  0  0  0  0  0  0
    9.5469  -15.1336   17.1182 C   0  0  0  0  0  0  0  0  0  0  0  0
    9.2044  -15.0563   15.8009 C   0  0  0  0  0  0  0  0  0  0  0  0
    6.2658  -14.7663   24.1677 O   0  0  0  0  0  0  0  0  0  0  0  0
    7.4807  -14.4795   24.7381 C   0  0  0  0  0  0  0  0  0  0  0  0
    8.6045  -14.9075   23.8303 C   0  0  2  0  0  0  0  0  0  0  0  0
    8.2396  -14.8347   22.4274 N   0  0  0  0  0  0  0  0  0  0  0  0
    9.0077  -16.3240   24.1062 C   0  0  0  0  0  0  0  0  0  0  0  0
    9.0283  -17.1609   23.1543 O   0  0  0  0  0  0  0  0  0  0  0  0
    9.3751  -16.8007   25.3675 N   0  0  0  0  0  0  0  0  0  0  0  0
   10.3331  -17.9353   25.5361 C   0  0  1  0  0  0  0  0  0  0  0  0
   11.5424  -17.5070   24.7925 C   0  0  0  0  0  0  0  0  0  0  0  0
   12.2705  -18.4647   23.9463 C   0  0  0  0  0  0  0  0  0  0  0  0
   13.5173  -18.0332   23.3302 C   0  0  0  0  0  0  0  0  0  0  0  0
   14.5338  -17.8126   24.0533 O   0  0  0  0  0  0  0  0  0  0  0  0
   10.4480  -18.1408   26.9750 C   0  0  0  0  0  0  0  0  0  0  0  0
   10.2122  -17.2238   27.7787 O   0  0  0  0  0  0  0  0  0  0  0  0
   13.5943  -17.8636   21.9324 O   0  0  0  0  0  0  0  0  0  0  0  0
   10.8237  -19.3638   27.5053 O   0  0  0  0  0  0  0  0  0  0  0  0
  2  1  1  0
  2 12  2  0
  3  2  1  0
  4  3  2  0
  4  5  1  0
  5 11  2  0
  6  5  1  0
  7  8  1  6
  7  6  1  0
  9  7  1  0
  9 10  2  0
 11 12  1  0
 13 14  1  0
 15 14  1  1
 15 16  1  0
 15 17  1  0
 16  9  1  0
 17 19  1  0
 18 17  2  0
 19 20  1  0
 20 25  1  0
 20 21  1  1
 22 21  1  0
 23 22  1  0
 23 24  2  0
 25 26  2  0
 25 28  1  0
 27 23  1  0
M  END
$$$$
