YSE.pdb
     RDKit          3D

 28 28  0  0  1  0  0  0  0  0999 V2000
    5.2741  -10.7496   27.7332 O   0  0  0  0  0  0  0  0  0  0  0  0
    6.0273  -11.7280   27.1121 C   0  0  0  0  0  0  0  0  0  0  0  0
    5.9178  -11.8947   25.7595 C   0  0  0  0  0  0  0  0  0  0  0  0
    6.6770  -12.8830   25.1269 C   0  0  0  0  0  0  0  0  0  0  0  0
    7.5220  -13.6720   25.8759 C   0  0  0  0  0  0  0  0  0  0  0  0
    8.3595  -14.7337   25.2619 C   0  0  0  0  0  0  0  0  0  0  0  0
    7.4704  -15.5798   24.3730 C   0  0  2  0  0  0  0  0  0  0  0  0
    6.5687  -16.4207   25.0933 N   0  0  0  0  0  0  0  0  0  0  0  0
    8.3179  -16.3833   23.4820 C   0  0  0  0  0  0  0  0  0  0  0  0
    8.5880  -17.5641   23.8531 O   0  0  0  0  0  0  0  0  0  0  0  0
    7.6127  -13.4797   27.2478 C   0  0  0  0  0  0  0  0  0  0  0  0
    6.8720  -12.5155   27.8643 C   0  0  0  0  0  0  0  0  0  0  0  0
   10.2827  -14.8665   20.0767 O   0  0  0  0  0  0  0  0  0  0  0  0
   10.0135  -16.2098   20.1577 C   0  0  0  0  0  0  0  0  0  0  0  0
    9.8483  -16.6294   21.5954 C   0  0  2  0  0  0  0  0  0  0  0  0
    8.8116  -15.8749   22.2754 N   0  0  0  0  0  0  0  0  0  0  0  0
   11.1178  -16.4229   22.3642 C   0  0  0  0  0  0  0  0  0  0  0  0
   11.1469  -15.5648   23.2967 O   0  0  0  0  0  0  0  0  0  0  0  0
   12.3006  -17.1274   22.1239 N   0  0  0  0  0  0  0  0  0  0  0  0
   13.5514  -16.8601   22.8969 C   0  0  1  0  0  0  0  0  0  0  0  0
   13.2014  -17.2141   24.2937 C   0  0  0  0  0  0  0  0  0  0  0  0
   12.9479  -18.6153   24.6622 C   0  0  0  0  0  0  0  0  0  0  0  0
   12.8342  -18.9481   26.0752 C   0  0  0  0  0  0  0  0  0  0  0  0
   13.7482  -19.6194   26.6396 O   0  0  0  0  0  0  0  0  0  0  0  0
   14.5949  -17.6322   22.2332 C   0  0  0  0  0  0  0  0  0  0  0  0
   14.3301  -18.4038   21.2967 O   0  0  0  0  0  0  0  0  0  0  0  0
   11.7112  -18.5224   26.8142 O   0  0  0  0  0  0  0  0  0  0  0  0
   15.9222  -17.5384   22.6175 O   0  0  0  0  0  0  0  0  0  0  0  0
  2  1  1  0
  2 12  2  0
  3  2  1  0
  4  3  2  0
  4  5  1  0
  5 11  2  0
  6  5  1  0
  7  8  1  1
  7  6  1  0
  9  7  1  0
  9 10  2  0
 11 12  1  0
 13 14  1  0
 15 14  1  6
 15 16  1  0
 15 17  1  0
 16  9  1  0
 17 19  1  0
 18 17  2  0
 19 20  1  0
 20 25  1  0
 20 21  1  1
 22 21  1  0
 23 22  1  0
 23 24  2  0
 25 26  2  0
 25 28  1  0
 27 23  1  0
M  END
$$$$
