YSE.pdb
     RDKit          3D

 28 28  0  0  1  0  0  0  0  0999 V2000
    7.2397  -15.6215   12.8493 O   0  0  0  0  0  0  0  0  0  0  0  0
    7.7376  -15.1690   14.0565 C   0  0  0  0  0  0  0  0  0  0  0  0
    7.8148  -13.8228   14.2827 C   0  0  0  0  0  0  0  0  0  0  0  0
    8.3180  -13.3602   15.5017 C   0  0  0  0  0  0  0  0  0  0  0  0
    8.7276  -14.2671   16.4541 C   0  0  0  0  0  0  0  0  0  0  0  0
    9.2646  -13.8389   17.7709 C   0  0  0  0  0  0  0  0  0  0  0  0
    8.1089  -13.7608   18.7479 C   0  0  2  0  0  0  0  0  0  0  0  0
    7.2842  -12.6082   18.5737 N   0  0  0  0  0  0  0  0  0  0  0  0
    8.6411  -13.8068   20.1163 C   0  0  0  0  0  0  0  0  0  0  0  0
    8.8341  -12.6978   20.6976 O   0  0  0  0  0  0  0  0  0  0  0  0
    8.6373  -15.6284   16.1966 C   0  0  0  0  0  0  0  0  0  0  0  0
    8.1462  -16.0790   15.0074 C   0  0  0  0  0  0  0  0  0  0  0  0
    7.8375  -16.4692   22.8912 O   0  0  0  0  0  0  0  0  0  0  0  0
    8.4525  -15.2711   23.1554 C   0  0  0  0  0  0  0  0  0  0  0  0
    9.4800  -14.9606   22.0980 C   0  0  2  0  0  0  0  0  0  0  0  0
    8.9275  -15.0174   20.7571 N   0  0  0  0  0  0  0  0  0  0  0  0
   10.6138  -15.9391   22.1475 C   0  0  0  0  0  0  0  0  0  0  0  0
   10.7446  -16.7865   21.2138 O   0  0  0  0  0  0  0  0  0  0  0  0
   11.5632  -15.9844   23.1721 N   0  0  0  0  0  0  0  0  0  0  0  0
   12.7113  -16.9408   23.1450 C   0  0  1  0  0  0  0  0  0  0  0  0
   13.4175  -16.6293   21.8788 C   0  0  0  0  0  0  0  0  0  0  0  0
   13.8838  -15.2610   21.6072 C   0  0  0  0  0  0  0  0  0  0  0  0
   14.5889  -15.0067   20.3589 C   0  0  0  0  0  0  0  0  0  0  0  0
   15.8212  -14.7140   20.3800 O   0  0  0  0  0  0  0  0  0  0  0  0
   13.4249  -16.7322   24.3991 C   0  0  0  0  0  0  0  0  0  0  0  0
   14.4724  -17.3481   24.6558 O   0  0  0  0  0  0  0  0  0  0  0  0
   13.9031  -15.0885   19.1294 O   0  0  0  0  0  0  0  0  0  0  0  0
   12.9665  -15.8408   25.3549 O   0  0  0  0  0  0  0  0  0  0  0  0
  2  1  1  0
  2 12  2  0
  3  2  1  0
  4  3  2  0
  4  5  1  0
  5 11  2  0
  6  5  1  0
  7  8  1  1
  7  6  1  0
  9  7  1  0
  9 10  2  0
 11 12  1  0
 13 14  1  0
 15 14  1  1
 15 16  1  0
 15 17  1  0
 16  9  1  0
 17 19  1  0
 18 17  2  0
 19 20  1  0
 20 25  1  0
 20 21  1  6
 22 21  1  0
 23 22  1  0
 23 24  2  0
 25 26  2  0
 25 28  1  0
 27 23  1  0
M  END
$$$$
