YSE.pdb
     RDKit          3D

 28 28  0  0  1  0  0  0  0  0999 V2000
    6.9770  -12.4341   17.4297 O   0  0  0  0  0  0  0  0  0  0  0  0
    7.4181  -13.2136   18.4823 C   0  0  0  0  0  0  0  0  0  0  0  0
    8.6927  -13.0452   18.9474 C   0  0  0  0  0  0  0  0  0  0  0  0
    9.1436  -13.8313   20.0114 C   0  0  0  0  0  0  0  0  0  0  0  0
    8.2974  -14.7618   20.5731 C   0  0  0  0  0  0  0  0  0  0  0  0
    8.7148  -15.6220   21.7095 C   0  0  0  0  0  0  0  0  0  0  0  0
   10.1649  -15.3151   22.0247 C   0  0  2  0  0  0  0  0  0  0  0  0
   11.0945  -16.0070   21.1902 N   0  0  0  0  0  0  0  0  0  0  0  0
   10.4185  -15.6239   23.4382 C   0  0  0  0  0  0  0  0  0  0  0  0
   11.2610  -16.5367   23.6870 O   0  0  0  0  0  0  0  0  0  0  0  0
    7.0082  -14.9106   20.0800 C   0  0  0  0  0  0  0  0  0  0  0  0
    6.5689  -14.1434   19.0422 C   0  0  0  0  0  0  0  0  0  0  0  0
    8.1304  -14.4107   26.6859 O   0  0  0  0  0  0  0  0  0  0  0  0
    9.4921  -14.3233   26.8339 C   0  0  0  0  0  0  0  0  0  0  0  0
   10.1897  -15.2081   25.8334 C   0  0  2  0  0  0  0  0  0  0  0  0
    9.7616  -14.9464   24.4715 N   0  0  0  0  0  0  0  0  0  0  0  0
    9.9125  -16.6544   26.1106 C   0  0  0  0  0  0  0  0  0  0  0  0
    8.8564  -17.1838   25.6510 O   0  0  0  0  0  0  0  0  0  0  0  0
   10.7563  -17.4834   26.8548 N   0  0  0  0  0  0  0  0  0  0  0  0
   10.4098  -18.9076   27.1465 C   0  0  1  0  0  0  0  0  0  0  0  0
   11.3366  -19.6917   26.2949 C   0  0  0  0  0  0  0  0  0  0  0  0
   12.6538  -20.0961   26.8094 C   0  0  0  0  0  0  0  0  0  0  0  0
   13.7019  -20.4149   25.8502 C   0  0  0  0  0  0  0  0  0  0  0  0
   13.4370  -20.4352   24.6116 O   0  0  0  0  0  0  0  0  0  0  0  0
   10.5200  -19.0494   28.5934 C   0  0  0  0  0  0  0  0  0  0  0  0
   10.9455  -18.1225   29.3021 O   0  0  0  0  0  0  0  0  0  0  0  0
   15.0088  -20.6978   26.2981 O   0  0  0  0  0  0  0  0  0  0  0  0
   10.1558  -20.2202   29.2373 O   0  0  0  0  0  0  0  0  0  0  0  0
  2  1  1  0
  2 12  2  0
  3  2  1  0
  4  3  2  0
  4  5  1  0
  5 11  2  0
  6  5  1  0
  7  8  1  6
  7  6  1  0
  9  7  1  0
  9 10  2  0
 11 12  1  0
 13 14  1  0
 15 14  1  1
 15 16  1  0
 15 17  1  0
 16  9  1  0
 17 19  1  0
 18 17  2  0
 19 20  1  0
 20 25  1  0
 20 21  1  6
 22 21  1  0
 23 22  1  0
 23 24  2  0
 25 26  2  0
 25 28  1  0
 27 23  1  0
M  END
$$$$
