YSE.pdb
     RDKit          3D

 28 28  0  0  1  0  0  0  0  0999 V2000
    8.7536  -12.2492   17.1492 O   0  0  0  0  0  0  0  0  0  0  0  0
    8.4682  -12.8290   18.3708 C   0  0  0  0  0  0  0  0  0  0  0  0
    7.2635  -12.5728   18.9645 C   0  0  0  0  0  0  0  0  0  0  0  0
    6.9702  -13.1564   20.2001 C   0  0  0  0  0  0  0  0  0  0  0  0
    7.8988  -13.9791   20.7987 C   0  0  0  0  0  0  0  0  0  0  0  0
    7.6441  -14.6341   22.1071 C   0  0  0  0  0  0  0  0  0  0  0  0
    7.1864  -16.0541   21.8417 C   0  0  2  0  0  0  0  0  0  0  0  0
    5.8968  -16.1397   21.2347 N   0  0  0  0  0  0  0  0  0  0  0  0
    7.2076  -16.8029   23.1052 C   0  0  0  0  0  0  0  0  0  0  0  0
    6.0880  -17.1047   23.6156 O   0  0  0  0  0  0  0  0  0  0  0  0
    9.1138  -14.2215   20.1721 C   0  0  0  0  0  0  0  0  0  0  0  0
    9.3992  -13.6520   18.9669 C   0  0  0  0  0  0  0  0  0  0  0  0
    8.4287  -19.9216   23.1955 O   0  0  0  0  0  0  0  0  0  0  0  0
    7.7600  -19.4691   24.3053 C   0  0  0  0  0  0  0  0  0  0  0  0
    8.3473  -18.1655   24.7806 C   0  0  2  0  0  0  0  0  0  0  0  0
    8.4066  -17.1695   23.7266 N   0  0  0  0  0  0  0  0  0  0  0  0
    9.7461  -18.3580   25.2821 C   0  0  0  0  0  0  0  0  0  0  0  0
   10.7114  -18.3184   24.4615 O   0  0  0  0  0  0  0  0  0  0  0  0
   10.0722  -18.5803   26.6228 N   0  0  0  0  0  0  0  0  0  0  0  0
   11.4834  -18.7849   27.0702 C   0  0  1  0  0  0  0  0  0  0  0  0
   11.4032  -18.7747   28.5509 C   0  0  0  0  0  0  0  0  0  0  0  0
   12.6009  -19.0466   29.3602 C   0  0  0  0  0  0  0  0  0  0  0  0
   12.4462  -19.1705   30.8027 C   0  0  0  0  0  0  0  0  0  0  0  0
   11.3003  -19.0399   31.3267 O   0  0  0  0  0  0  0  0  0  0  0  0
   11.9290  -20.0085   26.4146 C   0  0  0  0  0  0  0  0  0  0  0  0
   11.1460  -20.9491   26.2027 O   0  0  0  0  0  0  0  0  0  0  0  0
   13.5681  -19.4377   31.6143 O   0  0  0  0  0  0  0  0  0  0  0  0
   13.2404  -20.1737   26.0011 O   0  0  0  0  0  0  0  0  0  0  0  0
  2  1  1  0
  2 12  2  0
  3  2  1  0
  4  3  2  0
  4  5  1  0
  5 11  2  0
  6  5  1  0
  7  8  1  1
  7  6  1  0
  9  7  1  0
  9 10  2  0
 11 12  1  0
 13 14  1  0
 15 14  1  6
 15 16  1  0
 15 17  1  0
 16  9  1  0
 17 19  1  0
 18 17  2  0
 19 20  1  0
 20 25  1  0
 20 21  1  1
 22 21  1  0
 23 22  1  0
 23 24  2  0
 25 26  2  0
 25 28  1  0
 27 23  1  0
M  END
$$$$
