YSE.pdb
     RDKit          3D

 28 28  0  0  1  0  0  0  0  0999 V2000
   11.6236  -22.4702    8.7502 O   0  0  0  0  0  0  0  0  0  0  0  0
   11.9753  -22.0729   10.0264 C   0  0  0  0  0  0  0  0  0  0  0  0
   13.2708  -21.7171   10.2800 C   0  0  0  0  0  0  0  0  0  0  0  0
   13.6315  -21.3150   11.5691 C   0  0  0  0  0  0  0  0  0  0  0  0
   12.6769  -21.2839   12.5616 C   0  0  0  0  0  0  0  0  0  0  0  0
   12.9956  -20.8596   13.9486 C   0  0  0  0  0  0  0  0  0  0  0  0
   12.7616  -19.3658   14.0497 C   0  0  2  0  0  0  0  0  0  0  0  0
   13.7112  -18.5837   13.3248 N   0  0  0  0  0  0  0  0  0  0  0  0
   12.7582  -18.9814   15.4674 C   0  0  0  0  0  0  0  0  0  0  0  0
   13.8717  -18.6640   15.9816 O   0  0  0  0  0  0  0  0  0  0  0  0
   11.3689  -21.6505   12.2746 C   0  0  0  0  0  0  0  0  0  0  0  0
   11.0177  -22.0425   11.0171 C   0  0  0  0  0  0  0  0  0  0  0  0
    9.3811  -18.9732   18.0044 O   0  0  0  0  0  0  0  0  0  0  0  0
   10.3548  -18.0143   18.1309 C   0  0  0  0  0  0  0  0  0  0  0  0
   11.6711  -18.5259   17.6059 C   0  0  2  0  0  0  0  0  0  0  0  0
   11.5821  -18.9653   16.2255 N   0  0  0  0  0  0  0  0  0  0  0  0
   12.1511  -19.6963   18.4092 C   0  0  0  0  0  0  0  0  0  0  0  0
   11.8331  -20.8694   18.0492 O   0  0  0  0  0  0  0  0  0  0  0  0
   12.9464  -19.5859   19.5530 N   0  0  0  0  0  0  0  0  0  0  0  0
   13.4614  -20.7874   20.2774 C   0  0  1  0  0  0  0  0  0  0  0  0
   14.9070  -20.8214   19.9485 C   0  0  0  0  0  0  0  0  0  0  0  0
   15.8129  -19.7919   20.4805 C   0  0  0  0  0  0  0  0  0  0  0  0
   17.2283  -19.8800   20.1504 C   0  0  0  0  0  0  0  0  0  0  0  0
   18.0774  -20.0840   21.0680 O   0  0  0  0  0  0  0  0  0  0  0  0
   13.0781  -20.5989   21.6713 C   0  0  0  0  0  0  0  0  0  0  0  0
   12.4628  -19.5850   22.0401 O   0  0  0  0  0  0  0  0  0  0  0  0
   17.6529  -19.7414   18.8128 O   0  0  0  0  0  0  0  0  0  0  0  0
   13.3826  -21.5398   22.6410 O   0  0  0  0  0  0  0  0  0  0  0  0
  2  1  1  0
  2 12  2  0
  3  2  1  0
  4  3  2  0
  4  5  1  0
  5 11  2  0
  6  5  1  0
  7  8  1  6
  7  6  1  0
  9  7  1  0
  9 10  2  0
 11 12  1  0
 13 14  1  0
 15 14  1  1
 15 16  1  0
 15 17  1  0
 16  9  1  0
 17 19  1  0
 18 17  2  0
 19 20  1  0
 20 25  1  0
 20 21  1  1
 22 21  1  0
 23 22  1  0
 23 24  2  0
 25 26  2  0
 25 28  1  0
 27 23  1  0
M  END
$$$$
