YSE.pdb
     RDKit          3D

 28 28  0  0  1  0  0  0  0  0999 V2000
    5.0033  -10.5540   27.1058 O   0  0  0  0  0  0  0  0  0  0  0  0
    5.8500  -11.5439   26.6439 C   0  0  0  0  0  0  0  0  0  0  0  0
    5.3300  -12.5812   25.9207 C   0  0  0  0  0  0  0  0  0  0  0  0
    6.1821  -13.5849   25.4517 C   0  0  0  0  0  0  0  0  0  0  0  0
    7.5301  -13.5126   25.7256 C   0  0  0  0  0  0  0  0  0  0  0  0
    8.4874  -14.5435   25.2497 C   0  0  0  0  0  0  0  0  0  0  0  0
    7.6907  -15.7377   24.7644 C   0  0  2  0  0  0  0  0  0  0  0  0
    7.1296  -16.5222   25.8174 N   0  0  0  0  0  0  0  0  0  0  0  0
    8.5522  -16.5675   23.9118 C   0  0  0  0  0  0  0  0  0  0  0  0
    8.9368  -17.6773   24.3869 O   0  0  0  0  0  0  0  0  0  0  0  0
    8.0298  -12.4472   26.4622 C   0  0  0  0  0  0  0  0  0  0  0  0
    7.1982  -11.4684   26.9193 C   0  0  0  0  0  0  0  0  0  0  0  0
   10.1828  -15.4031   20.1511 O   0  0  0  0  0  0  0  0  0  0  0  0
    9.9655  -16.7203   20.4697 C   0  0  0  0  0  0  0  0  0  0  0  0
    9.9839  -16.9120   21.9640 C   0  0  2  0  0  0  0  0  0  0  0  0
    8.9382  -16.1579   22.6307 N   0  0  0  0  0  0  0  0  0  0  0  0
   11.2891  -16.4625   22.5469 C   0  0  0  0  0  0  0  0  0  0  0  0
   11.4186  -15.2602   22.9274 O   0  0  0  0  0  0  0  0  0  0  0  0
   12.4008  -17.2939   22.7086 N   0  0  0  0  0  0  0  0  0  0  0  0
   13.6494  -16.8232   23.3816 C   0  0  1  0  0  0  0  0  0  0  0  0
   13.6226  -17.4862   24.7078 C   0  0  0  0  0  0  0  0  0  0  0  0
   13.8262  -18.9390   24.8147 C   0  0  0  0  0  0  0  0  0  0  0  0
   13.9781  -19.5194   26.1415 C   0  0  0  0  0  0  0  0  0  0  0  0
   13.9253  -20.7764   26.2889 O   0  0  0  0  0  0  0  0  0  0  0  0
   14.7362  -17.1563   22.4687 C   0  0  0  0  0  0  0  0  0  0  0  0
   15.9079  -16.8238   22.7116 O   0  0  0  0  0  0  0  0  0  0  0  0
   14.1860  -18.6850   27.2592 O   0  0  0  0  0  0  0  0  0  0  0  0
   14.5090  -17.8557   21.2951 O   0  0  0  0  0  0  0  0  0  0  0  0
  2  1  1  0
  2 12  2  0
  3  2  1  0
  4  3  2  0
  4  5  1  0
  5 11  2  0
  6  5  1  0
  7  8  1  1
  7  6  1  0
  9  7  1  0
  9 10  2  0
 11 12  1  0
 13 14  1  0
 15 14  1  6
 15 16  1  0
 15 17  1  0
 16  9  1  0
 17 19  1  0
 18 17  2  0
 19 20  1  0
 20 25  1  0
 20 21  1  1
 22 21  1  0
 23 22  1  0
 23 24  2  0
 25 26  2  0
 25 28  1  0
 27 23  1  0
M  END
$$$$
