IPF.pdb
     RDKit          3D

 27 28  0  0  1  0  0  0  0  0999 V2000
    5.9724  -21.4581   24.4292 C   0  0  0  0  0  0  0  0  0  0  0  0
    5.8061  -20.6180   23.1980 C   0  0  0  0  0  0  0  0  0  0  0  0
    6.7164  -19.4307   23.1568 C   0  0  2  0  0  0  0  0  0  0  0  0
    6.6221  -18.5855   24.4074 C   0  0  0  0  0  0  0  0  0  0  0  0
    6.5672  -18.6066   21.8905 C   0  0  2  0  0  0  0  0  0  0  0  0
    6.6250  -19.5103   20.7808 N   0  0  0  0  0  0  0  0  0  0  0  0
    7.7133  -17.6794   21.8379 C   0  0  0  0  0  0  0  0  0  0  0  0
    8.8040  -18.2289   21.4215 O   0  0  0  0  0  0  0  0  0  0  0  0
    7.7373  -16.3171   22.1814 N   0  0  0  0  0  0  0  0  0  0  0  0
    6.6797  -15.5459   22.7345 C   0  0  0  0  0  0  0  0  0  0  0  0
    7.0412  -14.1052   22.3932 C   0  0  0  0  0  0  0  0  0  0  0  0
    8.2466  -14.2037   21.4778 C   0  0  0  0  0  0  0  0  0  0  0  0
    8.8874  -15.4608   22.0417 C   0  0  1  0  0  0  0  0  0  0  0  0
    9.4709  -15.0997   23.3649 C   0  0  0  0  0  0  0  0  0  0  0  0
   10.4030  -14.2672   23.5040 O   0  0  0  0  0  0  0  0  0  0  0  0
    8.9674  -15.7102   24.5306 N   0  0  0  0  0  0  0  0  0  0  0  0
    9.6382  -15.5177   25.8025 C   0  0  1  0  0  0  0  0  0  0  0  0
    8.6098  -15.2323   26.8963 C   0  0  0  0  0  0  0  0  0  0  0  0
    7.8164  -14.0132   26.6034 C   0  0  0  0  0  0  0  0  0  0  0  0
    6.4898  -14.1140   26.1901 C   0  0  0  0  0  0  0  0  0  0  0  0
    5.7120  -13.0125   25.9020 C   0  0  0  0  0  0  0  0  0  0  0  0
    6.2443  -11.7457   26.0194 C   0  0  0  0  0  0  0  0  0  0  0  0
    7.5436  -11.6049   26.4224 C   0  0  0  0  0  0  0  0  0  0  0  0
    8.3114  -12.7336   26.7085 C   0  0  0  0  0  0  0  0  0  0  0  0
   10.3126  -16.7872   26.1520 C   0  0  0  0  0  0  0  0  0  0  0  0
   11.0489  -16.8686   27.1660 O   0  0  0  0  0  0  0  0  0  0  0  0
   10.1794  -17.9467   25.4009 O   0  0  0  0  0  0  0  0  0  0  0  0
  2  3  1  0
  2  1  1  0
  3  5  1  0
  3  4  1  1
  5  6  1  6
  7  8  2  0
  7  5  1  0
  9  7  1  0
 10  9  1  0
 11 10  1  0
 12 11  1  0
 12 13  1  0
 13  9  1  0
 13 14  1  1
 14 15  2  0
 16 14  1  0
 17 16  1  0
 17 18  1  1
 19 18  1  0
 19 20  2  0
 21 20  1  0
 22 21  2  0
 23 24  2  0
 23 22  1  0
 24 19  1  0
 25 17  1  0
 26 25  2  0
 27 25  1  0
M  END
$$$$
