IPF.pdb
     RDKit          3D

 27 28  0  0  1  0  0  0  0  0999 V2000
    6.0444  -19.2837   24.5116 C   0  0  0  0  0  0  0  0  0  0  0  0
    6.0945  -18.3988   23.3018 C   0  0  0  0  0  0  0  0  0  0  0  0
    6.5156  -19.1128   22.0556 C   0  0  2  0  0  0  0  0  0  0  0  0
    7.7788  -19.9213   22.2508 C   0  0  0  0  0  0  0  0  0  0  0  0
    6.5940  -18.2030   20.8428 C   0  0  2  0  0  0  0  0  0  0  0  0
    6.8137  -19.0333   19.6967 N   0  0  0  0  0  0  0  0  0  0  0  0
    7.7530  -17.3124   21.0420 C   0  0  0  0  0  0  0  0  0  0  0  0
    8.8834  -17.8620   20.7503 O   0  0  0  0  0  0  0  0  0  0  0  0
    7.7514  -15.9834   21.4986 N   0  0  0  0  0  0  0  0  0  0  0  0
    6.6913  -15.2924   22.1451 C   0  0  0  0  0  0  0  0  0  0  0  0
    7.0034  -13.8183   21.9166 C   0  0  0  0  0  0  0  0  0  0  0  0
    8.1819  -13.8046   20.9618 C   0  0  0  0  0  0  0  0  0  0  0  0
    8.8732  -15.0853   21.3987 C   0  0  1  0  0  0  0  0  0  0  0  0
    9.4879  -14.8193   22.7303 C   0  0  0  0  0  0  0  0  0  0  0  0
   10.4207  -13.9948   22.9075 O   0  0  0  0  0  0  0  0  0  0  0  0
    9.0148  -15.5157   23.8599 N   0  0  0  0  0  0  0  0  0  0  0  0
    9.8384  -15.6209   25.0496 C   0  0  1  0  0  0  0  0  0  0  0  0
    9.9638  -14.2531   25.7195 C   0  0  0  0  0  0  0  0  0  0  0  0
    8.6381  -13.6860   26.0691 C   0  0  0  0  0  0  0  0  0  0  0  0
    7.4724  -14.4099   25.8285 C   0  0  0  0  0  0  0  0  0  0  0  0
    6.2172  -13.9260   26.1312 C   0  0  0  0  0  0  0  0  0  0  0  0
    6.0809  -12.6756   26.6967 C   0  0  0  0  0  0  0  0  0  0  0  0
    7.2017  -11.9336   26.9484 C   0  0  0  0  0  0  0  0  0  0  0  0
    8.4612  -12.4437   26.6337 C   0  0  0  0  0  0  0  0  0  0  0  0
    9.1428  -16.5153   26.0007 C   0  0  0  0  0  0  0  0  0  0  0  0
    9.6527  -16.7955   27.1136 O   0  0  0  0  0  0  0  0  0  0  0  0
    7.9084  -17.0909   25.7337 O   0  0  0  0  0  0  0  0  0  0  0  0
  2  3  1  0
  2  1  1  0
  3  5  1  0
  3  4  1  1
  5  6  1  6
  7  8  2  0
  7  5  1  0
  9  7  1  0
 10  9  1  0
 11 10  1  0
 12 11  1  0
 12 13  1  0
 13  9  1  0
 13 14  1  1
 14 15  2  0
 16 14  1  0
 17 16  1  0
 17 18  1  1
 19 18  1  0
 19 20  2  0
 21 20  1  0
 22 21  2  0
 23 24  2  0
 23 22  1  0
 24 19  1  0
 25 17  1  0
 26 25  2  0
 27 25  1  0
M  END
$$$$
