IPF.pdb
     RDKit          3D

 27 28  0  0  1  0  0  0  0  0999 V2000
    8.7834  -12.7907   27.2152 C   0  0  0  0  0  0  0  0  0  0  0  0
    7.8983  -13.9405   26.8360 C   0  0  0  0  0  0  0  0  0  0  0  0
    6.7916  -13.5607   25.9026 C   0  0  2  0  0  0  0  0  0  0  0  0
    5.9266  -12.4488   26.4528 C   0  0  0  0  0  0  0  0  0  0  0  0
    5.9733  -14.7492   25.4308 C   0  0  2  0  0  0  0  0  0  0  0  0
    5.5900  -15.4947   26.5920 N   0  0  0  0  0  0  0  0  0  0  0  0
    6.8530  -15.5717   24.5789 C   0  0  0  0  0  0  0  0  0  0  0  0
    6.8181  -16.8299   24.8625 O   0  0  0  0  0  0  0  0  0  0  0  0
    7.6902  -15.1424   23.5351 N   0  0  0  0  0  0  0  0  0  0  0  0
    7.9781  -13.8047   23.1519 C   0  0  0  0  0  0  0  0  0  0  0  0
    8.4479  -13.9163   21.7064 C   0  0  0  0  0  0  0  0  0  0  0  0
    8.2076  -15.3634   21.3206 C   0  0  0  0  0  0  0  0  0  0  0  0
    8.4330  -16.0233   22.6706 C   0  0  1  0  0  0  0  0  0  0  0  0
    9.8963  -15.9649   22.9481 C   0  0  0  0  0  0  0  0  0  0  0  0
   10.7674  -15.8847   22.0448 O   0  0  0  0  0  0  0  0  0  0  0  0
   10.3472  -15.9999   24.2824 N   0  0  0  0  0  0  0  0  0  0  0  0
   11.7565  -16.1882   24.5713 C   0  0  1  0  0  0  0  0  0  0  0  0
   12.2506  -15.0806   25.5011 C   0  0  0  0  0  0  0  0  0  0  0  0
   11.3336  -14.8735   26.6489 C   0  0  0  0  0  0  0  0  0  0  0  0
   11.4731  -15.6278   27.8119 C   0  0  0  0  0  0  0  0  0  0  0  0
   10.6447  -15.4764   28.9037 C   0  0  0  0  0  0  0  0  0  0  0  0
    9.6269  -14.5464   28.8703 C   0  0  0  0  0  0  0  0  0  0  0  0
    9.4573  -13.7861   27.7462 C   0  0  0  0  0  0  0  0  0  0  0  0
   10.3075  -13.9568   26.6538 C   0  0  0  0  0  0  0  0  0  0  0  0
   11.8996  -17.4694   25.2969 C   0  0  0  0  0  0  0  0  0  0  0  0
   10.8929  -18.1595   25.5921 O   0  0  0  0  0  0  0  0  0  0  0  0
   13.1274  -17.9833   25.6903 O   0  0  0  0  0  0  0  0  0  0  0  0
  2  3  1  0
  2  1  1  0
  3  5  1  0
  3  4  1  1
  5  6  1  1
  7  8  2  0
  7  5  1  0
  9  7  1  0
 10  9  1  0
 11 10  1  0
 12 11  1  0
 12 13  1  0
 13  9  1  0
 13 14  1  1
 14 15  2  0
 16 14  1  0
 17 16  1  0
 17 18  1  1
 19 18  1  0
 19 20  2  0
 21 20  1  0
 22 21  2  0
 23 24  2  0
 23 22  1  0
 24 19  1  0
 25 17  1  0
 26 25  2  0
 27 25  1  0
M  END
$$$$
