IPF.pdb
     RDKit          3D

 27 28  0  0  1  0  0  0  0  0999 V2000
    6.9747  -20.0135   24.5139 C   0  0  0  0  0  0  0  0  0  0  0  0
    7.3690  -19.5921   23.1297 C   0  0  0  0  0  0  0  0  0  0  0  0
    6.2746  -18.8974   22.3816 C   0  0  2  0  0  0  0  0  0  0  0  0
    5.0401  -19.7580   22.2306 C   0  0  0  0  0  0  0  0  0  0  0  0
    6.7339  -18.3097   21.0593 C   0  0  2  0  0  0  0  0  0  0  0  0
    7.2247  -19.3898   20.2569 N   0  0  0  0  0  0  0  0  0  0  0  0
    7.8330  -17.3725   21.3588 C   0  0  0  0  0  0  0  0  0  0  0  0
    9.0041  -17.8511   21.1050 O   0  0  0  0  0  0  0  0  0  0  0  0
    7.7384  -16.0676   21.8716 N   0  0  0  0  0  0  0  0  0  0  0  0
    6.5936  -15.4395   22.4319 C   0  0  0  0  0  0  0  0  0  0  0  0
    6.8778  -13.9477   22.3041 C   0  0  0  0  0  0  0  0  0  0  0  0
    8.1489  -13.8540   21.4817 C   0  0  0  0  0  0  0  0  0  0  0  0
    8.8335  -15.1336   21.9320 C   0  0  1  0  0  0  0  0  0  0  0  0
    9.2956  -14.9142   23.3320 C   0  0  0  0  0  0  0  0  0  0  0  0
    9.9976  -13.9310   23.6810 O   0  0  0  0  0  0  0  0  0  0  0  0
    8.9392  -15.8431   24.3296 N   0  0  0  0  0  0  0  0  0  0  0  0
    9.4029  -15.6634   25.6925 C   0  0  1  0  0  0  0  0  0  0  0  0
    8.2083  -15.5288   26.6361 C   0  0  0  0  0  0  0  0  0  0  0  0
    7.5983  -14.1781   26.5652 C   0  0  0  0  0  0  0  0  0  0  0  0
    8.3439  -13.0465   26.8880 C   0  0  0  0  0  0  0  0  0  0  0  0
    7.8225  -11.7709   26.8420 C   0  0  0  0  0  0  0  0  0  0  0  0
    6.5103  -11.5781   26.4640 C   0  0  0  0  0  0  0  0  0  0  0  0
    5.7453  -12.6642   26.1393 C   0  0  0  0  0  0  0  0  0  0  0  0
    6.2942  -13.9453   26.1931 C   0  0  0  0  0  0  0  0  0  0  0  0
   10.1372  -16.8868   26.0828 C   0  0  0  0  0  0  0  0  0  0  0  0
   10.6863  -16.9780   27.2085 O   0  0  0  0  0  0  0  0  0  0  0  0
   10.2652  -17.9905   25.2511 O   0  0  0  0  0  0  0  0  0  0  0  0
  2  3  1  0
  2  1  1  0
  3  5  1  0
  3  4  1  6
  5  6  1  6
  7  8  2  0
  7  5  1  0
  9  7  1  0
 10  9  1  0
 11 10  1  0
 12 11  1  0
 12 13  1  0
 13  9  1  0
 13 14  1  1
 14 15  2  0
 16 14  1  0
 17 16  1  0
 17 18  1  1
 19 18  1  0
 19 20  2  0
 21 20  1  0
 22 21  2  0
 23 24  2  0
 23 22  1  0
 24 19  1  0
 25 17  1  0
 26 25  2  0
 27 25  1  0
M  END
$$$$
