YID.pdb
     RDKit          3D

 29 29  0  0  1  0  0  0  0  0999 V2000
   12.5875  -17.0108   32.5144 O   0  0  0  0  0  0  0  0  0  0  0  0
   11.9948  -16.9360   31.2475 C   0  0  0  0  0  0  0  0  0  0  0  0
   11.2717  -15.7940   30.9267 C   0  0  0  0  0  0  0  0  0  0  0  0
   10.6828  -15.7011   29.6894 C   0  0  0  0  0  0  0  0  0  0  0  0
   10.8123  -16.7248   28.7923 C   0  0  0  0  0  0  0  0  0  0  0  0
   10.1888  -16.6434   27.4627 C   0  0  0  0  0  0  0  0  0  0  0  0
    8.7160  -16.9770   27.4834 C   0  0  2  0  0  0  0  0  0  0  0  0
    8.4902  -18.3979   27.6100 N   0  0  0  0  0  0  0  0  0  0  0  0
    8.1501  -16.5439   26.1744 C   0  0  0  0  0  0  0  0  0  0  0  0
    7.5373  -17.3608   25.4425 O   0  0  0  0  0  0  0  0  0  0  0  0
   11.5289  -17.8700   29.0944 C   0  0  0  0  0  0  0  0  0  0  0  0
   12.1154  -17.9592   30.3305 C   0  0  0  0  0  0  0  0  0  0  0  0
    6.5857  -11.5546   25.9880 C   0  0  0  0  0  0  0  0  0  0  0  0
    6.2636  -13.0033   25.5505 C   0  0  0  0  0  0  0  0  0  0  0  0
    7.2428  -13.3846   24.5111 C   0  0  2  0  0  0  0  0  0  0  0  0
    6.6211  -13.0114   23.1551 C   0  0  0  0  0  0  0  0  0  0  0  0
    7.5989  -14.8499   24.4626 C   0  0  2  0  0  0  0  0  0  0  0  0
    8.2810  -15.2118   25.7135 N   0  0  0  0  0  0  0  0  0  0  0  0
    8.5973  -15.0784   23.4003 C   0  0  0  0  0  0  0  0  0  0  0  0
    9.7532  -14.5133   23.4414 O   0  0  0  0  0  0  0  0  0  0  0  0
    8.4212  -15.9150   22.2584 N   0  0  0  0  0  0  0  0  0  0  0  0
    9.5198  -16.1912   21.3872 C   0  0  1  0  0  0  0  0  0  0  0  0
   10.6361  -15.1742   21.4974 C   0  0  0  0  0  0  0  0  0  0  0  0
   11.7131  -15.3616   20.5243 C   0  0  0  0  0  0  0  0  0  0  0  0
   12.6036  -16.2144   20.7496 O   0  0  0  0  0  0  0  0  0  0  0  0
   10.0532  -17.5325   21.6827 C   0  0  0  0  0  0  0  0  0  0  0  0
   10.1542  -18.0682   22.9489 O   0  0  0  0  0  0  0  0  0  0  0  0
   11.8001  -14.6316   19.3462 O   0  0  0  0  0  0  0  0  0  0  0  0
   10.4484  -18.2484   20.7115 O   0  0  0  0  0  0  0  0  0  0  0  0
  2  3  2  0
  2  1  1  0
  4  3  1  0
  5  4  2  0
  6  5  1  0
  7  6  1  0
  7  8  1  6
  9 18  1  0
  9  7  1  0
 10  9  2  0
 11  5  1  0
 11 12  2  0
 12  2  1  0
 13 14  1  0
 14 15  1  0
 15 17  1  0
 15 16  1  6
 17 18  1  1
 19 17  1  0
 20 19  2  0
 21 19  1  0
 22 26  1  0
 22 21  1  0
 23 24  1  0
 22 23  1  1
 24 25  2  0
 26 27  1  0
 28 24  1  0
 29 26  2  0
M  END
$$$$
