YID.pdb
     RDKit          3D

 29 29  0  0  1  0  0  0  0  0999 V2000
    7.1946  -21.8778   18.7485 O   0  0  0  0  0  0  0  0  0  0  0  0
    7.5739  -20.9167   19.6942 C   0  0  0  0  0  0  0  0  0  0  0  0
    6.5735  -20.2297   20.3703 C   0  0  0  0  0  0  0  0  0  0  0  0
    6.9244  -19.2832   21.3017 C   0  0  0  0  0  0  0  0  0  0  0  0
    8.2441  -19.0279   21.5528 C   0  0  0  0  0  0  0  0  0  0  0  0
    8.6392  -18.0181   22.5465 C   0  0  0  0  0  0  0  0  0  0  0  0
    8.4462  -16.6033   22.0545 C   0  0  2  0  0  0  0  0  0  0  0  0
    9.1242  -16.3750   20.8000 N   0  0  0  0  0  0  0  0  0  0  0  0
    9.0570  -15.6992   23.0699 C   0  0  0  0  0  0  0  0  0  0  0  0
   10.2731  -15.3913   23.0007 O   0  0  0  0  0  0  0  0  0  0  0  0
    9.2542  -19.7025   20.8889 C   0  0  0  0  0  0  0  0  0  0  0  0
    8.9000  -20.6466   19.9599 C   0  0  0  0  0  0  0  0  0  0  0  0
    5.8674  -12.8166   26.8172 C   0  0  0  0  0  0  0  0  0  0  0  0
    6.7403  -13.9337   26.1977 C   0  0  0  0  0  0  0  0  0  0  0  0
    7.9541  -13.2975   25.6441 C   0  0  2  0  0  0  0  0  0  0  0  0
    7.4915  -12.3640   24.5131 C   0  0  0  0  0  0  0  0  0  0  0  0
    8.9758  -14.2449   25.0654 C   0  0  2  0  0  0  0  0  0  0  0  0
    8.2979  -15.1608   24.1366 N   0  0  0  0  0  0  0  0  0  0  0  0
    9.5081  -15.1085   26.1370 C   0  0  0  0  0  0  0  0  0  0  0  0
   10.2120  -14.6191   27.0974 O   0  0  0  0  0  0  0  0  0  0  0  0
    9.3146  -16.5177   26.2437 N   0  0  0  0  0  0  0  0  0  0  0  0
    9.9896  -17.2663   27.2568 C   0  0  1  0  0  0  0  0  0  0  0  0
    9.7225  -18.7544   27.1736 C   0  0  0  0  0  0  0  0  0  0  0  0
    9.7510  -19.4396   28.4665 C   0  0  0  0  0  0  0  0  0  0  0  0
   10.8201  -19.4754   29.1198 O   0  0  0  0  0  0  0  0  0  0  0  0
   11.4399  -17.0263   27.1579 C   0  0  0  0  0  0  0  0  0  0  0  0
   12.1718  -17.1502   25.9962 O   0  0  0  0  0  0  0  0  0  0  0  0
    8.6370  -20.0615   29.0147 O   0  0  0  0  0  0  0  0  0  0  0  0
   12.0642  -16.6826   28.2086 O   0  0  0  0  0  0  0  0  0  0  0  0
  2  3  2  0
  2  1  1  0
  4  3  1  0
  5  4  2  0
  6  5  1  0
  7  6  1  0
  7  8  1  6
  9 18  1  0
  9  7  1  0
 10  9  2  0
 11  5  1  0
 11 12  2  0
 12  2  1  0
 13 14  1  0
 14 15  1  0
 15 17  1  0
 15 16  1  6
 17 18  1  6
 19 17  1  0
 20 19  2  0
 21 19  1  0
 22 26  1  0
 22 21  1  0
 23 24  1  0
 22 23  1  6
 24 25  2  0
 26 27  1  0
 28 24  1  0
 29 26  2  0
M  END
$$$$
