YID.pdb
     RDKit          3D

 29 29  0  0  1  0  0  0  0  0999 V2000
    7.2016  -14.1154   15.5341 O   0  0  0  0  0  0  0  0  0  0  0  0
    7.6954  -14.1011   16.8447 C   0  0  0  0  0  0  0  0  0  0  0  0
    7.3851  -13.0139   17.6520 C   0  0  0  0  0  0  0  0  0  0  0  0
    7.8596  -12.9808   18.9404 C   0  0  0  0  0  0  0  0  0  0  0  0
    8.6268  -14.0094   19.4128 C   0  0  0  0  0  0  0  0  0  0  0  0
    9.1440  -13.9916   20.7896 C   0  0  0  0  0  0  0  0  0  0  0  0
    8.8122  -15.2488   21.5578 C   0  0  2  0  0  0  0  0  0  0  0  0
    7.3918  -15.5096   21.5711 N   0  0  0  0  0  0  0  0  0  0  0  0
    9.2449  -15.0284   22.9669 C   0  0  0  0  0  0  0  0  0  0  0  0
   10.4536  -14.8177   23.2376 O   0  0  0  0  0  0  0  0  0  0  0  0
    8.9461  -15.1005   18.6230 C   0  0  0  0  0  0  0  0  0  0  0  0
    8.4705  -15.1301   17.3374 C   0  0  0  0  0  0  0  0  0  0  0  0
    6.3017  -11.9814   26.2146 C   0  0  0  0  0  0  0  0  0  0  0  0
    7.4746  -12.6205   25.4338 C   0  0  0  0  0  0  0  0  0  0  0  0
    7.8194  -13.8910   26.1058 C   0  0  2  0  0  0  0  0  0  0  0  0
    8.4136  -13.5235   27.4756 C   0  0  0  0  0  0  0  0  0  0  0  0
    8.8282  -14.7517   25.3863 C   0  0  2  0  0  0  0  0  0  0  0  0
    8.3206  -15.0482   24.0389 N   0  0  0  0  0  0  0  0  0  0  0  0
    8.9246  -16.0621   26.0578 C   0  0  0  0  0  0  0  0  0  0  0  0
    8.4703  -17.1299   25.5005 O   0  0  0  0  0  0  0  0  0  0  0  0
    9.5085  -16.3009   27.3372 N   0  0  0  0  0  0  0  0  0  0  0  0
   10.3065  -17.4647   27.5628 C   0  0  1  0  0  0  0  0  0  0  0  0
   11.5113  -17.5454   26.6492 C   0  0  0  0  0  0  0  0  0  0  0  0
   11.4198  -18.5930   25.6313 C   0  0  0  0  0  0  0  0  0  0  0  0
   10.3955  -19.3137   25.5812 O   0  0  0  0  0  0  0  0  0  0  0  0
   10.7577  -17.4841   28.9653 C   0  0  0  0  0  0  0  0  0  0  0  0
   10.9315  -16.3589   29.7426 O   0  0  0  0  0  0  0  0  0  0  0  0
   12.4253  -18.8329   24.7040 O   0  0  0  0  0  0  0  0  0  0  0  0
   11.0054  -18.6085   29.5004 O   0  0  0  0  0  0  0  0  0  0  0  0
  2  3  2  0
  2  1  1  0
  4  3  1  0
  5  4  2  0
  6  5  1  0
  7  6  1  0
  7  8  1  1
  9 18  1  0
  9  7  1  0
 10  9  2  0
 11  5  1  0
 11 12  2  0
 12  2  1  0
 13 14  1  0
 14 15  1  0
 15 17  1  0
 15 16  1  1
 17 18  1  6
 19 17  1  0
 20 19  2  0
 21 19  1  0
 22 26  1  0
 22 21  1  0
 23 24  1  0
 22 23  1  6
 24 25  2  0
 26 27  1  0
 28 24  1  0
 29 26  2  0
M  END
$$$$
