YID.pdb
     RDKit          3D

 29 29  0  0  1  0  0  0  0  0999 V2000
    5.0836  -19.4700   17.0040 O   0  0  0  0  0  0  0  0  0  0  0  0
    5.7650  -18.8869   18.0798 C   0  0  0  0  0  0  0  0  0  0  0  0
    5.0252  -18.4781   19.1824 C   0  0  0  0  0  0  0  0  0  0  0  0
    5.6746  -17.9040   20.2477 C   0  0  0  0  0  0  0  0  0  0  0  0
    7.0319  -17.7413   20.2138 C   0  0  0  0  0  0  0  0  0  0  0  0
    7.7446  -17.1286   21.3451 C   0  0  0  0  0  0  0  0  0  0  0  0
    7.6372  -15.6222   21.3603 C   0  0  2  0  0  0  0  0  0  0  0  0
    8.3012  -15.0262   20.2246 N   0  0  0  0  0  0  0  0  0  0  0  0
    8.3304  -15.1459   22.5908 C   0  0  0  0  0  0  0  0  0  0  0  0
    9.5442  -14.8237   22.5551 O   0  0  0  0  0  0  0  0  0  0  0  0
    7.7851  -18.1425   19.1240 C   0  0  0  0  0  0  0  0  0  0  0  0
    7.1334  -18.7152   18.0624 C   0  0  0  0  0  0  0  0  0  0  0  0
    5.7795  -12.0070   26.2409 C   0  0  0  0  0  0  0  0  0  0  0  0
    6.8399  -12.5461   25.2516 C   0  0  0  0  0  0  0  0  0  0  0  0
    7.4554  -13.7422   25.8640 C   0  0  2  0  0  0  0  0  0  0  0  0
    8.2508  -13.2570   27.0874 C   0  0  0  0  0  0  0  0  0  0  0  0
    8.4048  -14.5089   24.9766 C   0  0  2  0  0  0  0  0  0  0  0  0
    7.6541  -15.0405   23.8299 N   0  0  0  0  0  0  0  0  0  0  0  0
    8.8994  -15.6978   25.6971 C   0  0  0  0  0  0  0  0  0  0  0  0
    8.0924  -16.6205   26.0904 O   0  0  0  0  0  0  0  0  0  0  0  0
   10.2616  -15.9656   26.0249 N   0  0  0  0  0  0  0  0  0  0  0  0
   10.6337  -17.2169   26.6063 C   0  0  1  0  0  0  0  0  0  0  0  0
   12.0502  -17.6316   26.2684 C   0  0  0  0  0  0  0  0  0  0  0  0
   12.4372  -17.3615   24.8830 C   0  0  0  0  0  0  0  0  0  0  0  0
   11.7240  -17.7982   23.9493 O   0  0  0  0  0  0  0  0  0  0  0  0
   10.4860  -17.1393   28.0703 C   0  0  0  0  0  0  0  0  0  0  0  0
   10.6236  -18.2128   28.9243 O   0  0  0  0  0  0  0  0  0  0  0  0
   13.5715  -16.6351   24.5451 O   0  0  0  0  0  0  0  0  0  0  0  0
   10.2134  -16.0121   28.5869 O   0  0  0  0  0  0  0  0  0  0  0  0
  2  3  2  0
  2  1  1  0
  4  3  1  0
  5  4  2  0
  6  5  1  0
  7  6  1  0
  7  8  1  6
  9 18  1  0
  9  7  1  0
 10  9  2  0
 11  5  1  0
 11 12  2  0
 12  2  1  0
 13 14  1  0
 14 15  1  0
 15 17  1  0
 15 16  1  1
 17 18  1  6
 19 17  1  0
 20 19  2  0
 21 19  1  0
 22 26  1  0
 22 21  1  0
 23 24  1  0
 22 23  1  1
 24 25  2  0
 26 27  1  0
 28 24  1  0
 29 26  2  0
M  END
$$$$
