YID.pdb
     RDKit          3D

 29 29  0  0  1  0  0  0  0  0999 V2000
    5.8278  -17.8333   15.7948 O   0  0  0  0  0  0  0  0  0  0  0  0
    6.4229  -17.4430   17.0011 C   0  0  0  0  0  0  0  0  0  0  0  0
    5.7381  -17.6947   18.1833 C   0  0  0  0  0  0  0  0  0  0  0  0
    6.3045  -17.3198   19.3770 C   0  0  0  0  0  0  0  0  0  0  0  0
    7.5270  -16.7074   19.3909 C   0  0  0  0  0  0  0  0  0  0  0  0
    8.1494  -16.2987   20.6593 C   0  0  0  0  0  0  0  0  0  0  0  0
    7.8974  -14.8483   20.9965 C   0  0  2  0  0  0  0  0  0  0  0  0
    8.5489  -13.9600   20.0625 N   0  0  0  0  0  0  0  0  0  0  0  0
    8.4886  -14.6022   22.3424 C   0  0  0  0  0  0  0  0  0  0  0  0
    9.6773  -14.2115   22.4554 O   0  0  0  0  0  0  0  0  0  0  0  0
    8.2238  -16.4486   18.2231 C   0  0  0  0  0  0  0  0  0  0  0  0
    7.6551  -16.8243   17.0334 C   0  0  0  0  0  0  0  0  0  0  0  0
    5.5316  -12.2171   26.1723 C   0  0  0  0  0  0  0  0  0  0  0  0
    6.7400  -12.5357   25.2601 C   0  0  0  0  0  0  0  0  0  0  0  0
    7.3069  -13.8266   25.7036 C   0  0  2  0  0  0  0  0  0  0  0  0
    7.9496  -13.5820   27.0789 C   0  0  0  0  0  0  0  0  0  0  0  0
    8.3653  -14.4134   24.8026 C   0  0  2  0  0  0  0  0  0  0  0  0
    7.7409  -14.7975   23.5284 N   0  0  0  0  0  0  0  0  0  0  0  0
    8.8611  -15.6758   25.3838 C   0  0  0  0  0  0  0  0  0  0  0  0
    8.0541  -16.6349   25.6773 O   0  0  0  0  0  0  0  0  0  0  0  0
   10.2245  -15.9808   25.6719 N   0  0  0  0  0  0  0  0  0  0  0  0
   10.5859  -17.2638   26.1872 C   0  0  1  0  0  0  0  0  0  0  0  0
   12.0041  -17.6654   25.8407 C   0  0  0  0  0  0  0  0  0  0  0  0
   12.4417  -18.9133   26.4678 C   0  0  0  0  0  0  0  0  0  0  0  0
   11.5862  -19.7665   26.8014 O   0  0  0  0  0  0  0  0  0  0  0  0
   10.4240  -17.2662   27.6516 C   0  0  0  0  0  0  0  0  0  0  0  0
   10.0165  -18.3583   28.3877 O   0  0  0  0  0  0  0  0  0  0  0  0
   13.7765  -19.2048   26.7158 O   0  0  0  0  0  0  0  0  0  0  0  0
   10.6741  -16.1944   28.2847 O   0  0  0  0  0  0  0  0  0  0  0  0
  2  3  2  0
  2  1  1  0
  4  3  1  0
  5  4  2  0
  6  5  1  0
  7  6  1  0
  7  8  1  6
  9 18  1  0
  9  7  1  0
 10  9  2  0
 11  5  1  0
 11 12  2  0
 12  2  1  0
 13 14  1  0
 14 15  1  0
 15 17  1  0
 15 16  1  1
 17 18  1  6
 19 17  1  0
 20 19  2  0
 21 19  1  0
 22 26  1  0
 22 21  1  0
 23 24  1  0
 22 23  1  1
 24 25  2  0
 26 27  1  0
 28 24  1  0
 29 26  2  0
M  END
$$$$
