YID.pdb
     RDKit          3D

 29 29  0  0  1  0  0  0  0  0999 V2000
    3.3477  -22.1863   21.2996 O   0  0  0  0  0  0  0  0  0  0  0  0
    4.1498  -21.2341   21.9412 C   0  0  0  0  0  0  0  0  0  0  0  0
    4.5726  -21.4974   23.2381 C   0  0  0  0  0  0  0  0  0  0  0  0
    5.3598  -20.5764   23.8847 C   0  0  0  0  0  0  0  0  0  0  0  0
    5.7174  -19.4184   23.2515 C   0  0  0  0  0  0  0  0  0  0  0  0
    6.5598  -18.4203   23.9279 C   0  0  0  0  0  0  0  0  0  0  0  0
    6.7107  -17.1444   23.1340 C   0  0  2  0  0  0  0  0  0  0  0  0
    7.3304  -17.3816   21.8512 N   0  0  0  0  0  0  0  0  0  0  0  0
    7.6114  -16.2478   23.9126 C   0  0  0  0  0  0  0  0  0  0  0  0
    8.8303  -16.1589   23.6215 O   0  0  0  0  0  0  0  0  0  0  0  0
    5.3057  -19.1391   21.9598 C   0  0  0  0  0  0  0  0  0  0  0  0
    4.5199  -20.0609   21.3174 C   0  0  0  0  0  0  0  0  0  0  0  0
    5.5113  -12.0037   26.7884 C   0  0  0  0  0  0  0  0  0  0  0  0
    6.5533  -12.5988   25.8116 C   0  0  0  0  0  0  0  0  0  0  0  0
    7.3217  -13.6243   26.5480 C   0  0  2  0  0  0  0  0  0  0  0  0
    8.3389  -12.8749   27.4245 C   0  0  0  0  0  0  0  0  0  0  0  0
    8.0891  -14.5995   25.6899 C   0  0  2  0  0  0  0  0  0  0  0  0
    7.1317  -15.4728   24.9958 N   0  0  0  0  0  0  0  0  0  0  0  0
    8.8759  -15.5011   26.5534 C   0  0  0  0  0  0  0  0  0  0  0  0
    8.2991  -16.3714   27.3066 O   0  0  0  0  0  0  0  0  0  0  0  0
   10.2986  -15.5270   26.6527 N   0  0  0  0  0  0  0  0  0  0  0  0
   10.9540  -16.5601   27.3912 C   0  0  1  0  0  0  0  0  0  0  0  0
   12.2605  -17.0007   26.7656 C   0  0  0  0  0  0  0  0  0  0  0  0
   12.9908  -17.9990   27.5481 C   0  0  0  0  0  0  0  0  0  0  0  0
   12.4379  -18.5253   28.5423 O   0  0  0  0  0  0  0  0  0  0  0  0
   11.2060  -16.0941   28.7661 C   0  0  0  0  0  0  0  0  0  0  0  0
   11.5350  -16.9200   29.8197 O   0  0  0  0  0  0  0  0  0  0  0  0
   14.2846  -18.3988   27.2406 O   0  0  0  0  0  0  0  0  0  0  0  0
   11.1156  -14.8502   29.0040 O   0  0  0  0  0  0  0  0  0  0  0  0
  2  3  2  0
  2  1  1  0
  4  3  1  0
  5  4  2  0
  6  5  1  0
  7  6  1  0
  7  8  1  6
  9 18  1  0
  9  7  1  0
 10  9  2  0
 11  5  1  0
 11 12  2  0
 12  2  1  0
 13 14  1  0
 14 15  1  0
 15 17  1  0
 15 16  1  1
 17 18  1  1
 19 17  1  0
 20 19  2  0
 21 19  1  0
 22 26  1  0
 22 21  1  0
 23 24  1  0
 22 23  1  6
 24 25  2  0
 26 27  1  0
 28 24  1  0
 29 26  2  0
M  END
$$$$
