YID.pdb
     RDKit          3D

 29 29  0  0  1  0  0  0  0  0999 V2000
    7.6692  -14.2582   15.3171 O   0  0  0  0  0  0  0  0  0  0  0  0
    8.0397  -14.1734   16.6652 C   0  0  0  0  0  0  0  0  0  0  0  0
    7.4728  -13.1696   17.4405 C   0  0  0  0  0  0  0  0  0  0  0  0
    7.8229  -13.0695   18.7648 C   0  0  0  0  0  0  0  0  0  0  0  0
    8.7186  -13.9511   19.3035 C   0  0  0  0  0  0  0  0  0  0  0  0
    9.1057  -13.8596   20.7195 C   0  0  0  0  0  0  0  0  0  0  0  0
    8.6156  -15.0296   21.5391 C   0  0  2  0  0  0  0  0  0  0  0  0
    7.1760  -15.1408   21.5069 N   0  0  0  0  0  0  0  0  0  0  0  0
    9.0182  -14.7747   22.9513 C   0  0  0  0  0  0  0  0  0  0  0  0
   10.2098  -14.4949   23.2344 O   0  0  0  0  0  0  0  0  0  0  0  0
    9.2934  -14.9574   18.5464 C   0  0  0  0  0  0  0  0  0  0  0  0
    8.9415  -15.0542   17.2248 C   0  0  0  0  0  0  0  0  0  0  0  0
    5.8950  -12.0214   26.4417 C   0  0  0  0  0  0  0  0  0  0  0  0
    7.1027  -12.5219   25.6143 C   0  0  0  0  0  0  0  0  0  0  0  0
    7.4859  -13.8490   26.1403 C   0  0  2  0  0  0  0  0  0  0  0  0
    7.9981  -13.6293   27.5734 C   0  0  0  0  0  0  0  0  0  0  0  0
    8.5708  -14.5621   25.3717 C   0  0  2  0  0  0  0  0  0  0  0  0
    8.0834  -14.8379   24.0125 N   0  0  0  0  0  0  0  0  0  0  0  0
    8.8075  -15.8892   25.9719 C   0  0  0  0  0  0  0  0  0  0  0  0
    7.8448  -16.7294   26.1288 O   0  0  0  0  0  0  0  0  0  0  0  0
   10.0661  -16.3862   26.4233 N   0  0  0  0  0  0  0  0  0  0  0  0
   10.1684  -17.6979   26.9811 C   0  0  1  0  0  0  0  0  0  0  0  0
   11.5441  -18.3084   26.8160 C   0  0  0  0  0  0  0  0  0  0  0  0
   12.0545  -18.2688   25.4449 C   0  0  0  0  0  0  0  0  0  0  0  0
   11.2468  -18.3027   24.4871 O   0  0  0  0  0  0  0  0  0  0  0  0
    9.8272  -17.6483   28.4136 C   0  0  0  0  0  0  0  0  0  0  0  0
    9.3978  -18.7322   29.1493 O   0  0  0  0  0  0  0  0  0  0  0  0
   13.4087  -18.1943   25.1465 O   0  0  0  0  0  0  0  0  0  0  0  0
    9.9329  -16.5365   29.0174 O   0  0  0  0  0  0  0  0  0  0  0  0
  2  3  2  0
  2  1  1  0
  4  3  1  0
  5  4  2  0
  6  5  1  0
  7  6  1  0
  7  8  1  1
  9 18  1  0
  9  7  1  0
 10  9  2  0
 11  5  1  0
 11 12  2  0
 12  2  1  0
 13 14  1  0
 14 15  1  0
 15 17  1  0
 15 16  1  1
 17 18  1  6
 19 17  1  0
 20 19  2  0
 21 19  1  0
 22 26  1  0
 22 21  1  0
 23 24  1  0
 22 23  1  1
 24 25  2  0
 26 27  1  0
 28 24  1  0
 29 26  2  0
M  END
$$$$
