YID.pdb
     RDKit          3D

 29 29  0  0  1  0  0  0  0  0999 V2000
    6.7190  -13.9878   15.4055 O   0  0  0  0  0  0  0  0  0  0  0  0
    6.9385  -14.2544   16.7629 C   0  0  0  0  0  0  0  0  0  0  0  0
    7.2616  -13.1917   17.5974 C   0  0  0  0  0  0  0  0  0  0  0  0
    7.4806  -13.4321   18.9318 C   0  0  0  0  0  0  0  0  0  0  0  0
    7.3795  -14.7043   19.4227 C   0  0  0  0  0  0  0  0  0  0  0  0
    7.6106  -14.9811   20.8486 C   0  0  0  0  0  0  0  0  0  0  0  0
    8.7341  -14.1576   21.4321 C   0  0  2  0  0  0  0  0  0  0  0  0
    9.9891  -14.4145   20.7651 N   0  0  0  0  0  0  0  0  0  0  0  0
    8.8860  -14.5702   22.8563 C   0  0  0  0  0  0  0  0  0  0  0  0
    9.9399  -15.1298   23.2495 O   0  0  0  0  0  0  0  0  0  0  0  0
    7.0586  -15.7752   18.6063 C   0  0  0  0  0  0  0  0  0  0  0  0
    6.8407  -15.5314   17.2748 C   0  0  0  0  0  0  0  0  0  0  0  0
    5.6740  -11.7318   26.4617 C   0  0  0  0  0  0  0  0  0  0  0  0
    6.9375  -12.1987   25.7006 C   0  0  0  0  0  0  0  0  0  0  0  0
    7.1377  -13.6315   26.0031 C   0  0  2  0  0  0  0  0  0  0  0  0
    7.4946  -13.7261   27.4958 C   0  0  0  0  0  0  0  0  0  0  0  0
    8.2388  -14.3103   25.2263 C   0  0  2  0  0  0  0  0  0  0  0  0
    7.8601  -14.3492   23.8064 N   0  0  0  0  0  0  0  0  0  0  0  0
    8.3318  -15.7241   25.6384 C   0  0  0  0  0  0  0  0  0  0  0  0
    7.2939  -16.4858   25.6406 O   0  0  0  0  0  0  0  0  0  0  0  0
    9.5203  -16.3928   26.0568 N   0  0  0  0  0  0  0  0  0  0  0  0
    9.4832  -17.7737   26.4228 C   0  0  1  0  0  0  0  0  0  0  0  0
   10.4295  -18.6301   25.6081 C   0  0  0  0  0  0  0  0  0  0  0  0
   11.7405  -18.0208   25.3802 C   0  0  0  0  0  0  0  0  0  0  0  0
   11.8107  -16.9134   24.7974 O   0  0  0  0  0  0  0  0  0  0  0  0
    9.8128  -17.9099   27.8524 C   0  0  0  0  0  0  0  0  0  0  0  0
   10.1048  -16.8529   28.6879 O   0  0  0  0  0  0  0  0  0  0  0  0
   12.9287  -18.6162   25.7829 O   0  0  0  0  0  0  0  0  0  0  0  0
    9.8314  -19.0755   28.3554 O   0  0  0  0  0  0  0  0  0  0  0  0
  2  3  2  0
  2  1  1  0
  4  3  1  0
  5  4  2  0
  6  5  1  0
  7  6  1  0
  7  8  1  6
  9 18  1  0
  9  7  1  0
 10  9  2  0
 11  5  1  0
 11 12  2  0
 12  2  1  0
 13 14  1  0
 14 15  1  0
 15 17  1  0
 15 16  1  1
 17 18  1  6
 19 17  1  0
 20 19  2  0
 21 19  1  0
 22 26  1  0
 22 21  1  0
 23 24  1  0
 22 23  1  6
 24 25  2  0
 26 27  1  0
 28 24  1  0
 29 26  2  0
M  END
$$$$
