LQW.pdb
     RDKit          3D

 32 33  0  0  1  0  0  0  0  0999 V2000
    7.4350  -11.9923   19.8807 C   0  0  0  0  0  0  0  0  0  0  0  0
    7.6472  -13.4133   19.4456 C   0  0  1  0  0  0  0  0  0  0  0  0
    8.6012  -13.3941   18.2476 C   0  0  0  0  0  0  0  0  0  0  0  0
    8.1453  -14.3172   20.5151 C   0  0  0  0  0  0  0  0  0  0  0  0
    8.3873  -15.7318   20.1490 C   0  0  2  0  0  0  0  0  0  0  0  0
    7.1244  -16.2992   19.6965 N   0  0  0  0  0  0  0  0  0  0  0  0
    9.0143  -16.5870   21.1670 C   0  0  0  0  0  0  0  0  0  0  0  0
    8.2667  -17.1492   22.0389 O   0  0  0  0  0  0  0  0  0  0  0  0
   14.8686  -18.5921   20.9408 N   0  0  0  0  0  0  0  0  0  0  0  0
   14.4333  -19.3138   22.0718 C   0  0  0  0  0  0  0  0  0  0  0  0
   15.1259  -20.2732   22.4779 O   0  0  0  0  0  0  0  0  0  0  0  0
   13.1493  -18.9346   22.7835 C   0  0  0  0  0  0  0  0  0  0  0  0
   12.3803  -18.0565   21.8534 C   0  0  0  0  0  0  0  0  0  0  0  0
   11.0230  -17.6096   22.3531 C   0  0  2  0  0  0  0  0  0  0  0  0
   10.3800  -16.8421   21.2606 N   0  0  0  0  0  0  0  0  0  0  0  0
   11.0649  -16.8015   23.5838 C   0  0  0  0  0  0  0  0  0  0  0  0
   11.2416  -15.5572   23.4825 O   0  0  0  0  0  0  0  0  0  0  0  0
   10.9095  -17.3785   24.8614 N   0  0  0  0  0  0  0  0  0  0  0  0
   10.5333  -16.7505   26.0800 C   0  0  1  0  0  0  0  0  0  0  0  0
   10.1452  -15.3230   25.9561 C   0  0  0  0  0  0  0  0  0  0  0  0
    8.6826  -15.1194   26.0912 C   0  0  0  0  0  0  0  0  0  0  0  0
    7.6894  -16.0808   25.9024 C   0  0  0  0  0  0  0  0  0  0  0  0
    6.5256  -15.4554   26.1202 N   0  0  0  0  0  0  0  0  0  0  0  0
    6.7134  -14.1774   26.4304 C   0  0  0  0  0  0  0  0  0  0  0  0
    5.8780  -13.1035   26.7416 C   0  0  0  0  0  0  0  0  0  0  0  0
    6.3802  -11.8491   27.0277 C   0  0  0  0  0  0  0  0  0  0  0  0
    7.7351  -11.6171   27.0147 C   0  0  0  0  0  0  0  0  0  0  0  0
    8.5592  -12.6827   26.7061 C   0  0  0  0  0  0  0  0  0  0  0  0
    8.0520  -13.9356   26.4206 C   0  0  0  0  0  0  0  0  0  0  0  0
    9.6532  -17.5573   26.9770 C   0  0  0  0  0  0  0  0  0  0  0  0
    9.4429  -17.1752   28.1815 O   0  0  0  0  0  0  0  0  0  0  0  0
    9.0147  -18.7282   26.6351 O   0  0  0  0  0  0  0  0  0  0  0  0
  2  1  1  1
  3  2  1  0
  4  5  1  0
  4  2  1  0
  5  6  1  1
  7  5  1  0
  7  8  2  0
  9 10  1  0
 10 12  1  0
 11 10  2  0
 12 13  1  0
 14 13  1  6
 14 15  1  0
 15  7  1  0
 16 14  1  0
 17 16  2  0
 18 16  1  0
 19 20  1  6
 19 18  1  0
 20 21  1  0
 21 22  2  0
 21 29  1  0
 22 23  1  0
 23 24  1  0
 24 25  2  0
 25 26  1  0
 27 26  2  0
 28 27  1  0
 29 28  2  0
 29 24  1  0
 30 19  1  0
 31 30  2  0
 32 30  1  0
M  END
$$$$
