LQW.pdb
     RDKit          3D

 32 33  0  0  1  0  0  0  0  0999 V2000
    7.4959  -11.8517   19.7129 C   0  0  0  0  0  0  0  0  0  0  0  0
    7.9650  -13.2285   19.3417 C   0  0  1  0  0  0  0  0  0  0  0  0
    9.1940  -13.0727   18.4411 C   0  0  0  0  0  0  0  0  0  0  0  0
    8.2559  -14.1133   20.4999 C   0  0  0  0  0  0  0  0  0  0  0  0
    8.7316  -15.4842   20.2032 C   0  0  2  0  0  0  0  0  0  0  0  0
    7.7368  -16.1297   19.3575 N   0  0  0  0  0  0  0  0  0  0  0  0
    9.0780  -16.3339   21.3516 C   0  0  0  0  0  0  0  0  0  0  0  0
    8.2080  -16.5010   22.2737 O   0  0  0  0  0  0  0  0  0  0  0  0
   13.7834  -21.0165   21.8552 N   0  0  0  0  0  0  0  0  0  0  0  0
   12.6765  -20.8820   22.7191 C   0  0  0  0  0  0  0  0  0  0  0  0
   11.9497  -21.8788   22.9272 O   0  0  0  0  0  0  0  0  0  0  0  0
   12.3720  -19.5539   23.3843 C   0  0  0  0  0  0  0  0  0  0  0  0
   11.8608  -18.6420   22.3192 C   0  0  0  0  0  0  0  0  0  0  0  0
   10.6627  -17.8001   22.7030 C   0  0  2  0  0  0  0  0  0  0  0  0
   10.2969  -16.9857   21.5203 N   0  0  0  0  0  0  0  0  0  0  0  0
   10.8816  -16.9289   23.8703 C   0  0  0  0  0  0  0  0  0  0  0  0
   11.6832  -15.9620   23.7593 O   0  0  0  0  0  0  0  0  0  0  0  0
   10.2199  -17.1442   25.0972 N   0  0  0  0  0  0  0  0  0  0  0  0
   10.4622  -16.5312   26.3567 C   0  0  1  0  0  0  0  0  0  0  0  0
   10.0022  -15.1243   26.4682 C   0  0  0  0  0  0  0  0  0  0  0  0
    8.5298  -14.9979   26.3463 C   0  0  0  0  0  0  0  0  0  0  0  0
    7.6257  -16.0301   26.0941 C   0  0  0  0  0  0  0  0  0  0  0  0
    6.4150  -15.4591   26.0607 N   0  0  0  0  0  0  0  0  0  0  0  0
    6.4912  -14.1498   26.2721 C   0  0  0  0  0  0  0  0  0  0  0  0
    5.5685  -13.1049   26.3398 C   0  0  0  0  0  0  0  0  0  0  0  0
    5.9595  -11.8022   26.5804 C   0  0  0  0  0  0  0  0  0  0  0  0
    7.2860  -11.4913   26.7628 C   0  0  0  0  0  0  0  0  0  0  0  0
    8.1969  -12.5284   26.6951 C   0  0  0  0  0  0  0  0  0  0  0  0
    7.8008  -13.8297   26.4542 C   0  0  0  0  0  0  0  0  0  0  0  0
   10.1699  -17.3764   27.5527 C   0  0  0  0  0  0  0  0  0  0  0  0
    9.6131  -18.5209   27.4083 O   0  0  0  0  0  0  0  0  0  0  0  0
   10.4433  -17.0410   28.8598 O   0  0  0  0  0  0  0  0  0  0  0  0
  2  1  1  1
  3  2  1  0
  4  5  1  0
  4  2  1  0
  5  6  1  1
  7  5  1  0
  7  8  2  0
  9 10  1  0
 10 12  1  0
 11 10  2  0
 12 13  1  0
 14 13  1  6
 14 15  1  0
 15  7  1  0
 16 14  1  0
 17 16  2  0
 18 16  1  0
 19 20  1  1
 19 18  1  0
 20 21  1  0
 21 22  2  0
 21 29  1  0
 22 23  1  0
 23 24  1  0
 24 25  2  0
 25 26  1  0
 27 26  2  0
 28 27  1  0
 29 28  2  0
 29 24  1  0
 30 19  1  0
 31 30  2  0
 32 30  1  0
M  END
$$$$
