LQW.pdb
     RDKit          3D

 32 33  0  0  1  0  0  0  0  0999 V2000
    6.7649  -12.2856   19.9997 C   0  0  0  0  0  0  0  0  0  0  0  0
    7.8243  -13.3341   19.8215 C   0  0  1  0  0  0  0  0  0  0  0  0
    9.1783  -12.6206   19.7649 C   0  0  0  0  0  0  0  0  0  0  0  0
    7.8199  -14.3971   20.8603 C   0  0  0  0  0  0  0  0  0  0  0  0
    8.7365  -15.5433   20.6614 C   0  0  2  0  0  0  0  0  0  0  0  0
    8.5764  -16.0119   19.2917 N   0  0  0  0  0  0  0  0  0  0  0  0
    8.6298  -16.6569   21.6150 C   0  0  0  0  0  0  0  0  0  0  0  0
    7.8795  -17.6484   21.3165 O   0  0  0  0  0  0  0  0  0  0  0  0
   12.3997  -19.0296   20.1345 N   0  0  0  0  0  0  0  0  0  0  0  0
   12.9360  -18.8381   21.4249 C   0  0  0  0  0  0  0  0  0  0  0  0
   13.4181  -19.8217   22.0293 O   0  0  0  0  0  0  0  0  0  0  0  0
   12.9291  -17.4655   22.0690 C   0  0  0  0  0  0  0  0  0  0  0  0
   11.5335  -16.9462   21.9697 C   0  0  0  0  0  0  0  0  0  0  0  0
   10.5892  -17.4049   23.0603 C   0  0  2  0  0  0  0  0  0  0  0  0
    9.2921  -16.7235   22.8381 N   0  0  0  0  0  0  0  0  0  0  0  0
   11.0700  -17.1462   24.4283 C   0  0  0  0  0  0  0  0  0  0  0  0
   12.1055  -17.7450   24.8269 O   0  0  0  0  0  0  0  0  0  0  0  0
   10.4097  -16.2503   25.2947 N   0  0  0  0  0  0  0  0  0  0  0  0
   10.5518  -16.1081   26.7020 C   0  0  1  0  0  0  0  0  0  0  0  0
    9.8252  -14.9561   27.2924 C   0  0  0  0  0  0  0  0  0  0  0  0
    8.4560  -14.8074   26.7429 C   0  0  0  0  0  0  0  0  0  0  0  0
    7.6239  -15.8349   26.2976 C   0  0  0  0  0  0  0  0  0  0  0  0
    6.4967  -15.2423   25.8837 N   0  0  0  0  0  0  0  0  0  0  0  0
    6.5589  -13.9240   26.0352 C   0  0  0  0  0  0  0  0  0  0  0  0
    5.6963  -12.8582   25.7749 C   0  0  0  0  0  0  0  0  0  0  0  0
    6.0512  -11.5511   26.0457 C   0  0  0  0  0  0  0  0  0  0  0  0
    7.2801  -11.2565   26.5866 C   0  0  0  0  0  0  0  0  0  0  0  0
    8.1316  -12.3143   26.8429 C   0  0  0  0  0  0  0  0  0  0  0  0
    7.7721  -13.6200   26.5703 C   0  0  0  0  0  0  0  0  0  0  0  0
   10.4568  -17.3722   27.4913 C   0  0  0  0  0  0  0  0  0  0  0  0
    9.9012  -18.4070   26.9799 O   0  0  0  0  0  0  0  0  0  0  0  0
   10.9205  -17.5549   28.7747 O   0  0  0  0  0  0  0  0  0  0  0  0
  2  1  1  1
  3  2  1  0
  4  5  1  0
  4  2  1  0
  5  6  1  6
  7  5  1  0
  7  8  2  0
  9 10  1  0
 10 12  1  0
 11 10  2  0
 12 13  1  0
 14 13  1  6
 14 15  1  0
 15  7  1  0
 16 14  1  0
 17 16  2  0
 18 16  1  0
 19 20  1  1
 19 18  1  0
 20 21  1  0
 21 22  2  0
 21 29  1  0
 22 23  1  0
 23 24  1  0
 24 25  2  0
 25 26  1  0
 27 26  2  0
 28 27  1  0
 29 28  2  0
 29 24  1  0
 30 19  1  0
 31 30  2  0
 32 30  1  0
M  END
$$$$
