LQW.pdb
     RDKit          3D

 32 33  0  0  1  0  0  0  0  0999 V2000
   12.7055  -19.5705   16.1513 C   0  0  0  0  0  0  0  0  0  0  0  0
   12.6668  -19.7900   17.6358 C   0  0  1  0  0  0  0  0  0  0  0  0
   14.0181  -20.3778   18.0533 C   0  0  0  0  0  0  0  0  0  0  0  0
   12.3401  -18.5766   18.4297 C   0  0  0  0  0  0  0  0  0  0  0  0
   12.1193  -18.7564   19.8831 C   0  0  2  0  0  0  0  0  0  0  0  0
   11.2436  -19.9062   20.0638 N   0  0  0  0  0  0  0  0  0  0  0  0
   11.6225  -17.5931   20.6319 C   0  0  0  0  0  0  0  0  0  0  0  0
   12.3961  -16.5860   20.7819 O   0  0  0  0  0  0  0  0  0  0  0  0
    6.7357  -12.6205   21.0881 N   0  0  0  0  0  0  0  0  0  0  0  0
    7.5596  -13.7371   20.8351 C   0  0  0  0  0  0  0  0  0  0  0  0
    8.0627  -13.8695   19.6973 O   0  0  0  0  0  0  0  0  0  0  0  0
    7.8316  -14.7590   21.9217 C   0  0  0  0  0  0  0  0  0  0  0  0
    8.5434  -15.9007   21.2757 C   0  0  0  0  0  0  0  0  0  0  0  0
    9.8462  -16.3091   21.9294 C   0  0  2  0  0  0  0  0  0  0  0  0
   10.3549  -17.4944   21.1998 N   0  0  0  0  0  0  0  0  0  0  0  0
    9.7365  -16.6078   23.3676 C   0  0  0  0  0  0  0  0  0  0  0  0
    8.9663  -17.5367   23.7335 O   0  0  0  0  0  0  0  0  0  0  0  0
   10.4677  -15.8904   24.3370 N   0  0  0  0  0  0  0  0  0  0  0  0
   10.4514  -16.0377   25.7508 C   0  0  1  0  0  0  0  0  0  0  0  0
    9.8772  -14.8885   26.4946 C   0  0  0  0  0  0  0  0  0  0  0  0
    8.4147  -14.7543   26.2897 C   0  0  0  0  0  0  0  0  0  0  0  0
    7.5096  -15.7911   26.0611 C   0  0  0  0  0  0  0  0  0  0  0  0
    6.3105  -15.2103   25.9281 N   0  0  0  0  0  0  0  0  0  0  0  0
    6.3949  -13.8907   26.0555 C   0  0  0  0  0  0  0  0  0  0  0  0
    5.4851  -12.8335   26.0064 C   0  0  0  0  0  0  0  0  0  0  0  0
    5.8823  -11.5220   26.1793 C   0  0  0  0  0  0  0  0  0  0  0  0
    7.2024  -11.2142   26.4079 C   0  0  0  0  0  0  0  0  0  0  0  0
    8.1005  -12.2634   26.4559 C   0  0  0  0  0  0  0  0  0  0  0  0
    7.6982  -13.5736   26.2823 C   0  0  0  0  0  0  0  0  0  0  0  0
   10.0271  -17.3778   26.2552 C   0  0  0  0  0  0  0  0  0  0  0  0
    9.7990  -18.3305   25.4299 O   0  0  0  0  0  0  0  0  0  0  0  0
    9.8408  -17.7169   27.5765 O   0  0  0  0  0  0  0  0  0  0  0  0
  2  1  1  6
  3  2  1  0
  4  5  1  0
  4  2  1  0
  5  6  1  6
  7  5  1  0
  7  8  2  0
  9 10  1  0
 10 12  1  0
 11 10  2  0
 12 13  1  0
 14 13  1  6
 14 15  1  0
 15  7  1  0
 16 14  1  0
 17 16  2  0
 18 16  1  0
 19 20  1  1
 19 18  1  0
 20 21  1  0
 21 22  2  0
 21 29  1  0
 22 23  1  0
 23 24  1  0
 24 25  2  0
 25 26  1  0
 27 26  2  0
 28 27  1  0
 29 28  2  0
 29 24  1  0
 30 19  1  0
 31 30  2  0
 32 30  1  0
M  END
$$$$
