LQW.pdb
     RDKit          3D

 32 33  0  0  1  0  0  0  0  0999 V2000
    6.8998  -12.5625   19.8563 C   0  0  0  0  0  0  0  0  0  0  0  0
    7.6706  -13.6778   19.2118 C   0  0  1  0  0  0  0  0  0  0  0  0
    8.7993  -13.0475   18.3905 C   0  0  0  0  0  0  0  0  0  0  0  0
    8.1986  -14.6913   20.1621 C   0  0  0  0  0  0  0  0  0  0  0  0
    8.9347  -15.8408   19.5876 C   0  0  2  0  0  0  0  0  0  0  0  0
    8.0273  -16.5545   18.6995 N   0  0  0  0  0  0  0  0  0  0  0  0
    9.5780  -16.7626   20.5350 C   0  0  0  0  0  0  0  0  0  0  0  0
    8.9320  -17.7986   20.9152 O   0  0  0  0  0  0  0  0  0  0  0  0
   15.2493  -19.6612   20.4508 N   0  0  0  0  0  0  0  0  0  0  0  0
   15.1119  -18.8049   21.5632 C   0  0  0  0  0  0  0  0  0  0  0  0
   16.1071  -18.1510   21.9471 O   0  0  0  0  0  0  0  0  0  0  0  0
   13.7826  -18.6781   22.2815 C   0  0  0  0  0  0  0  0  0  0  0  0
   12.9251  -17.7806   21.4529 C   0  0  0  0  0  0  0  0  0  0  0  0
   11.5227  -17.5550   21.9763 C   0  0  2  0  0  0  0  0  0  0  0  0
   10.8571  -16.5989   21.0605 N   0  0  0  0  0  0  0  0  0  0  0  0
   11.4643  -17.0554   23.3607 C   0  0  0  0  0  0  0  0  0  0  0  0
   11.9767  -17.7546   24.2763 O   0  0  0  0  0  0  0  0  0  0  0  0
   10.8586  -15.8235   23.6848 N   0  0  0  0  0  0  0  0  0  0  0  0
    9.8025  -15.5667   24.6010 C   0  0  1  0  0  0  0  0  0  0  0  0
    8.5474  -15.0657   23.9868 C   0  0  0  0  0  0  0  0  0  0  0  0
    7.5306  -14.6917   24.9993 C   0  0  0  0  0  0  0  0  0  0  0  0
    6.5053  -15.5033   25.4856 C   0  0  0  0  0  0  0  0  0  0  0  0
    5.8325  -14.7561   26.3699 N   0  0  0  0  0  0  0  0  0  0  0  0
    6.3568  -13.5401   26.4745 C   0  0  0  0  0  0  0  0  0  0  0  0
    6.0612  -12.3978   27.2199 C   0  0  0  0  0  0  0  0  0  0  0  0
    6.8101  -11.2425   27.1104 C   0  0  0  0  0  0  0  0  0  0  0  0
    7.8830  -11.1818   26.2532 C   0  0  0  0  0  0  0  0  0  0  0  0
    8.1728  -12.3146   25.5166 C   0  0  0  0  0  0  0  0  0  0  0  0
    7.4206  -13.4678   25.6297 C   0  0  0  0  0  0  0  0  0  0  0  0
    9.6050  -16.5972   25.6637 C   0  0  0  0  0  0  0  0  0  0  0  0
    9.5534  -16.2468   26.8947 O   0  0  0  0  0  0  0  0  0  0  0  0
    9.4701  -17.9514   25.4546 O   0  0  0  0  0  0  0  0  0  0  0  0
  2  1  1  1
  3  2  1  0
  4  5  1  0
  4  2  1  0
  5  6  1  1
  7  5  1  0
  7  8  2  0
  9 10  1  0
 10 12  1  0
 11 10  2  0
 12 13  1  0
 14 13  1  6
 14 15  1  0
 15  7  1  0
 16 14  1  0
 17 16  2  0
 18 16  1  0
 19 20  1  6
 19 18  1  0
 20 21  1  0
 21 22  2  0
 21 29  1  0
 22 23  1  0
 23 24  1  0
 24 25  2  0
 25 26  1  0
 27 26  2  0
 28 27  1  0
 29 28  2  0
 29 24  1  0
 30 19  1  0
 31 30  2  0
 32 30  1  0
M  END
$$$$
