LQW.pdb
     RDKit          3D

 32 33  0  0  1  0  0  0  0  0999 V2000
    6.5365  -13.2661   18.5405 C   0  0  0  0  0  0  0  0  0  0  0  0
    7.9685  -13.5502   18.8902 C   0  0  1  0  0  0  0  0  0  0  0  0
    8.5907  -12.2448   19.3946 C   0  0  0  0  0  0  0  0  0  0  0  0
    8.1563  -14.6499   19.8723 C   0  0  0  0  0  0  0  0  0  0  0  0
    9.4869  -14.7680   20.5117 C   0  0  2  0  0  0  0  0  0  0  0  0
   10.4947  -14.4475   19.5101 N   0  0  0  0  0  0  0  0  0  0  0  0
    9.7954  -16.0398   21.1813 C   0  0  0  0  0  0  0  0  0  0  0  0
    8.8263  -16.7868   21.5525 O   0  0  0  0  0  0  0  0  0  0  0  0
   14.3913  -19.8073   20.3304 N   0  0  0  0  0  0  0  0  0  0  0  0
   13.6270  -20.2341   21.4363 C   0  0  0  0  0  0  0  0  0  0  0  0
   13.1671  -21.3976   21.4382 O   0  0  0  0  0  0  0  0  0  0  0  0
   13.3668  -19.3007   22.6025 C   0  0  0  0  0  0  0  0  0  0  0  0
   12.8743  -18.0144   22.0277 C   0  0  0  0  0  0  0  0  0  0  0  0
   11.3876  -17.7660   22.1675 C   0  0  2  0  0  0  0  0  0  0  0  0
   11.0796  -16.5079   21.4475 N   0  0  0  0  0  0  0  0  0  0  0  0
   10.9142  -17.6822   23.5597 C   0  0  0  0  0  0  0  0  0  0  0  0
   10.4621  -18.7245   24.1067 O   0  0  0  0  0  0  0  0  0  0  0  0
   10.9572  -16.4773   24.2917 N   0  0  0  0  0  0  0  0  0  0  0  0
    9.9304  -15.8710   25.0656 C   0  0  1  0  0  0  0  0  0  0  0  0
    8.9219  -15.1116   24.2847 C   0  0  0  0  0  0  0  0  0  0  0  0
    7.8027  -14.6242   25.1264 C   0  0  0  0  0  0  0  0  0  0  0  0
    6.6613  -15.3412   25.4868 C   0  0  0  0  0  0  0  0  0  0  0  0
    5.9274  -14.5111   26.2387 N   0  0  0  0  0  0  0  0  0  0  0  0
    6.5206  -13.3305   26.3767 C   0  0  0  0  0  0  0  0  0  0  0  0
    6.2082  -12.1388   27.0325 C   0  0  0  0  0  0  0  0  0  0  0  0
    7.0490  -11.0437   26.9933 C   0  0  0  0  0  0  0  0  0  0  0  0
    8.2340  -11.0949   26.2985 C   0  0  0  0  0  0  0  0  0  0  0  0
    8.5401  -12.2764   25.6504 C   0  0  0  0  0  0  0  0  0  0  0  0
    7.6958  -13.3690   25.6925 C   0  0  0  0  0  0  0  0  0  0  0  0
    9.3620  -16.7153   26.1585 C   0  0  0  0  0  0  0  0  0  0  0  0
    9.1534  -16.2095   27.3167 O   0  0  0  0  0  0  0  0  0  0  0  0
    9.0247  -18.0460   26.0530 O   0  0  0  0  0  0  0  0  0  0  0  0
  2  1  1  1
  3  2  1  0
  4  5  1  0
  4  2  1  0
  5  6  1  6
  7  5  1  0
  7  8  2  0
  9 10  1  0
 10 12  1  0
 11 10  2  0
 12 13  1  0
 14 13  1  1
 14 15  1  0
 15  7  1  0
 16 14  1  0
 17 16  2  0
 18 16  1  0
 19 20  1  6
 19 18  1  0
 20 21  1  0
 21 22  2  0
 21 29  1  0
 22 23  1  0
 23 24  1  0
 24 25  2  0
 25 26  1  0
 27 26  2  0
 28 27  1  0
 29 28  2  0
 29 24  1  0
 30 19  1  0
 31 30  2  0
 32 30  1  0
M  END
$$$$
