LQW.pdb
     RDKit          3D

 32 33  0  0  1  0  0  0  0  0999 V2000
    6.8039  -12.4126   20.4498 C   0  0  0  0  0  0  0  0  0  0  0  0
    7.2587  -13.8066   20.1282 C   0  0  1  0  0  0  0  0  0  0  0  0
    8.1091  -13.7353   18.8564 C   0  0  0  0  0  0  0  0  0  0  0  0
    7.9929  -14.4844   21.2285 C   0  0  0  0  0  0  0  0  0  0  0  0
    8.4775  -15.8604   20.9734 C   0  0  2  0  0  0  0  0  0  0  0  0
    7.3283  -16.6801   20.6141 N   0  0  0  0  0  0  0  0  0  0  0  0
    9.2675  -16.4979   22.0366 C   0  0  0  0  0  0  0  0  0  0  0  0
    8.6735  -17.2812   22.8544 O   0  0  0  0  0  0  0  0  0  0  0  0
   16.0568  -16.0081   24.2566 N   0  0  0  0  0  0  0  0  0  0  0  0
   15.2183  -16.9192   23.5812 C   0  0  0  0  0  0  0  0  0  0  0  0
   15.6514  -17.4910   22.5561 O   0  0  0  0  0  0  0  0  0  0  0  0
   13.8172  -17.2016   24.0873 C   0  0  0  0  0  0  0  0  0  0  0  0
   12.8702  -16.6320   23.0843 C   0  0  0  0  0  0  0  0  0  0  0  0
   11.4012  -16.8393   23.3851 C   0  0  2  0  0  0  0  0  0  0  0  0
   10.6348  -16.3178   22.2289 N   0  0  0  0  0  0  0  0  0  0  0  0
   10.9398  -16.1997   24.6291 C   0  0  0  0  0  0  0  0  0  0  0  0
   11.1985  -14.9791   24.8114 O   0  0  0  0  0  0  0  0  0  0  0  0
   10.2188  -16.9103   25.6111 N   0  0  0  0  0  0  0  0  0  0  0  0
   10.1492  -16.6693   27.0103 C   0  0  1  0  0  0  0  0  0  0  0  0
    8.7769  -16.4983   27.5498 C   0  0  0  0  0  0  0  0  0  0  0  0
    7.9070  -15.7075   26.6461 C   0  0  0  0  0  0  0  0  0  0  0  0
    7.0401  -16.2121   25.6763 C   0  0  0  0  0  0  0  0  0  0  0  0
    6.4697  -15.1456   25.1018 N   0  0  0  0  0  0  0  0  0  0  0  0
    6.9123  -14.0129   25.6365 C   0  0  0  0  0  0  0  0  0  0  0  0
    6.6628  -12.6564   25.4232 C   0  0  0  0  0  0  0  0  0  0  0  0
    7.2976  -11.6746   26.1586 C   0  0  0  0  0  0  0  0  0  0  0  0
    8.2058  -12.0078   27.1352 C   0  0  0  0  0  0  0  0  0  0  0  0
    8.4503  -13.3518   27.3437 C   0  0  0  0  0  0  0  0  0  0  0  0
    7.8129  -14.3301   26.6054 C   0  0  0  0  0  0  0  0  0  0  0  0
   11.0480  -17.5105   27.8557 C   0  0  0  0  0  0  0  0  0  0  0  0
   11.1670  -17.2639   29.1071 O   0  0  0  0  0  0  0  0  0  0  0  0
   11.8042  -18.5729   27.4139 O   0  0  0  0  0  0  0  0  0  0  0  0
  2  1  1  1
  3  2  1  0
  4  5  1  0
  4  2  1  0
  5  6  1  1
  7  5  1  0
  7  8  2  0
  9 10  1  0
 10 12  1  0
 11 10  2  0
 12 13  1  0
 14 13  1  6
 14 15  1  0
 15  7  1  0
 16 14  1  0
 17 16  2  0
 18 16  1  0
 19 20  1  1
 19 18  1  0
 20 21  1  0
 21 22  2  0
 21 29  1  0
 22 23  1  0
 23 24  1  0
 24 25  2  0
 25 26  1  0
 27 26  2  0
 28 27  1  0
 29 28  2  0
 29 24  1  0
 30 19  1  0
 31 30  2  0
 32 30  1  0
M  END
$$$$
