LQW.pdb
     RDKit          3D

 32 33  0  0  1  0  0  0  0  0999 V2000
    6.8419  -12.9711   17.8140 C   0  0  0  0  0  0  0  0  0  0  0  0
    8.1395  -13.2694   18.5074 C   0  0  1  0  0  0  0  0  0  0  0  0
    8.6471  -11.9626   19.1240 C   0  0  0  0  0  0  0  0  0  0  0  0
    8.0598  -14.3490   19.5258 C   0  0  0  0  0  0  0  0  0  0  0  0
    9.2446  -14.5543   20.3905 C   0  0  2  0  0  0  0  0  0  0  0  0
   10.4298  -14.5008   19.5456 N   0  0  0  0  0  0  0  0  0  0  0  0
    9.2540  -15.7569   21.2357 C   0  0  0  0  0  0  0  0  0  0  0  0
    8.2042  -16.0403   21.9086 O   0  0  0  0  0  0  0  0  0  0  0  0
   12.3349  -20.6309   19.8820 N   0  0  0  0  0  0  0  0  0  0  0  0
   11.4299  -19.8220   19.1636 C   0  0  0  0  0  0  0  0  0  0  0  0
   11.4038  -19.9084   17.9157 O   0  0  0  0  0  0  0  0  0  0  0  0
   10.5048  -18.8646   19.8893 C   0  0  0  0  0  0  0  0  0  0  0  0
   10.7975  -18.9989   21.3466 C   0  0  0  0  0  0  0  0  0  0  0  0
   10.3353  -17.8462   22.2121 C   0  0  2  0  0  0  0  0  0  0  0  0
   10.3307  -16.6305   21.3647 N   0  0  0  0  0  0  0  0  0  0  0  0
   11.1560  -17.6226   23.4147 C   0  0  0  0  0  0  0  0  0  0  0  0
   11.9840  -18.5112   23.7534 O   0  0  0  0  0  0  0  0  0  0  0  0
   11.0433  -16.4484   24.1878 N   0  0  0  0  0  0  0  0  0  0  0  0
    9.9759  -16.0407   25.0336 C   0  0  1  0  0  0  0  0  0  0  0  0
    8.7787  -15.5211   24.3263 C   0  0  0  0  0  0  0  0  0  0  0  0
    7.7399  -15.0237   25.2602 C   0  0  0  0  0  0  0  0  0  0  0  0
    6.6929  -15.7648   25.8089 C   0  0  0  0  0  0  0  0  0  0  0  0
    6.0056  -14.9144   26.5818 N   0  0  0  0  0  0  0  0  0  0  0  0
    6.5408  -13.6988   26.5591 C   0  0  0  0  0  0  0  0  0  0  0  0
    6.2386  -12.4753   27.1587 C   0  0  0  0  0  0  0  0  0  0  0  0
    7.0034  -11.3467   26.9368 C   0  0  0  0  0  0  0  0  0  0  0  0
    8.0992  -11.3949   26.1082 C   0  0  0  0  0  0  0  0  0  0  0  0
    8.3953  -12.6080   25.5161 C   0  0  0  0  0  0  0  0  0  0  0  0
    7.6273  -13.7339   25.7413 C   0  0  0  0  0  0  0  0  0  0  0  0
    9.6742  -16.9525   26.1771 C   0  0  0  0  0  0  0  0  0  0  0  0
    9.1205  -18.0877   25.9630 O   0  0  0  0  0  0  0  0  0  0  0  0
    9.9351  -16.6915   27.5035 O   0  0  0  0  0  0  0  0  0  0  0  0
  2  1  1  1
  3  2  1  0
  4  5  1  0
  4  2  1  0
  5  6  1  6
  7  5  1  0
  7  8  2  0
  9 10  1  0
 10 12  1  0
 11 10  2  0
 12 13  1  0
 14 13  1  6
 14 15  1  0
 15  7  1  0
 16 14  1  0
 17 16  2  0
 18 16  1  0
 19 20  1  6
 19 18  1  0
 20 21  1  0
 21 22  2  0
 21 29  1  0
 22 23  1  0
 23 24  1  0
 24 25  2  0
 25 26  1  0
 27 26  2  0
 28 27  1  0
 29 28  2  0
 29 24  1  0
 30 19  1  0
 31 30  2  0
 32 30  1  0
M  END
$$$$
