LQW.pdb
     RDKit          3D

 32 33  0  0  1  0  0  0  0  0999 V2000
    6.2178  -13.0586   18.9545 C   0  0  0  0  0  0  0  0  0  0  0  0
    7.6568  -13.4442   19.1392 C   0  0  1  0  0  0  0  0  0  0  0  0
    8.4551  -12.1584   19.3742 C   0  0  0  0  0  0  0  0  0  0  0  0
    7.8957  -14.4313   20.2243 C   0  0  0  0  0  0  0  0  0  0  0  0
    9.3030  -14.6949   20.6033 C   0  0  2  0  0  0  0  0  0  0  0  0
   10.0899  -14.7669   19.3797 N   0  0  0  0  0  0  0  0  0  0  0  0
    9.5560  -15.8611   21.4618 C   0  0  0  0  0  0  0  0  0  0  0  0
    8.8082  -16.0430   22.4829 O   0  0  0  0  0  0  0  0  0  0  0  0
    8.6668  -20.1621   19.7886 N   0  0  0  0  0  0  0  0  0  0  0  0
    9.9671  -20.3647   20.2961 C   0  0  0  0  0  0  0  0  0  0  0  0
   10.1899  -21.3774   20.9961 O   0  0  0  0  0  0  0  0  0  0  0  0
   11.0758  -19.3738   19.9994 C   0  0  0  0  0  0  0  0  0  0  0  0
   11.6481  -18.9564   21.3130 C   0  0  0  0  0  0  0  0  0  0  0  0
   10.8059  -17.9835   22.1103 C   0  0  2  0  0  0  0  0  0  0  0  0
   10.5598  -16.8026   21.2496 N   0  0  0  0  0  0  0  0  0  0  0  0
   11.4083  -17.5635   23.3871 C   0  0  0  0  0  0  0  0  0  0  0  0
   12.4853  -16.9083   23.3591 O   0  0  0  0  0  0  0  0  0  0  0  0
   10.8142  -17.8691   24.6293 N   0  0  0  0  0  0  0  0  0  0  0  0
   10.4848  -16.9900   25.6967 C   0  0  1  0  0  0  0  0  0  0  0  0
    9.9352  -15.6755   25.2798 C   0  0  0  0  0  0  0  0  0  0  0  0
    9.5146  -14.8451   26.4339 C   0  0  0  0  0  0  0  0  0  0  0  0
    9.9299  -14.9917   27.7577 C   0  0  0  0  0  0  0  0  0  0  0  0
    9.2952  -14.0376   28.4504 N   0  0  0  0  0  0  0  0  0  0  0  0
    8.5149  -13.3056   27.6631 C   0  0  0  0  0  0  0  0  0  0  0  0
    7.6582  -12.2205   27.8546 C   0  0  0  0  0  0  0  0  0  0  0  0
    6.9552  -11.6541   26.8093 C   0  0  0  0  0  0  0  0  0  0  0  0
    7.0796  -12.1479   25.5324 C   0  0  0  0  0  0  0  0  0  0  0  0
    7.9286  -13.2223   25.3466 C   0  0  0  0  0  0  0  0  0  0  0  0
    8.6295  -13.7854   26.3954 C   0  0  0  0  0  0  0  0  0  0  0  0
    9.7822  -17.6169   26.8558 C   0  0  0  0  0  0  0  0  0  0  0  0
    8.7360  -18.3301   26.6617 O   0  0  0  0  0  0  0  0  0  0  0  0
   10.1522  -17.5028   28.1770 O   0  0  0  0  0  0  0  0  0  0  0  0
  2  1  1  1
  3  2  1  0
  4  5  1  0
  4  2  1  0
  5  6  1  6
  7  5  1  0
  7  8  2  0
  9 10  1  0
 10 12  1  0
 11 10  2  0
 12 13  1  0
 14 13  1  6
 14 15  1  0
 15  7  1  0
 16 14  1  0
 17 16  2  0
 18 16  1  0
 19 20  1  6
 19 18  1  0
 20 21  1  0
 21 22  2  0
 21 29  1  0
 22 23  1  0
 23 24  1  0
 24 25  2  0
 25 26  1  0
 27 26  2  0
 28 27  1  0
 29 28  2  0
 29 24  1  0
 30 19  1  0
 31 30  2  0
 32 30  1  0
M  END
$$$$
