FHL.pdb
     RDKit          3D

 30 31  0  0  1  0  0  0  0  0999 V2000
    6.3756  -18.0393   21.6590 N   0  0  0  0  0  0  0  0  0  0  0  0
    7.0245  -16.8413   22.1580 C   0  0  1  0  0  0  0  0  0  0  0  0
    6.1330  -16.2550   23.2176 C   0  0  0  0  0  0  0  0  0  0  0  0
    6.6356  -14.9939   23.7754 C   0  0  0  0  0  0  0  0  0  0  0  0
    7.1298  -13.9497   23.0209 C   0  0  0  0  0  0  0  0  0  0  0  0
    7.5776  -12.8066   23.6469 C   0  0  0  0  0  0  0  0  0  0  0  0
    7.5615  -12.6384   25.0159 C   0  0  0  0  0  0  0  0  0  0  0  0
    7.0643  -13.6894   25.7715 C   0  0  0  0  0  0  0  0  0  0  0  0
    6.6142  -14.8372   25.1503 C   0  0  0  0  0  0  0  0  0  0  0  0
    8.3047  -17.2402   22.8445 C   0  0  0  0  0  0  0  0  0  0  0  0
    8.2949  -18.1783   23.7054 O   0  0  0  0  0  0  0  0  0  0  0  0
    9.5299  -16.6133   22.5731 N   0  0  0  0  0  0  0  0  0  0  0  0
   10.7614  -16.8724   23.2571 C   0  0  1  0  0  0  0  0  0  0  0  0
   11.9693  -16.5145   22.4753 C   0  0  0  0  0  0  0  0  0  0  0  0
   12.2205  -17.3168   21.2682 C   0  0  0  0  0  0  0  0  0  0  0  0
   11.5339  -18.4029   20.8000 C   0  0  0  0  0  0  0  0  0  0  0  0
   12.1084  -18.8683   19.6597 N   0  0  0  0  0  0  0  0  0  0  0  0
   13.1405  -18.0794   19.4239 C   0  0  0  0  0  0  0  0  0  0  0  0
   13.2349  -17.1384   20.3712 N   0  0  0  0  0  0  0  0  0  0  0  0
   10.7677  -16.1523   24.5960 C   0  0  0  0  0  0  0  0  0  0  0  0
   10.9600  -14.9091   24.6565 O   0  0  0  0  0  0  0  0  0  0  0  0
   10.5594  -13.7542   28.6572 C   0  0  0  0  0  0  0  0  0  0  0  0
    9.5121  -13.9415   27.5796 C   0  0  2  0  0  0  0  0  0  0  0  0
    8.2478  -13.1739   27.8091 C   0  0  0  0  0  0  0  0  0  0  0  0
    9.3673  -15.3296   27.0926 C   0  0  0  0  0  0  0  0  0  0  0  0
   10.5395  -16.2304   27.1162 C   0  0  2  0  0  0  0  0  0  0  0  0
   10.5560  -16.8832   25.7790 N   0  0  0  0  0  0  0  0  0  0  0  0
   10.5317  -17.2778   28.1623 C   0  0  0  0  0  0  0  0  0  0  0  0
   11.2188  -17.1144   29.2189 O   0  0  0  0  0  0  0  0  0  0  0  0
    9.8181  -18.4606   28.0978 O   0  0  0  0  0  0  0  0  0  0  0  0
  2  1  1  1
  2  3  1  0
  2 10  1  0
  3  4  1  0
  4  9  1  0
  5  4  2  0
  5  6  1  0
  6  7  2  0
  7  8  1  0
  9  8  2  0
 10 12  1  0
 10 11  2  0
 12 13  1  0
 13 20  1  0
 13 14  1  6
 14 15  1  0
 15 16  2  0
 16 17  1  0
 18 17  1  0
 19 15  1  0
 19 18  2  0
 20 21  2  0
 23 22  1  1
 23 24  1  0
 23 25  1  0
 26 25  1  6
 26 28  1  0
 27 20  1  0
 27 26  1  0
 28 29  2  0
 28 30  1  0
M  END
$$$$
