FHL.pdb
     RDKit          3D

 30 31  0  0  1  0  0  0  0  0999 V2000
    5.2457  -17.6106   23.5989 N   0  0  0  0  0  0  0  0  0  0  0  0
    6.0314  -16.4358   23.9274 C   0  0  1  0  0  0  0  0  0  0  0  0
    5.9698  -16.2563   25.4192 C   0  0  0  0  0  0  0  0  0  0  0  0
    6.5683  -14.9995   25.8841 C   0  0  0  0  0  0  0  0  0  0  0  0
    7.9072  -14.8336   26.1735 C   0  0  0  0  0  0  0  0  0  0  0  0
    8.3662  -13.6077   26.6043 C   0  0  0  0  0  0  0  0  0  0  0  0
    7.5485  -12.5090   26.7681 C   0  0  0  0  0  0  0  0  0  0  0  0
    6.2036  -12.6787   26.4765 C   0  0  0  0  0  0  0  0  0  0  0  0
    5.7376  -13.9042   26.0445 C   0  0  0  0  0  0  0  0  0  0  0  0
    7.4723  -16.7121   23.5859 C   0  0  0  0  0  0  0  0  0  0  0  0
    7.9285  -17.8971   23.6797 O   0  0  0  0  0  0  0  0  0  0  0  0
    8.3506  -15.7041   23.1613 N   0  0  0  0  0  0  0  0  0  0  0  0
    9.6791  -15.9171   22.6699 C   0  0  1  0  0  0  0  0  0  0  0  0
   10.1049  -14.9341   21.6448 C   0  0  0  0  0  0  0  0  0  0  0  0
    9.1782  -14.7277   20.5213 C   0  0  0  0  0  0  0  0  0  0  0  0
    8.5232  -13.5873   20.1460 C   0  0  0  0  0  0  0  0  0  0  0  0
    7.7394  -13.8286   19.0623 N   0  0  0  0  0  0  0  0  0  0  0  0
    7.9064  -15.1051   18.7693 C   0  0  0  0  0  0  0  0  0  0  0  0
    8.7638  -15.6726   19.6264 N   0  0  0  0  0  0  0  0  0  0  0  0
   10.6614  -15.9275   23.8302 C   0  0  0  0  0  0  0  0  0  0  0  0
   11.9033  -15.9349   23.6212 O   0  0  0  0  0  0  0  0  0  0  0  0
    9.8131  -13.5233   28.9397 C   0  0  0  0  0  0  0  0  0  0  0  0
   10.7640  -14.1525   27.9432 C   0  0  2  0  0  0  0  0  0  0  0  0
   11.3030  -13.2016   26.9208 C   0  0  0  0  0  0  0  0  0  0  0  0
   10.3570  -15.4884   27.4586 C   0  0  0  0  0  0  0  0  0  0  0  0
   11.0801  -16.0965   26.3214 C   0  0  2  0  0  0  0  0  0  0  0  0
   10.1768  -15.9284   25.1508 N   0  0  0  0  0  0  0  0  0  0  0  0
   11.4225  -17.5299   26.4622 C   0  0  0  0  0  0  0  0  0  0  0  0
   10.5925  -18.4135   26.0810 O   0  0  0  0  0  0  0  0  0  0  0  0
   12.6061  -18.0167   26.9861 O   0  0  0  0  0  0  0  0  0  0  0  0
  2  1  1  1
  2  3  1  0
  2 10  1  0
  3  4  1  0
  4  9  1  0
  5  4  2  0
  5  6  1  0
  6  7  2  0
  7  8  1  0
  9  8  2  0
 10 12  1  0
 10 11  2  0
 12 13  1  0
 13 20  1  0
 13 14  1  6
 14 15  1  0
 15 16  2  0
 16 17  1  0
 18 17  1  0
 19 15  1  0
 19 18  2  0
 20 21  2  0
 23 22  1  6
 23 24  1  0
 23 25  1  0
 26 25  1  1
 26 28  1  0
 27 20  1  0
 27 26  1  0
 28 29  2  0
 28 30  1  0
M  END
$$$$
