FHL.pdb
     RDKit          3D

 30 31  0  0  1  0  0  0  0  0999 V2000
    6.1439  -18.0332   24.0458 N   0  0  0  0  0  0  0  0  0  0  0  0
    6.9456  -16.8242   24.0706 C   0  0  1  0  0  0  0  0  0  0  0  0
    6.5154  -16.0237   25.2687 C   0  0  0  0  0  0  0  0  0  0  0  0
    6.5023  -14.5753   25.0327 C   0  0  0  0  0  0  0  0  0  0  0  0
    7.3549  -13.9181   24.1696 C   0  0  0  0  0  0  0  0  0  0  0  0
    7.2574  -12.5515   24.0218 C   0  0  0  0  0  0  0  0  0  0  0  0
    6.3366  -11.7812   24.7009 C   0  0  0  0  0  0  0  0  0  0  0  0
    5.4811  -12.4443   25.5676 C   0  0  0  0  0  0  0  0  0  0  0  0
    5.5737  -13.8132   25.7201 C   0  0  0  0  0  0  0  0  0  0  0  0
    8.3839  -17.2076   24.3025 C   0  0  0  0  0  0  0  0  0  0  0  0
    8.6600  -18.3142   24.8684 O   0  0  0  0  0  0  0  0  0  0  0  0
    9.4526  -16.3852   23.9160 N   0  0  0  0  0  0  0  0  0  0  0  0
   10.8319  -16.7712   23.9054 C   0  0  1  0  0  0  0  0  0  0  0  0
   11.6364  -16.0954   22.8591 C   0  0  0  0  0  0  0  0  0  0  0  0
   11.2899  -16.4182   21.4665 C   0  0  0  0  0  0  0  0  0  0  0  0
   10.1169  -16.9109   20.9650 C   0  0  0  0  0  0  0  0  0  0  0  0
   10.2176  -17.0924   19.6219 N   0  0  0  0  0  0  0  0  0  0  0  0
   11.4402  -16.7167   19.2945 C   0  0  0  0  0  0  0  0  0  0  0  0
   12.1089  -16.3069   20.3793 N   0  0  0  0  0  0  0  0  0  0  0  0
   11.4435  -16.5328   25.2766 C   0  0  0  0  0  0  0  0  0  0  0  0
   12.6926  -16.4600   25.4196 O   0  0  0  0  0  0  0  0  0  0  0  0
    9.0549  -13.4480   28.7219 C   0  0  0  0  0  0  0  0  0  0  0  0
   10.3441  -14.1977   28.4595 C   0  0  2  0  0  0  0  0  0  0  0  0
   11.1235  -13.6914   27.2863 C   0  0  0  0  0  0  0  0  0  0  0  0
   10.2477  -15.6651   28.6095 C   0  0  0  0  0  0  0  0  0  0  0  0
   11.1154  -16.5349   27.7870 C   0  0  2  0  0  0  0  0  0  0  0  0
   10.6044  -16.3918   26.3967 N   0  0  0  0  0  0  0  0  0  0  0  0
   11.1261  -17.9701   28.1498 C   0  0  0  0  0  0  0  0  0  0  0  0
   11.6797  -18.3393   29.2326 O   0  0  0  0  0  0  0  0  0  0  0  0
   10.5667  -18.9850   27.3952 O   0  0  0  0  0  0  0  0  0  0  0  0
  2  1  1  1
  2  3  1  0
  2 10  1  0
  3  4  1  0
  4  9  1  0
  5  4  2  0
  5  6  1  0
  6  7  2  0
  7  8  1  0
  9  8  2  0
 10 12  1  0
 10 11  2  0
 12 13  1  0
 13 20  1  0
 13 14  1  6
 14 15  1  0
 15 16  2  0
 16 17  1  0
 18 17  1  0
 19 15  1  0
 19 18  2  0
 20 21  2  0
 23 22  1  6
 23 24  1  0
 23 25  1  0
 26 25  1  1
 26 28  1  0
 27 20  1  0
 27 26  1  0
 28 29  2  0
 28 30  1  0
M  END
$$$$
