FHL.pdb
     RDKit          3D

 30 31  0  0  1  0  0  0  0  0999 V2000
    6.0228  -18.2539   21.8000 N   0  0  0  0  0  0  0  0  0  0  0  0
    6.7117  -17.2266   22.5584 C   0  0  1  0  0  0  0  0  0  0  0  0
    5.8230  -16.8455   23.7101 C   0  0  0  0  0  0  0  0  0  0  0  0
    6.2305  -15.6052   24.3804 C   0  0  0  0  0  0  0  0  0  0  0  0
    6.7583  -14.5065   23.7336 C   0  0  0  0  0  0  0  0  0  0  0  0
    7.1089  -13.3892   24.4602 C   0  0  0  0  0  0  0  0  0  0  0  0
    6.9605  -13.2999   25.8286 C   0  0  0  0  0  0  0  0  0  0  0  0
    6.4299  -14.4054   26.4758 C   0  0  0  0  0  0  0  0  0  0  0  0
    6.0768  -15.5277   25.7536 C   0  0  0  0  0  0  0  0  0  0  0  0
    7.9577  -17.8264   23.1560 C   0  0  0  0  0  0  0  0  0  0  0  0
    8.1905  -19.0704   23.0161 O   0  0  0  0  0  0  0  0  0  0  0  0
    8.8904  -17.0622   23.8728 N   0  0  0  0  0  0  0  0  0  0  0  0
   10.2409  -16.8108   23.4669 C   0  0  1  0  0  0  0  0  0  0  0  0
   10.3552  -16.0637   22.1913 C   0  0  0  0  0  0  0  0  0  0  0  0
   11.6931  -16.0254   21.5810 C   0  0  0  0  0  0  0  0  0  0  0  0
   12.8610  -16.5722   22.0360 C   0  0  0  0  0  0  0  0  0  0  0  0
   13.8795  -16.2858   21.1829 N   0  0  0  0  0  0  0  0  0  0  0  0
   13.3486  -15.5686   20.2099 C   0  0  0  0  0  0  0  0  0  0  0  0
   12.0380  -15.3948   20.4197 N   0  0  0  0  0  0  0  0  0  0  0  0
   10.9835  -16.0802   24.5741 C   0  0  0  0  0  0  0  0  0  0  0  0
   11.3106  -14.8714   24.4398 O   0  0  0  0  0  0  0  0  0  0  0  0
    8.5852  -13.4485   28.0428 C   0  0  0  0  0  0  0  0  0  0  0  0
    9.7928  -14.3462   28.2123 C   0  0  2  0  0  0  0  0  0  0  0  0
   10.9424  -13.7048   28.9244 C   0  0  0  0  0  0  0  0  0  0  0  0
   10.1206  -15.1715   27.0305 C   0  0  0  0  0  0  0  0  0  0  0  0
   11.2766  -16.0915   27.0888 C   0  0  2  0  0  0  0  0  0  0  0  0
   11.3077  -16.7623   25.7608 N   0  0  0  0  0  0  0  0  0  0  0  0
   11.2307  -17.1246   28.1481 C   0  0  0  0  0  0  0  0  0  0  0  0
   12.0015  -17.0264   29.1538 O   0  0  0  0  0  0  0  0  0  0  0  0
   10.3948  -18.2262   28.1486 O   0  0  0  0  0  0  0  0  0  0  0  0
  2  1  1  6
  2  3  1  0
  2 10  1  0
  3  4  1  0
  4  9  1  0
  5  4  2  0
  5  6  1  0
  6  7  2  0
  7  8  1  0
  9  8  2  0
 10 12  1  0
 10 11  2  0
 12 13  1  0
 13 20  1  0
 13 14  1  6
 14 15  1  0
 15 16  2  0
 16 17  1  0
 18 17  1  0
 19 15  1  0
 19 18  2  0
 20 21  2  0
 23 22  1  6
 23 24  1  0
 23 25  1  0
 26 25  1  6
 26 28  1  0
 27 20  1  0
 27 26  1  0
 28 29  2  0
 28 30  1  0
M  END
$$$$
