FHL.pdb
     RDKit          3D

 30 31  0  0  1  0  0  0  0  0999 V2000
    5.6310  -17.1154   22.5154 N   0  0  0  0  0  0  0  0  0  0  0  0
    6.9671  -16.6487   22.1961 C   0  0  1  0  0  0  0  0  0  0  0  0
    7.0081  -15.1727   22.4810 C   0  0  0  0  0  0  0  0  0  0  0  0
    7.5921  -14.3809   21.3921 C   0  0  0  0  0  0  0  0  0  0  0  0
    8.7112  -14.7489   20.6738 C   0  0  0  0  0  0  0  0  0  0  0  0
    9.1777  -13.9298   19.6685 C   0  0  0  0  0  0  0  0  0  0  0  0
    8.5792  -12.7346   19.3281 C   0  0  0  0  0  0  0  0  0  0  0  0
    7.4547  -12.3674   20.0516 C   0  0  0  0  0  0  0  0  0  0  0  0
    6.9825  -13.1836   21.0598 C   0  0  0  0  0  0  0  0  0  0  0  0
    7.9409  -17.2977   23.1447 C   0  0  0  0  0  0  0  0  0  0  0  0
    7.5790  -17.5688   24.3349 O   0  0  0  0  0  0  0  0  0  0  0  0
    9.2528  -17.6229   22.7689 N   0  0  0  0  0  0  0  0  0  0  0  0
   10.2434  -18.1932   23.6321 C   0  0  1  0  0  0  0  0  0  0  0  0
   11.4647  -18.6488   22.9256 C   0  0  0  0  0  0  0  0  0  0  0  0
   12.4767  -19.3247   23.7519 C   0  0  0  0  0  0  0  0  0  0  0  0
   12.3196  -19.9653   24.9498 C   0  0  0  0  0  0  0  0  0  0  0  0
   13.5151  -20.4357   25.3934 N   0  0  0  0  0  0  0  0  0  0  0  0
   14.4038  -20.0898   24.4803 C   0  0  0  0  0  0  0  0  0  0  0  0
   13.8121  -19.4217   23.4825 N   0  0  0  0  0  0  0  0  0  0  0  0
   10.6060  -17.2011   24.7254 C   0  0  0  0  0  0  0  0  0  0  0  0
   11.1964  -16.1243   24.4464 O   0  0  0  0  0  0  0  0  0  0  0  0
    8.3999  -13.7132   28.4410 C   0  0  0  0  0  0  0  0  0  0  0  0
    9.6579  -14.3716   27.9146 C   0  0  2  0  0  0  0  0  0  0  0  0
   10.5048  -13.4847   27.0566 C   0  0  0  0  0  0  0  0  0  0  0  0
    9.4811  -15.7661   27.4574 C   0  0  0  0  0  0  0  0  0  0  0  0
   10.6749  -16.5940   27.1823 C   0  0  2  0  0  0  0  0  0  0  0  0
   10.2778  -17.4899   26.0624 N   0  0  0  0  0  0  0  0  0  0  0  0
   11.1646  -17.4206   28.3085 C   0  0  0  0  0  0  0  0  0  0  0  0
   10.5980  -18.5286   28.5662 O   0  0  0  0  0  0  0  0  0  0  0  0
   12.2222  -17.0904   29.1360 O   0  0  0  0  0  0  0  0  0  0  0  0
  2  1  1  1
  2  3  1  0
  2 10  1  0
  3  4  1  0
  4  9  1  0
  5  4  2  0
  5  6  1  0
  6  7  2  0
  7  8  1  0
  9  8  2  0
 10 12  1  0
 10 11  2  0
 12 13  1  0
 13 20  1  0
 13 14  1  6
 14 15  1  0
 15 16  2  0
 16 17  1  0
 18 17  1  0
 19 15  1  0
 19 18  2  0
 20 21  2  0
 23 22  1  6
 23 24  1  0
 23 25  1  0
 26 25  1  1
 26 28  1  0
 27 20  1  0
 27 26  1  0
 28 29  2  0
 28 30  1  0
M  END
$$$$
