FHL.pdb
     RDKit          3D

 30 31  0  0  1  0  0  0  0  0999 V2000
    5.8133  -18.0544   23.9701 N   0  0  0  0  0  0  0  0  0  0  0  0
    6.3592  -16.7104   24.0001 C   0  0  1  0  0  0  0  0  0  0  0  0
    6.1847  -16.1851   25.3983 C   0  0  0  0  0  0  0  0  0  0  0  0
    6.2294  -14.7207   25.4848 C   0  0  0  0  0  0  0  0  0  0  0  0
    5.3304  -13.9540   26.1973 C   0  0  0  0  0  0  0  0  0  0  0  0
    5.4636  -12.5824   26.2123 C   0  0  0  0  0  0  0  0  0  0  0  0
    6.4657  -11.9126   25.5417 C   0  0  0  0  0  0  0  0  0  0  0  0
    7.3677  -12.6858   24.8266 C   0  0  0  0  0  0  0  0  0  0  0  0
    7.2396  -14.0602   24.8077 C   0  0  0  0  0  0  0  0  0  0  0  0
    7.8429  -16.7901   23.7519 C   0  0  0  0  0  0  0  0  0  0  0  0
    8.4834  -17.8405   24.0798 O   0  0  0  0  0  0  0  0  0  0  0  0
    8.5642  -15.7398   23.1649 N   0  0  0  0  0  0  0  0  0  0  0  0
    9.9062  -15.8312   22.6729 C   0  0  1  0  0  0  0  0  0  0  0  0
   10.2941  -14.7163   21.7758 C   0  0  0  0  0  0  0  0  0  0  0  0
    9.3636  -14.4157   20.6769 C   0  0  0  0  0  0  0  0  0  0  0  0
    8.6803  -13.2589   20.4218 C   0  0  0  0  0  0  0  0  0  0  0  0
    7.9039  -13.4040   19.3158 N   0  0  0  0  0  0  0  0  0  0  0  0
    8.1035  -14.6377   18.8902 C   0  0  0  0  0  0  0  0  0  0  0  0
    8.9742  -15.2708   19.6857 N   0  0  0  0  0  0  0  0  0  0  0  0
   10.8762  -15.9310   23.8393 C   0  0  0  0  0  0  0  0  0  0  0  0
   12.1185  -15.9852   23.6396 O   0  0  0  0  0  0  0  0  0  0  0  0
   11.5635  -13.4599   27.4958 C   0  0  0  0  0  0  0  0  0  0  0  0
   10.3117  -14.2961   27.6588 C   0  0  2  0  0  0  0  0  0  0  0  0
    9.4218  -13.8613   28.7809 C   0  0  0  0  0  0  0  0  0  0  0  0
   10.5149  -15.7514   27.4980 C   0  0  0  0  0  0  0  0  0  0  0  0
   11.2572  -16.2525   26.3215 C   0  0  2  0  0  0  0  0  0  0  0  0
   10.3797  -15.9627   25.1551 N   0  0  0  0  0  0  0  0  0  0  0  0
   11.5861  -17.6958   26.3285 C   0  0  0  0  0  0  0  0  0  0  0  0
   12.5133  -18.1243   27.0848 O   0  0  0  0  0  0  0  0  0  0  0  0
   10.9541  -18.6590   25.5635 O   0  0  0  0  0  0  0  0  0  0  0  0
  2  1  1  1
  2  3  1  0
  2 10  1  0
  3  4  1  0
  4  9  1  0
  5  4  2  0
  5  6  1  0
  6  7  2  0
  7  8  1  0
  9  8  2  0
 10 12  1  0
 10 11  2  0
 12 13  1  0
 13 20  1  0
 13 14  1  1
 14 15  1  0
 15 16  2  0
 16 17  1  0
 18 17  1  0
 19 15  1  0
 19 18  2  0
 20 21  2  0
 23 22  1  1
 23 24  1  0
 23 25  1  0
 26 25  1  1
 26 28  1  0
 27 20  1  0
 27 26  1  0
 28 29  2  0
 28 30  1  0
M  END
$$$$
