DDF.pdb
     RDKit          3D

 28 28  0  0  1  0  0  0  0  0999 V2000
   25.8752  -18.5065  -19.8001 N   0  0  0  0  0  0  0  0  0  0  0  0
   26.5820  -18.8715  -18.6090 C   0  0  1  0  0  0  0  0  0  0  0  0
   27.9197  -18.1597  -18.5484 C   0  0  0  0  0  0  0  0  0  0  0  0
   28.7734  -18.6730  -19.6455 C   0  0  0  0  0  0  0  0  0  0  0  0
   28.7295  -19.8599  -20.0753 O   0  0  0  0  0  0  0  0  0  0  0  0
   25.8040  -18.6607  -17.3586 C   0  0  0  0  0  0  0  0  0  0  0  0
   26.1643  -17.6525  -16.6736 O   0  0  0  0  0  0  0  0  0  0  0  0
   29.6933  -17.8394  -20.2724 O   0  0  0  0  0  0  0  0  0  0  0  0
   24.7401  -19.5197  -16.9623 N   0  0  0  0  0  0  0  0  0  0  0  0
   24.0129  -19.1862  -15.7583 C   0  0  1  0  0  0  0  0  0  0  0  0
   22.5807  -18.7602  -16.0460 C   0  0  0  0  0  0  0  0  0  0  0  0
   21.8329  -18.4281  -14.8189 C   0  0  0  0  0  0  0  0  0  0  0  0
   21.1908  -19.2984  -14.1891 O   0  0  0  0  0  0  0  0  0  0  0  0
   23.9033  -20.3424  -14.8299 C   0  0  0  0  0  0  0  0  0  0  0  0
   23.3055  -21.3583  -15.2737 O   0  0  0  0  0  0  0  0  0  0  0  0
   21.8525  -17.1338  -14.3725 O   0  0  0  0  0  0  0  0  0  0  0  0
   24.4506  -20.2742  -13.5290 N   0  0  0  0  0  0  0  0  0  0  0  0
   24.3580  -21.4339  -12.6337 C   0  0  1  0  0  0  0  0  0  0  0  0
   25.6581  -21.6070  -11.8911 C   0  0  0  0  0  0  0  0  0  0  0  0
   25.6378  -20.8681  -10.6269 C   0  0  0  0  0  0  0  0  0  0  0  0
   25.3247  -21.4939   -9.4426 C   0  0  0  0  0  0  0  0  0  0  0  0
   25.3210  -20.8189   -8.2431 C   0  0  0  0  0  0  0  0  0  0  0  0
   25.6376  -19.4766   -8.2114 C   0  0  0  0  0  0  0  0  0  0  0  0
   25.9509  -18.8434   -9.3848 C   0  0  0  0  0  0  0  0  0  0  0  0
   25.9487  -19.5431  -10.5832 C   0  0  0  0  0  0  0  0  0  0  0  0
   23.1753  -21.3175  -11.7561 C   0  0  0  0  0  0  0  0  0  0  0  0
   22.5275  -22.3918  -11.2144 O   0  0  0  0  0  0  0  0  0  0  0  0
   22.7161  -20.1679  -11.4769 O   0  0  0  0  0  0  0  0  0  0  0  0
  2  1  1  6
  3  2  1  0
  4  3  1  0
  5  4  2  0
  6  2  1  0
  7  6  2  0
  8  4  1  0
  9  6  1  0
 10 11  1  6
 10  9  1  0
 12 16  1  0
 12 11  1  0
 13 12  2  0
 14 10  1  0
 15 14  2  0
 17 14  1  0
 18 17  1  0
 18 19  1  1
 19 20  1  0
 20 21  2  0
 21 22  1  0
 23 22  2  0
 24 23  1  0
 25 20  1  0
 25 24  2  0
 26 18  1  0
 26 27  1  0
 28 26  2  0
M  END
$$$$
