DDF.pdb
     RDKit          3D

 28 28  0  0  1  0  0  0  0  0999 V2000
   12.1241  -12.9883    4.9184 N   0  0  0  0  0  0  0  0  0  0  0  0
   12.3579  -14.3210    5.3884 C   0  0  1  0  0  0  0  0  0  0  0  0
   11.4987  -15.3099    4.6244 C   0  0  0  0  0  0  0  0  0  0  0  0
   10.0786  -15.0562    4.9634 C   0  0  0  0  0  0  0  0  0  0  0  0
    9.1845  -14.8048    4.1074 O   0  0  0  0  0  0  0  0  0  0  0  0
   13.7897  -14.7245    5.3671 C   0  0  0  0  0  0  0  0  0  0  0  0
   14.4640  -14.2359    4.4069 O   0  0  0  0  0  0  0  0  0  0  0  0
    9.6535  -15.0852    6.2872 O   0  0  0  0  0  0  0  0  0  0  0  0
   14.3584  -15.5884    6.3454 N   0  0  0  0  0  0  0  0  0  0  0  0
   15.7831  -15.8274    6.2917 C   0  0  1  0  0  0  0  0  0  0  0  0
   16.3964  -15.9853    7.6753 C   0  0  0  0  0  0  0  0  0  0  0  0
   16.1376  -14.8217    8.5439 C   0  0  0  0  0  0  0  0  0  0  0  0
   15.8199  -13.7087    8.0679 O   0  0  0  0  0  0  0  0  0  0  0  0
   16.1151  -17.0819    5.5660 C   0  0  0  0  0  0  0  0  0  0  0  0
   15.2572  -18.0022    5.6233 O   0  0  0  0  0  0  0  0  0  0  0  0
   16.2516  -14.9804    9.8992 O   0  0  0  0  0  0  0  0  0  0  0  0
   17.3329  -17.2031    4.8598 N   0  0  0  0  0  0  0  0  0  0  0  0
   17.6247  -18.4297    4.1078 C   0  0  1  0  0  0  0  0  0  0  0  0
   17.6061  -18.1355    2.6296 C   0  0  0  0  0  0  0  0  0  0  0  0
   18.6379  -17.1565    2.2808 C   0  0  0  0  0  0  0  0  0  0  0  0
   19.8738  -17.5567    1.8286 C   0  0  0  0  0  0  0  0  0  0  0  0
   20.8474  -16.6495    1.4771 C   0  0  0  0  0  0  0  0  0  0  0  0
   20.5918  -15.2975    1.5759 C   0  0  0  0  0  0  0  0  0  0  0  0
   19.3645  -14.8878    2.0251 C   0  0  0  0  0  0  0  0  0  0  0  0
   18.3971  -15.8195    2.3741 C   0  0  0  0  0  0  0  0  0  0  0  0
   18.8825  -19.0417    4.5831 C   0  0  0  0  0  0  0  0  0  0  0  0
   19.7210  -18.4447    5.4818 O   0  0  0  0  0  0  0  0  0  0  0  0
   19.2254  -20.1827    4.1462 O   0  0  0  0  0  0  0  0  0  0  0  0
  2  1  1  6
  3  2  1  0
  4  3  1  0
  5  4  2  0
  6  2  1  0
  7  6  2  0
  8  4  1  0
  9  6  1  0
 10 11  1  1
 10  9  1  0
 12 16  1  0
 12 11  1  0
 13 12  2  0
 14 10  1  0
 15 14  2  0
 17 14  1  0
 18 17  1  0
 18 19  1  6
 19 20  1  0
 20 21  2  0
 21 22  1  0
 23 22  2  0
 24 23  1  0
 25 20  1  0
 25 24  2  0
 26 18  1  0
 26 27  1  0
 28 26  2  0
M  END
$$$$
