DDF.pdb
     RDKit          3D

 28 28  0  0  1  0  0  0  0  0999 V2000
   19.9686   -9.7254  -16.7842 N   0  0  0  0  0  0  0  0  0  0  0  0
   19.5229   -8.6507  -17.6197 C   0  0  1  0  0  0  0  0  0  0  0  0
   18.2560   -9.0427  -18.3553 C   0  0  0  0  0  0  0  0  0  0  0  0
   18.5686  -10.1792  -19.2534 C   0  0  0  0  0  0  0  0  0  0  0  0
   18.4120  -10.1502  -20.5063 O   0  0  0  0  0  0  0  0  0  0  0  0
   19.3488   -7.3606  -16.8995 C   0  0  0  0  0  0  0  0  0  0  0  0
   18.1395   -7.0214  -16.7042 O   0  0  0  0  0  0  0  0  0  0  0  0
   19.0664  -11.3705  -18.7364 O   0  0  0  0  0  0  0  0  0  0  0  0
   20.4497   -6.5702  -16.4635 N   0  0  0  0  0  0  0  0  0  0  0  0
   20.1667   -5.3864  -15.6834 C   0  0  1  0  0  0  0  0  0  0  0  0
   20.5677   -5.5451  -14.2242 C   0  0  0  0  0  0  0  0  0  0  0  0
   21.9725   -5.9658  -14.0670 C   0  0  0  0  0  0  0  0  0  0  0  0
   22.5411   -6.6786  -14.9243 O   0  0  0  0  0  0  0  0  0  0  0  0
   20.9155   -4.1989  -16.1730 C   0  0  0  0  0  0  0  0  0  0  0  0
   21.8084   -4.4193  -17.0335 O   0  0  0  0  0  0  0  0  0  0  0  0
   22.6554   -5.5581  -12.9523 O   0  0  0  0  0  0  0  0  0  0  0  0
   20.6174   -2.9082  -15.6814 N   0  0  0  0  0  0  0  0  0  0  0  0
   21.3152   -1.7374  -16.2267 C   0  0  1  0  0  0  0  0  0  0  0  0
   21.1673   -1.7112  -17.7265 C   0  0  0  0  0  0  0  0  0  0  0  0
   21.7806   -0.5063  -18.2890 C   0  0  0  0  0  0  0  0  0  0  0  0
   23.1403   -0.4237  -18.4807 C   0  0  0  0  0  0  0  0  0  0  0  0
   23.7304    0.6932  -19.0270 C   0  0  0  0  0  0  0  0  0  0  0  0
   22.9498    1.7685  -19.3977 C   0  0  0  0  0  0  0  0  0  0  0  0
   21.5948    1.6972  -19.2113 C   0  0  0  0  0  0  0  0  0  0  0  0
   21.0204    0.5612  -18.6587 C   0  0  0  0  0  0  0  0  0  0  0  0
   20.8580   -0.5031  -15.5559 C   0  0  0  0  0  0  0  0  0  0  0  0
   21.6953    0.5133  -15.1912 O   0  0  0  0  0  0  0  0  0  0  0  0
   19.6256   -0.3563  -15.2917 O   0  0  0  0  0  0  0  0  0  0  0  0
  2  1  1  1
  3  2  1  0
  4  3  1  0
  5  4  2  0
  6  2  1  0
  7  6  2  0
  8  4  1  0
  9  6  1  0
 10 11  1  1
 10  9  1  0
 12 16  1  0
 12 11  1  0
 13 12  2  0
 14 10  1  0
 15 14  2  0
 17 14  1  0
 18 17  1  0
 18 19  1  6
 19 20  1  0
 20 21  2  0
 21 22  1  0
 23 22  2  0
 24 23  1  0
 25 20  1  0
 25 24  2  0
 26 18  1  0
 26 27  1  0
 28 26  2  0
M  END
$$$$
