DDF.pdb
     RDKit          3D

 28 28  0  0  1  0  0  0  0  0999 V2000
   16.2920  -11.5222  -19.0355 N   0  0  0  0  0  0  0  0  0  0  0  0
   17.3432  -11.5161  -18.0625 C   0  0  1  0  0  0  0  0  0  0  0  0
   18.4469  -12.4730  -18.4699 C   0  0  0  0  0  0  0  0  0  0  0  0
   17.9145  -13.8546  -18.4101 C   0  0  0  0  0  0  0  0  0  0  0  0
   18.0311  -14.6112  -17.4055 O   0  0  0  0  0  0  0  0  0  0  0  0
   17.8864  -10.1620  -17.7714 C   0  0  0  0  0  0  0  0  0  0  0  0
   19.1549  -10.0983  -17.7248 O   0  0  0  0  0  0  0  0  0  0  0  0
   17.2384  -14.3976  -19.4975 O   0  0  0  0  0  0  0  0  0  0  0  0
   17.0509   -9.0283  -17.5629 N   0  0  0  0  0  0  0  0  0  0  0  0
   17.6813   -7.7813  -17.1923 C   0  0  1  0  0  0  0  0  0  0  0  0
   16.7193   -6.6042  -17.2577 C   0  0  0  0  0  0  0  0  0  0  0  0
   17.3667   -5.3256  -16.9091 C   0  0  0  0  0  0  0  0  0  0  0  0
   16.8036   -4.4886  -16.1684 O   0  0  0  0  0  0  0  0  0  0  0  0
   18.1879   -7.8016  -15.7946 C   0  0  0  0  0  0  0  0  0  0  0  0
   17.4127   -8.2863  -14.9283 O   0  0  0  0  0  0  0  0  0  0  0  0
   18.6118   -5.0648  -17.4156 O   0  0  0  0  0  0  0  0  0  0  0  0
   19.4722   -7.2986  -15.4880 N   0  0  0  0  0  0  0  0  0  0  0  0
   19.9760   -7.3667  -14.1108 C   0  0  1  0  0  0  0  0  0  0  0  0
   21.4198   -7.7991  -14.1192 C   0  0  0  0  0  0  0  0  0  0  0  0
   21.9282   -7.9424  -12.7533 C   0  0  0  0  0  0  0  0  0  0  0  0
   22.3046   -6.8439  -12.0159 C   0  0  0  0  0  0  0  0  0  0  0  0
   22.7649   -6.9593  -10.7239 C   0  0  0  0  0  0  0  0  0  0  0  0
   22.8574   -8.2049  -10.1382 C   0  0  0  0  0  0  0  0  0  0  0  0
   22.4853   -9.3056  -10.8634 C   0  0  0  0  0  0  0  0  0  0  0  0
   22.0237   -9.1666  -12.1647 C   0  0  0  0  0  0  0  0  0  0  0  0
   19.7349   -6.0900  -13.4075 C   0  0  0  0  0  0  0  0  0  0  0  0
   19.8713   -4.8649  -13.9971 O   0  0  0  0  0  0  0  0  0  0  0  0
   19.3828   -6.1060  -12.1884 O   0  0  0  0  0  0  0  0  0  0  0  0
  2  1  1  6
  3  2  1  0
  4  3  1  0
  5  4  2  0
  6  2  1  0
  7  6  2  0
  8  4  1  0
  9  6  1  0
 10 11  1  1
 10  9  1  0
 12 16  1  0
 12 11  1  0
 13 12  2  0
 14 10  1  0
 15 14  2  0
 17 14  1  0
 18 17  1  0
 18 19  1  6
 19 20  1  0
 20 21  2  0
 21 22  1  0
 23 22  2  0
 24 23  1  0
 25 20  1  0
 25 24  2  0
 26 18  1  0
 26 27  1  0
 28 26  2  0
M  END
$$$$
