DDF.pdb
     RDKit          3D

 28 28  0  0  1  0  0  0  0  0999 V2000
   27.3637  -21.3507  -15.5323 N   0  0  0  0  0  0  0  0  0  0  0  0
   27.6979  -20.1435  -14.8375 C   0  0  1  0  0  0  0  0  0  0  0  0
   27.6759  -18.9624  -15.7884 C   0  0  0  0  0  0  0  0  0  0  0  0
   28.2553  -19.3923  -17.0828 C   0  0  0  0  0  0  0  0  0  0  0  0
   27.5742  -19.5906  -18.1278 O   0  0  0  0  0  0  0  0  0  0  0  0
   26.8543  -19.8849  -13.6397 C   0  0  0  0  0  0  0  0  0  0  0  0
   26.9008  -18.6910  -13.2062 O   0  0  0  0  0  0  0  0  0  0  0  0
   29.6242  -19.6036  -17.2073 O   0  0  0  0  0  0  0  0  0  0  0  0
   26.0580  -20.8948  -13.0291 N   0  0  0  0  0  0  0  0  0  0  0  0
   25.2022  -20.5098  -11.9294 C   0  0  1  0  0  0  0  0  0  0  0  0
   23.8404  -21.1857  -11.9913 C   0  0  0  0  0  0  0  0  0  0  0  0
   22.8956  -20.6447  -10.9963 C   0  0  0  0  0  0  0  0  0  0  0  0
   23.1780  -19.6399  -10.3058 O   0  0  0  0  0  0  0  0  0  0  0  0
   25.7747  -20.8926  -10.6117 C   0  0  0  0  0  0  0  0  0  0  0  0
   26.1334  -22.0936  -10.4879 O   0  0  0  0  0  0  0  0  0  0  0  0
   21.6867  -21.2679  -10.8376 O   0  0  0  0  0  0  0  0  0  0  0  0
   25.8971  -19.9386   -9.5766 N   0  0  0  0  0  0  0  0  0  0  0  0
   26.5023  -20.3217   -8.2952 C   0  0  1  0  0  0  0  0  0  0  0  0
   27.2107  -19.1352   -7.6934 C   0  0  0  0  0  0  0  0  0  0  0  0
   27.7851  -19.4777   -6.3906 C   0  0  0  0  0  0  0  0  0  0  0  0
   28.8334  -20.3622   -6.2862 C   0  0  0  0  0  0  0  0  0  0  0  0
   29.3982  -20.6793   -5.0717 C   0  0  0  0  0  0  0  0  0  0  0  0
   28.9101  -20.1022   -3.9176 C   0  0  0  0  0  0  0  0  0  0  0  0
   27.8664  -19.2201   -4.0099 C   0  0  0  0  0  0  0  0  0  0  0  0
   27.3118  -18.9144   -5.2448 C   0  0  0  0  0  0  0  0  0  0  0  0
   25.4918  -20.9324   -7.4072 C   0  0  0  0  0  0  0  0  0  0  0  0
   25.7979  -21.8078   -6.4036 O   0  0  0  0  0  0  0  0  0  0  0  0
   24.2660  -20.6454   -7.5666 O   0  0  0  0  0  0  0  0  0  0  0  0
  2  1  1  6
  3  2  1  0
  4  3  1  0
  5  4  2  0
  6  2  1  0
  7  6  2  0
  8  4  1  0
  9  6  1  0
 10 11  1  6
 10  9  1  0
 12 16  1  0
 12 11  1  0
 13 12  2  0
 14 10  1  0
 15 14  2  0
 17 14  1  0
 18 17  1  0
 18 19  1  1
 19 20  1  0
 20 21  2  0
 21 22  1  0
 23 22  2  0
 24 23  1  0
 25 20  1  0
 25 24  2  0
 26 18  1  0
 26 27  1  0
 28 26  2  0
M  END
$$$$
