DDF.pdb
     RDKit          3D

 28 28  0  0  1  0  0  0  0  0999 V2000
   17.9702  -10.8192  -16.0170 N   0  0  0  0  0  0  0  0  0  0  0  0
   19.2206  -10.3682  -16.5507 C   0  0  1  0  0  0  0  0  0  0  0  0
   19.5011  -11.0398  -17.8812 C   0  0  0  0  0  0  0  0  0  0  0  0
   19.5656  -12.5040  -17.6622 C   0  0  0  0  0  0  0  0  0  0  0  0
   19.5178  -13.0484  -16.5235 O   0  0  0  0  0  0  0  0  0  0  0  0
   19.3292   -8.8886  -16.6622 C   0  0  0  0  0  0  0  0  0  0  0  0
   20.4361   -8.4718  -17.1274 O   0  0  0  0  0  0  0  0  0  0  0  0
   19.6856  -13.3738  -18.7408 O   0  0  0  0  0  0  0  0  0  0  0  0
   18.2761   -8.0107  -16.2789 N   0  0  0  0  0  0  0  0  0  0  0  0
   18.5028   -6.5880  -16.3993 C   0  0  1  0  0  0  0  0  0  0  0  0
   17.2059   -5.8049  -16.5407 C   0  0  0  0  0  0  0  0  0  0  0  0
   16.5505   -6.0280  -17.8430 C   0  0  0  0  0  0  0  0  0  0  0  0
   15.3759   -6.4534  -17.9192 O   0  0  0  0  0  0  0  0  0  0  0  0
   19.1776   -6.0234  -15.2007 C   0  0  0  0  0  0  0  0  0  0  0  0
   18.7714   -6.4414  -14.0842 O   0  0  0  0  0  0  0  0  0  0  0  0
   17.2573   -5.7584  -18.9843 O   0  0  0  0  0  0  0  0  0  0  0  0
   20.2141   -5.0734  -15.3400 N   0  0  0  0  0  0  0  0  0  0  0  0
   20.8879   -4.5442  -14.1479 C   0  0  1  0  0  0  0  0  0  0  0  0
   21.6582   -5.6474  -13.4684 C   0  0  0  0  0  0  0  0  0  0  0  0
   22.6329   -6.2425  -14.3851 C   0  0  0  0  0  0  0  0  0  0  0  0
   23.5906   -5.4721  -15.0027 C   0  0  0  0  0  0  0  0  0  0  0  0
   24.5267   -6.0186  -15.8509 C   0  0  0  0  0  0  0  0  0  0  0  0
   24.5171   -7.3756  -16.0988 C   0  0  0  0  0  0  0  0  0  0  0  0
   23.5679   -8.1523  -15.4892 C   0  0  0  0  0  0  0  0  0  0  0  0
   22.6333   -7.5806  -14.6374 C   0  0  0  0  0  0  0  0  0  0  0  0
   21.7074   -3.3655  -14.4965 C   0  0  0  0  0  0  0  0  0  0  0  0
   22.3690   -2.6053  -13.5736 O   0  0  0  0  0  0  0  0  0  0  0  0
   21.8166   -3.0189  -15.7123 O   0  0  0  0  0  0  0  0  0  0  0  0
  2  1  1  6
  3  2  1  0
  4  3  1  0
  5  4  2  0
  6  2  1  0
  7  6  2  0
  8  4  1  0
  9  6  1  0
 10 11  1  1
 10  9  1  0
 12 16  1  0
 12 11  1  0
 13 12  2  0
 14 10  1  0
 15 14  2  0
 17 14  1  0
 18 17  1  0
 18 19  1  6
 19 20  1  0
 20 21  2  0
 21 22  1  0
 23 22  2  0
 24 23  1  0
 25 20  1  0
 25 24  2  0
 26 18  1  0
 26 27  1  0
 28 26  2  0
M  END
$$$$
