CDI.pdb
     RDKit          3D

 23 22  0  0  1  0  0  0  0  0999 V2000
   -1.5655  -20.7538   24.6652 N   0  0  0  0  0  0  0  0  0  0  0  0
   -2.3970  -21.6168   23.8772 C   0  0  1  0  0  0  0  0  0  0  0  0
   -1.4965  -22.4584   22.9954 C   0  0  0  0  0  0  0  0  0  0  0  0
   -0.3512  -21.4239   22.0417 S   0  0  0  0  0  0  0  0  0  0  0  0
   -3.1830  -22.5675   24.7030 C   0  0  0  0  0  0  0  0  0  0  0  0
   -3.9601  -23.3599   24.1207 O   0  0  0  0  0  0  0  0  0  0  0  0
   -3.0714  -22.5932   26.1032 N   0  0  0  0  0  0  0  0  0  0  0  0
   -3.8911  -23.4595   26.9533 C   0  0  1  0  0  0  0  0  0  0  0  0
   -2.9734  -23.9200   28.0435 C   0  0  0  0  0  0  0  0  0  0  0  0
   -3.6991  -24.6704   29.0737 C   0  0  0  0  0  0  0  0  0  0  0  0
   -4.5349  -25.5358   28.7355 O   0  0  0  0  0  0  0  0  0  0  0  0
   -5.0579  -22.6784   27.3613 C   0  0  0  0  0  0  0  0  0  0  0  0
   -4.8684  -21.4661   27.7293 O   0  0  0  0  0  0  0  0  0  0  0  0
   -3.4716  -24.4343   30.4093 O   0  0  0  0  0  0  0  0  0  0  0  0
  -10.5044  -20.9676   25.7395 C   0  0  0  0  0  0  0  0  0  0  0  0
   -9.6338  -21.2038   26.9280 C   0  0  0  0  0  0  0  0  0  0  0  0
   -8.4440  -22.0779   26.5477 C   0  0  2  0  0  0  0  0  0  0  0  0
   -8.9993  -23.4311   26.1590 C   0  0  0  0  0  0  0  0  0  0  0  0
   -7.4900  -22.2405   27.7127 C   0  0  2  0  0  0  0  0  0  0  0  0
   -6.4120  -23.1425   27.3856 N   0  0  0  0  0  0  0  0  0  0  0  0
   -8.2880  -22.7181   28.8624 C   0  0  0  0  0  0  0  0  0  0  0  0
   -8.2630  -23.9153   29.2593 O   0  0  0  0  0  0  0  0  0  0  0  0
   -9.0917  -21.8048   29.5240 O   0  0  0  0  0  0  0  0  0  0  0  0
  2  1  1  1
  3  2  1  0
  3  4  1  0
  5  2  1  0
  6  5  2  0
  7  5  1  0
  8  9  1  1
  8  7  1  0
 10  9  1  0
 11 10  2  0
 12 20  1  0
 12  8  1  0
 13 12  2  0
 14 10  1  0
 15 16  1  0
 16 17  1  0
 17 18  1  1
 19 21  1  0
 19 17  1  0
 19 20  1  6
 21 23  1  0
 22 21  2  0
M  END
$$$$
