CDI.pdb
     RDKit          3D

 23 22  0  0  1  0  0  0  0  0999 V2000
   10.1769  -14.7636   19.0187 N   0  0  0  0  0  0  0  0  0  0  0  0
    9.1567  -13.8809   19.5060 C   0  0  1  0  0  0  0  0  0  0  0  0
    8.1216  -13.7119   18.4121 C   0  0  0  0  0  0  0  0  0  0  0  0
    6.9003  -12.4430   18.8481 S   0  0  0  0  0  0  0  0  0  0  0  0
    8.4376  -14.4292   20.6831 C   0  0  0  0  0  0  0  0  0  0  0  0
    7.5999  -13.6984   21.2621 O   0  0  0  0  0  0  0  0  0  0  0  0
    8.6764  -15.7323   21.1507 N   0  0  0  0  0  0  0  0  0  0  0  0
    8.0367  -16.2799   22.3489 C   0  0  1  0  0  0  0  0  0  0  0  0
    8.2812  -17.7560   22.2835 C   0  0  0  0  0  0  0  0  0  0  0  0
    9.7022  -18.0724   22.4613 C   0  0  0  0  0  0  0  0  0  0  0  0
   10.5701  -17.3127   21.9801 O   0  0  0  0  0  0  0  0  0  0  0  0
    8.5994  -15.5699   23.4967 C   0  0  0  0  0  0  0  0  0  0  0  0
    9.6883  -14.9179   23.3228 O   0  0  0  0  0  0  0  0  0  0  0  0
   10.0931  -19.1955   23.1520 O   0  0  0  0  0  0  0  0  0  0  0  0
    6.1212  -11.8775   25.9572 C   0  0  0  0  0  0  0  0  0  0  0  0
    7.1934  -12.7477   25.3919 C   0  0  0  0  0  0  0  0  0  0  0  0
    7.6750  -13.7438   26.4407 C   0  0  2  0  0  0  0  0  0  0  0  0
    8.3603  -12.9422   27.5262 C   0  0  0  0  0  0  0  0  0  0  0  0
    8.6578  -14.7312   25.8470 C   0  0  2  0  0  0  0  0  0  0  0  0
    8.0409  -15.5285   24.8142 N   0  0  0  0  0  0  0  0  0  0  0  0
    9.1671  -15.5588   26.9616 C   0  0  0  0  0  0  0  0  0  0  0  0
    8.7877  -16.7457   27.1582 O   0  0  0  0  0  0  0  0  0  0  0  0
   10.0992  -14.9980   27.8186 O   0  0  0  0  0  0  0  0  0  0  0  0
  2  1  1  6
  3  2  1  0
  3  4  1  0
  5  2  1  0
  6  5  2  0
  7  5  1  0
  8  9  1  1
  8  7  1  0
 10  9  1  0
 11 10  2  0
 12 20  1  0
 12  8  1  0
 13 12  2  0
 14 10  1  0
 15 16  1  0
 16 17  1  0
 17 18  1  1
 19 21  1  0
 19 17  1  0
 19 20  1  6
 21 23  1  0
 22 21  2  0
M  END
$$$$
