CDI.pdb
     RDKit          3D

 23 22  0  0  1  0  0  0  0  0999 V2000
    7.8663  -15.1755   18.3185 N   0  0  0  0  0  0  0  0  0  0  0  0
    8.4331  -14.6733   19.5366 C   0  0  1  0  0  0  0  0  0  0  0  0
    7.7830  -13.3384   19.8406 C   0  0  0  0  0  0  0  0  0  0  0  0
    8.2407  -12.0851   18.6112 S   0  0  0  0  0  0  0  0  0  0  0  0
    8.1568  -15.5496   20.7025 C   0  0  0  0  0  0  0  0  0  0  0  0
    7.4388  -16.5621   20.5289 O   0  0  0  0  0  0  0  0  0  0  0  0
    8.6788  -15.2673   21.9759 N   0  0  0  0  0  0  0  0  0  0  0  0
    8.8012  -16.2768   23.0299 C   0  0  1  0  0  0  0  0  0  0  0  0
    9.6296  -17.3708   22.4299 C   0  0  0  0  0  0  0  0  0  0  0  0
    9.7865  -18.4950   23.3586 C   0  0  0  0  0  0  0  0  0  0  0  0
   10.5725  -18.3942   24.3251 O   0  0  0  0  0  0  0  0  0  0  0  0
    9.3518  -15.6035   24.2052 C   0  0  0  0  0  0  0  0  0  0  0  0
   10.5275  -15.1032   24.1133 O   0  0  0  0  0  0  0  0  0  0  0  0
    9.0789  -19.6607   23.1801 O   0  0  0  0  0  0  0  0  0  0  0  0
    6.4067  -12.1374   26.6874 C   0  0  0  0  0  0  0  0  0  0  0  0
    7.5374  -12.8930   26.0734 C   0  0  0  0  0  0  0  0  0  0  0  0
    8.2658  -13.7108   27.1340 C   0  0  2  0  0  0  0  0  0  0  0  0
    8.9711  -12.7256   28.0410 C   0  0  0  0  0  0  0  0  0  0  0  0
    9.2863  -14.6367   26.5056 C   0  0  2  0  0  0  0  0  0  0  0  0
    8.6929  -15.4429   25.4660 N   0  0  0  0  0  0  0  0  0  0  0  0
    9.8530  -15.4600   27.5955 C   0  0  0  0  0  0  0  0  0  0  0  0
   10.5925  -14.9806   28.4981 O   0  0  0  0  0  0  0  0  0  0  0  0
    9.5525  -16.8117   27.6169 O   0  0  0  0  0  0  0  0  0  0  0  0
  2  1  1  6
  3  2  1  0
  3  4  1  0
  5  2  1  0
  6  5  2  0
  7  5  1  0
  8  9  1  6
  8  7  1  0
 10  9  1  0
 11 10  2  0
 12 20  1  0
 12  8  1  0
 13 12  2  0
 14 10  1  0
 15 16  1  0
 16 17  1  0
 17 18  1  1
 19 21  1  0
 19 17  1  0
 19 20  1  6
 21 23  1  0
 22 21  2  0
M  END
$$$$
