CDI.pdb
     RDKit          3D

 23 22  0  0  1  0  0  0  0  0999 V2000
    7.6041  -14.9968   18.3147 N   0  0  0  0  0  0  0  0  0  0  0  0
    8.2399  -14.4321   19.4697 C   0  0  1  0  0  0  0  0  0  0  0  0
    7.3785  -13.2886   19.9669 C   0  0  0  0  0  0  0  0  0  0  0  0
    7.8960  -11.7078   19.2425 S   0  0  0  0  0  0  0  0  0  0  0  0
    8.3483  -15.3954   20.5939 C   0  0  0  0  0  0  0  0  0  0  0  0
    7.6440  -16.4315   20.5597 O   0  0  0  0  0  0  0  0  0  0  0  0
    9.2134  -15.1682   21.6774 N   0  0  0  0  0  0  0  0  0  0  0  0
    9.4387  -16.1523   22.7384 C   0  0  1  0  0  0  0  0  0  0  0  0
   10.5791  -16.9946   22.2556 C   0  0  0  0  0  0  0  0  0  0  0  0
   11.0172  -17.9441   23.2839 C   0  0  0  0  0  0  0  0  0  0  0  0
   10.1657  -18.5719   23.9494 O   0  0  0  0  0  0  0  0  0  0  0  0
    9.6510  -15.4048   23.9771 C   0  0  0  0  0  0  0  0  0  0  0  0
    9.9960  -14.1747   23.8829 O   0  0  0  0  0  0  0  0  0  0  0  0
   12.3546  -18.1534   23.5260 O   0  0  0  0  0  0  0  0  0  0  0  0
    7.0708  -12.2527   25.1380 C   0  0  0  0  0  0  0  0  0  0  0  0
    8.3140  -13.0679   25.2650 C   0  0  0  0  0  0  0  0  0  0  0  0
    8.1206  -14.1711   26.2993 C   0  0  2  0  0  0  0  0  0  0  0  0
    7.8392  -13.4899   27.6211 C   0  0  0  0  0  0  0  0  0  0  0  0
    9.3648  -15.0251   26.4275 C   0  0  2  0  0  0  0  0  0  0  0  0
    9.5041  -15.9207   25.3044 N   0  0  0  0  0  0  0  0  0  0  0  0
    9.2609  -15.7517   27.7113 C   0  0  0  0  0  0  0  0  0  0  0  0
    8.7684  -16.9096   27.8014 O   0  0  0  0  0  0  0  0  0  0  0  0
    9.7273  -15.1262   28.8553 O   0  0  0  0  0  0  0  0  0  0  0  0
  2  1  1  6
  3  2  1  0
  3  4  1  0
  5  2  1  0
  6  5  2  0
  7  5  1  0
  8  9  1  6
  8  7  1  0
 10  9  1  0
 11 10  2  0
 12 20  1  0
 12  8  1  0
 13 12  2  0
 14 10  1  0
 15 16  1  0
 16 17  1  0
 17 18  1  1
 19 21  1  0
 19 17  1  0
 19 20  1  6
 21 23  1  0
 22 21  2  0
M  END
$$$$
