CDI.pdb
     RDKit          3D

 23 22  0  0  1  0  0  0  0  0999 V2000
    7.3749  -14.7300   17.8957 N   0  0  0  0  0  0  0  0  0  0  0  0
    8.1803  -14.2167   18.9658 C   0  0  1  0  0  0  0  0  0  0  0  0
    7.5817  -12.8978   19.4118 C   0  0  0  0  0  0  0  0  0  0  0  0
    8.5182  -12.1793   20.7896 S   0  0  0  0  0  0  0  0  0  0  0  0
    8.1821  -15.1011   20.1580 C   0  0  0  0  0  0  0  0  0  0  0  0
    7.1092  -15.6597   20.4862 O   0  0  0  0  0  0  0  0  0  0  0  0
    9.3477  -15.3188   20.9115 N   0  0  0  0  0  0  0  0  0  0  0  0
    9.3977  -16.2264   22.0599 C   0  0  1  0  0  0  0  0  0  0  0  0
   10.5993  -17.0889   21.8254 C   0  0  0  0  0  0  0  0  0  0  0  0
   10.6553  -18.2011   22.7798 C   0  0  0  0  0  0  0  0  0  0  0  0
   10.6005  -17.9673   24.0063 O   0  0  0  0  0  0  0  0  0  0  0  0
    9.4092  -15.3945   23.2623 C   0  0  0  0  0  0  0  0  0  0  0  0
   10.3793  -14.5715   23.4122 O   0  0  0  0  0  0  0  0  0  0  0  0
   10.7670  -19.5001   22.3424 O   0  0  0  0  0  0  0  0  0  0  0  0
    6.7096  -11.4568   26.5528 C   0  0  0  0  0  0  0  0  0  0  0  0
    7.8697  -12.3805   26.3875 C   0  0  0  0  0  0  0  0  0  0  0  0
    7.4298  -13.6641   25.6925 C   0  0  2  0  0  0  0  0  0  0  0  0
    6.4068  -14.3229   26.5926 C   0  0  0  0  0  0  0  0  0  0  0  0
    8.5996  -14.6037   25.4872 C   0  0  2  0  0  0  0  0  0  0  0  0
    8.4246  -15.4077   24.3015 N   0  0  0  0  0  0  0  0  0  0  0  0
    8.7122  -15.4286   26.7094 C   0  0  0  0  0  0  0  0  0  0  0  0
    9.1583  -14.9755   27.7989 O   0  0  0  0  0  0  0  0  0  0  0  0
    8.3077  -16.7514   26.6441 O   0  0  0  0  0  0  0  0  0  0  0  0
  2  1  1  6
  3  2  1  0
  3  4  1  0
  5  2  1  0
  6  5  2  0
  7  5  1  0
  8  9  1  6
  8  7  1  0
 10  9  1  0
 11 10  2  0
 12 20  1  0
 12  8  1  0
 13 12  2  0
 14 10  1  0
 15 16  1  0
 16 17  1  0
 17 18  1  1
 19 21  1  0
 19 17  1  0
 19 20  1  6
 21 23  1  0
 22 21  2  0
M  END
$$$$
