CDI.pdb
     RDKit          3D

 23 22  0  0  1  0  0  0  0  0999 V2000
    6.6195  -15.2107   18.6948 N   0  0  0  0  0  0  0  0  0  0  0  0
    7.7315  -14.6570   19.4120 C   0  0  1  0  0  0  0  0  0  0  0  0
    7.3821  -13.2318   19.7908 C   0  0  0  0  0  0  0  0  0  0  0  0
    8.7310  -12.4433   20.7129 S   0  0  0  0  0  0  0  0  0  0  0  0
    8.0089  -15.3728   20.6825 C   0  0  0  0  0  0  0  0  0  0  0  0
    7.0367  -15.7399   21.3832 O   0  0  0  0  0  0  0  0  0  0  0  0
    9.3216  -15.6413   21.1050 N   0  0  0  0  0  0  0  0  0  0  0  0
    9.6300  -16.3716   22.3364 C   0  0  1  0  0  0  0  0  0  0  0  0
   10.9755  -16.9858   22.1010 C   0  0  0  0  0  0  0  0  0  0  0  0
   10.8627  -18.2761   21.4129 C   0  0  0  0  0  0  0  0  0  0  0  0
    9.8205  -18.9547   21.5373 O   0  0  0  0  0  0  0  0  0  0  0  0
    9.5266  -15.4156   23.4380 C   0  0  0  0  0  0  0  0  0  0  0  0
   10.3352  -14.4221   23.4470 O   0  0  0  0  0  0  0  0  0  0  0  0
   11.8899  -18.7499   20.6308 O   0  0  0  0  0  0  0  0  0  0  0  0
    6.5750  -11.5558   26.6856 C   0  0  0  0  0  0  0  0  0  0  0  0
    7.6104  -12.6232   26.8071 C   0  0  0  0  0  0  0  0  0  0  0  0
    7.5270  -13.5792   25.6225 C   0  0  2  0  0  0  0  0  0  0  0  0
    6.2263  -14.3402   25.7626 C   0  0  0  0  0  0  0  0  0  0  0  0
    8.6847  -14.5557   25.6248 C   0  0  2  0  0  0  0  0  0  0  0  0
    8.5926  -15.4808   24.5210 N   0  0  0  0  0  0  0  0  0  0  0  0
    8.6676  -15.2444   26.9333 C   0  0  0  0  0  0  0  0  0  0  0  0
    8.8314  -14.6359   28.0262 O   0  0  0  0  0  0  0  0  0  0  0  0
    8.4618  -16.6138   26.9480 O   0  0  0  0  0  0  0  0  0  0  0  0
  2  1  1  1
  3  2  1  0
  3  4  1  0
  5  2  1  0
  6  5  2  0
  7  5  1  0
  8  9  1  6
  8  7  1  0
 10  9  1  0
 11 10  2  0
 12 20  1  0
 12  8  1  0
 13 12  2  0
 14 10  1  0
 15 16  1  0
 16 17  1  0
 17 18  1  1
 19 21  1  0
 19 17  1  0
 19 20  1  6
 21 23  1  0
 22 21  2  0
M  END
$$$$
