CDI.pdb
     RDKit          3D

 23 22  0  0  1  0  0  0  0  0999 V2000
    7.8030  -15.1583   17.9434 N   0  0  0  0  0  0  0  0  0  0  0  0
    8.4343  -14.5988   19.1034 C   0  0  1  0  0  0  0  0  0  0  0  0
    7.9000  -13.1937   19.2959 C   0  0  0  0  0  0  0  0  0  0  0  0
    8.5638  -12.4350   20.8043 S   0  0  0  0  0  0  0  0  0  0  0  0
    8.1138  -15.3435   20.3469 C   0  0  0  0  0  0  0  0  0  0  0  0
    6.9150  -15.6254   20.5794 O   0  0  0  0  0  0  0  0  0  0  0  0
    9.1160  -15.7313   21.2519 N   0  0  0  0  0  0  0  0  0  0  0  0
    8.8314  -16.4360   22.5038 C   0  0  1  0  0  0  0  0  0  0  0  0
    9.6799  -17.6694   22.4606 C   0  0  0  0  0  0  0  0  0  0  0  0
    9.0581  -18.7195   21.6471 C   0  0  0  0  0  0  0  0  0  0  0  0
    7.8123  -18.7960   21.5824 O   0  0  0  0  0  0  0  0  0  0  0  0
    9.0920  -15.4957   23.5927 C   0  0  0  0  0  0  0  0  0  0  0  0
   10.2271  -14.9022   23.6131 O   0  0  0  0  0  0  0  0  0  0  0  0
    9.8289  -19.6225   20.9531 O   0  0  0  0  0  0  0  0  0  0  0  0
    5.5814  -12.0325   25.7756 C   0  0  0  0  0  0  0  0  0  0  0  0
    6.7924  -12.7133   25.2313 C   0  0  0  0  0  0  0  0  0  0  0  0
    7.4747  -13.5321   26.3215 C   0  0  2  0  0  0  0  0  0  0  0  0
    8.0095  -12.5487   27.3401 C   0  0  0  0  0  0  0  0  0  0  0  0
    8.6203  -14.3467   25.7579 C   0  0  2  0  0  0  0  0  0  0  0  0
    8.1868  -15.1658   24.6516 N   0  0  0  0  0  0  0  0  0  0  0  0
    9.1657  -15.1542   26.8702 C   0  0  0  0  0  0  0  0  0  0  0  0
    8.8919  -16.3760   27.0238 O   0  0  0  0  0  0  0  0  0  0  0  0
   10.0116  -14.5337   27.7742 O   0  0  0  0  0  0  0  0  0  0  0  0
  2  1  1  6
  3  2  1  0
  3  4  1  0
  5  2  1  0
  6  5  2  0
  7  5  1  0
  8  9  1  1
  8  7  1  0
 10  9  1  0
 11 10  2  0
 12 20  1  0
 12  8  1  0
 13 12  2  0
 14 10  1  0
 15 16  1  0
 16 17  1  0
 17 18  1  1
 19 21  1  0
 19 17  1  0
 19 20  1  6
 21 23  1  0
 22 21  2  0
M  END
$$$$
