CDI.pdb
     RDKit          3D

 23 22  0  0  1  0  0  0  0  0999 V2000
    9.9998  -14.2716   19.9521 N   0  0  0  0  0  0  0  0  0  0  0  0
    8.6818  -14.1618   20.5073 C   0  0  1  0  0  0  0  0  0  0  0  0
    7.6944  -14.6646   19.4735 C   0  0  0  0  0  0  0  0  0  0  0  0
    5.9828  -14.4581   20.0389 S   0  0  0  0  0  0  0  0  0  0  0  0
    8.4944  -15.0075   21.7127 C   0  0  0  0  0  0  0  0  0  0  0  0
    7.4120  -14.9203   22.3384 O   0  0  0  0  0  0  0  0  0  0  0  0
    9.4941  -15.8897   22.1559 N   0  0  0  0  0  0  0  0  0  0  0  0
    9.3568  -16.7106   23.3609 C   0  0  1  0  0  0  0  0  0  0  0  0
   10.2462  -17.8937   23.1323 C   0  0  0  0  0  0  0  0  0  0  0  0
   10.3026  -18.7585   24.3154 C   0  0  0  0  0  0  0  0  0  0  0  0
   10.1298  -18.2656   25.4509 O   0  0  0  0  0  0  0  0  0  0  0  0
    9.6808  -15.8542   24.5010 C   0  0  0  0  0  0  0  0  0  0  0  0
   10.8484  -15.3288   24.5430 O   0  0  0  0  0  0  0  0  0  0  0  0
   10.5432  -20.1069   24.1920 O   0  0  0  0  0  0  0  0  0  0  0  0
    6.2667  -12.2767   26.3758 C   0  0  0  0  0  0  0  0  0  0  0  0
    7.5288  -12.9525   25.9556 C   0  0  0  0  0  0  0  0  0  0  0  0
    8.1069  -13.7610   27.1117 C   0  0  2  0  0  0  0  0  0  0  0  0
    8.6356  -12.7664   28.1225 C   0  0  0  0  0  0  0  0  0  0  0  0
    9.2376  -14.6533   26.6439 C   0  0  2  0  0  0  0  0  0  0  0  0
    8.8054  -15.5378   25.5886 N   0  0  0  0  0  0  0  0  0  0  0  0
    9.7238  -15.3932   27.8283 C   0  0  0  0  0  0  0  0  0  0  0  0
    9.3501  -16.5672   28.0995 O   0  0  0  0  0  0  0  0  0  0  0  0
   10.6270  -14.7621   28.6672 O   0  0  0  0  0  0  0  0  0  0  0  0
  2  1  1  6
  3  2  1  0
  3  4  1  0
  5  2  1  0
  6  5  2  0
  7  5  1  0
  8  9  1  6
  8  7  1  0
 10  9  1  0
 11 10  2  0
 12 20  1  0
 12  8  1  0
 13 12  2  0
 14 10  1  0
 15 16  1  0
 16 17  1  0
 17 18  1  1
 19 21  1  0
 19 17  1  0
 19 20  1  6
 21 23  1  0
 22 21  2  0
M  END
$$$$
