CDI.pdb
     RDKit          3D

 23 22  0  0  1  0  0  0  0  0999 V2000
    6.9360  -15.7949   19.3182 N   0  0  0  0  0  0  0  0  0  0  0  0
    7.8785  -15.1090   20.1541 C   0  0  1  0  0  0  0  0  0  0  0  0
    7.3221  -13.7321   20.4558 C   0  0  0  0  0  0  0  0  0  0  0  0
    8.4094  -12.8114   21.5791 S   0  0  0  0  0  0  0  0  0  0  0  0
    8.0767  -15.7778   21.4644 C   0  0  0  0  0  0  0  0  0  0  0  0
    7.0765  -16.2662   22.0405 O   0  0  0  0  0  0  0  0  0  0  0  0
    9.3462  -15.8710   22.0589 N   0  0  0  0  0  0  0  0  0  0  0  0
    9.6024  -16.6438   23.2763 C   0  0  1  0  0  0  0  0  0  0  0  0
   10.7461  -17.5478   22.9329 C   0  0  0  0  0  0  0  0  0  0  0  0
   11.0988  -18.4177   24.0598 C   0  0  0  0  0  0  0  0  0  0  0  0
   12.2447  -18.9122   24.1247 O   0  0  0  0  0  0  0  0  0  0  0  0
    9.8248  -15.6818   24.3548 C   0  0  0  0  0  0  0  0  0  0  0  0
   10.8248  -14.8877   24.2526 O   0  0  0  0  0  0  0  0  0  0  0  0
   10.1839  -18.6968   25.0479 O   0  0  0  0  0  0  0  0  0  0  0  0
    6.4878  -12.2280   26.2739 C   0  0  0  0  0  0  0  0  0  0  0  0
    7.6817  -13.0119   25.8422 C   0  0  0  0  0  0  0  0  0  0  0  0
    8.2856  -13.7540   27.0293 C   0  0  2  0  0  0  0  0  0  0  0  0
    8.8081  -12.7031   27.9849 C   0  0  0  0  0  0  0  0  0  0  0  0
    9.4263  -14.6492   26.5921 C   0  0  2  0  0  0  0  0  0  0  0  0
    9.0190  -15.5362   25.5291 N   0  0  0  0  0  0  0  0  0  0  0  0
    9.8820  -15.3862   27.7904 C   0  0  0  0  0  0  0  0  0  0  0  0
    9.6035  -16.6002   27.9909 O   0  0  0  0  0  0  0  0  0  0  0  0
   10.6461  -14.7064   28.7240 O   0  0  0  0  0  0  0  0  0  0  0  0
  2  1  1  6
  3  2  1  0
  3  4  1  0
  5  2  1  0
  6  5  2  0
  7  5  1  0
  8  9  1  6
  8  7  1  0
 10  9  1  0
 11 10  2  0
 12 20  1  0
 12  8  1  0
 13 12  2  0
 14 10  1  0
 15 16  1  0
 16 17  1  0
 17 18  1  1
 19 21  1  0
 19 17  1  0
 19 20  1  6
 21 23  1  0
 22 21  2  0
M  END
$$$$
