CDI.pdb
     RDKit          3D

 23 22  0  0  1  0  0  0  0  0999 V2000
    9.4039  -13.9447   19.1682 N   0  0  0  0  0  0  0  0  0  0  0  0
    8.2660  -13.6435   19.9878 C   0  0  1  0  0  0  0  0  0  0  0  0
    7.0231  -13.7753   19.1309 C   0  0  0  0  0  0  0  0  0  0  0  0
    7.2701  -13.0403   17.4906 S   0  0  0  0  0  0  0  0  0  0  0  0
    8.1018  -14.5959   21.1145 C   0  0  0  0  0  0  0  0  0  0  0  0
    7.0354  -14.5614   21.7722 O   0  0  0  0  0  0  0  0  0  0  0  0
    9.1055  -15.5201   21.4497 N   0  0  0  0  0  0  0  0  0  0  0  0
    8.9983  -16.4373   22.5864 C   0  0  1  0  0  0  0  0  0  0  0  0
    9.8944  -17.5882   22.2469 C   0  0  0  0  0  0  0  0  0  0  0  0
   10.0537  -18.4978   23.3863 C   0  0  0  0  0  0  0  0  0  0  0  0
    9.0468  -18.8703   24.0262 O   0  0  0  0  0  0  0  0  0  0  0  0
    9.3352  -15.6725   23.7863 C   0  0  0  0  0  0  0  0  0  0  0  0
   10.4604  -15.0607   23.8106 O   0  0  0  0  0  0  0  0  0  0  0  0
   11.2983  -18.9474   23.7604 O   0  0  0  0  0  0  0  0  0  0  0  0
    6.2201  -12.2201   26.0073 C   0  0  0  0  0  0  0  0  0  0  0  0
    7.4636  -12.9156   25.5644 C   0  0  0  0  0  0  0  0  0  0  0  0
    7.9504  -13.8714   26.6479 C   0  0  2  0  0  0  0  0  0  0  0  0
    8.5561  -13.0215   27.7439 C   0  0  0  0  0  0  0  0  0  0  0  0
    8.9997  -14.8210   26.1086 C   0  0  2  0  0  0  0  0  0  0  0  0
    8.5155  -15.5356   24.9520 N   0  0  0  0  0  0  0  0  0  0  0  0
    9.3683  -15.7319   27.2137 C   0  0  0  0  0  0  0  0  0  0  0  0
    8.9877  -16.9337   27.2622 O   0  0  0  0  0  0  0  0  0  0  0  0
   10.1649  -15.2351   28.2316 O   0  0  0  0  0  0  0  0  0  0  0  0
  2  1  1  6
  3  2  1  0
  3  4  1  0
  5  2  1  0
  6  5  2  0
  7  5  1  0
  8  9  1  6
  8  7  1  0
 10  9  1  0
 11 10  2  0
 12 20  1  0
 12  8  1  0
 13 12  2  0
 14 10  1  0
 15 16  1  0
 16 17  1  0
 17 18  1  1
 19 21  1  0
 19 17  1  0
 19 20  1  6
 21 23  1  0
 22 21  2  0
M  END
$$$$
