CDI.pdb
     RDKit          3D

 23 22  0  0  1  0  0  0  0  0999 V2000
    7.4188  -15.1946   17.8335 N   0  0  0  0  0  0  0  0  0  0  0  0
    8.2109  -14.5728   18.8549 C   0  0  1  0  0  0  0  0  0  0  0  0
    7.5693  -13.2445   19.2021 C   0  0  0  0  0  0  0  0  0  0  0  0
    8.4634  -12.4084   20.5411 S   0  0  0  0  0  0  0  0  0  0  0  0
    8.2489  -15.3617   20.1118 C   0  0  0  0  0  0  0  0  0  0  0  0
    7.2543  -16.0669   20.4020 O   0  0  0  0  0  0  0  0  0  0  0  0
    9.3632  -15.3312   20.9669 N   0  0  0  0  0  0  0  0  0  0  0  0
    9.5096  -16.2236   22.1189 C   0  0  1  0  0  0  0  0  0  0  0  0
   10.7566  -17.0084   21.8503 C   0  0  0  0  0  0  0  0  0  0  0  0
   10.9742  -18.0358   22.8741 C   0  0  0  0  0  0  0  0  0  0  0  0
   10.9347  -17.7225   24.0834 O   0  0  0  0  0  0  0  0  0  0  0  0
    9.5063  -15.3822   23.3148 C   0  0  0  0  0  0  0  0  0  0  0  0
   10.3394  -14.4105   23.3660 O   0  0  0  0  0  0  0  0  0  0  0  0
   11.2213  -19.3417   22.5207 O   0  0  0  0  0  0  0  0  0  0  0  0
    6.9032  -11.5172   26.5291 C   0  0  0  0  0  0  0  0  0  0  0  0
    7.6176  -12.7888   26.8437 C   0  0  0  0  0  0  0  0  0  0  0  0
    7.5050  -13.7625   25.6760 C   0  0  2  0  0  0  0  0  0  0  0  0
    6.2961  -14.6326   25.9443 C   0  0  0  0  0  0  0  0  0  0  0  0
    8.7391  -14.6338   25.5691 C   0  0  2  0  0  0  0  0  0  0  0  0
    8.6465  -15.5388   24.4488 N   0  0  0  0  0  0  0  0  0  0  0  0
    8.8763  -15.3501   26.8555 C   0  0  0  0  0  0  0  0  0  0  0  0
    9.0874  -14.7554   27.9478 O   0  0  0  0  0  0  0  0  0  0  0  0
    8.7659  -16.7305   26.8494 O   0  0  0  0  0  0  0  0  0  0  0  0
  2  1  1  6
  3  2  1  0
  3  4  1  0
  5  2  1  0
  6  5  2  0
  7  5  1  0
  8  9  1  6
  8  7  1  0
 10  9  1  0
 11 10  2  0
 12 20  1  0
 12  8  1  0
 13 12  2  0
 14 10  1  0
 15 16  1  0
 16 17  1  0
 17 18  1  1
 19 21  1  0
 19 17  1  0
 19 20  1  6
 21 23  1  0
 22 21  2  0
M  END
$$$$
