QPM.pdb
     RDKit          3D

 25 25  0  0  1  0  0  0  0  0999 V2000
   21.9312  -18.3365  -16.9328 N   0  0  0  0  0  0  0  0  0  0  0  0
   21.1740  -18.9660  -15.9141 C   0  0  0  0  0  0  0  0  0  0  0  0
   19.9334  -19.0172  -16.0215 O   0  0  0  0  0  0  0  0  0  0  0  0
   21.8543  -19.5515  -14.7518 C   0  0  0  0  0  0  0  0  0  0  0  0
   23.3131  -19.3582  -14.6498 C   0  0  0  0  0  0  0  0  0  0  0  0
   24.1863  -20.3752  -15.3491 C   0  0  2  0  0  0  0  0  0  0  0  0
   23.4454  -21.3606  -16.0422 N   0  0  0  0  0  0  0  0  0  0  0  0
   25.2217  -20.9260  -14.4591 C   0  0  0  0  0  0  0  0  0  0  0  0
   25.1648  -22.2319  -14.3946 O   0  0  0  0  0  0  0  0  0  0  0  0
   26.1712  -20.2416  -13.7417 N   0  0  0  0  0  0  0  0  0  0  0  0
   26.5466  -18.8791  -13.6526 C   0  0  0  0  0  0  0  0  0  0  0  0
   28.0567  -19.0111  -13.9956 C   0  0  0  0  0  0  0  0  0  0  0  0
   28.4175  -20.2636  -13.1782 C   0  0  0  0  0  0  0  0  0  0  0  0
   27.1092  -20.9160  -12.8173 C   0  0  1  0  0  0  0  0  0  0  0  0
   26.7063  -20.7887  -11.4204 C   0  0  0  0  0  0  0  0  0  0  0  0
   25.8334  -19.9081  -11.1568 O   0  0  0  0  0  0  0  0  0  0  0  0
   28.2440  -18.0641   -5.6284 C   0  0  0  0  0  0  0  0  0  0  0  0
   28.3247  -19.8697   -5.6295 S   0  0  0  0  0  0  0  0  0  0  0  0
   27.0507  -20.6009   -6.6793 C   0  0  0  0  0  0  0  0  0  0  0  0
   27.6188  -20.8148   -8.0460 C   0  0  0  0  0  0  0  0  0  0  0  0
   26.6292  -21.4281   -8.9638 C   0  0  2  0  0  0  0  0  0  0  0  0
   27.1918  -21.5478  -10.3253 N   0  0  0  0  0  0  0  0  0  0  0  0
   25.3688  -20.7014   -8.9975 C   0  0  0  0  0  0  0  0  0  0  0  0
   25.1875  -19.6247   -9.5844 O   0  0  0  0  0  0  0  0  0  0  0  0
   24.2285  -21.2101   -8.3298 O   0  0  0  0  0  0  0  0  0  0  0  0
  2  1  1  0
  3  2  2  0
  4  2  1  0
  5  4  1  0
  6  7  1  1
  6  8  1  0
  6  5  1  0
  8  9  2  0
 10 11  1  0
 10  8  1  0
 11 12  1  0
 13 12  1  0
 14 13  1  0
 14 10  1  0
 14 15  1  1
 16 15  2  0
 18 17  1  0
 19 18  1  0
 20 19  1  0
 21 20  1  1
 21 22  1  0
 22 15  1  0
 23 25  1  0
 23 21  1  0
 24 23  2  0
M  END
$$$$
