QPM.pdb
     RDKit          3D

 25 25  0  0  1  0  0  0  0  0999 V2000
   13.8665  -26.7071   -7.7138 N   0  0  0  0  0  0  0  0  0  0  0  0
   13.6231  -27.8911   -8.4529 C   0  0  0  0  0  0  0  0  0  0  0  0
   12.7917  -27.8689   -9.3811 O   0  0  0  0  0  0  0  0  0  0  0  0
   14.3511  -29.1230   -8.1229 C   0  0  0  0  0  0  0  0  0  0  0  0
   15.2691  -29.0813   -6.9690 C   0  0  0  0  0  0  0  0  0  0  0  0
   16.7451  -28.9664   -7.2758 C   0  0  2  0  0  0  0  0  0  0  0  0
   17.2771  -30.1251   -7.8880 N   0  0  0  0  0  0  0  0  0  0  0  0
   17.5202  -28.4978   -6.1150 C   0  0  0  0  0  0  0  0  0  0  0  0
   18.3941  -29.3887   -5.7206 O   0  0  0  0  0  0  0  0  0  0  0  0
   17.4146  -27.2978   -5.4567 N   0  0  0  0  0  0  0  0  0  0  0  0
   16.6133  -26.1437   -5.6338 C   0  0  0  0  0  0  0  0  0  0  0  0
   17.7345  -25.0726   -5.7392 C   0  0  0  0  0  0  0  0  0  0  0  0
   18.6752  -25.5455   -4.6174 C   0  0  0  0  0  0  0  0  0  0  0  0
   18.2561  -26.9541   -4.2891 C   0  0  1  0  0  0  0  0  0  0  0  0
   17.5508  -27.1223   -3.0226 C   0  0  0  0  0  0  0  0  0  0  0  0
   16.5664  -26.3520   -2.8115 O   0  0  0  0  0  0  0  0  0  0  0  0
   21.1700  -24.0822    1.0404 C   0  0  0  0  0  0  0  0  0  0  0  0
   21.2209  -25.8842    1.1707 S   0  0  0  0  0  0  0  0  0  0  0  0
   19.5774  -26.6174    1.0259 C   0  0  0  0  0  0  0  0  0  0  0  0
   19.3926  -27.1096   -0.3740 C   0  0  0  0  0  0  0  0  0  0  0  0
   18.0338  -27.6624   -0.5885 C   0  0  2  0  0  0  0  0  0  0  0  0
   17.8538  -28.0583   -2.0011 N   0  0  0  0  0  0  0  0  0  0  0  0
   16.9825  -26.7422   -0.1813 C   0  0  0  0  0  0  0  0  0  0  0  0
   16.1171  -26.9881    0.6715 O   0  0  0  0  0  0  0  0  0  0  0  0
   16.8882  -25.4559   -0.7654 O   0  0  0  0  0  0  0  0  0  0  0  0
  2  1  1  0
  3  2  2  0
  4  2  1  0
  5  4  1  0
  6  7  1  1
  6  8  1  0
  6  5  1  0
  8  9  2  0
 10 11  1  0
 10  8  1  0
 11 12  1  0
 13 12  1  0
 14 13  1  0
 14 10  1  0
 14 15  1  1
 16 15  2  0
 18 17  1  0
 19 18  1  0
 20 19  1  0
 21 20  1  6
 21 22  1  0
 22 15  1  0
 23 25  1  0
 23 21  1  0
 24 23  2  0
M  END
$$$$
