QPM.pdb
     RDKit          3D

 25 25  0  0  1  0  0  0  0  0999 V2000
   23.0168  -21.8550  -13.3040 N   0  0  0  0  0  0  0  0  0  0  0  0
   22.5615  -20.9118  -12.3499 C   0  0  0  0  0  0  0  0  0  0  0  0
   21.5784  -20.1961  -12.6230 O   0  0  0  0  0  0  0  0  0  0  0  0
   23.2451  -20.7908  -11.0559 C   0  0  0  0  0  0  0  0  0  0  0  0
   24.4528  -21.6114  -10.8462 C   0  0  0  0  0  0  0  0  0  0  0  0
   25.6879  -20.8932  -10.3517 C   0  0  2  0  0  0  0  0  0  0  0  0
   25.4890  -20.2312   -9.1178 N   0  0  0  0  0  0  0  0  0  0  0  0
   26.2920  -20.0440  -11.3918 C   0  0  0  0  0  0  0  0  0  0  0  0
   26.4499  -18.8107  -10.9832 O   0  0  0  0  0  0  0  0  0  0  0  0
   26.6749  -20.4039  -12.6600 N   0  0  0  0  0  0  0  0  0  0  0  0
   26.6597  -21.6194  -13.3864 C   0  0  0  0  0  0  0  0  0  0  0  0
   28.1623  -21.6989  -13.7756 C   0  0  0  0  0  0  0  0  0  0  0  0
   28.4240  -20.2345  -14.1687 C   0  0  0  0  0  0  0  0  0  0  0  0
   27.2694  -19.4423  -13.6146 C   0  0  1  0  0  0  0  0  0  0  0  0
   26.3048  -18.9627  -14.5991 C   0  0  0  0  0  0  0  0  0  0  0  0
   25.0797  -19.1593  -14.3397 O   0  0  0  0  0  0  0  0  0  0  0  0
   23.1265  -13.0179  -15.5513 C   0  0  0  0  0  0  0  0  0  0  0  0
   23.9385  -14.5100  -14.9340 S   0  0  0  0  0  0  0  0  0  0  0  0
   25.6250  -14.6674  -15.5588 C   0  0  0  0  0  0  0  0  0  0  0  0
   26.1657  -16.0009  -15.1517 C   0  0  0  0  0  0  0  0  0  0  0  0
   25.9549  -17.0248  -16.2029 C   0  0  2  0  0  0  0  0  0  0  0  0
   26.5961  -18.2999  -15.8186 N   0  0  0  0  0  0  0  0  0  0  0  0
   26.4269  -16.5930  -17.5100 C   0  0  0  0  0  0  0  0  0  0  0  0
   27.6053  -16.6469  -17.8909 O   0  0  0  0  0  0  0  0  0  0  0  0
   25.5217  -16.0634  -18.4614 O   0  0  0  0  0  0  0  0  0  0  0  0
  2  1  1  0
  3  2  2  0
  4  2  1  0
  5  4  1  0
  6  7  1  1
  6  8  1  0
  6  5  1  0
  8  9  2  0
 10 11  1  0
 10  8  1  0
 11 12  1  0
 13 12  1  0
 14 13  1  0
 14 10  1  0
 14 15  1  6
 16 15  2  0
 18 17  1  0
 19 18  1  0
 20 19  1  0
 21 20  1  1
 21 22  1  0
 22 15  1  0
 23 25  1  0
 23 21  1  0
 24 23  2  0
M  END
$$$$
