QPM.pdb
     RDKit          3D

 25 25  0  0  1  0  0  0  0  0999 V2000
   25.1774  -15.1656  -14.6638 N   0  0  0  0  0  0  0  0  0  0  0  0
   24.1170  -15.7144  -15.4265 C   0  0  0  0  0  0  0  0  0  0  0  0
   23.1987  -14.9679  -15.8173 O   0  0  0  0  0  0  0  0  0  0  0  0
   24.1128  -17.1467  -15.7503 C   0  0  0  0  0  0  0  0  0  0  0  0
   25.2012  -17.9724  -15.1937 C   0  0  0  0  0  0  0  0  0  0  0  0
   25.2083  -19.4362  -15.5718 C   0  0  2  0  0  0  0  0  0  0  0  0
   24.0010  -19.8601  -16.1745 N   0  0  0  0  0  0  0  0  0  0  0  0
   25.6530  -20.2957  -14.4622 C   0  0  0  0  0  0  0  0  0  0  0  0
   24.8107  -21.2708  -14.2331 O   0  0  0  0  0  0  0  0  0  0  0  0
   26.7888  -20.1734  -13.7010 N   0  0  0  0  0  0  0  0  0  0  0  0
   27.8183  -19.2048  -13.6155 C   0  0  0  0  0  0  0  0  0  0  0  0
   29.0484  -20.1223  -13.8616 C   0  0  0  0  0  0  0  0  0  0  0  0
   28.6642  -21.3371  -12.9991 C   0  0  0  0  0  0  0  0  0  0  0  0
   27.1941  -21.1919  -12.7072 C   0  0  1  0  0  0  0  0  0  0  0  0
   26.8587  -20.8045  -11.3407 C   0  0  0  0  0  0  0  0  0  0  0  0
   26.7673  -19.5621  -11.1065 O   0  0  0  0  0  0  0  0  0  0  0  0
   29.5682  -19.6351   -6.7039 C   0  0  0  0  0  0  0  0  0  0  0  0
   27.9833  -19.5424   -5.8401 S   0  0  0  0  0  0  0  0  0  0  0  0
   26.5917  -19.8434   -6.9503 C   0  0  0  0  0  0  0  0  0  0  0  0
   27.1156  -20.3888   -8.2404 C   0  0  0  0  0  0  0  0  0  0  0  0
   26.0966  -21.1983   -8.9503 C   0  0  2  0  0  0  0  0  0  0  0  0
   26.6255  -21.6749  -10.2456 N   0  0  0  0  0  0  0  0  0  0  0  0
   24.8458  -20.4807   -9.1459 C   0  0  0  0  0  0  0  0  0  0  0  0
   24.6246  -19.6808  -10.0667 O   0  0  0  0  0  0  0  0  0  0  0  0
   23.7636  -20.6672   -8.2522 O   0  0  0  0  0  0  0  0  0  0  0  0
  2  1  1  0
  3  2  2  0
  4  2  1  0
  5  4  1  0
  6  7  1  1
  6  8  1  0
  6  5  1  0
  8  9  2  0
 10 11  1  0
 10  8  1  0
 11 12  1  0
 13 12  1  0
 14 13  1  0
 14 10  1  0
 14 15  1  1
 16 15  2  0
 18 17  1  0
 19 18  1  0
 20 19  1  0
 21 20  1  6
 21 22  1  0
 22 15  1  0
 23 25  1  0
 23 21  1  0
 24 23  2  0
M  END
$$$$
