QPM.pdb
     RDKit          3D

 25 25  0  0  1  0  0  0  0  0999 V2000
   19.8383  -20.2648  -12.5133 N   0  0  0  0  0  0  0  0  0  0  0  0
   20.0353  -19.8003  -13.8372 C   0  0  0  0  0  0  0  0  0  0  0  0
   19.0591  -19.3732  -14.4837 O   0  0  0  0  0  0  0  0  0  0  0  0
   21.3791  -19.8227  -14.4288 C   0  0  0  0  0  0  0  0  0  0  0  0
   22.4959  -20.2447  -13.5624 C   0  0  0  0  0  0  0  0  0  0  0  0
   23.4830  -21.2265  -14.1520 C   0  0  2  0  0  0  0  0  0  0  0  0
   22.8604  -22.3139  -14.8079 N   0  0  0  0  0  0  0  0  0  0  0  0
   24.5150  -21.6287  -13.1821 C   0  0  0  0  0  0  0  0  0  0  0  0
   24.2797  -22.8160  -12.6841 O   0  0  0  0  0  0  0  0  0  0  0  0
   25.6207  -20.9205  -12.7815 N   0  0  0  0  0  0  0  0  0  0  0  0
   26.1659  -19.6620  -13.1342 C   0  0  0  0  0  0  0  0  0  0  0  0
   27.5957  -20.1129  -13.5437 C   0  0  0  0  0  0  0  0  0  0  0  0
   27.8998  -21.1208  -12.4217 C   0  0  0  0  0  0  0  0  0  0  0  0
   26.5762  -21.4379  -11.7773 C   0  0  1  0  0  0  0  0  0  0  0  0
   26.3653  -20.8591  -10.4543 C   0  0  0  0  0  0  0  0  0  0  0  0
   25.8049  -19.7230  -10.4118 O   0  0  0  0  0  0  0  0  0  0  0  0
   29.0035  -20.2913   -3.0257 C   0  0  0  0  0  0  0  0  0  0  0  0
   29.0941  -20.9495   -4.7066 S   0  0  0  0  0  0  0  0  0  0  0  0
   27.7093  -20.3947   -5.7235 C   0  0  0  0  0  0  0  0  0  0  0  0
   27.7986  -21.0589   -7.0604 C   0  0  0  0  0  0  0  0  0  0  0  0
   26.6644  -20.6840   -7.9384 C   0  0  2  0  0  0  0  0  0  0  0  0
   26.7240  -21.4361   -9.2094 N   0  0  0  0  0  0  0  0  0  0  0  0
   26.6041  -19.2532   -8.1976 C   0  0  0  0  0  0  0  0  0  0  0  0
   27.3586  -18.6403   -8.9667 O   0  0  0  0  0  0  0  0  0  0  0  0
   25.6338  -18.4473   -7.5543 O   0  0  0  0  0  0  0  0  0  0  0  0
  2  1  1  0
  3  2  2  0
  4  2  1  0
  5  4  1  0
  6  7  1  1
  6  8  1  0
  6  5  1  0
  8  9  2  0
 10 11  1  0
 10  8  1  0
 11 12  1  0
 13 12  1  0
 14 13  1  0
 14 10  1  0
 14 15  1  1
 16 15  2  0
 18 17  1  0
 19 18  1  0
 20 19  1  0
 21 20  1  1
 21 22  1  0
 22 15  1  0
 23 25  1  0
 23 21  1  0
 24 23  2  0
M  END
$$$$
