QPM.pdb
     RDKit          3D

 25 25  0  0  1  0  0  0  0  0999 V2000
   15.6536  -11.8855  -13.7315 N   0  0  0  0  0  0  0  0  0  0  0  0
   15.5489  -12.9189  -14.6951 C   0  0  0  0  0  0  0  0  0  0  0  0
   14.8462  -13.9169  -14.4431 O   0  0  0  0  0  0  0  0  0  0  0  0
   16.2613  -12.8026  -15.9739 C   0  0  0  0  0  0  0  0  0  0  0  0
   17.0825  -11.5959  -16.1869 C   0  0  0  0  0  0  0  0  0  0  0  0
   17.1006  -11.0215  -17.5853 C   0  0  2  0  0  0  0  0  0  0  0  0
   17.4049  -11.9829  -18.5769 N   0  0  0  0  0  0  0  0  0  0  0  0
   17.9139   -9.7974  -17.6739 C   0  0  0  0  0  0  0  0  0  0  0  0
   18.9106   -9.9340  -18.5111 O   0  0  0  0  0  0  0  0  0  0  0  0
   17.7342   -8.6126  -17.0043 N   0  0  0  0  0  0  0  0  0  0  0  0
   16.7420   -8.1198  -16.1221 C   0  0  0  0  0  0  0  0  0  0  0  0
   16.3500   -6.8228  -16.8834 C   0  0  0  0  0  0  0  0  0  0  0  0
   17.7414   -6.3156  -17.3003 C   0  0  0  0  0  0  0  0  0  0  0  0
   18.6793   -7.4803  -17.1230 C   0  0  1  0  0  0  0  0  0  0  0  0
   19.5884   -7.3891  -15.9850 C   0  0  0  0  0  0  0  0  0  0  0  0
   19.1451   -7.7908  -14.8674 O   0  0  0  0  0  0  0  0  0  0  0  0
   26.5830  -10.0380  -14.3060 C   0  0  0  0  0  0  0  0  0  0  0  0
   25.3184   -9.4432  -15.4522 S   0  0  0  0  0  0  0  0  0  0  0  0
   24.0480   -8.4746  -14.6112 C   0  0  0  0  0  0  0  0  0  0  0  0
   23.0068   -8.0784  -15.6089 C   0  0  0  0  0  0  0  0  0  0  0  0
   21.9209   -7.2845  -14.9857 C   0  0  2  0  0  0  0  0  0  0  0  0
   20.9179   -6.8955  -15.9994 N   0  0  0  0  0  0  0  0  0  0  0  0
   22.4159   -6.1093  -14.2845 C   0  0  0  0  0  0  0  0  0  0  0  0
   22.9428   -6.1236  -13.1625 O   0  0  0  0  0  0  0  0  0  0  0  0
   22.3173   -4.8262  -14.8749 O   0  0  0  0  0  0  0  0  0  0  0  0
  2  1  1  0
  3  2  2  0
  4  2  1  0
  5  4  1  0
  6  7  1  6
  6  8  1  0
  6  5  1  0
  8  9  2  0
 10 11  1  0
 10  8  1  0
 11 12  1  0
 13 12  1  0
 14 13  1  0
 14 10  1  0
 14 15  1  1
 16 15  2  0
 18 17  1  0
 19 18  1  0
 20 19  1  0
 21 20  1  6
 21 22  1  0
 22 15  1  0
 23 25  1  0
 23 21  1  0
 24 23  2  0
M  END
$$$$
