QPM.pdb
     RDKit          3D

 25 25  0  0  1  0  0  0  0  0999 V2000
   18.9909  -23.0818  -10.0399 N   0  0  0  0  0  0  0  0  0  0  0  0
   17.9615  -22.9171  -10.9993 C   0  0  0  0  0  0  0  0  0  0  0  0
   18.1368  -22.1319  -11.9512 O   0  0  0  0  0  0  0  0  0  0  0  0
   16.7084  -23.6710  -10.8657 C   0  0  0  0  0  0  0  0  0  0  0  0
   16.2979  -24.0713   -9.5066 C   0  0  0  0  0  0  0  0  0  0  0  0
   16.5547  -25.5081   -9.1121 C   0  0  2  0  0  0  0  0  0  0  0  0
   15.9909  -26.4409  -10.0134 N   0  0  0  0  0  0  0  0  0  0  0  0
   16.2201  -25.7666   -7.7018 C   0  0  0  0  0  0  0  0  0  0  0  0
   15.1744  -26.5447   -7.5837 O   0  0  0  0  0  0  0  0  0  0  0  0
   16.8596  -25.2972   -6.5815 N   0  0  0  0  0  0  0  0  0  0  0  0
   17.9287  -24.3947   -6.3623 C   0  0  0  0  0  0  0  0  0  0  0  0
   18.8685  -25.3144   -5.5338 C   0  0  0  0  0  0  0  0  0  0  0  0
   17.8456  -25.9889   -4.6033 C   0  0  0  0  0  0  0  0  0  0  0  0
   16.4939  -25.7325   -5.2155 C   0  0  1  0  0  0  0  0  0  0  0  0
   15.6631  -24.7544   -4.5204 C   0  0  0  0  0  0  0  0  0  0  0  0
   15.7544  -23.5509   -4.9077 O   0  0  0  0  0  0  0  0  0  0  0  0
   15.9346  -23.2092    0.7457 C   0  0  0  0  0  0  0  0  0  0  0  0
   14.8144  -21.8533    0.3295 S   0  0  0  0  0  0  0  0  0  0  0  0
   14.3641  -21.8632   -1.4188 C   0  0  0  0  0  0  0  0  0  0  0  0
   15.0387  -23.0213   -2.0822 C   0  0  0  0  0  0  0  0  0  0  0  0
   14.0626  -23.9305   -2.7289 C   0  0  2  0  0  0  0  0  0  0  0  0
   14.7641  -25.0108   -3.4539 N   0  0  0  0  0  0  0  0  0  0  0  0
   13.1489  -23.2313   -3.6200 C   0  0  0  0  0  0  0  0  0  0  0  0
   12.3925  -22.3104   -3.2786 O   0  0  0  0  0  0  0  0  0  0  0  0
   13.0719  -23.5826   -4.9894 O   0  0  0  0  0  0  0  0  0  0  0  0
  2  1  1  0
  3  2  2  0
  4  2  1  0
  5  4  1  0
  6  7  1  6
  6  8  1  0
  6  5  1  0
  8  9  2  0
 10 11  1  0
 10  8  1  0
 11 12  1  0
 13 12  1  0
 14 13  1  0
 14 10  1  0
 14 15  1  1
 16 15  2  0
 18 17  1  0
 19 18  1  0
 20 19  1  0
 21 20  1  6
 21 22  1  0
 22 15  1  0
 23 25  1  0
 23 21  1  0
 24 23  2  0
M  END
$$$$
