QPM.pdb
     RDKit          3D

 25 25  0  0  1  0  0  0  0  0999 V2000
   21.5829  -19.1671  -16.3005 N   0  0  0  0  0  0  0  0  0  0  0  0
   21.7491  -19.0638  -14.8973 C   0  0  0  0  0  0  0  0  0  0  0  0
   20.7454  -19.1154  -14.1602 O   0  0  0  0  0  0  0  0  0  0  0  0
   23.0935  -18.9022  -14.3290 C   0  0  0  0  0  0  0  0  0  0  0  0
   24.2228  -18.8044  -15.2729 C   0  0  0  0  0  0  0  0  0  0  0  0
   24.8786  -20.1017  -15.6884 C   0  0  2  0  0  0  0  0  0  0  0  0
   24.0161  -20.9507  -16.4203 N   0  0  0  0  0  0  0  0  0  0  0  0
   25.5559  -20.7683  -14.5638 C   0  0  0  0  0  0  0  0  0  0  0  0
   25.0325  -21.9395  -14.3046 O   0  0  0  0  0  0  0  0  0  0  0  0
   26.6097  -20.3041  -13.8164 N   0  0  0  0  0  0  0  0  0  0  0  0
   27.3265  -19.0835  -13.7752 C   0  0  0  0  0  0  0  0  0  0  0  0
   28.7650  -19.6288  -13.9961 C   0  0  0  0  0  0  0  0  0  0  0  0
   28.7336  -20.8687  -13.0856 C   0  0  0  0  0  0  0  0  0  0  0  0
   27.2807  -21.1298  -12.7882 C   0  0  1  0  0  0  0  0  0  0  0  0
   26.8458  -20.7998  -11.4347 C   0  0  0  0  0  0  0  0  0  0  0  0
   26.5089  -19.5966  -11.2215 O   0  0  0  0  0  0  0  0  0  0  0  0
   29.1587  -20.3071   -5.8730 C   0  0  0  0  0  0  0  0  0  0  0  0
   27.9760  -18.9928   -6.2482 S   0  0  0  0  0  0  0  0  0  0  0  0
   26.5649  -19.6052   -7.1933 C   0  0  0  0  0  0  0  0  0  0  0  0
   27.0494  -20.0835   -8.5248 C   0  0  0  0  0  0  0  0  0  0  0  0
   26.2799  -21.2575   -9.0016 C   0  0  2  0  0  0  0  0  0  0  0  0
   26.7624  -21.6866  -10.3311 N   0  0  0  0  0  0  0  0  0  0  0  0
   24.8458  -21.0122   -9.0369 C   0  0  0  0  0  0  0  0  0  0  0  0
   24.2139  -20.6488  -10.0396 O   0  0  0  0  0  0  0  0  0  0  0  0
   24.0590  -21.1840   -7.8724 O   0  0  0  0  0  0  0  0  0  0  0  0
  2  1  1  0
  3  2  2  0
  4  2  1  0
  5  4  1  0
  6  7  1  1
  6  8  1  0
  6  5  1  0
  8  9  2  0
 10 11  1  0
 10  8  1  0
 11 12  1  0
 13 12  1  0
 14 13  1  0
 14 10  1  0
 14 15  1  1
 16 15  2  0
 18 17  1  0
 19 18  1  0
 20 19  1  0
 21 20  1  6
 21 22  1  0
 22 15  1  0
 23 25  1  0
 23 21  1  0
 24 23  2  0
M  END
$$$$
