TYV.pdb
     RDKit          3D

 27 27  0  0  1  0  0  0  0  0999 V2000
   17.1041   -6.2611  -19.9316 C   0  0  0  0  0  0  0  0  0  0  0  0
   18.0501   -5.0875  -19.8960 C   0  0  1  0  0  0  0  0  0  0  0  0
   17.3934   -3.9215  -20.2525 O   0  0  0  0  0  0  0  0  0  0  0  0
   18.7796   -4.9736  -18.5832 C   0  0  2  0  0  0  0  0  0  0  0  0
   19.7262   -3.8815  -18.6581 N   0  0  0  0  0  0  0  0  0  0  0  0
   19.4774   -6.1911  -18.1757 C   0  0  0  0  0  0  0  0  0  0  0  0
   20.6469   -6.4051  -18.5803 O   0  0  0  0  0  0  0  0  0  0  0  0
   23.3084   -3.7456  -14.4298 O   0  0  0  0  0  0  0  0  0  0  0  0
   22.4670   -4.8416  -14.6637 C   0  0  0  0  0  0  0  0  0  0  0  0
   21.0998   -4.7442  -14.5006 C   0  0  0  0  0  0  0  0  0  0  0  0
   20.2313   -5.7903  -14.7173 C   0  0  0  0  0  0  0  0  0  0  0  0
   20.7343   -7.0049  -15.1181 C   0  0  0  0  0  0  0  0  0  0  0  0
   19.8587   -8.1827  -15.3723 C   0  0  0  0  0  0  0  0  0  0  0  0
   19.6198   -8.3542  -16.8773 C   0  0  2  0  0  0  0  0  0  0  0  0
   18.9188   -7.1896  -17.3270 N   0  0  0  0  0  0  0  0  0  0  0  0
   18.8183   -9.5958  -17.0241 C   0  0  0  0  0  0  0  0  0  0  0  0
   17.6046   -9.6090  -16.7023 O   0  0  0  0  0  0  0  0  0  0  0  0
   22.0955   -7.1238  -15.2868 C   0  0  0  0  0  0  0  0  0  0  0  0
   22.9527   -6.0675  -15.0660 C   0  0  0  0  0  0  0  0  0  0  0  0
   18.2977  -14.1424  -18.9230 C   0  0  0  0  0  0  0  0  0  0  0  0
   19.1590  -12.9477  -18.6870 C   0  0  1  0  0  0  0  0  0  0  0  0
   19.4351  -12.2384  -19.9725 C   0  0  0  0  0  0  0  0  0  0  0  0
   18.5467  -11.9691  -17.7035 C   0  0  2  0  0  0  0  0  0  0  0  0
   19.3752  -10.8032  -17.5254 N   0  0  0  0  0  0  0  0  0  0  0  0
   18.2515  -12.6366  -16.4116 C   0  0  0  0  0  0  0  0  0  0  0  0
   17.1737  -13.2325  -16.1877 O   0  0  0  0  0  0  0  0  0  0  0  0
   19.2025  -12.6035  -15.4068 O   0  0  0  0  0  0  0  0  0  0  0  0
  2  1  1  1
  2  3  1  0
  4  2  1  0
  4  5  1  6
  6  4  1  0
  6  7  2  0
  8  9  1  0
  9 10  2  0
 10 11  1  0
 12 11  2  0
 12 13  1  0
 14 15  1  0
 14 13  1  1
 15  6  1  0
 16 14  1  0
 17 16  2  0
 18 12  1  0
 19  9  1  0
 19 18  2  0
 21 20  1  6
 21 22  1  0
 23 21  1  0
 23 24  1  1
 24 16  1  0
 25 27  1  0
 25 23  1  0
 26 25  2  0
M  END
$$$$
