TYV.pdb
     RDKit          3D

 27 27  0  0  1  0  0  0  0  0999 V2000
   29.1197  -21.5187  -19.0464 C   0  0  0  0  0  0  0  0  0  0  0  0
   28.0984  -21.5363  -17.9373 C   0  0  1  0  0  0  0  0  0  0  0  0
   26.8180  -21.6355  -18.4555 O   0  0  0  0  0  0  0  0  0  0  0  0
   28.3943  -22.5841  -16.8965 C   0  0  2  0  0  0  0  0  0  0  0  0
   28.2866  -23.8959  -17.4981 N   0  0  0  0  0  0  0  0  0  0  0  0
   27.5331  -22.5206  -15.7178 C   0  0  0  0  0  0  0  0  0  0  0  0
   26.5533  -23.2999  -15.6181 O   0  0  0  0  0  0  0  0  0  0  0  0
   24.4308  -20.1219   -7.7264 O   0  0  0  0  0  0  0  0  0  0  0  0
   25.2003  -20.2383   -8.8919 C   0  0  0  0  0  0  0  0  0  0  0  0
   25.2555  -21.4220   -9.6000 C   0  0  0  0  0  0  0  0  0  0  0  0
   25.9954  -21.5873  -10.7492 C   0  0  0  0  0  0  0  0  0  0  0  0
   26.7251  -20.5278  -11.2328 C   0  0  0  0  0  0  0  0  0  0  0  0
   27.5495  -20.6292  -12.4691 C   0  0  0  0  0  0  0  0  0  0  0  0
   26.8384  -21.4977  -13.5141 C   0  0  2  0  0  0  0  0  0  0  0  0
   27.7216  -21.6145  -14.6348 N   0  0  0  0  0  0  0  0  0  0  0  0
   25.5803  -20.7836  -13.8499 C   0  0  0  0  0  0  0  0  0  0  0  0
   25.6130  -19.7218  -14.5194 O   0  0  0  0  0  0  0  0  0  0  0  0
   26.6841  -19.3377  -10.5417 C   0  0  0  0  0  0  0  0  0  0  0  0
   25.9386  -19.1872   -9.3925 C   0  0  0  0  0  0  0  0  0  0  0  0
   21.1519  -20.3411  -15.2995 C   0  0  0  0  0  0  0  0  0  0  0  0
   22.4507  -21.0186  -15.0182 C   0  0  1  0  0  0  0  0  0  0  0  0
   23.3922  -20.8442  -16.1648 C   0  0  0  0  0  0  0  0  0  0  0  0
   23.1137  -20.5113  -13.7520 C   0  0  2  0  0  0  0  0  0  0  0  0
   24.3058  -21.2583  -13.4382 N   0  0  0  0  0  0  0  0  0  0  0  0
   22.1537  -20.5069  -12.6206 C   0  0  0  0  0  0  0  0  0  0  0  0
   21.9131  -21.5244  -11.9323 O   0  0  0  0  0  0  0  0  0  0  0  0
   21.4923  -19.3326  -12.3067 O   0  0  0  0  0  0  0  0  0  0  0  0
  2  1  1  6
  2  3  1  0
  4  2  1  0
  4  5  1  6
  6  4  1  0
  6  7  2  0
  8  9  1  0
  9 10  2  0
 10 11  1  0
 12 11  2  0
 12 13  1  0
 14 15  1  0
 14 13  1  1
 15  6  1  0
 16 14  1  0
 17 16  2  0
 18 12  1  0
 19  9  1  0
 19 18  2  0
 21 20  1  6
 21 22  1  0
 23 21  1  0
 23 24  1  1
 24 16  1  0
 25 27  1  0
 25 23  1  0
 26 25  2  0
M  END
$$$$
