TYV.pdb
     RDKit          3D

 27 27  0  0  1  0  0  0  0  0999 V2000
   26.7455  -19.5821  -17.8004 C   0  0  0  0  0  0  0  0  0  0  0  0
   27.4556  -20.8379  -18.2389 C   0  0  1  0  0  0  0  0  0  0  0  0
   28.2271  -20.5942  -19.3628 O   0  0  0  0  0  0  0  0  0  0  0  0
   28.2324  -21.4823  -17.1208 C   0  0  2  0  0  0  0  0  0  0  0  0
   28.7950  -22.7303  -17.5902 N   0  0  0  0  0  0  0  0  0  0  0  0
   27.4515  -21.7288  -15.9107 C   0  0  0  0  0  0  0  0  0  0  0  0
   26.5612  -22.6147  -15.9121 O   0  0  0  0  0  0  0  0  0  0  0  0
   24.2682  -20.6829   -7.6649 O   0  0  0  0  0  0  0  0  0  0  0  0
   25.0507  -20.6107   -8.8253 C   0  0  0  0  0  0  0  0  0  0  0  0
   25.5734  -21.7466   -9.4100 C   0  0  0  0  0  0  0  0  0  0  0  0
   26.3471  -21.7290  -10.5487 C   0  0  0  0  0  0  0  0  0  0  0  0
   26.6246  -20.5247  -11.1499 C   0  0  0  0  0  0  0  0  0  0  0  0
   27.4537  -20.4246  -12.3832 C   0  0  0  0  0  0  0  0  0  0  0  0
   26.7726  -21.1591  -13.5443 C   0  0  2  0  0  0  0  0  0  0  0  0
   27.6245  -21.0209  -14.6866 N   0  0  0  0  0  0  0  0  0  0  0  0
   25.4563  -20.4969  -13.7296 C   0  0  0  0  0  0  0  0  0  0  0  0
   25.3956  -19.2998  -14.1036 O   0  0  0  0  0  0  0  0  0  0  0  0
   26.1130  -19.3790  -10.5829 C   0  0  0  0  0  0  0  0  0  0  0  0
   25.3399  -19.4124   -9.4425 C   0  0  0  0  0  0  0  0  0  0  0  0
   23.1318  -20.2725  -16.1102 C   0  0  0  0  0  0  0  0  0  0  0  0
   22.3099  -20.7359  -14.9550 C   0  0  1  0  0  0  0  0  0  0  0  0
   22.0175  -22.1962  -15.0719 C   0  0  0  0  0  0  0  0  0  0  0  0
   22.9754  -20.4700  -13.6185 C   0  0  2  0  0  0  0  0  0  0  0  0
   24.2280  -21.1726  -13.4972 N   0  0  0  0  0  0  0  0  0  0  0  0
   22.0549  -20.7896  -12.4994 C   0  0  0  0  0  0  0  0  0  0  0  0
   22.2098  -21.7866  -11.7585 O   0  0  0  0  0  0  0  0  0  0  0  0
   20.9775  -19.9554  -12.2579 O   0  0  0  0  0  0  0  0  0  0  0  0
  2  1  1  1
  2  3  1  0
  4  2  1  0
  4  5  1  6
  6  4  1  0
  6  7  2  0
  8  9  1  0
  9 10  2  0
 10 11  1  0
 12 11  2  0
 12 13  1  0
 14 15  1  0
 14 13  1  1
 15  6  1  0
 16 14  1  0
 17 16  2  0
 18 12  1  0
 19  9  1  0
 19 18  2  0
 21 20  1  6
 21 22  1  0
 23 21  1  0
 23 24  1  1
 24 16  1  0
 25 27  1  0
 25 23  1  0
 26 25  2  0
M  END
$$$$
