TYV.pdb
     RDKit          3D

 27 27  0  0  1  0  0  0  0  0999 V2000
   24.7269  -21.1244  -20.2005 C   0  0  0  0  0  0  0  0  0  0  0  0
   25.9576  -20.6253  -19.4866 C   0  0  1  0  0  0  0  0  0  0  0  0
   27.1026  -20.9976  -20.1711 O   0  0  0  0  0  0  0  0  0  0  0  0
   25.8989  -19.1480  -19.1986 C   0  0  2  0  0  0  0  0  0  0  0  0
   27.0378  -18.4983  -19.8111 N   0  0  0  0  0  0  0  0  0  0  0  0
   25.8586  -18.8140  -17.7767 C   0  0  0  0  0  0  0  0  0  0  0  0
   26.9098  -18.4568  -17.1896 O   0  0  0  0  0  0  0  0  0  0  0  0
   25.0929  -12.2859  -17.1626 O   0  0  0  0  0  0  0  0  0  0  0  0
   24.6897  -13.5632  -16.7502 C   0  0  0  0  0  0  0  0  0  0  0  0
   25.1248  -14.1022  -15.5562 C   0  0  0  0  0  0  0  0  0  0  0  0
   24.7582  -15.3509  -15.1068 C   0  0  0  0  0  0  0  0  0  0  0  0
   23.9140  -16.1167  -15.8747 C   0  0  0  0  0  0  0  0  0  0  0  0
   23.4729  -17.4763  -15.4560 C   0  0  0  0  0  0  0  0  0  0  0  0
   24.6258  -18.4775  -15.5967 C   0  0  2  0  0  0  0  0  0  0  0  0
   24.6824  -18.8625  -16.9746 N   0  0  0  0  0  0  0  0  0  0  0  0
   24.2918  -19.6129  -14.6995 C   0  0  0  0  0  0  0  0  0  0  0  0
   23.5553  -20.5458  -15.1043 O   0  0  0  0  0  0  0  0  0  0  0  0
   23.4681  -15.5980  -17.0696 C   0  0  0  0  0  0  0  0  0  0  0  0
   23.8438  -14.3461  -17.5065 C   0  0  0  0  0  0  0  0  0  0  0  0
   25.1427  -22.2196  -10.5809 C   0  0  0  0  0  0  0  0  0  0  0  0
   25.4722  -21.0544  -11.4517 C   0  0  1  0  0  0  0  0  0  0  0  0
   26.8104  -21.2385  -12.0898 C   0  0  0  0  0  0  0  0  0  0  0  0
   24.4360  -20.8204  -12.5341 C   0  0  2  0  0  0  0  0  0  0  0  0
   24.7799  -19.6958  -13.3674 N   0  0  0  0  0  0  0  0  0  0  0  0
   23.0824  -20.6740  -11.9440 C   0  0  0  0  0  0  0  0  0  0  0  0
   22.5507  -19.5600  -11.7365 O   0  0  0  0  0  0  0  0  0  0  0  0
   22.3714  -21.8121  -11.6061 O   0  0  0  0  0  0  0  0  0  0  0  0
  2  1  1  6
  2  3  1  0
  4  2  1  0
  4  5  1  1
  6  4  1  0
  6  7  2  0
  8  9  1  0
  9 10  2  0
 10 11  1  0
 12 11  2  0
 12 13  1  0
 14 15  1  0
 14 13  1  6
 15  6  1  0
 16 14  1  0
 17 16  2  0
 18 12  1  0
 19  9  1  0
 19 18  2  0
 21 20  1  6
 21 22  1  0
 23 21  1  0
 23 24  1  1
 24 16  1  0
 25 27  1  0
 25 23  1  0
 26 25  2  0
M  END
$$$$
