TYV.pdb
     RDKit          3D

 27 27  0  0  1  0  0  0  0  0999 V2000
   22.0292   -9.7226  -20.2913 C   0  0  0  0  0  0  0  0  0  0  0  0
   21.1441  -10.9273  -20.0942 C   0  0  1  0  0  0  0  0  0  0  0  0
   21.5163  -11.9505  -20.9501 O   0  0  0  0  0  0  0  0  0  0  0  0
   21.0731  -11.3621  -18.6539 C   0  0  2  0  0  0  0  0  0  0  0  0
   20.2835  -12.5713  -18.5604 N   0  0  0  0  0  0  0  0  0  0  0  0
   20.5243  -10.3551  -17.7485 C   0  0  0  0  0  0  0  0  0  0  0  0
   19.6201   -9.5813  -18.1500 O   0  0  0  0  0  0  0  0  0  0  0  0
   14.8587  -12.4662  -15.5185 O   0  0  0  0  0  0  0  0  0  0  0  0
   16.0834  -11.8573  -15.2127 C   0  0  0  0  0  0  0  0  0  0  0  0
   17.2772  -12.5353  -15.3554 C   0  0  0  0  0  0  0  0  0  0  0  0
   18.5052  -11.9825  -15.0689 C   0  0  0  0  0  0  0  0  0  0  0  0
   18.5655  -10.6867  -14.6151 C   0  0  0  0  0  0  0  0  0  0  0  0
   19.8556  -10.0199  -14.2842 C   0  0  0  0  0  0  0  0  0  0  0  0
   20.3714   -9.2281  -15.4919 C   0  0  2  0  0  0  0  0  0  0  0  0
   20.9466  -10.1737  -16.4001 N   0  0  0  0  0  0  0  0  0  0  0  0
   21.3714   -8.2704  -14.9549 C   0  0  0  0  0  0  0  0  0  0  0  0
   22.4928   -8.6775  -14.5632 O   0  0  0  0  0  0  0  0  0  0  0  0
   17.3862   -9.9920  -14.4655 C   0  0  0  0  0  0  0  0  0  0  0  0
   16.1642  -10.5589  -14.7565 C   0  0  0  0  0  0  0  0  0  0  0  0
   23.1681   -5.8719  -16.7399 C   0  0  0  0  0  0  0  0  0  0  0  0
   22.6122   -5.0878  -15.5992 C   0  0  1  0  0  0  0  0  0  0  0  0
   21.4675   -4.2420  -16.0529 C   0  0  0  0  0  0  0  0  0  0  0  0
   22.1534   -5.9675  -14.4521 C   0  0  2  0  0  0  0  0  0  0  0  0
   21.1120   -6.8764  -14.8606 N   0  0  0  0  0  0  0  0  0  0  0  0
   21.7393   -5.1432  -13.2899 C   0  0  0  0  0  0  0  0  0  0  0  0
   20.5452   -5.0279  -12.9323 O   0  0  0  0  0  0  0  0  0  0  0  0
   22.7077   -4.4706  -12.5655 O   0  0  0  0  0  0  0  0  0  0  0  0
  2  1  1  1
  2  3  1  0
  4  2  1  0
  4  5  1  6
  6  4  1  0
  6  7  2  0
  8  9  1  0
  9 10  2  0
 10 11  1  0
 12 11  2  0
 12 13  1  0
 14 15  1  0
 14 13  1  1
 15  6  1  0
 16 14  1  0
 17 16  2  0
 18 12  1  0
 19  9  1  0
 19 18  2  0
 21 20  1  6
 21 22  1  0
 23 21  1  0
 23 24  1  6
 24 16  1  0
 25 27  1  0
 25 23  1  0
 26 25  2  0
M  END
$$$$
