TYV.pdb
     RDKit          3D

 27 27  0  0  1  0  0  0  0  0999 V2000
   27.3253  -19.7224  -18.1127 C   0  0  0  0  0  0  0  0  0  0  0  0
   27.9863  -21.0260  -18.4831 C   0  0  1  0  0  0  0  0  0  0  0  0
   28.7942  -20.8636  -19.5962 O   0  0  0  0  0  0  0  0  0  0  0  0
   28.7064  -21.6588  -17.3213 C   0  0  2  0  0  0  0  0  0  0  0  0
   29.2093  -22.9552  -17.7223 N   0  0  0  0  0  0  0  0  0  0  0  0
   27.8910  -21.8077  -16.1179 C   0  0  0  0  0  0  0  0  0  0  0  0
   27.0658  -22.7509  -16.0360 O   0  0  0  0  0  0  0  0  0  0  0  0
   24.6806  -20.6194   -7.9529 O   0  0  0  0  0  0  0  0  0  0  0  0
   25.4370  -20.5216   -9.1286 C   0  0  0  0  0  0  0  0  0  0  0  0
   25.5270  -19.3345   -9.8272 C   0  0  0  0  0  0  0  0  0  0  0  0
   26.2561  -19.1869  -10.9858 C   0  0  0  0  0  0  0  0  0  0  0  0
   26.9378  -20.2688  -11.4892 C   0  0  0  0  0  0  0  0  0  0  0  0
   27.7475  -20.1875  -12.7367 C   0  0  0  0  0  0  0  0  0  0  0  0
   27.1071  -21.0334  -13.8439 C   0  0  2  0  0  0  0  0  0  0  0  0
   27.9589  -20.9392  -14.9908 N   0  0  0  0  0  0  0  0  0  0  0  0
   25.7636  -20.4463  -14.0802 C   0  0  0  0  0  0  0  0  0  0  0  0
   25.6484  -19.3401  -14.6631 O   0  0  0  0  0  0  0  0  0  0  0  0
   26.8615  -21.4628  -10.8079 C   0  0  0  0  0  0  0  0  0  0  0  0
   26.1275  -21.5954   -9.6490 C   0  0  0  0  0  0  0  0  0  0  0  0
   22.5867  -22.3851  -15.3967 C   0  0  0  0  0  0  0  0  0  0  0  0
   22.7217  -20.9058  -15.2624 C   0  0  1  0  0  0  0  0  0  0  0  0
   21.4008  -20.2381  -15.4651 C   0  0  0  0  0  0  0  0  0  0  0  0
   23.2858  -20.4887  -13.9178 C   0  0  2  0  0  0  0  0  0  0  0  0
   24.5689  -21.0950  -13.6664 N   0  0  0  0  0  0  0  0  0  0  0  0
   22.3190  -20.7762  -12.8294 C   0  0  0  0  0  0  0  0  0  0  0  0
   22.4849  -21.7016  -12.0030 O   0  0  0  0  0  0  0  0  0  0  0  0
   21.1837  -19.9931  -12.7165 O   0  0  0  0  0  0  0  0  0  0  0  0
  2  1  1  1
  2  3  1  0
  4  2  1  0
  4  5  1  6
  6  4  1  0
  6  7  2  0
  8  9  1  0
  9 10  2  0
 10 11  1  0
 12 11  2  0
 12 13  1  0
 14 15  1  0
 14 13  1  1
 15  6  1  0
 16 14  1  0
 17 16  2  0
 18 12  1  0
 19  9  1  0
 19 18  2  0
 21 20  1  1
 21 22  1  0
 23 21  1  0
 23 24  1  1
 24 16  1  0
 25 27  1  0
 25 23  1  0
 26 25  2  0
M  END
$$$$
