TYV.pdb
     RDKit          3D

 27 27  0  0  1  0  0  0  0  0999 V2000
   20.1270  -30.1713  -10.5657 C   0  0  0  0  0  0  0  0  0  0  0  0
   21.0218  -29.8528  -11.7369 C   0  0  1  0  0  0  0  0  0  0  0  0
   21.5913  -31.0090  -12.2435 O   0  0  0  0  0  0  0  0  0  0  0  0
   20.3248  -29.0307  -12.7891 C   0  0  2  0  0  0  0  0  0  0  0  0
   21.2287  -28.8122  -13.8980 N   0  0  0  0  0  0  0  0  0  0  0  0
   19.8245  -27.7434  -12.3123 C   0  0  0  0  0  0  0  0  0  0  0  0
   20.5457  -26.7196  -12.4072 O   0  0  0  0  0  0  0  0  0  0  0  0
   18.0256  -20.7662  -14.4767 O   0  0  0  0  0  0  0  0  0  0  0  0
   17.7565  -22.0252  -13.9230 C   0  0  0  0  0  0  0  0  0  0  0  0
   16.9664  -22.1609  -12.7993 C   0  0  0  0  0  0  0  0  0  0  0  0
   16.6726  -23.3737  -12.2177 C   0  0  0  0  0  0  0  0  0  0  0  0
   17.1846  -24.5224  -12.7717 C   0  0  0  0  0  0  0  0  0  0  0  0
   16.9116  -25.8704  -12.2000 C   0  0  0  0  0  0  0  0  0  0  0  0
   18.0467  -26.2897  -11.2580 C   0  0  2  0  0  0  0  0  0  0  0  0
   18.5398  -27.5488  -11.7282 N   0  0  0  0  0  0  0  0  0  0  0  0
   17.4407  -26.3824   -9.9053 C   0  0  0  0  0  0  0  0  0  0  0  0
   16.7152  -27.3611   -9.6010 O   0  0  0  0  0  0  0  0  0  0  0  0
   17.9754  -24.4098  -13.8932 C   0  0  0  0  0  0  0  0  0  0  0  0
   18.2608  -23.1885  -14.4643 C   0  0  0  0  0  0  0  0  0  0  0  0
   17.0222  -24.8131   -5.2313 C   0  0  0  0  0  0  0  0  0  0  0  0
   17.7286  -24.7675   -6.5442 C   0  0  1  0  0  0  0  0  0  0  0  0
   19.0845  -25.3846   -6.4316 C   0  0  0  0  0  0  0  0  0  0  0  0
   16.9579  -25.4647   -7.6486 C   0  0  2  0  0  0  0  0  0  0  0  0
   17.6488  -25.3885   -8.9113 N   0  0  0  0  0  0  0  0  0  0  0  0
   15.5767  -24.9310   -7.7444 C   0  0  0  0  0  0  0  0  0  0  0  0
   15.2916  -23.9032   -8.3997 O   0  0  0  0  0  0  0  0  0  0  0  0
   14.5552  -25.5912   -7.0845 O   0  0  0  0  0  0  0  0  0  0  0  0
  2  1  1  1
  2  3  1  0
  4  2  1  0
  4  5  1  6
  6  4  1  0
  6  7  2  0
  8  9  1  0
  9 10  2  0
 10 11  1  0
 12 11  2  0
 12 13  1  0
 14 15  1  0
 14 13  1  6
 15  6  1  0
 16 14  1  0
 17 16  2  0
 18 12  1  0
 19  9  1  0
 19 18  2  0
 21 20  1  1
 21 22  1  0
 23 21  1  0
 23 24  1  6
 24 16  1  0
 25 27  1  0
 25 23  1  0
 26 25  2  0
M  END
$$$$
