TYV.pdb
     RDKit          3D

 27 27  0  0  1  0  0  0  0  0999 V2000
   26.9006  -17.5014  -13.9902 C   0  0  0  0  0  0  0  0  0  0  0  0
   27.4595  -18.0614  -15.2738 C   0  0  1  0  0  0  0  0  0  0  0  0
   28.4330  -17.2216  -15.7886 O   0  0  0  0  0  0  0  0  0  0  0  0
   27.9289  -19.4850  -15.1266 C   0  0  2  0  0  0  0  0  0  0  0  0
   28.5557  -19.9092  -16.3601 N   0  0  0  0  0  0  0  0  0  0  0  0
   26.8747  -20.4316  -14.7695 C   0  0  0  0  0  0  0  0  0  0  0  0
   26.0853  -20.8489  -15.6527 O   0  0  0  0  0  0  0  0  0  0  0  0
   26.5227  -18.6957   -7.5436 O   0  0  0  0  0  0  0  0  0  0  0  0
   26.3926  -19.6255   -8.5841 C   0  0  0  0  0  0  0  0  0  0  0  0
   25.1519  -20.0344   -9.0300 C   0  0  0  0  0  0  0  0  0  0  0  0
   24.9709  -20.9441  -10.0475 C   0  0  0  0  0  0  0  0  0  0  0  0
   26.0733  -21.4851  -10.6645 C   0  0  0  0  0  0  0  0  0  0  0  0
   25.9585  -22.4745  -11.7719 C   0  0  0  0  0  0  0  0  0  0  0  0
   25.5623  -21.7713  -13.0759 C   0  0  2  0  0  0  0  0  0  0  0  0
   26.6625  -20.9371  -13.4546 N   0  0  0  0  0  0  0  0  0  0  0  0
   24.3364  -20.9935  -12.7636 C   0  0  0  0  0  0  0  0  0  0  0  0
   24.4073  -19.9494  -12.0696 O   0  0  0  0  0  0  0  0  0  0  0  0
   27.3207  -21.0909  -10.2351 C   0  0  0  0  0  0  0  0  0  0  0  0
   27.4861  -20.1791   -9.2151 C   0  0  0  0  0  0  0  0  0  0  0  0
   22.7445  -18.7745  -14.5894 C   0  0  0  0  0  0  0  0  0  0  0  0
   21.6130  -19.6777  -14.2309 C   0  0  1  0  0  0  0  0  0  0  0  0
   21.2687  -20.5683  -15.3798 C   0  0  0  0  0  0  0  0  0  0  0  0
   21.9089  -20.5325  -13.0136 C   0  0  2  0  0  0  0  0  0  0  0  0
   23.0511  -21.3856  -13.2258 N   0  0  0  0  0  0  0  0  0  0  0  0
   20.7098  -21.3088  -12.6116 C   0  0  0  0  0  0  0  0  0  0  0  0
   20.6589  -22.5579  -12.6750 O   0  0  0  0  0  0  0  0  0  0  0  0
   19.5970  -20.6309  -12.1458 O   0  0  0  0  0  0  0  0  0  0  0  0
  2  1  1  1
  2  3  1  0
  4  2  1  0
  4  5  1  6
  6  4  1  0
  6  7  2  0
  8  9  1  0
  9 10  2  0
 10 11  1  0
 12 11  2  0
 12 13  1  0
 14 15  1  0
 14 13  1  1
 15  6  1  0
 16 14  1  0
 17 16  2  0
 18 12  1  0
 19  9  1  0
 19 18  2  0
 21 20  1  6
 21 22  1  0
 23 21  1  0
 23 24  1  6
 24 16  1  0
 25 27  1  0
 25 23  1  0
 26 25  2  0
M  END
$$$$
