TYV.pdb
     RDKit          3D

 27 27  0  0  1  0  0  0  0  0999 V2000
   27.4156  -19.1363  -17.4022 C   0  0  0  0  0  0  0  0  0  0  0  0
   27.9439  -20.4500  -17.9205 C   0  0  1  0  0  0  0  0  0  0  0  0
   28.8983  -20.2383  -18.9015 O   0  0  0  0  0  0  0  0  0  0  0  0
   28.4259  -21.3544  -16.8167 C   0  0  2  0  0  0  0  0  0  0  0  0
   28.7973  -22.6351  -17.3791 N   0  0  0  0  0  0  0  0  0  0  0  0
   27.4570  -21.5607  -15.7426 C   0  0  0  0  0  0  0  0  0  0  0  0
   26.4003  -22.2005  -15.9697 O   0  0  0  0  0  0  0  0  0  0  0  0
   23.5365  -20.7192   -7.7742 O   0  0  0  0  0  0  0  0  0  0  0  0
   24.4461  -20.6696   -8.8392 C   0  0  0  0  0  0  0  0  0  0  0  0
   24.1532  -21.2430  -10.0602 C   0  0  0  0  0  0  0  0  0  0  0  0
   25.0117  -21.2215  -11.1363 C   0  0  0  0  0  0  0  0  0  0  0  0
   26.2307  -20.6002  -11.0069 C   0  0  0  0  0  0  0  0  0  0  0  0
   27.2123  -20.5356  -12.1252 C   0  0  0  0  0  0  0  0  0  0  0  0
   26.6146  -21.1528  -13.3954 C   0  0  2  0  0  0  0  0  0  0  0  0
   27.6197  -21.0781  -14.4122 N   0  0  0  0  0  0  0  0  0  0  0  0
   25.4141  -20.3402  -13.7177 C   0  0  0  0  0  0  0  0  0  0  0  0
   25.5185  -19.1042  -13.9128 O   0  0  0  0  0  0  0  0  0  0  0  0
   26.5431  -20.0216   -9.7972 C   0  0  0  0  0  0  0  0  0  0  0  0
   25.6732  -20.0512   -8.7286 C   0  0  0  0  0  0  0  0  0  0  0  0
   21.2750  -19.4322  -15.8190 C   0  0  0  0  0  0  0  0  0  0  0  0
   22.4930  -20.2412  -15.5247 C   0  0  1  0  0  0  0  0  0  0  0  0
   23.6023  -19.8767  -16.4565 C   0  0  0  0  0  0  0  0  0  0  0  0
   22.9736  -20.0779  -14.0955 C   0  0  2  0  0  0  0  0  0  0  0  0
   24.1167  -20.9110  -13.8187 N   0  0  0  0  0  0  0  0  0  0  0  0
   21.8680  -20.3249  -13.1371 C   0  0  0  0  0  0  0  0  0  0  0  0
   21.6311  -21.4546  -12.6527 O   0  0  0  0  0  0  0  0  0  0  0  0
   21.0604  -19.2672  -12.7577 O   0  0  0  0  0  0  0  0  0  0  0  0
  2  1  1  1
  2  3  1  0
  4  2  1  0
  4  5  1  6
  6  4  1  0
  6  7  2  0
  8  9  1  0
  9 10  2  0
 10 11  1  0
 12 11  2  0
 12 13  1  0
 14 15  1  0
 14 13  1  1
 15  6  1  0
 16 14  1  0
 17 16  2  0
 18 12  1  0
 19  9  1  0
 19 18  2  0
 21 20  1  6
 21 22  1  0
 23 21  1  0
 23 24  1  1
 24 16  1  0
 25 27  1  0
 25 23  1  0
 26 25  2  0
M  END
$$$$
