PSG.pdb
     RDKit          3D

 18 18  0  0  1  0  0  0  0  0999 V2000
   25.6197  -26.7184  -18.5851 N   0  0  0  0  0  0  0  0  0  0  0  0
   24.5846  -27.6444  -18.1198 C   0  0  0  0  0  0  0  0  0  0  0  0
   25.1820  -28.3761  -16.9466 C   0  0  0  0  0  0  0  0  0  0  0  0
   26.4689  -27.6178  -16.6495 C   0  0  0  0  0  0  0  0  0  0  0  0
   26.2320  -26.2919  -17.3186 C   0  0  1  0  0  0  0  0  0  0  0  0
   27.4879  -25.5787  -17.6300 C   0  0  0  0  0  0  0  0  0  0  0  0
   28.0984  -25.6571  -18.7202 O   0  0  0  0  0  0  0  0  0  0  0  0
   28.4084  -21.8301  -17.1686 O   0  0  0  0  0  0  0  0  0  0  0  0
   29.3114  -22.5998  -16.4495 C   0  0  0  0  0  0  0  0  0  0  0  0
   29.3131  -24.0392  -16.8595 C   0  0  2  0  0  0  0  0  0  0  0  0
   28.0877  -24.7332  -16.6638 N   0  0  0  0  0  0  0  0  0  0  0  0
   30.4471  -24.7395  -16.2329 C   0  0  0  0  0  0  0  0  0  0  0  0
   30.2202  -25.4345  -15.1847 O   0  0  0  0  0  0  0  0  0  0  0  0
   31.7660  -24.6904  -16.7179 N   0  0  0  0  0  0  0  0  0  0  0  0
   32.8453  -25.4014  -16.0662 C   0  0  0  0  0  0  0  0  0  0  0  0
   33.2967  -26.5046  -16.9188 C   0  0  0  0  0  0  0  0  0  0  0  0
   32.5071  -27.0708  -17.6963 O   0  0  0  0  0  0  0  0  0  0  0  0
   34.6099  -26.9541  -16.8904 O   0  0  0  0  0  0  0  0  0  0  0  0
  1  5  1  0
  2  1  1  0
  2  3  1  0
  3  4  1  0
  5  4  1  0
  5  6  1  6
  6  7  2  0
  8  9  1  0
 10  9  1  1
 11 10  1  0
 11  6  1  0
 12 10  1  0
 12 14  1  0
 13 12  2  0
 15 14  1  0
 15 16  1  0
 16 18  1  0
 17 16  2  0
M  END
$$$$
