PSG.pdb
     RDKit          3D

 18 18  0  0  1  0  0  0  0  0999 V2000
   24.0558  -11.9883  -15.2735 N   0  0  0  0  0  0  0  0  0  0  0  0
   24.6034  -13.3373  -15.1129 C   0  0  0  0  0  0  0  0  0  0  0  0
   23.8546  -14.2060  -16.0892 C   0  0  0  0  0  0  0  0  0  0  0  0
   23.0798  -13.2175  -16.9506 C   0  0  0  0  0  0  0  0  0  0  0  0
   23.8228  -11.9298  -16.7237 C   0  0  1  0  0  0  0  0  0  0  0  0
   22.9980  -10.7381  -17.0111 C   0  0  0  0  0  0  0  0  0  0  0  0
   22.6705  -10.3601  -18.1588 O   0  0  0  0  0  0  0  0  0  0  0  0
   19.5317   -7.8148  -16.3990 O   0  0  0  0  0  0  0  0  0  0  0  0
   20.2483   -8.9756  -16.1464 C   0  0  0  0  0  0  0  0  0  0  0  0
   21.7292   -8.7600  -16.1320 C   0  0  2  0  0  0  0  0  0  0  0  0
   22.5168   -9.9299  -15.9512 N   0  0  0  0  0  0  0  0  0  0  0  0
   22.0753   -7.7092  -15.1599 C   0  0  0  0  0  0  0  0  0  0  0  0
   22.1114   -8.0233  -13.9216 O   0  0  0  0  0  0  0  0  0  0  0  0
   22.3691   -6.3796  -15.5110 N   0  0  0  0  0  0  0  0  0  0  0  0
   22.7064   -5.3846  -14.5155 C   0  0  0  0  0  0  0  0  0  0  0  0
   21.5606   -4.4979  -14.2945 C   0  0  0  0  0  0  0  0  0  0  0  0
   20.4900   -4.6799  -14.9020 O   0  0  0  0  0  0  0  0  0  0  0  0
   21.6276   -3.4321  -13.4073 O   0  0  0  0  0  0  0  0  0  0  0  0
  1  5  1  0
  2  1  1  0
  2  3  1  0
  3  4  1  0
  5  4  1  0
  5  6  1  1
  6  7  2  0
  8  9  1  0
 10  9  1  1
 11 10  1  0
 11  6  1  0
 12 10  1  0
 12 14  1  0
 13 12  2  0
 15 14  1  0
 15 16  1  0
 16 18  1  0
 17 16  2  0
M  END
$$$$
