PSG.pdb
     RDKit          3D

 18 18  0  0  1  0  0  0  0  0999 V2000
   13.1347  -12.9724  -10.3033 N   0  0  0  0  0  0  0  0  0  0  0  0
   11.7337  -13.3781  -10.1700 C   0  0  0  0  0  0  0  0  0  0  0  0
   10.9803  -12.1367   -9.7701 C   0  0  0  0  0  0  0  0  0  0  0  0
   11.9903  -11.0117   -9.9534 C   0  0  0  0  0  0  0  0  0  0  0  0
   13.0037  -11.6263  -10.8792 C   0  0  1  0  0  0  0  0  0  0  0  0
   14.3210  -10.9615  -10.8037 C   0  0  0  0  0  0  0  0  0  0  0  0
   15.1710  -11.1675   -9.9079 O   0  0  0  0  0  0  0  0  0  0  0  0
   17.1615  -10.6179  -13.3237 O   0  0  0  0  0  0  0  0  0  0  0  0
   16.7347   -9.3352  -13.0115 C   0  0  0  0  0  0  0  0  0  0  0  0
   15.9160   -9.2772  -11.7600 C   0  0  2  0  0  0  0  0  0  0  0  0
   14.7012  -10.0156  -11.7880 N   0  0  0  0  0  0  0  0  0  0  0  0
   15.6976   -7.8751  -11.3661 C   0  0  0  0  0  0  0  0  0  0  0  0
   14.7686   -7.2228  -11.9534 O   0  0  0  0  0  0  0  0  0  0  0  0
   16.4494   -7.2089  -10.3821 N   0  0  0  0  0  0  0  0  0  0  0  0
   16.2209   -5.8163  -10.0604 C   0  0  0  0  0  0  0  0  0  0  0  0
   17.1629   -5.3874   -9.0228 C   0  0  0  0  0  0  0  0  0  0  0  0
   17.9847   -6.1879   -8.5407 O   0  0  0  0  0  0  0  0  0  0  0  0
   17.1726   -4.0842   -8.5444 O   0  0  0  0  0  0  0  0  0  0  0  0
  1  5  1  0
  2  1  1  0
  2  3  1  0
  3  4  1  0
  5  4  1  0
  5  6  1  1
  6  7  2  0
  8  9  1  0
 10  9  1  6
 11 10  1  0
 11  6  1  0
 12 10  1  0
 12 14  1  0
 13 12  2  0
 15 14  1  0
 15 16  1  0
 16 18  1  0
 17 16  2  0
M  END
$$$$
