PSG.pdb
     RDKit          3D

 18 18  0  0  1  0  0  0  0  0999 V2000
   21.5575  -11.0956  -17.6576 N   0  0  0  0  0  0  0  0  0  0  0  0
   21.5494  -12.2673  -18.5364 C   0  0  0  0  0  0  0  0  0  0  0  0
   20.1029  -12.5256  -18.8672 C   0  0  0  0  0  0  0  0  0  0  0  0
   19.3747  -11.2942  -18.3449 C   0  0  0  0  0  0  0  0  0  0  0  0
   20.4796  -10.2799  -18.2353 C   0  0  1  0  0  0  0  0  0  0  0  0
   20.1631   -9.1934  -17.2854 C   0  0  0  0  0  0  0  0  0  0  0  0
   19.2060   -8.3960  -17.4106 O   0  0  0  0  0  0  0  0  0  0  0  0
   19.5983   -9.1343  -13.3602 O   0  0  0  0  0  0  0  0  0  0  0  0
   20.7519   -8.4601  -13.7339 C   0  0  0  0  0  0  0  0  0  0  0  0
   20.7241   -7.9922  -15.1552 C   0  0  2  0  0  0  0  0  0  0  0  0
   20.9658   -8.9941  -16.1347 N   0  0  0  0  0  0  0  0  0  0  0  0
   21.6190   -6.8344  -15.3214 C   0  0  0  0  0  0  0  0  0  0  0  0
   22.8606   -7.0580  -15.5257 O   0  0  0  0  0  0  0  0  0  0  0  0
   21.1907   -5.4961  -15.2690 N   0  0  0  0  0  0  0  0  0  0  0  0
   22.1111   -4.3932  -15.4460 C   0  0  0  0  0  0  0  0  0  0  0  0
   21.3722   -3.1275  -15.4462 C   0  0  0  0  0  0  0  0  0  0  0  0
   21.1587   -2.5167  -16.5092 O   0  0  0  0  0  0  0  0  0  0  0  0
   20.8881   -2.5690  -14.2711 O   0  0  0  0  0  0  0  0  0  0  0  0
  1  5  1  0
  2  1  1  0
  2  3  1  0
  3  4  1  0
  5  4  1  0
  5  6  1  1
  6  7  2  0
  8  9  1  0
 10  9  1  1
 11 10  1  0
 11  6  1  0
 12 10  1  0
 12 14  1  0
 13 12  2  0
 15 14  1  0
 15 16  1  0
 16 18  1  0
 17 16  2  0
M  END
$$$$
