PSG.pdb
     RDKit          3D

 18 18  0  0  1  0  0  0  0  0999 V2000
   18.0558  -11.4910  -16.4441 N   0  0  0  0  0  0  0  0  0  0  0  0
   17.1528  -11.7585  -17.5659 C   0  0  0  0  0  0  0  0  0  0  0  0
   16.9814  -10.4439  -18.2807 C   0  0  0  0  0  0  0  0  0  0  0  0
   18.0306   -9.5370  -17.6514 C   0  0  0  0  0  0  0  0  0  0  0  0
   18.9876  -10.5193  -17.0342 C   0  0  1  0  0  0  0  0  0  0  0  0
   19.7880   -9.9259  -15.9433 C   0  0  0  0  0  0  0  0  0  0  0  0
   19.3565   -9.6904  -14.7919 O   0  0  0  0  0  0  0  0  0  0  0  0
   24.0749   -9.4645  -16.2718 O   0  0  0  0  0  0  0  0  0  0  0  0
   23.3661   -9.5534  -15.0824 C   0  0  0  0  0  0  0  0  0  0  0  0
   21.9848   -8.9854  -15.1783 C   0  0  2  0  0  0  0  0  0  0  0  0
   21.1450   -9.5795  -16.1598 N   0  0  0  0  0  0  0  0  0  0  0  0
   22.0517   -7.5216  -15.3258 C   0  0  0  0  0  0  0  0  0  0  0  0
   21.9566   -7.0304  -16.5018 O   0  0  0  0  0  0  0  0  0  0  0  0
   22.2140   -6.6299  -14.2507 N   0  0  0  0  0  0  0  0  0  0  0  0
   22.2889   -5.1985  -14.4517 C   0  0  0  0  0  0  0  0  0  0  0  0
   20.9687   -4.5993  -14.2377 C   0  0  0  0  0  0  0  0  0  0  0  0
   19.9786   -5.3133  -13.9961 O   0  0  0  0  0  0  0  0  0  0  0  0
   20.7764   -3.2256  -14.2962 O   0  0  0  0  0  0  0  0  0  0  0  0
  1  5  1  0
  2  1  1  0
  2  3  1  0
  3  4  1  0
  5  4  1  0
  5  6  1  1
  6  7  2  0
  8  9  1  0
 10  9  1  6
 11 10  1  0
 11  6  1  0
 12 10  1  0
 12 14  1  0
 13 12  2  0
 15 14  1  0
 15 16  1  0
 16 18  1  0
 17 16  2  0
M  END
$$$$
