PIR.pdb
     RDKit          3D

 27 27  0  0  1  0  0  0  0  0999 V2000
    6.9366  -14.7296   21.0124 N   0  0  0  0  0  0  0  0  0  0  0  0
    6.2703  -13.9002   20.0554 C   0  0  0  0  0  0  0  0  0  0  0  0
    7.3469  -13.2204   19.2566 C   0  0  0  0  0  0  0  0  0  0  0  0
    8.4521  -13.0609   20.2951 C   0  0  0  0  0  0  0  0  0  0  0  0
    8.3211  -14.3742   21.0347 C   0  0  1  0  0  0  0  0  0  0  0  0
    8.8778  -14.2765   22.4141 C   0  0  0  0  0  0  0  0  0  0  0  0
   10.0918  -14.1094   22.6504 O   0  0  0  0  0  0  0  0  0  0  0  0
    5.8363  -11.4927   25.6850 C   0  0  0  0  0  0  0  0  0  0  0  0
    7.0352  -12.1564   25.0735 C   0  0  0  0  0  0  0  0  0  0  0  0
    7.3243  -13.5066   25.6921 C   0  0  2  0  0  0  0  0  0  0  0  0
    7.8321  -13.2194   27.1083 C   0  0  0  0  0  0  0  0  0  0  0  0
    8.3762  -14.2354   24.8891 C   0  0  2  0  0  0  0  0  0  0  0  0
    7.9903  -14.3779   23.5211 N   0  0  0  0  0  0  0  0  0  0  0  0
    8.6495  -15.5869   25.4321 C   0  0  0  0  0  0  0  0  0  0  0  0
    7.6791  -16.3611   25.6197 O   0  0  0  0  0  0  0  0  0  0  0  0
   11.0170  -19.4881   20.3109 N   0  0  0  0  0  0  0  0  0  0  0  0
   12.2783  -19.0696   20.8287 C   0  0  0  0  0  0  0  0  0  0  0  0
   13.3383  -19.3385   20.1659 N   0  0  0  0  0  0  0  0  0  0  0  0
   12.3843  -18.3684   22.0497 N   0  0  0  0  0  0  0  0  0  0  0  0
   12.1267  -19.0097   23.3512 C   0  0  0  0  0  0  0  0  0  0  0  0
   11.0505  -18.2778   24.0723 C   0  0  0  0  0  0  0  0  0  0  0  0
   11.1676  -18.1724   25.5397 C   0  0  0  0  0  0  0  0  0  0  0  0
   10.1285  -17.4044   26.2731 C   0  0  2  0  0  0  0  0  0  0  0  0
    9.9464  -16.0608   25.7539 N   0  0  0  0  0  0  0  0  0  0  0  0
   10.2688  -17.3956   27.7463 C   0  0  0  0  0  0  0  0  0  0  0  0
   10.3059  -16.1834   28.4471 O   0  0  0  0  0  0  0  0  0  0  0  0
   10.3594  -18.4435   28.4330 O   0  0  0  0  0  0  0  0  0  0  0  0
  1  5  1  0
  2  3  1  0
  2  1  1  0
  3  4  1  0
  5  4  1  0
  5  6  1  1
  6 13  1  0
  6  7  2  0
  9 10  1  0
  9  8  1  0
 10 12  1  0
 10 11  1  1
 12 14  1  0
 12 13  1  6
 14 15  2  0
 14 24  1  0
 16 17  1  0
 17 19  1  0
 18 17  2  0
 19 20  1  0
 21 20  1  0
 22 21  1  0
 23 25  1  0
 23 22  1  6
 24 23  1  0
 25 26  1  0
 27 25  2  0
M  END
$$$$
