PIR.pdb
     RDKit          3D

 27 27  0  0  1  0  0  0  0  0999 V2000
    7.2711  -14.7851   20.7889 N   0  0  0  0  0  0  0  0  0  0  0  0
    6.6355  -14.0248   19.7565 C   0  0  0  0  0  0  0  0  0  0  0  0
    7.6982  -13.1470   19.1571 C   0  0  0  0  0  0  0  0  0  0  0  0
    8.5884  -12.8670   20.3632 C   0  0  0  0  0  0  0  0  0  0  0  0
    8.5592  -14.2189   21.0416 C   0  0  1  0  0  0  0  0  0  0  0  0
    8.8720  -14.1024   22.4944 C   0  0  0  0  0  0  0  0  0  0  0  0
    9.9393  -13.6214   22.9268 O   0  0  0  0  0  0  0  0  0  0  0  0
    5.0825  -12.2402   25.6855 C   0  0  0  0  0  0  0  0  0  0  0  0
    6.3857  -12.6801   25.0854 C   0  0  0  0  0  0  0  0  0  0  0  0
    6.7920  -14.0642   25.5421 C   0  0  2  0  0  0  0  0  0  0  0  0
    6.9984  -13.9628   27.0564 C   0  0  0  0  0  0  0  0  0  0  0  0
    8.0723  -14.4853   24.8594 C   0  0  2  0  0  0  0  0  0  0  0  0
    7.9140  -14.5591   23.4415 N   0  0  0  0  0  0  0  0  0  0  0  0
    8.5464  -15.8054   25.3376 C   0  0  0  0  0  0  0  0  0  0  0  0
    7.6985  -16.7134   25.5183 O   0  0  0  0  0  0  0  0  0  0  0  0
   11.5370  -18.4578   20.0234 N   0  0  0  0  0  0  0  0  0  0  0  0
   12.3081  -19.0819   21.0481 C   0  0  0  0  0  0  0  0  0  0  0  0
   12.5042  -20.3442   20.9918 N   0  0  0  0  0  0  0  0  0  0  0  0
   12.8580  -18.3428   22.1182 N   0  0  0  0  0  0  0  0  0  0  0  0
   12.7026  -18.7574   23.5237 C   0  0  0  0  0  0  0  0  0  0  0  0
   11.5238  -18.0771   24.1251 C   0  0  0  0  0  0  0  0  0  0  0  0
   11.4677  -17.9923   25.5974 C   0  0  0  0  0  0  0  0  0  0  0  0
   10.2704  -17.3702   26.2193 C   0  0  2  0  0  0  0  0  0  0  0  0
    9.9060  -16.1064   25.6046 N   0  0  0  0  0  0  0  0  0  0  0  0
   10.3087  -17.2579   27.6944 C   0  0  0  0  0  0  0  0  0  0  0  0
   10.3379  -18.4089   28.4919 O   0  0  0  0  0  0  0  0  0  0  0  0
   10.3176  -16.1565   28.2985 O   0  0  0  0  0  0  0  0  0  0  0  0
  1  5  1  0
  2  3  1  0
  2  1  1  0
  3  4  1  0
  5  4  1  0
  5  6  1  1
  6 13  1  0
  6  7  2  0
  9 10  1  0
  9  8  1  0
 10 12  1  0
 10 11  1  1
 12 14  1  0
 12 13  1  6
 14 15  2  0
 14 24  1  0
 16 17  1  0
 17 19  1  0
 18 17  2  0
 19 20  1  0
 21 20  1  0
 22 21  1  0
 23 25  1  0
 23 22  1  6
 24 23  1  0
 25 26  1  0
 27 25  2  0
M  END
$$$$
