PIR.pdb
     RDKit          3D

 27 27  0  0  1  0  0  0  0  0999 V2000
    7.5954  -14.5172   19.8594 N   0  0  0  0  0  0  0  0  0  0  0  0
    7.3230  -15.5473   18.9042 C   0  0  0  0  0  0  0  0  0  0  0  0
    6.2467  -16.4097   19.5019 C   0  0  0  0  0  0  0  0  0  0  0  0
    6.5682  -16.3232   20.9901 C   0  0  0  0  0  0  0  0  0  0  0  0
    6.9715  -14.8690   21.0965 C   0  0  1  0  0  0  0  0  0  0  0  0
    7.8466  -14.6351   22.2803 C   0  0  0  0  0  0  0  0  0  0  0  0
    9.0832  -14.8021   22.2591 O   0  0  0  0  0  0  0  0  0  0  0  0
    5.7608  -11.2220   26.1838 C   0  0  0  0  0  0  0  0  0  0  0  0
    6.7252  -11.9076   25.2609 C   0  0  0  0  0  0  0  0  0  0  0  0
    7.1054  -13.2888   25.7478 C   0  0  2  0  0  0  0  0  0  0  0  0
    7.8899  -13.0752   27.0458 C   0  0  0  0  0  0  0  0  0  0  0  0
    7.9627  -13.9884   24.7190 C   0  0  2  0  0  0  0  0  0  0  0  0
    7.2527  -14.2007   23.4977 N   0  0  0  0  0  0  0  0  0  0  0  0
    8.4467  -15.3028   25.2031 C   0  0  0  0  0  0  0  0  0  0  0  0
    7.6048  -16.2142   25.3944 O   0  0  0  0  0  0  0  0  0  0  0  0
   15.2708  -20.1413   22.1921 N   0  0  0  0  0  0  0  0  0  0  0  0
   14.4811  -20.9310   23.0791 C   0  0  0  0  0  0  0  0  0  0  0  0
   14.7132  -22.1857   23.1621 N   0  0  0  0  0  0  0  0  0  0  0  0
   13.4541  -20.3633   23.8645 N   0  0  0  0  0  0  0  0  0  0  0  0
   13.0759  -18.9430   23.7593 C   0  0  0  0  0  0  0  0  0  0  0  0
   11.9412  -18.6517   24.6768 C   0  0  0  0  0  0  0  0  0  0  0  0
   11.3773  -17.2883   24.6466 C   0  0  0  0  0  0  0  0  0  0  0  0
   10.2574  -16.9715   25.5701 C   0  0  2  0  0  0  0  0  0  0  0  0
    9.8093  -15.5945   25.4644 N   0  0  0  0  0  0  0  0  0  0  0  0
   10.4716  -17.3589   26.9822 C   0  0  0  0  0  0  0  0  0  0  0  0
   10.4199  -16.3947   27.9968 O   0  0  0  0  0  0  0  0  0  0  0  0
   10.7047  -18.5397   27.3418 O   0  0  0  0  0  0  0  0  0  0  0  0
  1  5  1  0
  2  3  1  0
  2  1  1  0
  3  4  1  0
  5  4  1  0
  5  6  1  1
  6 13  1  0
  6  7  2  0
  9 10  1  0
  9  8  1  0
 10 12  1  0
 10 11  1  1
 12 14  1  0
 12 13  1  6
 14 15  2  0
 14 24  1  0
 16 17  1  0
 17 19  1  0
 18 17  2  0
 19 20  1  0
 21 20  1  0
 22 21  1  0
 23 25  1  0
 23 22  1  6
 24 23  1  0
 25 26  1  0
 27 25  2  0
M  END
$$$$
