PIR.pdb
     RDKit          3D

 27 27  0  0  1  0  0  0  0  0999 V2000
    7.8500  -14.3546   19.8951 N   0  0  0  0  0  0  0  0  0  0  0  0
    7.5671  -15.3629   18.9197 C   0  0  0  0  0  0  0  0  0  0  0  0
    6.4157  -16.1657   19.4574 C   0  0  0  0  0  0  0  0  0  0  0  0
    6.6681  -16.1051   20.9602 C   0  0  0  0  0  0  0  0  0  0  0  0
    7.1471  -14.6767   21.0975 C   0  0  1  0  0  0  0  0  0  0  0  0
    7.9748  -14.4988   22.3244 C   0  0  0  0  0  0  0  0  0  0  0  0
    9.2110  -14.6684   22.3448 O   0  0  0  0  0  0  0  0  0  0  0  0
    5.9920  -10.9621   26.0946 C   0  0  0  0  0  0  0  0  0  0  0  0
    6.9666  -11.7394   25.2593 C   0  0  0  0  0  0  0  0  0  0  0  0
    7.1559  -13.1540   25.7617 C   0  0  2  0  0  0  0  0  0  0  0  0
    7.8693  -13.0282   27.1113 C   0  0  0  0  0  0  0  0  0  0  0  0
    7.9974  -13.9464   24.7888 C   0  0  2  0  0  0  0  0  0  0  0  0
    7.3335  -14.1178   23.5356 N   0  0  0  0  0  0  0  0  0  0  0  0
    8.3365  -15.2892   25.3160 C   0  0  0  0  0  0  0  0  0  0  0  0
    7.3982  -16.0815   25.5764 O   0  0  0  0  0  0  0  0  0  0  0  0
   13.7345  -19.4510   21.0662 N   0  0  0  0  0  0  0  0  0  0  0  0
   14.1844  -19.3647   22.4168 C   0  0  0  0  0  0  0  0  0  0  0  0
   15.4198  -19.5745   22.6711 N   0  0  0  0  0  0  0  0  0  0  0  0
   13.3026  -19.0542   23.4750 N   0  0  0  0  0  0  0  0  0  0  0  0
   11.9812  -19.6920   23.6119 C   0  0  0  0  0  0  0  0  0  0  0  0
   11.2548  -19.1082   24.7720 C   0  0  0  0  0  0  0  0  0  0  0  0
   10.8530  -17.6914   24.6775 C   0  0  0  0  0  0  0  0  0  0  0  0
    9.9412  -17.1497   25.7180 C   0  0  2  0  0  0  0  0  0  0  0  0
    9.6627  -15.7353   25.5452 N   0  0  0  0  0  0  0  0  0  0  0  0
   10.3219  -17.4546   27.1151 C   0  0  0  0  0  0  0  0  0  0  0  0
   10.5153  -16.4193   28.0386 O   0  0  0  0  0  0  0  0  0  0  0  0
   10.4880  -18.6245   27.5412 O   0  0  0  0  0  0  0  0  0  0  0  0
  1  5  1  0
  2  3  1  0
  2  1  1  0
  3  4  1  0
  5  4  1  0
  5  6  1  1
  6 13  1  0
  6  7  2  0
  9 10  1  0
  9  8  1  0
 10 12  1  0
 10 11  1  1
 12 14  1  0
 12 13  1  6
 14 15  2  0
 14 24  1  0
 16 17  1  0
 17 19  1  0
 18 17  2  0
 19 20  1  0
 21 20  1  0
 22 21  1  0
 23 25  1  0
 23 22  1  6
 24 23  1  0
 25 26  1  0
 27 25  2  0
M  END
$$$$
