PIR.pdb
     RDKit          3D

 27 27  0  0  1  0  0  0  0  0999 V2000
    7.0149  -14.7398   21.3031 N   0  0  0  0  0  0  0  0  0  0  0  0
    6.2127  -13.9727   20.3999 C   0  0  0  0  0  0  0  0  0  0  0  0
    7.1666  -13.1985   19.5339 C   0  0  0  0  0  0  0  0  0  0  0  0
    8.3222  -12.9415   20.4952 C   0  0  0  0  0  0  0  0  0  0  0  0
    8.3604  -14.2618   21.2328 C   0  0  1  0  0  0  0  0  0  0  0  0
    8.9999  -14.1158   22.5714 C   0  0  0  0  0  0  0  0  0  0  0  0
   10.2243  -13.9311   22.7268 O   0  0  0  0  0  0  0  0  0  0  0  0
    6.2380  -11.4693   26.4017 C   0  0  0  0  0  0  0  0  0  0  0  0
    7.3597  -12.0712   25.6071 C   0  0  0  0  0  0  0  0  0  0  0  0
    7.6429  -13.5035   26.0040 C   0  0  2  0  0  0  0  0  0  0  0  0
    8.1833  -13.4433   27.4359 C   0  0  0  0  0  0  0  0  0  0  0  0
    8.6684  -14.1106   25.0752 C   0  0  2  0  0  0  0  0  0  0  0  0
    8.1834  -14.1894   23.7338 N   0  0  0  0  0  0  0  0  0  0  0  0
    9.0630  -15.4739   25.5015 C   0  0  0  0  0  0  0  0  0  0  0  0
    8.2187  -16.3975   25.4009 O   0  0  0  0  0  0  0  0  0  0  0  0
   13.6998  -22.1789   25.8687 N   0  0  0  0  0  0  0  0  0  0  0  0
   13.6990  -21.7965   24.4948 C   0  0  0  0  0  0  0  0  0  0  0  0
   13.7607  -22.7076   23.5998 N   0  0  0  0  0  0  0  0  0  0  0  0
   13.6317  -20.4422   24.1007 N   0  0  0  0  0  0  0  0  0  0  0  0
   13.6786  -19.3358   25.0729 C   0  0  0  0  0  0  0  0  0  0  0  0
   12.3061  -19.0316   25.5607 C   0  0  0  0  0  0  0  0  0  0  0  0
   11.8141  -17.6514   25.3846 C   0  0  0  0  0  0  0  0  0  0  0  0
   10.7058  -17.1850   26.2574 C   0  0  2  0  0  0  0  0  0  0  0  0
   10.3424  -15.7998   26.0183 N   0  0  0  0  0  0  0  0  0  0  0  0
   10.8821  -17.4515   27.7023 C   0  0  0  0  0  0  0  0  0  0  0  0
   10.7976  -16.4062   28.6309 O   0  0  0  0  0  0  0  0  0  0  0  0
   11.1101  -18.5965   28.1659 O   0  0  0  0  0  0  0  0  0  0  0  0
  1  5  1  0
  2  3  1  0
  2  1  1  0
  3  4  1  0
  5  4  1  0
  5  6  1  1
  6 13  1  0
  6  7  2  0
  9 10  1  0
  9  8  1  0
 10 12  1  0
 10 11  1  1
 12 14  1  0
 12 13  1  6
 14 15  2  0
 14 24  1  0
 16 17  1  0
 17 19  1  0
 18 17  2  0
 19 20  1  0
 21 20  1  0
 22 21  1  0
 23 25  1  0
 23 22  1  6
 24 23  1  0
 25 26  1  0
 27 25  2  0
M  END
$$$$
