DWY.pdb
     RDKit          3D

 35 37  0  0  1  0  0  0  0  0999 V2000
   19.6369  -15.7234  -17.5923 N   0  0  0  0  0  0  0  0  0  0  0  0
   19.0663  -14.5034  -17.1144 C   0  0  1  0  0  0  0  0  0  0  0  0
   18.9279  -14.5817  -15.6175 C   0  0  0  0  0  0  0  0  0  0  0  0
   17.9696  -15.6609  -15.2912 C   0  0  0  0  0  0  0  0  0  0  0  0
   17.4060  -16.3271  -16.1895 O   0  0  0  0  0  0  0  0  0  0  0  0
   19.9007  -13.3323  -17.5260 C   0  0  0  0  0  0  0  0  0  0  0  0
   20.6550  -12.8043  -16.6760 O   0  0  0  0  0  0  0  0  0  0  0  0
   17.6889  -15.9418  -13.9673 O   0  0  0  0  0  0  0  0  0  0  0  0
   19.8393  -12.8324  -18.8459 N   0  0  0  0  0  0  0  0  0  0  0  0
   20.5083  -11.6653  -19.2992 C   0  0  1  0  0  0  0  0  0  0  0  0
   20.2661  -11.2797  -20.7501 C   0  0  0  0  0  0  0  0  0  0  0  0
   21.1422  -10.1855  -21.2216 C   0  0  0  0  0  0  0  0  0  0  0  0
   22.4322   -9.8615  -20.9069 C   0  0  0  0  0  0  0  0  0  0  0  0
   22.7869   -8.7726  -21.6143 N   0  0  0  0  0  0  0  0  0  0  0  0
   21.7733   -8.3622  -22.3905 C   0  0  0  0  0  0  0  0  0  0  0  0
   21.5944   -7.3343  -23.2907 C   0  0  0  0  0  0  0  0  0  0  0  0
   20.3942   -7.1552  -23.9708 C   0  0  0  0  0  0  0  0  0  0  0  0
   19.3692   -8.0203  -23.7394 C   0  0  0  0  0  0  0  0  0  0  0  0
   19.5551   -9.0626  -22.8244 C   0  0  0  0  0  0  0  0  0  0  0  0
   20.7335   -9.2303  -22.1625 C   0  0  0  0  0  0  0  0  0  0  0  0
   20.4744  -10.4997  -18.4365 C   0  0  0  0  0  0  0  0  0  0  0  0
   19.3637  -10.1652  -17.9287 O   0  0  0  0  0  0  0  0  0  0  0  0
   22.3919   -3.7650  -13.0610 O   0  0  0  0  0  0  0  0  0  0  0  0
   22.3941   -4.9285  -13.8186 C   0  0  0  0  0  0  0  0  0  0  0  0
   23.0388   -4.9932  -15.0391 C   0  0  0  0  0  0  0  0  0  0  0  0
   23.0509   -6.1422  -15.8050 C   0  0  0  0  0  0  0  0  0  0  0  0
   22.4004   -7.2962  -15.3629 C   0  0  0  0  0  0  0  0  0  0  0  0
   22.4123   -8.5194  -16.1946 C   0  0  0  0  0  0  0  0  0  0  0  0
   21.4476   -8.4605  -17.3329 C   0  0  2  0  0  0  0  0  0  0  0  0
   21.5896   -9.6861  -18.1035 N   0  0  0  0  0  0  0  0  0  0  0  0
   21.5257   -7.2643  -18.1716 C   0  0  0  0  0  0  0  0  0  0  0  0
   20.6309   -6.3877  -18.0790 O   0  0  0  0  0  0  0  0  0  0  0  0
   21.7623   -7.2250  -14.1510 C   0  0  0  0  0  0  0  0  0  0  0  0
   21.7440   -6.0661  -13.3669 C   0  0  0  0  0  0  0  0  0  0  0  0
   22.5365   -7.0122  -19.0867 O   0  0  0  0  0  0  0  0  0  0  0  0
  2  3  1  0
  2  1  1  1
  4  3  1  0
  5  4  2  0
  6  7  2  0
  6  2  1  0
  8  4  1  0
  9  6  1  0
 10  9  1  0
 10 11  1  6
 12 11  1  0
 13 12  2  0
 14 13  1  0
 15 14  1  0
 15 20  2  0
 16 15  1  0
 17 16  2  0
 17 18  1  0
 18 19  2  0
 19 20  1  0
 20 12  1  0
 21 30  1  0
 21 10  1  0
 22 21  2  0
 23 24  1  0
 24 34  2  0
 25 26  2  0
 25 24  1  0
 26 27  1  0
 27 28  1  0
 27 33  2  0
 29 28  1  1
 29 31  1  0
 29 30  1  0
 31 35  1  0
 32 31  2  0
 34 33  1  0
M  END
$$$$
