DWY.pdb
     RDKit          3D

 35 37  0  0  1  0  0  0  0  0999 V2000
   35.4890  -29.5707  -17.6534 N   0  0  0  0  0  0  0  0  0  0  0  0
   34.4044  -29.5775  -18.5840 C   0  0  1  0  0  0  0  0  0  0  0  0
   34.6332  -30.6702  -19.5937 C   0  0  0  0  0  0  0  0  0  0  0  0
   35.8555  -30.3488  -20.3633 C   0  0  0  0  0  0  0  0  0  0  0  0
   36.1213  -29.1738  -20.7056 O   0  0  0  0  0  0  0  0  0  0  0  0
   33.0996  -29.7532  -17.8742 C   0  0  0  0  0  0  0  0  0  0  0  0
   33.1028  -30.2630  -16.7295 O   0  0  0  0  0  0  0  0  0  0  0  0
   36.7241  -31.3654  -20.7131 O   0  0  0  0  0  0  0  0  0  0  0  0
   31.8890  -29.3523  -18.4823 N   0  0  0  0  0  0  0  0  0  0  0  0
   30.6010  -29.5348  -17.9141 C   0  0  1  0  0  0  0  0  0  0  0  0
   29.5054  -28.6207  -18.4399 C   0  0  0  0  0  0  0  0  0  0  0  0
   28.2385  -28.7267  -17.6842 C   0  0  0  0  0  0  0  0  0  0  0  0
   27.8032  -28.0896  -16.5561 C   0  0  0  0  0  0  0  0  0  0  0  0
   26.5649  -28.5294  -16.2645 N   0  0  0  0  0  0  0  0  0  0  0  0
   26.1622  -29.4390  -17.1639 C   0  0  0  0  0  0  0  0  0  0  0  0
   25.0188  -30.1867  -17.3432 C   0  0  0  0  0  0  0  0  0  0  0  0
   24.8817  -31.0745  -18.4054 C   0  0  0  0  0  0  0  0  0  0  0  0
   25.9065  -31.2068  -19.2912 C   0  0  0  0  0  0  0  0  0  0  0  0
   27.0660  -30.4457  -19.1053 C   0  0  0  0  0  0  0  0  0  0  0  0
   27.1919  -29.5791  -18.0622 C   0  0  0  0  0  0  0  0  0  0  0  0
   30.1216  -30.8963  -17.7720 C   0  0  0  0  0  0  0  0  0  0  0  0
   30.2590  -31.6830  -18.7547 O   0  0  0  0  0  0  0  0  0  0  0  0
   29.1968  -39.2435  -16.2387 O   0  0  0  0  0  0  0  0  0  0  0  0
   29.4744  -37.8837  -16.2808 C   0  0  0  0  0  0  0  0  0  0  0  0
   29.4307  -37.1031  -15.1415 C   0  0  0  0  0  0  0  0  0  0  0  0
   29.7040  -35.7497  -15.1659 C   0  0  0  0  0  0  0  0  0  0  0  0
   30.0392  -35.1151  -16.3639 C   0  0  0  0  0  0  0  0  0  0  0  0
   30.3222  -33.6633  -16.3807 C   0  0  0  0  0  0  0  0  0  0  0  0
   29.0925  -32.8309  -16.5384 C   0  0  2  0  0  0  0  0  0  0  0  0
   29.5025  -31.4373  -16.6142 N   0  0  0  0  0  0  0  0  0  0  0  0
   28.0448  -33.0488  -15.5407 C   0  0  0  0  0  0  0  0  0  0  0  0
   27.2280  -33.9894  -15.7009 O   0  0  0  0  0  0  0  0  0  0  0  0
   30.0803  -35.8958  -17.4908 C   0  0  0  0  0  0  0  0  0  0  0  0
   29.8054  -37.2678  -17.4774 C   0  0  0  0  0  0  0  0  0  0  0  0
   27.8755  -32.2793  -14.3997 O   0  0  0  0  0  0  0  0  0  0  0  0
  2  3  1  0
  2  1  1  1
  4  3  1  0
  5  4  2  0
  6  7  2  0
  6  2  1  0
  8  4  1  0
  9  6  1  0
 10  9  1  0
 10 11  1  6
 12 11  1  0
 13 12  2  0
 14 13  1  0
 15 14  1  0
 15 20  2  0
 16 15  1  0
 17 16  2  0
 17 18  1  0
 18 19  2  0
 19 20  1  0
 20 12  1  0
 21 30  1  0
 21 10  1  0
 22 21  2  0
 23 24  1  0
 24 34  2  0
 25 26  2  0
 25 24  1  0
 26 27  1  0
 27 28  1  0
 27 33  2  0
 29 28  1  1
 29 31  1  0
 29 30  1  0
 31 35  1  0
 32 31  2  0
 34 33  1  0
M  END
$$$$
