DWY.pdb
     RDKit          3D

 35 37  0  0  1  0  0  0  0  0999 V2000
   29.0235  -20.4789  -15.2153 N   0  0  0  0  0  0  0  0  0  0  0  0
   27.7157  -20.5743  -15.7837 C   0  0  1  0  0  0  0  0  0  0  0  0
   27.7880  -21.3981  -17.0414 C   0  0  0  0  0  0  0  0  0  0  0  0
   28.6628  -20.7000  -18.0094 C   0  0  0  0  0  0  0  0  0  0  0  0
   28.8006  -19.4554  -17.9851 O   0  0  0  0  0  0  0  0  0  0  0  0
   26.7532  -21.1606  -14.8004 C   0  0  0  0  0  0  0  0  0  0  0  0
   25.6767  -21.6399  -15.2268 O   0  0  0  0  0  0  0  0  0  0  0  0
   29.3435  -21.4348  -18.9617 O   0  0  0  0  0  0  0  0  0  0  0  0
   27.0521  -21.1735  -13.4197 N   0  0  0  0  0  0  0  0  0  0  0  0
   26.1744  -21.6438  -12.4079 C   0  0  1  0  0  0  0  0  0  0  0  0
   26.8245  -22.0293  -11.0884 C   0  0  0  0  0  0  0  0  0  0  0  0
   26.4634  -21.1306   -9.9707 C   0  0  0  0  0  0  0  0  0  0  0  0
   25.2953  -20.4887   -9.6685 C   0  0  0  0  0  0  0  0  0  0  0  0
   25.4711  -19.7876   -8.5329 N   0  0  0  0  0  0  0  0  0  0  0  0
   26.7198  -19.9436   -8.0695 C   0  0  0  0  0  0  0  0  0  0  0  0
   27.4163  -19.4719   -6.9781 C   0  0  0  0  0  0  0  0  0  0  0  0
   28.7435  -19.8196   -6.7484 C   0  0  0  0  0  0  0  0  0  0  0  0
   29.3699  -20.6490   -7.6272 C   0  0  0  0  0  0  0  0  0  0  0  0
   28.6590  -21.1256   -8.7343 C   0  0  0  0  0  0  0  0  0  0  0  0
   27.3598  -20.7797   -8.9518 C   0  0  0  0  0  0  0  0  0  0  0  0
   24.9495  -20.8985  -12.1885 C   0  0  0  0  0  0  0  0  0  0  0  0
   25.0428  -19.6709  -11.8924 O   0  0  0  0  0  0  0  0  0  0  0  0
   18.5656  -16.6026  -15.7897 O   0  0  0  0  0  0  0  0  0  0  0  0
   19.5957  -17.4154  -15.3357 C   0  0  0  0  0  0  0  0  0  0  0  0
   20.5848  -16.9286  -14.5026 C   0  0  0  0  0  0  0  0  0  0  0  0
   21.6159  -17.7232  -14.0420 C   0  0  0  0  0  0  0  0  0  0  0  0
   21.6937  -19.0682  -14.4098 C   0  0  0  0  0  0  0  0  0  0  0  0
   22.8068  -19.9089  -13.9174 C   0  0  0  0  0  0  0  0  0  0  0  0
   22.4923  -20.5984  -12.6307 C   0  0  2  0  0  0  0  0  0  0  0  0
   23.6343  -21.4268  -12.2764 N   0  0  0  0  0  0  0  0  0  0  0  0
   21.2338  -21.3438  -12.5996 C   0  0  0  0  0  0  0  0  0  0  0  0
   21.2095  -22.5289  -13.0152 O   0  0  0  0  0  0  0  0  0  0  0  0
   20.7090  -19.5447  -15.2369 C   0  0  0  0  0  0  0  0  0  0  0  0
   19.6597  -18.7485  -15.7094 C   0  0  0  0  0  0  0  0  0  0  0  0
   20.0309  -20.8338  -12.1354 O   0  0  0  0  0  0  0  0  0  0  0  0
  2  3  1  0
  2  1  1  1
  4  3  1  0
  5  4  2  0
  6  7  2  0
  6  2  1  0
  8  4  1  0
  9  6  1  0
 10  9  1  0
 10 11  1  1
 12 11  1  0
 13 12  2  0
 14 13  1  0
 15 14  1  0
 15 20  2  0
 16 15  1  0
 17 16  2  0
 17 18  1  0
 18 19  2  0
 19 20  1  0
 20 12  1  0
 21 30  1  0
 21 10  1  0
 22 21  2  0
 23 24  1  0
 24 34  2  0
 25 26  2  0
 25 24  1  0
 26 27  1  0
 27 28  1  0
 27 33  2  0
 29 28  1  6
 29 31  1  0
 29 30  1  0
 31 35  1  0
 32 31  2  0
 34 33  1  0
M  END
$$$$
