DWY.pdb
     RDKit          3D

 35 37  0  0  1  0  0  0  0  0999 V2000
   29.5256  -21.0767  -18.6258 N   0  0  0  0  0  0  0  0  0  0  0  0
   28.5182  -21.9328  -18.0829 C   0  0  1  0  0  0  0  0  0  0  0  0
   29.1164  -22.7441  -16.9650 C   0  0  0  0  0  0  0  0  0  0  0  0
   30.0112  -23.7651  -17.5537 C   0  0  0  0  0  0  0  0  0  0  0  0
   30.1542  -23.8711  -18.7933 O   0  0  0  0  0  0  0  0  0  0  0  0
   27.3438  -21.1352  -17.6121 C   0  0  0  0  0  0  0  0  0  0  0  0
   27.4954  -20.3608  -16.6386 O   0  0  0  0  0  0  0  0  0  0  0  0
   30.7053  -24.6213  -16.7197 O   0  0  0  0  0  0  0  0  0  0  0  0
   26.0898  -21.2530  -18.2520 N   0  0  0  0  0  0  0  0  0  0  0  0
   24.8954  -20.6261  -17.8095 C   0  0  1  0  0  0  0  0  0  0  0  0
   23.7812  -20.5142  -18.8382 C   0  0  0  0  0  0  0  0  0  0  0  0
   22.6263  -19.7181  -18.3694 C   0  0  0  0  0  0  0  0  0  0  0  0
   22.5407  -18.4333  -17.9113 C   0  0  0  0  0  0  0  0  0  0  0  0
   21.2554  -18.1680  -17.6123 N   0  0  0  0  0  0  0  0  0  0  0  0
   20.4827  -19.2362  -17.8576 C   0  0  0  0  0  0  0  0  0  0  0  0
   19.1373  -19.5091  -17.7387 C   0  0  0  0  0  0  0  0  0  0  0  0
   18.6062  -20.7472  -18.0856 C   0  0  0  0  0  0  0  0  0  0  0  0
   19.4403  -21.7146  -18.5557 C   0  0  0  0  0  0  0  0  0  0  0  0
   20.8059  -21.4333  -18.6748 C   0  0  0  0  0  0  0  0  0  0  0  0
   21.3175  -20.2185  -18.3323 C   0  0  0  0  0  0  0  0  0  0  0  0
   24.3737  -21.0234  -16.5157 C   0  0  0  0  0  0  0  0  0  0  0  0
   24.2329  -22.2602  -16.2832 O   0  0  0  0  0  0  0  0  0  0  0  0
   22.9002  -21.2363   -7.7940 O   0  0  0  0  0  0  0  0  0  0  0  0
   23.1725  -20.8466   -9.0985 C   0  0  0  0  0  0  0  0  0  0  0  0
   24.4162  -21.0470   -9.6664 C   0  0  0  0  0  0  0  0  0  0  0  0
   24.7035  -20.6656  -10.9622 C   0  0  0  0  0  0  0  0  0  0  0  0
   23.7293  -20.0542  -11.7543 C   0  0  0  0  0  0  0  0  0  0  0  0
   24.0497  -19.6420  -13.1383 C   0  0  0  0  0  0  0  0  0  0  0  0
   23.5831  -20.6237  -14.1623 C   0  0  2  0  0  0  0  0  0  0  0  0
   24.0002  -20.1395  -15.4689 N   0  0  0  0  0  0  0  0  0  0  0  0
   22.1590  -20.9570  -14.1214 C   0  0  0  0  0  0  0  0  0  0  0  0
   21.8073  -22.1171  -13.7928 O   0  0  0  0  0  0  0  0  0  0  0  0
   22.4974  -19.8581  -11.1843 C   0  0  0  0  0  0  0  0  0  0  0  0
   22.1954  -20.2407   -9.8726 C   0  0  0  0  0  0  0  0  0  0  0  0
   21.1367  -20.0707  -14.4247 O   0  0  0  0  0  0  0  0  0  0  0  0
  2  3  1  0
  2  1  1  1
  4  3  1  0
  5  4  2  0
  6  7  2  0
  6  2  1  0
  8  4  1  0
  9  6  1  0
 10  9  1  0
 10 11  1  6
 12 11  1  0
 13 12  2  0
 14 13  1  0
 15 14  1  0
 15 20  2  0
 16 15  1  0
 17 16  2  0
 17 18  1  0
 18 19  2  0
 19 20  1  0
 20 12  1  0
 21 30  1  0
 21 10  1  0
 22 21  2  0
 23 24  1  0
 24 34  2  0
 25 26  2  0
 25 24  1  0
 26 27  1  0
 27 28  1  0
 27 33  2  0
 29 28  1  1
 29 31  1  0
 29 30  1  0
 31 35  1  0
 32 31  2  0
 34 33  1  0
M  END
$$$$
