DWY.pdb
     RDKit          3D

 35 37  0  0  1  0  0  0  0  0999 V2000
   28.9455  -23.2075  -16.7782 N   0  0  0  0  0  0  0  0  0  0  0  0
   28.0543  -22.0903  -16.7789 C   0  0  1  0  0  0  0  0  0  0  0  0
   27.2652  -22.0950  -18.0608 C   0  0  0  0  0  0  0  0  0  0  0  0
   28.1902  -21.8159  -19.1816 C   0  0  0  0  0  0  0  0  0  0  0  0
   28.1641  -22.4945  -20.2339 O   0  0  0  0  0  0  0  0  0  0  0  0
   27.1561  -22.1295  -15.5837 C   0  0  0  0  0  0  0  0  0  0  0  0
   26.7211  -23.2388  -15.1957 O   0  0  0  0  0  0  0  0  0  0  0  0
   29.1035  -20.7849  -19.0671 O   0  0  0  0  0  0  0  0  0  0  0  0
   26.8057  -20.9401  -14.9065 N   0  0  0  0  0  0  0  0  0  0  0  0
   25.9520  -20.8773  -13.7740 C   0  0  1  0  0  0  0  0  0  0  0  0
   26.2873  -19.8085  -12.7455 C   0  0  0  0  0  0  0  0  0  0  0  0
   27.3236  -20.2288  -11.7776 C   0  0  0  0  0  0  0  0  0  0  0  0
   28.6296  -20.5917  -11.9526 C   0  0  0  0  0  0  0  0  0  0  0  0
   29.1597  -20.8833  -10.7502 N   0  0  0  0  0  0  0  0  0  0  0  0
   28.2473  -20.7252   -9.7802 C   0  0  0  0  0  0  0  0  0  0  0  0
   28.2500  -20.8774   -8.4107 C   0  0  0  0  0  0  0  0  0  0  0  0
   27.1173  -20.6281   -7.6425 C   0  0  0  0  0  0  0  0  0  0  0  0
   25.9757  -20.2224   -8.2627 C   0  0  0  0  0  0  0  0  0  0  0  0
   25.9773  -20.0691   -9.6536 C   0  0  0  0  0  0  0  0  0  0  0  0
   27.0907  -20.3159  -10.3981 C   0  0  0  0  0  0  0  0  0  0  0  0
   24.5227  -20.9430  -14.0118 C   0  0  0  0  0  0  0  0  0  0  0  0
   24.0006  -20.0622  -14.7570 O   0  0  0  0  0  0  0  0  0  0  0  0
   15.8970  -23.0292  -13.3052 O   0  0  0  0  0  0  0  0  0  0  0  0
   17.2852  -23.0532  -13.3081 C   0  0  0  0  0  0  0  0  0  0  0  0
   18.0087  -23.0683  -12.1309 C   0  0  0  0  0  0  0  0  0  0  0  0
   19.3894  -23.0924  -12.1161 C   0  0  0  0  0  0  0  0  0  0  0  0
   20.1116  -23.1023  -13.3113 C   0  0  0  0  0  0  0  0  0  0  0  0
   21.5905  -23.1198  -13.2845 C   0  0  0  0  0  0  0  0  0  0  0  0
   22.1951  -21.7837  -13.5661 C   0  0  2  0  0  0  0  0  0  0  0  0
   23.6406  -21.9193  -13.4777 N   0  0  0  0  0  0  0  0  0  0  0  0
   21.6903  -20.6740  -12.7573 C   0  0  0  0  0  0  0  0  0  0  0  0
   20.6987  -20.0179  -13.1625 O   0  0  0  0  0  0  0  0  0  0  0  0
   19.3872  -23.0868  -14.4758 C   0  0  0  0  0  0  0  0  0  0  0  0
   17.9884  -23.0626  -14.5024 C   0  0  0  0  0  0  0  0  0  0  0  0
   22.2329  -20.2762  -11.5450 O   0  0  0  0  0  0  0  0  0  0  0  0
  2  3  1  0
  2  1  1  6
  4  3  1  0
  5  4  2  0
  6  7  2  0
  6  2  1  0
  8  4  1  0
  9  6  1  0
 10  9  1  0
 10 11  1  6
 12 11  1  0
 13 12  2  0
 14 13  1  0
 15 14  1  0
 15 20  2  0
 16 15  1  0
 17 16  2  0
 17 18  1  0
 18 19  2  0
 19 20  1  0
 20 12  1  0
 21 30  1  0
 21 10  1  0
 22 21  2  0
 23 24  1  0
 24 34  2  0
 25 26  2  0
 25 24  1  0
 26 27  1  0
 27 28  1  0
 27 33  2  0
 29 28  1  1
 29 31  1  0
 29 30  1  0
 31 35  1  0
 32 31  2  0
 34 33  1  0
M  END
$$$$
