DWY.pdb
     RDKit          3D

 35 37  0  0  1  0  0  0  0  0999 V2000
   23.6885   -7.7561  -20.7904 N   0  0  0  0  0  0  0  0  0  0  0  0
   22.7724   -6.7752  -20.2993 C   0  0  1  0  0  0  0  0  0  0  0  0
   21.7079   -6.5375  -21.3367 C   0  0  0  0  0  0  0  0  0  0  0  0
   22.3264   -5.8560  -22.4954 C   0  0  0  0  0  0  0  0  0  0  0  0
   23.4946   -5.4080  -22.4418 O   0  0  0  0  0  0  0  0  0  0  0  0
   22.1795   -7.2104  -18.9970 C   0  0  0  0  0  0  0  0  0  0  0  0
   21.7257   -8.3747  -18.9031 O   0  0  0  0  0  0  0  0  0  0  0  0
   21.6013   -5.7095  -23.6629 O   0  0  0  0  0  0  0  0  0  0  0  0
   22.1323   -6.3266  -17.8958 N   0  0  0  0  0  0  0  0  0  0  0  0
   21.4740   -6.6005  -16.6682 C   0  0  1  0  0  0  0  0  0  0  0  0
   22.2606   -6.2855  -15.4056 C   0  0  0  0  0  0  0  0  0  0  0  0
   21.6761   -6.8817  -14.1849 C   0  0  0  0  0  0  0  0  0  0  0  0
   20.8684   -6.3518  -13.2181 C   0  0  0  0  0  0  0  0  0  0  0  0
   20.6004   -7.3083  -12.3097 N   0  0  0  0  0  0  0  0  0  0  0  0
   21.2042   -8.4586  -12.6423 C   0  0  0  0  0  0  0  0  0  0  0  0
   21.2648   -9.7188  -12.0881 C   0  0  0  0  0  0  0  0  0  0  0  0
   21.9915  -10.7466  -12.6803 C   0  0  0  0  0  0  0  0  0  0  0  0
   22.6607  -10.4987  -13.8393 C   0  0  0  0  0  0  0  0  0  0  0  0
   22.5966   -9.2175  -14.3986 C   0  0  0  0  0  0  0  0  0  0  0  0
   21.8829   -8.2169  -13.8118 C   0  0  0  0  0  0  0  0  0  0  0  0
   20.0929   -6.1751  -16.5428 C   0  0  0  0  0  0  0  0  0  0  0  0
   19.8289   -4.9481  -16.7105 O   0  0  0  0  0  0  0  0  0  0  0  0
   11.2404   -5.9672  -16.4337 O   0  0  0  0  0  0  0  0  0  0  0  0
   12.5689   -6.3702  -16.4137 C   0  0  0  0  0  0  0  0  0  0  0  0
   13.3556   -6.3177  -17.5485 C   0  0  0  0  0  0  0  0  0  0  0  0
   14.6783   -6.7144  -17.5459 C   0  0  0  0  0  0  0  0  0  0  0  0
   15.2740   -7.1899  -16.3758 C   0  0  0  0  0  0  0  0  0  0  0  0
   16.6893   -7.6201  -16.3855 C   0  0  0  0  0  0  0  0  0  0  0  0
   17.6400   -6.5049  -16.0983 C   0  0  2  0  0  0  0  0  0  0  0  0
   18.9921   -7.0211  -16.2446 N   0  0  0  0  0  0  0  0  0  0  0  0
   17.4435   -5.8139  -14.8238 C   0  0  0  0  0  0  0  0  0  0  0  0
   17.0191   -4.6317  -14.8233 O   0  0  0  0  0  0  0  0  0  0  0  0
   14.4874   -7.2396  -15.2533 C   0  0  0  0  0  0  0  0  0  0  0  0
   13.1464   -6.8401  -15.2447 C   0  0  0  0  0  0  0  0  0  0  0  0
   17.6948   -6.3741  -13.5806 O   0  0  0  0  0  0  0  0  0  0  0  0
  2  3  1  0
  2  1  1  6
  4  3  1  0
  5  4  2  0
  6  7  2  0
  6  2  1  0
  8  4  1  0
  9  6  1  0
 10  9  1  0
 10 11  1  1
 12 11  1  0
 13 12  2  0
 14 13  1  0
 15 14  1  0
 15 20  2  0
 16 15  1  0
 17 16  2  0
 17 18  1  0
 18 19  2  0
 19 20  1  0
 20 12  1  0
 21 30  1  0
 21 10  1  0
 22 21  2  0
 23 24  1  0
 24 34  2  0
 25 26  2  0
 25 24  1  0
 26 27  1  0
 27 28  1  0
 27 33  2  0
 29 28  1  1
 29 31  1  0
 29 30  1  0
 31 35  1  0
 32 31  2  0
 34 33  1  0
M  END
$$$$
