DWY.pdb
     RDKit          3D

 35 37  0  0  1  0  0  0  0  0999 V2000
   27.6950  -22.8178  -17.1569 N   0  0  0  0  0  0  0  0  0  0  0  0
   27.8309  -21.6201  -16.3890 C   0  0  1  0  0  0  0  0  0  0  0  0
   27.4877  -20.4402  -17.2585 C   0  0  0  0  0  0  0  0  0  0  0  0
   28.5540  -20.2785  -18.2716 C   0  0  0  0  0  0  0  0  0  0  0  0
   28.3557  -19.6428  -19.3322 O   0  0  0  0  0  0  0  0  0  0  0  0
   26.9651  -21.6718  -15.1706 C   0  0  0  0  0  0  0  0  0  0  0  0
   25.7394  -21.8901  -15.3139 O   0  0  0  0  0  0  0  0  0  0  0  0
   29.7964  -20.8402  -18.0448 O   0  0  0  0  0  0  0  0  0  0  0  0
   27.5182  -21.4786  -13.8850 N   0  0  0  0  0  0  0  0  0  0  0  0
   26.7645  -21.4073  -12.6841 C   0  0  1  0  0  0  0  0  0  0  0  0
   27.5652  -21.2166  -11.4055 C   0  0  0  0  0  0  0  0  0  0  0  0
   26.7320  -20.8524  -10.2391 C   0  0  0  0  0  0  0  0  0  0  0  0
   25.3771  -20.8588  -10.0592 C   0  0  0  0  0  0  0  0  0  0  0  0
   25.1076  -20.4442   -8.8072 N   0  0  0  0  0  0  0  0  0  0  0  0
   26.2411  -20.1627   -8.1481 C   0  0  0  0  0  0  0  0  0  0  0  0
   26.5411  -19.7175   -6.8790 C   0  0  0  0  0  0  0  0  0  0  0  0
   27.8532  -19.5143   -6.4638 C   0  0  0  0  0  0  0  0  0  0  0  0
   28.8674  -19.7628   -7.3367 C   0  0  0  0  0  0  0  0  0  0  0  0
   28.5583  -20.2148   -8.6245 C   0  0  0  0  0  0  0  0  0  0  0  0
   27.2708  -20.4106   -9.0228 C   0  0  0  0  0  0  0  0  0  0  0  0
   25.5805  -20.5695  -12.6887 C   0  0  0  0  0  0  0  0  0  0  0  0
   25.7319  -19.3232  -12.8540 O   0  0  0  0  0  0  0  0  0  0  0  0
   18.6240  -16.7882  -15.9478 O   0  0  0  0  0  0  0  0  0  0  0  0
   19.7237  -17.5263  -15.5309 C   0  0  0  0  0  0  0  0  0  0  0  0
   20.9161  -16.9154  -15.1928 C   0  0  0  0  0  0  0  0  0  0  0  0
   22.0191  -17.6345  -14.7763 C   0  0  0  0  0  0  0  0  0  0  0  0
   21.9639  -19.0267  -14.6818 C   0  0  0  0  0  0  0  0  0  0  0  0
   23.1534  -19.7883  -14.2423 C   0  0  0  0  0  0  0  0  0  0  0  0
   23.0997  -20.1737  -12.8006 C   0  0  2  0  0  0  0  0  0  0  0  0
   24.2458  -21.0250  -12.5222 N   0  0  0  0  0  0  0  0  0  0  0  0
   21.8421  -20.7686  -12.3477 C   0  0  0  0  0  0  0  0  0  0  0  0
   21.6832  -22.0117  -12.4324 O   0  0  0  0  0  0  0  0  0  0  0  0
   20.7775  -19.6265  -15.0191 C   0  0  0  0  0  0  0  0  0  0  0  0
   19.6539  -18.9076  -15.4421 C   0  0  0  0  0  0  0  0  0  0  0  0
   20.7808  -20.0511  -11.8173 O   0  0  0  0  0  0  0  0  0  0  0  0
  2  3  1  0
  2  1  1  6
  4  3  1  0
  5  4  2  0
  6  7  2  0
  6  2  1  0
  8  4  1  0
  9  6  1  0
 10  9  1  0
 10 11  1  1
 12 11  1  0
 13 12  2  0
 14 13  1  0
 15 14  1  0
 15 20  2  0
 16 15  1  0
 17 16  2  0
 17 18  1  0
 18 19  2  0
 19 20  1  0
 20 12  1  0
 21 30  1  0
 21 10  1  0
 22 21  2  0
 23 24  1  0
 24 34  2  0
 25 26  2  0
 25 24  1  0
 26 27  1  0
 27 28  1  0
 27 33  2  0
 29 28  1  6
 29 31  1  0
 29 30  1  0
 31 35  1  0
 32 31  2  0
 34 33  1  0
M  END
$$$$
