DWY.pdb
     RDKit          3D

 35 37  0  0  1  0  0  0  0  0999 V2000
   29.1594  -23.1235  -16.1524 N   0  0  0  0  0  0  0  0  0  0  0  0
   28.6893  -21.8210  -15.7990 C   0  0  1  0  0  0  0  0  0  0  0  0
   28.0228  -21.1999  -16.9973 C   0  0  0  0  0  0  0  0  0  0  0  0
   27.5867  -19.8330  -16.6352 C   0  0  0  0  0  0  0  0  0  0  0  0
   28.3732  -19.0165  -16.1032 O   0  0  0  0  0  0  0  0  0  0  0  0
   27.7575  -21.8938  -14.6314 C   0  0  0  0  0  0  0  0  0  0  0  0
   26.6755  -22.5120  -14.7644 O   0  0  0  0  0  0  0  0  0  0  0  0
   26.2840  -19.4469  -16.8884 O   0  0  0  0  0  0  0  0  0  0  0  0
   28.0907  -21.2782  -13.4043 N   0  0  0  0  0  0  0  0  0  0  0  0
   27.3037  -21.3500  -12.2249 C   0  0  1  0  0  0  0  0  0  0  0  0
   28.0432  -21.1227  -10.9158 C   0  0  0  0  0  0  0  0  0  0  0  0
   27.1478  -20.8028   -9.7830 C   0  0  0  0  0  0  0  0  0  0  0  0
   25.7853  -20.7349   -9.6993 C   0  0  0  0  0  0  0  0  0  0  0  0
   25.4476  -20.4091   -8.4377 N   0  0  0  0  0  0  0  0  0  0  0  0
   26.5430  -20.2587   -7.6789 C   0  0  0  0  0  0  0  0  0  0  0  0
   26.7728  -19.9413   -6.3578 C   0  0  0  0  0  0  0  0  0  0  0  0
   28.0597  -19.8602   -5.8358 C   0  0  0  0  0  0  0  0  0  0  0  0
   29.1201  -20.1015   -6.6542 C   0  0  0  0  0  0  0  0  0  0  0  0
   28.8823  -20.4234   -7.9951 C   0  0  0  0  0  0  0  0  0  0  0  0
   27.6190  -20.5002   -8.4980 C   0  0  0  0  0  0  0  0  0  0  0  0
   26.0284  -20.6591  -12.2312 C   0  0  0  0  0  0  0  0  0  0  0  0
   26.0299  -19.4052  -12.4079 O   0  0  0  0  0  0  0  0  0  0  0  0
   18.7640  -18.4404  -16.2099 O   0  0  0  0  0  0  0  0  0  0  0  0
   19.9215  -18.9871  -15.6723 C   0  0  0  0  0  0  0  0  0  0  0  0
   20.0029  -20.3279  -15.3484 C   0  0  0  0  0  0  0  0  0  0  0  0
   21.1463  -20.8876  -14.8132 C   0  0  0  0  0  0  0  0  0  0  0  0
   22.2771  -20.1026  -14.5780 C   0  0  0  0  0  0  0  0  0  0  0  0
   23.4942  -20.7101  -13.9968 C   0  0  0  0  0  0  0  0  0  0  0  0
   23.5289  -20.6350  -12.5058 C   0  0  2  0  0  0  0  0  0  0  0  0
   24.7580  -21.2686  -12.0545 N   0  0  0  0  0  0  0  0  0  0  0  0
   22.3489  -21.1556  -11.8151 C   0  0  0  0  0  0  0  0  0  0  0  0
   22.2455  -22.3920  -11.6193 O   0  0  0  0  0  0  0  0  0  0  0  0
   22.1894  -18.7727  -14.9015 C   0  0  0  0  0  0  0  0  0  0  0  0
   21.0360  -18.1954  -15.4443 C   0  0  0  0  0  0  0  0  0  0  0  0
   21.3054  -20.3726  -11.3455 O   0  0  0  0  0  0  0  0  0  0  0  0
  2  3  1  0
  2  1  1  6
  4  3  1  0
  5  4  2  0
  6  7  2  0
  6  2  1  0
  8  4  1  0
  9  6  1  0
 10  9  1  0
 10 11  1  1
 12 11  1  0
 13 12  2  0
 14 13  1  0
 15 14  1  0
 15 20  2  0
 16 15  1  0
 17 16  2  0
 17 18  1  0
 18 19  2  0
 19 20  1  0
 20 12  1  0
 21 30  1  0
 21 10  1  0
 22 21  2  0
 23 24  1  0
 24 34  2  0
 25 26  2  0
 25 24  1  0
 26 27  1  0
 27 28  1  0
 27 33  2  0
 29 28  1  6
 29 31  1  0
 29 30  1  0
 31 35  1  0
 32 31  2  0
 34 33  1  0
M  END
$$$$
