DWY.pdb
     RDKit          3D

 35 37  0  0  1  0  0  0  0  0999 V2000
   28.6312  -23.3094  -16.5696 N   0  0  0  0  0  0  0  0  0  0  0  0
   28.7756  -22.0791  -17.2824 C   0  0  1  0  0  0  0  0  0  0  0  0
   28.3492  -22.2885  -18.7107 C   0  0  0  0  0  0  0  0  0  0  0  0
   29.3083  -23.2125  -19.3556 C   0  0  0  0  0  0  0  0  0  0  0  0
   30.2847  -23.6825  -18.7277 O   0  0  0  0  0  0  0  0  0  0  0  0
   27.9823  -20.9928  -16.6284 C   0  0  0  0  0  0  0  0  0  0  0  0
   27.1227  -21.3088  -15.7731 O   0  0  0  0  0  0  0  0  0  0  0  0
   29.1249  -23.5660  -20.6791 O   0  0  0  0  0  0  0  0  0  0  0  0
   28.1982  -19.6386  -16.9684 N   0  0  0  0  0  0  0  0  0  0  0  0
   27.4007  -18.5553  -16.5149 C   0  0  1  0  0  0  0  0  0  0  0  0
   27.9770  -17.1656  -16.7361 C   0  0  0  0  0  0  0  0  0  0  0  0
   27.1010  -16.0808  -16.2430 C   0  0  0  0  0  0  0  0  0  0  0  0
   26.6723  -15.7674  -14.9836 C   0  0  0  0  0  0  0  0  0  0  0  0
   25.8891  -14.6750  -15.0553 N   0  0  0  0  0  0  0  0  0  0  0  0
   25.7838  -14.2512  -16.3232 C   0  0  0  0  0  0  0  0  0  0  0  0
   25.1310  -13.2108  -16.9480 C   0  0  0  0  0  0  0  0  0  0  0  0
   25.2120  -13.0136  -18.3227 C   0  0  0  0  0  0  0  0  0  0  0  0
   25.9574  -13.8732  -19.0697 C   0  0  0  0  0  0  0  0  0  0  0  0
   26.6186  -14.9284  -18.4313 C   0  0  0  0  0  0  0  0  0  0  0  0
   26.5334  -15.1143  -17.0848 C   0  0  0  0  0  0  0  0  0  0  0  0
   25.9858  -18.5904  -16.8319 C   0  0  0  0  0  0  0  0  0  0  0  0
   25.6413  -18.9997  -17.9796 O   0  0  0  0  0  0  0  0  0  0  0  0
   17.2783  -19.8416  -16.0567 O   0  0  0  0  0  0  0  0  0  0  0  0
   18.6229  -19.5846  -15.8245 C   0  0  0  0  0  0  0  0  0  0  0  0
   19.5688  -20.5906  -15.8758 C   0  0  0  0  0  0  0  0  0  0  0  0
   20.9097  -20.3521  -15.6477 C   0  0  0  0  0  0  0  0  0  0  0  0
   21.3609  -19.0639  -15.3526 C   0  0  0  0  0  0  0  0  0  0  0  0
   22.7983  -18.8204  -15.1018 C   0  0  0  0  0  0  0  0  0  0  0  0
   23.5342  -18.3661  -16.3191 C   0  0  2  0  0  0  0  0  0  0  0  0
   24.9342  -18.2019  -15.9602 N   0  0  0  0  0  0  0  0  0  0  0  0
   22.9893  -17.1842  -16.9876 C   0  0  0  0  0  0  0  0  0  0  0  0
   23.1762  -16.0497  -16.4818 O   0  0  0  0  0  0  0  0  0  0  0  0
   20.4168  -18.0703  -15.3030 C   0  0  0  0  0  0  0  0  0  0  0  0
   19.0558  -18.3008  -15.5326 C   0  0  0  0  0  0  0  0  0  0  0  0
   22.2626  -17.2154  -18.1680 O   0  0  0  0  0  0  0  0  0  0  0  0
  2  3  1  0
  2  1  1  1
  4  3  1  0
  5  4  2  0
  6  7  2  0
  6  2  1  0
  8  4  1  0
  9  6  1  0
 10  9  1  0
 10 11  1  6
 12 11  1  0
 13 12  2  0
 14 13  1  0
 15 14  1  0
 15 20  2  0
 16 15  1  0
 17 16  2  0
 17 18  1  0
 18 19  2  0
 19 20  1  0
 20 12  1  0
 21 30  1  0
 21 10  1  0
 22 21  2  0
 23 24  1  0
 24 34  2  0
 25 26  2  0
 25 24  1  0
 26 27  1  0
 27 28  1  0
 27 33  2  0
 29 28  1  1
 29 31  1  0
 29 30  1  0
 31 35  1  0
 32 31  2  0
 34 33  1  0
M  END
$$$$
