ADR.pdb
     RDKit          3D

 25 24  0  0  1  0  0  0  0  0999 V2000
   12.7116  -20.2199   16.0302 C   0  0  0  0  0  0  0  0  0  0  0  0
   12.7550  -18.9113   16.8315 C   0  0  2  0  0  0  0  0  0  0  0  0
   13.9476  -18.1906   16.4289 N   0  0  0  0  0  0  0  0  0  0  0  0
   12.7406  -19.1883   18.2855 C   0  0  0  0  0  0  0  0  0  0  0  0
   11.7157  -19.6866   18.8080 O   0  0  0  0  0  0  0  0  0  0  0  0
   13.8496  -18.9154   19.1475 N   0  0  0  0  0  0  0  0  0  0  0  0
   13.7416  -19.0319   20.5886 C   0  0  1  0  0  0  0  0  0  0  0  0
   15.0987  -19.2723   21.1512 C   0  0  0  0  0  0  0  0  0  0  0  0
   15.5889  -20.6532   20.9435 C   0  0  0  0  0  0  0  0  0  0  0  0
   14.8945  -21.6500   21.1894 O   0  0  0  0  0  0  0  0  0  0  0  0
   13.0794  -17.8323   21.1138 C   0  0  0  0  0  0  0  0  0  0  0  0
   13.0911  -16.7648   20.4128 O   0  0  0  0  0  0  0  0  0  0  0  0
   16.8798  -20.8608   20.4529 O   0  0  0  0  0  0  0  0  0  0  0  0
    8.0032  -13.4952   18.4851 N   0  0  0  0  0  0  0  0  0  0  0  0
    8.0642  -12.9608   19.8070 C   0  0  0  0  0  0  0  0  0  0  0  0
    7.8911  -11.6959   19.9448 N   0  0  0  0  0  0  0  0  0  0  0  0
    8.3065  -13.8297   20.9010 N   0  0  0  0  0  0  0  0  0  0  0  0
    9.2144  -14.9181   20.7709 C   0  0  0  0  0  0  0  0  0  0  0  0
    9.3548  -15.7578   22.0366 C   0  0  0  0  0  0  0  0  0  0  0  0
   10.3992  -16.7825   21.7479 C   0  0  0  0  0  0  0  0  0  0  0  0
   11.5020  -16.8172   22.7491 C   0  0  2  0  0  0  0  0  0  0  0  0
   12.4518  -17.8923   22.3725 N   0  0  0  0  0  0  0  0  0  0  0  0
   11.0040  -17.1493   24.1037 C   0  0  0  0  0  0  0  0  0  0  0  0
   10.2487  -16.3537   24.6958 O   0  0  0  0  0  0  0  0  0  0  0  0
   11.3360  -18.3197   24.7667 O   0  0  0  0  0  0  0  0  0  0  0  0
  2  1  1  6
  3  2  1  0
  4  2  1  0
  4  5  2  0
  6  4  1  0
  7  6  1  0
  7 11  1  0
  7  8  1  1
  9  8  1  0
 10  9  2  0
 11 12  2  0
 13  9  1  0
 15 14  1  0
 16 15  2  0
 17 15  1  0
 18 17  1  0
 19 18  1  0
 20 19  1  0
 21 20  1  6
 22 11  1  0
 22 21  1  0
 23 25  1  0
 23 21  1  0
 24 23  2  0
M  END
$$$$
