ADR.pdb
     RDKit          3D

 25 24  0  0  1  0  0  0  0  0999 V2000
    8.9147  -19.1133   17.5937 C   0  0  0  0  0  0  0  0  0  0  0  0
    9.5628  -17.8275   18.1260 C   0  0  2  0  0  0  0  0  0  0  0  0
   10.6619  -17.4922   17.2409 N   0  0  0  0  0  0  0  0  0  0  0  0
   10.0144  -18.0102   19.5238 C   0  0  0  0  0  0  0  0  0  0  0  0
    9.1664  -18.2195   20.4232 O   0  0  0  0  0  0  0  0  0  0  0  0
   11.3892  -17.9609   19.9173 N   0  0  0  0  0  0  0  0  0  0  0  0
   11.7927  -18.1265   21.2999 C   0  0  1  0  0  0  0  0  0  0  0  0
   13.2571  -18.3910   21.3415 C   0  0  0  0  0  0  0  0  0  0  0  0
   13.7680  -18.6774   22.7007 C   0  0  0  0  0  0  0  0  0  0  0  0
   13.0473  -19.1328   23.6004 O   0  0  0  0  0  0  0  0  0  0  0  0
   11.3760  -16.9433   22.0613 C   0  0  0  0  0  0  0  0  0  0  0  0
   11.9334  -15.8216   21.8114 O   0  0  0  0  0  0  0  0  0  0  0  0
   15.1097  -18.4314   22.9996 O   0  0  0  0  0  0  0  0  0  0  0  0
    7.0349  -14.1090   18.3177 N   0  0  0  0  0  0  0  0  0  0  0  0
    8.0222  -13.2483   18.8847 C   0  0  0  0  0  0  0  0  0  0  0  0
    8.9593  -12.8300   18.1128 N   0  0  0  0  0  0  0  0  0  0  0  0
    7.9333  -12.8904   20.2537 N   0  0  0  0  0  0  0  0  0  0  0  0
    7.7639  -13.8909   21.2519 C   0  0  0  0  0  0  0  0  0  0  0  0
    9.0423  -14.2222   22.0153 C   0  0  0  0  0  0  0  0  0  0  0  0
    8.7015  -15.3403   22.9413 C   0  0  0  0  0  0  0  0  0  0  0  0
    9.8651  -15.8582   23.7143 C   0  0  2  0  0  0  0  0  0  0  0  0
   10.3763  -17.0781   23.0432 N   0  0  0  0  0  0  0  0  0  0  0  0
    9.4780  -16.2616   25.0857 C   0  0  0  0  0  0  0  0  0  0  0  0
    8.9204  -15.4378   25.8371 O   0  0  0  0  0  0  0  0  0  0  0  0
    9.7043  -17.5305   25.5940 O   0  0  0  0  0  0  0  0  0  0  0  0
  2  1  1  6
  3  2  1  0
  4  2  1  0
  4  5  2  0
  6  4  1  0
  7  6  1  0
  7 11  1  0
  7  8  1  6
  9  8  1  0
 10  9  2  0
 11 12  2  0
 13  9  1  0
 15 14  1  0
 16 15  2  0
 17 15  1  0
 18 17  1  0
 19 18  1  0
 20 19  1  0
 21 20  1  6
 22 11  1  0
 22 21  1  0
 23 25  1  0
 23 21  1  0
 24 23  2  0
M  END
$$$$
