ADR.pdb
     RDKit          3D

 25 24  0  0  1  0  0  0  0  0999 V2000
   10.3668  -21.2519   17.0685 C   0  0  0  0  0  0  0  0  0  0  0  0
   10.6248  -19.8221   17.5643 C   0  0  2  0  0  0  0  0  0  0  0  0
   11.8868  -19.3838   16.9995 N   0  0  0  0  0  0  0  0  0  0  0  0
   10.6352  -19.7761   19.0437 C   0  0  0  0  0  0  0  0  0  0  0  0
    9.5488  -19.7118   19.6662 O   0  0  0  0  0  0  0  0  0  0  0  0
   11.8361  -19.8012   19.8213 N   0  0  0  0  0  0  0  0  0  0  0  0
   11.8058  -19.7968   21.2708 C   0  0  1  0  0  0  0  0  0  0  0  0
   13.0816  -20.3736   21.7767 C   0  0  0  0  0  0  0  0  0  0  0  0
   13.0659  -21.8504   21.8728 C   0  0  0  0  0  0  0  0  0  0  0  0
   12.0135  -22.5019   21.9382 O   0  0  0  0  0  0  0  0  0  0  0  0
   11.5400  -18.4307   21.7362 C   0  0  0  0  0  0  0  0  0  0  0  0
   12.2499  -17.4737   21.2764 O   0  0  0  0  0  0  0  0  0  0  0  0
   14.2722  -22.5535   21.8922 O   0  0  0  0  0  0  0  0  0  0  0  0
    8.1429  -13.0068   19.0965 N   0  0  0  0  0  0  0  0  0  0  0  0
    7.7686  -12.4109   20.3381 C   0  0  0  0  0  0  0  0  0  0  0  0
    7.4191  -11.1754   20.3223 N   0  0  0  0  0  0  0  0  0  0  0  0
    7.7930  -13.1904   21.5222 N   0  0  0  0  0  0  0  0  0  0  0  0
    8.2013  -14.5533   21.4809 C   0  0  0  0  0  0  0  0  0  0  0  0
    8.1920  -15.2407   22.8426 C   0  0  0  0  0  0  0  0  0  0  0  0
    8.6929  -16.6272   22.6173 C   0  0  0  0  0  0  0  0  0  0  0  0
   10.1207  -16.8209   22.9960 C   0  0  2  0  0  0  0  0  0  0  0  0
   10.5127  -18.2147   22.6741 N   0  0  0  0  0  0  0  0  0  0  0  0
   10.3313  -16.6486   24.4517 C   0  0  0  0  0  0  0  0  0  0  0  0
   10.2546  -17.6369   25.2077 O   0  0  0  0  0  0  0  0  0  0  0  0
   10.6152  -15.4249   25.0361 O   0  0  0  0  0  0  0  0  0  0  0  0
  2  1  1  1
  3  2  1  0
  4  2  1  0
  4  5  2  0
  6  4  1  0
  7  6  1  0
  7 11  1  0
  7  8  1  1
  9  8  1  0
 10  9  2  0
 11 12  2  0
 13  9  1  0
 15 14  1  0
 16 15  2  0
 17 15  1  0
 18 17  1  0
 19 18  1  0
 20 19  1  0
 21 20  1  1
 22 11  1  0
 22 21  1  0
 23 25  1  0
 23 21  1  0
 24 23  2  0
M  END
$$$$
