ADR.pdb
     RDKit          3D

 25 24  0  0  1  0  0  0  0  0999 V2000
    7.6807  -19.6902   18.4830 C   0  0  0  0  0  0  0  0  0  0  0  0
    8.2880  -18.4594   17.7955 C   0  0  2  0  0  0  0  0  0  0  0  0
    9.2845  -18.9313   16.8531 N   0  0  0  0  0  0  0  0  0  0  0  0
    8.8671  -17.5347   18.7958 C   0  0  0  0  0  0  0  0  0  0  0  0
   10.0318  -17.7320   19.2161 O   0  0  0  0  0  0  0  0  0  0  0  0
    8.1622  -16.4063   19.3224 N   0  0  0  0  0  0  0  0  0  0  0  0
    8.7925  -15.4712   20.2335 C   0  0  1  0  0  0  0  0  0  0  0  0
    7.9257  -14.2672   20.3572 C   0  0  0  0  0  0  0  0  0  0  0  0
    7.7868  -13.5064   19.0953 C   0  0  0  0  0  0  0  0  0  0  0  0
    8.6456  -13.5362   18.2022 O   0  0  0  0  0  0  0  0  0  0  0  0
    9.0563  -16.1525   21.5061 C   0  0  0  0  0  0  0  0  0  0  0  0
    8.0722  -16.6308   22.1649 O   0  0  0  0  0  0  0  0  0  0  0  0
    6.6524  -12.7196   18.8852 O   0  0  0  0  0  0  0  0  0  0  0  0
   15.7386  -20.5728   21.1462 N   0  0  0  0  0  0  0  0  0  0  0  0
   14.5702  -20.9987   20.4459 C   0  0  0  0  0  0  0  0  0  0  0  0
   14.7079  -21.9292   19.5718 N   0  0  0  0  0  0  0  0  0  0  0  0
   13.3219  -20.3926   20.7370 N   0  0  0  0  0  0  0  0  0  0  0  0
   13.2140  -19.4246   21.7748 C   0  0  0  0  0  0  0  0  0  0  0  0
   11.8190  -18.8237   21.9143 C   0  0  0  0  0  0  0  0  0  0  0  0
   11.9020  -17.8177   23.0120 C   0  0  0  0  0  0  0  0  0  0  0  0
   10.6524  -17.0291   23.2023 C   0  0  2  0  0  0  0  0  0  0  0  0
   10.3834  -16.2591   21.9635 N   0  0  0  0  0  0  0  0  0  0  0  0
   10.7891  -16.0380   24.2942 C   0  0  0  0  0  0  0  0  0  0  0  0
   10.3305  -16.2973   25.4240 O   0  0  0  0  0  0  0  0  0  0  0  0
   11.4114  -14.8111   24.1296 O   0  0  0  0  0  0  0  0  0  0  0  0
  2  1  1  1
  3  2  1  0
  4  2  1  0
  4  5  2  0
  6  4  1  0
  7  6  1  0
  7 11  1  0
  7  8  1  1
  9  8  1  0
 10  9  2  0
 11 12  2  0
 13  9  1  0
 15 14  1  0
 16 15  2  0
 17 15  1  0
 18 17  1  0
 19 18  1  0
 20 19  1  0
 21 20  1  6
 22 11  1  0
 22 21  1  0
 23 25  1  0
 23 21  1  0
 24 23  2  0
M  END
$$$$
