ADR.pdb
     RDKit          3D

 25 24  0  0  1  0  0  0  0  0999 V2000
    7.2168  -13.0104   19.9714 C   0  0  0  0  0  0  0  0  0  0  0  0
    8.0343  -14.1387   19.3273 C   0  0  2  0  0  0  0  0  0  0  0  0
    7.1288  -14.9247   18.5112 N   0  0  0  0  0  0  0  0  0  0  0  0
    8.6986  -14.9601   20.3642 C   0  0  0  0  0  0  0  0  0  0  0  0
    8.0912  -15.9399   20.8570 O   0  0  0  0  0  0  0  0  0  0  0  0
   10.0195  -14.6967   20.8472 N   0  0  0  0  0  0  0  0  0  0  0  0
   10.6554  -15.5503   21.8314 C   0  0  1  0  0  0  0  0  0  0  0  0
   12.1130  -15.2485   21.8547 C   0  0  0  0  0  0  0  0  0  0  0  0
   12.9029  -16.2079   22.6584 C   0  0  0  0  0  0  0  0  0  0  0  0
   14.0986  -16.0241   22.9282 O   0  0  0  0  0  0  0  0  0  0  0  0
    9.9851  -15.3665   23.1238 C   0  0  0  0  0  0  0  0  0  0  0  0
    9.0511  -14.5002   23.2160 O   0  0  0  0  0  0  0  0  0  0  0  0
   12.2955  -17.3698   23.1391 O   0  0  0  0  0  0  0  0  0  0  0  0
    7.1237  -22.2776   25.2250 N   0  0  0  0  0  0  0  0  0  0  0  0
    6.2498  -21.5290   26.0693 C   0  0  0  0  0  0  0  0  0  0  0  0
    5.2893  -22.1619   26.6402 N   0  0  0  0  0  0  0  0  0  0  0  0
    6.4707  -20.1397   26.2465 N   0  0  0  0  0  0  0  0  0  0  0  0
    7.3836  -19.4411   25.4072 C   0  0  0  0  0  0  0  0  0  0  0  0
    7.3599  -17.9277   25.5963 C   0  0  0  0  0  0  0  0  0  0  0  0
    8.3436  -17.3670   24.6258 C   0  0  0  0  0  0  0  0  0  0  0  0
    9.3852  -16.5061   25.2532 C   0  0  2  0  0  0  0  0  0  0  0  0
   10.3898  -16.1481   24.2223 N   0  0  0  0  0  0  0  0  0  0  0  0
   10.1161  -17.2205   26.3249 C   0  0  0  0  0  0  0  0  0  0  0  0
    9.6343  -17.2695   27.4736 O   0  0  0  0  0  0  0  0  0  0  0  0
   11.3321  -17.8525   26.1206 O   0  0  0  0  0  0  0  0  0  0  0  0
  2  1  1  1
  3  2  1  0
  4  2  1  0
  4  5  2  0
  6  4  1  0
  7  6  1  0
  7 11  1  0
  7  8  1  1
  9  8  1  0
 10  9  2  0
 11 12  2  0
 13  9  1  0
 15 14  1  0
 16 15  2  0
 17 15  1  0
 18 17  1  0
 19 18  1  0
 20 19  1  0
 21 20  1  6
 22 11  1  0
 22 21  1  0
 23 25  1  0
 23 21  1  0
 24 23  2  0
M  END
$$$$
