ADR.pdb
     RDKit          3D

 25 24  0  0  1  0  0  0  0  0999 V2000
   -1.0297  -24.3259   26.0033 C   0  0  0  0  0  0  0  0  0  0  0  0
   -1.1897  -25.5785   26.8762 C   0  0  2  0  0  0  0  0  0  0  0  0
   -1.6004  -26.6666   26.0096 N   0  0  0  0  0  0  0  0  0  0  0  0
   -2.1666  -25.3373   27.9618 C   0  0  0  0  0  0  0  0  0  0  0  0
   -1.8139  -24.6899   28.9759 O   0  0  0  0  0  0  0  0  0  0  0  0
   -3.5170  -25.8088   27.9217 N   0  0  0  0  0  0  0  0  0  0  0  0
   -4.4294  -25.6030   29.0294 C   0  0  1  0  0  0  0  0  0  0  0  0
   -5.8241  -25.7721   28.5369 C   0  0  0  0  0  0  0  0  0  0  0  0
   -6.8519  -25.5008   29.5666 C   0  0  0  0  0  0  0  0  0  0  0  0
   -6.5623  -25.1565   30.7216 O   0  0  0  0  0  0  0  0  0  0  0  0
   -4.0650  -26.5140   30.1205 C   0  0  0  0  0  0  0  0  0  0  0  0
   -3.8183  -27.7367   29.8463 O   0  0  0  0  0  0  0  0  0  0  0  0
   -8.2040  -25.6327   29.2436 O   0  0  0  0  0  0  0  0  0  0  0  0
    2.5159  -26.9923   34.7405 N   0  0  0  0  0  0  0  0  0  0  0  0
    1.7895  -28.0485   35.3679 C   0  0  0  0  0  0  0  0  0  0  0  0
    2.4283  -28.8040   36.1865 N   0  0  0  0  0  0  0  0  0  0  0  0
    0.4134  -28.2210   35.0727 N   0  0  0  0  0  0  0  0  0  0  0  0
   -0.2173  -27.4214   34.0784 C   0  0  0  0  0  0  0  0  0  0  0  0
   -1.7182  -27.6636   33.9537 C   0  0  0  0  0  0  0  0  0  0  0  0
   -2.1875  -26.8197   32.8172 C   0  0  0  0  0  0  0  0  0  0  0  0
   -3.6449  -26.9457   32.5351 C   0  0  2  0  0  0  0  0  0  0  0  0
   -3.9981  -26.0153   31.4353 N   0  0  0  0  0  0  0  0  0  0  0  0
   -4.4666  -26.5509   33.7022 C   0  0  0  0  0  0  0  0  0  0  0  0
   -4.5488  -27.3131   34.6853 O   0  0  0  0  0  0  0  0  0  0  0  0
   -5.1654  -25.3563   33.7670 O   0  0  0  0  0  0  0  0  0  0  0  0
  2  1  1  6
  3  2  1  0
  4  2  1  0
  4  5  2  0
  6  4  1  0
  7  6  1  0
  7 11  1  0
  7  8  1  6
  9  8  1  0
 10  9  2  0
 11 12  2  0
 13  9  1  0
 15 14  1  0
 16 15  2  0
 17 15  1  0
 18 17  1  0
 19 18  1  0
 20 19  1  0
 21 20  1  1
 22 11  1  0
 22 21  1  0
 23 25  1  0
 23 21  1  0
 24 23  2  0
M  END
$$$$
