ADR.pdb
     RDKit          3D

 25 24  0  0  1  0  0  0  0  0999 V2000
    6.7880  -13.2389   18.7886 C   0  0  0  0  0  0  0  0  0  0  0  0
    8.3145  -13.2959   18.9398 C   0  0  2  0  0  0  0  0  0  0  0  0
    8.8828  -13.3980   17.6092 N   0  0  0  0  0  0  0  0  0  0  0  0
    8.7123  -14.4332   19.7997 C   0  0  0  0  0  0  0  0  0  0  0  0
    8.2652  -14.5080   20.9686 O   0  0  0  0  0  0  0  0  0  0  0  0
    9.5946  -15.4733   19.3671 N   0  0  0  0  0  0  0  0  0  0  0  0
    9.8440  -16.6481   20.1793 C   0  0  1  0  0  0  0  0  0  0  0  0
   10.5181  -17.6753   19.3388 C   0  0  0  0  0  0  0  0  0  0  0  0
    9.5909  -18.4195   18.4573 C   0  0  0  0  0  0  0  0  0  0  0  0
    8.3636  -18.4198   18.6310 O   0  0  0  0  0  0  0  0  0  0  0  0
   10.6083  -16.2507   21.3673 C   0  0  0  0  0  0  0  0  0  0  0  0
   11.6408  -15.5138   21.2181 O   0  0  0  0  0  0  0  0  0  0  0  0
   10.0994  -19.1550   17.3847 O   0  0  0  0  0  0  0  0  0  0  0  0
   10.5508  -16.6436   29.5917 N   0  0  0  0  0  0  0  0  0  0  0  0
   10.6124  -15.2641   29.2312 C   0  0  0  0  0  0  0  0  0  0  0  0
   11.5975  -14.5756   29.6834 N   0  0  0  0  0  0  0  0  0  0  0  0
    9.6042  -14.7139   28.3998 N   0  0  0  0  0  0  0  0  0  0  0  0
    9.2576  -15.3445   27.1718 C   0  0  0  0  0  0  0  0  0  0  0  0
   10.4323  -15.5153   26.2139 C   0  0  0  0  0  0  0  0  0  0  0  0
    9.8572  -15.9959   24.9245 C   0  0  0  0  0  0  0  0  0  0  0  0
   10.8657  -16.1652   23.8410 C   0  0  2  0  0  0  0  0  0  0  0  0
   10.1828  -16.6922   22.6345 N   0  0  0  0  0  0  0  0  0  0  0  0
   11.9031  -17.1570   24.2061 C   0  0  0  0  0  0  0  0  0  0  0  0
   11.7227  -18.3628   23.9463 O   0  0  0  0  0  0  0  0  0  0  0  0
   13.0900  -16.8151   24.8338 O   0  0  0  0  0  0  0  0  0  0  0  0
  2  1  1  6
  3  2  1  0
  4  2  1  0
  4  5  2  0
  6  4  1  0
  7  6  1  0
  7 11  1  0
  7  8  1  6
  9  8  1  0
 10  9  2  0
 11 12  2  0
 13  9  1  0
 15 14  1  0
 16 15  2  0
 17 15  1  0
 18 17  1  0
 19 18  1  0
 20 19  1  0
 21 20  1  1
 22 11  1  0
 22 21  1  0
 23 25  1  0
 23 21  1  0
 24 23  2  0
M  END
$$$$
