ADR.pdb
     RDKit          3D

 25 24  0  0  1  0  0  0  0  0999 V2000
    8.7426  -19.5850   16.8435 C   0  0  0  0  0  0  0  0  0  0  0  0
    8.5107  -18.7273   18.0953 C   0  0  2  0  0  0  0  0  0  0  0  0
    8.4789  -17.3394   17.6755 N   0  0  0  0  0  0  0  0  0  0  0  0
    9.5668  -18.9764   19.1022 C   0  0  0  0  0  0  0  0  0  0  0  0
    9.7111  -20.1299   19.5717 O   0  0  0  0  0  0  0  0  0  0  0  0
   10.4505  -17.9581   19.5811 N   0  0  0  0  0  0  0  0  0  0  0  0
   11.4504  -18.2315   20.5948 C   0  0  1  0  0  0  0  0  0  0  0  0
   12.6495  -17.3928   20.3211 C   0  0  0  0  0  0  0  0  0  0  0  0
   13.7854  -17.6712   21.2281 C   0  0  0  0  0  0  0  0  0  0  0  0
   13.9439  -18.7704   21.7783 O   0  0  0  0  0  0  0  0  0  0  0  0
   10.8565  -18.0134   21.9188 C   0  0  0  0  0  0  0  0  0  0  0  0
   10.4986  -16.8321   22.2470 O   0  0  0  0  0  0  0  0  0  0  0  0
   14.7239  -16.6698   21.4860 O   0  0  0  0  0  0  0  0  0  0  0  0
    4.7527  -22.7702   23.8004 N   0  0  0  0  0  0  0  0  0  0  0  0
    4.6308  -21.7424   22.8176 C   0  0  0  0  0  0  0  0  0  0  0  0
    3.5976  -21.7691   22.0555 N   0  0  0  0  0  0  0  0  0  0  0  0
    5.6346  -20.7457   22.7214 N   0  0  0  0  0  0  0  0  0  0  0  0
    6.8021  -20.8163   23.5325 C   0  0  0  0  0  0  0  0  0  0  0  0
    7.7449  -19.6297   23.3598 C   0  0  0  0  0  0  0  0  0  0  0  0
    8.9277  -19.9026   24.2262 C   0  0  0  0  0  0  0  0  0  0  0  0
   10.0195  -18.8983   24.0889 C   0  0  2  0  0  0  0  0  0  0  0  0
   10.6987  -19.1099   22.7875 N   0  0  0  0  0  0  0  0  0  0  0  0
   11.0532  -19.0638   25.1365 C   0  0  0  0  0  0  0  0  0  0  0  0
   10.7445  -18.9224   26.3360 O   0  0  0  0  0  0  0  0  0  0  0  0
   12.3738  -19.3740   24.8548 O   0  0  0  0  0  0  0  0  0  0  0  0
  2  1  1  6
  3  2  1  0
  4  2  1  0
  4  5  2  0
  6  4  1  0
  7  6  1  0
  7 11  1  0
  7  8  1  6
  9  8  1  0
 10  9  2  0
 11 12  2  0
 13  9  1  0
 15 14  1  0
 16 15  2  0
 17 15  1  0
 18 17  1  0
 19 18  1  0
 20 19  1  0
 21 20  1  1
 22 11  1  0
 22 21  1  0
 23 25  1  0
 23 21  1  0
 24 23  2  0
M  END
$$$$
