ADR.pdb
     RDKit          3D

 25 24  0  0  1  0  0  0  0  0999 V2000
    8.7903  -14.0834   17.8917 C   0  0  0  0  0  0  0  0  0  0  0  0
    7.9274  -14.8487   18.9047 C   0  0  2  0  0  0  0  0  0  0  0  0
    7.5449  -13.9158   19.9473 N   0  0  0  0  0  0  0  0  0  0  0  0
    8.6657  -16.0116   19.4467 C   0  0  0  0  0  0  0  0  0  0  0  0
    9.0419  -16.9200   18.6688 O   0  0  0  0  0  0  0  0  0  0  0  0
    8.9818  -16.1634   20.8340 N   0  0  0  0  0  0  0  0  0  0  0  0
   10.2165  -16.7854   21.2707 C   0  0  1  0  0  0  0  0  0  0  0  0
   11.3476  -16.1876   20.5095 C   0  0  0  0  0  0  0  0  0  0  0  0
   12.6632  -16.7765   20.8453 C   0  0  0  0  0  0  0  0  0  0  0  0
   12.8719  -17.9980   20.8186 O   0  0  0  0  0  0  0  0  0  0  0  0
   10.3318  -16.6414   22.7265 C   0  0  0  0  0  0  0  0  0  0  0  0
   11.4707  -16.8226   23.2756 O   0  0  0  0  0  0  0  0  0  0  0  0
   13.7211  -15.9404   21.2083 O   0  0  0  0  0  0  0  0  0  0  0  0
    5.4090  -11.4860   27.5924 N   0  0  0  0  0  0  0  0  0  0  0  0
    6.3178  -11.1179   26.5554 C   0  0  0  0  0  0  0  0  0  0  0  0
    6.7293   -9.9018   26.5303 N   0  0  0  0  0  0  0  0  0  0  0  0
    6.7285  -12.0906   25.6090 N   0  0  0  0  0  0  0  0  0  0  0  0
    7.5685  -13.1704   26.0018 C   0  0  0  0  0  0  0  0  0  0  0  0
    7.9363  -14.1120   24.8595 C   0  0  0  0  0  0  0  0  0  0  0  0
    8.1189  -15.4610   25.4685 C   0  0  0  0  0  0  0  0  0  0  0  0
    9.3029  -16.2011   24.9492 C   0  0  2  0  0  0  0  0  0  0  0  0
    9.1866  -16.3087   23.4745 N   0  0  0  0  0  0  0  0  0  0  0  0
    9.3572  -17.5861   25.4706 C   0  0  0  0  0  0  0  0  0  0  0  0
    9.0537  -18.5384   24.7255 O   0  0  0  0  0  0  0  0  0  0  0  0
    9.7345  -17.8925   26.7681 O   0  0  0  0  0  0  0  0  0  0  0  0
  2  1  1  6
  3  2  1  0
  4  2  1  0
  4  5  2  0
  6  4  1  0
  7  6  1  0
  7 11  1  0
  7  8  1  6
  9  8  1  0
 10  9  2  0
 11 12  2  0
 13  9  1  0
 15 14  1  0
 16 15  2  0
 17 15  1  0
 18 17  1  0
 19 18  1  0
 20 19  1  0
 21 20  1  1
 22 11  1  0
 22 21  1  0
 23 25  1  0
 23 21  1  0
 24 23  2  0
M  END
$$$$
