IIL.pdb
     RDKit          3D

 25 24  0  0  1  0  0  0  0  0999 V2000
   12.3215  -13.5068  -15.0121 C   0  0  0  0  0  0  0  0  0  0  0  0
   13.7058  -13.2861  -15.5921 C   0  0  0  0  0  0  0  0  0  0  0  0
   14.5156  -12.5349  -14.5900 C   0  0  2  0  0  0  0  0  0  0  0  0
   13.8117  -11.2160  -14.3199 C   0  0  0  0  0  0  0  0  0  0  0  0
   15.9136  -12.2254  -15.0031 C   0  0  2  0  0  0  0  0  0  0  0  0
   16.6164  -13.4586  -15.2645 N   0  0  0  0  0  0  0  0  0  0  0  0
   16.6663  -11.3785  -14.0587 C   0  0  0  0  0  0  0  0  0  0  0  0
   17.2562  -11.8585  -13.0655 O   0  0  0  0  0  0  0  0  0  0  0  0
   20.7655   -8.5686  -15.5092 C   0  0  0  0  0  0  0  0  0  0  0  0
   19.6566   -9.2638  -14.7632 C   0  0  0  0  0  0  0  0  0  0  0  0
   18.5886   -8.4168  -14.2120 C   0  0  2  0  0  0  0  0  0  0  0  0
   19.2500   -7.3009  -13.3835 C   0  0  0  0  0  0  0  0  0  0  0  0
   17.4604   -9.0438  -13.4869 C   0  0  2  0  0  0  0  0  0  0  0  0
   16.7235   -9.9785  -14.2819 N   0  0  0  0  0  0  0  0  0  0  0  0
   16.5943   -8.0633  -12.7817 C   0  0  0  0  0  0  0  0  0  0  0  0
   15.8016   -7.2854  -13.3798 O   0  0  0  0  0  0  0  0  0  0  0  0
   14.2970   -7.0091   -7.0165 C   0  0  0  0  0  0  0  0  0  0  0  0
   14.5709   -6.5353   -8.4180 C   0  0  1  0  0  0  0  0  0  0  0  0
   14.9653   -5.0679   -8.4448 C   0  0  0  0  0  0  0  0  0  0  0  0
   15.4392   -7.3919   -9.2421 C   0  0  0  0  0  0  0  0  0  0  0  0
   15.6746   -7.0597  -10.6616 C   0  0  2  0  0  0  0  0  0  0  0  0
   16.5953   -7.9281  -11.3644 N   0  0  0  0  0  0  0  0  0  0  0  0
   16.1355   -5.6668  -10.8955 C   0  0  0  0  0  0  0  0  0  0  0  0
   15.3446   -4.7459  -11.2209 O   0  0  0  0  0  0  0  0  0  0  0  0
   17.4634   -5.2893  -10.7713 O   0  0  0  0  0  0  0  0  0  0  0  0
  2  1  1  0
  3  5  1  0
  3  2  1  0
  3  4  1  6
  5  6  1  1
  7  5  1  0
  7  8  2  0
 10  9  1  0
 11 10  1  0
 11 13  1  0
 11 12  1  1
 13 14  1  6
 14  7  1  0
 15 13  1  0
 16 15  2  0
 18 17  1  1
 18 20  1  0
 19 18  1  0
 21 20  1  1
 21 22  1  0
 21 23  1  0
 22 15  1  0
 23 25  1  0
 24 23  2  0
M  END
$$$$
