IIL.pdb
     RDKit          3D

 25 24  0  0  1  0  0  0  0  0999 V2000
   30.0405  -25.5114  -19.3422 C   0  0  0  0  0  0  0  0  0  0  0  0
   28.8702  -25.4616  -18.3782 C   0  0  0  0  0  0  0  0  0  0  0  0
   28.9375  -24.1724  -17.6312 C   0  0  2  0  0  0  0  0  0  0  0  0
   30.2020  -24.1898  -16.7894 C   0  0  0  0  0  0  0  0  0  0  0  0
   27.7902  -23.9038  -16.7189 C   0  0  2  0  0  0  0  0  0  0  0  0
   26.5615  -23.9451  -17.4750 N   0  0  0  0  0  0  0  0  0  0  0  0
   27.8926  -22.6519  -15.9456 C   0  0  0  0  0  0  0  0  0  0  0  0
   28.8771  -22.4050  -15.2143 O   0  0  0  0  0  0  0  0  0  0  0  0
   27.8831  -17.8553  -17.8876 C   0  0  0  0  0  0  0  0  0  0  0  0
   27.9261  -19.0818  -17.0139 C   0  0  0  0  0  0  0  0  0  0  0  0
   26.8172  -19.2662  -16.0661 C   0  0  2  0  0  0  0  0  0  0  0  0
   26.7273  -18.0028  -15.1916 C   0  0  0  0  0  0  0  0  0  0  0  0
   26.7488  -20.5021  -15.2540 C   0  0  2  0  0  0  0  0  0  0  0  0
   26.8446  -21.6994  -16.0324 N   0  0  0  0  0  0  0  0  0  0  0  0
   25.6136  -20.5159  -14.2949 C   0  0  0  0  0  0  0  0  0  0  0  0
   24.4630  -20.9395  -14.5914 O   0  0  0  0  0  0  0  0  0  0  0  0
   26.0898  -20.2123   -8.3993 C   0  0  0  0  0  0  0  0  0  0  0  0
   25.5157  -20.7206   -9.6938 C   0  0  1  0  0  0  0  0  0  0  0  0
   24.5628  -21.8820   -9.4648 C   0  0  0  0  0  0  0  0  0  0  0  0
   24.9919  -19.7055  -10.6224 C   0  0  0  0  0  0  0  0  0  0  0  0
   24.6478  -20.0783  -12.0093 C   0  0  2  0  0  0  0  0  0  0  0  0
   25.7422  -20.0472  -12.9566 N   0  0  0  0  0  0  0  0  0  0  0  0
   23.5447  -19.2788  -12.6018 C   0  0  0  0  0  0  0  0  0  0  0  0
   22.3356  -19.5326  -12.3712 O   0  0  0  0  0  0  0  0  0  0  0  0
   23.7724  -18.2031  -13.4457 O   0  0  0  0  0  0  0  0  0  0  0  0
  2  1  1  0
  3  5  1  0
  3  2  1  0
  3  4  1  1
  5  6  1  6
  7  5  1  0
  7  8  2  0
 10  9  1  0
 11 10  1  0
 11 13  1  0
 11 12  1  1
 13 14  1  6
 14  7  1  0
 15 13  1  0
 16 15  2  0
 18 17  1  1
 18 20  1  0
 19 18  1  0
 21 20  1  1
 21 22  1  0
 21 23  1  0
 22 15  1  0
 23 25  1  0
 24 23  2  0
M  END
$$$$
