IIL.pdb
     RDKit          3D

 25 24  0  0  1  0  0  0  0  0999 V2000
   21.4239  -21.2634  -15.7481 C   0  0  0  0  0  0  0  0  0  0  0  0
   21.4905  -20.7703  -14.3150 C   0  0  0  0  0  0  0  0  0  0  0  0
   22.7747  -21.2412  -13.7203 C   0  0  2  0  0  0  0  0  0  0  0  0
   22.7817  -22.7594  -13.7749 C   0  0  0  0  0  0  0  0  0  0  0  0
   23.0070  -20.8382  -12.3046 C   0  0  2  0  0  0  0  0  0  0  0  0
   22.8964  -19.4035  -12.1941 N   0  0  0  0  0  0  0  0  0  0  0  0
   24.2759  -21.3164  -11.7239 C   0  0  0  0  0  0  0  0  0  0  0  0
   24.5226  -22.5351  -11.5866 O   0  0  0  0  0  0  0  0  0  0  0  0
   28.9495  -21.0427  -13.6456 C   0  0  0  0  0  0  0  0  0  0  0  0
   27.6879  -21.1813  -12.8342 C   0  0  0  0  0  0  0  0  0  0  0  0
   27.6647  -20.5266  -11.5179 C   0  0  2  0  0  0  0  0  0  0  0  0
   28.9634  -20.8997  -10.7809 C   0  0  0  0  0  0  0  0  0  0  0  0
   26.4766  -20.6785  -10.6477 C   0  0  2  0  0  0  0  0  0  0  0  0
   25.2454  -20.3676  -11.3080 N   0  0  0  0  0  0  0  0  0  0  0  0
   26.6207  -20.0070   -9.3297 C   0  0  0  0  0  0  0  0  0  0  0  0
   26.2183  -18.8328   -9.1043 O   0  0  0  0  0  0  0  0  0  0  0  0
   27.1771  -22.4460   -3.9420 C   0  0  0  0  0  0  0  0  0  0  0  0
   26.7288  -21.4735   -4.9988 C   0  0  1  0  0  0  0  0  0  0  0  0
   25.7214  -20.4768   -4.4498 C   0  0  0  0  0  0  0  0  0  0  0  0
   27.7883  -20.8514   -5.8096 C   0  0  0  0  0  0  0  0  0  0  0  0
   27.4339  -19.9764   -6.9452 C   0  0  2  0  0  0  0  0  0  0  0  0
   27.2297  -20.6458   -8.2125 N   0  0  0  0  0  0  0  0  0  0  0  0
   28.3992  -18.8745   -7.1928 C   0  0  0  0  0  0  0  0  0  0  0  0
   29.3268  -18.9740   -8.0350 O   0  0  0  0  0  0  0  0  0  0  0  0
   28.3432  -17.6668   -6.5150 O   0  0  0  0  0  0  0  0  0  0  0  0
  2  1  1  0
  3  5  1  0
  3  2  1  0
  3  4  1  1
  5  6  1  6
  7  5  1  0
  7  8  2  0
 10  9  1  0
 11 10  1  0
 11 13  1  0
 11 12  1  1
 13 14  1  6
 14  7  1  0
 15 13  1  0
 16 15  2  0
 18 17  1  1
 18 20  1  0
 19 18  1  0
 21 20  1  1
 21 22  1  0
 21 23  1  0
 22 15  1  0
 23 25  1  0
 24 23  2  0
M  END
$$$$
