IIL.pdb
     RDKit          3D

 25 24  0  0  1  0  0  0  0  0999 V2000
   33.8187  -22.6237  -10.4041 C   0  0  0  0  0  0  0  0  0  0  0  0
   32.7866  -22.8655  -11.4893 C   0  0  0  0  0  0  0  0  0  0  0  0
   31.6823  -21.8793  -11.3090 C   0  0  2  0  0  0  0  0  0  0  0  0
   31.1036  -22.0804   -9.9188 C   0  0  0  0  0  0  0  0  0  0  0  0
   30.5625  -21.9908  -12.2858 C   0  0  2  0  0  0  0  0  0  0  0  0
   31.0851  -21.8635  -13.6251 N   0  0  0  0  0  0  0  0  0  0  0  0
   29.4483  -21.0504  -12.0621 C   0  0  0  0  0  0  0  0  0  0  0  0
   29.5641  -19.8241  -12.2801 O   0  0  0  0  0  0  0  0  0  0  0  0
   25.2330  -20.2949  -14.6024 C   0  0  0  0  0  0  0  0  0  0  0  0
   26.3418  -20.2443  -13.5840 C   0  0  0  0  0  0  0  0  0  0  0  0
   26.0202  -20.6979  -12.2229 C   0  0  2  0  0  0  0  0  0  0  0  0
   24.7980  -19.9000  -11.7346 C   0  0  0  0  0  0  0  0  0  0  0  0
   27.0879  -20.7482  -11.1986 C   0  0  2  0  0  0  0  0  0  0  0  0
   28.2088  -21.5499  -11.5854 N   0  0  0  0  0  0  0  0  0  0  0  0
   26.5844  -21.0631   -9.8362 C   0  0  0  0  0  0  0  0  0  0  0  0
   26.1241  -22.1922   -9.5130 O   0  0  0  0  0  0  0  0  0  0  0  0
   28.7168  -18.6473   -5.1169 C   0  0  0  0  0  0  0  0  0  0  0  0
   28.1272  -19.7427   -5.9632 C   0  0  1  0  0  0  0  0  0  0  0  0
   28.4306  -21.1169   -5.3896 C   0  0  0  0  0  0  0  0  0  0  0  0
   26.7227  -19.5733   -6.3701 C   0  0  0  0  0  0  0  0  0  0  0  0
   26.1543  -20.4197   -7.4385 C   0  0  2  0  0  0  0  0  0  0  0  0
   26.5845  -20.1037   -8.7842 N   0  0  0  0  0  0  0  0  0  0  0  0
   24.6694  -20.4607   -7.4614 C   0  0  0  0  0  0  0  0  0  0  0  0
   23.9901  -19.7005   -8.1964 O   0  0  0  0  0  0  0  0  0  0  0  0
   23.9347  -21.3362   -6.6772 O   0  0  0  0  0  0  0  0  0  0  0  0
  2  1  1  0
  3  5  1  0
  3  2  1  0
  3  4  1  1
  5  6  1  6
  7  5  1  0
  7  8  2  0
 10  9  1  0
 11 10  1  0
 11 13  1  0
 11 12  1  1
 13 14  1  6
 14  7  1  0
 15 13  1  0
 16 15  2  0
 18 17  1  1
 18 20  1  0
 19 18  1  0
 21 20  1  1
 21 22  1  0
 21 23  1  0
 22 15  1  0
 23 25  1  0
 24 23  2  0
M  END
$$$$
