IIL.pdb
     RDKit          3D

 25 24  0  0  1  0  0  0  0  0999 V2000
   29.4659  -19.1649  -16.2868 C   0  0  0  0  0  0  0  0  0  0  0  0
   28.2674  -20.0004  -15.8779 C   0  0  0  0  0  0  0  0  0  0  0  0
   27.7629  -19.4826  -14.5733 C   0  0  2  0  0  0  0  0  0  0  0  0
   28.8979  -19.5748  -13.5677 C   0  0  0  0  0  0  0  0  0  0  0  0
   26.5952  -20.2142  -14.0060 C   0  0  2  0  0  0  0  0  0  0  0  0
   25.5230  -20.2211  -14.9722 N   0  0  0  0  0  0  0  0  0  0  0  0
   26.1257  -19.7152  -12.6997 C   0  0  0  0  0  0  0  0  0  0  0  0
   25.9062  -18.5006  -12.4958 O   0  0  0  0  0  0  0  0  0  0  0  0
   21.5311  -20.8004  -11.2135 C   0  0  0  0  0  0  0  0  0  0  0  0
   22.9513  -20.3130  -11.3354 C   0  0  0  0  0  0  0  0  0  0  0  0
   23.8955  -20.7377  -10.2914 C   0  0  2  0  0  0  0  0  0  0  0  0
   23.2835  -20.3785   -8.9256 C   0  0  0  0  0  0  0  0  0  0  0  0
   25.3156  -20.3291  -10.3812 C   0  0  2  0  0  0  0  0  0  0  0  0
   25.9170  -20.6385  -11.6427 N   0  0  0  0  0  0  0  0  0  0  0  0
   26.1311  -20.7698   -9.2195 C   0  0  0  0  0  0  0  0  0  0  0  0
   26.3906  -21.9800   -8.9761 O   0  0  0  0  0  0  0  0  0  0  0  0
   30.2020  -18.3909   -5.0397 C   0  0  0  0  0  0  0  0  0  0  0  0
   29.3200  -19.5125   -5.5169 C   0  0  1  0  0  0  0  0  0  0  0  0
   28.6011  -20.1886   -4.3613 C   0  0  0  0  0  0  0  0  0  0  0  0
   28.4428  -19.2157   -6.6612 C   0  0  0  0  0  0  0  0  0  0  0  0
   27.5510  -20.2617   -7.2012 C   0  0  2  0  0  0  0  0  0  0  0  0
   26.6855  -19.8489   -8.2857 N   0  0  0  0  0  0  0  0  0  0  0  0
   26.6845  -20.9114   -6.1843 C   0  0  0  0  0  0  0  0  0  0  0  0
   27.0763  -21.8875   -5.4962 O   0  0  0  0  0  0  0  0  0  0  0  0
   25.3904  -20.4874   -5.9257 O   0  0  0  0  0  0  0  0  0  0  0  0
  2  1  1  0
  3  5  1  0
  3  2  1  0
  3  4  1  1
  5  6  1  6
  7  5  1  0
  7  8  2  0
 10  9  1  0
 11 10  1  0
 11 13  1  0
 11 12  1  1
 13 14  1  6
 14  7  1  0
 15 13  1  0
 16 15  2  0
 18 17  1  1
 18 20  1  0
 19 18  1  0
 21 20  1  1
 21 22  1  0
 21 23  1  0
 22 15  1  0
 23 25  1  0
 24 23  2  0
M  END
$$$$
