IIL.pdb
     RDKit          3D

 25 24  0  0  1  0  0  0  0  0999 V2000
   20.9939  -22.6961  -14.0315 C   0  0  0  0  0  0  0  0  0  0  0  0
   22.0458  -21.7539  -13.4773 C   0  0  0  0  0  0  0  0  0  0  0  0
   21.4661  -21.0533  -12.2951 C   0  0  2  0  0  0  0  0  0  0  0  0
   20.2808  -20.2343  -12.7768 C   0  0  0  0  0  0  0  0  0  0  0  0
   22.3944  -20.1304  -11.5828 C   0  0  2  0  0  0  0  0  0  0  0  0
   22.7875  -19.0678  -12.4769 N   0  0  0  0  0  0  0  0  0  0  0  0
   23.5751  -20.7796  -10.9827 C   0  0  0  0  0  0  0  0  0  0  0  0
   23.4795  -21.8202  -10.2949 O   0  0  0  0  0  0  0  0  0  0  0  0
   28.0290  -21.6755  -13.9042 C   0  0  0  0  0  0  0  0  0  0  0  0
   26.9096  -21.6116  -12.8981 C   0  0  0  0  0  0  0  0  0  0  0  0
   27.1573  -20.8405  -11.6710 C   0  0  2  0  0  0  0  0  0  0  0  0
   28.4718  -21.3472  -11.0511 C   0  0  0  0  0  0  0  0  0  0  0  0
   26.0848  -20.7158  -10.6580 C   0  0  2  0  0  0  0  0  0  0  0  0
   24.8570  -20.2080  -11.1903 N   0  0  0  0  0  0  0  0  0  0  0  0
   26.5203  -20.0176   -9.4204 C   0  0  0  0  0  0  0  0  0  0  0  0
   25.8353  -19.1225   -8.8540 O   0  0  0  0  0  0  0  0  0  0  0  0
   27.6897  -18.1735   -4.7809 C   0  0  0  0  0  0  0  0  0  0  0  0
   27.4459  -19.6401   -5.0121 C   0  0  1  0  0  0  0  0  0  0  0  0
   26.4868  -20.2161   -3.9836 C   0  0  0  0  0  0  0  0  0  0  0  0
   27.1374  -20.0439   -6.3936 C   0  0  0  0  0  0  0  0  0  0  0  0
   28.1050  -19.7760   -7.4767 C   0  0  2  0  0  0  0  0  0  0  0  0
   27.7556  -20.3106   -8.7759 N   0  0  0  0  0  0  0  0  0  0  0  0
   29.4899  -20.2281   -7.1852 C   0  0  0  0  0  0  0  0  0  0  0  0
   30.3389  -19.4767   -6.6426 O   0  0  0  0  0  0  0  0  0  0  0  0
   29.9384  -21.5036   -7.4901 O   0  0  0  0  0  0  0  0  0  0  0  0
  2  1  1  0
  3  5  1  0
  3  2  1  0
  3  4  1  6
  5  6  1  6
  7  5  1  0
  7  8  2  0
 10  9  1  0
 11 10  1  0
 11 13  1  0
 11 12  1  1
 13 14  1  6
 14  7  1  0
 15 13  1  0
 16 15  2  0
 18 17  1  6
 18 20  1  0
 19 18  1  0
 21 20  1  1
 21 22  1  0
 21 23  1  0
 22 15  1  0
 23 25  1  0
 24 23  2  0
M  END
$$$$
