IIL.pdb
     RDKit          3D

 25 24  0  0  1  0  0  0  0  0999 V2000
   21.0949  -20.8125   -9.3545 C   0  0  0  0  0  0  0  0  0  0  0  0
   22.4920  -21.2065   -8.9139 C   0  0  0  0  0  0  0  0  0  0  0  0
   23.4704  -20.5522   -9.8299 C   0  0  2  0  0  0  0  0  0  0  0  0
   23.1420  -20.9888  -11.2474 C   0  0  0  0  0  0  0  0  0  0  0  0
   24.9012  -20.8819   -9.5749 C   0  0  2  0  0  0  0  0  0  0  0  0
   25.2205  -20.5825   -8.1996 N   0  0  0  0  0  0  0  0  0  0  0  0
   25.8594  -20.2367  -10.4920 C   0  0  0  0  0  0  0  0  0  0  0  0
   26.2489  -19.0602  -10.3210 O   0  0  0  0  0  0  0  0  0  0  0  0
   30.6706  -21.7469  -11.2168 C   0  0  0  0  0  0  0  0  0  0  0  0
   29.3763  -20.9784  -11.2772 C   0  0  0  0  0  0  0  0  0  0  0  0
   28.6035  -21.0681  -12.5248 C   0  0  2  0  0  0  0  0  0  0  0  0
   29.5042  -20.5838  -13.6751 C   0  0  0  0  0  0  0  0  0  0  0  0
   27.2537  -20.4638  -12.5926 C   0  0  2  0  0  0  0  0  0  0  0  0
   26.3541  -20.9703  -11.6011 N   0  0  0  0  0  0  0  0  0  0  0  0
   26.6760  -20.4622  -13.9620 C   0  0  0  0  0  0  0  0  0  0  0  0
   26.2854  -21.5082  -14.5489 O   0  0  0  0  0  0  0  0  0  0  0  0
   25.1447  -17.7255  -18.7885 C   0  0  0  0  0  0  0  0  0  0  0  0
   24.3569  -17.7565  -17.5070 C   0  0  1  0  0  0  0  0  0  0  0  0
   23.1640  -18.6927  -17.6068 C   0  0  0  0  0  0  0  0  0  0  0  0
   25.1304  -17.9211  -16.2654 C   0  0  0  0  0  0  0  0  0  0  0  0
   25.7630  -19.2187  -15.9540 C   0  0  2  0  0  0  0  0  0  0  0  0
   26.5190  -19.2675  -14.7203 N   0  0  0  0  0  0  0  0  0  0  0  0
   26.6538  -19.7373  -17.0238 C   0  0  0  0  0  0  0  0  0  0  0  0
   27.8389  -19.3408  -17.1586 O   0  0  0  0  0  0  0  0  0  0  0  0
   26.2410  -20.6896  -17.9424 O   0  0  0  0  0  0  0  0  0  0  0  0
  2  1  1  0
  3  5  1  0
  3  2  1  0
  3  4  1  6
  5  6  1  1
  7  5  1  0
  7  8  2  0
 10  9  1  0
 11 10  1  0
 11 13  1  0
 11 12  1  6
 13 14  1  1
 14  7  1  0
 15 13  1  0
 16 15  2  0
 18 17  1  6
 18 20  1  0
 19 18  1  0
 21 20  1  6
 21 22  1  0
 21 23  1  0
 22 15  1  0
 23 25  1  0
 24 23  2  0
M  END
$$$$
