IIL.pdb
     RDKit          3D

 25 24  0  0  1  0  0  0  0  0999 V2000
   29.5068  -18.9904  -16.4015 C   0  0  0  0  0  0  0  0  0  0  0  0
   28.3694  -19.8974  -15.9712 C   0  0  0  0  0  0  0  0  0  0  0  0
   27.8470  -19.4006  -14.6655 C   0  0  2  0  0  0  0  0  0  0  0  0
   28.9984  -19.4027  -13.6745 C   0  0  0  0  0  0  0  0  0  0  0  0
   26.7399  -20.2043  -14.0747 C   0  0  2  0  0  0  0  0  0  0  0  0
   25.6676  -20.3147  -15.0343 N   0  0  0  0  0  0  0  0  0  0  0  0
   26.2393  -19.7114  -12.7777 C   0  0  0  0  0  0  0  0  0  0  0  0
   26.0144  -18.4978  -12.5737 O   0  0  0  0  0  0  0  0  0  0  0  0
   21.6023  -20.6951  -11.1881 C   0  0  0  0  0  0  0  0  0  0  0  0
   23.0352  -20.2640  -11.3619 C   0  0  0  0  0  0  0  0  0  0  0  0
   24.0001  -20.7302  -10.3552 C   0  0  2  0  0  0  0  0  0  0  0  0
   23.4209  -20.4170   -8.9640 C   0  0  0  0  0  0  0  0  0  0  0  0
   25.4201  -20.3254  -10.4625 C   0  0  2  0  0  0  0  0  0  0  0  0
   26.0061  -20.6394  -11.7301 N   0  0  0  0  0  0  0  0  0  0  0  0
   26.2479  -20.7653   -9.3092 C   0  0  0  0  0  0  0  0  0  0  0  0
   26.7723  -21.9099   -9.2311 O   0  0  0  0  0  0  0  0  0  0  0  0
   30.2104  -18.4932   -5.1415 C   0  0  0  0  0  0  0  0  0  0  0  0
   29.2190  -19.5670   -5.4991 C   0  0  1  0  0  0  0  0  0  0  0  0
   28.4680  -20.0642   -4.2751 C   0  0  0  0  0  0  0  0  0  0  0  0
   28.3466  -19.2961   -6.6534 C   0  0  0  0  0  0  0  0  0  0  0  0
   27.3744  -20.3135   -7.1013 C   0  0  2  0  0  0  0  0  0  0  0  0
   26.5130  -19.9185   -8.1958 N   0  0  0  0  0  0  0  0  0  0  0  0
   26.4905  -20.8305   -6.0249 C   0  0  0  0  0  0  0  0  0  0  0  0
   25.3994  -20.2795   -5.7325 O   0  0  0  0  0  0  0  0  0  0  0  0
   26.8073  -21.9508   -5.2727 O   0  0  0  0  0  0  0  0  0  0  0  0
  2  1  1  0
  3  5  1  0
  3  2  1  0
  3  4  1  1
  5  6  1  6
  7  5  1  0
  7  8  2  0
 10  9  1  0
 11 10  1  0
 11 13  1  0
 11 12  1  1
 13 14  1  6
 14  7  1  0
 15 13  1  0
 16 15  2  0
 18 17  1  1
 18 20  1  0
 19 18  1  0
 21 20  1  1
 21 22  1  0
 21 23  1  0
 22 15  1  0
 23 25  1  0
 24 23  2  0
M  END
$$$$
