IIL.pdb
     RDKit          3D

 25 24  0  0  1  0  0  0  0  0999 V2000
   41.3467  -12.9857  -13.5395 C   0  0  0  0  0  0  0  0  0  0  0  0
   42.4488  -13.1266  -12.5065 C   0  0  0  0  0  0  0  0  0  0  0  0
   41.9551  -12.5578  -11.2192 C   0  0  2  0  0  0  0  0  0  0  0  0
   41.5070  -11.1306  -11.4845 C   0  0  0  0  0  0  0  0  0  0  0  0
   42.9542  -12.5203  -10.1142 C   0  0  2  0  0  0  0  0  0  0  0  0
   43.4146  -13.8612   -9.8435 N   0  0  0  0  0  0  0  0  0  0  0  0
   42.4884  -11.8625   -8.8788 C   0  0  0  0  0  0  0  0  0  0  0  0
   41.5767  -12.3490   -8.1739 O   0  0  0  0  0  0  0  0  0  0  0  0
   45.7230  -10.4783   -4.9389 C   0  0  0  0  0  0  0  0  0  0  0  0
   44.4792  -10.7688   -5.7376 C   0  0  0  0  0  0  0  0  0  0  0  0
   43.8223   -9.6267   -6.3904 C   0  0  2  0  0  0  0  0  0  0  0  0
   43.4336   -8.6160   -5.2967 C   0  0  0  0  0  0  0  0  0  0  0  0
   42.7090   -9.8676   -7.3360 C   0  0  2  0  0  0  0  0  0  0  0  0
   43.0908  -10.6421   -8.4776 N   0  0  0  0  0  0  0  0  0  0  0  0
   41.9573   -8.6350   -7.6889 C   0  0  0  0  0  0  0  0  0  0  0  0
   42.2526   -7.9029   -8.6728 O   0  0  0  0  0  0  0  0  0  0  0  0
   37.1301   -6.1074   -9.0030 C   0  0  0  0  0  0  0  0  0  0  0  0
   37.6504   -6.1512   -7.5920 C   0  0  1  0  0  0  0  0  0  0  0  0
   36.5330   -5.9684   -6.5784 C   0  0  0  0  0  0  0  0  0  0  0  0
   38.5655   -7.2567   -7.2644 C   0  0  0  0  0  0  0  0  0  0  0  0
   40.0266   -7.0548   -7.3379 C   0  0  2  0  0  0  0  0  0  0  0  0
   40.8367   -8.1849   -6.9348 N   0  0  0  0  0  0  0  0  0  0  0  0
   40.5206   -5.8792   -6.5756 C   0  0  0  0  0  0  0  0  0  0  0  0
   40.8830   -5.9641   -5.3752 O   0  0  0  0  0  0  0  0  0  0  0  0
   40.6154   -4.6140   -7.1336 O   0  0  0  0  0  0  0  0  0  0  0  0
  2  1  1  0
  3  5  1  0
  3  2  1  0
  3  4  1  6
  5  6  1  1
  7  5  1  0
  7  8  2  0
 10  9  1  0
 11 10  1  0
 11 13  1  0
 11 12  1  1
 13 14  1  6
 14  7  1  0
 15 13  1  0
 16 15  2  0
 18 17  1  6
 18 20  1  0
 19 18  1  0
 21 20  1  1
 21 22  1  0
 21 23  1  0
 22 15  1  0
 23 25  1  0
 24 23  2  0
M  END
$$$$
