CET.pdb
     RDKit          3D

 23 22  0  0  1  0  0  0  0  0999 V2000
    7.2622  -15.1457   18.9044 N   0  0  0  0  0  0  0  0  0  0  0  0
    8.1382  -14.5028   19.8501 C   0  0  1  0  0  0  0  0  0  0  0  0
    7.7012  -13.0535   19.9523 C   0  0  0  0  0  0  0  0  0  0  0  0
    8.2999  -12.1637   18.4985 S   0  0  0  0  0  0  0  0  0  0  0  0
    8.0529  -15.1555   21.2067 C   0  0  0  0  0  0  0  0  0  0  0  0
    6.9029  -15.2222   21.7034 O   0  0  0  0  0  0  0  0  0  0  0  0
    9.2273  -15.6434   21.8323 N   0  0  0  0  0  0  0  0  0  0  0  0
    9.1766  -16.1819   23.1675 C   0  0  1  0  0  0  0  0  0  0  0  0
   10.1341  -17.3245   23.2335 C   0  0  0  0  0  0  0  0  0  0  0  0
   10.4268  -17.8809   24.5682 C   0  0  0  0  0  0  0  0  0  0  0  0
   11.4275  -18.9680   24.5965 C   0  0  0  0  0  0  0  0  0  0  0  0
   12.6004  -18.7785   24.2683 O   0  0  0  0  0  0  0  0  0  0  0  0
    9.3401  -15.1269   24.1581 C   0  0  0  0  0  0  0  0  0  0  0  0
   10.2598  -14.2670   24.1170 O   0  0  0  0  0  0  0  0  0  0  0  0
   11.0786  -20.2676   25.0011 O   0  0  0  0  0  0  0  0  0  0  0  0
    6.0493  -13.7043   26.3286 C   0  0  0  0  0  0  0  0  0  0  0  0
    7.3972  -13.0388   26.3137 C   0  0  1  0  0  0  0  0  0  0  0  0
    7.4492  -12.0938   27.3065 O   0  0  0  0  0  0  0  0  0  0  0  0
    8.5339  -13.9972   26.2807 C   0  0  2  0  0  0  0  0  0  0  0  0
    8.4467  -15.0127   25.2513 N   0  0  0  0  0  0  0  0  0  0  0  0
    8.7250  -14.6727   27.5882 C   0  0  0  0  0  0  0  0  0  0  0  0
    8.6410  -15.9354   27.6946 O   0  0  0  0  0  0  0  0  0  0  0  0
    8.9952  -13.9288   28.7091 O   0  0  0  0  0  0  0  0  0  0  0  0
  2  1  1  6
  3  2  1  0
  3  4  1  0
  5  2  1  0
  6  5  2  0
  7  5  1  0
  8 13  1  0
  8  7  1  0
  8  9  1  6
 10  9  1  0
 11 10  1  0
 12 11  2  0
 13 14  2  0
 15 11  1  0
 17 16  1  1
 17 19  1  0
 17 18  1  0
 19 20  1  6
 20 13  1  0
 21 23  1  0
 21 19  1  0
 22 21  2  0
M  END
$$$$
