CET.pdb
     RDKit          3D

 23 22  0  0  1  0  0  0  0  0999 V2000
    8.3350  -14.7834   16.8440 N   0  0  0  0  0  0  0  0  0  0  0  0
    9.3115  -14.2660   17.7680 C   0  0  1  0  0  0  0  0  0  0  0  0
    8.6182  -13.2101   18.6083 C   0  0  0  0  0  0  0  0  0  0  0  0
    8.3775  -11.7316   17.5983 S   0  0  0  0  0  0  0  0  0  0  0  0
    9.8489  -15.3542   18.6627 C   0  0  0  0  0  0  0  0  0  0  0  0
    9.0102  -16.2069   19.0409 O   0  0  0  0  0  0  0  0  0  0  0  0
   11.2204  -15.3633   19.0203 N   0  0  0  0  0  0  0  0  0  0  0  0
   11.7303  -16.3447   19.9436 C   0  0  1  0  0  0  0  0  0  0  0  0
   13.1224  -16.6821   19.5252 C   0  0  0  0  0  0  0  0  0  0  0  0
   13.8436  -17.6839   20.3333 C   0  0  0  0  0  0  0  0  0  0  0  0
   15.2302  -17.9645   19.9057 C   0  0  0  0  0  0  0  0  0  0  0  0
   15.4768  -18.6878   18.9386 O   0  0  0  0  0  0  0  0  0  0  0  0
   11.5435  -15.9072   21.3201 C   0  0  0  0  0  0  0  0  0  0  0  0
   12.2013  -14.9733   21.8513 O   0  0  0  0  0  0  0  0  0  0  0  0
   16.3277  -17.4143   20.5892 O   0  0  0  0  0  0  0  0  0  0  0  0
    8.3256  -14.6016   23.0913 C   0  0  0  0  0  0  0  0  0  0  0  0
    8.8386  -15.8412   23.7696 C   0  0  1  0  0  0  0  0  0  0  0  0
    7.9859  -16.8851   23.5153 O   0  0  0  0  0  0  0  0  0  0  0  0
   10.2777  -16.1106   23.5082 C   0  0  2  0  0  0  0  0  0  0  0  0
   10.5845  -16.5300   22.1560 N   0  0  0  0  0  0  0  0  0  0  0  0
   10.8302  -17.1188   24.4466 C   0  0  0  0  0  0  0  0  0  0  0  0
   11.3285  -18.2076   24.0237 O   0  0  0  0  0  0  0  0  0  0  0  0
   10.8049  -16.8813   25.7979 O   0  0  0  0  0  0  0  0  0  0  0  0
  2  1  1  6
  3  2  1  0
  3  4  1  0
  5  2  1  0
  6  5  2  0
  7  5  1  0
  8 13  1  0
  8  7  1  0
  8  9  1  6
 10  9  1  0
 11 10  1  0
 12 11  2  0
 13 14  2  0
 15 11  1  0
 17 16  1  6
 17 19  1  0
 17 18  1  0
 19 20  1  6
 20 13  1  0
 21 23  1  0
 21 19  1  0
 22 21  2  0
M  END
$$$$
