CET.pdb
     RDKit          3D

 23 22  0  0  1  0  0  0  0  0999 V2000
    7.5000  -15.1391   17.7883 N   0  0  0  0  0  0  0  0  0  0  0  0
    8.2933  -14.4735   18.7896 C   0  0  1  0  0  0  0  0  0  0  0  0
    7.5713  -13.1895   19.1529 C   0  0  0  0  0  0  0  0  0  0  0  0
    8.5279  -12.3248   20.4183 S   0  0  0  0  0  0  0  0  0  0  0  0
    8.4540  -15.3307   20.0197 C   0  0  0  0  0  0  0  0  0  0  0  0
    7.3877  -15.7534   20.5274 O   0  0  0  0  0  0  0  0  0  0  0  0
    9.7490  -15.6080   20.5246 N   0  0  0  0  0  0  0  0  0  0  0  0
    9.9174  -16.4144   21.7065 C   0  0  1  0  0  0  0  0  0  0  0  0
   11.1918  -17.1765   21.5589 C   0  0  0  0  0  0  0  0  0  0  0  0
   11.5939  -18.0397   22.6858 C   0  0  0  0  0  0  0  0  0  0  0  0
   12.8375  -18.8115   22.4812 C   0  0  0  0  0  0  0  0  0  0  0  0
   13.7692  -18.7657   23.2869 O   0  0  0  0  0  0  0  0  0  0  0  0
    9.7673  -15.6078   22.9097 C   0  0  0  0  0  0  0  0  0  0  0  0
   10.4224  -14.5546   23.1305 O   0  0  0  0  0  0  0  0  0  0  0  0
   13.0071  -19.6322   21.3533 O   0  0  0  0  0  0  0  0  0  0  0  0
    7.1169  -13.4475   24.4568 C   0  0  0  0  0  0  0  0  0  0  0  0
    7.3431  -14.6333   25.3526 C   0  0  1  0  0  0  0  0  0  0  0  0
    6.2676  -15.4803   25.2668 O   0  0  0  0  0  0  0  0  0  0  0  0
    8.6756  -15.2690   25.1736 C   0  0  2  0  0  0  0  0  0  0  0  0
    8.8502  -15.9793   23.9232 N   0  0  0  0  0  0  0  0  0  0  0  0
    8.9995  -16.1959   26.2864 C   0  0  0  0  0  0  0  0  0  0  0  0
    9.2617  -17.4192   26.0684 O   0  0  0  0  0  0  0  0  0  0  0  0
    9.0160  -15.7337   27.5783 O   0  0  0  0  0  0  0  0  0  0  0  0
  2  1  1  6
  3  2  1  0
  3  4  1  0
  5  2  1  0
  6  5  2  0
  7  5  1  0
  8 13  1  0
  8  7  1  0
  8  9  1  6
 10  9  1  0
 11 10  1  0
 12 11  2  0
 13 14  2  0
 15 11  1  0
 17 16  1  6
 17 19  1  0
 17 18  1  0
 19 20  1  6
 20 13  1  0
 21 23  1  0
 21 19  1  0
 22 21  2  0
M  END
$$$$
