CET.pdb
     RDKit          3D

 23 22  0  0  1  0  0  0  0  0999 V2000
    7.2255  -15.1709   19.6544 N   0  0  0  0  0  0  0  0  0  0  0  0
    8.2896  -14.5527   20.4029 C   0  0  1  0  0  0  0  0  0  0  0  0
    7.8712  -13.1205   20.6776 C   0  0  0  0  0  0  0  0  0  0  0  0
    8.0826  -12.1546   19.1656 S   0  0  0  0  0  0  0  0  0  0  0  0
    8.5301  -15.2702   21.7071 C   0  0  0  0  0  0  0  0  0  0  0  0
    7.4994  -15.5840   22.3497 O   0  0  0  0  0  0  0  0  0  0  0  0
    9.8547  -15.5456   22.1295 N   0  0  0  0  0  0  0  0  0  0  0  0
   10.0982  -16.3057   23.3289 C   0  0  1  0  0  0  0  0  0  0  0  0
   11.1473  -17.3205   23.0187 C   0  0  0  0  0  0  0  0  0  0  0  0
   11.6115  -18.1702   24.1319 C   0  0  0  0  0  0  0  0  0  0  0  0
   12.7452  -19.0644   23.8171 C   0  0  0  0  0  0  0  0  0  0  0  0
   12.6194  -20.2905   23.8021 O   0  0  0  0  0  0  0  0  0  0  0  0
   10.3489  -15.4228   24.4597 C   0  0  0  0  0  0  0  0  0  0  0  0
   11.2525  -14.5451   24.4732 O   0  0  0  0  0  0  0  0  0  0  0  0
   14.0182  -18.5485   23.5210 O   0  0  0  0  0  0  0  0  0  0  0  0
    8.5921  -12.5623   26.1441 C   0  0  0  0  0  0  0  0  0  0  0  0
    8.6357  -13.7330   27.0861 C   0  0  1  0  0  0  0  0  0  0  0  0
    7.3880  -14.2966   27.1696 O   0  0  0  0  0  0  0  0  0  0  0  0
    9.7492  -14.6791   26.8088 C   0  0  2  0  0  0  0  0  0  0  0  0
    9.5664  -15.5108   25.6369 N   0  0  0  0  0  0  0  0  0  0  0  0
   10.0261  -15.5617   27.9694 C   0  0  0  0  0  0  0  0  0  0  0  0
    9.9362  -16.8246   27.8714 O   0  0  0  0  0  0  0  0  0  0  0  0
   10.3838  -15.0134   29.1753 O   0  0  0  0  0  0  0  0  0  0  0  0
  2  1  1  1
  3  2  1  0
  3  4  1  0
  5  2  1  0
  6  5  2  0
  7  5  1  0
  8 13  1  0
  8  7  1  0
  8  9  1  6
 10  9  1  0
 11 10  1  0
 12 11  2  0
 13 14  2  0
 15 11  1  0
 17 16  1  6
 17 19  1  0
 17 18  1  0
 19 20  1  6
 20 13  1  0
 21 23  1  0
 21 19  1  0
 22 21  2  0
M  END
$$$$
