CET.pdb
     RDKit          3D

 23 22  0  0  1  0  0  0  0  0999 V2000
    7.5961  -14.9059   17.9447 N   0  0  0  0  0  0  0  0  0  0  0  0
    8.6506  -14.4849   18.8311 C   0  0  1  0  0  0  0  0  0  0  0  0
    8.1886  -13.2043   19.5009 C   0  0  0  0  0  0  0  0  0  0  0  0
    8.2551  -11.8621   18.2935 S   0  0  0  0  0  0  0  0  0  0  0  0
    8.9355  -15.5312   19.8787 C   0  0  0  0  0  0  0  0  0  0  0  0
    7.9410  -16.1853   20.2743 O   0  0  0  0  0  0  0  0  0  0  0  0
   10.2593  -15.7198   20.3487 N   0  0  0  0  0  0  0  0  0  0  0  0
   10.5520  -16.7376   21.3255 C   0  0  1  0  0  0  0  0  0  0  0  0
   11.8206  -17.4085   20.9165 C   0  0  0  0  0  0  0  0  0  0  0  0
   12.3536  -18.4471   21.8187 C   0  0  0  0  0  0  0  0  0  0  0  0
   13.5962  -19.1052   21.3641 C   0  0  0  0  0  0  0  0  0  0  0  0
   13.8515  -20.2768   21.6497 O   0  0  0  0  0  0  0  0  0  0  0  0
   10.5006  -16.1911   22.6744 C   0  0  0  0  0  0  0  0  0  0  0  0
   11.0856  -15.1305   23.0209 O   0  0  0  0  0  0  0  0  0  0  0  0
   14.5406  -18.4167   20.5841 O   0  0  0  0  0  0  0  0  0  0  0  0
    8.0626  -15.3772   26.7713 C   0  0  0  0  0  0  0  0  0  0  0  0
    8.2017  -15.9450   25.3864 C   0  0  1  0  0  0  0  0  0  0  0  0
    7.5777  -15.1156   24.4896 O   0  0  0  0  0  0  0  0  0  0  0  0
    9.5949  -16.3325   25.0390 C   0  0  2  0  0  0  0  0  0  0  0  0
    9.7690  -16.8456   23.6955 N   0  0  0  0  0  0  0  0  0  0  0  0
   10.1461  -17.3263   25.9935 C   0  0  0  0  0  0  0  0  0  0  0  0
   10.3881  -18.5199   25.6338 O   0  0  0  0  0  0  0  0  0  0  0  0
   10.4000  -16.9599   27.2913 O   0  0  0  0  0  0  0  0  0  0  0  0
  2  1  1  6
  3  2  1  0
  3  4  1  0
  5  2  1  0
  6  5  2  0
  7  5  1  0
  8 13  1  0
  8  7  1  0
  8  9  1  6
 10  9  1  0
 11 10  1  0
 12 11  2  0
 13 14  2  0
 15 11  1  0
 17 16  1  1
 17 19  1  0
 17 18  1  0
 19 20  1  6
 20 13  1  0
 21 23  1  0
 21 19  1  0
 22 21  2  0
M  END
$$$$
