CET.pdb
     RDKit          3D

 23 22  0  0  1  0  0  0  0  0999 V2000
    7.2303  -16.2094   19.3260 N   0  0  0  0  0  0  0  0  0  0  0  0
    8.4513  -15.8193   19.9832 C   0  0  1  0  0  0  0  0  0  0  0  0
    8.6688  -14.3471   19.6877 C   0  0  0  0  0  0  0  0  0  0  0  0
    7.3526  -13.3964   20.4799 S   0  0  0  0  0  0  0  0  0  0  0  0
    8.3623  -16.0299   21.4736 C   0  0  0  0  0  0  0  0  0  0  0  0
    7.2040  -16.0069   21.9548 O   0  0  0  0  0  0  0  0  0  0  0  0
    9.5425  -16.2358   22.2308 N   0  0  0  0  0  0  0  0  0  0  0  0
    9.4693  -16.4912   23.6468 C   0  0  1  0  0  0  0  0  0  0  0  0
   10.5616  -17.4470   23.9933 C   0  0  0  0  0  0  0  0  0  0  0  0
   10.6760  -17.8544   25.4066 C   0  0  0  0  0  0  0  0  0  0  0  0
   11.8002  -18.7625   25.7159 C   0  0  0  0  0  0  0  0  0  0  0  0
   11.8035  -19.9390   25.3481 O   0  0  0  0  0  0  0  0  0  0  0  0
    9.4229  -15.2435   24.3965 C   0  0  0  0  0  0  0  0  0  0  0  0
   10.1923  -14.2698   24.1799 O   0  0  0  0  0  0  0  0  0  0  0  0
   12.9154  -18.3174   26.4456 O   0  0  0  0  0  0  0  0  0  0  0  0
    7.1105  -12.2523   24.8862 C   0  0  0  0  0  0  0  0  0  0  0  0
    7.1564  -13.0870   26.1356 C   0  0  1  0  0  0  0  0  0  0  0  0
    5.9901  -13.7997   26.2499 O   0  0  0  0  0  0  0  0  0  0  0  0
    8.4077  -13.8783   26.2772 C   0  0  2  0  0  0  0  0  0  0  0  0
    8.4826  -15.0576   25.4392 N   0  0  0  0  0  0  0  0  0  0  0  0
    8.6456  -14.2887   27.6834 C   0  0  0  0  0  0  0  0  0  0  0  0
    8.7151  -13.4300   28.6164 O   0  0  0  0  0  0  0  0  0  0  0  0
    8.7971  -15.6172   27.9916 O   0  0  0  0  0  0  0  0  0  0  0  0
  2  1  1  6
  3  2  1  0
  3  4  1  0
  5  2  1  0
  6  5  2  0
  7  5  1  0
  8 13  1  0
  8  7  1  0
  8  9  1  1
 10  9  1  0
 11 10  1  0
 12 11  2  0
 13 14  2  0
 15 11  1  0
 17 16  1  6
 17 19  1  0
 17 18  1  0
 19 20  1  6
 20 13  1  0
 21 23  1  0
 21 19  1  0
 22 21  2  0
M  END
$$$$
