PYE.pdb
     RDKit          3D

 29 30  0  0  1  0  0  0  0  0999 V2000
   18.2314  -17.5872    2.6839 N   0  0  0  0  0  0  0  0  0  0  0  0
   17.0502  -17.6390    1.8764 C   0  0  0  0  0  0  0  0  0  0  0  0
   16.0502  -16.6863    2.4606 C   0  0  0  0  0  0  0  0  0  0  0  0
   16.9134  -15.8192    3.3504 C   0  0  0  0  0  0  0  0  0  0  0  0
   17.9478  -16.7911    3.8390 C   0  0  1  0  0  0  0  0  0  0  0  0
   17.4230  -17.6599    4.9345 C   0  0  0  0  0  0  0  0  0  0  0  0
   16.9337  -17.1474    5.9533 O   0  0  0  0  0  0  0  0  0  0  0  0
   11.4553  -18.7692    2.8906 O   0  0  0  0  0  0  0  0  0  0  0  0
   12.6020  -19.3287    3.4409 C   0  0  0  0  0  0  0  0  0  0  0  0
   12.7783  -19.3921    4.8184 C   0  0  0  0  0  0  0  0  0  0  0  0
   13.9093  -19.9433    5.3946 C   0  0  0  0  0  0  0  0  0  0  0  0
   14.9121  -20.4550    4.5993 C   0  0  0  0  0  0  0  0  0  0  0  0
   16.1165  -21.0421    5.1885 C   0  0  0  0  0  0  0  0  0  0  0  0
   17.0007  -19.9781    5.8533 C   0  0  2  0  0  0  0  0  0  0  0  0
   17.4666  -19.0789    4.8462 N   0  0  0  0  0  0  0  0  0  0  0  0
   18.1085  -20.6619    6.5740 C   0  0  0  0  0  0  0  0  0  0  0  0
   19.1482  -20.9858    5.9470 O   0  0  0  0  0  0  0  0  0  0  0  0
   14.7531  -20.4001    3.2281 C   0  0  0  0  0  0  0  0  0  0  0  0
   13.6137  -19.8445    2.6582 C   0  0  0  0  0  0  0  0  0  0  0  0
   18.0445  -20.9697    7.9567 N   0  0  0  0  0  0  0  0  0  0  0  0
   19.1691  -21.6145    8.6756 C   0  0  1  0  0  0  0  0  0  0  0  0
   19.2239  -21.1332   10.0831 C   0  0  0  0  0  0  0  0  0  0  0  0
   20.3044  -21.8143   10.8774 C   0  0  0  0  0  0  0  0  0  0  0  0
   20.3189  -21.3154   12.2917 C   0  0  0  0  0  0  0  0  0  0  0  0
   19.3745  -20.5854   12.6718 O   0  0  0  0  0  0  0  0  0  0  0  0
   19.0866  -23.0747    8.4956 C   0  0  0  0  0  0  0  0  0  0  0  0
   17.9809  -23.6136    8.2932 O   0  0  0  0  0  0  0  0  0  0  0  0
   21.3247  -21.6311   13.1723 O   0  0  0  0  0  0  0  0  0  0  0  0
   20.2043  -23.9048    8.5405 O   0  0  0  0  0  0  0  0  0  0  0  0
  1  5  1  0
  2  3  1  0
  2  1  1  0
  3  4  1  0
  4  5  1  0
  5  6  1  1
  6  7  2  0
  8  9  1  0
  9 10  2  0
 10 11  1  0
 12 11  2  0
 12 13  1  0
 14 13  1  6
 14 15  1  0
 15  6  1  0
 16 14  1  0
 16 17  2  0
 18 12  1  0
 19  9  1  0
 19 18  2  0
 20 16  1  0
 21 20  1  0
 21 22  1  1
 22 23  1  0
 23 24  1  0
 24 25  2  0
 24 28  1  0
 26 21  1  0
 27 26  2  0
 29 26  1  0
M  END
$$$$
