PYE.pdb
     RDKit          3D

 29 30  0  0  1  0  0  0  0  0999 V2000
   26.6102  -19.7648  -18.1226 N   0  0  0  0  0  0  0  0  0  0  0  0
   27.0405  -18.5840  -18.8086 C   0  0  0  0  0  0  0  0  0  0  0  0
   27.8091  -17.7400  -17.8359 C   0  0  0  0  0  0  0  0  0  0  0  0
   28.1297  -18.7279  -16.7360 C   0  0  0  0  0  0  0  0  0  0  0  0
   26.9149  -19.6097  -16.7328 C   0  0  1  0  0  0  0  0  0  0  0  0
   25.7626  -18.9686  -16.0318 C   0  0  0  0  0  0  0  0  0  0  0  0
   25.8681  -18.6333  -14.8417 O   0  0  0  0  0  0  0  0  0  0  0  0
   27.6659  -13.3482  -16.1358 O   0  0  0  0  0  0  0  0  0  0  0  0
   26.5608  -14.1785  -16.2779 C   0  0  0  0  0  0  0  0  0  0  0  0
   26.2295  -14.7257  -17.5121 C   0  0  0  0  0  0  0  0  0  0  0  0
   25.1354  -15.5554  -17.6836 C   0  0  0  0  0  0  0  0  0  0  0  0
   24.3283  -15.8673  -16.6106 C   0  0  0  0  0  0  0  0  0  0  0  0
   23.1660  -16.7427  -16.7704 C   0  0  0  0  0  0  0  0  0  0  0  0
   23.3858  -18.1067  -16.1020 C   0  0  2  0  0  0  0  0  0  0  0  0
   24.5279  -18.7260  -16.6952 N   0  0  0  0  0  0  0  0  0  0  0  0
   22.1465  -18.9164  -16.2531 C   0  0  0  0  0  0  0  0  0  0  0  0
   21.8771  -19.4345  -17.3657 O   0  0  0  0  0  0  0  0  0  0  0  0
   24.6432  -15.3320  -15.3766 C   0  0  0  0  0  0  0  0  0  0  0  0
   25.7441  -14.4995  -15.2138 C   0  0  0  0  0  0  0  0  0  0  0  0
   21.2413  -19.1337  -15.1833 N   0  0  0  0  0  0  0  0  0  0  0  0
   20.0214  -19.9618  -15.3363 C   0  0  1  0  0  0  0  0  0  0  0  0
   20.0541  -21.1070  -14.3861 C   0  0  0  0  0  0  0  0  0  0  0  0
   19.0744  -20.9399  -13.2570 C   0  0  0  0  0  0  0  0  0  0  0  0
   18.7395  -22.2666  -12.6433 C   0  0  0  0  0  0  0  0  0  0  0  0
   19.3070  -23.2881  -13.0947 O   0  0  0  0  0  0  0  0  0  0  0  0
   18.8330  -19.0937  -15.2602 C   0  0  0  0  0  0  0  0  0  0  0  0
   18.8940  -18.0105  -14.6463 O   0  0  0  0  0  0  0  0  0  0  0  0
   17.8398  -22.3940  -11.6133 O   0  0  0  0  0  0  0  0  0  0  0  0
   17.6164  -19.4265  -15.8515 O   0  0  0  0  0  0  0  0  0  0  0  0
  1  5  1  0
  2  3  1  0
  2  1  1  0
  3  4  1  0
  4  5  1  0
  5  6  1  1
  6  7  2  0
  8  9  1  0
  9 10  2  0
 10 11  1  0
 12 11  2  0
 12 13  1  0
 14 13  1  6
 14 15  1  0
 15  6  1  0
 16 14  1  0
 16 17  2  0
 18 12  1  0
 19  9  1  0
 19 18  2  0
 20 16  1  0
 21 20  1  0
 21 22  1  1
 22 23  1  0
 23 24  1  0
 24 25  2  0
 24 28  1  0
 26 21  1  0
 27 26  2  0
 29 26  1  0
M  END
$$$$
