PYE.pdb
     RDKit          3D

 29 30  0  0  1  0  0  0  0  0999 V2000
   24.8412  -10.8953  -20.1715 N   0  0  0  0  0  0  0  0  0  0  0  0
   24.5680  -12.2773  -20.4275 C   0  0  0  0  0  0  0  0  0  0  0  0
   23.5420  -12.3499  -21.5189 C   0  0  0  0  0  0  0  0  0  0  0  0
   23.6101  -10.9622  -22.1175 C   0  0  0  0  0  0  0  0  0  0  0  0
   23.9062  -10.1097  -20.9180 C   0  0  1  0  0  0  0  0  0  0  0  0
   22.6848   -9.8617  -20.0951 C   0  0  0  0  0  0  0  0  0  0  0  0
   21.7085   -9.2792  -20.5925 O   0  0  0  0  0  0  0  0  0  0  0  0
   16.2265  -10.9363  -14.3605 O   0  0  0  0  0  0  0  0  0  0  0  0
   17.4524  -11.0184  -15.0096 C   0  0  0  0  0  0  0  0  0  0  0  0
   17.5289  -11.3532  -16.3566 C   0  0  0  0  0  0  0  0  0  0  0  0
   18.7351  -11.4425  -17.0291 C   0  0  0  0  0  0  0  0  0  0  0  0
   19.9177  -11.1962  -16.3651 C   0  0  0  0  0  0  0  0  0  0  0  0
   21.2042  -11.2855  -17.0575 C   0  0  0  0  0  0  0  0  0  0  0  0
   21.5057  -10.0142  -17.8629 C   0  0  2  0  0  0  0  0  0  0  0  0
   22.6033  -10.2786  -18.7376 N   0  0  0  0  0  0  0  0  0  0  0  0
   21.7796   -8.9022  -16.9127 C   0  0  0  0  0  0  0  0  0  0  0  0
   22.9015   -8.8295  -16.3516 O   0  0  0  0  0  0  0  0  0  0  0  0
   19.8597  -10.8621  -15.0259 C   0  0  0  0  0  0  0  0  0  0  0  0
   18.6437  -10.7748  -14.3587 C   0  0  0  0  0  0  0  0  0  0  0  0
   20.8186   -7.9055  -16.6064 N   0  0  0  0  0  0  0  0  0  0  0  0
   21.0870   -6.8223  -15.6308 C   0  0  1  0  0  0  0  0  0  0  0  0
   20.5661   -5.5260  -16.1446 C   0  0  0  0  0  0  0  0  0  0  0  0
   20.7670   -4.4020  -15.1655 C   0  0  0  0  0  0  0  0  0  0  0  0
   22.1023   -3.7508  -15.3707 C   0  0  0  0  0  0  0  0  0  0  0  0
   22.5913   -3.7533  -16.5240 O   0  0  0  0  0  0  0  0  0  0  0  0
   20.5985   -7.2334  -14.3027 C   0  0  0  0  0  0  0  0  0  0  0  0
   19.5041   -7.8209  -14.1985 O   0  0  0  0  0  0  0  0  0  0  0  0
   22.7969   -3.1587  -14.3443 O   0  0  0  0  0  0  0  0  0  0  0  0
   21.3111   -6.9950  -13.1297 O   0  0  0  0  0  0  0  0  0  0  0  0
  1  5  1  0
  2  3  1  0
  2  1  1  0
  3  4  1  0
  4  5  1  0
  5  6  1  1
  6  7  2  0
  8  9  1  0
  9 10  2  0
 10 11  1  0
 12 11  2  0
 12 13  1  0
 14 13  1  1
 14 15  1  0
 15  6  1  0
 16 14  1  0
 16 17  2  0
 18 12  1  0
 19  9  1  0
 19 18  2  0
 20 16  1  0
 21 20  1  0
 21 22  1  6
 22 23  1  0
 23 24  1  0
 24 25  2  0
 24 28  1  0
 26 21  1  0
 27 26  2  0
 29 26  1  0
M  END
$$$$
