PYE.pdb
     RDKit          3D

 29 30  0  0  1  0  0  0  0  0999 V2000
   44.6157  -11.6414   -6.3889 N   0  0  0  0  0  0  0  0  0  0  0  0
   44.3670  -12.9200   -6.9836 C   0  0  0  0  0  0  0  0  0  0  0  0
   44.7668  -12.8427   -8.4269 C   0  0  0  0  0  0  0  0  0  0  0  0
   45.6349  -11.6041   -8.4545 C   0  0  0  0  0  0  0  0  0  0  0  0
   44.9755  -10.7274   -7.4299 C   0  0  1  0  0  0  0  0  0  0  0  0
   43.7489  -10.0667   -7.9678 C   0  0  0  0  0  0  0  0  0  0  0  0
   43.8025   -9.4285   -9.0307 O   0  0  0  0  0  0  0  0  0  0  0  0
   35.5489   -6.6655   -7.3956 O   0  0  0  0  0  0  0  0  0  0  0  0
   36.6792   -7.4566   -7.2301 C   0  0  0  0  0  0  0  0  0  0  0  0
   37.2512   -8.1233   -8.3074 C   0  0  0  0  0  0  0  0  0  0  0  0
   38.3763   -8.9177   -8.1727 C   0  0  0  0  0  0  0  0  0  0  0  0
   38.9716   -9.0712   -6.9389 C   0  0  0  0  0  0  0  0  0  0  0  0
   40.1619   -9.9070   -6.7745 C   0  0  0  0  0  0  0  0  0  0  0  0
   41.3274   -9.4131   -7.6425 C   0  0  2  0  0  0  0  0  0  0  0  0
   42.5009  -10.1468   -7.2899 N   0  0  0  0  0  0  0  0  0  0  0  0
   41.4819   -7.9466   -7.4429 C   0  0  0  0  0  0  0  0  0  0  0  0
   41.9855   -7.5167   -6.3751 O   0  0  0  0  0  0  0  0  0  0  0  0
   38.4159   -8.4155   -5.8573 C   0  0  0  0  0  0  0  0  0  0  0  0
   37.2858   -7.6198   -6.0022 C   0  0  0  0  0  0  0  0  0  0  0  0
   41.0809   -6.9971   -8.4169 N   0  0  0  0  0  0  0  0  0  0  0  0
   41.3404   -5.5461   -8.2597 C   0  0  1  0  0  0  0  0  0  0  0  0
   42.7928   -5.2627   -8.4200 C   0  0  0  0  0  0  0  0  0  0  0  0
   43.3727   -4.5606   -7.2227 C   0  0  0  0  0  0  0  0  0  0  0  0
   44.3602   -3.5146   -7.6468 C   0  0  0  0  0  0  0  0  0  0  0  0
   44.5304   -3.3234   -8.8731 O   0  0  0  0  0  0  0  0  0  0  0  0
   40.4342   -4.7925   -9.1442 C   0  0  0  0  0  0  0  0  0  0  0  0
   39.8724   -5.3705  -10.0950 O   0  0  0  0  0  0  0  0  0  0  0  0
   45.0752   -2.7688   -6.7417 O   0  0  0  0  0  0  0  0  0  0  0  0
   40.1653   -3.4368   -8.9705 O   0  0  0  0  0  0  0  0  0  0  0  0
  1  5  1  0
  2  3  1  0
  2  1  1  0
  3  4  1  0
  4  5  1  0
  5  6  1  6
  6  7  2  0
  8  9  1  0
  9 10  2  0
 10 11  1  0
 12 11  2  0
 12 13  1  0
 14 13  1  1
 14 15  1  0
 15  6  1  0
 16 14  1  0
 16 17  2  0
 18 12  1  0
 19  9  1  0
 19 18  2  0
 20 16  1  0
 21 20  1  0
 21 22  1  6
 22 23  1  0
 23 24  1  0
 24 25  2  0
 24 28  1  0
 26 21  1  0
 27 26  2  0
 29 26  1  0
M  END
$$$$
