PYE.pdb
     RDKit          3D

 29 30  0  0  1  0  0  0  0  0999 V2000
   43.2927   -9.5460   -9.9861 N   0  0  0  0  0  0  0  0  0  0  0  0
   43.0825   -9.8495   -8.6027 C   0  0  0  0  0  0  0  0  0  0  0  0
   42.4617  -11.2120   -8.5187 C   0  0  0  0  0  0  0  0  0  0  0  0
   42.7535  -11.7836   -9.8887 C   0  0  0  0  0  0  0  0  0  0  0  0
   42.6681  -10.5696  -10.7675 C   0  0  1  0  0  0  0  0  0  0  0  0
   41.2532  -10.1902  -11.0580 C   0  0  0  0  0  0  0  0  0  0  0  0
   40.4833  -11.0137  -11.5768 O   0  0  0  0  0  0  0  0  0  0  0  0
   38.2796  -10.7727   -5.0616 O   0  0  0  0  0  0  0  0  0  0  0  0
   38.4636   -9.9951   -6.1985 C   0  0  0  0  0  0  0  0  0  0  0  0
   37.5973  -10.0926   -7.2812 C   0  0  0  0  0  0  0  0  0  0  0  0
   37.7557   -9.3314   -8.4260 C   0  0  0  0  0  0  0  0  0  0  0  0
   38.8000   -8.4370   -8.5236 C   0  0  0  0  0  0  0  0  0  0  0  0
   38.9857   -7.6225   -9.7255 C   0  0  0  0  0  0  0  0  0  0  0  0
   39.3975   -8.4764  -10.9326 C   0  0  2  0  0  0  0  0  0  0  0  0
   40.7515   -8.8943  -10.7543 N   0  0  0  0  0  0  0  0  0  0  0  0
   39.1986   -7.6768  -12.1717 C   0  0  0  0  0  0  0  0  0  0  0  0
   40.1113   -6.9085  -12.5661 O   0  0  0  0  0  0  0  0  0  0  0  0
   39.6705   -8.3275   -7.4564 C   0  0  0  0  0  0  0  0  0  0  0  0
   39.5036   -9.0962   -6.3107 C   0  0  0  0  0  0  0  0  0  0  0  0
   38.0085   -7.7425  -12.9399 N   0  0  0  0  0  0  0  0  0  0  0  0
   37.8297   -6.9634  -14.1883 C   0  0  1  0  0  0  0  0  0  0  0  0
   36.8279   -7.6245  -15.0686 C   0  0  0  0  0  0  0  0  0  0  0  0
   36.5874   -6.8544  -16.3381 C   0  0  0  0  0  0  0  0  0  0  0  0
   35.5063   -7.4987  -17.1537 C   0  0  0  0  0  0  0  0  0  0  0  0
   35.1223   -6.9157  -18.1939 O   0  0  0  0  0  0  0  0  0  0  0  0
   37.5599   -5.5555  -13.8472 C   0  0  0  0  0  0  0  0  0  0  0  0
   36.9862   -5.2752  -12.7766 O   0  0  0  0  0  0  0  0  0  0  0  0
   34.9314   -8.6945  -16.7988 O   0  0  0  0  0  0  0  0  0  0  0  0
   37.9201   -4.4959  -14.6767 O   0  0  0  0  0  0  0  0  0  0  0  0
  1  5  1  0
  2  3  1  0
  2  1  1  0
  3  4  1  0
  4  5  1  0
  5  6  1  1
  6  7  2  0
  8  9  1  0
  9 10  2  0
 10 11  1  0
 12 11  2  0
 12 13  1  0
 14 13  1  1
 14 15  1  0
 15  6  1  0
 16 14  1  0
 16 17  2  0
 18 12  1  0
 19  9  1  0
 19 18  2  0
 20 16  1  0
 21 20  1  0
 21 22  1  1
 22 23  1  0
 23 24  1  0
 24 25  2  0
 24 28  1  0
 26 21  1  0
 27 26  2  0
 29 26  1  0
M  END
$$$$
