PYE.pdb
     RDKit          3D

 29 30  0  0  1  0  0  0  0  0999 V2000
   27.5949  -19.3720  -17.4231 N   0  0  0  0  0  0  0  0  0  0  0  0
   28.7905  -18.7800  -16.9031 C   0  0  0  0  0  0  0  0  0  0  0  0
   29.7620  -19.8842  -16.6100 C   0  0  0  0  0  0  0  0  0  0  0  0
   29.1858  -21.0380  -17.4006 C   0  0  0  0  0  0  0  0  0  0  0  0
   27.7086  -20.7930  -17.2953 C   0  0  1  0  0  0  0  0  0  0  0  0
   27.1645  -21.2262  -15.9737 C   0  0  0  0  0  0  0  0  0  0  0  0
   27.1430  -22.4305  -15.6753 O   0  0  0  0  0  0  0  0  0  0  0  0
   24.0484  -21.0961   -7.7431 O   0  0  0  0  0  0  0  0  0  0  0  0
   24.6855  -20.8108   -8.9446 C   0  0  0  0  0  0  0  0  0  0  0  0
   24.2378  -19.7832   -9.7668 C   0  0  0  0  0  0  0  0  0  0  0  0
   24.8521  -19.4764  -10.9682 C   0  0  0  0  0  0  0  0  0  0  0  0
   25.9482  -20.1984  -11.3895 C   0  0  0  0  0  0  0  0  0  0  0  0
   26.6124  -19.8905  -12.6569 C   0  0  0  0  0  0  0  0  0  0  0  0
   25.9563  -20.6233  -13.8352 C   0  0  2  0  0  0  0  0  0  0  0  0
   26.6620  -20.2874  -15.0305 N   0  0  0  0  0  0  0  0  0  0  0  0
   24.5177  -20.2464  -13.8889 C   0  0  0  0  0  0  0  0  0  0  0  0
   24.1976  -19.0617  -14.1588 O   0  0  0  0  0  0  0  0  0  0  0  0
   26.4064  -21.2232  -10.5843 C   0  0  0  0  0  0  0  0  0  0  0  0
   25.7830  -21.5242   -9.3792 C   0  0  0  0  0  0  0  0  0  0  0  0
   23.4753  -21.1765  -13.6458 N   0  0  0  0  0  0  0  0  0  0  0  0
   22.0441  -20.8026  -13.7428 C   0  0  1  0  0  0  0  0  0  0  0  0
   21.3328  -21.7249  -14.6695 C   0  0  0  0  0  0  0  0  0  0  0  0
   19.8710  -21.3928  -14.7944 C   0  0  0  0  0  0  0  0  0  0  0  0
   19.1702  -22.3967  -15.6605 C   0  0  0  0  0  0  0  0  0  0  0  0
   17.9384  -22.2623  -15.8450 O   0  0  0  0  0  0  0  0  0  0  0  0
   21.4795  -20.6882  -12.3864 C   0  0  0  0  0  0  0  0  0  0  0  0
   21.8973  -21.4298  -11.4757 O   0  0  0  0  0  0  0  0  0  0  0  0
   19.8304  -23.4468  -16.2505 O   0  0  0  0  0  0  0  0  0  0  0  0
   20.4803  -19.7743  -12.0597 O   0  0  0  0  0  0  0  0  0  0  0  0
  1  5  1  0
  2  3  1  0
  2  1  1  0
  3  4  1  0
  4  5  1  0
  5  6  1  1
  6  7  2  0
  8  9  1  0
  9 10  2  0
 10 11  1  0
 12 11  2  0
 12 13  1  0
 14 13  1  1
 14 15  1  0
 15  6  1  0
 16 14  1  0
 16 17  2  0
 18 12  1  0
 19  9  1  0
 19 18  2  0
 20 16  1  0
 21 20  1  0
 21 22  1  6
 22 23  1  0
 23 24  1  0
 24 25  2  0
 24 28  1  0
 26 21  1  0
 27 26  2  0
 29 26  1  0
M  END
$$$$
