PYE.pdb
     RDKit          3D

 29 30  0  0  1  0  0  0  0  0999 V2000
   24.2061  -11.8534  -18.0483 N   0  0  0  0  0  0  0  0  0  0  0  0
   23.5341  -13.1140  -17.9505 C   0  0  0  0  0  0  0  0  0  0  0  0
   22.5881  -13.2232  -19.1090 C   0  0  0  0  0  0  0  0  0  0  0  0
   23.1073  -12.1585  -20.0499 C   0  0  0  0  0  0  0  0  0  0  0  0
   23.5939  -11.1018  -19.1013 C   0  0  1  0  0  0  0  0  0  0  0  0
   22.4702  -10.2859  -18.5517 C   0  0  0  0  0  0  0  0  0  0  0  0
   21.6273   -9.7937  -19.3180 O   0  0  0  0  0  0  0  0  0  0  0  0
   16.8867  -13.5131  -18.1848 O   0  0  0  0  0  0  0  0  0  0  0  0
   17.7880  -12.6754  -17.5393 C   0  0  0  0  0  0  0  0  0  0  0  0
   17.5238  -11.3191  -17.3880 C   0  0  0  0  0  0  0  0  0  0  0  0
   18.4023  -10.4611  -16.7500 C   0  0  0  0  0  0  0  0  0  0  0  0
   19.5884  -10.9407  -16.2369 C   0  0  0  0  0  0  0  0  0  0  0  0
   20.5317  -10.0502  -15.5588 C   0  0  0  0  0  0  0  0  0  0  0  0
   21.3421   -9.2135  -16.5582 C   0  0  2  0  0  0  0  0  0  0  0  0
   22.3329  -10.0509  -17.1555 N   0  0  0  0  0  0  0  0  0  0  0  0
   21.9273   -8.0489  -15.8401 C   0  0  0  0  0  0  0  0  0  0  0  0
   22.9721   -8.2025  -15.1593 O   0  0  0  0  0  0  0  0  0  0  0  0
   19.8668  -12.2864  -16.3786 C   0  0  0  0  0  0  0  0  0  0  0  0
   18.9784  -13.1406  -17.0209 C   0  0  0  0  0  0  0  0  0  0  0  0
   21.3516   -6.7539  -15.8892 N   0  0  0  0  0  0  0  0  0  0  0  0
   21.9742   -5.5865  -15.2206 C   0  0  1  0  0  0  0  0  0  0  0  0
   21.4925   -4.3215  -15.8396 C   0  0  0  0  0  0  0  0  0  0  0  0
   22.0103   -3.1033  -15.1251 C   0  0  0  0  0  0  0  0  0  0  0  0
   21.4035   -1.8554  -15.6942 C   0  0  0  0  0  0  0  0  0  0  0  0
   20.6362   -1.9656  -16.6783 O   0  0  0  0  0  0  0  0  0  0  0  0
   21.7866   -5.7046  -13.7638 C   0  0  0  0  0  0  0  0  0  0  0  0
   20.7904   -6.3030  -13.3129 O   0  0  0  0  0  0  0  0  0  0  0  0
   21.6608   -0.6101  -15.1750 O   0  0  0  0  0  0  0  0  0  0  0  0
   22.6840   -5.1709  -12.8418 O   0  0  0  0  0  0  0  0  0  0  0  0
  1  5  1  0
  2  3  1  0
  2  1  1  0
  3  4  1  0
  4  5  1  0
  5  6  1  1
  6  7  2  0
  8  9  1  0
  9 10  2  0
 10 11  1  0
 12 11  2  0
 12 13  1  0
 14 13  1  1
 14 15  1  0
 15  6  1  0
 16 14  1  0
 16 17  2  0
 18 12  1  0
 19  9  1  0
 19 18  2  0
 20 16  1  0
 21 20  1  0
 21 22  1  6
 22 23  1  0
 23 24  1  0
 24 25  2  0
 24 28  1  0
 26 21  1  0
 27 26  2  0
 29 26  1  0
M  END
$$$$
