PYE.pdb
     RDKit          3D

 29 30  0  0  1  0  0  0  0  0999 V2000
   24.5601  -11.0915  -16.0627 N   0  0  0  0  0  0  0  0  0  0  0  0
   23.8466  -12.1846  -15.4744 C   0  0  0  0  0  0  0  0  0  0  0  0
   22.9171  -12.7402  -16.5118 C   0  0  0  0  0  0  0  0  0  0  0  0
   23.4856  -12.1693  -17.7922 C   0  0  0  0  0  0  0  0  0  0  0  0
   23.9899  -10.8268  -17.3485 C   0  0  1  0  0  0  0  0  0  0  0  0
   22.8838   -9.8321  -17.2152 C   0  0  0  0  0  0  0  0  0  0  0  0
   22.2014   -9.5256  -18.2053 O   0  0  0  0  0  0  0  0  0  0  0  0
   17.2462  -13.0440  -16.3754 O   0  0  0  0  0  0  0  0  0  0  0  0
   18.0814  -12.0254  -15.9329 C   0  0  0  0  0  0  0  0  0  0  0  0
   18.0137  -10.7520  -16.4863 C   0  0  0  0  0  0  0  0  0  0  0  0
   18.8325   -9.7185  -16.0660 C   0  0  0  0  0  0  0  0  0  0  0  0
   19.7566   -9.9307  -15.0655 C   0  0  0  0  0  0  0  0  0  0  0  0
   20.6323   -8.8514  -14.6064 C   0  0  0  0  0  0  0  0  0  0  0  0
   21.5052   -8.3048  -15.7444 C   0  0  2  0  0  0  0  0  0  0  0  0
   22.5826   -9.2148  -15.9695 N   0  0  0  0  0  0  0  0  0  0  0  0
   21.9698   -6.9402  -15.3751 C   0  0  0  0  0  0  0  0  0  0  0  0
   22.8968   -6.8073  -14.5374 O   0  0  0  0  0  0  0  0  0  0  0  0
   19.8372  -11.1906  -14.5045 C   0  0  0  0  0  0  0  0  0  0  0  0
   19.0107  -12.2225  -14.9330 C   0  0  0  0  0  0  0  0  0  0  0  0
   21.4062   -5.7647  -15.9332 N   0  0  0  0  0  0  0  0  0  0  0  0
   21.8757   -4.4091  -15.5600 C   0  0  1  0  0  0  0  0  0  0  0  0
   21.6313   -3.4545  -16.6756 C   0  0  0  0  0  0  0  0  0  0  0  0
   22.0431   -2.0507  -16.3259 C   0  0  0  0  0  0  0  0  0  0  0  0
   21.7396   -1.1111  -17.4548 C   0  0  0  0  0  0  0  0  0  0  0  0
   21.1670   -1.5704  -18.4699 O   0  0  0  0  0  0  0  0  0  0  0  0
   21.3000   -4.0382  -14.2553 C   0  0  0  0  0  0  0  0  0  0  0  0
   21.7993   -3.1028  -13.5999 O   0  0  0  0  0  0  0  0  0  0  0  0
   22.0668    0.2222  -17.4096 O   0  0  0  0  0  0  0  0  0  0  0  0
   20.2017   -4.6924  -13.7019 O   0  0  0  0  0  0  0  0  0  0  0  0
  1  5  1  0
  2  3  1  0
  2  1  1  0
  3  4  1  0
  4  5  1  0
  5  6  1  1
  6  7  2  0
  8  9  1  0
  9 10  2  0
 10 11  1  0
 12 11  2  0
 12 13  1  0
 14 13  1  1
 14 15  1  0
 15  6  1  0
 16 14  1  0
 16 17  2  0
 18 12  1  0
 19  9  1  0
 19 18  2  0
 20 16  1  0
 21 20  1  0
 21 22  1  6
 22 23  1  0
 23 24  1  0
 24 25  2  0
 24 28  1  0
 26 21  1  0
 27 26  2  0
 29 26  1  0
M  END
$$$$
