PYE.pdb
     RDKit          3D

 29 30  0  0  1  0  0  0  0  0999 V2000
   21.0206  -11.1336  -17.3292 N   0  0  0  0  0  0  0  0  0  0  0  0
   20.5332  -12.1837  -16.4868 C   0  0  0  0  0  0  0  0  0  0  0  0
   19.0348  -12.1627  -16.5440 C   0  0  0  0  0  0  0  0  0  0  0  0
   18.7716  -11.3378  -17.7845 C   0  0  0  0  0  0  0  0  0  0  0  0
   19.9022  -10.3506  -17.7590 C   0  0  1  0  0  0  0  0  0  0  0  0
   19.6555   -9.2457  -16.7850 C   0  0  0  0  0  0  0  0  0  0  0  0
   18.6433   -8.5361  -16.8940 O   0  0  0  0  0  0  0  0  0  0  0  0
   18.5267   -5.9545   -8.9960 O   0  0  0  0  0  0  0  0  0  0  0  0
   19.1493   -6.5432  -10.0900 C   0  0  0  0  0  0  0  0  0  0  0  0
   20.1043   -5.8534  -10.8279 C   0  0  0  0  0  0  0  0  0  0  0  0
   20.7405   -6.4138  -11.9216 C   0  0  0  0  0  0  0  0  0  0  0  0
   20.4364   -7.6992  -12.3157 C   0  0  0  0  0  0  0  0  0  0  0  0
   21.0974   -8.3106  -13.4697 C   0  0  0  0  0  0  0  0  0  0  0  0
   20.4317   -7.8989  -14.7900 C   0  0  2  0  0  0  0  0  0  0  0  0
   20.5581   -8.9760  -15.7192 N   0  0  0  0  0  0  0  0  0  0  0  0
   21.0671   -6.6428  -15.2724 C   0  0  0  0  0  0  0  0  0  0  0  0
   22.2211   -6.6832  -15.7677 O   0  0  0  0  0  0  0  0  0  0  0  0
   19.4894   -8.3991  -11.5933 C   0  0  0  0  0  0  0  0  0  0  0  0
   18.8555   -7.8281  -10.4962 C   0  0  0  0  0  0  0  0  0  0  0  0
   20.4207   -5.3828  -15.1980 N   0  0  0  0  0  0  0  0  0  0  0  0
   21.0586   -4.1373  -15.6873 C   0  0  1  0  0  0  0  0  0  0  0  0
   20.3974   -3.6779  -16.9392 C   0  0  0  0  0  0  0  0  0  0  0  0
   20.9839   -2.3928  -17.4558 C   0  0  0  0  0  0  0  0  0  0  0  0
   20.3018   -1.9686  -18.7223 C   0  0  0  0  0  0  0  0  0  0  0  0
   19.9543   -2.8573  -19.5340 O   0  0  0  0  0  0  0  0  0  0  0  0
   21.1136   -3.1564  -14.5890 C   0  0  0  0  0  0  0  0  0  0  0  0
   21.9346   -2.2196  -14.6341 O   0  0  0  0  0  0  0  0  0  0  0  0
   20.0497   -0.6506  -19.0156 O   0  0  0  0  0  0  0  0  0  0  0  0
   20.2775   -3.2216  -13.4767 O   0  0  0  0  0  0  0  0  0  0  0  0
  1  5  1  0
  2  3  1  0
  2  1  1  0
  3  4  1  0
  4  5  1  0
  5  6  1  1
  6  7  2  0
  8  9  1  0
  9 10  2  0
 10 11  1  0
 12 11  2  0
 12 13  1  0
 14 13  1  1
 14 15  1  0
 15  6  1  0
 16 14  1  0
 16 17  2  0
 18 12  1  0
 19  9  1  0
 19 18  2  0
 20 16  1  0
 21 20  1  0
 21 22  1  6
 22 23  1  0
 23 24  1  0
 24 25  2  0
 24 28  1  0
 26 21  1  0
 27 26  2  0
 29 26  1  0
M  END
$$$$
