PYE.pdb
     RDKit          3D

 29 30  0  0  1  0  0  0  0  0999 V2000
   24.6804  -10.2824  -19.1162 N   0  0  0  0  0  0  0  0  0  0  0  0
   24.3620  -11.6768  -19.1827 C   0  0  0  0  0  0  0  0  0  0  0  0
   23.1666  -11.8347  -20.0744 C   0  0  0  0  0  0  0  0  0  0  0  0
   23.1390  -10.5146  -20.8125 C   0  0  0  0  0  0  0  0  0  0  0  0
   23.6365   -9.5546  -19.7713 C   0  0  1  0  0  0  0  0  0  0  0  0
   22.5722   -9.2009  -18.7851 C   0  0  0  0  0  0  0  0  0  0  0  0
   21.3797   -9.2092  -19.1285 O   0  0  0  0  0  0  0  0  0  0  0  0
   20.0047  -14.5307  -16.5679 O   0  0  0  0  0  0  0  0  0  0  0  0
   20.5088  -13.2761  -16.2474 C   0  0  0  0  0  0  0  0  0  0  0  0
   19.6837  -12.1577  -16.2211 C   0  0  0  0  0  0  0  0  0  0  0  0
   20.1576  -10.8963  -15.9055 C   0  0  0  0  0  0  0  0  0  0  0  0
   21.4897  -10.7132  -15.6025 C   0  0  0  0  0  0  0  0  0  0  0  0
   22.0114   -9.3875  -15.2664 C   0  0  0  0  0  0  0  0  0  0  0  0
   21.9380   -8.4279  -16.4620 C   0  0  2  0  0  0  0  0  0  0  0  0
   22.8865   -8.8491  -17.4432 N   0  0  0  0  0  0  0  0  0  0  0  0
   22.1854   -7.0430  -15.9772 C   0  0  0  0  0  0  0  0  0  0  0  0
   23.3546   -6.6898  -15.6820 O   0  0  0  0  0  0  0  0  0  0  0  0
   22.3238  -11.8142  -15.6240 C   0  0  0  0  0  0  0  0  0  0  0  0
   21.8390  -13.0773  -15.9420 C   0  0  0  0  0  0  0  0  0  0  0  0
   21.1469   -6.0885  -15.8304 N   0  0  0  0  0  0  0  0  0  0  0  0
   21.4045   -4.7066  -15.3600 C   0  0  1  0  0  0  0  0  0  0  0  0
   20.2856   -3.8099  -15.7595 C   0  0  0  0  0  0  0  0  0  0  0  0
   20.4389   -2.4221  -15.2002 C   0  0  0  0  0  0  0  0  0  0  0  0
   19.2766   -1.5595  -15.5927 C   0  0  0  0  0  0  0  0  0  0  0  0
   18.4513   -1.2388  -14.7066 O   0  0  0  0  0  0  0  0  0  0  0  0
   21.7267   -4.7355  -13.9224 C   0  0  0  0  0  0  0  0  0  0  0  0
   22.4968   -3.8812  -13.4417 O   0  0  0  0  0  0  0  0  0  0  0  0
   19.0920   -1.1158  -16.8794 O   0  0  0  0  0  0  0  0  0  0  0  0
   21.2046   -5.6888  -13.0512 O   0  0  0  0  0  0  0  0  0  0  0  0
  1  5  1  0
  2  3  1  0
  2  1  1  0
  3  4  1  0
  4  5  1  0
  5  6  1  1
  6  7  2  0
  8  9  1  0
  9 10  2  0
 10 11  1  0
 12 11  2  0
 12 13  1  0
 14 13  1  1
 14 15  1  0
 15  6  1  0
 16 14  1  0
 16 17  2  0
 18 12  1  0
 19  9  1  0
 19 18  2  0
 20 16  1  0
 21 20  1  0
 21 22  1  1
 22 23  1  0
 23 24  1  0
 24 25  2  0
 24 28  1  0
 26 21  1  0
 27 26  2  0
 29 26  1  0
M  END
$$$$
