TAG.pdb
     RDKit          3D

 17 16  0  0  1  0  0  0  0  0999 V2000
   24.2718  -11.6167  -14.7612 C   0  0  0  0  0  0  0  0  0  0  0  0
   24.0525  -12.2010  -16.1145 C   0  0  1  0  0  0  0  0  0  0  0  0
   24.3747  -13.5693  -16.0583 O   0  0  0  0  0  0  0  0  0  0  0  0
   22.6244  -12.1183  -16.5918 C   0  0  2  0  0  0  0  0  0  0  0  0
   22.5972  -12.7227  -17.9259 N   0  0  0  0  0  0  0  0  0  0  0  0
   22.1448  -10.7163  -16.6811 C   0  0  0  0  0  0  0  0  0  0  0  0
   22.6896   -9.9364  -17.5029 O   0  0  0  0  0  0  0  0  0  0  0  0
   19.2203   -8.6801  -15.7128 C   0  0  0  0  0  0  0  0  0  0  0  0
   20.7105   -8.8024  -15.9557 C   0  0  2  0  0  0  0  0  0  0  0  0
   21.0925  -10.1862  -15.8863 N   0  0  0  0  0  0  0  0  0  0  0  0
   21.4565   -7.9355  -15.0285 C   0  0  0  0  0  0  0  0  0  0  0  0
   21.7674   -8.2800  -13.8545 O   0  0  0  0  0  0  0  0  0  0  0  0
   21.8325   -6.6493  -15.5085 N   0  0  0  0  0  0  0  0  0  0  0  0
   22.6569   -5.7689  -14.7066 C   0  0  0  0  0  0  0  0  0  0  0  0
   21.7888   -4.8707  -13.8869 C   0  0  0  0  0  0  0  0  0  0  0  0
   22.3281   -4.0011  -13.1694 O   0  0  0  0  0  0  0  0  0  0  0  0
   20.4124   -4.9892  -13.9128 O   0  0  0  0  0  0  0  0  0  0  0  0
  2  3  1  0
  2  1  1  1
  4  2  1  0
  4  5  1  6
  6 10  1  0
  6  4  1  0
  7  6  2  0
  9  8  1  1
  9 10  1  0
  9 11  1  0
 11 12  2  0
 13 11  1  0
 13 14  1  0
 14 15  1  0
 15 17  1  0
 16 15  2  0
M  END
$$$$
