TAG.pdb
     RDKit          3D

 17 16  0  0  1  0  0  0  0  0999 V2000
   23.5954  -13.7836  -14.7022 C   0  0  0  0  0  0  0  0  0  0  0  0
   23.4119  -12.3448  -15.0442 C   0  0  1  0  0  0  0  0  0  0  0  0
   24.6259  -11.8598  -15.5638 O   0  0  0  0  0  0  0  0  0  0  0  0
   22.3658  -12.0965  -16.1017 C   0  0  2  0  0  0  0  0  0  0  0  0
   22.9076  -12.6288  -17.3543 N   0  0  0  0  0  0  0  0  0  0  0  0
   22.0738  -10.6510  -16.2713 C   0  0  0  0  0  0  0  0  0  0  0  0
   22.7942   -9.9698  -17.0442 O   0  0  0  0  0  0  0  0  0  0  0  0
   19.2754   -8.3101  -15.7031 C   0  0  0  0  0  0  0  0  0  0  0  0
   20.7631   -8.5729  -15.8133 C   0  0  2  0  0  0  0  0  0  0  0  0
   21.0162   -9.9725  -15.6072 N   0  0  0  0  0  0  0  0  0  0  0  0
   21.5105   -7.6954  -14.8973 C   0  0  0  0  0  0  0  0  0  0  0  0
   21.8439   -8.0353  -13.7281 O   0  0  0  0  0  0  0  0  0  0  0  0
   21.8610   -6.4040  -15.3827 N   0  0  0  0  0  0  0  0  0  0  0  0
   22.6135   -5.4800  -14.5596 C   0  0  0  0  0  0  0  0  0  0  0  0
   21.6752   -4.5969  -13.8032 C   0  0  0  0  0  0  0  0  0  0  0  0
   22.1471   -3.6807  -13.0963 O   0  0  0  0  0  0  0  0  0  0  0  0
   20.3075   -4.7798  -13.8755 O   0  0  0  0  0  0  0  0  0  0  0  0
  2  3  1  0
  2  1  1  6
  4  2  1  0
  4  5  1  6
  6 10  1  0
  6  4  1  0
  7  6  2  0
  9  8  1  1
  9 10  1  0
  9 11  1  0
 11 12  2  0
 13 11  1  0
 13 14  1  0
 14 15  1  0
 15 17  1  0
 16 15  2  0
M  END
$$$$
