TAG.pdb
     RDKit          3D

 17 16  0  0  1  0  0  0  0  0999 V2000
   15.6944  -10.6082  -16.9233 C   0  0  0  0  0  0  0  0  0  0  0  0
   16.9312   -9.9664  -16.3947 C   0  0  1  0  0  0  0  0  0  0  0  0
   16.6870   -9.5731  -15.0662 O   0  0  0  0  0  0  0  0  0  0  0  0
   18.1270  -10.8843  -16.3549 C   0  0  2  0  0  0  0  0  0  0  0  0
   17.7856  -11.9708  -15.4337 N   0  0  0  0  0  0  0  0  0  0  0  0
   19.3462  -10.1936  -15.8647 C   0  0  0  0  0  0  0  0  0  0  0  0
   19.5758  -10.1650  -14.6290 O   0  0  0  0  0  0  0  0  0  0  0  0
   22.4349   -8.6441  -17.3243 C   0  0  0  0  0  0  0  0  0  0  0  0
   21.4621   -8.9045  -16.1928 C   0  0  2  0  0  0  0  0  0  0  0  0
   20.2885   -9.5510  -16.7127 N   0  0  0  0  0  0  0  0  0  0  0  0
   21.1764   -7.6586  -15.4620 C   0  0  0  0  0  0  0  0  0  0  0  0
   20.1810   -6.9222  -15.7081 O   0  0  0  0  0  0  0  0  0  0  0  0
   22.0867   -7.2917  -14.4310 N   0  0  0  0  0  0  0  0  0  0  0  0
   21.8023   -6.1773  -13.5508 C   0  0  0  0  0  0  0  0  0  0  0  0
   22.0579   -4.8903  -14.2655 C   0  0  0  0  0  0  0  0  0  0  0  0
   22.4851   -4.9269  -15.4394 O   0  0  0  0  0  0  0  0  0  0  0  0
   21.8299   -3.6742  -13.6504 O   0  0  0  0  0  0  0  0  0  0  0  0
  2  3  1  0
  2  1  1  1
  4  2  1  0
  4  5  1  1
  6 10  1  0
  6  4  1  0
  7  6  2  0
  9  8  1  6
  9 10  1  0
  9 11  1  0
 11 12  2  0
 13 11  1  0
 13 14  1  0
 14 15  1  0
 15 17  1  0
 16 15  2  0
M  END
$$$$
