TAG.pdb
     RDKit          3D

 17 16  0  0  1  0  0  0  0  0999 V2000
   15.2701  -10.9858  -14.8023 C   0  0  0  0  0  0  0  0  0  0  0  0
   16.7227  -10.7690  -14.5497 C   0  0  1  0  0  0  0  0  0  0  0  0
   17.4250  -11.8809  -15.0492 O   0  0  0  0  0  0  0  0  0  0  0  0
   17.2901   -9.5578  -15.2465 C   0  0  2  0  0  0  0  0  0  0  0  0
   17.1126   -9.7844  -16.6828 N   0  0  0  0  0  0  0  0  0  0  0  0
   18.7338   -9.3708  -14.9564 C   0  0  0  0  0  0  0  0  0  0  0  0
   19.0875   -9.0741  -13.7870 O   0  0  0  0  0  0  0  0  0  0  0  0
   22.0304   -9.7632  -16.6974 C   0  0  0  0  0  0  0  0  0  0  0  0
   21.1263   -9.1537  -15.6460 C   0  0  2  0  0  0  0  0  0  0  0  0
   19.7620   -9.5067  -15.9282 N   0  0  0  0  0  0  0  0  0  0  0  0
   21.3539   -7.7023  -15.5494 C   0  0  0  0  0  0  0  0  0  0  0  0
   20.7673   -6.8575  -16.2814 O   0  0  0  0  0  0  0  0  0  0  0  0
   22.2886   -7.2591  -14.5715 N   0  0  0  0  0  0  0  0  0  0  0  0
   22.6194   -5.8549  -14.4429 C   0  0  0  0  0  0  0  0  0  0  0  0
   21.7807   -5.2336  -13.3738 C   0  0  0  0  0  0  0  0  0  0  0  0
   20.8937   -5.9229  -12.8262 O   0  0  0  0  0  0  0  0  0  0  0  0
   21.9726   -3.9207  -12.9882 O   0  0  0  0  0  0  0  0  0  0  0  0
  2  3  1  0
  2  1  1  6
  4  2  1  0
  4  5  1  6
  6 10  1  0
  6  4  1  0
  7  6  2  0
  9  8  1  6
  9 10  1  0
  9 11  1  0
 11 12  2  0
 13 11  1  0
 13 14  1  0
 14 15  1  0
 15 17  1  0
 16 15  2  0
M  END
$$$$
