TAG.pdb
     RDKit          3D

 17 16  0  0  1  0  0  0  0  0999 V2000
   17.7368  -13.8850  -15.7378 C   0  0  0  0  0  0  0  0  0  0  0  0
   18.4186  -12.5884  -16.0119 C   0  0  1  0  0  0  0  0  0  0  0  0
   18.0813  -12.1832  -17.3162 O   0  0  0  0  0  0  0  0  0  0  0  0
   17.9948  -11.4691  -15.0945 C   0  0  2  0  0  0  0  0  0  0  0  0
   16.5805  -11.2134  -15.3777 N   0  0  0  0  0  0  0  0  0  0  0  0
   18.7725  -10.2270  -15.3312 C   0  0  0  0  0  0  0  0  0  0  0  0
   19.9754  -10.1821  -14.9685 O   0  0  0  0  0  0  0  0  0  0  0  0
   18.2387   -6.8672  -16.9395 C   0  0  0  0  0  0  0  0  0  0  0  0
   19.0076   -7.8569  -16.0888 C   0  0  2  0  0  0  0  0  0  0  0  0
   18.2401   -9.0642  -15.9512 N   0  0  0  0  0  0  0  0  0  0  0  0
   19.3859   -7.2467  -14.8033 C   0  0  0  0  0  0  0  0  0  0  0  0
   18.6735   -7.3202  -13.7638 O   0  0  0  0  0  0  0  0  0  0  0  0
   20.6234   -6.5445  -14.7614 N   0  0  0  0  0  0  0  0  0  0  0  0
   21.0933   -5.9403  -13.5319 C   0  0  0  0  0  0  0  0  0  0  0  0
   22.3552   -5.1831  -13.7905 C   0  0  0  0  0  0  0  0  0  0  0  0
   22.8984   -5.2813  -14.9118 O   0  0  0  0  0  0  0  0  0  0  0  0
   22.9217   -4.3848  -12.8153 O   0  0  0  0  0  0  0  0  0  0  0  0
  2  3  1  0
  2  1  1  1
  4  2  1  0
  4  5  1  6
  6 10  1  0
  6  4  1  0
  7  6  2  0
  9  8  1  6
  9 10  1  0
  9 11  1  0
 11 12  2  0
 13 11  1  0
 13 14  1  0
 14 15  1  0
 15 17  1  0
 16 15  2  0
M  END
$$$$
