VEK.pdb
     RDKit          3D

 26 25  0  0  1  0  0  0  0  0999 V2000
    9.1175  -12.7571   20.2278 C   0  0  0  0  0  0  0  0  0  0  0  0
    8.0681  -13.5231   19.4537 C   0  0  1  0  0  0  0  0  0  0  0  0
    7.6563  -12.7178   18.2693 C   0  0  0  0  0  0  0  0  0  0  0  0
    8.5582  -14.9059   19.1244 C   0  0  2  0  0  0  0  0  0  0  0  0
    7.5888  -15.5458   18.2663 N   0  0  0  0  0  0  0  0  0  0  0  0
    8.7307  -15.7506   20.3407 C   0  0  0  0  0  0  0  0  0  0  0  0
    7.7217  -16.1038   20.9758 O   0  0  0  0  0  0  0  0  0  0  0  0
   10.0125  -16.1645   20.7966 N   0  0  0  0  0  0  0  0  0  0  0  0
   10.3314  -16.9517   21.9307 C   0  0  1  0  0  0  0  0  0  0  0  0
   11.4615  -17.8929   21.7990 C   0  0  0  0  0  0  0  0  0  0  0  0
   12.6438  -17.2111   21.1586 C   0  0  0  0  0  0  0  0  0  0  0  0
   13.7696  -18.1473   20.9856 C   0  0  0  0  0  0  0  0  0  0  0  0
   14.5545  -18.0359   20.0197 O   0  0  0  0  0  0  0  0  0  0  0  0
   10.3417  -16.1512   23.1981 C   0  0  0  0  0  0  0  0  0  0  0  0
   11.1374  -15.1932   23.3209 O   0  0  0  0  0  0  0  0  0  0  0  0
   13.9753  -19.1683   21.8943 O   0  0  0  0  0  0  0  0  0  0  0  0
    9.4962  -16.4174   24.2746 N   0  0  0  0  0  0  0  0  0  0  0  0
    9.5256  -15.5766   25.5355 C   0  0  1  0  0  0  0  0  0  0  0  0
    8.2538  -14.8078   25.4089 C   0  0  0  0  0  0  0  0  0  0  0  0
    7.9014  -13.7035   26.2798 C   0  0  0  0  0  0  0  0  0  0  0  0
    6.6280  -12.9802   26.1875 C   0  0  0  0  0  0  0  0  0  0  0  0
    6.4581  -11.8349   27.1611 C   0  0  0  0  0  0  0  0  0  0  0  0
    5.1980  -11.1682   27.0390 N   0  0  0  0  0  0  0  0  0  0  0  0
    9.6441  -16.4962   26.6671 C   0  0  0  0  0  0  0  0  0  0  0  0
    9.6171  -17.8868   26.3761 O   0  0  0  0  0  0  0  0  0  0  0  0
    9.7664  -16.1615   27.8631 O   0  0  0  0  0  0  0  0  0  0  0  0
  2  4  1  0
  2  1  1  6
  3  2  1  0
  4  6  1  0
  4  5  1  6
  6  7  2  0
  8  9  1  0
  8  6  1  0
  9 10  1  6
 11 10  1  0
 12 11  1  0
 12 13  2  0
 14 15  2  0
 14  9  1  0
 16 12  1  0
 17 14  1  0
 18 17  1  0
 18 24  1  0
 18 19  1  1
 20 19  1  0
 21 20  1  0
 22 21  1  0
 23 22  1  0
 24 25  1  0
 26 24  2  0
M  END
$$$$
