VEK.pdb
     RDKit          3D

 26 25  0  0  1  0  0  0  0  0999 V2000
    7.7924  -11.9277   19.0734 C   0  0  0  0  0  0  0  0  0  0  0  0
    8.8289  -12.8972   19.5958 C   0  0  1  0  0  0  0  0  0  0  0  0
    8.4511  -13.3124   20.9763 C   0  0  0  0  0  0  0  0  0  0  0  0
    9.0184  -14.0376   18.6344 C   0  0  2  0  0  0  0  0  0  0  0  0
    7.7572  -14.7238   18.4796 N   0  0  0  0  0  0  0  0  0  0  0  0
   10.0273  -15.0236   19.1164 C   0  0  0  0  0  0  0  0  0  0  0  0
    9.6817  -15.8789   19.9502 O   0  0  0  0  0  0  0  0  0  0  0  0
   11.3715  -15.0162   18.6527 N   0  0  0  0  0  0  0  0  0  0  0  0
   12.4389  -15.8664   19.0340 C   0  0  1  0  0  0  0  0  0  0  0  0
   13.4456  -16.1851   18.0019 C   0  0  0  0  0  0  0  0  0  0  0  0
   14.3347  -17.3122   18.4627 C   0  0  0  0  0  0  0  0  0  0  0  0
   15.3397  -17.6511   17.4385 C   0  0  0  0  0  0  0  0  0  0  0  0
   16.4771  -17.1341   17.4595 O   0  0  0  0  0  0  0  0  0  0  0  0
   13.0190  -15.4943   20.3653 C   0  0  0  0  0  0  0  0  0  0  0  0
   13.4251  -14.3270   20.5612 O   0  0  0  0  0  0  0  0  0  0  0  0
   15.0375  -18.5508   16.4336 O   0  0  0  0  0  0  0  0  0  0  0  0
   13.1354  -16.3942   21.4242 N   0  0  0  0  0  0  0  0  0  0  0  0
   13.6514  -15.9613   22.7822 C   0  0  1  0  0  0  0  0  0  0  0  0
   13.0537  -16.9992   23.6710 C   0  0  0  0  0  0  0  0  0  0  0  0
   11.6489  -17.0273   24.0288 C   0  0  0  0  0  0  0  0  0  0  0  0
   11.0664  -18.0324   24.9254 C   0  0  0  0  0  0  0  0  0  0  0  0
    9.5842  -17.8871   25.1904 C   0  0  0  0  0  0  0  0  0  0  0  0
    9.0796  -18.8398   26.1312 N   0  0  0  0  0  0  0  0  0  0  0  0
   15.1110  -15.9116   22.6956 C   0  0  0  0  0  0  0  0  0  0  0  0
   15.7908  -15.1348   23.6721 O   0  0  0  0  0  0  0  0  0  0  0  0
   15.8062  -16.4929   21.8376 O   0  0  0  0  0  0  0  0  0  0  0  0
  2  4  1  0
  2  1  1  6
  3  2  1  0
  4  6  1  0
  4  5  1  1
  6  7  2  0
  8  9  1  0
  8  6  1  0
  9 10  1  6
 11 10  1  0
 12 11  1  0
 12 13  2  0
 14 15  2  0
 14  9  1  0
 16 12  1  0
 17 14  1  0
 18 17  1  0
 18 24  1  0
 18 19  1  1
 20 19  1  0
 21 20  1  0
 22 21  1  0
 23 22  1  0
 24 25  1  0
 26 24  2  0
M  END
$$$$
