VEK.pdb
     RDKit          3D

 26 25  0  0  1  0  0  0  0  0999 V2000
-171996.3594-132958.812560376.7305 C   0  0  0  0  0  0  0  0  0  0  0  0
-171997.3438-132957.718860376.6328 C   0  0  1  0  0  0  0  0  0  0  0  0
-171996.6875-132956.500060376.2461 C   0  0  0  0  0  0  0  0  0  0  0  0
-171998.5156-132958.109460375.7188 C   0  0  2  0  0  0  0  0  0  0  0  0
-171997.9219-132958.468860374.4336 N   0  0  0  0  0  0  0  0  0  0  0  0
-171999.4219-132957.031260375.5078 C   0  0  0  0  0  0  0  0  0  0  0  0
-172000.3750-132956.921960376.3398 O   0  0  0  0  0  0  0  0  0  0  0  0
-171999.3906-132956.156260374.3711 N   0  0  0  0  0  0  0  0  0  0  0  0
-171998.9531-132956.546960373.0508 C   0  0  1  0  0  0  0  0  0  0  0  0
-171999.9375-132957.390660372.2617 C   0  0  0  0  0  0  0  0  0  0  0  0
-171999.2188-132957.781260370.9805 C   0  0  0  0  0  0  0  0  0  0  0  0
-172000.1875-132958.593860370.1289 C   0  0  0  0  0  0  0  0  0  0  0  0
-172000.2969-132958.375060368.9219 O   0  0  0  0  0  0  0  0  0  0  0  0
-171998.4688-132955.343860372.3164 C   0  0  0  0  0  0  0  0  0  0  0  0
-171997.8438-132955.546960371.2344 O   0  0  0  0  0  0  0  0  0  0  0  0
-172000.8438-132959.625060370.7227 O   0  0  0  0  0  0  0  0  0  0  0  0
-171998.5469-132954.031260372.7617 N   0  0  0  0  0  0  0  0  0  0  0  0
-171999.3125-132953.062560371.9688 C   0  0  1  0  0  0  0  0  0  0  0  0
-171998.4844-132951.796960372.0195 C   0  0  0  0  0  0  0  0  0  0  0  0
-171998.5781-132950.687560371.1094 C   0  0  0  0  0  0  0  0  0  0  0  0
-171998.9062-132949.437560371.4453 C   0  0  0  0  0  0  0  0  0  0  0  0
-171997.7969-132948.500060371.6602 C   0  0  0  0  0  0  0  0  0  0  0  0
-171996.7031-132948.843860371.0625 N   0  0  0  0  0  0  0  0  0  0  0  0
-171999.5938-132953.625060370.6211 C   0  0  0  0  0  0  0  0  0  0  0  0
-171998.5469-132954.265660369.9883 O   0  0  0  0  0  0  0  0  0  0  0  0
-172000.6719-132953.531260370.0156 O   0  0  0  0  0  0  0  0  0  0  0  0
  2  4  1  0
  2  1  1  6
  3  2  1  0
  4  6  1  0
  4  5  1  6
  6  7  2  0
  8  9  1  0
  8  6  1  0
  9 10  1  6
 11 10  1  0
 12 11  1  0
 12 13  2  0
 14 15  2  0
 14  9  1  0
 16 12  1  0
 17 14  1  0
 18 17  1  0
 18 24  1  0
 18 19  1  6
 20 19  1  0
 21 20  1  0
 22 21  1  0
 23 22  1  0
 24 25  1  0
 26 24  2  0
M  END
$$$$
