VEK.pdb
     RDKit          3D

 26 25  0  0  1  0  0  0  0  0999 V2000
    8.3018  -12.3664   18.5299 C   0  0  0  0  0  0  0  0  0  0  0  0
    8.5829  -13.2988   19.6870 C   0  0  1  0  0  0  0  0  0  0  0  0
    7.5223  -13.1229   20.7192 C   0  0  0  0  0  0  0  0  0  0  0  0
    8.7469  -14.7117   19.1997 C   0  0  2  0  0  0  0  0  0  0  0  0
    7.5468  -15.0983   18.4957 N   0  0  0  0  0  0  0  0  0  0  0  0
    8.9605  -15.6753   20.3170 C   0  0  0  0  0  0  0  0  0  0  0  0
    7.9700  -16.1905   20.8645 O   0  0  0  0  0  0  0  0  0  0  0  0
   10.2607  -16.0232   20.7757 N   0  0  0  0  0  0  0  0  0  0  0  0
   10.6183  -16.9349   21.7997 C   0  0  1  0  0  0  0  0  0  0  0  0
   11.7941  -17.7937   21.5542 C   0  0  0  0  0  0  0  0  0  0  0  0
   11.9958  -18.7519   22.7006 C   0  0  0  0  0  0  0  0  0  0  0  0
   13.1778  -19.6053   22.4802 C   0  0  0  0  0  0  0  0  0  0  0  0
   14.3041  -19.2625   22.8991 O   0  0  0  0  0  0  0  0  0  0  0  0
   10.5881  -16.3071   23.1607 C   0  0  0  0  0  0  0  0  0  0  0  0
   11.5245  -15.5591   23.5203 O   0  0  0  0  0  0  0  0  0  0  0  0
   13.0576  -20.8042   21.8030 O   0  0  0  0  0  0  0  0  0  0  0  0
    9.5526  -16.5125   24.0718 N   0  0  0  0  0  0  0  0  0  0  0  0
    9.5779  -15.8956   25.4563 C   0  0  1  0  0  0  0  0  0  0  0  0
    8.3115  -15.1077   25.4528 C   0  0  0  0  0  0  0  0  0  0  0  0
    8.1435  -13.8681   26.1859 C   0  0  0  0  0  0  0  0  0  0  0  0
    6.9039  -13.0831   26.1667 C   0  0  0  0  0  0  0  0  0  0  0  0
    6.9552  -11.7675   26.9117 C   0  0  0  0  0  0  0  0  0  0  0  0
    5.7078  -11.0666   26.9127 N   0  0  0  0  0  0  0  0  0  0  0  0
    9.6828  -16.9931   26.4179 C   0  0  0  0  0  0  0  0  0  0  0  0
   10.2193  -16.6835   27.6968 O   0  0  0  0  0  0  0  0  0  0  0  0
    9.3415  -18.1751   26.2086 O   0  0  0  0  0  0  0  0  0  0  0  0
  2  4  1  0
  2  1  1  6
  3  2  1  0
  4  6  1  0
  4  5  1  1
  6  7  2  0
  8  9  1  0
  8  6  1  0
  9 10  1  6
 11 10  1  0
 12 11  1  0
 12 13  2  0
 14 15  2  0
 14  9  1  0
 16 12  1  0
 17 14  1  0
 18 17  1  0
 18 24  1  0
 18 19  1  1
 20 19  1  0
 21 20  1  0
 22 21  1  0
 23 22  1  0
 24 25  1  0
 26 24  2  0
M  END
$$$$
