VEK.pdb
     RDKit          3D

 26 25  0  0  1  0  0  0  0  0999 V2000
    8.0700  -11.8909   25.4011 C   0  0  0  0  0  0  0  0  0  0  0  0
    6.9395  -12.4715   26.2210 C   0  0  1  0  0  0  0  0  0  0  0  0
    6.1565  -11.3561   26.8242 C   0  0  0  0  0  0  0  0  0  0  0  0
    6.1238  -13.4270   25.3950 C   0  0  2  0  0  0  0  0  0  0  0  0
    5.0739  -13.9716   26.2236 N   0  0  0  0  0  0  0  0  0  0  0  0
    6.9377  -14.5611   24.8717 C   0  0  0  0  0  0  0  0  0  0  0  0
    7.2313  -15.4948   25.6386 O   0  0  0  0  0  0  0  0  0  0  0  0
    7.3882  -14.6081   23.5238 N   0  0  0  0  0  0  0  0  0  0  0  0
    8.2332  -15.5663   22.9110 C   0  0  1  0  0  0  0  0  0  0  0  0
    8.2894  -15.5667   21.4355 C   0  0  0  0  0  0  0  0  0  0  0  0
    9.1572  -16.6960   20.9411 C   0  0  0  0  0  0  0  0  0  0  0  0
    9.1439  -16.7731   19.4688 C   0  0  0  0  0  0  0  0  0  0  0  0
    8.0919  -17.0404   18.8495 O   0  0  0  0  0  0  0  0  0  0  0  0
    9.5727  -15.6574   23.5779 C   0  0  0  0  0  0  0  0  0  0  0  0
   10.2390  -14.6172   23.7773 O   0  0  0  0  0  0  0  0  0  0  0  0
   10.3012  -16.5498   18.7468 O   0  0  0  0  0  0  0  0  0  0  0  0
   10.1336  -16.8625   23.9997 N   0  0  0  0  0  0  0  0  0  0  0  0
   11.4141  -16.9028   24.8100 C   0  0  1  0  0  0  0  0  0  0  0  0
   11.0095  -17.7605   25.9611 C   0  0  0  0  0  0  0  0  0  0  0  0
   11.9442  -18.2515   26.9549 C   0  0  0  0  0  0  0  0  0  0  0  0
   11.5534  -19.1310   28.0625 C   0  0  0  0  0  0  0  0  0  0  0  0
   12.6180  -19.3702   29.1103 C   0  0  0  0  0  0  0  0  0  0  0  0
   12.2142  -20.2887   30.1304 N   0  0  0  0  0  0  0  0  0  0  0  0
   12.4672  -17.4117   23.9313 C   0  0  0  0  0  0  0  0  0  0  0  0
   13.7959  -16.9860   24.2003 O   0  0  0  0  0  0  0  0  0  0  0  0
   12.2956  -18.1860   22.9677 O   0  0  0  0  0  0  0  0  0  0  0  0
  2  4  1  0
  2  1  1  6
  3  2  1  0
  4  6  1  0
  4  5  1  1
  6  7  2  0
  8  9  1  0
  8  6  1  0
  9 10  1  6
 11 10  1  0
 12 11  1  0
 12 13  2  0
 14 15  2  0
 14  9  1  0
 16 12  1  0
 17 14  1  0
 18 17  1  0
 18 24  1  0
 18 19  1  1
 20 19  1  0
 21 20  1  0
 22 21  1  0
 23 22  1  0
 24 25  1  0
 26 24  2  0
M  END
$$$$
