VEK.pdb
     RDKit          3D

 26 25  0  0  1  0  0  0  0  0999 V2000
    6.2416  -10.7543   25.9731 C   0  0  0  0  0  0  0  0  0  0  0  0
    7.0575  -12.0049   25.7330 C   0  0  1  0  0  0  0  0  0  0  0  0
    7.7986  -12.3463   26.9801 C   0  0  0  0  0  0  0  0  0  0  0  0
    6.1866  -13.1113   25.2057 C   0  0  2  0  0  0  0  0  0  0  0  0
    5.2288  -13.4692   26.2255 N   0  0  0  0  0  0  0  0  0  0  0  0
    6.9694  -14.3307   24.8555 C   0  0  0  0  0  0  0  0  0  0  0  0
    7.0733  -15.2408   25.6964 O   0  0  0  0  0  0  0  0  0  0  0  0
    7.6004  -14.4852   23.5906 N   0  0  0  0  0  0  0  0  0  0  0  0
    8.3659  -15.5792   23.1165 C   0  0  1  0  0  0  0  0  0  0  0  0
    8.7208  -15.5800   21.6832 C   0  0  0  0  0  0  0  0  0  0  0  0
    9.4343  -16.8567   21.3173 C   0  0  0  0  0  0  0  0  0  0  0  0
    9.8238  -16.8608   19.8953 C   0  0  0  0  0  0  0  0  0  0  0  0
   11.0270  -16.8939   19.5594 O   0  0  0  0  0  0  0  0  0  0  0  0
    9.5026  -15.9214   24.0320 C   0  0  0  0  0  0  0  0  0  0  0  0
   10.3300  -15.0386   24.3514 O   0  0  0  0  0  0  0  0  0  0  0  0
    8.8588  -16.8280   18.9063 O   0  0  0  0  0  0  0  0  0  0  0  0
    9.6969  -17.1966   24.5620 N   0  0  0  0  0  0  0  0  0  0  0  0
   10.8425  -17.4984   25.5076 C   0  0  1  0  0  0  0  0  0  0  0  0
   10.2285  -18.5242   26.3993 C   0  0  0  0  0  0  0  0  0  0  0  0
   10.8100  -18.9302   27.6639 C   0  0  0  0  0  0  0  0  0  0  0  0
   10.2291  -19.9709   28.5199 C   0  0  0  0  0  0  0  0  0  0  0  0
   10.9032  -20.1619   29.8606 C   0  0  0  0  0  0  0  0  0  0  0  0
   12.3310  -20.2043   29.7772 N   0  0  0  0  0  0  0  0  0  0  0  0
   11.9815  -17.9153   24.6896 C   0  0  0  0  0  0  0  0  0  0  0  0
   13.2768  -17.5680   25.1593 O   0  0  0  0  0  0  0  0  0  0  0  0
   11.9097  -18.5486   23.6166 O   0  0  0  0  0  0  0  0  0  0  0  0
  2  4  1  0
  2  1  1  1
  3  2  1  0
  4  6  1  0
  4  5  1  1
  6  7  2  0
  8  9  1  0
  8  6  1  0
  9 10  1  6
 11 10  1  0
 12 11  1  0
 12 13  2  0
 14 15  2  0
 14  9  1  0
 16 12  1  0
 17 14  1  0
 18 17  1  0
 18 24  1  0
 18 19  1  1
 20 19  1  0
 21 20  1  0
 22 21  1  0
 23 22  1  0
 24 25  1  0
 26 24  2  0
M  END
$$$$
