VEK.pdb
     RDKit          3D

 26 25  0  0  1  0  0  0  0  0999 V2000
    7.6886  -12.3531   19.3742 C   0  0  0  0  0  0  0  0  0  0  0  0
    8.2135  -13.4032   20.3276 C   0  0  1  0  0  0  0  0  0  0  0  0
    7.2142  -13.6146   21.4129 C   0  0  0  0  0  0  0  0  0  0  0  0
    8.5935  -14.6522   19.5816 C   0  0  2  0  0  0  0  0  0  0  0  0
    7.4121  -15.1857   18.9450 N   0  0  0  0  0  0  0  0  0  0  0  0
    9.1505  -15.7023   20.4812 C   0  0  0  0  0  0  0  0  0  0  0  0
    8.3849  -16.5663   20.9433 O   0  0  0  0  0  0  0  0  0  0  0  0
   10.5291  -15.7465   20.8269 N   0  0  0  0  0  0  0  0  0  0  0  0
   11.2262  -16.7538   21.5389 C   0  0  1  0  0  0  0  0  0  0  0  0
   12.6659  -16.9074   21.2491 C   0  0  0  0  0  0  0  0  0  0  0  0
   13.1912  -18.1866   21.8495 C   0  0  0  0  0  0  0  0  0  0  0  0
   14.5964  -18.4171   21.4673 C   0  0  0  0  0  0  0  0  0  0  0  0
   15.0213  -18.0705   20.3444 O   0  0  0  0  0  0  0  0  0  0  0  0
   10.8884  -16.7599   22.9994 C   0  0  0  0  0  0  0  0  0  0  0  0
   10.9801  -15.7025   23.6623 O   0  0  0  0  0  0  0  0  0  0  0  0
   15.4703  -19.0234   22.3500 O   0  0  0  0  0  0  0  0  0  0  0  0
   10.4676  -17.9022   23.6796 N   0  0  0  0  0  0  0  0  0  0  0  0
   10.1258  -17.8677   25.1560 C   0  0  1  0  0  0  0  0  0  0  0  0
    9.2205  -19.0467   25.2782 C   0  0  0  0  0  0  0  0  0  0  0  0
    8.6372  -19.4753   26.5345 C   0  0  0  0  0  0  0  0  0  0  0  0
    7.7043  -20.6025   26.6460 C   0  0  0  0  0  0  0  0  0  0  0  0
    7.2521  -20.9365   28.0504 C   0  0  0  0  0  0  0  0  0  0  0  0
    6.3630  -22.0561   28.1093 N   0  0  0  0  0  0  0  0  0  0  0  0
   11.3880  -17.9113   25.8943 C   0  0  0  0  0  0  0  0  0  0  0  0
   11.3905  -17.3609   27.2043 O   0  0  0  0  0  0  0  0  0  0  0  0
   12.4595  -18.3901   25.4699 O   0  0  0  0  0  0  0  0  0  0  0  0
  2  4  1  0
  2  1  1  6
  3  2  1  0
  4  6  1  0
  4  5  1  1
  6  7  2  0
  8  9  1  0
  8  6  1  0
  9 10  1  1
 11 10  1  0
 12 11  1  0
 12 13  2  0
 14 15  2  0
 14  9  1  0
 16 12  1  0
 17 14  1  0
 18 17  1  0
 18 24  1  0
 18 19  1  1
 20 19  1  0
 21 20  1  0
 22 21  1  0
 23 22  1  0
 24 25  1  0
 26 24  2  0
M  END
$$$$
