VEK.pdb
     RDKit          3D

 26 25  0  0  1  0  0  0  0  0999 V2000
    8.3109  -12.5202   20.0203 C   0  0  0  0  0  0  0  0  0  0  0  0
    7.6060  -13.4516   19.0596 C   0  0  1  0  0  0  0  0  0  0  0  0
    6.4289  -12.7466   18.4778 C   0  0  0  0  0  0  0  0  0  0  0  0
    8.5720  -13.9915   18.0417 C   0  0  2  0  0  0  0  0  0  0  0  0
    7.8590  -14.8842   17.1584 N   0  0  0  0  0  0  0  0  0  0  0  0
    9.6892  -14.7535   18.6690 C   0  0  0  0  0  0  0  0  0  0  0  0
    9.4965  -15.9345   19.0070 O   0  0  0  0  0  0  0  0  0  0  0  0
   10.9674  -14.1719   18.8927 N   0  0  0  0  0  0  0  0  0  0  0  0
   12.1300  -14.7804   19.4274 C   0  0  1  0  0  0  0  0  0  0  0  0
   13.4308  -14.1951   19.0459 C   0  0  0  0  0  0  0  0  0  0  0  0
   14.5599  -14.9396   19.7121 C   0  0  0  0  0  0  0  0  0  0  0  0
   15.8650  -14.3441   19.3718 C   0  0  0  0  0  0  0  0  0  0  0  0
   16.9110  -14.7216   19.9418 O   0  0  0  0  0  0  0  0  0  0  0  0
   11.9964  -15.0828   20.8896 C   0  0  0  0  0  0  0  0  0  0  0  0
   12.1137  -14.1608   21.7275 O   0  0  0  0  0  0  0  0  0  0  0  0
   15.9522  -13.3536   18.4116 O   0  0  0  0  0  0  0  0  0  0  0  0
   11.7425  -16.3620   21.3832 N   0  0  0  0  0  0  0  0  0  0  0  0
   11.5904  -16.6254   22.8683 C   0  0  1  0  0  0  0  0  0  0  0  0
   10.7414  -17.8517   22.8663 C   0  0  0  0  0  0  0  0  0  0  0  0
   10.4343  -18.6089   24.0640 C   0  0  0  0  0  0  0  0  0  0  0  0
    9.6138  -19.8254   24.0591 C   0  0  0  0  0  0  0  0  0  0  0  0
    9.3644  -20.4476   25.4153 C   0  0  0  0  0  0  0  0  0  0  0  0
    8.4648  -21.5595   25.3729 N   0  0  0  0  0  0  0  0  0  0  0  0
   12.9370  -16.7423   23.4279 C   0  0  0  0  0  0  0  0  0  0  0  0
   13.1153  -16.3298   24.7760 O   0  0  0  0  0  0  0  0  0  0  0  0
   13.9391  -17.1727   22.8212 O   0  0  0  0  0  0  0  0  0  0  0  0
  2  4  1  0
  2  1  1  1
  3  2  1  0
  4  6  1  0
  4  5  1  6
  6  7  2  0
  8  9  1  0
  8  6  1  0
  9 10  1  1
 11 10  1  0
 12 11  1  0
 12 13  2  0
 14 15  2  0
 14  9  1  0
 16 12  1  0
 17 14  1  0
 18 17  1  0
 18 24  1  0
 18 19  1  6
 20 19  1  0
 21 20  1  0
 22 21  1  0
 23 22  1  0
 24 25  1  0
 26 24  2  0
M  END
$$$$
