VEK.pdb
     RDKit          3D

 26 25  0  0  1  0  0  0  0  0999 V2000
    5.9414  -12.6765   24.9730 C   0  0  0  0  0  0  0  0  0  0  0  0
    7.1021  -13.6249   25.1744 C   0  0  1  0  0  0  0  0  0  0  0  0
    7.5010  -13.6039   26.6102 C   0  0  0  0  0  0  0  0  0  0  0  0
    6.7673  -14.9909   24.6429 C   0  0  2  0  0  0  0  0  0  0  0  0
    5.7038  -15.5491   25.4448 N   0  0  0  0  0  0  0  0  0  0  0  0
    7.9300  -15.9222   24.7006 C   0  0  0  0  0  0  0  0  0  0  0  0
    7.9523  -16.8028   25.5781 O   0  0  0  0  0  0  0  0  0  0  0  0
    9.0135  -15.8345   23.7838 N   0  0  0  0  0  0  0  0  0  0  0  0
   10.1385  -16.6879   23.6665 C   0  0  1  0  0  0  0  0  0  0  0  0
   10.9381  -16.5794   22.4300 C   0  0  0  0  0  0  0  0  0  0  0  0
   12.0610  -17.5854   22.4381 C   0  0  0  0  0  0  0  0  0  0  0  0
   12.8694  -17.4917   21.2086 C   0  0  0  0  0  0  0  0  0  0  0  0
   13.4416  -18.4982   20.7384 O   0  0  0  0  0  0  0  0  0  0  0  0
   10.9532  -16.7363   24.9240 C   0  0  0  0  0  0  0  0  0  0  0  0
   12.1592  -17.0658   24.8701 O   0  0  0  0  0  0  0  0  0  0  0  0
   13.0076  -16.2824   20.5536 O   0  0  0  0  0  0  0  0  0  0  0  0
   10.4339  -16.4280   26.1809 N   0  0  0  0  0  0  0  0  0  0  0  0
   11.3199  -16.3417   27.4079 C   0  0  1  0  0  0  0  0  0  0  0  0
   10.4977  -15.4818   28.3073 C   0  0  0  0  0  0  0  0  0  0  0  0
   10.2595  -14.0728   28.0620 C   0  0  0  0  0  0  0  0  0  0  0  0
    8.9320  -13.4536   28.1485 C   0  0  0  0  0  0  0  0  0  0  0  0
    8.8722  -11.9878   27.7796 C   0  0  0  0  0  0  0  0  0  0  0  0
    7.5512  -11.4411   27.8379 N   0  0  0  0  0  0  0  0  0  0  0  0
   11.5858  -17.7114   27.8476 C   0  0  0  0  0  0  0  0  0  0  0  0
   12.5962  -17.8906   28.8305 O   0  0  0  0  0  0  0  0  0  0  0  0
   11.0007  -18.7324   27.4320 O   0  0  0  0  0  0  0  0  0  0  0  0
  2  4  1  0
  2  1  1  1
  3  2  1  0
  4  6  1  0
  4  5  1  1
  6  7  2  0
  8  9  1  0
  8  6  1  0
  9 10  1  6
 11 10  1  0
 12 11  1  0
 12 13  2  0
 14 15  2  0
 14  9  1  0
 16 12  1  0
 17 14  1  0
 18 17  1  0
 18 24  1  0
 18 19  1  1
 20 19  1  0
 21 20  1  0
 22 21  1  0
 23 22  1  0
 24 25  1  0
 26 24  2  0
M  END
$$$$
