VEK.pdb
     RDKit          3D

 26 25  0  0  1  0  0  0  0  0999 V2000
    8.6262  -12.9151   20.7232 C   0  0  0  0  0  0  0  0  0  0  0  0
    7.7027  -13.6967   19.8156 C   0  0  1  0  0  0  0  0  0  0  0  0
    6.8981  -12.7403   19.0039 C   0  0  0  0  0  0  0  0  0  0  0  0
    8.4796  -14.6977   19.0062 C   0  0  2  0  0  0  0  0  0  0  0  0
    7.5601  -15.4119   18.1518 N   0  0  0  0  0  0  0  0  0  0  0  0
    9.1862  -15.6928   19.8622 C   0  0  0  0  0  0  0  0  0  0  0  0
    8.5325  -16.6195   20.3721 O   0  0  0  0  0  0  0  0  0  0  0  0
   10.5836  -15.6150   20.1137 N   0  0  0  0  0  0  0  0  0  0  0  0
   11.3834  -16.4698   20.9120 C   0  0  1  0  0  0  0  0  0  0  0  0
   12.8206  -16.5468   20.5823 C   0  0  0  0  0  0  0  0  0  0  0  0
   13.0109  -16.9812   19.1512 C   0  0  0  0  0  0  0  0  0  0  0  0
   14.0111  -18.0598   19.0502 C   0  0  0  0  0  0  0  0  0  0  0  0
   15.0342  -18.0557   19.7677 O   0  0  0  0  0  0  0  0  0  0  0  0
   11.0948  -16.3212   22.3755 C   0  0  0  0  0  0  0  0  0  0  0  0
   11.3532  -15.2414   22.9527 O   0  0  0  0  0  0  0  0  0  0  0  0
   13.8315  -19.0978   18.1554 O   0  0  0  0  0  0  0  0  0  0  0  0
   10.5416  -17.3400   23.1505 N   0  0  0  0  0  0  0  0  0  0  0  0
   10.2690  -17.1545   24.6301 C   0  0  1  0  0  0  0  0  0  0  0  0
    9.1423  -18.1077   24.8456 C   0  0  0  0  0  0  0  0  0  0  0  0
    8.6413  -18.4639   26.1588 C   0  0  0  0  0  0  0  0  0  0  0  0
    7.5345  -19.4037   26.3706 C   0  0  0  0  0  0  0  0  0  0  0  0
    7.1037  -19.5883   27.8089 C   0  0  0  0  0  0  0  0  0  0  0  0
    5.9365  -20.4036   27.9517 N   0  0  0  0  0  0  0  0  0  0  0  0
   11.5204  -17.4235   25.3385 C   0  0  0  0  0  0  0  0  0  0  0  0
   12.3955  -18.3841   24.7637 O   0  0  0  0  0  0  0  0  0  0  0  0
   11.8817  -16.8808   26.4027 O   0  0  0  0  0  0  0  0  0  0  0  0
  2  4  1  0
  2  1  1  6
  3  2  1  0
  4  6  1  0
  4  5  1  6
  6  7  2  0
  8  9  1  0
  8  6  1  0
  9 10  1  1
 11 10  1  0
 12 11  1  0
 12 13  2  0
 14 15  2  0
 14  9  1  0
 16 12  1  0
 17 14  1  0
 18 17  1  0
 18 24  1  0
 18 19  1  1
 20 19  1  0
 21 20  1  0
 22 21  1  0
 23 22  1  0
 24 25  1  0
 26 24  2  0
M  END
$$$$
