MLI.pdb
     RDKit          3D

 25 24  0  0  1  0  0  0  0  0999 V2000
   14.8723  -12.0134  -20.4408 C   0  0  0  0  0  0  0  0  0  0  0  0
   16.4948  -11.7485  -21.1868 S   0  0  0  0  0  0  0  0  0  0  0  0
   17.8359  -12.0532  -20.0268 C   0  0  0  0  0  0  0  0  0  0  0  0
   17.7632  -11.0975  -18.8307 C   0  0  0  0  0  0  0  0  0  0  0  0
   18.9457  -11.3827  -17.9275 C   0  0  2  0  0  0  0  0  0  0  0  0
   18.6270  -12.5823  -17.1761 N   0  0  0  0  0  0  0  0  0  0  0  0
   19.1912  -10.2893  -16.9700 C   0  0  0  0  0  0  0  0  0  0  0  0
   18.3230   -9.9665  -16.1179 O   0  0  0  0  0  0  0  0  0  0  0  0
   21.4873   -9.5453  -13.0260 C   0  0  0  0  0  0  0  0  0  0  0  0
   22.1613   -9.7459  -14.3594 C   0  0  2  0  0  0  0  0  0  0  0  0
   23.6661   -9.8718  -14.0542 C   0  0  0  0  0  0  0  0  0  0  0  0
   21.9912   -8.6695  -15.3539 C   0  0  0  0  0  0  0  0  0  0  0  0
   20.6633   -8.4876  -15.9969 C   0  0  2  0  0  0  0  0  0  0  0  0
   20.4060   -9.5373  -16.9446 N   0  0  0  0  0  0  0  0  0  0  0  0
   20.4571   -7.1410  -16.5646 C   0  0  0  0  0  0  0  0  0  0  0  0
   21.0801   -6.7903  -17.5990 O   0  0  0  0  0  0  0  0  0  0  0  0
   15.5864   -4.8399  -17.3121 C   0  0  0  0  0  0  0  0  0  0  0  0
   17.0098   -5.3106  -17.3342 C   0  0  0  0  0  0  0  0  0  0  0  0
   17.9954   -4.4323  -16.6626 C   0  0  2  0  0  0  0  0  0  0  0  0
   17.8471   -3.0388  -17.2863 C   0  0  0  0  0  0  0  0  0  0  0  0
   19.4061   -4.8783  -16.6225 C   0  0  2  0  0  0  0  0  0  0  0  0
   19.5732   -6.1854  -16.0007 N   0  0  0  0  0  0  0  0  0  0  0  0
   20.3619   -3.9496  -15.9946 C   0  0  0  0  0  0  0  0  0  0  0  0
   20.5818   -4.0365  -14.7628 O   0  0  0  0  0  0  0  0  0  0  0  0
   21.0515   -2.9651  -16.6858 O   0  0  0  0  0  0  0  0  0  0  0  0
  2  1  1  0
  2  3  1  0
  4  3  1  0
  4  5  1  0
  5  7  1  0
  5  6  1  1
  7  8  2  0
 10  9  1  1
 10 12  1  0
 11 10  1  0
 13 12  1  6
 13 14  1  0
 14  7  1  0
 15 13  1  0
 16 15  2  0
 18 17  1  0
 18 19  1  0
 19 21  1  0
 19 20  1  6
 21 23  1  0
 21 22  1  1
 22 15  1  0
 23 25  1  0
 24 23  2  0
M  END
$$$$
