MLI.pdb
     RDKit          3D

 25 24  0  0  1  0  0  0  0  0999 V2000
   26.8275  -21.9057  -20.2559 C   0  0  0  0  0  0  0  0  0  0  0  0
   27.8470  -20.4163  -20.2138 S   0  0  0  0  0  0  0  0  0  0  0  0
   28.7851  -20.2757  -18.6851 C   0  0  0  0  0  0  0  0  0  0  0  0
   28.1000  -21.0327  -17.5418 C   0  0  0  0  0  0  0  0  0  0  0  0
   27.3662  -20.0237  -16.6823 C   0  0  2  0  0  0  0  0  0  0  0  0
   28.3709  -19.1659  -16.0822 N   0  0  0  0  0  0  0  0  0  0  0  0
   26.6013  -20.6671  -15.5989 C   0  0  0  0  0  0  0  0  0  0  0  0
   25.7849  -21.5933  -15.8433 O   0  0  0  0  0  0  0  0  0  0  0  0
   25.9070  -19.9941   -9.3883 C   0  0  0  0  0  0  0  0  0  0  0  0
   25.4924  -20.6604  -10.6753 C   0  0  2  0  0  0  0  0  0  0  0  0
   25.5167  -22.1743  -10.3908 C   0  0  0  0  0  0  0  0  0  0  0  0
   26.3443  -20.4091  -11.8534 C   0  0  0  0  0  0  0  0  0  0  0  0
   25.8004  -20.6915  -13.2076 C   0  0  2  0  0  0  0  0  0  0  0  0
   26.7319  -20.2911  -14.2265 N   0  0  0  0  0  0  0  0  0  0  0  0
   24.4444  -20.1522  -13.4282 C   0  0  0  0  0  0  0  0  0  0  0  0
   24.2350  -18.9156  -13.3373 O   0  0  0  0  0  0  0  0  0  0  0  0
   22.0588  -19.6423  -17.7688 C   0  0  0  0  0  0  0  0  0  0  0  0
   22.4483  -19.5613  -16.3232 C   0  0  0  0  0  0  0  0  0  0  0  0
   21.6113  -20.3382  -15.3800 C   0  0  2  0  0  0  0  0  0  0  0  0
   20.1676  -19.8533  -15.5631 C   0  0  0  0  0  0  0  0  0  0  0  0
   22.0147  -20.3644  -13.9561 C   0  0  2  0  0  0  0  0  0  0  0  0
   23.3257  -20.9645  -13.7461 N   0  0  0  0  0  0  0  0  0  0  0  0
   21.0673  -21.0023  -13.0256 C   0  0  0  0  0  0  0  0  0  0  0  0
   20.2080  -20.2959  -12.4461 O   0  0  0  0  0  0  0  0  0  0  0  0
   21.0584  -22.3590  -12.7403 O   0  0  0  0  0  0  0  0  0  0  0  0
  2  1  1  0
  2  3  1  0
  4  3  1  0
  4  5  1  0
  5  7  1  0
  5  6  1  1
  7  8  2  0
 10  9  1  1
 10 12  1  0
 11 10  1  0
 13 12  1  1
 13 14  1  0
 14  7  1  0
 15 13  1  0
 16 15  2  0
 18 17  1  0
 18 19  1  0
 19 21  1  0
 19 20  1  1
 21 23  1  0
 21 22  1  6
 22 15  1  0
 23 25  1  0
 24 23  2  0
M  END
$$$$
