MLI.pdb
     RDKit          3D

 25 24  0  0  1  0  0  0  0  0999 V2000
   21.8982  -19.6224  -18.3683 C   0  0  0  0  0  0  0  0  0  0  0  0
   21.3283  -18.1727  -17.4556 S   0  0  0  0  0  0  0  0  0  0  0  0
   22.3445  -17.8351  -16.0098 C   0  0  0  0  0  0  0  0  0  0  0  0
   23.2601  -19.0208  -15.6856 C   0  0  0  0  0  0  0  0  0  0  0  0
   23.7673  -18.8502  -14.2683 C   0  0  2  0  0  0  0  0  0  0  0  0
   24.5172  -17.6086  -14.2316 N   0  0  0  0  0  0  0  0  0  0  0  0
   24.6671  -19.9454  -13.8635 C   0  0  0  0  0  0  0  0  0  0  0  0
   24.2940  -21.1460  -13.9217 O   0  0  0  0  0  0  0  0  0  0  0  0
   28.5466  -20.8998  -15.6918 C   0  0  0  0  0  0  0  0  0  0  0  0
   28.6573  -19.9356  -14.5384 C   0  0  2  0  0  0  0  0  0  0  0  0
   30.1390  -19.5171  -14.4822 C   0  0  0  0  0  0  0  0  0  0  0  0
   28.2836  -20.4518  -13.2078 C   0  0  0  0  0  0  0  0  0  0  0  0
   26.8593  -20.7809  -12.9380 C   0  0  2  0  0  0  0  0  0  0  0  0
   25.9960  -19.7231  -13.3878 N   0  0  0  0  0  0  0  0  0  0  0  0
   26.5954  -21.1802  -11.5419 C   0  0  0  0  0  0  0  0  0  0  0  0
   27.1215  -22.2218  -11.0736 O   0  0  0  0  0  0  0  0  0  0  0  0
   27.8591  -18.8576   -7.2222 C   0  0  0  0  0  0  0  0  0  0  0  0
   27.4000  -19.8867   -8.2112 C   0  0  0  0  0  0  0  0  0  0  0  0
   25.9440  -20.1570   -8.2396 C   0  0  2  0  0  0  0  0  0  0  0  0
   25.5725  -20.7378   -6.8694 C   0  0  0  0  0  0  0  0  0  0  0  0
   25.4128  -20.9732   -9.3542 C   0  0  2  0  0  0  0  0  0  0  0  0
   25.7593  -20.4414  -10.6657 N   0  0  0  0  0  0  0  0  0  0  0  0
   23.9623  -21.2303   -9.3354 C   0  0  0  0  0  0  0  0  0  0  0  0
   23.4619  -21.8474   -8.3649 O   0  0  0  0  0  0  0  0  0  0  0  0
   23.0925  -20.8279  -10.3373 O   0  0  0  0  0  0  0  0  0  0  0  0
  2  1  1  0
  2  3  1  0
  4  3  1  0
  4  5  1  0
  5  7  1  0
  5  6  1  6
  7  8  2  0
 10  9  1  6
 10 12  1  0
 11 10  1  0
 13 12  1  1
 13 14  1  0
 14  7  1  0
 15 13  1  0
 16 15  2  0
 18 17  1  0
 18 19  1  0
 19 21  1  0
 19 20  1  1
 21 23  1  0
 21 22  1  6
 22 15  1  0
 23 25  1  0
 24 23  2  0
M  END
$$$$
