MLI.pdb
     RDKit          3D

 25 24  0  0  1  0  0  0  0  0999 V2000
   26.1429  -17.4972  -17.3707 C   0  0  0  0  0  0  0  0  0  0  0  0
   27.8751  -17.2608  -16.9202 S   0  0  0  0  0  0  0  0  0  0  0  0
   28.5217  -18.6347  -15.9552 C   0  0  0  0  0  0  0  0  0  0  0  0
   27.4227  -19.2816  -15.1048 C   0  0  0  0  0  0  0  0  0  0  0  0
   28.0428  -20.4202  -14.3211 C   0  0  2  0  0  0  0  0  0  0  0  0
   28.3200  -21.4855  -15.2663 N   0  0  0  0  0  0  0  0  0  0  0  0
   27.1323  -20.9450  -13.2874 C   0  0  0  0  0  0  0  0  0  0  0  0
   26.2392  -21.7837  -13.5753 O   0  0  0  0  0  0  0  0  0  0  0  0
   25.9092  -19.7441   -7.2216 C   0  0  0  0  0  0  0  0  0  0  0  0
   25.5522  -20.4267   -8.5173 C   0  0  2  0  0  0  0  0  0  0  0  0
   25.4091  -21.9226   -8.1780 C   0  0  0  0  0  0  0  0  0  0  0  0
   26.5268  -20.3050   -9.6183 C   0  0  0  0  0  0  0  0  0  0  0  0
   26.1587  -20.8168  -10.9645 C   0  0  2  0  0  0  0  0  0  0  0  0
   27.2005  -20.5457  -11.9171 N   0  0  0  0  0  0  0  0  0  0  0  0
   24.8301  -20.3708  -11.4273 C   0  0  0  0  0  0  0  0  0  0  0  0
   24.6045  -19.1477  -11.6127 O   0  0  0  0  0  0  0  0  0  0  0  0
   23.0638  -21.1783  -16.0691 C   0  0  0  0  0  0  0  0  0  0  0  0
   23.2537  -20.6656  -14.6731 C   0  0  0  0  0  0  0  0  0  0  0  0
   22.3059  -21.1794  -13.6574 C   0  0  2  0  0  0  0  0  0  0  0  0
   20.8943  -20.8508  -14.1596 C   0  0  0  0  0  0  0  0  0  0  0  0
   22.5077  -20.7665  -12.2504 C   0  0  2  0  0  0  0  0  0  0  0  0
   23.7561  -21.2611  -11.6847 N   0  0  0  0  0  0  0  0  0  0  0  0
   21.4198  -21.0999  -11.3147 C   0  0  0  0  0  0  0  0  0  0  0  0
   20.2938  -20.5696  -11.4700 O   0  0  0  0  0  0  0  0  0  0  0  0
   21.5564  -21.9792  -10.2514 O   0  0  0  0  0  0  0  0  0  0  0  0
  2  1  1  0
  2  3  1  0
  4  3  1  0
  4  5  1  0
  5  7  1  0
  5  6  1  6
  7  8  2  0
 10  9  1  1
 10 12  1  0
 11 10  1  0
 13 12  1  1
 13 14  1  0
 14  7  1  0
 15 13  1  0
 16 15  2  0
 18 17  1  0
 18 19  1  0
 19 21  1  0
 19 20  1  6
 21 23  1  0
 21 22  1  1
 22 15  1  0
 23 25  1  0
 24 23  2  0
M  END
$$$$
