MLI.pdb
     RDKit          3D

 25 24  0  0  1  0  0  0  0  0999 V2000
   29.1073  -24.5537  -16.4878 C   0  0  0  0  0  0  0  0  0  0  0  0
   29.2811  -23.0201  -17.4244 S   0  0  0  0  0  0  0  0  0  0  0  0
   29.1750  -21.5639  -16.3730 C   0  0  0  0  0  0  0  0  0  0  0  0
   28.4265  -21.8723  -15.0715 C   0  0  0  0  0  0  0  0  0  0  0  0
   27.1332  -21.0833  -15.0739 C   0  0  2  0  0  0  0  0  0  0  0  0
   27.4800  -19.6976  -14.8196 N   0  0  0  0  0  0  0  0  0  0  0  0
   26.2072  -21.5292  -14.0172 C   0  0  0  0  0  0  0  0  0  0  0  0
   25.6252  -22.6425  -14.0925 O   0  0  0  0  0  0  0  0  0  0  0  0
   26.4623  -21.9793   -9.5022 C   0  0  0  0  0  0  0  0  0  0  0  0
   26.2004  -20.5684   -9.9636 C   0  0  2  0  0  0  0  0  0  0  0  0
   26.1681  -19.7082   -8.6859 C   0  0  0  0  0  0  0  0  0  0  0  0
   24.9407  -20.3361  -10.6957 C   0  0  0  0  0  0  0  0  0  0  0  0
   24.7593  -20.9624  -12.0316 C   0  0  2  0  0  0  0  0  0  0  0  0
   25.9138  -20.7442  -12.8597 N   0  0  0  0  0  0  0  0  0  0  0  0
   23.4975  -20.5859  -12.6983 C   0  0  0  0  0  0  0  0  0  0  0  0
   23.3888  -19.4639  -13.2553 O   0  0  0  0  0  0  0  0  0  0  0  0
   21.2810  -23.6911  -16.3640 C   0  0  0  0  0  0  0  0  0  0  0  0
   21.7197  -22.5436  -15.5044 C   0  0  0  0  0  0  0  0  0  0  0  0
   20.7519  -22.0937  -14.4775 C   0  0  2  0  0  0  0  0  0  0  0  0
   19.4676  -21.7005  -15.2183 C   0  0  0  0  0  0  0  0  0  0  0  0
   21.1888  -21.0484  -13.5250 C   0  0  2  0  0  0  0  0  0  0  0  0
   22.3625  -21.4352  -12.7531 N   0  0  0  0  0  0  0  0  0  0  0  0
   20.1656  -20.5600  -12.5843 C   0  0  0  0  0  0  0  0  0  0  0  0
   19.3832  -19.6496  -12.9482 O   0  0  0  0  0  0  0  0  0  0  0  0
   20.0028  -21.0479  -11.2968 O   0  0  0  0  0  0  0  0  0  0  0  0
  2  1  1  0
  2  3  1  0
  4  3  1  0
  4  5  1  0
  5  7  1  0
  5  6  1  1
  7  8  2  0
 10  9  1  1
 10 12  1  0
 11 10  1  0
 13 12  1  1
 13 14  1  0
 14  7  1  0
 15 13  1  0
 16 15  2  0
 18 17  1  0
 18 19  1  0
 19 21  1  0
 19 20  1  6
 21 23  1  0
 21 22  1  1
 22 15  1  0
 23 25  1  0
 24 23  2  0
M  END
$$$$
