HPF.pdb
     RDKit          3D

 29 31  0  0  1  0  0  0  0  0999 V2000
    8.2127  -13.1422   18.0704 N   0  0  0  0  0  0  0  0  0  0  0  0
    8.3408  -14.4983   18.5497 C   0  0  1  0  0  0  0  0  0  0  0  0
    9.7702  -14.9582   18.2050 C   0  0  0  0  0  0  0  0  0  0  0  0
    9.8983  -15.2101   16.7263 C   0  0  0  0  0  0  0  0  0  0  0  0
    8.8897  -15.6985   15.9130 C   0  0  0  0  0  0  0  0  0  0  0  0
    9.3996  -15.7813   14.6853 N   0  0  0  0  0  0  0  0  0  0  0  0
   10.6831  -15.3694   14.6771 C   0  0  0  0  0  0  0  0  0  0  0  0
   10.9728  -15.0191   15.9529 N   0  0  0  0  0  0  0  0  0  0  0  0
    8.0278  -14.7280   19.9487 C   0  0  0  0  0  0  0  0  0  0  0  0
    8.6574  -13.9933   20.7879 O   0  0  0  0  0  0  0  0  0  0  0  0
    7.0794  -15.7019   20.4695 N   0  0  0  0  0  0  0  0  0  0  0  0
    6.0796  -16.3399   19.6467 C   0  0  0  0  0  0  0  0  0  0  0  0
    5.5911  -17.5124   20.4522 C   0  0  0  0  0  0  0  0  0  0  0  0
    6.4824  -17.6113   21.6474 C   0  0  0  0  0  0  0  0  0  0  0  0
    6.9452  -16.1497   21.8044 C   0  0  1  0  0  0  0  0  0  0  0  0
    8.1509  -16.2067   22.6379 C   0  0  0  0  0  0  0  0  0  0  0  0
    9.2859  -16.6113   22.3288 O   0  0  0  0  0  0  0  0  0  0  0  0
    8.0260  -15.7359   23.9975 N   0  0  0  0  0  0  0  0  0  0  0  0
    9.1488  -15.7570   24.9331 C   0  0  1  0  0  0  0  0  0  0  0  0
    9.4167  -14.3061   25.2592 C   0  0  0  0  0  0  0  0  0  0  0  0
    8.3024  -13.6049   25.9017 C   0  0  0  0  0  0  0  0  0  0  0  0
    8.2860  -13.4204   27.2644 C   0  0  0  0  0  0  0  0  0  0  0  0
    7.2559  -12.7608   27.9040 C   0  0  0  0  0  0  0  0  0  0  0  0
    6.2107  -12.2728   27.1503 C   0  0  0  0  0  0  0  0  0  0  0  0
    6.2336  -12.4625   25.7798 C   0  0  0  0  0  0  0  0  0  0  0  0
    7.2631  -13.1203   25.1480 C   0  0  0  0  0  0  0  0  0  0  0  0
    8.7135  -16.4815   26.1335 C   0  0  0  0  0  0  0  0  0  0  0  0
    7.4179  -16.9467   26.3070 O   0  0  0  0  0  0  0  0  0  0  0  0
    9.5458  -16.6980   27.0565 O   0  0  0  0  0  0  0  0  0  0  0  0
  2  1  1  1
  2  3  1  0
  3  4  1  0
  4  5  2  0
  5  6  1  0
  7  6  1  0
  8  4  1  0
  8  7  2  0
  9 10  2  0
  9  2  1  0
 11  9  1  0
 12 11  1  0
 13 14  1  0
 13 12  1  0
 14 15  1  0
 15 11  1  0
 15 16  1  6
 17 16  2  0
 18 16  1  0
 19 18  1  0
 19 20  1  1
 21 20  1  0
 21 22  2  0
 23 22  1  0
 24 23  2  0
 25 26  2  0
 25 24  1  0
 26 21  1  0
 27 19  1  0
 28 27  1  0
 29 27  2  0
M  END
$$$$
