HPF.pdb
     RDKit          3D

 29 31  0  0  1  0  0  0  0  0999 V2000
   10.7250  -17.0969   18.3382 N   0  0  0  0  0  0  0  0  0  0  0  0
    9.6469  -17.3988   19.2500 C   0  0  1  0  0  0  0  0  0  0  0  0
    9.8211  -18.8700   19.6727 C   0  0  0  0  0  0  0  0  0  0  0  0
    9.3607  -19.7900   18.5736 C   0  0  0  0  0  0  0  0  0  0  0  0
    8.1456  -19.6971   17.9162 C   0  0  0  0  0  0  0  0  0  0  0  0
    8.1200  -20.6873   17.0257 N   0  0  0  0  0  0  0  0  0  0  0  0
    9.2591  -21.4056   17.0835 C   0  0  0  0  0  0  0  0  0  0  0  0
   10.0153  -20.8323   18.0499 N   0  0  0  0  0  0  0  0  0  0  0  0
    9.5017  -16.5253   20.4005 C   0  0  0  0  0  0  0  0  0  0  0  0
   10.4649  -16.5516   21.2444 O   0  0  0  0  0  0  0  0  0  0  0  0
    8.3784  -15.6403   20.6727 N   0  0  0  0  0  0  0  0  0  0  0  0
    7.5011  -15.1464   19.6381 C   0  0  0  0  0  0  0  0  0  0  0  0
    6.2961  -14.6104   20.3613 C   0  0  0  0  0  0  0  0  0  0  0  0
    6.4509  -14.9980   21.7961 C   0  0  0  0  0  0  0  0  0  0  0  0
    7.9835  -15.1028   21.9199 C   0  0  1  0  0  0  0  0  0  0  0  0
    8.2264  -15.9036   23.1247 C   0  0  0  0  0  0  0  0  0  0  0  0
    8.2552  -17.1422   23.2368 O   0  0  0  0  0  0  0  0  0  0  0  0
    8.4664  -15.1794   24.3509 N   0  0  0  0  0  0  0  0  0  0  0  0
    8.6269  -15.8585   25.6354 C   0  0  1  0  0  0  0  0  0  0  0  0
    9.0211  -14.7717   26.6085 C   0  0  0  0  0  0  0  0  0  0  0  0
    8.2178  -13.5496   26.5232 C   0  0  0  0  0  0  0  0  0  0  0  0
    6.9146  -13.5384   26.9625 C   0  0  0  0  0  0  0  0  0  0  0  0
    6.1290  -12.4050   26.9025 C   0  0  0  0  0  0  0  0  0  0  0  0
    6.6702  -11.2486   26.3844 C   0  0  0  0  0  0  0  0  0  0  0  0
    7.9819  -11.2674   25.9438 C   0  0  0  0  0  0  0  0  0  0  0  0
    8.7600  -12.3998   26.0066 C   0  0  0  0  0  0  0  0  0  0  0  0
    7.3249  -16.4290   26.0021 C   0  0  0  0  0  0  0  0  0  0  0  0
    7.1767  -17.4148   26.9672 O   0  0  0  0  0  0  0  0  0  0  0  0
    6.2854  -16.0122   25.4213 O   0  0  0  0  0  0  0  0  0  0  0  0
  2  1  1  1
  2  3  1  0
  3  4  1  0
  4  5  2  0
  5  6  1  0
  7  6  1  0
  8  4  1  0
  8  7  2  0
  9 10  2  0
  9  2  1  0
 11  9  1  0
 12 11  1  0
 13 14  1  0
 13 12  1  0
 14 15  1  0
 15 11  1  0
 15 16  1  1
 17 16  2  0
 18 16  1  0
 19 18  1  0
 19 20  1  1
 21 20  1  0
 21 22  2  0
 23 22  1  0
 24 23  2  0
 25 26  2  0
 25 24  1  0
 26 21  1  0
 27 19  1  0
 28 27  1  0
 29 27  2  0
M  END
$$$$
