HPF.pdb
     RDKit          3D

 29 31  0  0  1  0  0  0  0  0999 V2000
    8.7295  -16.4447   20.2971 N   0  0  0  0  0  0  0  0  0  0  0  0
    8.6918  -15.4032   21.2965 C   0  0  1  0  0  0  0  0  0  0  0  0
    7.4785  -14.5135   20.9657 C   0  0  0  0  0  0  0  0  0  0  0  0
    7.5767  -13.9949   19.5558 C   0  0  0  0  0  0  0  0  0  0  0  0
    8.0377  -12.7382   19.2015 C   0  0  0  0  0  0  0  0  0  0  0  0
    7.9636  -12.6680   17.8735 N   0  0  0  0  0  0  0  0  0  0  0  0
    7.4785  -13.8183   17.3649 C   0  0  0  0  0  0  0  0  0  0  0  0
    7.2453  -14.6281   18.4252 N   0  0  0  0  0  0  0  0  0  0  0  0
    8.6792  -15.8307   22.6839 C   0  0  0  0  0  0  0  0  0  0  0  0
    8.3151  -14.9462   23.5357 O   0  0  0  0  0  0  0  0  0  0  0  0
    9.0377  -17.1514   23.1806 N   0  0  0  0  0  0  0  0  0  0  0  0
    9.1067  -18.3163   22.3309 C   0  0  0  0  0  0  0  0  0  0  0  0
    9.8613  -19.3450   23.1274 C   0  0  0  0  0  0  0  0  0  0  0  0
   10.3686  -18.6517   24.3500 C   0  0  0  0  0  0  0  0  0  0  0  0
    9.3313  -17.5236   24.5131 C   0  0  1  0  0  0  0  0  0  0  0  0
    9.9668  -16.5285   25.3837 C   0  0  0  0  0  0  0  0  0  0  0  0
   10.8676  -15.7180   25.1023 O   0  0  0  0  0  0  0  0  0  0  0  0
    9.5001  -16.4643   26.7489 N   0  0  0  0  0  0  0  0  0  0  0  0
   10.0915  -15.5565   27.7301 C   0  0  1  0  0  0  0  0  0  0  0  0
    8.9200  -14.8359   28.3558 C   0  0  0  0  0  0  0  0  0  0  0  0
    8.2166  -13.9138   27.4606 C   0  0  0  0  0  0  0  0  0  0  0  0
    7.0104  -14.2665   26.9022 C   0  0  0  0  0  0  0  0  0  0  0  0
    6.3168  -13.4225   26.0585 C   0  0  0  0  0  0  0  0  0  0  0  0
    6.8530  -12.1870   25.7672 C   0  0  0  0  0  0  0  0  0  0  0  0
    8.0674  -11.8391   26.3322 C   0  0  0  0  0  0  0  0  0  0  0  0
    8.7537  -12.6843   27.1726 C   0  0  0  0  0  0  0  0  0  0  0  0
   10.7854  -16.3755   28.7317 C   0  0  0  0  0  0  0  0  0  0  0  0
   11.7049  -15.8528   29.6297 O   0  0  0  0  0  0  0  0  0  0  0  0
   10.5431  -17.6123   28.7893 O   0  0  0  0  0  0  0  0  0  0  0  0
  2  1  1  6
  2  3  1  0
  3  4  1  0
  4  5  2  0
  5  6  1  0
  7  6  1  0
  8  4  1  0
  8  7  2  0
  9 10  2  0
  9  2  1  0
 11  9  1  0
 12 11  1  0
 13 14  1  0
 13 12  1  0
 14 15  1  0
 15 11  1  0
 15 16  1  1
 17 16  2  0
 18 16  1  0
 19 18  1  0
 19 20  1  1
 21 20  1  0
 21 22  2  0
 23 22  1  0
 24 23  2  0
 25 26  2  0
 25 24  1  0
 26 21  1  0
 27 19  1  0
 28 27  1  0
 29 27  2  0
M  END
$$$$
