HPF.pdb
     RDKit          3D

 29 31  0  0  1  0  0  0  0  0999 V2000
    8.2363  -13.2902   17.8920 N   0  0  0  0  0  0  0  0  0  0  0  0
    8.4437  -14.6188   18.4182 C   0  0  1  0  0  0  0  0  0  0  0  0
    9.9124  -14.9857   18.1322 C   0  0  0  0  0  0  0  0  0  0  0  0
   10.0888  -15.3545   16.6833 C   0  0  0  0  0  0  0  0  0  0  0  0
   10.2787  -16.6411   16.2081 C   0  0  0  0  0  0  0  0  0  0  0  0
   10.3948  -16.5431   14.8849 N   0  0  0  0  0  0  0  0  0  0  0  0
   10.2877  -15.2573   14.4943 C   0  0  0  0  0  0  0  0  0  0  0  0
   10.0980  -14.5364   15.6251 N   0  0  0  0  0  0  0  0  0  0  0  0
    8.1020  -14.8285   19.8135 C   0  0  0  0  0  0  0  0  0  0  0  0
    8.7050  -14.0731   20.6539 O   0  0  0  0  0  0  0  0  0  0  0  0
    7.1525  -15.8039   20.3297 N   0  0  0  0  0  0  0  0  0  0  0  0
    6.1682  -16.4553   19.4987 C   0  0  0  0  0  0  0  0  0  0  0  0
    5.6758  -17.6238   20.3075 C   0  0  0  0  0  0  0  0  0  0  0  0
    6.5510  -17.7067   21.5158 C   0  0  0  0  0  0  0  0  0  0  0  0
    7.0025  -16.2409   21.6664 C   0  0  1  0  0  0  0  0  0  0  0  0
    8.1968  -16.2831   22.5170 C   0  0  0  0  0  0  0  0  0  0  0  0
    9.3635  -16.5736   22.1975 O   0  0  0  0  0  0  0  0  0  0  0  0
    8.0170  -15.9464   23.9098 N   0  0  0  0  0  0  0  0  0  0  0  0
    9.1418  -15.8588   24.8393 C   0  0  1  0  0  0  0  0  0  0  0  0
    9.4150  -14.3801   24.9881 C   0  0  0  0  0  0  0  0  0  0  0  0
    8.3350  -13.6159   25.6172 C   0  0  0  0  0  0  0  0  0  0  0  0
    8.3365  -13.3918   26.9740 C   0  0  0  0  0  0  0  0  0  0  0  0
    7.3388  -12.6727   27.6008 C   0  0  0  0  0  0  0  0  0  0  0  0
    6.3084  -12.1645   26.8401 C   0  0  0  0  0  0  0  0  0  0  0  0
    6.3131  -12.3944   25.4755 C   0  0  0  0  0  0  0  0  0  0  0  0
    7.3103  -13.1114   24.8565 C   0  0  0  0  0  0  0  0  0  0  0  0
    8.7067  -16.4322   26.1188 C   0  0  0  0  0  0  0  0  0  0  0  0
    9.5902  -16.7781   27.1312 O   0  0  0  0  0  0  0  0  0  0  0  0
    7.4761  -16.6239   26.3198 O   0  0  0  0  0  0  0  0  0  0  0  0
  2  1  1  1
  2  3  1  0
  3  4  1  0
  4  5  2  0
  5  6  1  0
  7  6  1  0
  8  4  1  0
  8  7  2  0
  9 10  2  0
  9  2  1  0
 11  9  1  0
 12 11  1  0
 13 14  1  0
 13 12  1  0
 14 15  1  0
 15 11  1  0
 15 16  1  1
 17 16  2  0
 18 16  1  0
 19 18  1  0
 19 20  1  1
 21 20  1  0
 21 22  2  0
 23 22  1  0
 24 23  2  0
 25 26  2  0
 25 24  1  0
 26 21  1  0
 27 19  1  0
 28 27  1  0
 29 27  2  0
M  END
$$$$
