HPF.pdb
     RDKit          3D

 29 31  0  0  1  0  0  0  0  0999 V2000
    9.2448  -18.0537   19.8241 N   0  0  0  0  0  0  0  0  0  0  0  0
   10.4224  -18.3101   20.6194 C   0  0  1  0  0  0  0  0  0  0  0  0
   11.5407  -17.4099   20.0604 C   0  0  0  0  0  0  0  0  0  0  0  0
   11.8244  -17.7565   18.6231 C   0  0  0  0  0  0  0  0  0  0  0  0
   12.8171  -18.6218   18.1952 C   0  0  0  0  0  0  0  0  0  0  0  0
   12.7436  -18.6548   16.8657 N   0  0  0  0  0  0  0  0  0  0  0  0
   11.7527  -17.8535   16.4263 C   0  0  0  0  0  0  0  0  0  0  0  0
   11.1949  -17.3059   17.5323 N   0  0  0  0  0  0  0  0  0  0  0  0
   10.2839  -18.1609   22.0569 C   0  0  0  0  0  0  0  0  0  0  0  0
   10.4696  -16.9791   22.5143 O   0  0  0  0  0  0  0  0  0  0  0  0
    9.9591  -19.2174   23.0043 N   0  0  0  0  0  0  0  0  0  0  0  0
    9.3052  -20.4444   22.6162 C   0  0  0  0  0  0  0  0  0  0  0  0
    9.5040  -21.3840   23.7737 C   0  0  0  0  0  0  0  0  0  0  0  0
   10.4445  -20.7072   24.7173 C   0  0  0  0  0  0  0  0  0  0  0  0
   10.1771  -19.2226   24.4017 C   0  0  1  0  0  0  0  0  0  0  0  0
   11.3398  -18.4950   24.9217 C   0  0  0  0  0  0  0  0  0  0  0  0
   12.4934  -18.4488   24.4584 O   0  0  0  0  0  0  0  0  0  0  0  0
   11.1408  -17.7249   26.1271 N   0  0  0  0  0  0  0  0  0  0  0  0
   12.2580  -17.1576   26.8799 C   0  0  1  0  0  0  0  0  0  0  0  0
   12.2721  -15.6907   26.5176 C   0  0  0  0  0  0  0  0  0  0  0  0
   11.1214  -14.9263   27.0050 C   0  0  0  0  0  0  0  0  0  0  0  0
   11.1509  -14.3348   28.2462 C   0  0  0  0  0  0  0  0  0  0  0  0
   10.0880  -13.6034   28.7368 C   0  0  0  0  0  0  0  0  0  0  0  0
    8.9615  -13.4634   27.9557 C   0  0  0  0  0  0  0  0  0  0  0  0
    8.9386  -14.0617   26.7082 C   0  0  0  0  0  0  0  0  0  0  0  0
   10.0010  -14.7890   26.2245 C   0  0  0  0  0  0  0  0  0  0  0  0
   11.9655  -17.3313   28.3080 C   0  0  0  0  0  0  0  0  0  0  0  0
   12.9348  -17.2301   29.2956 O   0  0  0  0  0  0  0  0  0  0  0  0
   10.7828  -17.5841   28.6670 O   0  0  0  0  0  0  0  0  0  0  0  0
  2  1  1  6
  2  3  1  0
  3  4  1  0
  4  5  2  0
  5  6  1  0
  7  6  1  0
  8  4  1  0
  8  7  2  0
  9 10  2  0
  9  2  1  0
 11  9  1  0
 12 11  1  0
 13 14  1  0
 13 12  1  0
 14 15  1  0
 15 11  1  0
 15 16  1  6
 17 16  2  0
 18 16  1  0
 19 18  1  0
 19 20  1  1
 21 20  1  0
 21 22  2  0
 23 22  1  0
 24 23  2  0
 25 26  2  0
 25 24  1  0
 26 21  1  0
 27 19  1  0
 28 27  1  0
 29 27  2  0
M  END
$$$$
