HPF.pdb
     RDKit          3D

 29 31  0  0  1  0  0  0  0  0999 V2000
    6.5560  -18.8245   19.3292 N   0  0  0  0  0  0  0  0  0  0  0  0
    6.3402  -17.6961   20.2040 C   0  0  1  0  0  0  0  0  0  0  0  0
    5.4827  -18.2027   21.3794 C   0  0  0  0  0  0  0  0  0  0  0  0
    4.1523  -18.7014   20.8819 C   0  0  0  0  0  0  0  0  0  0  0  0
    3.0149  -17.9246   20.7397 C   0  0  0  0  0  0  0  0  0  0  0  0
    2.0596  -18.7317   20.2815 N   0  0  0  0  0  0  0  0  0  0  0  0
    2.5330  -19.9840   20.1245 C   0  0  0  0  0  0  0  0  0  0  0  0
    3.8330  -19.9436   20.5022 N   0  0  0  0  0  0  0  0  0  0  0  0
    7.5237  -16.9951   20.6684 C   0  0  0  0  0  0  0  0  0  0  0  0
    8.3323  -17.6824   21.3854 O   0  0  0  0  0  0  0  0  0  0  0  0
    7.8637  -15.6062   20.3952 N   0  0  0  0  0  0  0  0  0  0  0  0
    7.4647  -14.9246   19.1869 C   0  0  0  0  0  0  0  0  0  0  0  0
    7.6708  -13.4618   19.4692 C   0  0  0  0  0  0  0  0  0  0  0  0
    8.0065  -13.3495   20.9210 C   0  0  0  0  0  0  0  0  0  0  0  0
    8.6324  -14.7305   21.1968 C   0  0  1  0  0  0  0  0  0  0  0  0
    8.5796  -14.9020   22.6527 C   0  0  0  0  0  0  0  0  0  0  0  0
    7.6570  -14.6062   23.4329 O   0  0  0  0  0  0  0  0  0  0  0  0
    9.7391  -15.4896   23.2820 N   0  0  0  0  0  0  0  0  0  0  0  0
   10.2457  -15.0196   24.5701 C   0  0  1  0  0  0  0  0  0  0  0  0
    9.1162  -15.2534   25.5463 C   0  0  0  0  0  0  0  0  0  0  0  0
    9.4214  -14.9008   26.9350 C   0  0  0  0  0  0  0  0  0  0  0  0
    9.7832  -15.8721   27.8389 C   0  0  0  0  0  0  0  0  0  0  0  0
   10.0824  -15.5770   29.1538 C   0  0  0  0  0  0  0  0  0  0  0  0
   10.0150  -14.2659   29.5720 C   0  0  0  0  0  0  0  0  0  0  0  0
    9.6498  -13.2939   28.6572 C   0  0  0  0  0  0  0  0  0  0  0  0
    9.3532  -13.5939   27.3482 C   0  0  0  0  0  0  0  0  0  0  0  0
   11.4067  -15.8473   24.9198 C   0  0  0  0  0  0  0  0  0  0  0  0
   11.7567  -16.9925   24.2191 O   0  0  0  0  0  0  0  0  0  0  0  0
   12.1274  -15.5127   25.8997 O   0  0  0  0  0  0  0  0  0  0  0  0
  2  1  1  1
  2  3  1  0
  3  4  1  0
  4  5  2  0
  5  6  1  0
  7  6  1  0
  8  4  1  0
  8  7  2  0
  9 10  2  0
  9  2  1  0
 11  9  1  0
 12 11  1  0
 13 14  1  0
 13 12  1  0
 14 15  1  0
 15 11  1  0
 15 16  1  1
 17 16  2  0
 18 16  1  0
 19 18  1  0
 19 20  1  1
 21 20  1  0
 21 22  2  0
 23 22  1  0
 24 23  2  0
 25 26  2  0
 25 24  1  0
 26 21  1  0
 27 19  1  0
 28 27  1  0
 29 27  2  0
M  END
$$$$
