HPF.pdb
     RDKit          3D

 29 31  0  0  1  0  0  0  0  0999 V2000
    8.6820  -18.3684   17.8911 N   0  0  0  0  0  0  0  0  0  0  0  0
    9.1251  -18.8324   19.1847 C   0  0  1  0  0  0  0  0  0  0  0  0
   10.6078  -18.4350   19.3153 C   0  0  0  0  0  0  0  0  0  0  0  0
   11.4589  -19.2744   18.4002 C   0  0  0  0  0  0  0  0  0  0  0  0
   11.7142  -20.6248   18.5688 C   0  0  0  0  0  0  0  0  0  0  0  0
   12.5040  -20.9899   17.5604 N   0  0  0  0  0  0  0  0  0  0  0  0
   12.7637  -19.9385   16.7578 C   0  0  0  0  0  0  0  0  0  0  0  0
   12.1057  -18.8842   17.2963 N   0  0  0  0  0  0  0  0  0  0  0  0
    8.3516  -18.3976   20.3337 C   0  0  0  0  0  0  0  0  0  0  0  0
    8.3106  -17.1328   20.5309 O   0  0  0  0  0  0  0  0  0  0  0  0
    7.6332  -19.2579   21.2628 N   0  0  0  0  0  0  0  0  0  0  0  0
    7.3343  -20.6413   20.9788 C   0  0  0  0  0  0  0  0  0  0  0  0
    6.9485  -21.2442   22.3016 C   0  0  0  0  0  0  0  0  0  0  0  0
    7.2301  -20.2090   23.3418 C   0  0  0  0  0  0  0  0  0  0  0  0
    7.0950  -18.9100   22.5236 C   0  0  1  0  0  0  0  0  0  0  0  0
    7.7836  -17.8788   23.3073 C   0  0  0  0  0  0  0  0  0  0  0  0
    9.0069  -17.7096   23.4568 O   0  0  0  0  0  0  0  0  0  0  0  0
    6.9516  -16.9252   24.0031 N   0  0  0  0  0  0  0  0  0  0  0  0
    7.5153  -15.8672   24.8395 C   0  0  1  0  0  0  0  0  0  0  0  0
    6.4474  -14.7996   24.8965 C   0  0  0  0  0  0  0  0  0  0  0  0
    6.7126  -13.7153   25.8452 C   0  0  0  0  0  0  0  0  0  0  0  0
    5.7319  -13.2880   26.7094 C   0  0  0  0  0  0  0  0  0  0  0  0
    5.9465  -12.2729   27.6199 C   0  0  0  0  0  0  0  0  0  0  0  0
    7.1844  -11.6691   27.6617 C   0  0  0  0  0  0  0  0  0  0  0  0
    8.1662  -12.1039   26.7889 C   0  0  0  0  0  0  0  0  0  0  0  0
    7.9466  -13.1162   25.8841 C   0  0  0  0  0  0  0  0  0  0  0  0
    7.7484  -16.4325   26.1741 C   0  0  0  0  0  0  0  0  0  0  0  0
    6.9051  -17.3680   26.7563 O   0  0  0  0  0  0  0  0  0  0  0  0
    8.7582  -16.0595   26.8320 O   0  0  0  0  0  0  0  0  0  0  0  0
  2  1  1  6
  2  3  1  0
  3  4  1  0
  4  5  2  0
  5  6  1  0
  7  6  1  0
  8  4  1  0
  8  7  2  0
  9 10  2  0
  9  2  1  0
 11  9  1  0
 12 11  1  0
 13 14  1  0
 13 12  1  0
 14 15  1  0
 15 11  1  0
 15 16  1  1
 17 16  2  0
 18 16  1  0
 19 18  1  0
 19 20  1  1
 21 20  1  0
 21 22  2  0
 23 22  1  0
 24 23  2  0
 25 26  2  0
 25 24  1  0
 26 21  1  0
 27 19  1  0
 28 27  1  0
 29 27  2  0
M  END
$$$$
