TWH.pdb
     RDKit          3D

 32 34  0  0  1  0  0  0  0  0999 V2000
   27.2214  -19.1773  -15.9702 C   0  0  0  0  0  0  0  0  0  0  0  0
   27.7742  -20.4304  -16.6299 C   0  0  1  0  0  0  0  0  0  0  0  0
   28.5597  -20.1034  -17.7235 O   0  0  0  0  0  0  0  0  0  0  0  0
   28.5553  -21.1939  -15.5793 C   0  0  2  0  0  0  0  0  0  0  0  0
   29.1779  -22.3730  -16.1663 N   0  0  0  0  0  0  0  0  0  0  0  0
   27.6145  -21.5679  -14.4980 C   0  0  0  0  0  0  0  0  0  0  0  0
   26.7930  -22.5201  -14.6262 O   0  0  0  0  0  0  0  0  0  0  0  0
   27.6223  -20.8590  -13.2944 N   0  0  0  0  0  0  0  0  0  0  0  0
   26.7411  -21.2423  -12.1542 C   0  0  1  0  0  0  0  0  0  0  0  0
   27.4537  -20.7711  -10.9516 C   0  0  0  0  0  0  0  0  0  0  0  0
   26.7194  -20.7067   -9.6852 C   0  0  0  0  0  0  0  0  0  0  0  0
   25.3993  -20.9147   -9.3578 C   0  0  0  0  0  0  0  0  0  0  0  0
   25.2036  -20.7340   -8.0466 N   0  0  0  0  0  0  0  0  0  0  0  0
   26.3813  -20.4068   -7.4919 C   0  0  0  0  0  0  0  0  0  0  0  0
   26.7437  -20.1285   -6.1732 C   0  0  0  0  0  0  0  0  0  0  0  0
   28.0365  -19.8284   -5.8318 C   0  0  0  0  0  0  0  0  0  0  0  0
   29.0111  -19.8001   -6.8238 C   0  0  0  0  0  0  0  0  0  0  0  0
   28.6299  -20.0792   -8.1263 C   0  0  0  0  0  0  0  0  0  0  0  0
   27.3431  -20.3803   -8.4805 C   0  0  0  0  0  0  0  0  0  0  0  0
   25.3950  -20.8182  -12.4227 C   0  0  0  0  0  0  0  0  0  0  0  0
   25.1794  -19.5768  -12.6660 O   0  0  0  0  0  0  0  0  0  0  0  0
   24.2182  -21.5903  -12.4719 N   0  0  0  0  0  0  0  0  0  0  0  0
   22.9218  -21.0933  -12.8413 C   0  0  1  0  0  0  0  0  0  0  0  0
   21.9208  -22.1272  -13.1651 C   0  0  0  0  0  0  0  0  0  0  0  0
   20.6303  -21.5642  -13.5996 C   0  0  0  0  0  0  0  0  0  0  0  0
   20.4620  -20.5496  -14.5687 C   0  0  0  0  0  0  0  0  0  0  0  0
   19.1619  -20.2744  -14.7231 N   0  0  0  0  0  0  0  0  0  0  0  0
   18.4837  -21.0648  -13.8982 C   0  0  0  0  0  0  0  0  0  0  0  0
   19.3691  -21.8265  -13.2363 N   0  0  0  0  0  0  0  0  0  0  0  0
   22.4413  -20.3025  -11.7012 C   0  0  0  0  0  0  0  0  0  0  0  0
   21.8349  -19.0702  -11.9383 O   0  0  0  0  0  0  0  0  0  0  0  0
   22.5226  -20.6237  -10.4987 O   0  0  0  0  0  0  0  0  0  0  0  0
  2  1  1  1
  3  2  1  0
  4  5  1  6
  4  2  1  0
  6  4  1  0
  7  6  2  0
  8  6  1  0
  9  8  1  0
  9 10  1  1
 11 10  1  0
 11 12  2  0
 13 12  1  0
 14 13  1  0
 15 14  2  0
 16 15  1  0
 17 16  2  0
 17 18  1  0
 18 19  2  0
 19 14  1  0
 19 11  1  0
 20  9  1  0
 20 21  2  0
 22 20  1  0
 23 22  1  0
 23 24  1  1
 25 24  1  0
 25 26  2  0
 27 26  1  0
 28 27  1  0
 29 28  2  0
 29 25  1  0
 30 23  1  0
 31 30  1  0
 32 30  2  0
M  END
$$$$
