TWH.pdb
     RDKit          3D

 32 34  0  0  1  0  0  0  0  0999 V2000
   12.3812  -21.6065    2.8392 C   0  0  0  0  0  0  0  0  0  0  0  0
   13.8051  -21.3594    3.3112 C   0  0  1  0  0  0  0  0  0  0  0  0
   14.4534  -22.5577    3.5629 O   0  0  0  0  0  0  0  0  0  0  0  0
   14.5078  -20.5490    2.2406 C   0  0  2  0  0  0  0  0  0  0  0  0
   14.5635  -21.2970    0.9917 N   0  0  0  0  0  0  0  0  0  0  0  0
   15.8675  -20.2291    2.7337 C   0  0  0  0  0  0  0  0  0  0  0  0
   16.8953  -20.8138    2.2871 O   0  0  0  0  0  0  0  0  0  0  0  0
   16.0372  -19.2547    3.7202 N   0  0  0  0  0  0  0  0  0  0  0  0
   17.3918  -18.8008    4.1475 C   0  0  1  0  0  0  0  0  0  0  0  0
   17.2911  -17.3310    4.2223 C   0  0  0  0  0  0  0  0  0  0  0  0
   18.0513  -16.5291    3.2599 C   0  0  0  0  0  0  0  0  0  0  0  0
   18.6615  -16.8328    2.0647 C   0  0  0  0  0  0  0  0  0  0  0  0
   19.2433  -15.7473    1.5421 N   0  0  0  0  0  0  0  0  0  0  0  0
   19.0283  -14.7181    2.3765 C   0  0  0  0  0  0  0  0  0  0  0  0
   19.3970  -13.3736    2.3105 C   0  0  0  0  0  0  0  0  0  0  0  0
   19.0452  -12.4836    3.2914 C   0  0  0  0  0  0  0  0  0  0  0  0
   18.3030  -12.9311    4.3792 C   0  0  0  0  0  0  0  0  0  0  0  0
   17.9478  -14.2696    4.4252 C   0  0  0  0  0  0  0  0  0  0  0  0
   18.2923  -15.1684    3.4528 C   0  0  0  0  0  0  0  0  0  0  0  0
   17.8186  -19.5658    5.2861 C   0  0  0  0  0  0  0  0  0  0  0  0
   16.9906  -19.7465    6.2497 O   0  0  0  0  0  0  0  0  0  0  0  0
   19.0612  -20.1866    5.5184 N   0  0  0  0  0  0  0  0  0  0  0  0
   19.4176  -20.8931    6.7176 C   0  0  1  0  0  0  0  0  0  0  0  0
   20.6413  -21.7114    6.6252 C   0  0  0  0  0  0  0  0  0  0  0  0
   20.9591  -22.4171    7.8791 C   0  0  0  0  0  0  0  0  0  0  0  0
   20.0406  -22.7076    8.9130 C   0  0  0  0  0  0  0  0  0  0  0  0
   20.6587  -23.3567    9.9062 N   0  0  0  0  0  0  0  0  0  0  0  0
   21.9338  -23.4983    9.5606 C   0  0  0  0  0  0  0  0  0  0  0  0
   22.0985  -22.9352    8.3532 N   0  0  0  0  0  0  0  0  0  0  0  0
   19.6007  -19.8745    7.7593 C   0  0  0  0  0  0  0  0  0  0  0  0
   19.0659  -20.0974    9.0269 O   0  0  0  0  0  0  0  0  0  0  0  0
   20.2020  -18.7897    7.6276 O   0  0  0  0  0  0  0  0  0  0  0  0
  2  1  1  6
  3  2  1  0
  4  5  1  6
  4  2  1  0
  6  4  1  0
  7  6  2  0
  8  6  1  0
  9  8  1  0
  9 10  1  1
 11 10  1  0
 11 12  2  0
 13 12  1  0
 14 13  1  0
 15 14  2  0
 16 15  1  0
 17 16  2  0
 17 18  1  0
 18 19  2  0
 19 14  1  0
 19 11  1  0
 20  9  1  0
 20 21  2  0
 22 20  1  0
 23 22  1  0
 23 24  1  6
 25 24  1  0
 25 26  2  0
 27 26  1  0
 28 27  1  0
 29 28  2  0
 29 25  1  0
 30 23  1  0
 31 30  1  0
 32 30  2  0
M  END
$$$$
