TWH.pdb
     RDKit          3D

 32 34  0  0  1  0  0  0  0  0999 V2000
   24.3755  -24.3076  -17.0086 C   0  0  0  0  0  0  0  0  0  0  0  0
   25.8657  -24.4375  -16.7376 C   0  0  1  0  0  0  0  0  0  0  0  0
   26.3839  -25.5555  -17.3709 O   0  0  0  0  0  0  0  0  0  0  0  0
   26.5298  -23.1598  -17.2101 C   0  0  2  0  0  0  0  0  0  0  0  0
   27.9575  -23.1927  -16.9222 N   0  0  0  0  0  0  0  0  0  0  0  0
   25.8711  -22.0254  -16.5219 C   0  0  0  0  0  0  0  0  0  0  0  0
   26.2163  -21.6547  -15.3638 O   0  0  0  0  0  0  0  0  0  0  0  0
   24.8373  -21.3333  -17.1571 N   0  0  0  0  0  0  0  0  0  0  0  0
   24.1459  -20.1855  -16.5028 C   0  0  1  0  0  0  0  0  0  0  0  0
   24.3462  -19.0501  -17.4230 C   0  0  0  0  0  0  0  0  0  0  0  0
   25.6515  -18.3842  -17.4365 C   0  0  0  0  0  0  0  0  0  0  0  0
   26.7810  -18.5556  -18.2033 C   0  0  0  0  0  0  0  0  0  0  0  0
   27.7372  -17.6955  -17.8347 N   0  0  0  0  0  0  0  0  0  0  0  0
   27.2585  -16.9486  -16.8273 C   0  0  0  0  0  0  0  0  0  0  0  0
   27.8239  -15.9065  -16.0910 C   0  0  0  0  0  0  0  0  0  0  0  0
   27.1269  -15.2674  -15.0992 C   0  0  0  0  0  0  0  0  0  0  0  0
   25.8245  -15.6672  -14.8194 C   0  0  0  0  0  0  0  0  0  0  0  0
   25.2824  -16.7038  -15.5620 C   0  0  0  0  0  0  0  0  0  0  0  0
   25.9671  -17.3500  -16.5547 C   0  0  0  0  0  0  0  0  0  0  0  0
   22.8239  -20.5833  -16.1054 C   0  0  0  0  0  0  0  0  0  0  0  0
   22.0919  -21.2126  -16.9510 O   0  0  0  0  0  0  0  0  0  0  0  0
   22.1764  -20.3894  -14.8699 N   0  0  0  0  0  0  0  0  0  0  0  0
   20.8808  -20.9082  -14.5285 C   0  0  1  0  0  0  0  0  0  0  0  0
   20.8366  -21.7371  -13.3093 C   0  0  0  0  0  0  0  0  0  0  0  0
   19.4831  -22.2266  -12.9936 C   0  0  0  0  0  0  0  0  0  0  0  0
   18.4312  -22.3886  -13.9232 C   0  0  0  0  0  0  0  0  0  0  0  0
   17.3393  -22.8510  -13.3037 N   0  0  0  0  0  0  0  0  0  0  0  0
   17.6383  -22.9946  -12.0171 C   0  0  0  0  0  0  0  0  0  0  0  0
   18.9161  -22.6198  -11.8467 N   0  0  0  0  0  0  0  0  0  0  0  0
   20.0033  -19.7448  -14.3481 C   0  0  0  0  0  0  0  0  0  0  0  0
   18.6267  -19.9044  -14.4962 O   0  0  0  0  0  0  0  0  0  0  0  0
   20.3694  -18.5853  -14.0698 O   0  0  0  0  0  0  0  0  0  0  0  0
  2  1  1  6
  3  2  1  0
  4  5  1  1
  4  2  1  0
  6  4  1  0
  7  6  2  0
  8  6  1  0
  9  8  1  0
  9 10  1  6
 11 10  1  0
 11 12  2  0
 13 12  1  0
 14 13  1  0
 15 14  2  0
 16 15  1  0
 17 16  2  0
 17 18  1  0
 18 19  2  0
 19 14  1  0
 19 11  1  0
 20  9  1  0
 20 21  2  0
 22 20  1  0
 23 22  1  0
 23 24  1  1
 25 24  1  0
 25 26  2  0
 27 26  1  0
 28 27  1  0
 29 28  2  0
 29 25  1  0
 30 23  1  0
 31 30  1  0
 32 30  2  0
M  END
$$$$
