TWH.pdb
     RDKit          3D

 32 34  0  0  1  0  0  0  0  0999 V2000
   29.2753  -18.4855  -15.6744 C   0  0  0  0  0  0  0  0  0  0  0  0
   28.1461  -19.1299  -14.8864 C   0  0  1  0  0  0  0  0  0  0  0  0
   26.9984  -19.2190  -15.6574 O   0  0  0  0  0  0  0  0  0  0  0  0
   28.6276  -20.4916  -14.4274 C   0  0  2  0  0  0  0  0  0  0  0  0
   28.6707  -21.4200  -15.5494 N   0  0  0  0  0  0  0  0  0  0  0  0
   27.7018  -20.9682  -13.3738 C   0  0  0  0  0  0  0  0  0  0  0  0
   26.7286  -21.7315  -13.6344 O   0  0  0  0  0  0  0  0  0  0  0  0
   27.8957  -20.5731  -12.0481 N   0  0  0  0  0  0  0  0  0  0  0  0
   26.9710  -21.0025  -10.9599 C   0  0  1  0  0  0  0  0  0  0  0  0
   27.6821  -20.6753   -9.7095 C   0  0  0  0  0  0  0  0  0  0  0  0
   26.9031  -20.5553   -8.4742 C   0  0  0  0  0  0  0  0  0  0  0  0
   25.5727  -20.7524   -8.1845 C   0  0  0  0  0  0  0  0  0  0  0  0
   25.3303  -20.5124   -6.8907 N   0  0  0  0  0  0  0  0  0  0  0  0
   26.4870  -20.1561   -6.3104 C   0  0  0  0  0  0  0  0  0  0  0  0
   26.8019  -19.8164   -4.9938 C   0  0  0  0  0  0  0  0  0  0  0  0
   28.0812  -19.4967   -4.6211 C   0  0  0  0  0  0  0  0  0  0  0  0
   29.0904  -19.5107   -5.5782 C   0  0  0  0  0  0  0  0  0  0  0  0
   28.7561  -19.8505   -6.8792 C   0  0  0  0  0  0  0  0  0  0  0  0
   27.4832  -20.1719   -7.2645 C   0  0  0  0  0  0  0  0  0  0  0  0
   25.6558  -20.4832  -11.2133 C   0  0  0  0  0  0  0  0  0  0  0  0
   25.5136  -19.2162  -11.3600 O   0  0  0  0  0  0  0  0  0  0  0  0
   24.4393  -21.1812  -11.3413 N   0  0  0  0  0  0  0  0  0  0  0  0
   23.2042  -20.6070  -11.7983 C   0  0  1  0  0  0  0  0  0  0  0  0
   22.4987  -21.3790  -12.8385 C   0  0  0  0  0  0  0  0  0  0  0  0
   21.2053  -20.7849  -13.2197 C   0  0  0  0  0  0  0  0  0  0  0  0
   21.0279  -19.5122  -13.8077 C   0  0  0  0  0  0  0  0  0  0  0  0
   19.7275  -19.2847  -14.0244 N   0  0  0  0  0  0  0  0  0  0  0  0
   19.0577  -20.3520  -13.6032 C   0  0  0  0  0  0  0  0  0  0  0  0
   19.9486  -21.2363  -13.1271 N   0  0  0  0  0  0  0  0  0  0  0  0
   22.3387  -20.4931  -10.6175 C   0  0  0  0  0  0  0  0  0  0  0  0
   22.5221  -21.3758   -9.5547 O   0  0  0  0  0  0  0  0  0  0  0  0
   21.4209  -19.6637  -10.4574 O   0  0  0  0  0  0  0  0  0  0  0  0
  2  1  1  6
  3  2  1  0
  4  5  1  6
  4  2  1  0
  6  4  1  0
  7  6  2  0
  8  6  1  0
  9  8  1  0
  9 10  1  1
 11 10  1  0
 11 12  2  0
 13 12  1  0
 14 13  1  0
 15 14  2  0
 16 15  1  0
 17 16  2  0
 17 18  1  0
 18 19  2  0
 19 14  1  0
 19 11  1  0
 20  9  1  0
 20 21  2  0
 22 20  1  0
 23 22  1  0
 23 24  1  6
 25 24  1  0
 25 26  2  0
 27 26  1  0
 28 27  1  0
 29 28  2  0
 29 25  1  0
 30 23  1  0
 31 30  1  0
 32 30  2  0
M  END
$$$$
