TWH.pdb
     RDKit          3D

 32 34  0  0  1  0  0  0  0  0999 V2000
   29.1126  -18.5775  -15.3725 C   0  0  0  0  0  0  0  0  0  0  0  0
   27.9964  -19.1655  -14.5243 C   0  0  1  0  0  0  0  0  0  0  0  0
   26.7953  -19.1503  -15.2149 O   0  0  0  0  0  0  0  0  0  0  0  0
   28.4089  -20.5711  -14.1359 C   0  0  2  0  0  0  0  0  0  0  0  0
   28.3669  -21.4517  -15.2957 N   0  0  0  0  0  0  0  0  0  0  0  0
   27.4853  -21.0379  -13.0760 C   0  0  0  0  0  0  0  0  0  0  0  0
   26.4407  -21.6977  -13.3426 O   0  0  0  0  0  0  0  0  0  0  0  0
   27.7620  -20.7501  -11.7373 N   0  0  0  0  0  0  0  0  0  0  0  0
   26.7788  -21.0409  -10.6546 C   0  0  1  0  0  0  0  0  0  0  0  0
   27.5639  -20.9849   -9.4070 C   0  0  0  0  0  0  0  0  0  0  0  0
   26.8498  -20.8045   -8.1402 C   0  0  0  0  0  0  0  0  0  0  0  0
   25.5405  -21.0043   -7.7678 C   0  0  0  0  0  0  0  0  0  0  0  0
   25.3631  -20.6927   -6.4788 N   0  0  0  0  0  0  0  0  0  0  0  0
   26.5424  -20.2857   -5.9836 C   0  0  0  0  0  0  0  0  0  0  0  0
   26.9209  -19.8649   -4.7078 C   0  0  0  0  0  0  0  0  0  0  0  0
   28.2123  -19.5048   -4.4241 C   0  0  0  0  0  0  0  0  0  0  0  0
   29.1690  -19.5597   -5.4321 C   0  0  0  0  0  0  0  0  0  0  0  0
   28.7721  -19.9799   -6.6914 C   0  0  0  0  0  0  0  0  0  0  0  0
   27.4865  -20.3423   -6.9878 C   0  0  0  0  0  0  0  0  0  0  0  0
   25.6153  -20.2161  -10.8269 C   0  0  0  0  0  0  0  0  0  0  0  0
   25.7761  -18.9957  -11.1899 O   0  0  0  0  0  0  0  0  0  0  0  0
   24.2586  -20.5554  -10.6606 N   0  0  0  0  0  0  0  0  0  0  0  0
   23.1810  -20.0646  -11.4742 C   0  0  1  0  0  0  0  0  0  0  0  0
   23.3723  -20.2153  -12.9289 C   0  0  0  0  0  0  0  0  0  0  0  0
   22.2641  -19.6489  -13.7179 C   0  0  0  0  0  0  0  0  0  0  0  0
   21.7230  -18.3530  -13.5607 C   0  0  0  0  0  0  0  0  0  0  0  0
   20.7296  -18.1619  -14.4361 N   0  0  0  0  0  0  0  0  0  0  0  0
   20.6047  -19.2749  -15.1508 C   0  0  0  0  0  0  0  0  0  0  0  0
   21.5233  -20.1508  -14.7133 N   0  0  0  0  0  0  0  0  0  0  0  0
   21.9832  -20.8113  -11.0692 C   0  0  0  0  0  0  0  0  0  0  0  0
   20.8325  -20.1080  -10.7175 O   0  0  0  0  0  0  0  0  0  0  0  0
   21.8805  -22.0525  -10.9998 O   0  0  0  0  0  0  0  0  0  0  0  0
  2  1  1  6
  3  2  1  0
  4  5  1  6
  4  2  1  0
  6  4  1  0
  7  6  2  0
  8  6  1  0
  9  8  1  0
  9 10  1  1
 11 10  1  0
 11 12  2  0
 13 12  1  0
 14 13  1  0
 15 14  2  0
 16 15  1  0
 17 16  2  0
 17 18  1  0
 18 19  2  0
 19 14  1  0
 19 11  1  0
 20  9  1  0
 20 21  2  0
 22 20  1  0
 23 22  1  0
 23 24  1  6
 25 24  1  0
 25 26  2  0
 27 26  1  0
 28 27  1  0
 29 28  2  0
 29 25  1  0
 30 23  1  0
 31 30  1  0
 32 30  2  0
M  END
$$$$
