SHM.pdb
     RDKit          3D

 25 25  0  0  1  0  0  0  0  0999 V2000
    5.9421  -15.5066   20.1690 O   0  0  0  0  0  0  0  0  0  0  0  0
    7.0240  -15.2778   19.3209 C   0  0  0  0  0  0  0  0  0  0  0  0
    7.8756  -16.5431   19.1933 C   0  0  2  0  0  0  0  0  0  0  0  0
    7.0997  -17.5977   18.6254 N   0  0  0  0  0  0  0  0  0  0  0  0
    8.5169  -16.8896   20.4738 C   0  0  0  0  0  0  0  0  0  0  0  0
    7.9621  -17.7234   21.2358 O   0  0  0  0  0  0  0  0  0  0  0  0
    9.7455  -16.3406   20.9266 N   0  0  0  0  0  0  0  0  0  0  0  0
   10.3791  -16.6846   22.1758 C   0  0  1  0  0  0  0  0  0  0  0  0
   11.8783  -16.6937   22.0949 C   0  0  0  0  0  0  0  0  0  0  0  0
   12.4156  -17.9245   21.4798 C   0  0  0  0  0  0  0  0  0  0  0  0
   11.7900  -19.1124   21.1822 C   0  0  0  0  0  0  0  0  0  0  0  0
   12.6598  -19.9692   20.6259 N   0  0  0  0  0  0  0  0  0  0  0  0
   13.8364  -19.3255   20.5704 C   0  0  0  0  0  0  0  0  0  0  0  0
   13.6904  -18.0923   21.0851 N   0  0  0  0  0  0  0  0  0  0  0  0
    9.9907  -15.6554   23.1788 C   0  0  0  0  0  0  0  0  0  0  0  0
    9.9221  -14.4274   22.9082 O   0  0  0  0  0  0  0  0  0  0  0  0
    6.2152  -11.5908   27.2125 C   0  0  0  0  0  0  0  0  0  0  0  0
    7.2384  -12.5097   26.0986 S   0  0  0  0  0  0  0  0  0  0  0  0
    6.6560  -14.1292   25.6816 C   0  0  0  0  0  0  0  0  0  0  0  0
    7.6140  -14.8909   24.8495 C   0  0  0  0  0  0  0  0  0  0  0  0
    8.9698  -15.1182   25.4313 C   0  0  2  0  0  0  0  0  0  0  0  0
    9.6747  -16.0307   24.5133 N   0  0  0  0  0  0  0  0  0  0  0  0
    8.8773  -15.8857   26.7146 C   0  0  0  0  0  0  0  0  0  0  0  0
    9.2371  -15.2817   27.9307 O   0  0  0  0  0  0  0  0  0  0  0  0
    8.4879  -17.0684   26.7765 O   0  0  0  0  0  0  0  0  0  0  0  0
  2  1  1  0
  2  3  1  0
  3  4  1  1
  5  3  1  0
  5  6  2  0
  7  5  1  0
  8  7  1  0
  8  9  1  6
 10 14  1  0
 10  9  1  0
 11 10  2  0
 12 11  1  0
 12 13  1  0
 13 14  2  0
 15  8  1  0
 16 15  2  0
 18 17  1  0
 19 18  1  0
 20 19  1  0
 21 20  1  6
 21 22  1  0
 22 15  1  0
 23 21  1  0
 24 23  1  0
 25 23  2  0
M  END
$$$$
