SHM.pdb
     RDKit          3D

 25 25  0  0  1  0  0  0  0  0999 V2000
    6.4564  -15.8175   19.4237 O   0  0  0  0  0  0  0  0  0  0  0  0
    7.6548  -15.3746   18.8672 C   0  0  0  0  0  0  0  0  0  0  0  0
    8.6512  -16.5316   18.7624 C   0  0  2  0  0  0  0  0  0  0  0  0
    8.1147  -17.5635   17.9350 N   0  0  0  0  0  0  0  0  0  0  0  0
    9.0823  -16.9908   20.0943 C   0  0  0  0  0  0  0  0  0  0  0  0
    8.5941  -18.0488   20.5700 O   0  0  0  0  0  0  0  0  0  0  0  0
   10.0315  -16.3137   20.9045 N   0  0  0  0  0  0  0  0  0  0  0  0
   10.4974  -16.7910   22.1834 C   0  0  1  0  0  0  0  0  0  0  0  0
   11.9903  -16.9349   22.2520 C   0  0  0  0  0  0  0  0  0  0  0  0
   12.4915  -18.1104   21.5111 C   0  0  0  0  0  0  0  0  0  0  0  0
   12.9541  -18.2131   20.2202 C   0  0  0  0  0  0  0  0  0  0  0  0
   13.3119  -19.4785   19.9539 N   0  0  0  0  0  0  0  0  0  0  0  0
   13.0766  -20.1782   21.0750 C   0  0  0  0  0  0  0  0  0  0  0  0
   12.5818  -19.3542   22.0148 N   0  0  0  0  0  0  0  0  0  0  0  0
   10.0956  -15.7932   23.2125 C   0  0  0  0  0  0  0  0  0  0  0  0
   10.0896  -14.5525   22.9975 O   0  0  0  0  0  0  0  0  0  0  0  0
    6.8106  -11.3522   27.1658 C   0  0  0  0  0  0  0  0  0  0  0  0
    7.7637  -12.4767   26.1864 S   0  0  0  0  0  0  0  0  0  0  0  0
    6.9319  -13.9610   25.6958 C   0  0  0  0  0  0  0  0  0  0  0  0
    7.7781  -14.8515   24.8705 C   0  0  0  0  0  0  0  0  0  0  0  0
    9.0733  -15.2871   25.4716 C   0  0  2  0  0  0  0  0  0  0  0  0
    9.6934  -16.2154   24.5093 N   0  0  0  0  0  0  0  0  0  0  0  0
    8.8398  -16.1237   26.6923 C   0  0  0  0  0  0  0  0  0  0  0  0
    9.2312  -15.6572   27.9582 O   0  0  0  0  0  0  0  0  0  0  0  0
    8.3013  -17.2475   26.6573 O   0  0  0  0  0  0  0  0  0  0  0  0
  2  1  1  0
  2  3  1  0
  3  4  1  1
  5  3  1  0
  5  6  2  0
  7  5  1  0
  8  7  1  0
  8  9  1  6
 10 14  1  0
 10  9  1  0
 11 10  2  0
 12 11  1  0
 12 13  1  0
 13 14  2  0
 15  8  1  0
 16 15  2  0
 18 17  1  0
 19 18  1  0
 20 19  1  0
 21 20  1  6
 21 22  1  0
 22 15  1  0
 23 21  1  0
 24 23  1  0
 25 23  2  0
M  END
$$$$
