SHM.pdb
     RDKit          3D

 25 25  0  0  1  0  0  0  0  0999 V2000
   11.8133  -18.9679   22.0584 O   0  0  0  0  0  0  0  0  0  0  0  0
   11.1109  -19.0961   20.8616 C   0  0  0  0  0  0  0  0  0  0  0  0
   11.3667  -17.8837   19.9633 C   0  0  2  0  0  0  0  0  0  0  0  0
   12.7591  -17.7813   19.6674 N   0  0  0  0  0  0  0  0  0  0  0  0
   10.7810  -16.6587   20.5355 C   0  0  0  0  0  0  0  0  0  0  0  0
   11.5423  -15.7441   20.9450 O   0  0  0  0  0  0  0  0  0  0  0  0
    9.3866  -16.4242   20.6640 N   0  0  0  0  0  0  0  0  0  0  0  0
    8.8116  -15.2376   21.2484 C   0  0  1  0  0  0  0  0  0  0  0  0
    7.5079  -14.8409   20.6181 C   0  0  0  0  0  0  0  0  0  0  0  0
    7.6594  -14.3711   19.2259 C   0  0  0  0  0  0  0  0  0  0  0  0
    8.0455  -13.1432   18.7421 C   0  0  0  0  0  0  0  0  0  0  0  0
    8.0468  -13.1517   17.4004 N   0  0  0  0  0  0  0  0  0  0  0  0
    7.6620  -14.3840   17.0331 C   0  0  0  0  0  0  0  0  0  0  0  0
    7.4280  -15.1203   18.1332 N   0  0  0  0  0  0  0  0  0  0  0  0
    8.5461  -15.5237   22.6850 C   0  0  0  0  0  0  0  0  0  0  0  0
    8.8790  -16.6035   23.2409 O   0  0  0  0  0  0  0  0  0  0  0  0
    6.8748  -10.8781   27.9826 C   0  0  0  0  0  0  0  0  0  0  0  0
    5.7606  -12.1310   27.4159 S   0  0  0  0  0  0  0  0  0  0  0  0
    6.5141  -13.6393   26.8745 C   0  0  0  0  0  0  0  0  0  0  0  0
    6.9219  -13.6030   25.4523 C   0  0  0  0  0  0  0  0  0  0  0  0
    7.6832  -14.7831   24.9459 C   0  0  2  0  0  0  0  0  0  0  0  0
    7.8899  -14.5637   23.5032 N   0  0  0  0  0  0  0  0  0  0  0  0
    6.8483  -16.0252   25.0138 C   0  0  0  0  0  0  0  0  0  0  0  0
    6.0808  -16.4260   23.9077 O   0  0  0  0  0  0  0  0  0  0  0  0
    6.7877  -16.7530   26.0241 O   0  0  0  0  0  0  0  0  0  0  0  0
  2  1  1  0
  2  3  1  0
  3  4  1  1
  5  3  1  0
  5  6  2  0
  7  5  1  0
  8  7  1  0
  8  9  1  6
 10 14  1  0
 10  9  1  0
 11 10  2  0
 12 11  1  0
 12 13  1  0
 13 14  2  0
 15  8  1  0
 16 15  2  0
 18 17  1  0
 19 18  1  0
 20 19  1  0
 21 20  1  6
 21 22  1  0
 22 15  1  0
 23 21  1  0
 24 23  1  0
 25 23  2  0
M  END
$$$$
