SHM.pdb
     RDKit          3D

 25 25  0  0  1  0  0  0  0  0999 V2000
   10.7288  -12.9321   19.6798 O   0  0  0  0  0  0  0  0  0  0  0  0
   10.2191  -13.6820   18.6216 C   0  0  0  0  0  0  0  0  0  0  0  0
    8.7002  -13.8190   18.7509 C   0  0  2  0  0  0  0  0  0  0  0  0
    8.0756  -12.5564   18.5215 N   0  0  0  0  0  0  0  0  0  0  0  0
    8.3254  -14.4534   20.0268 C   0  0  0  0  0  0  0  0  0  0  0  0
    7.6479  -13.8021   20.8638 O   0  0  0  0  0  0  0  0  0  0  0  0
    8.6790  -15.7783   20.3948 N   0  0  0  0  0  0  0  0  0  0  0  0
    8.2796  -16.4149   21.6259 C   0  0  1  0  0  0  0  0  0  0  0  0
    8.5404  -17.8934   21.6380 C   0  0  0  0  0  0  0  0  0  0  0  0
    7.7885  -18.6206   20.5952 C   0  0  0  0  0  0  0  0  0  0  0  0
    6.4355  -18.8231   20.4568 C   0  0  0  0  0  0  0  0  0  0  0  0
    6.1839  -19.5459   19.3548 N   0  0  0  0  0  0  0  0  0  0  0  0
    7.3764  -19.8019   18.7943 C   0  0  0  0  0  0  0  0  0  0  0  0
    8.3448  -19.2444   19.5414 N   0  0  0  0  0  0  0  0  0  0  0  0
    9.0773  -15.8099   22.7276 C   0  0  0  0  0  0  0  0  0  0  0  0
    9.7868  -14.7810   22.5739 O   0  0  0  0  0  0  0  0  0  0  0  0
    6.1951  -11.1497   26.8851 C   0  0  0  0  0  0  0  0  0  0  0  0
    6.2442  -12.7189   26.0681 S   0  0  0  0  0  0  0  0  0  0  0  0
    7.8404  -13.4785   25.9622 C   0  0  0  0  0  0  0  0  0  0  0  0
    7.8159  -14.7774   25.2535 C   0  0  0  0  0  0  0  0  0  0  0  0
    9.0885  -15.5577   25.2458 C   0  0  2  0  0  0  0  0  0  0  0  0
    9.0672  -16.3866   24.0272 N   0  0  0  0  0  0  0  0  0  0  0  0
    9.1114  -16.5513   26.3668 C   0  0  0  0  0  0  0  0  0  0  0  0
   10.0029  -16.3901   27.4403 O   0  0  0  0  0  0  0  0  0  0  0  0
    8.3639  -17.5481   26.4113 O   0  0  0  0  0  0  0  0  0  0  0  0
  2  1  1  0
  2  3  1  0
  3  4  1  1
  5  3  1  0
  5  6  2  0
  7  5  1  0
  8  7  1  0
  8  9  1  6
 10 14  1  0
 10  9  1  0
 11 10  2  0
 12 11  1  0
 12 13  1  0
 13 14  2  0
 15  8  1  0
 16 15  2  0
 18 17  1  0
 19 18  1  0
 20 19  1  0
 21 20  1  1
 21 22  1  0
 22 15  1  0
 23 21  1  0
 24 23  1  0
 25 23  2  0
M  END
$$$$
