SHM.pdb
     RDKit          3D

 25 25  0  0  1  0  0  0  0  0999 V2000
   15.3249  -15.4866   21.6503 O   0  0  0  0  0  0  0  0  0  0  0  0
   15.0087  -16.3938   20.6407 C   0  0  0  0  0  0  0  0  0  0  0  0
   14.4481  -15.6576   19.4217 C   0  0  2  0  0  0  0  0  0  0  0  0
   15.4430  -14.7928   18.8744 N   0  0  0  0  0  0  0  0  0  0  0  0
   13.1752  -14.9866   19.7385 C   0  0  0  0  0  0  0  0  0  0  0  0
   13.1522  -13.7344   19.8628 O   0  0  0  0  0  0  0  0  0  0  0  0
   11.9393  -15.6617   19.9194 N   0  0  0  0  0  0  0  0  0  0  0  0
   10.6928  -15.0071   20.2326 C   0  0  1  0  0  0  0  0  0  0  0  0
    9.5212  -15.5810   19.4896 C   0  0  0  0  0  0  0  0  0  0  0  0
    8.2619  -14.8532   19.7471 C   0  0  0  0  0  0  0  0  0  0  0  0
    7.9022  -13.5646   19.4296 C   0  0  0  0  0  0  0  0  0  0  0  0
    6.6548  -13.3120   19.8542 N   0  0  0  0  0  0  0  0  0  0  0  0
    6.2232  -14.4396   20.4408 C   0  0  0  0  0  0  0  0  0  0  0  0
    7.1915  -15.3698   20.3768 N   0  0  0  0  0  0  0  0  0  0  0  0
   10.4365  -15.1942   21.6871 C   0  0  0  0  0  0  0  0  0  0  0  0
   11.0298  -16.0616   22.3807 O   0  0  0  0  0  0  0  0  0  0  0  0
    6.1784  -11.9346   27.6125 C   0  0  0  0  0  0  0  0  0  0  0  0
    6.7008  -12.0843   25.9282 S   0  0  0  0  0  0  0  0  0  0  0  0
    7.8051  -13.4253   25.5843 C   0  0  0  0  0  0  0  0  0  0  0  0
    8.2963  -13.4254   24.1883 C   0  0  0  0  0  0  0  0  0  0  0  0
    9.2091  -14.5416   23.8019 C   0  0  2  0  0  0  0  0  0  0  0  0
    9.4878  -14.3794   22.3637 N   0  0  0  0  0  0  0  0  0  0  0  0
    8.5061  -15.8614   23.8944 C   0  0  0  0  0  0  0  0  0  0  0  0
    8.5342  -16.5986   25.0898 O   0  0  0  0  0  0  0  0  0  0  0  0
    7.8748  -16.3668   22.9456 O   0  0  0  0  0  0  0  0  0  0  0  0
  2  1  1  0
  2  3  1  0
  3  4  1  1
  5  3  1  0
  5  6  2  0
  7  5  1  0
  8  7  1  0
  8  9  1  6
 10 14  1  0
 10  9  1  0
 11 10  2  0
 12 11  1  0
 12 13  1  0
 13 14  2  0
 15  8  1  0
 16 15  2  0
 18 17  1  0
 19 18  1  0
 20 19  1  0
 21 20  1  6
 21 22  1  0
 22 15  1  0
 23 21  1  0
 24 23  1  0
 25 23  2  0
M  END
$$$$
