SHM.pdb
     RDKit          3D

 25 25  0  0  1  0  0  0  0  0999 V2000
   13.0107  -19.4205   22.8993 O   0  0  0  0  0  0  0  0  0  0  0  0
   12.3347  -19.6794   21.7085 C   0  0  0  0  0  0  0  0  0  0  0  0
   12.5174  -18.5165   20.7304 C   0  0  2  0  0  0  0  0  0  0  0  0
   13.9053  -18.3175   20.4635 N   0  0  0  0  0  0  0  0  0  0  0  0
   11.8144  -17.3082   21.1960 C   0  0  0  0  0  0  0  0  0  0  0  0
   12.4830  -16.2955   21.5294 O   0  0  0  0  0  0  0  0  0  0  0  0
   10.4029  -17.1952   21.3004 N   0  0  0  0  0  0  0  0  0  0  0  0
    9.7153  -16.0355   21.8128 C   0  0  1  0  0  0  0  0  0  0  0  0
    8.3457  -15.8533   21.2252 C   0  0  0  0  0  0  0  0  0  0  0  0
    8.2642  -14.7083   20.2956 C   0  0  0  0  0  0  0  0  0  0  0  0
    9.2085  -13.7640   19.9678 C   0  0  0  0  0  0  0  0  0  0  0  0
    8.7084  -12.8972   19.0741 N   0  0  0  0  0  0  0  0  0  0  0  0
    7.4478  -13.2912   18.8348 C   0  0  0  0  0  0  0  0  0  0  0  0
    7.1787  -14.3833   19.5709 N   0  0  0  0  0  0  0  0  0  0  0  0
    9.5523  -16.2181   23.2812 C   0  0  0  0  0  0  0  0  0  0  0  0
    9.7127  -17.3275   23.8550 O   0  0  0  0  0  0  0  0  0  0  0  0
    5.0938  -12.0738   27.6222 C   0  0  0  0  0  0  0  0  0  0  0  0
    6.7636  -12.2307   27.0569 S   0  0  0  0  0  0  0  0  0  0  0  0
    7.2207  -13.8305   26.4505 C   0  0  0  0  0  0  0  0  0  0  0  0
    8.6542  -13.9255   26.0953 C   0  0  0  0  0  0  0  0  0  0  0  0
    9.1277  -15.2433   25.5778 C   0  0  2  0  0  0  0  0  0  0  0  0
    9.2004  -15.1184   24.1110 N   0  0  0  0  0  0  0  0  0  0  0  0
    8.0978  -16.3070   25.8064 C   0  0  0  0  0  0  0  0  0  0  0  0
    8.1200  -17.0759   26.9817 O   0  0  0  0  0  0  0  0  0  0  0  0
    7.1892  -16.5640   24.9924 O   0  0  0  0  0  0  0  0  0  0  0  0
  2  1  1  0
  2  3  1  0
  3  4  1  1
  5  3  1  0
  5  6  2  0
  7  5  1  0
  8  7  1  0
  8  9  1  6
 10 14  1  0
 10  9  1  0
 11 10  2  0
 12 11  1  0
 12 13  1  0
 13 14  2  0
 15  8  1  0
 16 15  2  0
 18 17  1  0
 19 18  1  0
 20 19  1  0
 21 20  1  1
 21 22  1  0
 22 15  1  0
 23 21  1  0
 24 23  1  0
 25 23  2  0
M  END
$$$$
