SHM.pdb
     RDKit          3D

 25 25  0  0  1  0  0  0  0  0999 V2000
    6.5937  -18.7967   23.6653 O   0  0  0  0  0  0  0  0  0  0  0  0
    5.5700  -18.3339   22.8406 C   0  0  0  0  0  0  0  0  0  0  0  0
    6.0923  -18.1124   21.4192 C   0  0  2  0  0  0  0  0  0  0  0  0
    6.3296  -19.3691   20.7856 N   0  0  0  0  0  0  0  0  0  0  0  0
    7.2526  -17.2044   21.4092 C   0  0  0  0  0  0  0  0  0  0  0  0
    8.3840  -17.6527   21.0883 O   0  0  0  0  0  0  0  0  0  0  0  0
    7.1914  -15.8256   21.7427 N   0  0  0  0  0  0  0  0  0  0  0  0
    8.3125  -14.9209   21.6722 C   0  0  1  0  0  0  0  0  0  0  0  0
    7.9808  -13.6208   20.9985 C   0  0  0  0  0  0  0  0  0  0  0  0
    8.0645  -13.6962   19.5257 C   0  0  0  0  0  0  0  0  0  0  0  0
    9.1115  -13.4093   18.6817 C   0  0  0  0  0  0  0  0  0  0  0  0
    8.7510  -13.6175   17.4062 N   0  0  0  0  0  0  0  0  0  0  0  0
    7.4762  -14.0362   17.4408 C   0  0  0  0  0  0  0  0  0  0  0  0
    7.0610  -14.0840   18.7184 N   0  0  0  0  0  0  0  0  0  0  0  0
    8.7309  -14.6093   23.0664 C   0  0  0  0  0  0  0  0  0  0  0  0
    9.0072  -13.4434   23.4539 O   0  0  0  0  0  0  0  0  0  0  0  0
    6.5847  -10.8473   27.5891 C   0  0  0  0  0  0  0  0  0  0  0  0
    6.4287  -12.4545   26.8644 S   0  0  0  0  0  0  0  0  0  0  0  0
    7.9488  -13.2432   26.4138 C   0  0  0  0  0  0  0  0  0  0  0  0
    7.7549  -14.6128   25.8879 C   0  0  0  0  0  0  0  0  0  0  0  0
    8.9856  -15.3490   25.4733 C   0  0  2  0  0  0  0  0  0  0  0  0
    8.8368  -15.6432   24.0367 N   0  0  0  0  0  0  0  0  0  0  0  0
    9.0434  -16.6984   26.1216 C   0  0  0  0  0  0  0  0  0  0  0  0
    8.6509  -17.8448   25.4110 O   0  0  0  0  0  0  0  0  0  0  0  0
    9.4311  -16.8773   27.2928 O   0  0  0  0  0  0  0  0  0  0  0  0
  2  1  1  0
  2  3  1  0
  3  4  1  1
  5  3  1  0
  5  6  2  0
  7  5  1  0
  8  7  1  0
  8  9  1  1
 10 14  1  0
 10  9  1  0
 11 10  2  0
 12 11  1  0
 12 13  1  0
 13 14  2  0
 15  8  1  0
 16 15  2  0
 18 17  1  0
 19 18  1  0
 20 19  1  0
 21 20  1  1
 21 22  1  0
 22 15  1  0
 23 21  1  0
 24 23  1  0
 25 23  2  0
M  END
$$$$
