SHM.pdb
     RDKit          3D

 25 25  0  0  1  0  0  0  0  0999 V2000
    6.3568  -14.4742   20.3728 O   0  0  0  0  0  0  0  0  0  0  0  0
    6.7896  -15.2092   19.2708 C   0  0  0  0  0  0  0  0  0  0  0  0
    6.6938  -16.7087   19.5617 C   0  0  2  0  0  0  0  0  0  0  0  0
    5.3263  -17.0912   19.7046 N   0  0  0  0  0  0  0  0  0  0  0  0
    7.5479  -17.0900   20.7001 C   0  0  0  0  0  0  0  0  0  0  0  0
    7.0117  -17.4682   21.7741 O   0  0  0  0  0  0  0  0  0  0  0  0
    8.9673  -17.0630   20.6786 N   0  0  0  0  0  0  0  0  0  0  0  0
    9.8065  -17.5326   21.7536 C   0  0  1  0  0  0  0  0  0  0  0  0
   11.2061  -17.8519   21.3141 C   0  0  0  0  0  0  0  0  0  0  0  0
   12.0080  -18.5035   22.3697 C   0  0  0  0  0  0  0  0  0  0  0  0
   11.6778  -18.8167   23.6672 C   0  0  0  0  0  0  0  0  0  0  0  0
   12.7145  -19.4070   24.2813 N   0  0  0  0  0  0  0  0  0  0  0  0
   13.7018  -19.4683   23.3740 C   0  0  0  0  0  0  0  0  0  0  0  0
   13.2770  -18.9237   22.2208 N   0  0  0  0  0  0  0  0  0  0  0  0
    9.8920  -16.4467   22.7683 C   0  0  0  0  0  0  0  0  0  0  0  0
   10.3950  -15.3186   22.5230 O   0  0  0  0  0  0  0  0  0  0  0  0
    6.2835  -11.3507   26.5573 C   0  0  0  0  0  0  0  0  0  0  0  0
    6.4173  -13.0433   26.0577 S   0  0  0  0  0  0  0  0  0  0  0  0
    8.0160  -13.5509   25.4897 C   0  0  0  0  0  0  0  0  0  0  0  0
    8.0925  -15.0001   25.2000 C   0  0  0  0  0  0  0  0  0  0  0  0
    9.4602  -15.5917   25.1108 C   0  0  2  0  0  0  0  0  0  0  0  0
    9.3962  -16.6486   24.0855 N   0  0  0  0  0  0  0  0  0  0  0  0
    9.8082  -16.3222   26.3717 C   0  0  0  0  0  0  0  0  0  0  0  0
    9.8999  -17.7239   26.3778 O   0  0  0  0  0  0  0  0  0  0  0  0
   10.0299  -15.7470   27.4552 O   0  0  0  0  0  0  0  0  0  0  0  0
  2  1  1  0
  2  3  1  0
  3  4  1  1
  5  3  1  0
  5  6  2  0
  7  5  1  0
  8  7  1  0
  8  9  1  6
 10 14  1  0
 10  9  1  0
 11 10  2  0
 12 11  1  0
 12 13  1  0
 13 14  2  0
 15  8  1  0
 16 15  2  0
 18 17  1  0
 19 18  1  0
 20 19  1  0
 21 20  1  1
 21 22  1  0
 22 15  1  0
 23 21  1  0
 24 23  1  0
 25 23  2  0
M  END
$$$$
