PCS.pdb
     RDKit          3D

 20 20  0  0  1  0  0  0  0  0999 V2000
   26.7043  -19.4700  -14.8236 N   0  0  0  0  0  0  0  0  0  0  0  0
   28.0120  -18.9711  -15.2006 C   0  0  0  0  0  0  0  0  0  0  0  0
   28.9292  -20.0890  -14.7924 C   0  0  0  0  0  0  0  0  0  0  0  0
   28.0676  -21.3281  -14.8781 C   0  0  0  0  0  0  0  0  0  0  0  0
   26.7179  -20.8120  -15.3290 C   0  0  1  0  0  0  0  0  0  0  0  0
   25.6103  -21.6193  -14.7162 C   0  0  0  0  0  0  0  0  0  0  0  0
   25.4796  -22.8610  -14.9592 O   0  0  0  0  0  0  0  0  0  0  0  0
   24.6576  -21.0479  -13.8410 N   0  0  0  0  0  0  0  0  0  0  0  0
   23.6260  -21.7968  -13.1525 C   0  0  1  0  0  0  0  0  0  0  0  0
   23.5716  -21.4317  -11.7076 C   0  0  0  0  0  0  0  0  0  0  0  0
   22.9591  -19.7205  -11.5657 S   0  0  0  0  0  0  0  0  0  0  0  0
   22.3323  -21.7404  -13.8475 C   0  0  0  0  0  0  0  0  0  0  0  0
   22.0007  -20.6460  -14.3655 O   0  0  0  0  0  0  0  0  0  0  0  0
   18.2782  -23.9106  -15.3311 O   0  0  0  0  0  0  0  0  0  0  0  0
   19.4575  -24.0822  -14.6338 C   0  0  0  0  0  0  0  0  0  0  0  0
   20.1632  -22.7458  -14.5495 C   0  0  2  0  0  0  0  0  0  0  0  0
   21.4714  -22.8637  -13.9446 N   0  0  0  0  0  0  0  0  0  0  0  0
   19.3235  -21.7432  -13.8641 C   0  0  0  0  0  0  0  0  0  0  0  0
   18.5176  -21.0003  -14.4768 O   0  0  0  0  0  0  0  0  0  0  0  0
   19.4309  -21.6196  -12.4869 O   0  0  0  0  0  0  0  0  0  0  0  0
  2  1  1  0
  3  2  1  0
  4  3  1  0
  4  5  1  0
  5  1  1  0
  5  6  1  1
  7  6  2  0
  8  6  1  0
  9  8  1  0
  9 12  1  0
  9 10  1  1
 11 10  1  0
 12 17  1  0
 13 12  2  0
 15 14  1  0
 16 15  1  1
 16 18  1  0
 17 16  1  0
 18 19  2  0
 18 20  1  0
M  END
$$$$
