PCS.pdb
     RDKit          3D

 20 20  0  0  1  0  0  0  0  0999 V2000
   20.8559  -30.0223  -13.4774 N   0  0  0  0  0  0  0  0  0  0  0  0
   21.0179  -30.1882  -14.9083 C   0  0  0  0  0  0  0  0  0  0  0  0
   22.4094  -30.7425  -15.0274 C   0  0  0  0  0  0  0  0  0  0  0  0
   22.6343  -31.4686  -13.7209 C   0  0  0  0  0  0  0  0  0  0  0  0
   21.3441  -31.2657  -12.9557 C   0  0  1  0  0  0  0  0  0  0  0  0
   21.6137  -31.1520  -11.4831 C   0  0  0  0  0  0  0  0  0  0  0  0
   21.9387  -30.0437  -10.9503 O   0  0  0  0  0  0  0  0  0  0  0  0
   21.5218  -32.2630  -10.6129 N   0  0  0  0  0  0  0  0  0  0  0  0
   21.7369  -32.2014   -9.1815 C   0  0  1  0  0  0  0  0  0  0  0  0
   20.4581  -32.3915   -8.4381 C   0  0  0  0  0  0  0  0  0  0  0  0
   20.7320  -31.9459   -6.6917 S   0  0  0  0  0  0  0  0  0  0  0  0
   22.8365  -33.0711   -8.7406 C   0  0  0  0  0  0  0  0  0  0  0  0
   22.9756  -34.1715   -9.3286 O   0  0  0  0  0  0  0  0  0  0  0  0
   26.7373  -33.8022   -5.9911 O   0  0  0  0  0  0  0  0  0  0  0  0
   25.6547  -32.9731   -6.2079 C   0  0  0  0  0  0  0  0  0  0  0  0
   24.7747  -33.6012   -7.2672 C   0  0  2  0  0  0  0  0  0  0  0  0
   23.7217  -32.7065   -7.6937 N   0  0  0  0  0  0  0  0  0  0  0  0
   24.2466  -34.9041   -6.8159 C   0  0  0  0  0  0  0  0  0  0  0  0
   23.1950  -35.0118   -6.1383 O   0  0  0  0  0  0  0  0  0  0  0  0
   24.9425  -36.0546   -7.1563 O   0  0  0  0  0  0  0  0  0  0  0  0
  2  1  1  0
  3  2  1  0
  4  3  1  0
  4  5  1  0
  5  1  1  0
  5  6  1  1
  7  6  2  0
  8  6  1  0
  9  8  1  0
  9 12  1  0
  9 10  1  1
 11 10  1  0
 12 17  1  0
 13 12  2  0
 15 14  1  0
 16 15  1  1
 16 18  1  0
 17 16  1  0
 18 19  2  0
 18 20  1  0
M  END
$$$$
