PCS.pdb
     RDKit          3D

 20 20  0  0  1  0  0  0  0  0999 V2000
   22.7327  -10.7499  -16.7944 N   0  0  0  0  0  0  0  0  0  0  0  0
   22.7639  -12.1985  -16.8364 C   0  0  0  0  0  0  0  0  0  0  0  0
   24.0184  -12.5302  -16.0788 C   0  0  0  0  0  0  0  0  0  0  0  0
   24.1942  -11.3718  -15.1237 C   0  0  0  0  0  0  0  0  0  0  0  0
   23.0183  -10.4652  -15.4181 C   0  0  1  0  0  0  0  0  0  0  0  0
   23.4035   -9.0245  -15.2449 C   0  0  0  0  0  0  0  0  0  0  0  0
   23.7137   -8.5516  -14.1057 O   0  0  0  0  0  0  0  0  0  0  0  0
   23.4427   -8.1198  -16.3312 N   0  0  0  0  0  0  0  0  0  0  0  0
   23.8460   -6.7322  -16.2266 C   0  0  1  0  0  0  0  0  0  0  0  0
   24.6932   -6.3308  -17.3864 C   0  0  0  0  0  0  0  0  0  0  0  0
   25.3801   -4.6748  -17.0558 S   0  0  0  0  0  0  0  0  0  0  0  0
   22.7125   -5.8364  -15.9572 C   0  0  0  0  0  0  0  0  0  0  0  0
   21.6006   -6.1449  -16.4518 O   0  0  0  0  0  0  0  0  0  0  0  0
   20.8310   -2.1769  -13.4469 O   0  0  0  0  0  0  0  0  0  0  0  0
   22.0102   -2.7798  -13.8371 C   0  0  0  0  0  0  0  0  0  0  0  0
   21.6867   -3.8497  -14.8576 C   0  0  2  0  0  0  0  0  0  0  0  0
   22.8411   -4.6619  -15.1721 N   0  0  0  0  0  0  0  0  0  0  0  0
   21.0748   -3.2636  -16.0668 C   0  0  0  0  0  0  0  0  0  0  0  0
   21.7433   -2.6556  -16.9387 O   0  0  0  0  0  0  0  0  0  0  0  0
   19.7053   -3.3918  -16.2446 O   0  0  0  0  0  0  0  0  0  0  0  0
  2  1  1  0
  3  2  1  0
  4  3  1  0
  4  5  1  0
  5  1  1  0
  5  6  1  6
  7  6  2  0
  8  6  1  0
  9  8  1  0
  9 12  1  0
  9 10  1  6
 11 10  1  0
 12 17  1  0
 13 12  2  0
 15 14  1  0
 16 15  1  1
 16 18  1  0
 17 16  1  0
 18 19  2  0
 18 20  1  0
M  END
$$$$
