PCS.pdb
     RDKit          3D

 20 20  0  0  1  0  0  0  0  0999 V2000
   17.9058  -25.1783    4.8215 N   0  0  0  0  0  0  0  0  0  0  0  0
   16.6508  -24.4548    4.7688 C   0  0  0  0  0  0  0  0  0  0  0  0
   16.1794  -24.7006    3.3634 C   0  0  0  0  0  0  0  0  0  0  0  0
   16.7923  -26.0316    2.9923 C   0  0  0  0  0  0  0  0  0  0  0  0
   17.5716  -26.4387    4.2244 C   0  0  1  0  0  0  0  0  0  0  0  0
   18.8146  -27.1886    3.8413 C   0  0  0  0  0  0  0  0  0  0  0  0
   18.7593  -28.2741    3.1807 O   0  0  0  0  0  0  0  0  0  0  0  0
   20.1068  -26.7326    4.1911 N   0  0  0  0  0  0  0  0  0  0  0  0
   21.3400  -27.3646    3.7682 C   0  0  1  0  0  0  0  0  0  0  0  0
   22.3666  -26.3466    3.4022 C   0  0  0  0  0  0  0  0  0  0  0  0
   21.7361  -25.3671    1.9999 S   0  0  0  0  0  0  0  0  0  0  0  0
   21.8023  -28.3862    4.7182 C   0  0  0  0  0  0  0  0  0  0  0  0
   21.6499  -28.1502    5.9417 O   0  0  0  0  0  0  0  0  0  0  0  0
   21.3122  -32.2029    4.4047 O   0  0  0  0  0  0  0  0  0  0  0  0
   22.6428  -32.0056    4.7160 C   0  0  0  0  0  0  0  0  0  0  0  0
   22.8048  -30.6023    5.2593 C   0  0  2  0  0  0  0  0  0  0  0  0
   22.4011  -29.6013    4.2969 N   0  0  0  0  0  0  0  0  0  0  0  0
   24.1790  -30.3774    5.7502 C   0  0  0  0  0  0  0  0  0  0  0  0
   25.0329  -29.7246    5.1010 O   0  0  0  0  0  0  0  0  0  0  0  0
   24.5386  -30.9097    6.9794 O   0  0  0  0  0  0  0  0  0  0  0  0
  2  1  1  0
  3  2  1  0
  4  3  1  0
  4  5  1  0
  5  1  1  0
  5  6  1  6
  7  6  2  0
  8  6  1  0
  9  8  1  0
  9 12  1  0
  9 10  1  1
 11 10  1  0
 12 17  1  0
 13 12  2  0
 15 14  1  0
 16 15  1  6
 16 18  1  0
 17 16  1  0
 18 19  2  0
 18 20  1  0
M  END
$$$$
