PCS.pdb
     RDKit          3D

 20 20  0  0  1  0  0  0  0  0999 V2000
   20.7550  -12.0477  -18.6781 N   0  0  0  0  0  0  0  0  0  0  0  0
   20.1503  -13.1636  -19.3784 C   0  0  0  0  0  0  0  0  0  0  0  0
   19.5739  -13.9886  -18.2626 C   0  0  0  0  0  0  0  0  0  0  0  0
   19.2888  -12.9867  -17.1673 C   0  0  0  0  0  0  0  0  0  0  0  0
   19.7316  -11.6619  -17.7505 C   0  0  1  0  0  0  0  0  0  0  0  0
   20.2958  -10.7736  -16.6798 C   0  0  0  0  0  0  0  0  0  0  0  0
   19.5938  -10.4009  -15.6868 O   0  0  0  0  0  0  0  0  0  0  0  0
   21.6298  -10.3053  -16.7156 N   0  0  0  0  0  0  0  0  0  0  0  0
   22.2354   -9.4801  -15.6903 C   0  0  1  0  0  0  0  0  0  0  0  0
   23.6871   -9.7878  -15.5418 C   0  0  0  0  0  0  0  0  0  0  0  0
   23.8547  -11.3938  -14.6955 S   0  0  0  0  0  0  0  0  0  0  0  0
   21.9263   -8.0536  -15.8619 C   0  0  0  0  0  0  0  0  0  0  0  0
   22.0975   -7.5573  -17.0022 O   0  0  0  0  0  0  0  0  0  0  0  0
   18.9006   -6.2823  -15.5678 O   0  0  0  0  0  0  0  0  0  0  0  0
   19.6892   -5.5411  -14.7104 C   0  0  0  0  0  0  0  0  0  0  0  0
   21.1410   -5.8482  -15.0085 C   0  0  2  0  0  0  0  0  0  0  0  0
   21.4512   -7.2449  -14.7976 N   0  0  0  0  0  0  0  0  0  0  0  0
   22.0401   -4.9591  -14.2462 C   0  0  0  0  0  0  0  0  0  0  0  0
   22.8513   -5.3879  -13.3890 O   0  0  0  0  0  0  0  0  0  0  0  0
   21.9846   -3.5948  -14.4894 O   0  0  0  0  0  0  0  0  0  0  0  0
  2  1  1  0
  3  2  1  0
  4  3  1  0
  4  5  1  0
  5  1  1  0
  5  6  1  1
  7  6  2  0
  8  6  1  0
  9  8  1  0
  9 12  1  0
  9 10  1  6
 11 10  1  0
 12 17  1  0
 13 12  2  0
 15 14  1  0
 16 15  1  1
 16 18  1  0
 17 16  1  0
 18 19  2  0
 18 20  1  0
M  END
$$$$
