PCS.pdb
     RDKit          3D

 20 20  0  0  1  0  0  0  0  0999 V2000
   22.4624  -13.4205  -15.3482 N   0  0  0  0  0  0  0  0  0  0  0  0
   22.7609  -14.8174  -15.1014 C   0  0  0  0  0  0  0  0  0  0  0  0
   24.0190  -15.0376  -15.8928 C   0  0  0  0  0  0  0  0  0  0  0  0
   24.6777  -13.6776  -15.9314 C   0  0  0  0  0  0  0  0  0  0  0  0
   23.7334  -12.7847  -15.1554 C   0  0  1  0  0  0  0  0  0  0  0  0
   23.7235  -11.3977  -15.7299 C   0  0  0  0  0  0  0  0  0  0  0  0
   24.7716  -10.6774  -15.7464 O   0  0  0  0  0  0  0  0  0  0  0  0
   22.5563  -10.8192  -16.2806 N   0  0  0  0  0  0  0  0  0  0  0  0
   22.5025   -9.5048  -16.8877 C   0  0  1  0  0  0  0  0  0  0  0  0
   21.9746   -9.5783  -18.2805 C   0  0  0  0  0  0  0  0  0  0  0  0
   20.3326  -10.3688  -18.2362 S   0  0  0  0  0  0  0  0  0  0  0  0
   21.8327   -8.5169  -16.0303 C   0  0  0  0  0  0  0  0  0  0  0  0
   20.8395   -8.9045  -15.3674 O   0  0  0  0  0  0  0  0  0  0  0  0
   21.6835   -5.0217  -13.0606 O   0  0  0  0  0  0  0  0  0  0  0  0
   22.4054   -5.9026  -13.8411 C   0  0  0  0  0  0  0  0  0  0  0  0
   21.5907   -6.2286  -15.0743 C   0  0  2  0  0  0  0  0  0  0  0  0
   22.2699   -7.1707  -15.9360 N   0  0  0  0  0  0  0  0  0  0  0  0
   21.2006   -5.0000  -15.7942 C   0  0  0  0  0  0  0  0  0  0  0  0
   21.8366   -4.5633  -16.7849 O   0  0  0  0  0  0  0  0  0  0  0  0
   20.0851   -4.3017  -15.3562 O   0  0  0  0  0  0  0  0  0  0  0  0
  2  1  1  0
  3  2  1  0
  4  3  1  0
  4  5  1  0
  5  1  1  0
  5  6  1  6
  7  6  2  0
  8  6  1  0
  9  8  1  0
  9 12  1  0
  9 10  1  6
 11 10  1  0
 12 17  1  0
 13 12  2  0
 15 14  1  0
 16 15  1  1
 16 18  1  0
 17 16  1  0
 18 19  2  0
 18 20  1  0
M  END
$$$$
