PCS.pdb
     RDKit          3D

 20 20  0  0  1  0  0  0  0  0999 V2000
   20.0548  -11.3379  -18.2743 N   0  0  0  0  0  0  0  0  0  0  0  0
   19.3212  -12.3568  -18.9989 C   0  0  0  0  0  0  0  0  0  0  0  0
   18.4500  -12.9642  -17.9359 C   0  0  0  0  0  0  0  0  0  0  0  0
   18.2476  -11.8479  -16.9371 C   0  0  0  0  0  0  0  0  0  0  0  0
   19.0278  -10.6863  -17.5144 C   0  0  1  0  0  0  0  0  0  0  0  0
   19.6283   -9.8544  -16.4183 C   0  0  0  0  0  0  0  0  0  0  0  0
   18.9029   -9.2869  -15.5410 O   0  0  0  0  0  0  0  0  0  0  0  0
   21.0238   -9.6570  -16.3013 N   0  0  0  0  0  0  0  0  0  0  0  0
   21.6560   -8.8857  -15.2504 C   0  0  1  0  0  0  0  0  0  0  0  0
   23.0709   -9.3120  -15.0491 C   0  0  0  0  0  0  0  0  0  0  0  0
   23.0737  -10.9492  -14.2472 S   0  0  0  0  0  0  0  0  0  0  0  0
   21.4717   -7.4385  -15.4270 C   0  0  0  0  0  0  0  0  0  0  0  0
   21.6751   -6.9645  -16.5716 O   0  0  0  0  0  0  0  0  0  0  0  0
   19.4575   -3.3313  -14.4151 O   0  0  0  0  0  0  0  0  0  0  0  0
   19.5517   -4.6808  -14.1391 C   0  0  0  0  0  0  0  0  0  0  0  0
   20.9190   -5.1642  -14.5721 C   0  0  2  0  0  0  0  0  0  0  0  0
   21.0797   -6.5861  -14.3630 N   0  0  0  0  0  0  0  0  0  0  0  0
   21.9899   -4.3834  -13.9213 C   0  0  0  0  0  0  0  0  0  0  0  0
   22.5890   -4.7805  -12.8917 O   0  0  0  0  0  0  0  0  0  0  0  0
   22.3471   -3.1617  -14.4723 O   0  0  0  0  0  0  0  0  0  0  0  0
  2  1  1  0
  3  2  1  0
  4  3  1  0
  4  5  1  0
  5  1  1  0
  5  6  1  1
  7  6  2  0
  8  6  1  0
  9  8  1  0
  9 12  1  0
  9 10  1  6
 11 10  1  0
 12 17  1  0
 13 12  2  0
 15 14  1  0
 16 15  1  1
 16 18  1  0
 17 16  1  0
 18 19  2  0
 18 20  1  0
M  END
$$$$
