WYA.pdb
     RDKit          3D

 32 34  0  0  1  0  0  0  0  0999 V2000
    5.7550  -18.3556   23.9436 N   0  0  0  0  0  0  0  0  0  0  0  0
    6.4531  -17.1321   24.2663 C   0  0  1  0  0  0  0  0  0  0  0  0
    6.4894  -16.8663   25.7536 C   0  0  0  0  0  0  0  0  0  0  0  0
    6.2116  -15.4620   26.0849 C   0  0  0  0  0  0  0  0  0  0  0  0
    4.9874  -14.8160   26.0064 C   0  0  0  0  0  0  0  0  0  0  0  0
    5.1400  -13.5394   26.3964 N   0  0  0  0  0  0  0  0  0  0  0  0
    6.4188  -13.2864   26.7383 C   0  0  0  0  0  0  0  0  0  0  0  0
    7.0917  -12.1744   27.1925 C   0  0  0  0  0  0  0  0  0  0  0  0
    8.4396  -12.2416   27.4593 C   0  0  0  0  0  0  0  0  0  0  0  0
    9.1361  -13.4408   27.2708 C   0  0  0  0  0  0  0  0  0  0  0  0
    8.4317  -14.5482   26.8112 C   0  0  0  0  0  0  0  0  0  0  0  0
    7.0891  -14.5004   26.5401 C   0  0  0  0  0  0  0  0  0  0  0  0
    7.8131  -17.0954   23.6884 C   0  0  0  0  0  0  0  0  0  0  0  0
    8.5032  -18.1349   23.5029 O   0  0  0  0  0  0  0  0  0  0  0  0
    7.1054  -14.2474   17.1933 O   0  0  0  0  0  0  0  0  0  0  0  0
    7.8305  -14.3816   18.3504 C   0  0  0  0  0  0  0  0  0  0  0  0
    8.4121  -15.5853   18.7428 C   0  0  0  0  0  0  0  0  0  0  0  0
    9.1258  -15.6766   19.9017 C   0  0  0  0  0  0  0  0  0  0  0  0
    9.3004  -14.6036   20.7205 C   0  0  0  0  0  0  0  0  0  0  0  0
   10.0466  -14.6063   21.9780 C   0  0  0  0  0  0  0  0  0  0  0  0
    9.7859  -15.7617   22.8828 C   0  0  2  0  0  0  0  0  0  0  0  0
    8.4192  -15.8711   23.3080 N   0  0  0  0  0  0  0  0  0  0  0  0
   10.7298  -15.7692   24.0584 C   0  0  0  0  0  0  0  0  0  0  0  0
   11.9738  -15.8306   23.9107 O   0  0  0  0  0  0  0  0  0  0  0  0
    8.7261  -13.4025   20.3391 C   0  0  0  0  0  0  0  0  0  0  0  0
    8.0055  -13.2850   19.1814 C   0  0  0  0  0  0  0  0  0  0  0  0
   10.4037  -14.8329   27.6855 C   0  0  0  0  0  0  0  0  0  0  0  0
   11.0873  -15.5759   26.5638 C   0  0  2  0  0  0  0  0  0  0  0  0
   10.2508  -15.7064   25.3951 N   0  0  0  0  0  0  0  0  0  0  0  0
   11.6552  -16.8499   27.0124 C   0  0  0  0  0  0  0  0  0  0  0  0
   11.3029  -18.0793   26.4517 O   0  0  0  0  0  0  0  0  0  0  0  0
   12.5010  -16.8788   27.9414 O   0  0  0  0  0  0  0  0  0  0  0  0
  2  1  1  1
  3  4  1  0
  3  2  1  0
  4  5  2  0
  6  5  1  0
  7  6  1  0
  8  7  2  0
  9  8  1  0
 10  9  2  0
 10 11  1  0
 11 12  2  0
 12  7  1  0
 12  4  1  0
 13  2  1  0
 13 14  2  0
 15 16  1  0
 16 17  2  0
 17 18  1  0
 19 20  1  0
 19 18  2  0
 21 20  1  1
 21 22  1  0
 22 13  1  0
 23 21  1  0
 24 23  2  0
 25 19  1  0
 26 25  2  0
 26 16  1  0
 28 27  1  1
 28 29  1  0
 28 30  1  0
 29 23  1  0
 30 31  1  0
 32 30  2  0
M  END
$$$$
