WYA.pdb
     RDKit          3D

 32 34  0  0  1  0  0  0  0  0999 V2000
    7.9323  -16.2078   22.5494 N   0  0  0  0  0  0  0  0  0  0  0  0
    8.7616  -15.8050   23.6622 C   0  0  1  0  0  0  0  0  0  0  0  0
    8.0090  -15.8143   24.9727 C   0  0  0  0  0  0  0  0  0  0  0  0
    6.9164  -14.8324   25.0054 C   0  0  0  0  0  0  0  0  0  0  0  0
    5.6027  -15.0375   24.6130 C   0  0  0  0  0  0  0  0  0  0  0  0
    4.9084  -13.9019   24.7966 N   0  0  0  0  0  0  0  0  0  0  0  0
    5.6942  -12.9289   25.2985 C   0  0  0  0  0  0  0  0  0  0  0  0
    5.4888  -11.6163   25.6598 C   0  0  0  0  0  0  0  0  0  0  0  0
    6.5281  -10.8637   26.1556 C   0  0  0  0  0  0  0  0  0  0  0  0
    7.8016  -11.4272   26.2962 C   0  0  0  0  0  0  0  0  0  0  0  0
    7.9808  -12.7550   25.9235 C   0  0  0  0  0  0  0  0  0  0  0  0
    6.9576  -13.5202   25.4278 C   0  0  0  0  0  0  0  0  0  0  0  0
    9.9991  -16.6079   23.7564 C   0  0  0  0  0  0  0  0  0  0  0  0
    9.9988  -17.8685   23.7132 O   0  0  0  0  0  0  0  0  0  0  0  0
   12.7344  -14.3304   18.3259 O   0  0  0  0  0  0  0  0  0  0  0  0
   12.9601  -14.8621   19.5705 C   0  0  0  0  0  0  0  0  0  0  0  0
   13.0503  -16.2331   19.8017 C   0  0  0  0  0  0  0  0  0  0  0  0
   13.2758  -16.7214   21.0554 C   0  0  0  0  0  0  0  0  0  0  0  0
   13.4216  -15.8970   22.1284 C   0  0  0  0  0  0  0  0  0  0  0  0
   13.6649  -16.3277   23.5044 C   0  0  0  0  0  0  0  0  0  0  0  0
   12.4541  -16.7012   24.2893 C   0  0  2  0  0  0  0  0  0  0  0  0
   11.2679  -15.9915   23.9024 N   0  0  0  0  0  0  0  0  0  0  0  0
   12.7001  -16.5933   25.7729 C   0  0  0  0  0  0  0  0  0  0  0  0
   13.8526  -16.6695   26.2621 O   0  0  0  0  0  0  0  0  0  0  0  0
   13.3336  -14.5326   21.9088 C   0  0  0  0  0  0  0  0  0  0  0  0
   13.1081  -14.0177   20.6608 C   0  0  0  0  0  0  0  0  0  0  0  0
   10.9357  -15.3009   28.7738 C   0  0  0  0  0  0  0  0  0  0  0  0
   11.7741  -16.3756   28.1261 C   0  0  2  0  0  0  0  0  0  0  0  0
   11.6319  -16.3990   26.6901 N   0  0  0  0  0  0  0  0  0  0  0  0
   11.5670  -17.6859   28.7480 C   0  0  0  0  0  0  0  0  0  0  0  0
   11.8427  -17.9417   30.0928 O   0  0  0  0  0  0  0  0  0  0  0  0
   11.1223  -18.6485   28.0736 O   0  0  0  0  0  0  0  0  0  0  0  0
  2  1  1  6
  3  4  1  0
  3  2  1  0
  4  5  2  0
  6  5  1  0
  7  6  1  0
  8  7  2  0
  9  8  1  0
 10  9  2  0
 10 11  1  0
 11 12  2  0
 12  7  1  0
 12  4  1  0
 13  2  1  0
 13 14  2  0
 15 16  1  0
 16 17  2  0
 17 18  1  0
 19 20  1  0
 19 18  2  0
 21 20  1  6
 21 22  1  0
 22 13  1  0
 23 21  1  0
 24 23  2  0
 25 19  1  0
 26 25  2  0
 26 16  1  0
 28 27  1  1
 28 29  1  0
 28 30  1  0
 29 23  1  0
 30 31  1  0
 32 30  2  0
M  END
$$$$
