WYA.pdb
     RDKit          3D

 32 34  0  0  1  0  0  0  0  0999 V2000
    5.5461  -17.9314   25.1183 N   0  0  0  0  0  0  0  0  0  0  0  0
    6.3901  -17.1837   24.2145 C   0  0  1  0  0  0  0  0  0  0  0  0
    7.3941  -16.3226   24.9454 C   0  0  0  0  0  0  0  0  0  0  0  0
    6.7610  -15.2394   25.7102 C   0  0  0  0  0  0  0  0  0  0  0  0
    5.5665  -15.3048   26.4108 C   0  0  0  0  0  0  0  0  0  0  0  0
    5.3267  -14.1116   26.9799 N   0  0  0  0  0  0  0  0  0  0  0  0
    6.3087  -13.2331   26.6967 C   0  0  0  0  0  0  0  0  0  0  0  0
    6.5451  -11.9162   27.0213 C   0  0  0  0  0  0  0  0  0  0  0  0
    7.6757  -11.2818   26.5613 C   0  0  0  0  0  0  0  0  0  0  0  0
    8.5936  -11.9708   25.7602 C   0  0  0  0  0  0  0  0  0  0  0  0
    8.3299  -13.3000   25.4478 C   0  0  0  0  0  0  0  0  0  0  0  0
    7.2091  -13.9486   25.8968 C   0  0  0  0  0  0  0  0  0  0  0  0
    7.0597  -18.0547   23.2256 C   0  0  0  0  0  0  0  0  0  0  0  0
    6.5152  -19.0869   22.7472 O   0  0  0  0  0  0  0  0  0  0  0  0
    8.1689  -12.3676   17.1921 O   0  0  0  0  0  0  0  0  0  0  0  0
    8.0311  -13.1383   18.3190 C   0  0  0  0  0  0  0  0  0  0  0  0
    7.9235  -12.5953   19.5976 C   0  0  0  0  0  0  0  0  0  0  0  0
    7.7878  -13.3971   20.6928 C   0  0  0  0  0  0  0  0  0  0  0  0
    7.7517  -14.7534   20.5862 C   0  0  0  0  0  0  0  0  0  0  0  0
    7.6097  -15.6901   21.6999 C   0  0  0  0  0  0  0  0  0  0  0  0
    8.6600  -16.7432   21.7979 C   0  0  2  0  0  0  0  0  0  0  0  0
    8.3679  -17.7690   22.7585 N   0  0  0  0  0  0  0  0  0  0  0  0
   10.0245  -16.1452   22.0298 C   0  0  0  0  0  0  0  0  0  0  0  0
   10.6205  -15.4873   21.1436 O   0  0  0  0  0  0  0  0  0  0  0  0
    7.8577  -15.3027   19.3194 C   0  0  0  0  0  0  0  0  0  0  0  0
    7.9947  -14.5201   18.2049 C   0  0  0  0  0  0  0  0  0  0  0  0
   12.3331  -15.7821   25.0310 C   0  0  0  0  0  0  0  0  0  0  0  0
   12.0238  -15.7962   23.5540 C   0  0  2  0  0  0  0  0  0  0  0  0
   10.7017  -16.3002   23.2697 N   0  0  0  0  0  0  0  0  0  0  0  0
   13.0740  -16.4601   22.7774 C   0  0  0  0  0  0  0  0  0  0  0  0
   12.8184  -17.5133   21.8968 O   0  0  0  0  0  0  0  0  0  0  0  0
   14.2716  -16.0935   22.8809 O   0  0  0  0  0  0  0  0  0  0  0  0
  2  1  1  1
  3  4  1  0
  3  2  1  0
  4  5  2  0
  6  5  1  0
  7  6  1  0
  8  7  2  0
  9  8  1  0
 10  9  2  0
 10 11  1  0
 11 12  2  0
 12  7  1  0
 12  4  1  0
 13  2  1  0
 13 14  2  0
 15 16  1  0
 16 17  2  0
 17 18  1  0
 19 20  1  0
 19 18  2  0
 21 20  1  1
 21 22  1  0
 22 13  1  0
 23 21  1  0
 24 23  2  0
 25 19  1  0
 26 25  2  0
 26 16  1  0
 28 27  1  1
 28 29  1  0
 28 30  1  0
 29 23  1  0
 30 31  1  0
 32 30  2  0
M  END
$$$$
