WYA.pdb
     RDKit          3D

 32 34  0  0  1  0  0  0  0  0999 V2000
    8.5774  -17.1778   21.9964 N   0  0  0  0  0  0  0  0  0  0  0  0
    8.5426  -15.8123   22.4684 C   0  0  1  0  0  0  0  0  0  0  0  0
    7.1315  -15.2989   22.6385 C   0  0  0  0  0  0  0  0  0  0  0  0
    7.0845  -13.8631   22.9472 C   0  0  0  0  0  0  0  0  0  0  0  0
    7.3140  -12.8160   22.0681 C   0  0  0  0  0  0  0  0  0  0  0  0
    7.1751  -11.6530   22.7264 N   0  0  0  0  0  0  0  0  0  0  0  0
    6.8600  -11.8626   24.0199 C   0  0  0  0  0  0  0  0  0  0  0  0
    6.6145  -11.0399   25.0962 C   0  0  0  0  0  0  0  0  0  0  0  0
    6.3095  -11.5790   26.3245 C   0  0  0  0  0  0  0  0  0  0  0  0
    6.2466  -12.9675   26.4885 C   0  0  0  0  0  0  0  0  0  0  0  0
    6.4990  -13.7748   25.3846 C   0  0  0  0  0  0  0  0  0  0  0  0
    6.8043  -13.2560   24.1534 C   0  0  0  0  0  0  0  0  0  0  0  0
    9.3259  -15.6294   23.7084 C   0  0  0  0  0  0  0  0  0  0  0  0
    9.7461  -14.5027   24.0893 O   0  0  0  0  0  0  0  0  0  0  0  0
   12.7197  -17.3015   31.7466 O   0  0  0  0  0  0  0  0  0  0  0  0
   12.0164  -17.2575   30.5692 C   0  0  0  0  0  0  0  0  0  0  0  0
   11.6804  -16.0640   29.9335 C   0  0  0  0  0  0  0  0  0  0  0  0
   10.9795  -16.0639   28.7632 C   0  0  0  0  0  0  0  0  0  0  0  0
   10.5802  -17.2211   28.1685 C   0  0  0  0  0  0  0  0  0  0  0  0
    9.8279  -17.3189   26.9185 C   0  0  0  0  0  0  0  0  0  0  0  0
   10.4193  -16.6075   25.7498 C   0  0  2  0  0  0  0  0  0  0  0  0
    9.6493  -16.7283   24.5445 N   0  0  0  0  0  0  0  0  0  0  0  0
   11.8560  -17.0068   25.5269 C   0  0  0  0  0  0  0  0  0  0  0  0
   12.7348  -16.8434   26.4068 O   0  0  0  0  0  0  0  0  0  0  0  0
   10.9096  -18.4126   28.7926 C   0  0  0  0  0  0  0  0  0  0  0  0
   11.6118  -18.4396   29.9672 C   0  0  0  0  0  0  0  0  0  0  0  0
   14.0484  -19.0948   25.1090 C   0  0  0  0  0  0  0  0  0  0  0  0
   13.6067  -18.1083   24.0559 C   0  0  2  0  0  0  0  0  0  0  0  0
   12.2827  -17.5898   24.3029 N   0  0  0  0  0  0  0  0  0  0  0  0
   13.7758  -18.6371   22.7000 C   0  0  0  0  0  0  0  0  0  0  0  0
   12.7357  -18.6925   21.7699 O   0  0  0  0  0  0  0  0  0  0  0  0
   14.8925  -19.0698   22.3191 O   0  0  0  0  0  0  0  0  0  0  0  0
  2  1  1  1
  3  4  1  0
  3  2  1  0
  4  5  2  0
  6  5  1  0
  7  6  1  0
  8  7  2  0
  9  8  1  0
 10  9  2  0
 10 11  1  0
 11 12  2  0
 12  7  1  0
 12  4  1  0
 13  2  1  0
 13 14  2  0
 15 16  1  0
 16 17  2  0
 17 18  1  0
 19 20  1  0
 19 18  2  0
 21 20  1  1
 21 22  1  0
 22 13  1  0
 23 21  1  0
 24 23  2  0
 25 19  1  0
 26 25  2  0
 26 16  1  0
 28 27  1  1
 28 29  1  0
 28 30  1  0
 29 23  1  0
 30 31  1  0
 32 30  2  0
M  END
$$$$
