WYA.pdb
     RDKit          3D

 32 34  0  0  1  0  0  0  0  0999 V2000
    6.4731  -17.5467   24.1777 N   0  0  0  0  0  0  0  0  0  0  0  0
    6.5855  -16.7925   22.9501 C   0  0  1  0  0  0  0  0  0  0  0  0
    6.4811  -15.3025   23.1794 C   0  0  0  0  0  0  0  0  0  0  0  0
    6.5896  -14.9389   24.5989 C   0  0  0  0  0  0  0  0  0  0  0  0
    6.4660  -15.7895   25.6866 C   0  0  0  0  0  0  0  0  0  0  0  0
    6.6321  -15.0823   26.8169 N   0  0  0  0  0  0  0  0  0  0  0  0
    6.8643  -13.7827   26.5460 C   0  0  0  0  0  0  0  0  0  0  0  0
    7.0954  -12.6653   27.3165 C   0  0  0  0  0  0  0  0  0  0  0  0
    7.3030  -11.4434   26.7196 C   0  0  0  0  0  0  0  0  0  0  0  0
    7.2808  -11.3278   25.3250 C   0  0  0  0  0  0  0  0  0  0  0  0
    7.0452  -12.4724   24.5712 C   0  0  0  0  0  0  0  0  0  0  0  0
    6.8363  -13.6980   25.1480 C   0  0  0  0  0  0  0  0  0  0  0  0
    7.8133  -17.1280   22.1985 C   0  0  0  0  0  0  0  0  0  0  0  0
    7.8006  -17.4389   20.9761 O   0  0  0  0  0  0  0  0  0  0  0  0
    7.5397  -13.3331   17.4274 O   0  0  0  0  0  0  0  0  0  0  0  0
    8.0330  -13.6571   18.6661 C   0  0  0  0  0  0  0  0  0  0  0  0
    7.4975  -13.1517   19.8489 C   0  0  0  0  0  0  0  0  0  0  0  0
    8.0179  -13.4991   21.0611 C   0  0  0  0  0  0  0  0  0  0  0  0
    9.0756  -14.3487   21.1684 C   0  0  0  0  0  0  0  0  0  0  0  0
    9.6987  -14.7766   22.4201 C   0  0  0  0  0  0  0  0  0  0  0  0
   10.1339  -16.2012   22.4726 C   0  0  2  0  0  0  0  0  0  0  0  0
    9.0860  -17.1172   22.8238 N   0  0  0  0  0  0  0  0  0  0  0  0
   11.3404  -16.3800   23.3589 C   0  0  0  0  0  0  0  0  0  0  0  0
   12.3891  -15.7115   23.1956 O   0  0  0  0  0  0  0  0  0  0  0  0
    9.6149  -14.8565   19.9983 C   0  0  0  0  0  0  0  0  0  0  0  0
    9.1111  -14.5235   18.7700 C   0  0  0  0  0  0  0  0  0  0  0  0
   12.0696  -18.0490   26.6561 C   0  0  0  0  0  0  0  0  0  0  0  0
   12.4779  -17.5922   25.2769 C   0  0  2  0  0  0  0  0  0  0  0  0
   11.3449  -17.3190   24.4258 N   0  0  0  0  0  0  0  0  0  0  0  0
   13.4557  -18.4951   24.6643 C   0  0  0  0  0  0  0  0  0  0  0  0
   13.2491  -19.1164   23.4309 O   0  0  0  0  0  0  0  0  0  0  0  0
   14.5418  -18.7468   25.2442 O   0  0  0  0  0  0  0  0  0  0  0  0
  2  1  1  1
  3  4  1  0
  3  2  1  0
  4  5  2  0
  6  5  1  0
  7  6  1  0
  8  7  2  0
  9  8  1  0
 10  9  2  0
 10 11  1  0
 11 12  2  0
 12  7  1  0
 12  4  1  0
 13  2  1  0
 13 14  2  0
 15 16  1  0
 16 17  2  0
 17 18  1  0
 19 20  1  0
 19 18  2  0
 21 20  1  1
 21 22  1  0
 22 13  1  0
 23 21  1  0
 24 23  2  0
 25 19  1  0
 26 25  2  0
 26 16  1  0
 28 27  1  1
 28 29  1  0
 28 30  1  0
 29 23  1  0
 30 31  1  0
 32 30  2  0
M  END
$$$$
