WYA.pdb
     RDKit          3D

 32 34  0  0  1  0  0  0  0  0999 V2000
    7.1624  -18.2501   25.7789 N   0  0  0  0  0  0  0  0  0  0  0  0
    7.6396  -16.9626   25.3286 C   0  0  1  0  0  0  0  0  0  0  0  0
    8.9792  -16.6040   25.9293 C   0  0  0  0  0  0  0  0  0  0  0  0
    8.8715  -15.5964   26.9932 C   0  0  0  0  0  0  0  0  0  0  0  0
    9.2839  -15.7307   28.3100 C   0  0  0  0  0  0  0  0  0  0  0  0
    9.0176  -14.5915   28.9707 N   0  0  0  0  0  0  0  0  0  0  0  0
    8.4399  -13.6839   28.1591 C   0  0  0  0  0  0  0  0  0  0  0  0
    7.9811  -12.3967   28.3269 C   0  0  0  0  0  0  0  0  0  0  0  0
    7.4249  -11.7162   27.2686 C   0  0  0  0  0  0  0  0  0  0  0  0
    7.3218  -12.3278   26.0138 C   0  0  0  0  0  0  0  0  0  0  0  0
    7.7932  -13.6284   25.8726 C   0  0  0  0  0  0  0  0  0  0  0  0
    8.3501  -14.3220   26.9152 C   0  0  0  0  0  0  0  0  0  0  0  0
    7.6771  -16.8648   23.8542 C   0  0  0  0  0  0  0  0  0  0  0  0
    7.6489  -17.8777   23.1029 O   0  0  0  0  0  0  0  0  0  0  0  0
    7.9666  -13.6769   15.6733 O   0  0  0  0  0  0  0  0  0  0  0  0
    7.9103  -13.7382   17.0429 C   0  0  0  0  0  0  0  0  0  0  0  0
    8.5263  -12.7993   17.8676 C   0  0  0  0  0  0  0  0  0  0  0  0
    8.4463  -12.8966   19.2259 C   0  0  0  0  0  0  0  0  0  0  0  0
    7.7661  -13.9078   19.8317 C   0  0  0  0  0  0  0  0  0  0  0  0
    7.6267  -14.0932   21.2754 C   0  0  0  0  0  0  0  0  0  0  0  0
    7.9311  -15.4605   21.7847 C   0  0  2  0  0  0  0  0  0  0  0  0
    7.7478  -15.6083   23.2007 N   0  0  0  0  0  0  0  0  0  0  0  0
    9.3023  -15.9188   21.3569 C   0  0  0  0  0  0  0  0  0  0  0  0
    9.4645  -16.8700   20.5555 O   0  0  0  0  0  0  0  0  0  0  0  0
    7.1503  -14.8460   19.0204 C   0  0  0  0  0  0  0  0  0  0  0  0
    7.2157  -14.7708   17.6553 C   0  0  0  0  0  0  0  0  0  0  0  0
   12.5511  -14.4098   20.8609 C   0  0  0  0  0  0  0  0  0  0  0  0
   11.8208  -15.6087   21.4147 C   0  0  2  0  0  0  0  0  0  0  0  0
   10.4803  -15.2908   21.8447 N   0  0  0  0  0  0  0  0  0  0  0  0
   12.6042  -16.3076   22.4366 C   0  0  0  0  0  0  0  0  0  0  0  0
   13.9251  -16.7141   22.2366 O   0  0  0  0  0  0  0  0  0  0  0  0
   12.0997  -16.5713   23.5570 O   0  0  0  0  0  0  0  0  0  0  0  0
  2  1  1  6
  3  4  1  0
  3  2  1  0
  4  5  2  0
  6  5  1  0
  7  6  1  0
  8  7  2  0
  9  8  1  0
 10  9  2  0
 10 11  1  0
 11 12  2  0
 12  7  1  0
 12  4  1  0
 13  2  1  0
 13 14  2  0
 15 16  1  0
 16 17  2  0
 17 18  1  0
 19 20  1  0
 19 18  2  0
 21 20  1  1
 21 22  1  0
 22 13  1  0
 23 21  1  0
 24 23  2  0
 25 19  1  0
 26 25  2  0
 26 16  1  0
 28 27  1  1
 28 29  1  0
 28 30  1  0
 29 23  1  0
 30 31  1  0
 32 30  2  0
M  END
$$$$
