WYA.pdb
     RDKit          3D

 32 34  0  0  1  0  0  0  0  0999 V2000
    6.1471  -17.5411   24.1913 N   0  0  0  0  0  0  0  0  0  0  0  0
    7.2072  -16.5945   23.9298 C   0  0  1  0  0  0  0  0  0  0  0  0
    7.8154  -16.0473   25.2004 C   0  0  0  0  0  0  0  0  0  0  0  0
    6.9430  -15.0749   25.8729 C   0  0  0  0  0  0  0  0  0  0  0  0
    5.6605  -15.2990   26.3491 C   0  0  0  0  0  0  0  0  0  0  0  0
    5.1944  -14.1667   26.9020 N   0  0  0  0  0  0  0  0  0  0  0  0
    6.1062  -13.1775   26.8231 C   0  0  0  0  0  0  0  0  0  0  0  0
    6.1346  -11.8604   27.2233 C   0  0  0  0  0  0  0  0  0  0  0  0
    7.2497  -11.0895   26.9894 C   0  0  0  0  0  0  0  0  0  0  0  0
    8.3630  -11.6387   26.3431 C   0  0  0  0  0  0  0  0  0  0  0  0
    8.3072  -12.9714   25.9497 C   0  0  0  0  0  0  0  0  0  0  0  0
    7.2053  -13.7548   26.1741 C   0  0  0  0  0  0  0  0  0  0  0  0
    8.2486  -17.1527   23.0417 C   0  0  0  0  0  0  0  0  0  0  0  0
    8.4930  -18.3881   22.9703 O   0  0  0  0  0  0  0  0  0  0  0  0
    6.3981  -12.7733   18.2500 O   0  0  0  0  0  0  0  0  0  0  0  0
    7.4307  -13.5022   18.7841 C   0  0  0  0  0  0  0  0  0  0  0  0
    8.3593  -12.9605   19.6703 C   0  0  0  0  0  0  0  0  0  0  0  0
    9.3720  -13.7199   20.1789 C   0  0  0  0  0  0  0  0  0  0  0  0
    9.5192  -15.0313   19.8458 C   0  0  0  0  0  0  0  0  0  0  0  0
   10.5698  -15.9207   20.3388 C   0  0  0  0  0  0  0  0  0  0  0  0
   10.2049  -16.7659   21.5111 C   0  0  2  0  0  0  0  0  0  0  0  0
    9.0370  -16.3144   22.2130 N   0  0  0  0  0  0  0  0  0  0  0  0
   11.3725  -16.9491   22.4473 C   0  0  0  0  0  0  0  0  0  0  0  0
   12.4938  -17.3384   22.0419 O   0  0  0  0  0  0  0  0  0  0  0  0
    8.6010  -15.5790   18.9657 C   0  0  0  0  0  0  0  0  0  0  0  0
    7.5763  -14.8383   18.4416 C   0  0  0  0  0  0  0  0  0  0  0  0
   12.2225  -15.8836   25.9492 C   0  0  0  0  0  0  0  0  0  0  0  0
   12.3183  -16.8581   24.8009 C   0  0  2  0  0  0  0  0  0  0  0  0
   11.2557  -16.6876   23.8394 N   0  0  0  0  0  0  0  0  0  0  0  0
   12.4627  -18.2411   25.2624 C   0  0  0  0  0  0  0  0  0  0  0  0
   13.5303  -18.6719   26.0527 O   0  0  0  0  0  0  0  0  0  0  0  0
   11.6073  -19.1087   24.9539 O   0  0  0  0  0  0  0  0  0  0  0  0
  2  1  1  1
  3  4  1  0
  3  2  1  0
  4  5  2  0
  6  5  1  0
  7  6  1  0
  8  7  2  0
  9  8  1  0
 10  9  2  0
 10 11  1  0
 11 12  2  0
 12  7  1  0
 12  4  1  0
 13  2  1  0
 13 14  2  0
 15 16  1  0
 16 17  2  0
 17 18  1  0
 19 20  1  0
 19 18  2  0
 21 20  1  6
 21 22  1  0
 22 13  1  0
 23 21  1  0
 24 23  2  0
 25 19  1  0
 26 25  2  0
 26 16  1  0
 28 27  1  1
 28 29  1  0
 28 30  1  0
 29 23  1  0
 30 31  1  0
 32 30  2  0
M  END
$$$$
