EQP.pdb
     RDKit          3D

 26 26  0  0  1  0  0  0  0  0999 V2000
   20.9177  -13.0681  -16.7513 N   0  0  0  0  0  0  0  0  0  0  0  0
   21.6059  -11.9089  -17.3554 C   0  0  1  0  0  0  0  0  0  0  0  0
   21.8344  -12.2620  -18.7816 C   0  0  0  0  0  0  0  0  0  0  0  0
   22.5196  -11.1632  -19.5197 C   0  0  0  0  0  0  0  0  0  0  0  0
   22.7423  -11.4158  -20.9547 C   0  0  0  0  0  0  0  0  0  0  0  0
   23.5301  -12.2547  -21.4085 O   0  0  0  0  0  0  0  0  0  0  0  0
   20.7912  -10.7016  -17.1239 C   0  0  0  0  0  0  0  0  0  0  0  0
   19.6244  -10.5557  -17.5771 O   0  0  0  0  0  0  0  0  0  0  0  0
   22.0235  -10.6665  -21.8980 O   0  0  0  0  0  0  0  0  0  0  0  0
   17.1572   -9.0307  -13.9173 N   0  0  0  0  0  0  0  0  0  0  0  0
   18.3952   -9.0924  -13.1973 C   0  0  0  0  0  0  0  0  0  0  0  0
   18.3950   -9.3180  -11.9666 O   0  0  0  0  0  0  0  0  0  0  0  0
   19.6696   -8.8853  -13.9325 C   0  0  0  0  0  0  0  0  0  0  0  0
   19.3429   -8.6837  -15.3938 C   0  0  0  0  0  0  0  0  0  0  0  0
   20.6045   -8.3631  -16.2097 C   0  0  2  0  0  0  0  0  0  0  0  0
   21.3293   -9.6405  -16.3554 N   0  0  0  0  0  0  0  0  0  0  0  0
   21.4357   -7.4729  -15.3777 C   0  0  0  0  0  0  0  0  0  0  0  0
   22.3067   -8.0485  -14.6272 O   0  0  0  0  0  0  0  0  0  0  0  0
   21.3651   -6.0651  -15.3314 N   0  0  0  0  0  0  0  0  0  0  0  0
   20.2603   -5.2911  -15.9433 C   0  0  0  0  0  0  0  0  0  0  0  0
   20.9335   -4.1057  -16.5889 C   0  0  0  0  0  0  0  0  0  0  0  0
   22.2044   -3.9198  -15.7788 C   0  0  0  0  0  0  0  0  0  0  0  0
   22.1871   -5.0560  -14.7484 C   0  0  1  0  0  0  0  0  0  0  0  0
   21.5663   -4.4855  -13.4993 C   0  0  0  0  0  0  0  0  0  0  0  0
   22.3009   -3.5767  -12.7512 O   0  0  0  0  0  0  0  0  0  0  0  0
   20.4173   -4.8141  -13.1337 O   0  0  0  0  0  0  0  0  0  0  0  0
  2  1  1  1
  2  3  1  0
  3  4  1  0
  4  5  1  0
  5  6  2  0
  5  9  1  0
  7 16  1  0
  7  2  1  0
  8  7  2  0
 10 11  1  0
 11 12  2  0
 11 13  1  0
 13 14  1  0
 15 14  1  1
 15 16  1  0
 17 15  1  0
 17 18  2  0
 19 17  1  0
 20 19  1  0
 21 20  1  0
 21 22  1  0
 23 22  1  0
 23 19  1  0
 23 24  1  1
 25 24  1  0
 26 24  2  0
M  END
$$$$
