EQP.pdb
     RDKit          3D

 26 26  0  0  1  0  0  0  0  0999 V2000
   26.3834  -21.3041  -10.7299 N   0  0  0  0  0  0  0  0  0  0  0  0
   26.1611  -20.5125  -11.9572 C   0  0  1  0  0  0  0  0  0  0  0  0
   27.5014  -20.3171  -12.5707 C   0  0  0  0  0  0  0  0  0  0  0  0
   27.6768  -18.9287  -13.0838 C   0  0  0  0  0  0  0  0  0  0  0  0
   27.3592  -18.7434  -14.5112 C   0  0  0  0  0  0  0  0  0  0  0  0
   26.9119  -19.6258  -15.2540 O   0  0  0  0  0  0  0  0  0  0  0  0
   25.1742  -21.2131  -12.7998 C   0  0  0  0  0  0  0  0  0  0  0  0
   25.2320  -22.4457  -13.0554 O   0  0  0  0  0  0  0  0  0  0  0  0
   27.5687  -17.4865  -15.0982 O   0  0  0  0  0  0  0  0  0  0  0  0
   19.8260  -22.2362  -11.9864 N   0  0  0  0  0  0  0  0  0  0  0  0
   20.4650  -21.0148  -11.5934 C   0  0  0  0  0  0  0  0  0  0  0  0
   20.0212  -20.3574  -10.6257 O   0  0  0  0  0  0  0  0  0  0  0  0
   21.6551  -20.5463  -12.3494 C   0  0  0  0  0  0  0  0  0  0  0  0
   21.9456  -21.5507  -13.4400 C   0  0  0  0  0  0  0  0  0  0  0  0
   23.1485  -21.1187  -14.2922 C   0  0  2  0  0  0  0  0  0  0  0  0
   24.0986  -20.4811  -13.3599 N   0  0  0  0  0  0  0  0  0  0  0  0
   22.6643  -20.0753  -15.2156 C   0  0  0  0  0  0  0  0  0  0  0  0
   22.8107  -18.8594  -14.8239 O   0  0  0  0  0  0  0  0  0  0  0  0
   22.0641  -20.2860  -16.4743 N   0  0  0  0  0  0  0  0  0  0  0  0
   21.6829  -21.6276  -16.9731 C   0  0  0  0  0  0  0  0  0  0  0  0
   22.0813  -21.6239  -18.4279 C   0  0  0  0  0  0  0  0  0  0  0  0
   22.0338  -20.1568  -18.8172 C   0  0  0  0  0  0  0  0  0  0  0  0
   21.6542  -19.4170  -17.5282 C   0  0  1  0  0  0  0  0  0  0  0  0
   20.1568  -19.2501  -17.5611 C   0  0  0  0  0  0  0  0  0  0  0  0
   19.6122  -18.3402  -18.4559 O   0  0  0  0  0  0  0  0  0  0  0  0
   19.4106  -19.9092  -16.8058 O   0  0  0  0  0  0  0  0  0  0  0  0
  2  1  1  1
  2  3  1  0
  3  4  1  0
  4  5  1  0
  5  6  2  0
  5  9  1  0
  7 16  1  0
  7  2  1  0
  8  7  2  0
 10 11  1  0
 11 12  2  0
 11 13  1  0
 13 14  1  0
 15 14  1  1
 15 16  1  0
 17 15  1  0
 17 18  2  0
 19 17  1  0
 20 19  1  0
 21 20  1  0
 21 22  1  0
 23 22  1  0
 23 19  1  0
 23 24  1  6
 25 24  1  0
 26 24  2  0
M  END
$$$$
