EQP.pdb
     RDKit          3D

 26 26  0  0  1  0  0  0  0  0999 V2000
   16.2416  -11.9236  -16.3498 N   0  0  0  0  0  0  0  0  0  0  0  0
   16.7883  -10.8148  -17.1585 C   0  0  1  0  0  0  0  0  0  0  0  0
   15.7050   -9.8007  -17.2540 C   0  0  0  0  0  0  0  0  0  0  0  0
   14.9295   -9.6998  -15.9851 C   0  0  0  0  0  0  0  0  0  0  0  0
   13.8260   -8.7228  -16.0011 C   0  0  0  0  0  0  0  0  0  0  0  0
   13.4699   -8.0781  -16.9950 O   0  0  0  0  0  0  0  0  0  0  0  0
   18.0408  -10.3477  -16.5357 C   0  0  0  0  0  0  0  0  0  0  0  0
   18.2473  -10.3712  -15.2928 O   0  0  0  0  0  0  0  0  0  0  0  0
   13.1090   -8.4854  -14.8188 O   0  0  0  0  0  0  0  0  0  0  0  0
   23.0344   -9.3394  -19.9659 N   0  0  0  0  0  0  0  0  0  0  0  0
   22.5808  -10.6250  -19.5231 C   0  0  0  0  0  0  0  0  0  0  0  0
   22.9517  -11.6609  -20.1189 O   0  0  0  0  0  0  0  0  0  0  0  0
   21.6690  -10.7058  -18.3529 C   0  0  0  0  0  0  0  0  0  0  0  0
   21.3562   -9.2983  -17.9015 C   0  0  0  0  0  0  0  0  0  0  0  0
   20.3140   -9.2916  -16.7729 C   0  0  2  0  0  0  0  0  0  0  0  0
   19.0771   -9.8435  -17.3592 N   0  0  0  0  0  0  0  0  0  0  0  0
   20.0555   -7.8782  -16.4396 C   0  0  0  0  0  0  0  0  0  0  0  0
   19.1134   -7.3033  -17.0995 O   0  0  0  0  0  0  0  0  0  0  0  0
   20.7372   -7.1087  -15.4741 N   0  0  0  0  0  0  0  0  0  0  0  0
   21.8678   -7.6338  -14.6739 C   0  0  0  0  0  0  0  0  0  0  0  0
   21.6318   -7.1037  -13.2817 C   0  0  0  0  0  0  0  0  0  0  0  0
   20.8241   -5.8371  -13.5037 C   0  0  0  0  0  0  0  0  0  0  0  0
   20.6143   -5.7620  -15.0214 C   0  0  1  0  0  0  0  0  0  0  0  0
   21.7204   -4.8911  -15.5591 C   0  0  0  0  0  0  0  0  0  0  0  0
   22.7633   -5.4955  -16.2465 O   0  0  0  0  0  0  0  0  0  0  0  0
   21.7119   -3.6520  -15.3972 O   0  0  0  0  0  0  0  0  0  0  0  0
  2  1  1  1
  2  3  1  0
  3  4  1  0
  4  5  1  0
  5  6  2  0
  5  9  1  0
  7 16  1  0
  7  2  1  0
  8  7  2  0
 10 11  1  0
 11 12  2  0
 11 13  1  0
 13 14  1  0
 15 14  1  6
 15 16  1  0
 17 15  1  0
 17 18  2  0
 19 17  1  0
 20 19  1  0
 21 20  1  0
 21 22  1  0
 23 22  1  0
 23 19  1  0
 23 24  1  6
 25 24  1  0
 26 24  2  0
M  END
$$$$
