EQP.pdb
     RDKit          3D

 26 26  0  0  1  0  0  0  0  0999 V2000
   15.4837  -21.8527    1.0163 N   0  0  0  0  0  0  0  0  0  0  0  0
   15.2018  -21.2839    2.3502 C   0  0  1  0  0  0  0  0  0  0  0  0
   14.8875  -22.4383    3.2331 C   0  0  0  0  0  0  0  0  0  0  0  0
   13.4894  -22.9172    3.0392 C   0  0  0  0  0  0  0  0  0  0  0  0
   12.4813  -22.2736    3.9008 C   0  0  0  0  0  0  0  0  0  0  0  0
   11.5443  -21.5779    3.4903 O   0  0  0  0  0  0  0  0  0  0  0  0
   16.3531  -20.4620    2.7671 C   0  0  0  0  0  0  0  0  0  0  0  0
   17.5481  -20.7541    2.4938 O   0  0  0  0  0  0  0  0  0  0  0  0
   12.5642  -22.4440    5.2908 O   0  0  0  0  0  0  0  0  0  0  0  0
   15.8376  -14.4679    3.7666 N   0  0  0  0  0  0  0  0  0  0  0  0
   17.1997  -14.6187    4.1868 C   0  0  0  0  0  0  0  0  0  0  0  0
   17.8907  -13.6094    4.4502 O   0  0  0  0  0  0  0  0  0  0  0  0
   17.7727  -15.9845    4.3035 C   0  0  0  0  0  0  0  0  0  0  0  0
   16.7235  -16.9753    3.8562 C   0  0  0  0  0  0  0  0  0  0  0  0
   17.2473  -18.4174    3.9331 C   0  0  2  0  0  0  0  0  0  0  0  0
   16.1254  -19.2798    3.5133 N   0  0  0  0  0  0  0  0  0  0  0  0
   17.5154  -18.6984    5.3560 C   0  0  0  0  0  0  0  0  0  0  0  0
   16.5133  -19.1037    6.0524 O   0  0  0  0  0  0  0  0  0  0  0  0
   18.7553  -18.5668    6.0149 N   0  0  0  0  0  0  0  0  0  0  0  0
   19.9742  -18.0534    5.3478 C   0  0  0  0  0  0  0  0  0  0  0  0
   21.0873  -18.9413    5.8456 C   0  0  0  0  0  0  0  0  0  0  0  0
   20.5910  -19.4297    7.1951 C   0  0  0  0  0  0  0  0  0  0  0  0
   19.1936  -18.8162    7.3489 C   0  0  1  0  0  0  0  0  0  0  0  0
   19.3761  -17.5361    8.1231 C   0  0  0  0  0  0  0  0  0  0  0  0
   19.6104  -17.6165    9.4883 O   0  0  0  0  0  0  0  0  0  0  0  0
   19.3203  -16.4210    7.5617 O   0  0  0  0  0  0  0  0  0  0  0  0
  2  1  1  6
  2  3  1  0
  3  4  1  0
  4  5  1  0
  5  6  2  0
  5  9  1  0
  7 16  1  0
  7  2  1  0
  8  7  2  0
 10 11  1  0
 11 12  2  0
 11 13  1  0
 13 14  1  0
 15 14  1  1
 15 16  1  0
 17 15  1  0
 17 18  2  0
 19 17  1  0
 20 19  1  0
 21 20  1  0
 21 22  1  0
 23 22  1  0
 23 19  1  0
 23 24  1  1
 25 24  1  0
 26 24  2  0
M  END
$$$$
