EQP.pdb
     RDKit          3D

 26 26  0  0  1  0  0  0  0  0999 V2000
   19.6243  -11.7475  -17.0862 N   0  0  0  0  0  0  0  0  0  0  0  0
   19.3315  -10.4383  -17.7049 C   0  0  1  0  0  0  0  0  0  0  0  0
   18.0797  -10.6219  -18.4860 C   0  0  0  0  0  0  0  0  0  0  0  0
   18.3397  -11.2741  -19.8008 C   0  0  0  0  0  0  0  0  0  0  0  0
   17.1564  -11.4367  -20.6646 C   0  0  0  0  0  0  0  0  0  0  0  0
   17.0827  -11.0529  -21.8383 O   0  0  0  0  0  0  0  0  0  0  0  0
   19.2726   -9.4160  -16.6437 C   0  0  0  0  0  0  0  0  0  0  0  0
   18.5794   -9.5412  -15.5988 O   0  0  0  0  0  0  0  0  0  0  0  0
   16.0161  -12.0685  -20.1463 O   0  0  0  0  0  0  0  0  0  0  0  0
   23.7593   -5.9764  -14.6949 N   0  0  0  0  0  0  0  0  0  0  0  0
   22.7168   -5.0734  -14.3043 C   0  0  0  0  0  0  0  0  0  0  0  0
   22.9939   -4.0321  -13.6685 O   0  0  0  0  0  0  0  0  0  0  0  0
   21.3115   -5.3931  -14.6651 C   0  0  0  0  0  0  0  0  0  0  0  0
   21.3176   -6.6302  -15.5324 C   0  0  0  0  0  0  0  0  0  0  0  0
   19.8898   -7.1178  -15.8213 C   0  0  2  0  0  0  0  0  0  0  0  0
   20.0265   -8.2255  -16.7870 N   0  0  0  0  0  0  0  0  0  0  0  0
   19.1928   -6.0136  -16.5074 C   0  0  0  0  0  0  0  0  0  0  0  0
   19.4221   -5.8945  -17.7671 O   0  0  0  0  0  0  0  0  0  0  0  0
   18.3073   -5.0886  -15.9166 N   0  0  0  0  0  0  0  0  0  0  0  0
   17.9646   -5.1055  -14.4756 C   0  0  0  0  0  0  0  0  0  0  0  0
   16.4816   -4.8338  -14.4303 C   0  0  0  0  0  0  0  0  0  0  0  0
   16.2134   -4.0508  -15.7035 C   0  0  0  0  0  0  0  0  0  0  0  0
   17.5704   -3.9738  -16.4145 C   0  0  1  0  0  0  0  0  0  0  0  0
   18.1923   -2.6654  -15.9993 C   0  0  0  0  0  0  0  0  0  0  0  0
   17.6566   -1.4889  -16.5033 O   0  0  0  0  0  0  0  0  0  0  0  0
   19.1683   -2.6258  -15.2197 O   0  0  0  0  0  0  0  0  0  0  0  0
  2  1  1  1
  2  3  1  0
  3  4  1  0
  4  5  1  0
  5  6  2  0
  5  9  1  0
  7 16  1  0
  7  2  1  0
  8  7  2  0
 10 11  1  0
 11 12  2  0
 11 13  1  0
 13 14  1  0
 15 14  1  6
 15 16  1  0
 17 15  1  0
 17 18  2  0
 19 17  1  0
 20 19  1  0
 21 20  1  0
 21 22  1  0
 23 22  1  0
 23 19  1  0
 23 24  1  1
 25 24  1  0
 26 24  2  0
M  END
$$$$
