EQP.pdb
     RDKit          3D

 26 26  0  0  1  0  0  0  0  0999 V2000
   24.6189  -21.1403  -14.0951 N   0  0  0  0  0  0  0  0  0  0  0  0
   25.7007  -21.6100  -13.2053 C   0  0  1  0  0  0  0  0  0  0  0  0
   26.9251  -21.6801  -14.0460 C   0  0  0  0  0  0  0  0  0  0  0  0
   27.1640  -20.4056  -14.7810 C   0  0  0  0  0  0  0  0  0  0  0  0
   28.3593  -20.3942  -15.6436 C   0  0  0  0  0  0  0  0  0  0  0  0
   28.7541  -19.4147  -16.2877 O   0  0  0  0  0  0  0  0  0  0  0  0
   25.7814  -20.7078  -12.0416 C   0  0  0  0  0  0  0  0  0  0  0  0
   25.9309  -19.4605  -12.1410 O   0  0  0  0  0  0  0  0  0  0  0  0
   29.1248  -21.5638  -15.7626 O   0  0  0  0  0  0  0  0  0  0  0  0
   22.0688  -20.9691   -7.4690 N   0  0  0  0  0  0  0  0  0  0  0  0
   21.9511  -20.2562   -8.7071 C   0  0  0  0  0  0  0  0  0  0  0  0
   20.8399  -19.8124   -9.0727 O   0  0  0  0  0  0  0  0  0  0  0  0
   23.1629  -20.0547   -9.5427 C   0  0  0  0  0  0  0  0  0  0  0  0
   24.3369  -20.6839   -8.8294 C   0  0  0  0  0  0  0  0  0  0  0  0
   25.6588  -20.3759   -9.5488 C   0  0  2  0  0  0  0  0  0  0  0  0
   25.6881  -21.2511  -10.7368 N   0  0  0  0  0  0  0  0  0  0  0  0
   26.7447  -20.8103   -8.6500 C   0  0  0  0  0  0  0  0  0  0  0  0
   27.2271  -21.9820   -8.8690 O   0  0  0  0  0  0  0  0  0  0  0  0
   27.2972  -20.0672   -7.5864 N   0  0  0  0  0  0  0  0  0  0  0  0
   26.8885  -18.6783   -7.2733 C   0  0  0  0  0  0  0  0  0  0  0  0
   28.1757  -17.9639   -6.9451 C   0  0  0  0  0  0  0  0  0  0  0  0
   29.0931  -19.0692   -6.4524 C   0  0  0  0  0  0  0  0  0  0  0  0
   28.2683  -20.3560   -6.5827 C   0  0  1  0  0  0  0  0  0  0  0  0
   27.6275  -20.5861   -5.2383 C   0  0  0  0  0  0  0  0  0  0  0  0
   28.4316  -20.9923   -4.1830 O   0  0  0  0  0  0  0  0  0  0  0  0
   26.4014  -20.4189   -5.0632 O   0  0  0  0  0  0  0  0  0  0  0  0
  2  1  1  6
  2  3  1  0
  3  4  1  0
  4  5  1  0
  5  6  2  0
  5  9  1  0
  7 16  1  0
  7  2  1  0
  8  7  2  0
 10 11  1  0
 11 12  2  0
 11 13  1  0
 13 14  1  0
 15 14  1  1
 15 16  1  0
 17 15  1  0
 17 18  2  0
 19 17  1  0
 20 19  1  0
 21 20  1  0
 21 22  1  0
 23 22  1  0
 23 19  1  0
 23 24  1  1
 25 24  1  0
 26 24  2  0
M  END
$$$$
