EQP.pdb
     RDKit          3D

 26 26  0  0  1  0  0  0  0  0999 V2000
   18.6219  -11.5690  -17.4994 N   0  0  0  0  0  0  0  0  0  0  0  0
   19.5726  -12.1748  -16.5447 C   0  0  1  0  0  0  0  0  0  0  0  0
   20.8509  -12.3422  -17.2855 C   0  0  0  0  0  0  0  0  0  0  0  0
   21.4861  -11.0296  -17.5945 C   0  0  0  0  0  0  0  0  0  0  0  0
   22.8438  -11.1087  -18.1630 C   0  0  0  0  0  0  0  0  0  0  0  0
   23.5090  -12.1475  -18.2568 O   0  0  0  0  0  0  0  0  0  0  0  0
   19.6432  -11.3233  -15.3427 C   0  0  0  0  0  0  0  0  0  0  0  0
   20.1892  -11.6873  -14.2669 O   0  0  0  0  0  0  0  0  0  0  0  0
   23.4518   -9.9380  -18.6404 O   0  0  0  0  0  0  0  0  0  0  0  0
   21.4027   -5.8086  -15.5750 N   0  0  0  0  0  0  0  0  0  0  0  0
   20.8792   -5.7014  -14.2448 C   0  0  0  0  0  0  0  0  0  0  0  0
   21.0207   -4.6395  -13.5983 O   0  0  0  0  0  0  0  0  0  0  0  0
   20.1708   -6.8646  -13.6514 C   0  0  0  0  0  0  0  0  0  0  0  0
   20.0663   -7.9409  -14.7065 C   0  0  0  0  0  0  0  0  0  0  0  0
   19.1942   -9.1112  -14.2273 C   0  0  2  0  0  0  0  0  0  0  0  0
   19.0744  -10.0266  -15.3788 N   0  0  0  0  0  0  0  0  0  0  0  0
   17.8530   -8.5605  -13.9561 C   0  0  0  0  0  0  0  0  0  0  0  0
   17.1003   -8.3708  -14.9812 O   0  0  0  0  0  0  0  0  0  0  0  0
   17.3258   -8.2283  -12.6910 N   0  0  0  0  0  0  0  0  0  0  0  0
   18.1170   -8.3036  -11.4409 C   0  0  0  0  0  0  0  0  0  0  0  0
   17.1716   -8.8910  -10.4229 C   0  0  0  0  0  0  0  0  0  0  0  0
   15.7954   -8.5015  -10.9330 C   0  0  0  0  0  0  0  0  0  0  0  0
   16.0568   -7.7530  -12.2462 C   0  0  1  0  0  0  0  0  0  0  0  0
   16.1028   -6.2879  -11.8965 C   0  0  0  0  0  0  0  0  0  0  0  0
   14.9108   -5.6390  -11.6078 O   0  0  0  0  0  0  0  0  0  0  0  0
   17.1823   -5.6591  -11.8632 O   0  0  0  0  0  0  0  0  0  0  0  0
  2  1  1  6
  2  3  1  0
  3  4  1  0
  4  5  1  0
  5  6  2  0
  5  9  1  0
  7 16  1  0
  7  2  1  0
  8  7  2  0
 10 11  1  0
 11 12  2  0
 11 13  1  0
 13 14  1  0
 15 14  1  6
 15 16  1  0
 17 15  1  0
 17 18  2  0
 19 17  1  0
 20 19  1  0
 21 20  1  0
 21 22  1  0
 23 22  1  0
 23 19  1  0
 23 24  1  1
 25 24  1  0
 26 24  2  0
M  END
$$$$
