GSP.pdb
     RDKit          3D

 18 18  0  0  1  0  0  0  0  0999 V2000
    8.8298  -12.7289   18.4779 N   0  0  0  0  0  0  0  0  0  0  0  0
    9.0236  -13.7886   19.4377 C   0  0  0  0  0  0  0  0  0  0  0  0
    8.1687  -13.5264   20.6103 C   0  0  0  0  0  0  0  0  0  0  0  0
    7.6432  -12.4120   20.7595 O   0  0  0  0  0  0  0  0  0  0  0  0
    7.1425  -16.6743   23.1142 O   0  0  0  0  0  0  0  0  0  0  0  0
    6.3152  -15.5621   22.9508 C   0  0  0  0  0  0  0  0  0  0  0  0
    7.1625  -14.2994   22.8022 C   0  0  2  0  0  0  0  0  0  0  0  0
    7.9304  -14.5281   21.5819 N   0  0  0  0  0  0  0  0  0  0  0  0
    8.1010  -14.2653   23.9441 C   0  0  0  0  0  0  0  0  0  0  0  0
    9.3074  -14.5788   23.7141 O   0  0  0  0  0  0  0  0  0  0  0  0
    7.7484  -13.9069   25.2720 N   0  0  0  0  0  0  0  0  0  0  0  0
    6.3743  -13.6795   25.7192 C   0  0  0  0  0  0  0  0  0  0  0  0
    6.5284  -12.5757   26.7126 C   0  0  0  0  0  0  0  0  0  0  0  0
    7.9823  -12.4567   27.0509 C   0  0  0  0  0  0  0  0  0  0  0  0
    8.5654  -13.7114   26.4432 C   0  0  1  0  0  0  0  0  0  0  0  0
    8.3741  -14.8083   27.4523 C   0  0  0  0  0  0  0  0  0  0  0  0
    7.4613  -15.6534   27.3415 O   0  0  0  0  0  0  0  0  0  0  0  0
    9.2090  -14.9023   28.5282 O   0  0  0  0  0  0  0  0  0  0  0  0
  1  2  1  0
  3  2  1  0
  4  3  2  0
  5  6  1  0
  7  6  1  1
  7  8  1  0
  7  9  1  0
  8  3  1  0
  9 10  2  0
 11  9  1  0
 11 12  1  0
 13 12  1  0
 14 13  1  0
 15 14  1  0
 15 11  1  0
 15 16  1  1
 16 18  1  0
 17 16  2  0
M  END
$$$$
