GSP.pdb
     RDKit          3D

 18 18  0  0  1  0  0  0  0  0999 V2000
    9.0677  -17.0519   14.2674 N   0  0  0  0  0  0  0  0  0  0  0  0
    8.9105  -17.6790   15.5572 C   0  0  0  0  0  0  0  0  0  0  0  0
    8.2295  -16.7346   16.4622 C   0  0  0  0  0  0  0  0  0  0  0  0
    8.2084  -15.5230   16.1945 O   0  0  0  0  0  0  0  0  0  0  0  0
    6.7508  -18.1087   20.1634 O   0  0  0  0  0  0  0  0  0  0  0  0
    6.0382  -17.1701   19.4156 C   0  0  0  0  0  0  0  0  0  0  0  0
    7.0057  -16.2835   18.6332 C   0  0  2  0  0  0  0  0  0  0  0  0
    7.5914  -17.1830   17.6437 N   0  0  0  0  0  0  0  0  0  0  0  0
    8.0701  -15.8644   19.5700 C   0  0  0  0  0  0  0  0  0  0  0  0
    9.1472  -16.5325   19.5620 O   0  0  0  0  0  0  0  0  0  0  0  0
    7.9717  -14.7719   20.4716 N   0  0  0  0  0  0  0  0  0  0  0  0
    6.7314  -14.0448   20.7416 C   0  0  0  0  0  0  0  0  0  0  0  0
    7.2059  -12.6427   20.9360 C   0  0  0  0  0  0  0  0  0  0  0  0
    8.6919  -12.6775   21.1175 C   0  0  0  0  0  0  0  0  0  0  0  0
    8.9654  -14.1511   21.3110 C   0  0  1  0  0  0  0  0  0  0  0  0
    8.7355  -14.4447   22.7667 C   0  0  0  0  0  0  0  0  0  0  0  0
    9.5519  -14.0975   23.6457 O   0  0  0  0  0  0  0  0  0  0  0  0
    7.6104  -15.1090   23.1619 O   0  0  0  0  0  0  0  0  0  0  0  0
  1  2  1  0
  3  2  1  0
  4  3  2  0
  5  6  1  0
  7  6  1  1
  7  8  1  0
  7  9  1  0
  8  3  1  0
  9 10  2  0
 11  9  1  0
 11 12  1  0
 13 12  1  0
 14 13  1  0
 15 14  1  0
 15 11  1  0
 15 16  1  1
 16 18  1  0
 17 16  2  0
M  END
$$$$
