GSP.pdb
     RDKit          3D

 18 18  0  0  1  0  0  0  0  0999 V2000
    9.3031  -18.8160   16.3673 N   0  0  0  0  0  0  0  0  0  0  0  0
    8.3897  -19.2146   17.4107 C   0  0  0  0  0  0  0  0  0  0  0  0
    8.1006  -18.0433   18.2587 C   0  0  0  0  0  0  0  0  0  0  0  0
    8.7386  -16.9903   18.1024 O   0  0  0  0  0  0  0  0  0  0  0  0
    5.5515  -18.6428   21.3574 O   0  0  0  0  0  0  0  0  0  0  0  0
    5.4868  -17.3595   20.8123 C   0  0  0  0  0  0  0  0  0  0  0  0
    6.8290  -16.9931   20.1807 C   0  0  2  0  0  0  0  0  0  0  0  0
    7.1001  -18.0923   19.2591 N   0  0  0  0  0  0  0  0  0  0  0  0
    7.8425  -17.0262   21.2568 C   0  0  0  0  0  0  0  0  0  0  0  0
    8.6787  -17.9786   21.2381 O   0  0  0  0  0  0  0  0  0  0  0  0
    7.9452  -16.0712   22.3024 N   0  0  0  0  0  0  0  0  0  0  0  0
    6.9555  -15.0233   22.5519 C   0  0  0  0  0  0  0  0  0  0  0  0
    7.7954  -13.8777   23.0109 C   0  0  0  0  0  0  0  0  0  0  0  0
    9.1583  -14.4046   23.3384 C   0  0  0  0  0  0  0  0  0  0  0  0
    8.9443  -15.9005   23.3272 C   0  0  1  0  0  0  0  0  0  0  0  0
    8.4245  -16.2718   24.6873 C   0  0  0  0  0  0  0  0  0  0  0  0
    9.1676  -16.3027   25.6906 O   0  0  0  0  0  0  0  0  0  0  0  0
    7.1073  -16.5887   24.8540 O   0  0  0  0  0  0  0  0  0  0  0  0
  1  2  1  0
  3  2  1  0
  4  3  2  0
  5  6  1  0
  7  6  1  1
  7  8  1  0
  7  9  1  0
  8  3  1  0
  9 10  2  0
 11  9  1  0
 11 12  1  0
 13 12  1  0
 14 13  1  0
 15 14  1  0
 15 11  1  0
 15 16  1  1
 16 18  1  0
 17 16  2  0
M  END
$$$$
