GSP.pdb
     RDKit          3D

 18 18  0  0  1  0  0  0  0  0999 V2000
    5.9439  -20.9738   19.8330 N   0  0  0  0  0  0  0  0  0  0  0  0
    6.2105  -21.3684   21.1949 C   0  0  0  0  0  0  0  0  0  0  0  0
    6.4767  -20.1581   21.9943 C   0  0  0  0  0  0  0  0  0  0  0  0
    6.4501  -19.0400   21.4565 O   0  0  0  0  0  0  0  0  0  0  0  0
    7.3379  -18.6182   26.5449 O   0  0  0  0  0  0  0  0  0  0  0  0
    6.9745  -19.6164   25.6395 C   0  0  0  0  0  0  0  0  0  0  0  0
    7.0587  -19.0806   24.2112 C   0  0  2  0  0  0  0  0  0  0  0  0
    6.7653  -20.2426   23.3777 N   0  0  0  0  0  0  0  0  0  0  0  0
    8.4625  -18.6806   23.9759 C   0  0  0  0  0  0  0  0  0  0  0  0
    9.2786  -19.5923   23.6451 O   0  0  0  0  0  0  0  0  0  0  0  0
    8.9575  -17.3550   24.0923 N   0  0  0  0  0  0  0  0  0  0  0  0
    8.1544  -16.2202   24.5474 C   0  0  0  0  0  0  0  0  0  0  0  0
    8.6800  -15.0916   23.7234 C   0  0  0  0  0  0  0  0  0  0  0  0
    9.9680  -15.5335   23.1007 C   0  0  0  0  0  0  0  0  0  0  0  0
   10.2702  -16.8145   23.8431 C   0  0  1  0  0  0  0  0  0  0  0  0
   10.9677  -16.4215   25.1147 C   0  0  0  0  0  0  0  0  0  0  0  0
   12.1539  -16.0309   25.1219 O   0  0  0  0  0  0  0  0  0  0  0  0
   10.3060  -16.4862   26.3069 O   0  0  0  0  0  0  0  0  0  0  0  0
  1  2  1  0
  3  2  1  0
  4  3  2  0
  5  6  1  0
  7  6  1  1
  7  8  1  0
  7  9  1  0
  8  3  1  0
  9 10  2  0
 11  9  1  0
 11 12  1  0
 13 12  1  0
 14 13  1  0
 15 14  1  0
 15 11  1  0
 15 16  1  1
 16 18  1  0
 17 16  2  0
M  END
$$$$
