GSP.pdb
     RDKit          3D

 18 18  0  0  1  0  0  0  0  0999 V2000
    8.6843  -12.7364   18.7933 N   0  0  0  0  0  0  0  0  0  0  0  0
    8.8556  -13.8643   19.6766 C   0  0  0  0  0  0  0  0  0  0  0  0
    7.9860  -13.6797   20.8532 C   0  0  0  0  0  0  0  0  0  0  0  0
    7.4802  -12.5701   21.0841 O   0  0  0  0  0  0  0  0  0  0  0  0
    7.4135  -16.9254   23.3351 O   0  0  0  0  0  0  0  0  0  0  0  0
    6.3970  -15.9715   23.2649 C   0  0  0  0  0  0  0  0  0  0  0  0
    6.9949  -14.5910   22.9983 C   0  0  2  0  0  0  0  0  0  0  0  0
    7.7111  -14.7514   21.7364 N   0  0  0  0  0  0  0  0  0  0  0  0
    7.9840  -14.3290   24.0656 C   0  0  0  0  0  0  0  0  0  0  0  0
    9.2078  -14.4845   23.7745 O   0  0  0  0  0  0  0  0  0  0  0  0
    7.6614  -13.9165   25.3854 N   0  0  0  0  0  0  0  0  0  0  0  0
    6.2954  -13.8154   25.8988 C   0  0  0  0  0  0  0  0  0  0  0  0
    6.3695  -12.6312   26.8049 C   0  0  0  0  0  0  0  0  0  0  0  0
    7.8147  -12.3221   27.0457 C   0  0  0  0  0  0  0  0  0  0  0  0
    8.5097  -13.5431   26.4893 C   0  0  1  0  0  0  0  0  0  0  0  0
    8.5027  -14.5774   27.5793 C   0  0  0  0  0  0  0  0  0  0  0  0
    7.7051  -15.5384   27.5704 O   0  0  0  0  0  0  0  0  0  0  0  0
    9.3831  -14.4835   28.6182 O   0  0  0  0  0  0  0  0  0  0  0  0
  1  2  1  0
  3  2  1  0
  4  3  2  0
  5  6  1  0
  7  6  1  1
  7  8  1  0
  7  9  1  0
  8  3  1  0
  9 10  2  0
 11  9  1  0
 11 12  1  0
 13 12  1  0
 14 13  1  0
 15 14  1  0
 15 11  1  0
 15 16  1  1
 16 18  1  0
 17 16  2  0
M  END
$$$$
