GSP.pdb
     RDKit          3D

 18 18  0  0  1  0  0  0  0  0999 V2000
   10.1170  -16.9152   19.9847 N   0  0  0  0  0  0  0  0  0  0  0  0
    9.6796  -17.4854   21.2358 C   0  0  0  0  0  0  0  0  0  0  0  0
    8.8796  -16.4799   21.9595 C   0  0  0  0  0  0  0  0  0  0  0  0
    8.7990  -15.3201   21.5252 O   0  0  0  0  0  0  0  0  0  0  0  0
    7.1614  -17.8903   25.1544 O   0  0  0  0  0  0  0  0  0  0  0  0
    6.4588  -16.7553   24.7468 C   0  0  0  0  0  0  0  0  0  0  0  0
    7.3573  -15.8664   23.8883 C   0  0  2  0  0  0  0  0  0  0  0  0
    8.1931  -16.8105   23.1526 N   0  0  0  0  0  0  0  0  0  0  0  0
    8.2217  -15.0982   24.8096 C   0  0  0  0  0  0  0  0  0  0  0  0
    9.4750  -15.1978   24.6490 O   0  0  0  0  0  0  0  0  0  0  0  0
    7.7494  -14.2607   25.8544 N   0  0  0  0  0  0  0  0  0  0  0  0
    6.3363  -14.0989   26.1960 C   0  0  0  0  0  0  0  0  0  0  0  0
    6.2557  -12.6634   26.5982 C   0  0  0  0  0  0  0  0  0  0  0  0
    7.6511  -12.1619   26.8071 C   0  0  0  0  0  0  0  0  0  0  0  0
    8.4638  -13.4358   26.7960 C   0  0  1  0  0  0  0  0  0  0  0  0
    8.4078  -13.9950   28.1897 C   0  0  0  0  0  0  0  0  0  0  0  0
    9.0762  -13.5045   29.1237 O   0  0  0  0  0  0  0  0  0  0  0  0
    7.6119  -15.0692   28.4651 O   0  0  0  0  0  0  0  0  0  0  0  0
  1  2  1  0
  3  2  1  0
  4  3  2  0
  5  6  1  0
  7  6  1  1
  7  8  1  0
  7  9  1  0
  8  3  1  0
  9 10  2  0
 11  9  1  0
 11 12  1  0
 13 12  1  0
 14 13  1  0
 15 14  1  0
 15 11  1  0
 15 16  1  1
 16 18  1  0
 17 16  2  0
M  END
$$$$
