GSP.pdb
     RDKit          3D

 18 18  0  0  1  0  0  0  0  0999 V2000
    8.9015  -14.6903   13.3028 N   0  0  0  0  0  0  0  0  0  0  0  0
    9.2119  -15.7032   14.2822 C   0  0  0  0  0  0  0  0  0  0  0  0
    8.5076  -15.3794   15.5367 C   0  0  0  0  0  0  0  0  0  0  0  0
    8.0419  -14.2425   15.7122 O   0  0  0  0  0  0  0  0  0  0  0  0
    8.1656  -18.3982   18.1394 O   0  0  0  0  0  0  0  0  0  0  0  0
    7.1752  -17.4268   18.2929 C   0  0  0  0  0  0  0  0  0  0  0  0
    7.7034  -16.0673   17.8377 C   0  0  2  0  0  0  0  0  0  0  0  0
    8.3481  -16.3467   16.5580 N   0  0  0  0  0  0  0  0  0  0  0  0
    8.7441  -15.6562   18.8041 C   0  0  0  0  0  0  0  0  0  0  0  0
    9.9522  -15.8560   18.4769 O   0  0  0  0  0  0  0  0  0  0  0  0
    8.4870  -15.0557   20.0648 N   0  0  0  0  0  0  0  0  0  0  0  0
    7.1483  -14.8776   20.6270 C   0  0  0  0  0  0  0  0  0  0  0  0
    7.2626  -13.5746   21.3467 C   0  0  0  0  0  0  0  0  0  0  0  0
    8.7167  -13.2376   21.4663 C   0  0  0  0  0  0  0  0  0  0  0  0
    9.3884  -14.5283   21.0582 C   0  0  1  0  0  0  0  0  0  0  0  0
    9.4417  -15.3935   22.2856 C   0  0  0  0  0  0  0  0  0  0  0  0
    8.5808  -16.2695   22.5120 O   0  0  0  0  0  0  0  0  0  0  0  0
   10.4495  -15.2343   23.1924 O   0  0  0  0  0  0  0  0  0  0  0  0
  1  2  1  0
  3  2  1  0
  4  3  2  0
  5  6  1  0
  7  6  1  1
  7  8  1  0
  7  9  1  0
  8  3  1  0
  9 10  2  0
 11  9  1  0
 11 12  1  0
 13 12  1  0
 14 13  1  0
 15 14  1  0
 15 11  1  0
 15 16  1  1
 16 18  1  0
 17 16  2  0
M  END
$$$$
