GSP.pdb
     RDKit          3D

 18 18  0  0  1  0  0  0  0  0999 V2000
    8.4148  -13.1332   18.9390 N   0  0  0  0  0  0  0  0  0  0  0  0
    8.6444  -14.2368   19.8396 C   0  0  0  0  0  0  0  0  0  0  0  0
    7.8496  -14.0218   21.0630 C   0  0  0  0  0  0  0  0  0  0  0  0
    7.4220  -12.8890   21.3352 O   0  0  0  0  0  0  0  0  0  0  0  0
    7.3160  -17.1820   23.8765 O   0  0  0  0  0  0  0  0  0  0  0  0
    6.3008  -16.2859   23.5386 C   0  0  0  0  0  0  0  0  0  0  0  0
    6.8975  -14.9126   23.2343 C   0  0  2  0  0  0  0  0  0  0  0  0
    7.5593  -15.0903   21.9452 N   0  0  0  0  0  0  0  0  0  0  0  0
    7.9321  -14.6487   24.2570 C   0  0  0  0  0  0  0  0  0  0  0  0
    9.1343  -14.9037   23.9465 O   0  0  0  0  0  0  0  0  0  0  0  0
    7.6755  -14.1315   25.5541 N   0  0  0  0  0  0  0  0  0  0  0  0
    6.3344  -13.9223   26.0996 C   0  0  0  0  0  0  0  0  0  0  0  0
    6.4999  -12.6855   26.9192 C   0  0  0  0  0  0  0  0  0  0  0  0
    7.9665  -12.4395   27.0952 C   0  0  0  0  0  0  0  0  0  0  0  0
    8.5783  -13.7310   26.6040 C   0  0  1  0  0  0  0  0  0  0  0  0
    8.5538  -14.6877   27.7625 C   0  0  0  0  0  0  0  0  0  0  0  0
    7.7272  -15.6215   27.8284 O   0  0  0  0  0  0  0  0  0  0  0  0
    9.4501  -14.5506   28.7829 O   0  0  0  0  0  0  0  0  0  0  0  0
  1  2  1  0
  3  2  1  0
  4  3  2  0
  5  6  1  0
  7  6  1  1
  7  8  1  0
  7  9  1  0
  8  3  1  0
  9 10  2  0
 11  9  1  0
 11 12  1  0
 13 12  1  0
 14 13  1  0
 15 14  1  0
 15 11  1  0
 15 16  1  1
 16 18  1  0
 17 16  2  0
M  END
$$$$
