VKC.pdb
     RDKit          3D

 23 22  0  0  1  0  0  0  0  0999 V2000
   23.6618  -26.2753  -17.3160 C   0  0  0  0  0  0  0  0  0  0  0  0
   24.2726  -25.3135  -16.2867 C   0  0  2  0  0  0  0  0  0  0  0  0
   24.1723  -26.0126  -14.9508 C   0  0  0  0  0  0  0  0  0  0  0  0
   23.4616  -24.0457  -16.3703 C   0  0  2  0  0  0  0  0  0  0  0  0
   23.2654  -23.8156  -17.8175 N   0  0  0  0  0  0  0  0  0  0  0  0
   24.0924  -22.8628  -15.7985 C   0  0  0  0  0  0  0  0  0  0  0  0
   25.3743  -22.8808  -15.6803 O   0  0  0  0  0  0  0  0  0  0  0  0
   23.4803  -21.6857  -15.3536 N   0  0  0  0  0  0  0  0  0  0  0  0
   24.2093  -20.5841  -14.7168 C   0  0  1  0  0  0  0  0  0  0  0  0
   23.5916  -19.3334  -15.2804 C   0  0  0  0  0  0  0  0  0  0  0  0
   24.0666  -19.0079  -16.6595 C   0  0  0  0  0  0  0  0  0  0  0  0
   23.4456  -17.7091  -17.1620 C   0  0  0  0  0  0  0  0  0  0  0  0
   23.9307  -17.5409  -18.5933 C   0  0  0  0  0  0  0  0  0  0  0  0
   23.3358  -16.3319  -19.1560 N   0  0  0  0  0  0  0  0  0  0  0  0
   24.1559  -20.6175  -13.2683 C   0  0  0  0  0  0  0  0  0  0  0  0
   23.1483  -21.1166  -12.6735 O   0  0  0  0  0  0  0  0  0  0  0  0
   25.1595  -20.1280  -12.3775 N   0  0  0  0  0  0  0  0  0  0  0  0
   25.0386  -20.2517  -10.9359 C   0  0  1  0  0  0  0  0  0  0  0  0
   25.3266  -21.6539  -10.4612 C   0  0  0  0  0  0  0  0  0  0  0  0
   24.6758  -21.9226   -8.7750 S   0  0  0  0  0  0  0  0  0  0  0  0
   25.9978  -19.3055  -10.3221 C   0  0  0  0  0  0  0  0  0  0  0  0
   25.8634  -18.7973   -9.0394 O   0  0  0  0  0  0  0  0  0  0  0  0
   26.9890  -18.9404  -10.9980 O   0  0  0  0  0  0  0  0  0  0  0  0
  2  1  1  6
  3  2  1  0
  4  6  1  0
  4  5  1  6
  4  2  1  0
  6  7  2  0
  8  9  1  0
  8  6  1  0
  9 15  1  0
 10 11  1  0
  9 10  1  6
 12 11  1  0
 13 14  1  0
 13 12  1  0
 15 17  1  0
 15 16  2  0
 17 18  1  0
 18 21  1  0
 18 19  1  6
 20 19  1  0
 21 23  2  0
 21 22  1  0
M  END
$$$$
