VKC.pdb
     RDKit          3D

 23 22  0  0  1  0  0  0  0  0999 V2000
   26.2777  -13.6139  -18.7385 C   0  0  0  0  0  0  0  0  0  0  0  0
   26.7711  -13.6638  -17.2854 C   0  0  2  0  0  0  0  0  0  0  0  0
   27.7252  -14.8329  -17.2081 C   0  0  0  0  0  0  0  0  0  0  0  0
   25.5387  -13.8293  -16.4336 C   0  0  2  0  0  0  0  0  0  0  0  0
   26.0081  -13.6343  -15.0452 N   0  0  0  0  0  0  0  0  0  0  0  0
   24.8903  -15.1316  -16.5206 C   0  0  0  0  0  0  0  0  0  0  0  0
   24.1994  -15.3733  -17.5797 O   0  0  0  0  0  0  0  0  0  0  0  0
   24.9198  -16.1765  -15.5903 N   0  0  0  0  0  0  0  0  0  0  0  0
   24.2437  -17.4618  -15.7937 C   0  0  1  0  0  0  0  0  0  0  0  0
   25.1442  -18.4800  -15.1490 C   0  0  0  0  0  0  0  0  0  0  0  0
   26.0775  -19.1394  -16.1121 C   0  0  0  0  0  0  0  0  0  0  0  0
   26.9717  -20.1517  -15.4046 C   0  0  0  0  0  0  0  0  0  0  0  0
   27.8537  -20.7568  -16.4855 C   0  0  0  0  0  0  0  0  0  0  0  0
   28.7021  -21.7826  -15.8854 N   0  0  0  0  0  0  0  0  0  0  0  0
   22.8988  -17.4986  -15.2531 C   0  0  0  0  0  0  0  0  0  0  0  0
   22.7005  -17.3159  -14.0099 O   0  0  0  0  0  0  0  0  0  0  0  0
   21.6997  -17.7288  -15.9943 N   0  0  0  0  0  0  0  0  0  0  0  0
   20.3896  -17.7079  -15.3686 C   0  0  1  0  0  0  0  0  0  0  0  0
   19.6360  -16.4377  -15.6737 C   0  0  0  0  0  0  0  0  0  0  0  0
   17.9416  -16.5003  -14.9927 S   0  0  0  0  0  0  0  0  0  0  0  0
   19.6325  -18.8759  -15.8731 C   0  0  0  0  0  0  0  0  0  0  0  0
   18.5646  -19.4495  -15.2007 O   0  0  0  0  0  0  0  0  0  0  0  0
   19.9739  -19.3779  -16.9704 O   0  0  0  0  0  0  0  0  0  0  0  0
  2  1  1  6
  3  2  1  0
  4  6  1  0
  4  5  1  1
  4  2  1  0
  6  7  2  0
  8  9  1  0
  8  6  1  0
  9 15  1  0
 10 11  1  0
  9 10  1  1
 12 11  1  0
 13 14  1  0
 13 12  1  0
 15 17  1  0
 15 16  2  0
 17 18  1  0
 18 21  1  0
 18 19  1  6
 20 19  1  0
 21 23  2  0
 21 22  1  0
M  END
$$$$
