VKC.pdb
     RDKit          3D

 23 22  0  0  1  0  0  0  0  0999 V2000
   21.4523  -21.3372  -13.9972 C   0  0  0  0  0  0  0  0  0  0  0  0
   20.3872  -20.2505  -14.2026 C   0  0  2  0  0  0  0  0  0  0  0  0
   19.1518  -20.9649  -14.6993 C   0  0  0  0  0  0  0  0  0  0  0  0
   20.9694  -19.2812  -15.1991 C   0  0  2  0  0  0  0  0  0  0  0  0
   21.0194  -20.0305  -16.4726 N   0  0  0  0  0  0  0  0  0  0  0  0
   22.3122  -18.8039  -14.8940 C   0  0  0  0  0  0  0  0  0  0  0  0
   22.4535  -18.0882  -13.8332 O   0  0  0  0  0  0  0  0  0  0  0  0
   23.4928  -19.0249  -15.6121 N   0  0  0  0  0  0  0  0  0  0  0  0
   24.7850  -18.4350  -15.2481 C   0  0  1  0  0  0  0  0  0  0  0  0
   25.8050  -19.4776  -15.6172 C   0  0  0  0  0  0  0  0  0  0  0  0
   26.5666  -20.0026  -14.4434 C   0  0  0  0  0  0  0  0  0  0  0  0
   25.8809  -21.2268  -13.8468 C   0  0  0  0  0  0  0  0  0  0  0  0
   26.6392  -21.5485  -12.5686 C   0  0  0  0  0  0  0  0  0  0  0  0
   25.8887  -22.5459  -11.8109 N   0  0  0  0  0  0  0  0  0  0  0  0
   25.0420  -17.1632  -15.8952 C   0  0  0  0  0  0  0  0  0  0  0  0
   24.6792  -16.9696  -17.0989 O   0  0  0  0  0  0  0  0  0  0  0  0
   25.6920  -16.0356  -15.3068 N   0  0  0  0  0  0  0  0  0  0  0  0
   25.9633  -14.8227  -16.0575 C   0  0  1  0  0  0  0  0  0  0  0  0
   26.4279  -13.6972  -15.1675 C   0  0  0  0  0  0  0  0  0  0  0  0
   26.7390  -12.1799  -16.1368 S   0  0  0  0  0  0  0  0  0  0  0  0
   27.0086  -15.1381  -17.0574 C   0  0  0  0  0  0  0  0  0  0  0  0
   27.0497  -14.5856  -18.3281 O   0  0  0  0  0  0  0  0  0  0  0  0
   27.9094  -15.9511  -16.7407 O   0  0  0  0  0  0  0  0  0  0  0  0
  2  1  1  6
  3  2  1  0
  4  6  1  0
  4  5  1  6
  4  2  1  0
  6  7  2  0
  8  9  1  0
  8  6  1  0
  9 15  1  0
 10 11  1  0
  9 10  1  6
 12 11  1  0
 13 14  1  0
 13 12  1  0
 15 17  1  0
 15 16  2  0
 17 18  1  0
 18 21  1  0
 18 19  1  1
 20 19  1  0
 21 23  2  0
 21 22  1  0
M  END
$$$$
