VKC.pdb
     RDKit          3D

 23 22  0  0  1  0  0  0  0  0999 V2000
   26.1933  -21.7396  -10.0402 C   0  0  0  0  0  0  0  0  0  0  0  0
   25.2512  -20.5361   -9.8935 C   0  0  2  0  0  0  0  0  0  0  0  0
   24.4949  -20.7523   -8.6033 C   0  0  0  0  0  0  0  0  0  0  0  0
   24.3741  -20.5432  -11.1193 C   0  0  2  0  0  0  0  0  0  0  0  0
   23.6241  -21.8149  -11.0418 N   0  0  0  0  0  0  0  0  0  0  0  0
   25.0816  -20.5040  -12.3929 C   0  0  0  0  0  0  0  0  0  0  0  0
   26.3118  -20.8836  -12.3925 O   0  0  0  0  0  0  0  0  0  0  0  0
   24.5935  -20.1033  -13.6416 N   0  0  0  0  0  0  0  0  0  0  0  0
   25.4093  -20.0765  -14.8599 C   0  0  1  0  0  0  0  0  0  0  0  0
   24.9566  -21.2701  -15.6561 C   0  0  0  0  0  0  0  0  0  0  0  0
   25.7356  -21.4720  -16.9153 C   0  0  0  0  0  0  0  0  0  0  0  0
   26.6207  -22.7100  -16.8210 C   0  0  0  0  0  0  0  0  0  0  0  0
   27.4045  -22.7630  -18.1229 C   0  0  0  0  0  0  0  0  0  0  0  0
   28.2732  -23.9366  -18.1054 N   0  0  0  0  0  0  0  0  0  0  0  0
   25.2891  -18.8404  -15.6082 C   0  0  0  0  0  0  0  0  0  0  0  0
   24.1449  -18.3277  -15.8229 O   0  0  0  0  0  0  0  0  0  0  0  0
   26.3662  -18.0857  -16.1654 N   0  0  0  0  0  0  0  0  0  0  0  0
   26.1474  -16.8421  -16.8821 C   0  0  1  0  0  0  0  0  0  0  0  0
   27.1181  -15.7672  -16.4617 C   0  0  0  0  0  0  0  0  0  0  0  0
   27.1155  -15.5538  -14.6470 S   0  0  0  0  0  0  0  0  0  0  0  0
   26.3029  -17.1234  -18.3273 C   0  0  0  0  0  0  0  0  0  0  0  0
   26.1118  -16.1756  -19.3207 O   0  0  0  0  0  0  0  0  0  0  0  0
   26.6251  -18.2840  -18.6766 O   0  0  0  0  0  0  0  0  0  0  0  0
  2  1  1  6
  3  2  1  0
  4  6  1  0
  4  5  1  6
  4  2  1  0
  6  7  2  0
  8  9  1  0
  8  6  1  0
  9 15  1  0
 10 11  1  0
  9 10  1  6
 12 11  1  0
 13 14  1  0
 13 12  1  0
 15 17  1  0
 15 16  2  0
 17 18  1  0
 18 21  1  0
 18 19  1  1
 20 19  1  0
 21 23  2  0
 21 22  1  0
M  END
$$$$
