VKC.pdb
     RDKit          3D

 23 22  0  0  1  0  0  0  0  0999 V2000
   27.7066  -19.3361  -15.4844 C   0  0  0  0  0  0  0  0  0  0  0  0
   27.3785  -18.2943  -16.5635 C   0  0  2  0  0  0  0  0  0  0  0  0
   27.6078  -16.9444  -15.9244 C   0  0  0  0  0  0  0  0  0  0  0  0
   25.9454  -18.5427  -16.9589 C   0  0  2  0  0  0  0  0  0  0  0  0
   25.5452  -17.3358  -17.7132 N   0  0  0  0  0  0  0  0  0  0  0  0
   25.0148  -18.7219  -15.8517 C   0  0  0  0  0  0  0  0  0  0  0  0
   24.5128  -17.6577  -15.3293 O   0  0  0  0  0  0  0  0  0  0  0  0
   24.5833  -19.9190  -15.2695 N   0  0  0  0  0  0  0  0  0  0  0  0
   23.6205  -19.9820  -14.1652 C   0  0  1  0  0  0  0  0  0  0  0  0
   22.4861  -20.8212  -14.6872 C   0  0  0  0  0  0  0  0  0  0  0  0
   21.6118  -20.0968  -15.6588 C   0  0  0  0  0  0  0  0  0  0  0  0
   20.4365  -20.9654  -16.0935 C   0  0  0  0  0  0  0  0  0  0  0  0
   19.6173  -20.1117  -17.0488 C   0  0  0  0  0  0  0  0  0  0  0  0
   18.4232  -20.8543  -17.4424 N   0  0  0  0  0  0  0  0  0  0  0  0
   24.1811  -20.5183  -12.9403 C   0  0  0  0  0  0  0  0  0  0  0  0
   25.3556  -21.0066  -12.9308 O   0  0  0  0  0  0  0  0  0  0  0  0
   23.5330  -20.5659  -11.6683 N   0  0  0  0  0  0  0  0  0  0  0  0
   24.2233  -20.9983  -10.4663 C   0  0  1  0  0  0  0  0  0  0  0  0
   25.3890  -20.1028  -10.1290 C   0  0  0  0  0  0  0  0  0  0  0  0
   26.1440  -20.5808   -8.5351 S   0  0  0  0  0  0  0  0  0  0  0  0
   23.2428  -20.9874   -9.3570 C   0  0  0  0  0  0  0  0  0  0  0  0
   23.3249  -21.8168   -8.2493 O   0  0  0  0  0  0  0  0  0  0  0  0
   22.2818  -20.1842   -9.4197 O   0  0  0  0  0  0  0  0  0  0  0  0
  2  1  1  1
  3  2  1  0
  4  6  1  0
  4  5  1  1
  4  2  1  0
  6  7  2  0
  8  9  1  0
  8  6  1  0
  9 15  1  0
 10 11  1  0
  9 10  1  6
 12 11  1  0
 13 14  1  0
 13 12  1  0
 15 17  1  0
 15 16  2  0
 17 18  1  0
 18 21  1  0
 18 19  1  1
 20 19  1  0
 21 23  2  0
 21 22  1  0
M  END
$$$$
