VKC.pdb
     RDKit          3D

 23 22  0  0  1  0  0  0  0  0999 V2000
   18.8260  -12.4130  -17.5372 C   0  0  0  0  0  0  0  0  0  0  0  0
   18.4352  -12.5386  -16.0577 C   0  0  2  0  0  0  0  0  0  0  0  0
   17.1126  -13.2690  -16.0355 C   0  0  0  0  0  0  0  0  0  0  0  0
   18.3594  -11.1300  -15.5269 C   0  0  2  0  0  0  0  0  0  0  0  0
   17.2299  -10.5112  -16.2530 N   0  0  0  0  0  0  0  0  0  0  0  0
   19.5479  -10.3157  -15.7465 C   0  0  0  0  0  0  0  0  0  0  0  0
   20.5784  -10.5737  -15.0191 O   0  0  0  0  0  0  0  0  0  0  0  0
   19.7242   -9.2715  -16.6611 N   0  0  0  0  0  0  0  0  0  0  0  0
   20.9454   -8.4637  -16.7432 C   0  0  1  0  0  0  0  0  0  0  0  0
   21.3935   -8.5826  -18.1745 C   0  0  0  0  0  0  0  0  0  0  0  0
   22.3834   -9.6800  -18.3959 C   0  0  0  0  0  0  0  0  0  0  0  0
   22.7056   -9.8383  -19.8778 C   0  0  0  0  0  0  0  0  0  0  0  0
   23.7828  -10.9085  -19.9588 C   0  0  0  0  0  0  0  0  0  0  0  0
   24.1917  -11.0645  -21.3519 N   0  0  0  0  0  0  0  0  0  0  0  0
   20.7531   -7.0839  -16.3415 C   0  0  0  0  0  0  0  0  0  0  0  0
   19.8070   -6.3951  -16.8403 O   0  0  0  0  0  0  0  0  0  0  0  0
   21.5462   -6.3640  -15.3966 N   0  0  0  0  0  0  0  0  0  0  0  0
   21.2134   -5.0136  -14.9795 C   0  0  1  0  0  0  0  0  0  0  0  0
   19.8396   -4.9334  -14.3623 C   0  0  0  0  0  0  0  0  0  0  0  0
   19.5924   -3.3324  -13.5171 S   0  0  0  0  0  0  0  0  0  0  0  0
   22.2329   -4.5833  -13.9961 C   0  0  0  0  0  0  0  0  0  0  0  0
   22.7479   -3.2978  -13.9340 O   0  0  0  0  0  0  0  0  0  0  0  0
   22.6577   -5.4269  -13.1711 O   0  0  0  0  0  0  0  0  0  0  0  0
  2  1  1  6
  3  2  1  0
  4  6  1  0
  4  5  1  6
  4  2  1  0
  6  7  2  0
  8  9  1  0
  8  6  1  0
  9 15  1  0
 10 11  1  0
  9 10  1  6
 12 11  1  0
 13 14  1  0
 13 12  1  0
 15 17  1  0
 15 16  2  0
 17 18  1  0
 18 21  1  0
 18 19  1  1
 20 19  1  0
 21 23  2  0
 21 22  1  0
M  END
$$$$
