TPV.pdb
     RDKit          3D

 22 22  0  0  1  0  0  0  0  0999 V2000
   17.3903  -11.9671  -12.9548 C   0  0  0  0  0  0  0  0  0  0  0  0
   16.3592  -12.0000  -14.0607 C   0  0  1  0  0  0  0  0  0  0  0  0
   16.4958  -13.1253  -14.8401 O   0  0  0  0  0  0  0  0  0  0  0  0
   14.9548  -11.8900  -13.4539 C   0  0  2  0  0  0  0  0  0  0  0  0
   13.9840  -12.1128  -14.4486 N   0  0  0  0  0  0  0  0  0  0  0  0
   14.7891  -10.6017  -12.7495 C   0  0  0  0  0  0  0  0  0  0  0  0
   15.5819   -9.6921  -13.2254 O   0  0  0  0  0  0  0  0  0  0  0  0
   13.9399  -10.2743  -11.7087 N   0  0  0  0  0  0  0  0  0  0  0  0
   12.6010  -10.8257  -11.4894 C   0  0  0  0  0  0  0  0  0  0  0  0
   12.6967  -11.2141  -10.0024 C   0  0  0  0  0  0  0  0  0  0  0  0
   13.9341  -10.4838   -9.4628 C   0  0  0  0  0  0  0  0  0  0  0  0
   14.0904   -9.4268  -10.5784 C   0  0  1  0  0  0  0  0  0  0  0  0
   15.1920   -8.5413  -10.4113 C   0  0  0  0  0  0  0  0  0  0  0  0
   16.3805   -8.8605  -10.3170 O   0  0  0  0  0  0  0  0  0  0  0  0
   16.7896   -3.8762  -10.7406 C   0  0  0  0  0  0  0  0  0  0  0  0
   15.7409   -4.9179  -11.0040 C   0  0  2  0  0  0  0  0  0  0  0  0
   14.3555   -4.3570  -10.8192 C   0  0  0  0  0  0  0  0  0  0  0  0
   15.9405   -6.1585  -10.1629 C   0  0  2  0  0  0  0  0  0  0  0  0
   14.9149   -7.1375  -10.3433 N   0  0  0  0  0  0  0  0  0  0  0  0
   15.9654   -5.7729   -8.7293 C   0  0  0  0  0  0  0  0  0  0  0  0
   14.9224   -5.7517   -8.0256 O   0  0  0  0  0  0  0  0  0  0  0  0
   17.1979   -5.4302   -8.1797 O   0  0  0  0  0  0  0  0  0  0  0  0
  2  3  1  0
  2  1  1  1
  4  2  1  0
  4  5  1  6
  6  4  1  0
  7  6  2  0
  8  6  1  0
  8 12  1  0
  9 10  1  0
  9  8  1  0
 10 11  1  0
 11 12  1  0
 12 13  1  6
 13 19  1  0
 13 14  2  0
 16 18  1  0
 16 15  1  1
 17 16  1  0
 18 20  1  0
 18 19  1  1
 20 22  1  0
 21 20  2  0
M  END
$$$$
