TPV.pdb
     RDKit          3D

 22 22  0  0  1  0  0  0  0  0999 V2000
   13.7402   -9.5987  -15.4531 C   0  0  0  0  0  0  0  0  0  0  0  0
   13.9798  -10.9876  -14.9045 C   0  0  1  0  0  0  0  0  0  0  0  0
   13.6688  -11.9537  -15.8330 O   0  0  0  0  0  0  0  0  0  0  0  0
   15.4309  -11.1030  -14.4209 C   0  0  2  0  0  0  0  0  0  0  0  0
   15.7323  -12.4460  -14.1259 N   0  0  0  0  0  0  0  0  0  0  0  0
   15.6803  -10.1833  -13.2916 C   0  0  0  0  0  0  0  0  0  0  0  0
   14.6013   -9.9666  -12.6052 O   0  0  0  0  0  0  0  0  0  0  0  0
   16.8564   -9.5672  -12.9059 N   0  0  0  0  0  0  0  0  0  0  0  0
   18.2062  -10.1040  -13.0925 C   0  0  0  0  0  0  0  0  0  0  0  0
   18.9103   -8.8846  -13.7157 C   0  0  0  0  0  0  0  0  0  0  0  0
   17.9842   -7.6903  -13.4477 C   0  0  0  0  0  0  0  0  0  0  0  0
   17.1286   -8.3032  -12.3170 C   0  0  1  0  0  0  0  0  0  0  0  0
   16.1121   -7.4475  -11.8072 C   0  0  0  0  0  0  0  0  0  0  0  0
   15.2207   -6.8988  -12.4611 O   0  0  0  0  0  0  0  0  0  0  0  0
   15.7097   -7.0291   -7.4715 C   0  0  0  0  0  0  0  0  0  0  0  0
   14.6413   -6.7191   -8.4798 C   0  0  2  0  0  0  0  0  0  0  0  0
   13.7247   -7.8967   -8.6836 C   0  0  0  0  0  0  0  0  0  0  0  0
   15.2148   -6.2440   -9.7958 C   0  0  2  0  0  0  0  0  0  0  0  0
   16.1060   -7.1846  -10.3991 N   0  0  0  0  0  0  0  0  0  0  0  0
   15.9594   -4.9792   -9.5710 C   0  0  0  0  0  0  0  0  0  0  0  0
   17.2147   -4.9494   -9.4874 O   0  0  0  0  0  0  0  0  0  0  0  0
   15.2136   -3.8093   -9.4540 O   0  0  0  0  0  0  0  0  0  0  0  0
  2  3  1  0
  2  1  1  6
  4  2  1  0
  4  5  1  1
  6  4  1  0
  7  6  2  0
  8  6  1  0
  8 12  1  0
  9 10  1  0
  9  8  1  0
 10 11  1  0
 11 12  1  0
 12 13  1  6
 13 19  1  0
 13 14  2  0
 16 18  1  0
 16 15  1  1
 17 16  1  0
 18 20  1  0
 18 19  1  1
 20 22  1  0
 21 20  2  0
M  END
$$$$
