TPV.pdb
     RDKit          3D

 22 22  0  0  1  0  0  0  0  0999 V2000
   14.6693   -8.3747  -15.1313 C   0  0  0  0  0  0  0  0  0  0  0  0
   14.7915   -9.8699  -14.9391 C   0  0  1  0  0  0  0  0  0  0  0  0
   13.5649  -10.4874  -15.0184 O   0  0  0  0  0  0  0  0  0  0  0  0
   15.7860  -10.4371  -15.9600 C   0  0  2  0  0  0  0  0  0  0  0  0
   15.7461  -11.8440  -15.9374 N   0  0  0  0  0  0  0  0  0  0  0  0
   17.1378   -9.8841  -15.7359 C   0  0  0  0  0  0  0  0  0  0  0  0
   17.4401   -9.8588  -14.4748 O   0  0  0  0  0  0  0  0  0  0  0  0
   18.0595   -9.4212  -16.6566 N   0  0  0  0  0  0  0  0  0  0  0  0
   18.1072   -9.7796  -18.0758 C   0  0  0  0  0  0  0  0  0  0  0  0
   18.2201   -8.3833  -18.7151 C   0  0  0  0  0  0  0  0  0  0  0  0
   18.6137   -7.4361  -17.5734 C   0  0  0  0  0  0  0  0  0  0  0  0
   19.1239   -8.4850  -16.5607 C   0  0  1  0  0  0  0  0  0  0  0  0
   19.5784   -7.9482  -15.3235 C   0  0  0  0  0  0  0  0  0  0  0  0
   18.8835   -7.3989  -14.4640 O   0  0  0  0  0  0  0  0  0  0  0  0
   23.5427   -9.0724  -14.0271 C   0  0  0  0  0  0  0  0  0  0  0  0
   22.4268   -8.6233  -13.1285 C   0  0  2  0  0  0  0  0  0  0  0  0
   21.6239   -9.7949  -12.6277 C   0  0  0  0  0  0  0  0  0  0  0  0
   21.5346   -7.5975  -13.7905 C   0  0  2  0  0  0  0  0  0  0  0  0
   20.9768   -8.0449  -15.0281 N   0  0  0  0  0  0  0  0  0  0  0  0
   22.3240   -6.3683  -14.0561 C   0  0  0  0  0  0  0  0  0  0  0  0
   22.6942   -5.5999  -13.1308 O   0  0  0  0  0  0  0  0  0  0  0  0
   22.6466   -6.0883  -15.3812 O   0  0  0  0  0  0  0  0  0  0  0  0
  2  3  1  0
  2  1  1  6
  4  2  1  0
  4  5  1  1
  6  4  1  0
  7  6  2  0
  8  6  1  0
  8 12  1  0
  9 10  1  0
  9  8  1  0
 10 11  1  0
 11 12  1  0
 12 13  1  1
 13 19  1  0
 13 14  2  0
 16 18  1  0
 16 15  1  6
 17 16  1  0
 18 20  1  0
 18 19  1  6
 20 22  1  0
 21 20  2  0
M  END
$$$$
