TPV.pdb
     RDKit          3D

 22 22  0  0  1  0  0  0  0  0999 V2000
   14.5675   -7.9948  -15.0132 C   0  0  0  0  0  0  0  0  0  0  0  0
   14.8771   -9.4679  -14.8663 C   0  0  1  0  0  0  0  0  0  0  0  0
   13.7298  -10.2263  -14.8933 O   0  0  0  0  0  0  0  0  0  0  0  0
   15.8709   -9.8925  -15.9549 C   0  0  2  0  0  0  0  0  0  0  0  0
   15.9479  -11.2969  -16.0121 N   0  0  0  0  0  0  0  0  0  0  0  0
   17.1808   -9.2403  -15.7502 C   0  0  0  0  0  0  0  0  0  0  0  0
   17.6483   -9.4706  -14.5625 O   0  0  0  0  0  0  0  0  0  0  0  0
   17.9194   -8.4633  -16.6233 N   0  0  0  0  0  0  0  0  0  0  0  0
   17.8681   -8.5327  -18.0853 C   0  0  0  0  0  0  0  0  0  0  0  0
   17.7024   -7.0416  -18.4322 C   0  0  0  0  0  0  0  0  0  0  0  0
   18.0698   -6.2760  -17.1538 C   0  0  0  0  0  0  0  0  0  0  0  0
   18.8361   -7.3974  -16.4181 C   0  0  1  0  0  0  0  0  0  0  0  0
   19.3350   -7.0367  -15.1350 C   0  0  0  0  0  0  0  0  0  0  0  0
   18.6628   -6.7030  -14.1551 O   0  0  0  0  0  0  0  0  0  0  0  0
   23.2676   -8.3115  -14.1047 C   0  0  0  0  0  0  0  0  0  0  0  0
   22.2136   -7.8625  -13.1343 C   0  0  2  0  0  0  0  0  0  0  0  0
   21.3574   -9.0171  -12.6851 C   0  0  0  0  0  0  0  0  0  0  0  0
   21.3644   -6.7406  -13.6881 C   0  0  2  0  0  0  0  0  0  0  0  0
   20.7542   -7.0564  -14.9415 N   0  0  0  0  0  0  0  0  0  0  0  0
   22.2142   -5.5378  -13.8770 C   0  0  0  0  0  0  0  0  0  0  0  0
   22.6592   -4.8754  -12.9040 O   0  0  0  0  0  0  0  0  0  0  0  0
   22.5077   -5.1601  -15.1846 O   0  0  0  0  0  0  0  0  0  0  0  0
  2  3  1  0
  2  1  1  6
  4  2  1  0
  4  5  1  1
  6  4  1  0
  7  6  2  0
  8  6  1  0
  8 12  1  0
  9 10  1  0
  9  8  1  0
 10 11  1  0
 11 12  1  0
 12 13  1  1
 13 19  1  0
 13 14  2  0
 16 18  1  0
 16 15  1  6
 17 16  1  0
 18 20  1  0
 18 19  1  6
 20 22  1  0
 21 20  2  0
M  END
$$$$
