TPV.pdb
     RDKit          3D

 22 22  0  0  1  0  0  0  0  0999 V2000
   21.8635  -12.6612  -20.5707 C   0  0  0  0  0  0  0  0  0  0  0  0
   21.1254  -13.7737  -19.8600 C   0  0  1  0  0  0  0  0  0  0  0  0
   21.0473  -14.9028  -20.6419 O   0  0  0  0  0  0  0  0  0  0  0  0
   21.8006  -14.0555  -18.5119 C   0  0  2  0  0  0  0  0  0  0  0  0
   21.2702  -15.2305  -17.9465 N   0  0  0  0  0  0  0  0  0  0  0  0
   21.7029  -12.8797  -17.6223 C   0  0  0  0  0  0  0  0  0  0  0  0
   20.6680  -12.1511  -17.9062 O   0  0  0  0  0  0  0  0  0  0  0  0
   22.5335  -12.4918  -16.5874 N   0  0  0  0  0  0  0  0  0  0  0  0
   23.3323  -13.3874  -15.7480 C   0  0  0  0  0  0  0  0  0  0  0  0
   24.7029  -12.6890  -15.8160 C   0  0  0  0  0  0  0  0  0  0  0  0
   24.4236  -11.2816  -16.3610 C   0  0  0  0  0  0  0  0  0  0  0  0
   22.9056  -11.2169  -16.0826 C   0  0  1  0  0  0  0  0  0  0  0  0
   22.2759  -10.0062  -16.4868 C   0  0  0  0  0  0  0  0  0  0  0  0
   22.3790   -9.4594  -17.5885 O   0  0  0  0  0  0  0  0  0  0  0  0
   18.7013   -8.6974  -14.5494 C   0  0  0  0  0  0  0  0  0  0  0  0
   19.2664   -8.2307  -15.8597 C   0  0  2  0  0  0  0  0  0  0  0  0
   18.8233   -9.1186  -16.9927 C   0  0  0  0  0  0  0  0  0  0  0  0
   20.7731   -8.1084  -15.8238 C   0  0  2  0  0  0  0  0  0  0  0  0
   21.4359   -9.3416  -15.5357 N   0  0  0  0  0  0  0  0  0  0  0  0
   21.1543   -7.1232  -14.7803 C   0  0  0  0  0  0  0  0  0  0  0  0
   21.0127   -5.8842  -14.9486 O   0  0  0  0  0  0  0  0  0  0  0  0
   21.6813   -7.6211  -13.5916 O   0  0  0  0  0  0  0  0  0  0  0  0
  2  3  1  0
  2  1  1  6
  4  2  1  0
  4  5  1  1
  6  4  1  0
  7  6  2  0
  8  6  1  0
  8 12  1  0
  9 10  1  0
  9  8  1  0
 10 11  1  0
 11 12  1  0
 12 13  1  6
 13 19  1  0
 13 14  2  0
 16 18  1  0
 16 15  1  1
 17 16  1  0
 18 20  1  0
 18 19  1  1
 20 22  1  0
 21 20  2  0
M  END
$$$$
