TPV.pdb
     RDKit          3D

 22 22  0  0  1  0  0  0  0  0999 V2000
   23.8588  -18.2242  -15.1626 C   0  0  0  0  0  0  0  0  0  0  0  0
   23.2046  -19.5654  -15.4089 C   0  0  1  0  0  0  0  0  0  0  0  0
   22.4686  -19.5583  -16.5710 O   0  0  0  0  0  0  0  0  0  0  0  0
   24.2757  -20.6633  -15.4152 C   0  0  2  0  0  0  0  0  0  0  0  0
   23.7362  -21.8563  -15.9323 N   0  0  0  0  0  0  0  0  0  0  0  0
   24.8704  -20.8214  -14.0718 C   0  0  0  0  0  0  0  0  0  0  0  0
   23.9678  -20.7723  -13.1416 O   0  0  0  0  0  0  0  0  0  0  0  0
   26.1933  -21.0051  -13.7146 N   0  0  0  0  0  0  0  0  0  0  0  0
   27.2009  -21.7224  -14.4987 C   0  0  0  0  0  0  0  0  0  0  0  0
   28.3510  -20.6987  -14.4830 C   0  0  0  0  0  0  0  0  0  0  0  0
   28.0007  -19.6998  -13.3717 C   0  0  0  0  0  0  0  0  0  0  0  0
   26.9604  -20.5494  -12.6089 C   0  0  1  0  0  0  0  0  0  0  0  0
   26.3859  -19.9117  -11.4737 C   0  0  0  0  0  0  0  0  0  0  0  0
   25.8717  -18.7900  -11.4458 O   0  0  0  0  0  0  0  0  0  0  0  0
   25.2750  -22.1993   -7.9555 C   0  0  0  0  0  0  0  0  0  0  0  0
   24.8615  -20.8023   -8.3185 C   0  0  2  0  0  0  0  0  0  0  0  0
   23.6102  -20.8037   -9.1567 C   0  0  0  0  0  0  0  0  0  0  0  0
   25.9709  -20.0347   -9.0014 C   0  0  2  0  0  0  0  0  0  0  0  0
   26.3958  -20.6254  -10.2317 N   0  0  0  0  0  0  0  0  0  0  0  0
   27.1427  -19.9655   -8.0921 C   0  0  0  0  0  0  0  0  0  0  0  0
   28.1660  -20.6769   -8.2666 O   0  0  0  0  0  0  0  0  0  0  0  0
   27.0727  -19.0751   -7.0241 O   0  0  0  0  0  0  0  0  0  0  0  0
  2  3  1  0
  2  1  1  6
  4  2  1  0
  4  5  1  1
  6  4  1  0
  7  6  2  0
  8  6  1  0
  8 12  1  0
  9 10  1  0
  9  8  1  0
 10 11  1  0
 11 12  1  0
 12 13  1  1
 13 19  1  0
 13 14  2  0
 16 18  1  0
 16 15  1  6
 17 16  1  0
 18 20  1  0
 18 19  1  6
 20 22  1  0
 21 20  2  0
M  END
$$$$
