TPV.pdb
     RDKit          3D

 22 22  0  0  1  0  0  0  0  0999 V2000
   16.2925  -12.8499  -18.3488 C   0  0  0  0  0  0  0  0  0  0  0  0
   16.9352  -14.1176  -17.8317 C   0  0  1  0  0  0  0  0  0  0  0  0
   16.1700  -15.2227  -18.1237 O   0  0  0  0  0  0  0  0  0  0  0  0
   18.3559  -14.2381  -18.3974 C   0  0  2  0  0  0  0  0  0  0  0  0
   18.8613  -15.5289  -18.1528 N   0  0  0  0  0  0  0  0  0  0  0  0
   19.2202  -13.1600  -17.8741 C   0  0  0  0  0  0  0  0  0  0  0  0
   19.0271  -12.9665  -16.6061 O   0  0  0  0  0  0  0  0  0  0  0  0
   20.1526  -12.3838  -18.5372 N   0  0  0  0  0  0  0  0  0  0  0  0
   20.8746  -12.7639  -19.7534 C   0  0  0  0  0  0  0  0  0  0  0  0
   20.6517  -11.5087  -20.6170 C   0  0  0  0  0  0  0  0  0  0  0  0
   20.1669  -10.4210  -19.6486 C   0  0  0  0  0  0  0  0  0  0  0  0
   20.6285  -11.0626  -18.3215 C   0  0  1  0  0  0  0  0  0  0  0  0
   20.3229  -10.3065  -17.1551 C   0  0  0  0  0  0  0  0  0  0  0  0
   19.1953  -10.0330  -16.7342 O   0  0  0  0  0  0  0  0  0  0  0  0
   21.6382   -8.7891  -12.7420 C   0  0  0  0  0  0  0  0  0  0  0  0
   21.8425   -9.6374  -13.9638 C   0  0  2  0  0  0  0  0  0  0  0  0
   23.3015   -9.9426  -14.1789 C   0  0  0  0  0  0  0  0  0  0  0  0
   21.2295   -9.0195  -15.2003 C   0  0  2  0  0  0  0  0  0  0  0  0
   21.4178   -9.8045  -16.3799 N   0  0  0  0  0  0  0  0  0  0  0  0
   21.8408   -7.6859  -15.4293 C   0  0  0  0  0  0  0  0  0  0  0  0
   22.7933   -7.5175  -16.2343 O   0  0  0  0  0  0  0  0  0  0  0  0
   21.3190   -6.6112  -14.7143 O   0  0  0  0  0  0  0  0  0  0  0  0
  2  3  1  0
  2  1  1  6
  4  2  1  0
  4  5  1  1
  6  4  1  0
  7  6  2  0
  8  6  1  0
  8 12  1  0
  9 10  1  0
  9  8  1  0
 10 11  1  0
 11 12  1  0
 12 13  1  1
 13 19  1  0
 13 14  2  0
 16 18  1  0
 16 15  1  1
 17 16  1  0
 18 20  1  0
 18 19  1  6
 20 22  1  0
 21 20  2  0
M  END
$$$$
