TPV.pdb
     RDKit          3D

 22 22  0  0  1  0  0  0  0  0999 V2000
   15.2905   -7.8357  -16.9770 C   0  0  0  0  0  0  0  0  0  0  0  0
   15.3576   -9.3011  -16.6090 C   0  0  1  0  0  0  0  0  0  0  0  0
   14.1994   -9.9581  -16.9540 O   0  0  0  0  0  0  0  0  0  0  0  0
   16.5928   -9.9358  -17.2604 C   0  0  2  0  0  0  0  0  0  0  0  0
   16.5300  -11.3372  -17.1427 N   0  0  0  0  0  0  0  0  0  0  0  0
   17.8330   -9.3548  -16.7061 C   0  0  0  0  0  0  0  0  0  0  0  0
   17.8155   -9.3410  -15.4092 O   0  0  0  0  0  0  0  0  0  0  0  0
   18.9402   -8.8570  -17.3678 N   0  0  0  0  0  0  0  0  0  0  0  0
   19.3936   -9.2582  -18.7013 C   0  0  0  0  0  0  0  0  0  0  0  0
   19.5906   -7.8796  -19.3583 C   0  0  0  0  0  0  0  0  0  0  0  0
   19.6003   -6.8686  -18.2035 C   0  0  0  0  0  0  0  0  0  0  0  0
   19.8792   -7.8431  -17.0379 C   0  0  1  0  0  0  0  0  0  0  0  0
   19.9467   -7.2335  -15.7537 C   0  0  0  0  0  0  0  0  0  0  0  0
   19.0632   -6.5609  -15.2148 O   0  0  0  0  0  0  0  0  0  0  0  0
   23.0049   -8.6322  -13.1031 C   0  0  0  0  0  0  0  0  0  0  0  0
   21.7577   -7.9177  -12.6693 C   0  0  2  0  0  0  0  0  0  0  0  0
   20.6487   -8.8904  -12.3656 C   0  0  0  0  0  0  0  0  0  0  0  0
   21.3102   -6.8819  -13.6759 C   0  0  2  0  0  0  0  0  0  0  0  0
   21.1503   -7.4057  -14.9962 N   0  0  0  0  0  0  0  0  0  0  0  0
   22.3169   -5.7917  -13.7292 C   0  0  0  0  0  0  0  0  0  0  0  0
   22.4777   -4.9846  -12.7772 O   0  0  0  0  0  0  0  0  0  0  0  0
   23.0891   -5.6891  -14.8832 O   0  0  0  0  0  0  0  0  0  0  0  0
  2  3  1  0
  2  1  1  6
  4  2  1  0
  4  5  1  1
  6  4  1  0
  7  6  2  0
  8  6  1  0
  8 12  1  0
  9 10  1  0
  9  8  1  0
 10 11  1  0
 11 12  1  0
 12 13  1  1
 13 19  1  0
 13 14  2  0
 16 18  1  0
 16 15  1  6
 17 16  1  0
 18 20  1  0
 18 19  1  6
 20 22  1  0
 21 20  2  0
M  END
$$$$
