TPV.pdb
     RDKit          3D

 22 22  0  0  1  0  0  0  0  0999 V2000
   25.7216  -24.2430  -17.3659 C   0  0  0  0  0  0  0  0  0  0  0  0
   27.2245  -24.1027  -17.4598 C   0  0  1  0  0  0  0  0  0  0  0  0
   27.7338  -24.8498  -18.4964 O   0  0  0  0  0  0  0  0  0  0  0  0
   27.5926  -22.6191  -17.5873 C   0  0  2  0  0  0  0  0  0  0  0  0
   28.9502  -22.4904  -17.9365 N   0  0  0  0  0  0  0  0  0  0  0  0
   27.2298  -21.8829  -16.3587 C   0  0  0  0  0  0  0  0  0  0  0  0
   27.7767  -22.4100  -15.3073 O   0  0  0  0  0  0  0  0  0  0  0  0
   26.4267  -20.7673  -16.2098 N   0  0  0  0  0  0  0  0  0  0  0  0
   26.3995  -19.6059  -17.1016 C   0  0  0  0  0  0  0  0  0  0  0  0
   24.8839  -19.4655  -17.3346 C   0  0  0  0  0  0  0  0  0  0  0  0
   24.2171  -20.3151  -16.2441 C   0  0  0  0  0  0  0  0  0  0  0  0
   25.4122  -20.4339  -15.2727 C   0  0  1  0  0  0  0  0  0  0  0  0
   25.1545  -21.1987  -14.1004 C   0  0  0  0  0  0  0  0  0  0  0  0
   24.8447  -22.3926  -14.0581 O   0  0  0  0  0  0  0  0  0  0  0  0
   24.9040  -21.2082   -9.1290 C   0  0  0  0  0  0  0  0  0  0  0  0
   25.4644  -20.6078  -10.3859 C   0  0  2  0  0  0  0  0  0  0  0  0
   25.4573  -19.1031  -10.3224 C   0  0  0  0  0  0  0  0  0  0  0  0
   24.7522  -21.1019  -11.6248 C   0  0  2  0  0  0  0  0  0  0  0  0
   25.2597  -20.5355  -12.8350 N   0  0  0  0  0  0  0  0  0  0  0  0
   23.3106  -20.7611  -11.5231 C   0  0  0  0  0  0  0  0  0  0  0  0
   22.8287  -19.7307  -12.0613 O   0  0  0  0  0  0  0  0  0  0  0  0
   22.4964  -21.6308  -10.8026 O   0  0  0  0  0  0  0  0  0  0  0  0
  2  3  1  0
  2  1  1  6
  4  2  1  0
  4  5  1  1
  6  4  1  0
  7  6  2  0
  8  6  1  0
  8 12  1  0
  9 10  1  0
  9  8  1  0
 10 11  1  0
 11 12  1  0
 12 13  1  1
 13 19  1  0
 13 14  2  0
 16 18  1  0
 16 15  1  1
 17 16  1  0
 18 20  1  0
 18 19  1  6
 20 22  1  0
 21 20  2  0
M  END
$$$$
