PIP.pdb
     RDKit          3D

 23 24  0  0  1  0  0  0  0  0999 V2000
    7.3159  -16.0917   21.2099 N   0  0  0  0  0  0  0  0  0  0  0  0
    7.0508  -16.2008   19.7794 C   0  0  0  0  0  0  0  0  0  0  0  0
    7.5557  -14.9043   19.1712 C   0  0  0  0  0  0  0  0  0  0  0  0
    8.2240  -14.1761   20.3257 C   0  0  0  0  0  0  0  0  0  0  0  0
    8.5538  -15.3611   21.2431 C   0  0  1  0  0  0  0  0  0  0  0  0
    8.9374  -14.9218   22.5905 C   0  0  0  0  0  0  0  0  0  0  0  0
   10.0595  -14.4071   22.7934 O   0  0  0  0  0  0  0  0  0  0  0  0
    5.8344  -12.1466   26.8509 C   0  0  0  0  0  0  0  0  0  0  0  0
    7.1295  -12.8273   26.5409 C   0  0  0  0  0  0  0  0  0  0  0  0
    7.0273  -13.7646   25.3967 C   0  0  2  0  0  0  0  0  0  0  0  0
    5.9961  -14.8238   25.7484 C   0  0  0  0  0  0  0  0  0  0  0  0
    8.3356  -14.3978   24.9670 C   0  0  2  0  0  0  0  0  0  0  0  0
    8.0703  -15.0543   23.7211 N   0  0  0  0  0  0  0  0  0  0  0  0
    8.9463  -15.2366   25.9537 C   0  0  0  0  0  0  0  0  0  0  0  0
    8.7645  -16.5098   25.8045 O   0  0  0  0  0  0  0  0  0  0  0  0
    9.7034  -14.8583   27.0439 N   0  0  0  0  0  0  0  0  0  0  0  0
    9.7186  -13.5929   27.7168 C   0  0  0  0  0  0  0  0  0  0  0  0
   10.4033  -13.8686   29.0647 C   0  0  0  0  0  0  0  0  0  0  0  0
   11.4572  -14.8607   28.6055 C   0  0  0  0  0  0  0  0  0  0  0  0
   10.6506  -15.7575   27.7229 C   0  0  1  0  0  0  0  0  0  0  0  0
    9.9054  -16.6973   28.5685 C   0  0  0  0  0  0  0  0  0  0  0  0
   10.5312  -17.7219   29.2620 O   0  0  0  0  0  0  0  0  0  0  0  0
    8.6595  -16.5899   28.6831 O   0  0  0  0  0  0  0  0  0  0  0  0
  2  3  1  0
  2  1  1  0
  3  4  1  0
  5  1  1  0
  5  4  1  0
  5  6  1  1
  6  7  2  0
  8  9  1  0
  9 10  1  0
 10 11  1  1
 10 12  1  0
 12 14  1  0
 13  6  1  0
 12 13  1  6
 14 16  1  0
 14 15  2  0
 16 17  1  0
 17 18  1  0
 19 18  1  0
 20 16  1  0
 20 19  1  0
 20 21  1  1
 22 21  1  0
 23 21  2  0
M  END
$$$$
