PIP.pdb
     RDKit          3D

 23 24  0  0  1  0  0  0  0  0999 V2000
    7.4743  -16.0782   21.1305 N   0  0  0  0  0  0  0  0  0  0  0  0
    7.2945  -16.1924   19.6871 C   0  0  0  0  0  0  0  0  0  0  0  0
    7.8324  -14.8970   19.1056 C   0  0  0  0  0  0  0  0  0  0  0  0
    8.4299  -14.1638   20.2954 C   0  0  0  0  0  0  0  0  0  0  0  0
    8.7069  -15.3453   21.2345 C   0  0  1  0  0  0  0  0  0  0  0  0
    9.0092  -14.9009   22.6008 C   0  0  0  0  0  0  0  0  0  0  0  0
   10.1107  -14.3699   22.8650 O   0  0  0  0  0  0  0  0  0  0  0  0
    5.6128  -12.1649   26.5155 C   0  0  0  0  0  0  0  0  0  0  0  0
    6.9614  -12.5904   26.0288 C   0  0  0  0  0  0  0  0  0  0  0  0
    6.9576  -13.9513   25.4405 C   0  0  2  0  0  0  0  0  0  0  0  0
    6.3527  -14.9017   26.4602 C   0  0  0  0  0  0  0  0  0  0  0  0
    8.3081  -14.4486   24.9648 C   0  0  2  0  0  0  0  0  0  0  0  0
    8.0832  -15.0466   23.6820 N   0  0  0  0  0  0  0  0  0  0  0  0
    8.9952  -15.2940   25.8938 C   0  0  0  0  0  0  0  0  0  0  0  0
    8.9783  -16.5606   25.6253 O   0  0  0  0  0  0  0  0  0  0  0  0
    9.6720  -14.9286   27.0398 N   0  0  0  0  0  0  0  0  0  0  0  0
    9.5924  -13.6923   27.7605 C   0  0  0  0  0  0  0  0  0  0  0  0
   10.2120  -13.9933   29.1342 C   0  0  0  0  0  0  0  0  0  0  0  0
   11.3336  -14.9198   28.6990 C   0  0  0  0  0  0  0  0  0  0  0  0
   10.6191  -15.8135   27.7375 C   0  0  1  0  0  0  0  0  0  0  0  0
    9.8708  -16.8181   28.5017 C   0  0  0  0  0  0  0  0  0  0  0  0
   10.4963  -17.8839   29.1303 O   0  0  0  0  0  0  0  0  0  0  0  0
    8.6222  -16.7306   28.6038 O   0  0  0  0  0  0  0  0  0  0  0  0
  2  3  1  0
  2  1  1  0
  3  4  1  0
  5  1  1  0
  5  4  1  0
  5  6  1  1
  6  7  2  0
  8  9  1  0
  9 10  1  0
 10 11  1  1
 10 12  1  0
 12 14  1  0
 13  6  1  0
 12 13  1  6
 14 16  1  0
 14 15  2  0
 16 17  1  0
 17 18  1  0
 19 18  1  0
 20 16  1  0
 20 19  1  0
 20 21  1  1
 22 21  1  0
 23 21  2  0
M  END
$$$$
