PIP.pdb
     RDKit          3D

 23 24  0  0  1  0  0  0  0  0999 V2000
    7.4488  -16.3122   21.2814 N   0  0  0  0  0  0  0  0  0  0  0  0
    7.2132  -16.4928   19.8530 C   0  0  0  0  0  0  0  0  0  0  0  0
    7.7261  -15.2257   19.1919 C   0  0  0  0  0  0  0  0  0  0  0  0
    8.3683  -14.4387   20.3224 C   0  0  0  0  0  0  0  0  0  0  0  0
    8.6834  -15.5756   21.3035 C   0  0  1  0  0  0  0  0  0  0  0  0
    9.0381  -15.0688   22.6350 C   0  0  0  0  0  0  0  0  0  0  0  0
   10.1377  -14.5034   22.8253 O   0  0  0  0  0  0  0  0  0  0  0  0
    5.8534  -12.1815   26.6276 C   0  0  0  0  0  0  0  0  0  0  0  0
    7.1944  -12.7000   26.2156 C   0  0  0  0  0  0  0  0  0  0  0  0
    7.1154  -13.9994   25.5061 C   0  0  2  0  0  0  0  0  0  0  0  0
    6.4242  -14.9939   26.4237 C   0  0  0  0  0  0  0  0  0  0  0  0
    8.4415  -14.5426   25.0124 C   0  0  2  0  0  0  0  0  0  0  0  0
    8.1669  -15.1901   23.7638 N   0  0  0  0  0  0  0  0  0  0  0  0
    9.1411  -15.3611   25.9562 C   0  0  0  0  0  0  0  0  0  0  0  0
    9.0745  -16.6385   25.7558 O   0  0  0  0  0  0  0  0  0  0  0  0
    9.8763  -14.9594   27.0531 N   0  0  0  0  0  0  0  0  0  0  0  0
    9.8648  -13.6856   27.7101 C   0  0  0  0  0  0  0  0  0  0  0  0
   10.5320  -13.9356   29.0716 C   0  0  0  0  0  0  0  0  0  0  0  0
   11.6055  -14.9195   28.6411 C   0  0  0  0  0  0  0  0  0  0  0  0
   10.8243  -15.8377   27.7578 C   0  0  1  0  0  0  0  0  0  0  0  0
   10.0784  -16.7765   28.6036 C   0  0  0  0  0  0  0  0  0  0  0  0
   10.6975  -17.8261   29.2650 O   0  0  0  0  0  0  0  0  0  0  0  0
    8.8379  -16.6452   28.7483 O   0  0  0  0  0  0  0  0  0  0  0  0
  2  3  1  0
  2  1  1  0
  3  4  1  0
  5  1  1  0
  5  4  1  0
  5  6  1  1
  6  7  2  0
  8  9  1  0
  9 10  1  0
 10 11  1  1
 10 12  1  0
 12 14  1  0
 13  6  1  0
 12 13  1  6
 14 16  1  0
 14 15  2  0
 16 17  1  0
 17 18  1  0
 19 18  1  0
 20 16  1  0
 20 19  1  0
 20 21  1  1
 22 21  1  0
 23 21  2  0
M  END
$$$$
