PIP.pdb
     RDKit          3D

 23 24  0  0  1  0  0  0  0  0999 V2000
    7.4982  -16.5070   21.3299 N   0  0  0  0  0  0  0  0  0  0  0  0
    7.2471  -16.7274   19.9097 C   0  0  0  0  0  0  0  0  0  0  0  0
    7.6512  -15.4368   19.2192 C   0  0  0  0  0  0  0  0  0  0  0  0
    8.2567  -14.5865   20.3239 C   0  0  0  0  0  0  0  0  0  0  0  0
    8.6752  -15.6813   21.3143 C   0  0  1  0  0  0  0  0  0  0  0  0
    9.0189  -15.1283   22.6303 C   0  0  0  0  0  0  0  0  0  0  0  0
   10.1350  -14.5968   22.8222 O   0  0  0  0  0  0  0  0  0  0  0  0
    5.8641  -12.1553   26.7565 C   0  0  0  0  0  0  0  0  0  0  0  0
    7.1577  -12.8567   26.4895 C   0  0  0  0  0  0  0  0  0  0  0  0
    7.0650  -13.8295   25.3744 C   0  0  2  0  0  0  0  0  0  0  0  0
    6.0490  -14.8912   25.7609 C   0  0  0  0  0  0  0  0  0  0  0  0
    8.3806  -14.4580   24.9601 C   0  0  2  0  0  0  0  0  0  0  0  0
    8.1181  -15.1653   23.7417 N   0  0  0  0  0  0  0  0  0  0  0  0
    9.0106  -15.2492   25.9736 C   0  0  0  0  0  0  0  0  0  0  0  0
    8.8655  -16.5310   25.8621 O   0  0  0  0  0  0  0  0  0  0  0  0
    9.7520  -14.8171   27.0545 N   0  0  0  0  0  0  0  0  0  0  0  0
    9.7264  -13.5332   27.6911 C   0  0  0  0  0  0  0  0  0  0  0  0
   10.4145  -13.7495   29.0480 C   0  0  0  0  0  0  0  0  0  0  0  0
   11.4997  -14.7216   28.6200 C   0  0  0  0  0  0  0  0  0  0  0  0
   10.7238  -15.6673   27.7614 C   0  0  1  0  0  0  0  0  0  0  0  0
   10.0047  -16.6050   28.6314 C   0  0  0  0  0  0  0  0  0  0  0  0
    8.6306  -16.5441   28.8061 O   0  0  0  0  0  0  0  0  0  0  0  0
   10.6330  -17.5004   29.2482 O   0  0  0  0  0  0  0  0  0  0  0  0
  2  3  1  0
  2  1  1  0
  3  4  1  0
  5  1  1  0
  5  4  1  0
  5  6  1  1
  6  7  2  0
  8  9  1  0
  9 10  1  0
 10 11  1  1
 10 12  1  0
 12 14  1  0
 13  6  1  0
 12 13  1  6
 14 16  1  0
 14 15  2  0
 16 17  1  0
 17 18  1  0
 19 18  1  0
 20 16  1  0
 20 19  1  0
 20 21  1  1
 22 21  1  0
 23 21  2  0
M  END
$$$$
