PIP.pdb
     RDKit          3D

 23 24  0  0  1  0  0  0  0  0999 V2000
    7.3236  -16.0349   21.2727 N   0  0  0  0  0  0  0  0  0  0  0  0
    7.0896  -16.1747   19.8394 C   0  0  0  0  0  0  0  0  0  0  0  0
    7.6923  -14.9337   19.2050 C   0  0  0  0  0  0  0  0  0  0  0  0
    8.3754  -14.2111   20.3545 C   0  0  0  0  0  0  0  0  0  0  0  0
    8.6045  -15.3833   21.3177 C   0  0  1  0  0  0  0  0  0  0  0  0
    8.9801  -14.9245   22.6609 C   0  0  0  0  0  0  0  0  0  0  0  0
   10.0869  -14.3749   22.8560 O   0  0  0  0  0  0  0  0  0  0  0  0
    5.4420  -12.1967   25.7224 C   0  0  0  0  0  0  0  0  0  0  0  0
    6.7645  -12.6416   25.1840 C   0  0  0  0  0  0  0  0  0  0  0  0
    7.1502  -13.9947   25.6518 C   0  0  2  0  0  0  0  0  0  0  0  0
    7.1917  -13.9720   27.1706 C   0  0  0  0  0  0  0  0  0  0  0  0
    8.4486  -14.5261   25.0782 C   0  0  2  0  0  0  0  0  0  0  0  0
    8.1219  -15.0763   23.7959 N   0  0  0  0  0  0  0  0  0  0  0  0
    9.1590  -15.4239   25.9380 C   0  0  0  0  0  0  0  0  0  0  0  0
    9.0312  -16.6841   25.6696 O   0  0  0  0  0  0  0  0  0  0  0  0
    9.9619  -15.1147   27.0172 N   0  0  0  0  0  0  0  0  0  0  0  0
   10.0651  -13.8683   27.7174 C   0  0  0  0  0  0  0  0  0  0  0  0
   10.7645  -14.2139   29.0413 C   0  0  0  0  0  0  0  0  0  0  0  0
   11.7490  -15.2528   28.5342 C   0  0  0  0  0  0  0  0  0  0  0  0
   10.8720  -16.0817   27.6524 C   0  0  1  0  0  0  0  0  0  0  0  0
   10.0947  -16.9975   28.4951 C   0  0  0  0  0  0  0  0  0  0  0  0
   10.6722  -18.0870   29.1290 O   0  0  0  0  0  0  0  0  0  0  0  0
    8.8645  -16.8087   28.6626 O   0  0  0  0  0  0  0  0  0  0  0  0
  2  3  1  0
  2  1  1  0
  3  4  1  0
  5  1  1  0
  5  4  1  0
  5  6  1  1
  6  7  2  0
  8  9  1  0
  9 10  1  0
 10 11  1  1
 10 12  1  0
 12 14  1  0
 13  6  1  0
 12 13  1  6
 14 16  1  0
 14 15  2  0
 16 17  1  0
 17 18  1  0
 19 18  1  0
 20 16  1  0
 20 19  1  0
 20 21  1  1
 22 21  1  0
 23 21  2  0
M  END
$$$$
