PIP.pdb
     RDKit          3D

 23 24  0  0  1  0  0  0  0  0999 V2000
    9.1865  -15.1379   20.4201 N   0  0  0  0  0  0  0  0  0  0  0  0
    8.7974  -16.0509   19.3507 C   0  0  0  0  0  0  0  0  0  0  0  0
    8.6024  -17.4008   20.0181 C   0  0  0  0  0  0  0  0  0  0  0  0
    8.7679  -17.1200   21.5026 C   0  0  0  0  0  0  0  0  0  0  0  0
    8.4253  -15.6247   21.5385 C   0  0  1  0  0  0  0  0  0  0  0  0
    8.8020  -15.0060   22.8157 C   0  0  0  0  0  0  0  0  0  0  0  0
    9.9800  -14.6363   23.0173 O   0  0  0  0  0  0  0  0  0  0  0  0
    5.3996  -11.8283   25.8675 C   0  0  0  0  0  0  0  0  0  0  0  0
    6.6301  -12.3844   25.2247 C   0  0  0  0  0  0  0  0  0  0  0  0
    7.0306  -13.6961   25.7880 C   0  0  2  0  0  0  0  0  0  0  0  0
    7.1993  -13.5303   27.2890 C   0  0  0  0  0  0  0  0  0  0  0  0
    8.2672  -14.3117   25.1644 C   0  0  2  0  0  0  0  0  0  0  0  0
    7.8653  -14.7959   23.8769 N   0  0  0  0  0  0  0  0  0  0  0  0
    8.9249  -15.2882   25.9793 C   0  0  0  0  0  0  0  0  0  0  0  0
    8.5701  -16.5182   25.7853 O   0  0  0  0  0  0  0  0  0  0  0  0
    9.8885  -15.0829   26.9458 N   0  0  0  0  0  0  0  0  0  0  0  0
   10.2451  -13.8562   27.5958 C   0  0  0  0  0  0  0  0  0  0  0  0
   11.0479  -14.2828   28.8348 C   0  0  0  0  0  0  0  0  0  0  0  0
   11.8124  -15.4524   28.2403 C   0  0  0  0  0  0  0  0  0  0  0  0
   10.7296  -16.1603   27.4921 C   0  0  1  0  0  0  0  0  0  0  0  0
    9.9441  -16.9522   28.4456 C   0  0  0  0  0  0  0  0  0  0  0  0
   10.4444  -18.1007   29.0397 O   0  0  0  0  0  0  0  0  0  0  0  0
    8.7782  -16.5978   28.7490 O   0  0  0  0  0  0  0  0  0  0  0  0
  2  3  1  0
  2  1  1  0
  3  4  1  0
  5  1  1  0
  5  4  1  0
  5  6  1  1
  6  7  2  0
  8  9  1  0
  9 10  1  0
 10 11  1  1
 10 12  1  0
 12 14  1  0
 13  6  1  0
 12 13  1  6
 14 16  1  0
 14 15  2  0
 16 17  1  0
 17 18  1  0
 19 18  1  0
 20 16  1  0
 20 19  1  0
 20 21  1  1
 22 21  1  0
 23 21  2  0
M  END
$$$$
