IPA.pdb
     RDKit          3D

 21 21  0  0  1  0  0  0  0  0999 V2000
    6.6887  -11.6351   27.4549 C   0  0  0  0  0  0  0  0  0  0  0  0
    5.9745  -12.7821   26.7361 C   0  0  0  0  0  0  0  0  0  0  0  0
    6.9994  -13.6009   26.0290 C   0  0  2  0  0  0  0  0  0  0  0  0
    7.8722  -12.8153   25.1052 C   0  0  0  0  0  0  0  0  0  0  0  0
    6.4251  -14.8612   25.3866 C   0  0  2  0  0  0  0  0  0  0  0  0
    5.7888  -15.6199   26.4313 N   0  0  0  0  0  0  0  0  0  0  0  0
    7.4051  -15.6746   24.6872 C   0  0  0  0  0  0  0  0  0  0  0  0
    7.8388  -16.7046   25.3137 O   0  0  0  0  0  0  0  0  0  0  0  0
    7.8954  -15.4034   23.3890 N   0  0  0  0  0  0  0  0  0  0  0  0
    7.5227  -14.1314   22.7270 C   0  0  0  0  0  0  0  0  0  0  0  0
    7.7554  -14.3313   21.2688 C   0  0  0  0  0  0  0  0  0  0  0  0
    8.0853  -15.7756   21.1121 C   0  0  0  0  0  0  0  0  0  0  0  0
    8.7339  -16.0727   22.4701 C   0  0  1  0  0  0  0  0  0  0  0  0
   10.1237  -15.6082   22.3731 C   0  0  0  0  0  0  0  0  0  0  0  0
   10.2833  -14.3616   22.5981 O   0  0  0  0  0  0  0  0  0  0  0  0
   11.9711  -16.8808   24.3476 C   0  0  0  0  0  0  0  0  0  0  0  0
   12.3802  -16.3596   22.9701 C   0  0  2  0  0  0  0  0  0  0  0  0
   11.2579  -16.3698   22.0683 N   0  0  0  0  0  0  0  0  0  0  0  0
   13.5000  -17.1937   22.5255 C   0  0  0  0  0  0  0  0  0  0  0  0
   13.3309  -18.0763   21.4781 O   0  0  0  0  0  0  0  0  0  0  0  0
   14.6194  -17.1267   23.0766 O   0  0  0  0  0  0  0  0  0  0  0  0
  2  1  1  0
  3  2  1  0
  3  4  1  6
  5  3  1  0
  5  6  1  1
  7  5  1  0
  7  9  1  0
  8  7  2  0
  9 13  1  0
 10  9  1  0
 10 11  1  0
 11 12  1  0
 13 12  1  0
 13 14  1  6
 14 18  1  0
 15 14  2  0
 17 18  1  0
 17 19  1  0
 17 16  1  1
 19 20  1  0
 21 19  2  0
M  END
$$$$
