IPA.pdb
     RDKit          3D

 21 21  0  0  1  0  0  0  0  0999 V2000
    6.7704  -11.1883   27.2870 C   0  0  0  0  0  0  0  0  0  0  0  0
    5.9498  -12.1177   26.3895 C   0  0  0  0  0  0  0  0  0  0  0  0
    6.8356  -13.2235   25.9276 C   0  0  2  0  0  0  0  0  0  0  0  0
    8.0718  -12.7593   25.2287 C   0  0  0  0  0  0  0  0  0  0  0  0
    6.0885  -14.3154   25.1657 C   0  0  2  0  0  0  0  0  0  0  0  0
    5.1228  -14.8817   26.0705 N   0  0  0  0  0  0  0  0  0  0  0  0
    6.9448  -15.3526   24.6158 C   0  0  0  0  0  0  0  0  0  0  0  0
    6.9778  -16.4608   25.2579 O   0  0  0  0  0  0  0  0  0  0  0  0
    7.7235  -15.2143   23.4438 N   0  0  0  0  0  0  0  0  0  0  0  0
    7.8835  -13.8722   22.8367 C   0  0  0  0  0  0  0  0  0  0  0  0
    8.3074  -14.0958   21.4258 C   0  0  0  0  0  0  0  0  0  0  0  0
    8.2052  -15.5659   21.2070 C   0  0  0  0  0  0  0  0  0  0  0  0
    8.4722  -16.0881   22.6245 C   0  0  1  0  0  0  0  0  0  0  0  0
    9.9305  -16.0811   22.7979 C   0  0  0  0  0  0  0  0  0  0  0  0
   10.4693  -14.9267   22.7134 O   0  0  0  0  0  0  0  0  0  0  0  0
   11.9991  -18.1532   24.9084 C   0  0  0  0  0  0  0  0  0  0  0  0
   11.9171  -17.0175   23.8886 C   0  0  2  0  0  0  0  0  0  0  0  0
   10.7656  -17.1783   23.0395 N   0  0  0  0  0  0  0  0  0  0  0  0
   13.1893  -17.0187   23.1614 C   0  0  0  0  0  0  0  0  0  0  0  0
   13.2071  -17.2471   21.8005 O   0  0  0  0  0  0  0  0  0  0  0  0
   14.2737  -16.8156   23.7482 O   0  0  0  0  0  0  0  0  0  0  0  0
  2  1  1  0
  3  2  1  0
  3  4  1  6
  5  3  1  0
  5  6  1  1
  7  5  1  0
  7  9  1  0
  8  7  2  0
  9 13  1  0
 10  9  1  0
 10 11  1  0
 11 12  1  0
 13 12  1  0
 13 14  1  1
 14 18  1  0
 15 14  2  0
 17 18  1  0
 17 19  1  0
 17 16  1  1
 19 20  1  0
 21 19  2  0
M  END
$$$$
