IPA.pdb
     RDKit          3D

 21 21  0  0  1  0  0  0  0  0999 V2000
    7.1511  -11.8173   27.3566 C   0  0  0  0  0  0  0  0  0  0  0  0
    6.2523  -12.8351   26.6503 C   0  0  0  0  0  0  0  0  0  0  0  0
    7.1228  -13.8046   25.9269 C   0  0  2  0  0  0  0  0  0  0  0  0
    8.1441  -13.1628   25.0454 C   0  0  0  0  0  0  0  0  0  0  0  0
    6.3390  -14.9139   25.2296 C   0  0  2  0  0  0  0  0  0  0  0  0
    5.5874  -15.6064   26.2433 N   0  0  0  0  0  0  0  0  0  0  0  0
    7.1627  -15.8448   24.4772 C   0  0  0  0  0  0  0  0  0  0  0  0
    7.4193  -16.9635   25.0464 O   0  0  0  0  0  0  0  0  0  0  0  0
    7.6840  -15.5950   23.1869 N   0  0  0  0  0  0  0  0  0  0  0  0
    7.6422  -14.2167   22.6450 C   0  0  0  0  0  0  0  0  0  0  0  0
    7.7900  -14.3402   21.1674 C   0  0  0  0  0  0  0  0  0  0  0  0
    7.7318  -15.8012   20.8816 C   0  0  0  0  0  0  0  0  0  0  0  0
    8.3046  -16.3733   22.1846 C   0  0  1  0  0  0  0  0  0  0  0  0
    9.7654  -16.2742   22.0706 C   0  0  0  0  0  0  0  0  0  0  0  0
   10.2371  -15.1089   22.2937 O   0  0  0  0  0  0  0  0  0  0  0  0
   12.0753  -19.0128   22.7700 C   0  0  0  0  0  0  0  0  0  0  0  0
   11.8131  -17.5171   22.5950 C   0  0  2  0  0  0  0  0  0  0  0  0
   10.6670  -17.2965   21.7521 N   0  0  0  0  0  0  0  0  0  0  0  0
   13.0513  -16.9365   22.0684 C   0  0  0  0  0  0  0  0  0  0  0  0
   13.0600  -16.3392   20.8244 O   0  0  0  0  0  0  0  0  0  0  0  0
   14.1144  -16.9681   22.7244 O   0  0  0  0  0  0  0  0  0  0  0  0
  2  1  1  0
  3  2  1  0
  3  4  1  6
  5  3  1  0
  5  6  1  1
  7  5  1  0
  7  9  1  0
  8  7  2  0
  9 13  1  0
 10  9  1  0
 10 11  1  0
 11 12  1  0
 13 12  1  0
 13 14  1  6
 14 18  1  0
 15 14  2  0
 17 18  1  0
 17 19  1  0
 17 16  1  6
 19 20  1  0
 21 19  2  0
M  END
$$$$
