IPA.pdb
     RDKit          3D

 21 21  0  0  1  0  0  0  0  0999 V2000
    7.0057  -11.2957   27.4723 C   0  0  0  0  0  0  0  0  0  0  0  0
    6.1052  -12.1207   26.5497 C   0  0  0  0  0  0  0  0  0  0  0  0
    6.8938  -13.2775   26.0390 C   0  0  2  0  0  0  0  0  0  0  0  0
    8.1887  -12.8945   25.3995 C   0  0  0  0  0  0  0  0  0  0  0  0
    6.0677  -14.2427   25.1922 C   0  0  2  0  0  0  0  0  0  0  0  0
    4.9990  -14.7312   26.0235 N   0  0  0  0  0  0  0  0  0  0  0  0
    6.8280  -15.3478   24.6336 C   0  0  0  0  0  0  0  0  0  0  0  0
    6.7623  -16.4594   25.2671 O   0  0  0  0  0  0  0  0  0  0  0  0
    7.6156  -15.2704   23.4618 N   0  0  0  0  0  0  0  0  0  0  0  0
    7.8985  -13.9429   22.8677 C   0  0  0  0  0  0  0  0  0  0  0  0
    8.2992  -14.1908   21.4540 C   0  0  0  0  0  0  0  0  0  0  0  0
    8.0614  -15.6429   21.2210 C   0  0  0  0  0  0  0  0  0  0  0  0
    8.2799  -16.2015   22.6329 C   0  0  1  0  0  0  0  0  0  0  0  0
    9.7326  -16.3310   22.8042 C   0  0  0  0  0  0  0  0  0  0  0  0
   10.3590  -15.2210   22.8798 O   0  0  0  0  0  0  0  0  0  0  0  0
   12.0292  -18.8846   24.1862 C   0  0  0  0  0  0  0  0  0  0  0  0
   11.7341  -17.5058   23.5961 C   0  0  2  0  0  0  0  0  0  0  0  0
   10.4790  -17.5121   22.8908 N   0  0  0  0  0  0  0  0  0  0  0  0
   12.8814  -17.1602   22.7524 C   0  0  0  0  0  0  0  0  0  0  0  0
   14.1175  -16.9375   23.3243 O   0  0  0  0  0  0  0  0  0  0  0  0
   12.7693  -17.0604   21.5119 O   0  0  0  0  0  0  0  0  0  0  0  0
  2  1  1  0
  3  2  1  0
  3  4  1  6
  5  3  1  0
  5  6  1  1
  7  5  1  0
  7  9  1  0
  8  7  2  0
  9 13  1  0
 10  9  1  0
 10 11  1  0
 11 12  1  0
 13 12  1  0
 13 14  1  1
 14 18  1  0
 15 14  2  0
 17 18  1  0
 17 19  1  0
 17 16  1  6
 19 20  1  0
 21 19  2  0
M  END
$$$$
