IPA.pdb
     RDKit          3D

 21 21  0  0  1  0  0  0  0  0999 V2000
    6.6657  -11.4771   27.3402 C   0  0  0  0  0  0  0  0  0  0  0  0
    5.9176  -12.6124   26.6374 C   0  0  0  0  0  0  0  0  0  0  0  0
    6.9204  -13.4924   25.9735 C   0  0  2  0  0  0  0  0  0  0  0  0
    7.9118  -12.7561   25.1327 C   0  0  0  0  0  0  0  0  0  0  0  0
    6.2937  -14.6862   25.2571 C   0  0  2  0  0  0  0  0  0  0  0  0
    5.4934  -15.3910   26.2239 N   0  0  0  0  0  0  0  0  0  0  0  0
    7.2549  -15.5822   24.6370 C   0  0  0  0  0  0  0  0  0  0  0  0
    7.5952  -16.6108   25.3209 O   0  0  0  0  0  0  0  0  0  0  0  0
    7.8217  -15.3908   23.3559 N   0  0  0  0  0  0  0  0  0  0  0  0
    7.5414  -14.1346   22.6220 C   0  0  0  0  0  0  0  0  0  0  0  0
    7.8378  -14.4093   21.1878 C   0  0  0  0  0  0  0  0  0  0  0  0
    8.1088  -15.8722   21.1098 C   0  0  0  0  0  0  0  0  0  0  0  0
    8.6739  -16.1363   22.5113 C   0  0  1  0  0  0  0  0  0  0  0  0
   10.0866  -15.7374   22.4674 C   0  0  0  0  0  0  0  0  0  0  0  0
   10.3004  -14.5104   22.7481 O   0  0  0  0  0  0  0  0  0  0  0  0
   11.6407  -17.4042   24.3987 C   0  0  0  0  0  0  0  0  0  0  0  0
   12.2175  -16.7425   23.1473 C   0  0  2  0  0  0  0  0  0  0  0  0
   11.1903  -16.5412   22.1587 N   0  0  0  0  0  0  0  0  0  0  0  0
   13.3136  -17.6011   22.6904 C   0  0  0  0  0  0  0  0  0  0  0  0
   13.0569  -18.8985   22.2962 O   0  0  0  0  0  0  0  0  0  0  0  0
   14.4909  -17.1846   22.6475 O   0  0  0  0  0  0  0  0  0  0  0  0
  2  1  1  0
  3  2  1  0
  3  4  1  6
  5  3  1  0
  5  6  1  1
  7  5  1  0
  7  9  1  0
  8  7  2  0
  9 13  1  0
 10  9  1  0
 10 11  1  0
 11 12  1  0
 13 12  1  0
 13 14  1  6
 14 18  1  0
 15 14  2  0
 17 18  1  0
 17 19  1  0
 17 16  1  1
 19 20  1  0
 21 19  2  0
M  END
$$$$
