IPA.pdb
     RDKit          3D

 21 21  0  0  1  0  0  0  0  0999 V2000
    6.9260  -11.8165   27.4014 C   0  0  0  0  0  0  0  0  0  0  0  0
    6.0473  -12.7743   26.5932 C   0  0  0  0  0  0  0  0  0  0  0  0
    6.9314  -13.7782   25.9365 C   0  0  2  0  0  0  0  0  0  0  0  0
    8.1016  -13.1824   25.2238 C   0  0  0  0  0  0  0  0  0  0  0  0
    6.1660  -14.7934   25.0912 C   0  0  2  0  0  0  0  0  0  0  0  0
    5.2482  -15.4721   25.9679 N   0  0  0  0  0  0  0  0  0  0  0  0
    7.0110  -15.7489   24.3952 C   0  0  0  0  0  0  0  0  0  0  0  0
    7.0977  -16.9156   24.9175 O   0  0  0  0  0  0  0  0  0  0  0  0
    7.7244  -15.4739   23.2058 N   0  0  0  0  0  0  0  0  0  0  0  0
    7.8588  -14.0699   22.7521 C   0  0  0  0  0  0  0  0  0  0  0  0
    8.2025  -14.1264   21.3032 C   0  0  0  0  0  0  0  0  0  0  0  0
    8.0792  -15.5608   20.9199 C   0  0  0  0  0  0  0  0  0  0  0  0
    8.4211  -16.2454   22.2494 C   0  0  1  0  0  0  0  0  0  0  0  0
    9.8867  -16.2584   22.3409 C   0  0  0  0  0  0  0  0  0  0  0  0
   10.4119  -15.1247   22.6038 O   0  0  0  0  0  0  0  0  0  0  0  0
   12.1763  -18.8311   23.4881 C   0  0  0  0  0  0  0  0  0  0  0  0
   11.9615  -17.4220   22.9361 C   0  0  2  0  0  0  0  0  0  0  0  0
   10.7417  -17.3542   22.1744 N   0  0  0  0  0  0  0  0  0  0  0  0
   13.1595  -17.0925   22.1591 C   0  0  0  0  0  0  0  0  0  0  0  0
   14.1747  -18.0182   22.0286 O   0  0  0  0  0  0  0  0  0  0  0  0
   13.2886  -15.9806   21.6038 O   0  0  0  0  0  0  0  0  0  0  0  0
  2  1  1  0
  3  2  1  0
  3  4  1  6
  5  3  1  0
  5  6  1  1
  7  5  1  0
  7  9  1  0
  8  7  2  0
  9 13  1  0
 10  9  1  0
 10 11  1  0
 11 12  1  0
 13 12  1  0
 13 14  1  1
 14 18  1  0
 15 14  2  0
 17 18  1  0
 17 19  1  0
 17 16  1  6
 19 20  1  0
 21 19  2  0
M  END
$$$$
