IPA.pdb
     RDKit          3D

 21 21  0  0  1  0  0  0  0  0999 V2000
    6.8135  -11.4549   27.4226 C   0  0  0  0  0  0  0  0  0  0  0  0
    6.0236  -12.5160   26.6526 C   0  0  0  0  0  0  0  0  0  0  0  0
    6.9941  -13.4524   26.0184 C   0  0  2  0  0  0  0  0  0  0  0  0
    8.0434  -12.7754   25.1982 C   0  0  0  0  0  0  0  0  0  0  0  0
    6.3223  -14.6160   25.2933 C   0  0  2  0  0  0  0  0  0  0  0  0
    5.5270  -15.3209   26.2642 N   0  0  0  0  0  0  0  0  0  0  0  0
    7.2470  -15.5222   24.6336 C   0  0  0  0  0  0  0  0  0  0  0  0
    7.5199  -16.6076   25.2572 O   0  0  0  0  0  0  0  0  0  0  0  0
    7.8474  -15.2827   23.3761 N   0  0  0  0  0  0  0  0  0  0  0  0
    7.6837  -13.9555   22.7382 C   0  0  0  0  0  0  0  0  0  0  0  0
    7.9783  -14.1449   21.2898 C   0  0  0  0  0  0  0  0  0  0  0  0
    8.1281  -15.6153   21.1025 C   0  0  0  0  0  0  0  0  0  0  0  0
    8.6477  -16.0311   22.4846 C   0  0  1  0  0  0  0  0  0  0  0  0
   10.0891  -15.7501   22.4842 C   0  0  0  0  0  0  0  0  0  0  0  0
   10.3894  -14.5175   22.6285 O   0  0  0  0  0  0  0  0  0  0  0  0
   11.3845  -17.2455   24.7062 C   0  0  0  0  0  0  0  0  0  0  0  0
   12.0873  -16.8232   23.4162 C   0  0  2  0  0  0  0  0  0  0  0  0
   11.1367  -16.6682   22.3461 N   0  0  0  0  0  0  0  0  0  0  0  0
   13.1127  -17.8358   23.1504 C   0  0  0  0  0  0  0  0  0  0  0  0
   14.2130  -17.9386   23.9770 O   0  0  0  0  0  0  0  0  0  0  0  0
   13.0164  -18.6197   22.1821 O   0  0  0  0  0  0  0  0  0  0  0  0
  2  1  1  0
  3  2  1  0
  3  4  1  6
  5  3  1  0
  5  6  1  1
  7  5  1  0
  7  9  1  0
  8  7  2  0
  9 13  1  0
 10  9  1  0
 10 11  1  0
 11 12  1  0
 13 12  1  0
 13 14  1  6
 14 18  1  0
 15 14  2  0
 17 18  1  0
 17 19  1  0
 17 16  1  1
 19 20  1  0
 21 19  2  0
M  END
$$$$
