IPA.pdb
     RDKit          3D

 21 21  0  0  1  0  0  0  0  0999 V2000
    6.5801  -11.4450   27.1568 C   0  0  0  0  0  0  0  0  0  0  0  0
    5.8255  -12.5442   26.4051 C   0  0  0  0  0  0  0  0  0  0  0  0
    6.8214  -13.5239   25.8862 C   0  0  2  0  0  0  0  0  0  0  0  0
    7.9575  -12.8991   25.1438 C   0  0  0  0  0  0  0  0  0  0  0  0
    6.1838  -14.6916   25.1373 C   0  0  2  0  0  0  0  0  0  0  0  0
    5.3046  -15.3605   26.0601 N   0  0  0  0  0  0  0  0  0  0  0  0
    7.1378  -15.6284   24.5684 C   0  0  0  0  0  0  0  0  0  0  0  0
    7.2776  -16.7418   25.1868 O   0  0  0  0  0  0  0  0  0  0  0  0
    7.9010  -15.3897   23.4024 N   0  0  0  0  0  0  0  0  0  0  0  0
    7.9325  -14.0251   22.8262 C   0  0  0  0  0  0  0  0  0  0  0  0
    8.3775  -14.1750   21.4120 C   0  0  0  0  0  0  0  0  0  0  0  0
    8.4166  -15.6428   21.1598 C   0  0  0  0  0  0  0  0  0  0  0  0
    8.7308  -16.1691   22.5661 C   0  0  1  0  0  0  0  0  0  0  0  0
   10.1815  -16.0266   22.7444 C   0  0  0  0  0  0  0  0  0  0  0  0
   10.5581  -14.8672   23.1240 O   0  0  0  0  0  0  0  0  0  0  0  0
   12.6265  -18.4142   23.9022 C   0  0  0  0  0  0  0  0  0  0  0  0
   12.3370  -17.0061   23.3826 C   0  0  2  0  0  0  0  0  0  0  0  0
   11.1648  -17.0032   22.5467 N   0  0  0  0  0  0  0  0  0  0  0  0
   13.5512  -16.5588   22.6948 C   0  0  0  0  0  0  0  0  0  0  0  0
   13.5368  -16.3543   21.3300 O   0  0  0  0  0  0  0  0  0  0  0  0
   14.6142  -16.3547   23.3191 O   0  0  0  0  0  0  0  0  0  0  0  0
  2  1  1  0
  3  2  1  0
  3  4  1  6
  5  3  1  0
  5  6  1  1
  7  5  1  0
  7  9  1  0
  8  7  2  0
  9 13  1  0
 10  9  1  0
 10 11  1  0
 11 12  1  0
 13 12  1  0
 13 14  1  1
 14 18  1  0
 15 14  2  0
 17 18  1  0
 17 19  1  0
 17 16  1  6
 19 20  1  0
 21 19  2  0
M  END
$$$$
