IPA.pdb
     RDKit          3D

 21 21  0  0  1  0  0  0  0  0999 V2000
    7.4948  -18.5726   20.8617 C   0  0  0  0  0  0  0  0  0  0  0  0
    7.6167  -17.0485   20.7907 C   0  0  0  0  0  0  0  0  0  0  0  0
    7.9321  -16.5407   22.1558 C   0  0  2  0  0  0  0  0  0  0  0  0
    6.9824  -17.0062   23.2110 C   0  0  0  0  0  0  0  0  0  0  0  0
    8.1836  -15.0353   22.1953 C   0  0  2  0  0  0  0  0  0  0  0  0
    8.9905  -14.7080   21.0491 N   0  0  0  0  0  0  0  0  0  0  0  0
    8.8157  -14.5674   23.4171 C   0  0  0  0  0  0  0  0  0  0  0  0
   10.0968  -14.5665   23.4289 O   0  0  0  0  0  0  0  0  0  0  0  0
    8.1178  -14.1240   24.5641 N   0  0  0  0  0  0  0  0  0  0  0  0
    6.6363  -14.1340   24.5573 C   0  0  0  0  0  0  0  0  0  0  0  0
    6.2037  -13.2018   25.6364 C   0  0  0  0  0  0  0  0  0  0  0  0
    7.4501  -12.5418   26.1164 C   0  0  0  0  0  0  0  0  0  0  0  0
    8.4837  -13.6411   25.8402 C   0  0  1  0  0  0  0  0  0  0  0  0
    8.3923  -14.5837   26.9626 C   0  0  0  0  0  0  0  0  0  0  0  0
    7.6464  -15.5969   26.7451 O   0  0  0  0  0  0  0  0  0  0  0  0
   11.0948  -14.2484   29.4771 C   0  0  0  0  0  0  0  0  0  0  0  0
   10.3567  -15.0006   28.3698 C   0  0  2  0  0  0  0  0  0  0  0  0
    9.0209  -14.4880   28.2097 N   0  0  0  0  0  0  0  0  0  0  0  0
   10.4030  -16.4204   28.7293 C   0  0  0  0  0  0  0  0  0  0  0  0
    9.2312  -17.1338   28.8792 O   0  0  0  0  0  0  0  0  0  0  0  0
   11.4899  -17.0111   28.9062 O   0  0  0  0  0  0  0  0  0  0  0  0
  2  1  1  0
  3  2  1  0
  3  4  1  1
  5  3  1  0
  5  6  1  6
  7  5  1  0
  7  9  1  0
  8  7  2  0
  9 13  1  0
 10  9  1  0
 10 11  1  0
 11 12  1  0
 13 12  1  0
 13 14  1  1
 14 18  1  0
 15 14  2  0
 17 18  1  0
 17 19  1  0
 17 16  1  1
 19 20  1  0
 21 19  2  0
M  END
$$$$
