NQK.pdb
     RDKit          3D

 27 26  0  0  1  0  0  0  0  0999 V2000
    9.3002  -16.8386   15.6365 N   0  0  0  0  0  0  0  0  0  0  0  0
    7.9252  -16.9021   15.9406 C   0  0  0  0  0  0  0  0  0  0  0  0
    7.0917  -16.9872   14.9735 O   0  0  0  0  0  0  0  0  0  0  0  0
    7.4883  -16.8688   17.3564 C   0  0  0  0  0  0  0  0  0  0  0  0
    8.6336  -16.8336   18.3116 C   0  0  2  0  0  0  0  0  0  0  0  0
    9.7097  -17.7183   17.9572 N   0  0  0  0  0  0  0  0  0  0  0  0
    8.2118  -17.0667   19.7154 C   0  0  0  0  0  0  0  0  0  0  0  0
    7.2281  -16.4299   20.2096 O   0  0  0  0  0  0  0  0  0  0  0  0
    8.0142  -21.7866   22.9015 N   0  0  0  0  0  0  0  0  0  0  0  0
    8.4642  -21.0749   24.0414 C   0  0  0  0  0  0  0  0  0  0  0  0
    8.2713  -21.5805   25.1717 O   0  0  0  0  0  0  0  0  0  0  0  0
    9.1526  -19.7475   23.8575 C   0  0  0  0  0  0  0  0  0  0  0  0
    9.2295  -19.4294   22.4044 C   0  0  0  0  0  0  0  0  0  0  0  0
    8.4764  -18.2060   21.9664 C   0  0  2  0  0  0  0  0  0  0  0  0
    8.8657  -17.9899   20.5658 N   0  0  0  0  0  0  0  0  0  0  0  0
    8.9089  -17.0498   22.7963 C   0  0  0  0  0  0  0  0  0  0  0  0
   10.0217  -16.5429   22.6070 O   0  0  0  0  0  0  0  0  0  0  0  0
    8.1077  -16.4823   23.8110 N   0  0  0  0  0  0  0  0  0  0  0  0
    8.4969  -15.3534   24.6286 C   0  0  1  0  0  0  0  0  0  0  0  0
    7.2975  -14.4794   24.8623 C   0  0  0  0  0  0  0  0  0  0  0  0
    7.5567  -13.2463   25.6387 C   0  0  0  0  0  0  0  0  0  0  0  0
    6.2661  -12.4775   25.8046 C   0  0  0  0  0  0  0  0  0  0  0  0
    6.5083  -11.1789   26.5822 C   0  0  0  0  0  0  0  0  0  0  0  0
    5.2560  -10.4943   26.8143 N   0  0  0  0  0  0  0  0  0  0  0  0
    9.1953  -15.7456   25.8588 C   0  0  0  0  0  0  0  0  0  0  0  0
   10.0131  -14.8648   26.5528 O   0  0  0  0  0  0  0  0  0  0  0  0
    9.1119  -16.9064   26.3848 O   0  0  0  0  0  0  0  0  0  0  0  0
  2  1  1  0
  3  2  2  0
  4  2  1  0
  5  6  1  6
  5  4  1  0
  7  5  1  0
  8  7  2  0
  9 10  1  0
 10 11  2  0
 10 12  1  0
 12 13  1  0
 14 13  1  1
 14 15  1  0
 15  7  1  0
 16 18  1  0
 16 14  1  0
 17 16  2  0
 19 18  1  0
 19 25  1  0
 19 20  1  1
 21 20  1  0
 22 21  1  0
 23 24  1  0
 23 22  1  0
 25 26  1  0
 27 25  2  0
M  END
$$$$
