NQK.pdb
     RDKit          3D

 27 26  0  0  1  0  0  0  0  0999 V2000
   13.8004  -18.1038   18.6451 N   0  0  0  0  0  0  0  0  0  0  0  0
   12.9315  -17.2895   17.8908 C   0  0  0  0  0  0  0  0  0  0  0  0
   13.1994  -17.0956   16.6548 O   0  0  0  0  0  0  0  0  0  0  0  0
   11.7450  -16.6872   18.5435 C   0  0  0  0  0  0  0  0  0  0  0  0
   11.6442  -17.0370   19.9903 C   0  0  2  0  0  0  0  0  0  0  0  0
   11.2205  -18.3894   20.2302 N   0  0  0  0  0  0  0  0  0  0  0  0
   10.7943  -16.0853   20.7483 C   0  0  0  0  0  0  0  0  0  0  0  0
   11.0784  -14.8460   20.7779 O   0  0  0  0  0  0  0  0  0  0  0  0
    7.5129  -16.8023   18.1320 N   0  0  0  0  0  0  0  0  0  0  0  0
    7.1656  -16.9085   19.5018 C   0  0  0  0  0  0  0  0  0  0  0  0
    7.0016  -18.0527   19.9861 O   0  0  0  0  0  0  0  0  0  0  0  0
    7.0069  -15.6545   20.3216 C   0  0  0  0  0  0  0  0  0  0  0  0
    7.3624  -15.9439   21.7388 C   0  0  0  0  0  0  0  0  0  0  0  0
    8.7512  -15.5501   22.1536 C   0  0  2  0  0  0  0  0  0  0  0  0
    9.6448  -16.4931   21.4663 N   0  0  0  0  0  0  0  0  0  0  0  0
    8.8797  -15.7127   23.6265 C   0  0  0  0  0  0  0  0  0  0  0  0
    8.0679  -15.1565   24.3767 O   0  0  0  0  0  0  0  0  0  0  0  0
    9.8958  -16.4813   24.2349 N   0  0  0  0  0  0  0  0  0  0  0  0
   10.0910  -16.5993   25.6640 C   0  0  1  0  0  0  0  0  0  0  0  0
   10.2244  -18.0519   26.0234 C   0  0  0  0  0  0  0  0  0  0  0  0
    9.7420  -19.0029   24.9971 C   0  0  0  0  0  0  0  0  0  0  0  0
   10.1183  -20.4099   25.4007 C   0  0  0  0  0  0  0  0  0  0  0  0
    9.8097  -21.3964   24.2688 C   0  0  0  0  0  0  0  0  0  0  0  0
   10.3428  -22.7027   24.5850 N   0  0  0  0  0  0  0  0  0  0  0  0
   11.1843  -15.7594   26.1682 C   0  0  0  0  0  0  0  0  0  0  0  0
   12.0369  -15.0721   25.3154 O   0  0  0  0  0  0  0  0  0  0  0  0
   11.4391  -15.5924   27.4085 O   0  0  0  0  0  0  0  0  0  0  0  0
  2  1  1  0
  3  2  2  0
  4  2  1  0
  5  6  1  6
  5  4  1  0
  7  5  1  0
  8  7  2  0
  9 10  1  0
 10 11  2  0
 10 12  1  0
 12 13  1  0
 14 13  1  6
 14 15  1  0
 15  7  1  0
 16 18  1  0
 16 14  1  0
 17 16  2  0
 19 18  1  0
 19 25  1  0
 19 20  1  6
 21 20  1  0
 22 21  1  0
 23 24  1  0
 23 22  1  0
 25 26  1  0
 27 25  2  0
M  END
$$$$
