NQK.pdb
     RDKit          3D

 27 26  0  0  1  0  0  0  0  0999 V2000
    6.7318  -12.8757   15.9261 N   0  0  0  0  0  0  0  0  0  0  0  0
    7.7166  -13.6279   15.2541 C   0  0  0  0  0  0  0  0  0  0  0  0
    8.0463  -13.2771   14.0686 O   0  0  0  0  0  0  0  0  0  0  0  0
    8.3357  -14.7912   15.9323 C   0  0  0  0  0  0  0  0  0  0  0  0
    8.8635  -14.4545   17.2864 C   0  0  2  0  0  0  0  0  0  0  0  0
    9.4597  -13.1490   17.3666 N   0  0  0  0  0  0  0  0  0  0  0  0
    9.7980  -15.4840   17.8056 C   0  0  0  0  0  0  0  0  0  0  0  0
    9.4908  -16.7173   17.7627 O   0  0  0  0  0  0  0  0  0  0  0  0
   13.6551  -15.7071   14.5267 N   0  0  0  0  0  0  0  0  0  0  0  0
   14.1361  -16.0306   15.8198 C   0  0  0  0  0  0  0  0  0  0  0  0
   15.3084  -15.7019   16.1170 O   0  0  0  0  0  0  0  0  0  0  0  0
   13.2307  -16.7516   16.7842 C   0  0  0  0  0  0  0  0  0  0  0  0
   13.2334  -16.0369   18.0910 C   0  0  0  0  0  0  0  0  0  0  0  0
   11.9787  -16.1685   18.9060 C   0  0  2  0  0  0  0  0  0  0  0  0
   11.0563  -15.1596   18.3663 N   0  0  0  0  0  0  0  0  0  0  0  0
   12.2914  -15.8600   20.3271 C   0  0  0  0  0  0  0  0  0  0  0  0
   12.7772  -14.7609   20.6222 O   0  0  0  0  0  0  0  0  0  0  0  0
   12.0621  -16.7668   21.3849 N   0  0  0  0  0  0  0  0  0  0  0  0
   12.4202  -16.5241   22.7659 C   0  0  1  0  0  0  0  0  0  0  0  0
   11.6608  -17.4766   23.6451 C   0  0  0  0  0  0  0  0  0  0  0  0
   11.9489  -17.3658   25.0925 C   0  0  0  0  0  0  0  0  0  0  0  0
   11.1632  -18.4170   25.8421 C   0  0  0  0  0  0  0  0  0  0  0  0
   11.3334  -18.2403   27.3552 C   0  0  0  0  0  0  0  0  0  0  0  0
   10.6429  -19.2956   28.0625 N   0  0  0  0  0  0  0  0  0  0  0  0
   13.8701  -16.5304   22.9955 C   0  0  0  0  0  0  0  0  0  0  0  0
   14.4758  -15.6650   23.8959 O   0  0  0  0  0  0  0  0  0  0  0  0
   14.6812  -17.3164   22.3994 O   0  0  0  0  0  0  0  0  0  0  0  0
  2  1  1  0
  3  2  2  0
  4  2  1  0
  5  6  1  6
  5  4  1  0
  7  5  1  0
  8  7  2  0
  9 10  1  0
 10 11  2  0
 10 12  1  0
 12 13  1  0
 14 13  1  6
 14 15  1  0
 15  7  1  0
 16 18  1  0
 16 14  1  0
 17 16  2  0
 19 18  1  0
 19 25  1  0
 19 20  1  1
 21 20  1  0
 22 21  1  0
 23 24  1  0
 23 22  1  0
 25 26  1  0
 27 25  2  0
M  END
$$$$
