NQK.pdb
     RDKit          3D

 27 26  0  0  1  0  0  0  0  0999 V2000
    8.8989  -12.5292   18.1246 N   0  0  0  0  0  0  0  0  0  0  0  0
    8.0502  -13.3143   18.9310 C   0  0  0  0  0  0  0  0  0  0  0  0
    7.1862  -14.0629   18.3562 O   0  0  0  0  0  0  0  0  0  0  0  0
    8.1810  -13.2513   20.4059 C   0  0  0  0  0  0  0  0  0  0  0  0
    8.2144  -14.6016   21.0392 C   0  0  2  0  0  0  0  0  0  0  0  0
    6.9918  -15.3422   20.8870 N   0  0  0  0  0  0  0  0  0  0  0  0
    8.6157  -14.5512   22.4672 C   0  0  0  0  0  0  0  0  0  0  0  0
    9.8115  -14.2669   22.7936 O   0  0  0  0  0  0  0  0  0  0  0  0
    8.1532  -12.7452   27.3521 N   0  0  0  0  0  0  0  0  0  0  0  0
    7.1904  -12.1368   26.5088 C   0  0  0  0  0  0  0  0  0  0  0  0
    7.0358  -10.8954   26.5826 O   0  0  0  0  0  0  0  0  0  0  0  0
    6.3931  -12.9948   25.5612 C   0  0  0  0  0  0  0  0  0  0  0  0
    6.8394  -14.4105   25.6839 C   0  0  0  0  0  0  0  0  0  0  0  0
    8.0968  -14.7619   24.9414 C   0  0  2  0  0  0  0  0  0  0  0  0
    7.7110  -14.8113   23.5241 N   0  0  0  0  0  0  0  0  0  0  0  0
    8.5618  -16.1028   25.3866 C   0  0  0  0  0  0  0  0  0  0  0  0
    7.8417  -17.0922   25.2034 O   0  0  0  0  0  0  0  0  0  0  0  0
    9.8046  -16.3202   26.0206 N   0  0  0  0  0  0  0  0  0  0  0  0
   10.2334  -17.5873   26.5727 C   0  0  1  0  0  0  0  0  0  0  0  0
   11.4793  -18.0360   25.8632 C   0  0  0  0  0  0  0  0  0  0  0  0
   11.3181  -19.2231   24.9943 C   0  0  0  0  0  0  0  0  0  0  0  0
   12.6289  -19.5206   24.3033 C   0  0  0  0  0  0  0  0  0  0  0  0
   12.4432  -20.6099   23.2409 C   0  0  0  0  0  0  0  0  0  0  0  0
   13.6985  -20.8780   22.5752 N   0  0  0  0  0  0  0  0  0  0  0  0
   10.3570  -17.5669   28.0354 C   0  0  0  0  0  0  0  0  0  0  0  0
   10.5710  -18.7240   28.7714 O   0  0  0  0  0  0  0  0  0  0  0  0
   10.2799  -16.5052   28.7409 O   0  0  0  0  0  0  0  0  0  0  0  0
  2  1  1  0
  3  2  2  0
  4  2  1  0
  5  6  1  1
  5  4  1  0
  7  5  1  0
  8  7  2  0
  9 10  1  0
 10 11  2  0
 10 12  1  0
 12 13  1  0
 14 13  1  1
 14 15  1  0
 15  7  1  0
 16 18  1  0
 16 14  1  0
 17 16  2  0
 19 18  1  0
 19 25  1  0
 19 20  1  6
 21 20  1  0
 22 21  1  0
 23 24  1  0
 23 22  1  0
 25 26  1  0
 27 25  2  0
M  END
$$$$
