NQK.pdb
     RDKit          3D

 27 26  0  0  1  0  0  0  0  0999 V2000
    8.3823  -12.8720   16.7651 N   0  0  0  0  0  0  0  0  0  0  0  0
    7.8592  -13.7144   17.7670 C   0  0  0  0  0  0  0  0  0  0  0  0
    7.2084  -14.7558   17.4074 O   0  0  0  0  0  0  0  0  0  0  0  0
    8.0753  -13.3740   19.1931 C   0  0  0  0  0  0  0  0  0  0  0  0
    8.3363  -14.5751   20.0386 C   0  0  2  0  0  0  0  0  0  0  0  0
    7.2350  -15.4976   20.0885 N   0  0  0  0  0  0  0  0  0  0  0  0
    8.7783  -14.2208   21.4104 C   0  0  0  0  0  0  0  0  0  0  0  0
    9.8833  -13.6202   21.5992 O   0  0  0  0  0  0  0  0  0  0  0  0
    5.4842  -12.6408   26.1477 N   0  0  0  0  0  0  0  0  0  0  0  0
    6.7688  -12.5071   26.7311 C   0  0  0  0  0  0  0  0  0  0  0  0
    6.8535  -11.9878   27.8685 O   0  0  0  0  0  0  0  0  0  0  0  0
    7.9773  -12.9891   25.9716 C   0  0  0  0  0  0  0  0  0  0  0  0
    7.5532  -13.4798   24.6307 C   0  0  0  0  0  0  0  0  0  0  0  0
    8.5295  -14.3805   23.9299 C   0  0  2  0  0  0  0  0  0  0  0  0
    8.0130  -14.5247   22.5615 N   0  0  0  0  0  0  0  0  0  0  0  0
    8.5396  -15.7036   24.6094 C   0  0  0  0  0  0  0  0  0  0  0  0
    7.7329  -16.5756   24.2630 O   0  0  0  0  0  0  0  0  0  0  0  0
    9.4350  -16.0326   25.6504 N   0  0  0  0  0  0  0  0  0  0  0  0
    9.9991  -17.3484   25.8622 C   0  0  1  0  0  0  0  0  0  0  0  0
   10.7563  -17.7621   24.6324 C   0  0  0  0  0  0  0  0  0  0  0  0
   11.3391  -19.1218   24.6776 C   0  0  0  0  0  0  0  0  0  0  0  0
   12.0329  -19.4138   23.3670 C   0  0  0  0  0  0  0  0  0  0  0  0
   12.6259  -20.8273   23.3742 C   0  0  0  0  0  0  0  0  0  0  0  0
   13.1431  -21.1590   22.0652 N   0  0  0  0  0  0  0  0  0  0  0  0
   10.7784  -17.4491   27.1021 C   0  0  0  0  0  0  0  0  0  0  0  0
   10.7843  -18.6017   27.8754 O   0  0  0  0  0  0  0  0  0  0  0  0
   11.5026  -16.5049   27.5657 O   0  0  0  0  0  0  0  0  0  0  0  0
  2  1  1  0
  3  2  2  0
  4  2  1  0
  5  6  1  1
  5  4  1  0
  7  5  1  0
  8  7  2  0
  9 10  1  0
 10 11  2  0
 10 12  1  0
 12 13  1  0
 14 13  1  1
 14 15  1  0
 15  7  1  0
 16 18  1  0
 16 14  1  0
 17 16  2  0
 19 18  1  0
 19 25  1  0
 19 20  1  6
 21 20  1  0
 22 21  1  0
 23 24  1  0
 23 22  1  0
 25 26  1  0
 27 25  2  0
M  END
$$$$
