NQK.pdb
     RDKit          3D

 27 26  0  0  1  0  0  0  0  0999 V2000
   12.9731  -18.5773   20.6260 N   0  0  0  0  0  0  0  0  0  0  0  0
   12.3219  -19.2964   21.6486 C   0  0  0  0  0  0  0  0  0  0  0  0
   12.9852  -19.5909   22.7024 O   0  0  0  0  0  0  0  0  0  0  0  0
   10.9026  -19.6870   21.4765 C   0  0  0  0  0  0  0  0  0  0  0  0
   10.2802  -19.0764   20.2660 C   0  0  2  0  0  0  0  0  0  0  0  0
   10.9597  -19.3990   19.0411 N   0  0  0  0  0  0  0  0  0  0  0  0
   10.1096  -17.6075   20.3928 C   0  0  0  0  0  0  0  0  0  0  0  0
   10.3148  -16.8439   19.3967 O   0  0  0  0  0  0  0  0  0  0  0  0
    7.6039  -13.0021   19.7927 N   0  0  0  0  0  0  0  0  0  0  0  0
    8.1630  -13.8946   18.8444 C   0  0  0  0  0  0  0  0  0  0  0  0
    8.3371  -13.4844   17.6731 O   0  0  0  0  0  0  0  0  0  0  0  0
    8.5257  -15.2928   19.2724 C   0  0  0  0  0  0  0  0  0  0  0  0
    8.1284  -15.4917   20.6941 C   0  0  0  0  0  0  0  0  0  0  0  0
    9.2597  -15.5916   21.6769 C   0  0  2  0  0  0  0  0  0  0  0  0
    9.7180  -16.9861   21.6025 N   0  0  0  0  0  0  0  0  0  0  0  0
    8.7418  -15.3009   23.0407 C   0  0  0  0  0  0  0  0  0  0  0  0
    7.8335  -15.9969   23.5115 O   0  0  0  0  0  0  0  0  0  0  0  0
    9.2354  -14.2541   23.8495 N   0  0  0  0  0  0  0  0  0  0  0  0
    8.7967  -13.9858   25.2023 C   0  0  1  0  0  0  0  0  0  0  0  0
    7.4895  -13.2467   25.1574 C   0  0  0  0  0  0  0  0  0  0  0  0
    6.8734  -12.9735   26.4750 C   0  0  0  0  0  0  0  0  0  0  0  0
    5.7872  -11.9348   26.3150 C   0  0  0  0  0  0  0  0  0  0  0  0
    5.2108  -11.5428   27.6802 C   0  0  0  0  0  0  0  0  0  0  0  0
    4.1859  -10.5356   27.5195 N   0  0  0  0  0  0  0  0  0  0  0  0
    8.7731  -15.1845   26.0494 C   0  0  0  0  0  0  0  0  0  0  0  0
    9.1336  -16.4343   25.5652 O   0  0  0  0  0  0  0  0  0  0  0  0
    8.4264  -15.1801   27.2786 O   0  0  0  0  0  0  0  0  0  0  0  0
  2  1  1  0
  3  2  2  0
  4  2  1  0
  5  6  1  6
  5  4  1  0
  7  5  1  0
  8  7  2  0
  9 10  1  0
 10 11  2  0
 10 12  1  0
 12 13  1  0
 14 13  1  6
 14 15  1  0
 15  7  1  0
 16 18  1  0
 16 14  1  0
 17 16  2  0
 19 18  1  0
 19 25  1  0
 19 20  1  6
 21 20  1  0
 22 21  1  0
 23 24  1  0
 23 22  1  0
 25 26  1  0
 27 25  2  0
M  END
$$$$
