FSE.pdb
     RDKit          3D

 27 27  0  0  1  0  0  0  0  0999 V2000
   20.0652  -11.6301  -19.3886 N   0  0  0  0  0  0  0  0  0  0  0  0
   20.7604  -10.3772  -19.1928 C   0  0  1  0  0  0  0  0  0  0  0  0
   20.4194   -9.4653  -20.3306 C   0  0  0  0  0  0  0  0  0  0  0  0
   21.0527   -9.9791  -21.5690 C   0  0  0  0  0  0  0  0  0  0  0  0
   20.3802  -10.8121  -22.4432 C   0  0  0  0  0  0  0  0  0  0  0  0
   20.9814  -11.2867  -23.6037 C   0  0  0  0  0  0  0  0  0  0  0  0
   22.2653  -10.9355  -23.9086 C   0  0  0  0  0  0  0  0  0  0  0  0
   22.9316  -10.0960  -23.0200 C   0  0  0  0  0  0  0  0  0  0  0  0
   22.3542   -9.6225  -21.8770 C   0  0  0  0  0  0  0  0  0  0  0  0
   20.4368   -9.7636  -17.8647 C   0  0  0  0  0  0  0  0  0  0  0  0
   19.2437   -9.6095  -17.5020 O   0  0  0  0  0  0  0  0  0  0  0  0
   23.1576   -9.6568  -14.6005 O   0  0  0  0  0  0  0  0  0  0  0  0
   21.7949   -9.4723  -14.5319 C   0  0  0  0  0  0  0  0  0  0  0  0
   21.2325   -8.7102  -15.6889 C   0  0  2  0  0  0  0  0  0  0  0  0
   21.4521   -9.3301  -16.9580 N   0  0  0  0  0  0  0  0  0  0  0  0
   21.6410   -7.2813  -15.6392 C   0  0  0  0  0  0  0  0  0  0  0  0
   22.6969   -6.9137  -16.1889 O   0  0  0  0  0  0  0  0  0  0  0  0
   20.8490   -6.3175  -14.9736 N   0  0  0  0  0  0  0  0  0  0  0  0
   21.1991   -4.8924  -14.8968 C   0  0  1  0  0  0  0  0  0  0  0  0
   19.9210   -4.1529  -14.8405 C   0  0  0  0  0  0  0  0  0  0  0  0
   19.9214   -2.6884  -14.6912 C   0  0  0  0  0  0  0  0  0  0  0  0
   18.6298   -2.0254  -14.5091 C   0  0  0  0  0  0  0  0  0  0  0  0
   17.5560   -2.6801  -14.4761 O   0  0  0  0  0  0  0  0  0  0  0  0
   22.1500   -4.6864  -13.8421 C   0  0  0  0  0  0  0  0  0  0  0  0
   22.0675   -5.3688  -12.7651 O   0  0  0  0  0  0  0  0  0  0  0  0
   18.5631   -0.6465  -14.3674 O   0  0  0  0  0  0  0  0  0  0  0  0
   23.2101   -3.7701  -13.8956 O   0  0  0  0  0  0  0  0  0  0  0  0
  2 10  1  0
  2  1  1  6
  3  2  1  0
  4  3  1  0
  5  4  2  0
  6  5  1  0
  7  8  1  0
  7  6  2  0
  8  9  2  0
  9  4  1  0
 10 11  2  0
 13 12  1  0
 14 13  1  1
 15 14  1  0
 15 10  1  0
 16 17  2  0
 16 14  1  0
 18 16  1  0
 19 18  1  0
 20 21  1  0
 19 20  1  1
 22 21  1  0
 23 22  2  0
 24 19  1  0
 24 27  1  0
 25 24  2  0
 26 22  1  0
M  END
$$$$
