FSE.pdb
     RDKit          3D

 27 27  0  0  1  0  0  0  0  0999 V2000
   27.7591  -20.8306  -15.6187 N   0  0  0  0  0  0  0  0  0  0  0  0
   27.0754  -20.0598  -14.6039 C   0  0  1  0  0  0  0  0  0  0  0  0
   26.1769  -19.0744  -15.2851 C   0  0  0  0  0  0  0  0  0  0  0  0
   26.9987  -17.9673  -15.8310 C   0  0  0  0  0  0  0  0  0  0  0  0
   27.5658  -18.0292  -17.0899 C   0  0  0  0  0  0  0  0  0  0  0  0
   28.3325  -16.9848  -17.5945 C   0  0  0  0  0  0  0  0  0  0  0  0
   28.5444  -15.8613  -16.8478 C   0  0  0  0  0  0  0  0  0  0  0  0
   27.9677  -15.8114  -15.5816 C   0  0  0  0  0  0  0  0  0  0  0  0
   27.2128  -16.8291  -15.0731 C   0  0  0  0  0  0  0  0  0  0  0  0
   26.3248  -20.9385  -13.6501 C   0  0  0  0  0  0  0  0  0  0  0  0
   25.7141  -21.9571  -14.0601 O   0  0  0  0  0  0  0  0  0  0  0  0
   24.3899  -20.9992   -9.1060 O   0  0  0  0  0  0  0  0  0  0  0  0
   25.4509  -20.7100   -9.9345 C   0  0  0  0  0  0  0  0  0  0  0  0
   25.1775  -20.9828  -11.3789 C   0  0  2  0  0  0  0  0  0  0  0  0
   26.2668  -20.6670  -12.2488 N   0  0  0  0  0  0  0  0  0  0  0  0
   23.8805  -20.3899  -11.8003 C   0  0  0  0  0  0  0  0  0  0  0  0
   23.8294  -19.2048  -12.1810 O   0  0  0  0  0  0  0  0  0  0  0  0
   22.6882  -21.1498  -11.7785 N   0  0  0  0  0  0  0  0  0  0  0  0
   21.3855  -20.6281  -12.2145 C   0  0  1  0  0  0  0  0  0  0  0  0
   21.4752  -20.4580  -13.6796 C   0  0  0  0  0  0  0  0  0  0  0  0
   21.2266  -21.6019  -14.5723 C   0  0  0  0  0  0  0  0  0  0  0  0
   21.2856  -21.3615  -16.0144 C   0  0  0  0  0  0  0  0  0  0  0  0
   21.6390  -20.2471  -16.4791 O   0  0  0  0  0  0  0  0  0  0  0  0
   20.3360  -21.4540  -11.6897 C   0  0  0  0  0  0  0  0  0  0  0  0
   19.1271  -21.0410  -11.7103 O   0  0  0  0  0  0  0  0  0  0  0  0
   20.9495  -22.3690  -16.9076 O   0  0  0  0  0  0  0  0  0  0  0  0
   20.5278  -22.7302  -11.1416 O   0  0  0  0  0  0  0  0  0  0  0  0
  2 10  1  0
  2  1  1  6
  3  2  1  0
  4  3  1  0
  5  4  2  0
  6  5  1  0
  7  8  1  0
  7  6  2  0
  8  9  2  0
  9  4  1  0
 10 11  2  0
 13 12  1  0
 14 13  1  1
 15 14  1  0
 15 10  1  0
 16 17  2  0
 16 14  1  0
 18 16  1  0
 19 18  1  0
 20 21  1  0
 19 20  1  6
 22 21  1  0
 23 22  2  0
 24 19  1  0
 24 27  1  0
 25 24  2  0
 26 22  1  0
M  END
$$$$
