FSE.pdb
     RDKit          3D

 27 27  0  0  1  0  0  0  0  0999 V2000
   26.0741  -10.6049  -18.3663 N   0  0  0  0  0  0  0  0  0  0  0  0
   25.4957  -10.5489  -17.0420 C   0  0  1  0  0  0  0  0  0  0  0  0
   26.6009  -10.3443  -16.0525 C   0  0  0  0  0  0  0  0  0  0  0  0
   27.5060  -11.5183  -16.0884 C   0  0  0  0  0  0  0  0  0  0  0  0
   27.1375  -12.7424  -15.5628 C   0  0  0  0  0  0  0  0  0  0  0  0
   27.9919  -13.8386  -15.6038 C   0  0  0  0  0  0  0  0  0  0  0  0
   29.2290  -13.7281  -16.1713 C   0  0  0  0  0  0  0  0  0  0  0  0
   29.5880  -12.4899  -16.6971 C   0  0  0  0  0  0  0  0  0  0  0  0
   28.7596  -11.4050  -16.6639 C   0  0  0  0  0  0  0  0  0  0  0  0
   24.4453   -9.4853  -16.9388 C   0  0  0  0  0  0  0  0  0  0  0  0
   24.6236   -8.3542  -17.4561 O   0  0  0  0  0  0  0  0  0  0  0  0
   20.8301  -10.0148  -14.5736 O   0  0  0  0  0  0  0  0  0  0  0  0
   20.8177   -9.3853  -15.7980 C   0  0  0  0  0  0  0  0  0  0  0  0
   22.1278   -8.7681  -16.1699 C   0  0  2  0  0  0  0  0  0  0  0  0
   23.2078   -9.7001  -16.2582 N   0  0  0  0  0  0  0  0  0  0  0  0
   22.4233   -7.5844  -15.3196 C   0  0  0  0  0  0  0  0  0  0  0  0
   23.2511   -7.6719  -14.3926 O   0  0  0  0  0  0  0  0  0  0  0  0
   21.7782   -6.3459  -15.5413 N   0  0  0  0  0  0  0  0  0  0  0  0
   22.0149   -5.1495  -14.7217 C   0  0  1  0  0  0  0  0  0  0  0  0
   21.4230   -4.0154  -15.4611 C   0  0  0  0  0  0  0  0  0  0  0  0
   21.4331   -2.6654  -14.8741 C   0  0  0  0  0  0  0  0  0  0  0  0
   20.7968   -1.5904  -15.6358 C   0  0  0  0  0  0  0  0  0  0  0  0
   21.3433   -1.0981  -16.6565 O   0  0  0  0  0  0  0  0  0  0  0  0
   21.5708   -5.3904  -13.3786 C   0  0  0  0  0  0  0  0  0  0  0  0
   20.5238   -6.0917  -13.1679 O   0  0  0  0  0  0  0  0  0  0  0  0
   19.5643   -1.0874  -15.2435 O   0  0  0  0  0  0  0  0  0  0  0  0
   22.2165   -4.9110  -12.2300 O   0  0  0  0  0  0  0  0  0  0  0  0
  2 10  1  0
  2  1  1  6
  3  2  1  0
  4  3  1  0
  5  4  2  0
  6  5  1  0
  7  8  1  0
  7  6  2  0
  8  9  2  0
  9  4  1  0
 10 11  2  0
 13 12  1  0
 14 13  1  1
 15 14  1  0
 15 10  1  0
 16 17  2  0
 16 14  1  0
 18 16  1  0
 19 18  1  0
 20 21  1  0
 19 20  1  6
 22 21  1  0
 23 22  2  0
 24 19  1  0
 24 27  1  0
 25 24  2  0
 26 22  1  0
M  END
$$$$
