FSE.pdb
     RDKit          3D

 27 27  0  0  1  0  0  0  0  0999 V2000
   20.4614   -8.9303  -15.0345 N   0  0  0  0  0  0  0  0  0  0  0  0
   20.5844   -8.2343  -13.7728 C   0  0  1  0  0  0  0  0  0  0  0  0
   21.8283   -7.4014  -13.8126 C   0  0  0  0  0  0  0  0  0  0  0  0
   22.9876   -8.2770  -14.1090 C   0  0  0  0  0  0  0  0  0  0  0  0
   23.8193   -8.0490  -15.1891 C   0  0  0  0  0  0  0  0  0  0  0  0
   24.9060   -8.8739  -15.4575 C   0  0  0  0  0  0  0  0  0  0  0  0
   25.1784   -9.9405  -14.6496 C   0  0  0  0  0  0  0  0  0  0  0  0
   24.3332  -10.1592  -13.5651 C   0  0  0  0  0  0  0  0  0  0  0  0
   23.2627   -9.3579  -13.2893 C   0  0  0  0  0  0  0  0  0  0  0  0
   19.3681   -7.4134  -13.4699 C   0  0  0  0  0  0  0  0  0  0  0  0
   18.7705   -6.7898  -14.3824 O   0  0  0  0  0  0  0  0  0  0  0  0
   18.3533   -6.3127   -9.4524 O   0  0  0  0  0  0  0  0  0  0  0  0
   17.3364   -6.6325  -10.3239 C   0  0  0  0  0  0  0  0  0  0  0  0
   17.7151   -6.4996  -11.7643 C   0  0  2  0  0  0  0  0  0  0  0  0
   18.8347   -7.3003  -12.1495 N   0  0  0  0  0  0  0  0  0  0  0  0
   17.8344   -5.0705  -12.1576 C   0  0  0  0  0  0  0  0  0  0  0  0
   18.9324   -4.4882  -12.0717 O   0  0  0  0  0  0  0  0  0  0  0  0
   16.7160   -4.3476  -12.6329 N   0  0  0  0  0  0  0  0  0  0  0  0
   16.7903   -2.9600  -13.1110 C   0  0  1  0  0  0  0  0  0  0  0  0
   16.3460   -2.9816  -14.5201 C   0  0  0  0  0  0  0  0  0  0  0  0
   16.3629   -1.7450  -15.3186 C   0  0  0  0  0  0  0  0  0  0  0  0
   15.9565   -1.8383  -16.7211 C   0  0  0  0  0  0  0  0  0  0  0  0
   16.5919   -2.5494  -17.5417 O   0  0  0  0  0  0  0  0  0  0  0  0
   16.1007   -2.0975  -12.1946 C   0  0  0  0  0  0  0  0  0  0  0  0
   16.3628   -0.8472  -12.1738 O   0  0  0  0  0  0  0  0  0  0  0  0
   14.8499   -1.1369  -17.1786 O   0  0  0  0  0  0  0  0  0  0  0  0
   15.1184   -2.5228  -11.2889 O   0  0  0  0  0  0  0  0  0  0  0  0
  2 10  1  0
  2  1  1  6
  3  2  1  0
  4  3  1  0
  5  4  2  0
  6  5  1  0
  7  8  1  0
  7  6  2  0
  8  9  2  0
  9  4  1  0
 10 11  2  0
 13 12  1  0
 14 13  1  1
 15 14  1  0
 15 10  1  0
 16 17  2  0
 16 14  1  0
 18 16  1  0
 19 18  1  0
 20 21  1  0
 19 20  1  6
 22 21  1  0
 23 22  2  0
 24 19  1  0
 24 27  1  0
 25 24  2  0
 26 22  1  0
M  END
$$$$
