FSE.pdb
     RDKit          3D

 27 27  0  0  1  0  0  0  0  0999 V2000
   19.0341  -12.4226  -16.4016 N   0  0  0  0  0  0  0  0  0  0  0  0
   19.6146  -11.2799  -17.0714 C   0  0  1  0  0  0  0  0  0  0  0  0
   18.9899  -11.1598  -18.4271 C   0  0  0  0  0  0  0  0  0  0  0  0
   19.4494  -12.2876  -19.2731 C   0  0  0  0  0  0  0  0  0  0  0  0
   18.5957  -13.2996  -19.6699 C   0  0  0  0  0  0  0  0  0  0  0  0
   19.0350  -14.3517  -20.4658 C   0  0  0  0  0  0  0  0  0  0  0  0
   20.3356  -14.4085  -20.8778 C   0  0  0  0  0  0  0  0  0  0  0  0
   21.1852  -13.3832  -20.4714 C   0  0  0  0  0  0  0  0  0  0  0  0
   20.7680  -12.3441  -19.6901 C   0  0  0  0  0  0  0  0  0  0  0  0
   19.4574  -10.0253  -16.2674 C   0  0  0  0  0  0  0  0  0  0  0  0
   18.3170   -9.6049  -15.9493 O   0  0  0  0  0  0  0  0  0  0  0  0
   22.8120   -7.4078  -15.5503 O   0  0  0  0  0  0  0  0  0  0  0  0
   21.8311   -7.5445  -14.5938 C   0  0  0  0  0  0  0  0  0  0  0  0
   20.5179   -8.0046  -15.1410 C   0  0  2  0  0  0  0  0  0  0  0  0
   20.5785   -9.2562  -15.8286 N   0  0  0  0  0  0  0  0  0  0  0  0
   19.8521   -6.9244  -15.9164 C   0  0  0  0  0  0  0  0  0  0  0  0
   19.7659   -7.0075  -17.1565 O   0  0  0  0  0  0  0  0  0  0  0  0
   19.3077   -5.7904  -15.2708 N   0  0  0  0  0  0  0  0  0  0  0  0
   18.7139   -4.6546  -15.9896 C   0  0  1  0  0  0  0  0  0  0  0  0
   17.6235   -5.2108  -16.8172 C   0  0  0  0  0  0  0  0  0  0  0  0
   16.3347   -5.5642  -16.1998 C   0  0  0  0  0  0  0  0  0  0  0  0
   15.2863   -6.0912  -17.0739 C   0  0  0  0  0  0  0  0  0  0  0  0
   15.1688   -5.7022  -18.2646 O   0  0  0  0  0  0  0  0  0  0  0  0
   18.3951   -3.6096  -15.0592 C   0  0  0  0  0  0  0  0  0  0  0  0
   18.1009   -2.4419  -15.4862 O   0  0  0  0  0  0  0  0  0  0  0  0
   14.3915   -7.0411  -16.6019 O   0  0  0  0  0  0  0  0  0  0  0  0
   18.3690   -3.7664  -13.6661 O   0  0  0  0  0  0  0  0  0  0  0  0
  2 10  1  0
  2  1  1  1
  3  2  1  0
  4  3  1  0
  5  4  2  0
  6  5  1  0
  7  8  1  0
  7  6  2  0
  8  9  2  0
  9  4  1  0
 10 11  2  0
 13 12  1  0
 14 13  1  6
 15 14  1  0
 15 10  1  0
 16 17  2  0
 16 14  1  0
 18 16  1  0
 19 18  1  0
 20 21  1  0
 19 20  1  1
 22 21  1  0
 23 22  2  0
 24 19  1  0
 24 27  1  0
 25 24  2  0
 26 22  1  0
M  END
$$$$
