FSE.pdb
     RDKit          3D

 27 27  0  0  1  0  0  0  0  0999 V2000
   25.3083  -21.0750  -10.1454 N   0  0  0  0  0  0  0  0  0  0  0  0
   24.7505  -20.9682  -11.4753 C   0  0  1  0  0  0  0  0  0  0  0  0
   23.5038  -20.1421  -11.3994 C   0  0  0  0  0  0  0  0  0  0  0  0
   22.5024  -20.8526  -10.5680 C   0  0  0  0  0  0  0  0  0  0  0  0
   21.7426  -21.8934  -11.0680 C   0  0  0  0  0  0  0  0  0  0  0  0
   20.8080  -22.5558  -10.2799 C   0  0  0  0  0  0  0  0  0  0  0  0
   20.6182  -22.1877   -8.9787 C   0  0  0  0  0  0  0  0  0  0  0  0
   21.3897  -21.1381   -8.4873 C   0  0  0  0  0  0  0  0  0  0  0  0
   22.3109  -20.4786   -9.2493 C   0  0  0  0  0  0  0  0  0  0  0  0
   25.7396  -20.4043  -12.4493 C   0  0  0  0  0  0  0  0  0  0  0  0
   26.8576  -19.9843  -12.0589 O   0  0  0  0  0  0  0  0  0  0  0  0
   26.7983  -22.7871  -15.2757 O   0  0  0  0  0  0  0  0  0  0  0  0
   27.3303  -21.6246  -14.7648 C   0  0  0  0  0  0  0  0  0  0  0  0
   26.4275  -20.4403  -14.8993 C   0  0  2  0  0  0  0  0  0  0  0  0
   25.4660  -20.3173  -13.8488 N   0  0  0  0  0  0  0  0  0  0  0  0
   25.8401  -20.3662  -16.2634 C   0  0  0  0  0  0  0  0  0  0  0  0
   24.9577  -21.1751  -16.6086 O   0  0  0  0  0  0  0  0  0  0  0  0
   26.2653  -19.3863  -17.1899 N   0  0  0  0  0  0  0  0  0  0  0  0
   25.6132  -19.1588  -18.4869 C   0  0  1  0  0  0  0  0  0  0  0  0
   25.9507  -17.7764  -18.8849 C   0  0  0  0  0  0  0  0  0  0  0  0
   25.0677  -16.6619  -18.5036 C   0  0  0  0  0  0  0  0  0  0  0  0
   25.4139  -15.3260  -18.9899 C   0  0  0  0  0  0  0  0  0  0  0  0
   26.0617  -15.1643  -20.0562 O   0  0  0  0  0  0  0  0  0  0  0  0
   25.9466  -20.2253  -19.3872 C   0  0  0  0  0  0  0  0  0  0  0  0
   27.0821  -20.8043  -19.2992 O   0  0  0  0  0  0  0  0  0  0  0  0
   25.0301  -14.1989  -18.2770 O   0  0  0  0  0  0  0  0  0  0  0  0
   25.0972  -20.7132  -20.3905 O   0  0  0  0  0  0  0  0  0  0  0  0
  2 10  1  0
  2  1  1  1
  3  2  1  0
  4  3  1  0
  5  4  2  0
  6  5  1  0
  7  8  1  0
  7  6  2  0
  8  9  2  0
  9  4  1  0
 10 11  2  0
 13 12  1  0
 14 13  1  1
 15 14  1  0
 15 10  1  0
 16 17  2  0
 16 14  1  0
 18 16  1  0
 19 18  1  0
 20 21  1  0
 19 20  1  6
 22 21  1  0
 23 22  2  0
 24 19  1  0
 24 27  1  0
 25 24  2  0
 26 22  1  0
M  END
$$$$
