FSE.pdb
     RDKit          3D

 27 27  0  0  1  0  0  0  0  0999 V2000
   28.6844  -21.2260   -9.2434 N   0  0  0  0  0  0  0  0  0  0  0  0
   27.3170  -20.7669   -9.1394 C   0  0  1  0  0  0  0  0  0  0  0  0
   27.3095  -19.4734   -8.3848 C   0  0  0  0  0  0  0  0  0  0  0  0
   27.8591  -19.7023   -7.0268 C   0  0  0  0  0  0  0  0  0  0  0  0
   29.1208  -19.2686   -6.6656 C   0  0  0  0  0  0  0  0  0  0  0  0
   29.6266  -19.4853   -5.3887 C   0  0  0  0  0  0  0  0  0  0  0  0
   28.8784  -20.1394   -4.4522 C   0  0  0  0  0  0  0  0  0  0  0  0
   27.6095  -20.5711   -4.8286 C   0  0  0  0  0  0  0  0  0  0  0  0
   27.0998  -20.3655   -6.0785 C   0  0  0  0  0  0  0  0  0  0  0  0
   26.6708  -20.6360  -10.4849 C   0  0  0  0  0  0  0  0  0  0  0  0
   27.0823  -19.7876  -11.3153 O   0  0  0  0  0  0  0  0  0  0  0  0
   24.0289  -23.6097  -12.2304 O   0  0  0  0  0  0  0  0  0  0  0  0
   24.7590  -22.6379  -12.8771 C   0  0  0  0  0  0  0  0  0  0  0  0
   24.8554  -21.3534  -12.1178 C   0  0  2  0  0  0  0  0  0  0  0  0
   25.5720  -21.4565  -10.8854 N   0  0  0  0  0  0  0  0  0  0  0  0
   23.5226  -20.7073  -11.9860 C   0  0  0  0  0  0  0  0  0  0  0  0
   22.9062  -20.7611  -10.9046 O   0  0  0  0  0  0  0  0  0  0  0  0
   22.9307  -20.0244  -13.0735 N   0  0  0  0  0  0  0  0  0  0  0  0
   21.5640  -19.4853  -13.0461 C   0  0  1  0  0  0  0  0  0  0  0  0
   21.4382  -18.6114  -14.2309 C   0  0  0  0  0  0  0  0  0  0  0  0
   20.1970  -17.8541  -14.4613 C   0  0  0  0  0  0  0  0  0  0  0  0
   20.1480  -16.9716  -15.6274 C   0  0  0  0  0  0  0  0  0  0  0  0
   19.0950  -16.3593  -15.9421 O   0  0  0  0  0  0  0  0  0  0  0  0
   20.6255  -20.5599  -12.8921 C   0  0  0  0  0  0  0  0  0  0  0  0
   20.8090  -21.6622  -13.5115 O   0  0  0  0  0  0  0  0  0  0  0  0
   21.2744  -16.7904  -16.4175 O   0  0  0  0  0  0  0  0  0  0  0  0
   19.4826  -20.5068  -12.0816 O   0  0  0  0  0  0  0  0  0  0  0  0
  2 10  1  0
  2  1  1  6
  3  2  1  0
  4  3  1  0
  5  4  2  0
  6  5  1  0
  7  8  1  0
  7  6  2  0
  8  9  2  0
  9  4  1  0
 10 11  2  0
 13 12  1  0
 14 13  1  1
 15 14  1  0
 15 10  1  0
 16 17  2  0
 16 14  1  0
 18 16  1  0
 19 18  1  0
 20 21  1  0
 19 20  1  6
 22 21  1  0
 23 22  2  0
 24 19  1  0
 24 27  1  0
 25 24  2  0
 26 22  1  0
M  END
$$$$
