FSE.pdb
     RDKit          3D

 27 27  0  0  1  0  0  0  0  0999 V2000
   17.6013  -12.1501  -15.2698 N   0  0  0  0  0  0  0  0  0  0  0  0
   18.6350  -11.6775  -16.1640 C   0  0  1  0  0  0  0  0  0  0  0  0
   18.0345  -11.4912  -17.5231 C   0  0  0  0  0  0  0  0  0  0  0  0
   17.6587  -12.8165  -18.0718 C   0  0  0  0  0  0  0  0  0  0  0  0
   18.5963  -13.6788  -18.6080 C   0  0  0  0  0  0  0  0  0  0  0  0
   18.2348  -14.9211  -19.1176 C   0  0  0  0  0  0  0  0  0  0  0  0
   16.9293  -15.3208  -19.0990 C   0  0  0  0  0  0  0  0  0  0  0  0
   15.9947  -14.4431  -18.5563 C   0  0  0  0  0  0  0  0  0  0  0  0
   16.3350  -13.2206  -18.0525 C   0  0  0  0  0  0  0  0  0  0  0  0
   19.2774  -10.4224  -15.6568 C   0  0  0  0  0  0  0  0  0  0  0  0
   18.5793   -9.4824  -15.2011 O   0  0  0  0  0  0  0  0  0  0  0  0
   23.4655   -9.5845  -16.3548 O   0  0  0  0  0  0  0  0  0  0  0  0
   22.8653   -9.2009  -15.1765 C   0  0  0  0  0  0  0  0  0  0  0  0
   21.3823   -9.0422  -15.2812 C   0  0  2  0  0  0  0  0  0  0  0  0
   20.6935  -10.2342  -15.6654 N   0  0  0  0  0  0  0  0  0  0  0  0
   21.0269   -7.8524  -16.0994 C   0  0  0  0  0  0  0  0  0  0  0  0
   20.8196   -7.9740  -17.3219 O   0  0  0  0  0  0  0  0  0  0  0  0
   20.9174   -6.5697  -15.5148 N   0  0  0  0  0  0  0  0  0  0  0  0
   20.6493   -5.3472  -16.2849 C   0  0  1  0  0  0  0  0  0  0  0  0
   19.2197   -5.0334  -16.0819 C   0  0  0  0  0  0  0  0  0  0  0  0
   18.6505   -3.7930  -16.6337 C   0  0  0  0  0  0  0  0  0  0  0  0
   17.2288   -3.5374  -16.4008 C   0  0  0  0  0  0  0  0  0  0  0  0
   16.3564   -3.8691  -17.2444 O   0  0  0  0  0  0  0  0  0  0  0  0
   21.6191   -4.3442  -15.9492 C   0  0  0  0  0  0  0  0  0  0  0  0
   22.2086   -4.3792  -14.8162 O   0  0  0  0  0  0  0  0  0  0  0  0
   16.8100   -2.9175  -15.2318 O   0  0  0  0  0  0  0  0  0  0  0  0
   21.9979   -3.2909  -16.7936 O   0  0  0  0  0  0  0  0  0  0  0  0
  2 10  1  0
  2  1  1  1
  3  2  1  0
  4  3  1  0
  5  4  2  0
  6  5  1  0
  7  8  1  0
  7  6  2  0
  8  9  2  0
  9  4  1  0
 10 11  2  0
 13 12  1  0
 14 13  1  6
 15 14  1  0
 15 10  1  0
 16 17  2  0
 16 14  1  0
 18 16  1  0
 19 18  1  0
 20 21  1  0
 19 20  1  1
 22 21  1  0
 23 22  2  0
 24 19  1  0
 24 27  1  0
 25 24  2  0
 26 22  1  0
M  END
$$$$
