WVD.pdb
     RDKit          3D

 30 31  0  0  1  0  0  0  0  0999 V2000
   28.2682  -20.9942   -9.3977 N   0  0  0  0  0  0  0  0  0  0  0  0
   26.8188  -20.8861   -9.4495 C   0  0  1  0  0  0  0  0  0  0  0  0
   26.3945  -19.7200   -8.5821 C   0  0  0  0  0  0  0  0  0  0  0  0
   27.2934  -19.5206   -7.4347 C   0  0  0  0  0  0  0  0  0  0  0  0
   28.1200  -18.4404   -7.1865 C   0  0  0  0  0  0  0  0  0  0  0  0
   28.7950  -18.6156   -6.0380 N   0  0  0  0  0  0  0  0  0  0  0  0
   28.4001  -19.8064   -5.5529 C   0  0  0  0  0  0  0  0  0  0  0  0
   28.8246  -20.4242   -4.3736 C   0  0  0  0  0  0  0  0  0  0  0  0
   28.2914  -21.6645   -4.0443 C   0  0  0  0  0  0  0  0  0  0  0  0
   27.3646  -22.2632   -4.8705 C   0  0  0  0  0  0  0  0  0  0  0  0
   26.9715  -21.6231   -6.0236 C   0  0  0  0  0  0  0  0  0  0  0  0
   27.4700  -20.3891   -6.3980 C   0  0  0  0  0  0  0  0  0  0  0  0
   26.3581  -20.7096  -10.8529 C   0  0  0  0  0  0  0  0  0  0  0  0
   26.9693  -20.0164  -11.7026 O   0  0  0  0  0  0  0  0  0  0  0  0
   26.3204  -22.7571  -13.4668 C   0  0  0  0  0  0  0  0  0  0  0  0
   24.8519  -22.4940  -13.3191 C   0  0  1  0  0  0  0  0  0  0  0  0
   24.0677  -23.6054  -12.7212 C   0  0  0  0  0  0  0  0  0  0  0  0
   24.6703  -21.1490  -12.6458 C   0  0  2  0  0  0  0  0  0  0  0  0
   25.1646  -21.3530  -11.2730 N   0  0  0  0  0  0  0  0  0  0  0  0
   23.2720  -20.7104  -12.5701 C   0  0  0  0  0  0  0  0  0  0  0  0
   22.5704  -20.8717  -11.5115 O   0  0  0  0  0  0  0  0  0  0  0  0
   22.5842  -20.0803  -13.6411 N   0  0  0  0  0  0  0  0  0  0  0  0
   21.1910  -19.6194  -13.5119 C   0  0  1  0  0  0  0  0  0  0  0  0
   21.0203  -18.4207  -14.3811 C   0  0  0  0  0  0  0  0  0  0  0  0
   19.6705  -17.8549  -14.4246 C   0  0  0  0  0  0  0  0  0  0  0  0
   18.7992  -18.3036  -13.6358 O   0  0  0  0  0  0  0  0  0  0  0  0
   20.2796  -20.7324  -13.8658 C   0  0  0  0  0  0  0  0  0  0  0  0
   19.2544  -20.9267  -13.1785 O   0  0  0  0  0  0  0  0  0  0  0  0
   19.2926  -16.8446  -15.2922 O   0  0  0  0  0  0  0  0  0  0  0  0
   20.5630  -21.5421  -14.9423 O   0  0  0  0  0  0  0  0  0  0  0  0
  2  1  1  6
  2  3  1  0
  2 13  1  0
  3  4  1  0
  4  5  2  0
  4 12  1  0
  5  6  1  0
  6  7  1  0
  7  8  2  0
  8  9  1  0
 10  9  2  0
 11 10  1  0
 12 11  2  0
 12  7  1  0
 13 14  2  0
 16 15  1  1
 16 17  1  0
 18 16  1  0
 19 13  1  0
 18 19  1  1
 20 22  1  0
 20 18  1  0
 21 20  2  0
 23 22  1  0
 23 27  1  0
 23 24  1  6
 25 26  2  0
 25 24  1  0
 27 30  1  0
 28 27  2  0
 29 25  1  0
M  END
$$$$
