WVD.pdb
     RDKit          3D

 30 31  0  0  1  0  0  0  0  0999 V2000
   28.7441  -10.2756  -19.3591 N   0  0  0  0  0  0  0  0  0  0  0  0
   27.9104   -9.9367  -18.2166 C   0  0  1  0  0  0  0  0  0  0  0  0
   28.6918  -10.2236  -16.9520 C   0  0  0  0  0  0  0  0  0  0  0  0
   28.8316  -11.6656  -16.6961 C   0  0  0  0  0  0  0  0  0  0  0  0
   29.9105  -12.4765  -16.9964 C   0  0  0  0  0  0  0  0  0  0  0  0
   29.6714  -13.7423  -16.6143 N   0  0  0  0  0  0  0  0  0  0  0  0
   28.4412  -13.7401  -16.0704 C   0  0  0  0  0  0  0  0  0  0  0  0
   27.7529  -14.8280  -15.5268 C   0  0  0  0  0  0  0  0  0  0  0  0
   26.4810  -14.6174  -15.0084 C   0  0  0  0  0  0  0  0  0  0  0  0
   25.9201  -13.3585  -15.0351 C   0  0  0  0  0  0  0  0  0  0  0  0
   26.6294  -12.3122  -15.5790 C   0  0  0  0  0  0  0  0  0  0  0  0
   27.8975  -12.4666  -16.1079 C   0  0  0  0  0  0  0  0  0  0  0  0
   27.4922   -8.5106  -18.2800 C   0  0  0  0  0  0  0  0  0  0  0  0
   28.2292   -7.5890  -18.7082 O   0  0  0  0  0  0  0  0  0  0  0  0
   24.9443   -5.2894  -19.7709 C   0  0  0  0  0  0  0  0  0  0  0  0
   25.7802   -6.4977  -19.4732 C   0  0  1  0  0  0  0  0  0  0  0  0
   27.1450   -6.4825  -20.0604 C   0  0  0  0  0  0  0  0  0  0  0  0
   25.7287   -6.7619  -17.9822 C   0  0  2  0  0  0  0  0  0  0  0  0
   26.1918   -8.1529  -17.8370 N   0  0  0  0  0  0  0  0  0  0  0  0
   24.3804   -6.6648  -17.4114 C   0  0  0  0  0  0  0  0  0  0  0  0
   23.4209   -7.4098  -17.8157 O   0  0  0  0  0  0  0  0  0  0  0  0
   24.0242   -5.7552  -16.3804 N   0  0  0  0  0  0  0  0  0  0  0  0
   22.6785   -5.7407  -15.7811 C   0  0  1  0  0  0  0  0  0  0  0  0
   22.8281   -5.4869  -14.3200 C   0  0  0  0  0  0  0  0  0  0  0  0
   21.5791   -5.3689  -13.5650 C   0  0  0  0  0  0  0  0  0  0  0  0
   20.4880   -5.5424  -14.1667 O   0  0  0  0  0  0  0  0  0  0  0  0
   21.8543   -4.7206  -16.4702 C   0  0  0  0  0  0  0  0  0  0  0  0
   22.3656   -3.6209  -16.7707 O   0  0  0  0  0  0  0  0  0  0  0  0
   21.5278   -5.0745  -12.2134 O   0  0  0  0  0  0  0  0  0  0  0  0
   20.5384   -4.9860  -16.7750 O   0  0  0  0  0  0  0  0  0  0  0  0
  2  1  1  6
  2  3  1  0
  2 13  1  0
  3  4  1  0
  4  5  2  0
  4 12  1  0
  5  6  1  0
  6  7  1  0
  7  8  2  0
  8  9  1  0
 10  9  2  0
 11 10  1  0
 12 11  2  0
 12  7  1  0
 13 14  2  0
 16 15  1  1
 16 17  1  0
 18 16  1  0
 19 13  1  0
 18 19  1  6
 20 22  1  0
 20 18  1  0
 21 20  2  0
 23 22  1  0
 23 27  1  0
 23 24  1  1
 25 26  2  0
 25 24  1  0
 27 30  1  0
 28 27  2  0
 29 25  1  0
M  END
$$$$
