WVD.pdb
     RDKit          3D

 30 31  0  0  1  0  0  0  0  0999 V2000
   26.7512  -21.3920  -11.9325 N   0  0  0  0  0  0  0  0  0  0  0  0
   25.5227  -21.1410  -11.1957 C   0  0  1  0  0  0  0  0  0  0  0  0
   25.8612  -20.3300   -9.9628 C   0  0  0  0  0  0  0  0  0  0  0  0
   27.1761  -20.6828   -9.4052 C   0  0  0  0  0  0  0  0  0  0  0  0
   28.1812  -21.4156  -10.0090 C   0  0  0  0  0  0  0  0  0  0  0  0
   29.2380  -21.5347   -9.1879 N   0  0  0  0  0  0  0  0  0  0  0  0
   28.9086  -20.8788   -8.0607 C   0  0  0  0  0  0  0  0  0  0  0  0
   29.6890  -20.7225   -6.9122 C   0  0  0  0  0  0  0  0  0  0  0  0
   29.1647  -20.0023   -5.8457 C   0  0  0  0  0  0  0  0  0  0  0  0
   27.9009  -19.4583   -5.9300 C   0  0  0  0  0  0  0  0  0  0  0  0
   27.1629  -19.6339   -7.0781 C   0  0  0  0  0  0  0  0  0  0  0  0
   27.6365  -20.3411   -8.1676 C   0  0  0  0  0  0  0  0  0  0  0  0
   24.5351  -20.4319  -12.0529 C   0  0  0  0  0  0  0  0  0  0  0  0
   24.0836  -19.2897  -11.7931 O   0  0  0  0  0  0  0  0  0  0  0  0
   22.8761  -19.9219  -16.5393 C   0  0  0  0  0  0  0  0  0  0  0  0
   23.8072  -20.4919  -15.5118 C   0  0  1  0  0  0  0  0  0  0  0  0
   25.2141  -20.0232  -15.6046 C   0  0  0  0  0  0  0  0  0  0  0  0
   23.1698  -20.3350  -14.1464 C   0  0  2  0  0  0  0  0  0  0  0  0
   24.0666  -21.0653  -13.2337 N   0  0  0  0  0  0  0  0  0  0  0  0
   21.8314  -20.9285  -14.0476 C   0  0  0  0  0  0  0  0  0  0  0  0
   20.8406  -20.4751  -14.7198 O   0  0  0  0  0  0  0  0  0  0  0  0
   21.5196  -22.0365  -13.2155 N   0  0  0  0  0  0  0  0  0  0  0  0
   20.1353  -22.4988  -13.0152 C   0  0  1  0  0  0  0  0  0  0  0  0
   20.1873  -23.8417  -12.3707 C   0  0  0  0  0  0  0  0  0  0  0  0
   18.8926  -24.4256  -12.0147 C   0  0  0  0  0  0  0  0  0  0  0  0
   18.3620  -24.1028  -10.9206 O   0  0  0  0  0  0  0  0  0  0  0  0
   19.4020  -21.4929  -12.2120 C   0  0  0  0  0  0  0  0  0  0  0  0
   19.9603  -20.9746  -11.2217 O   0  0  0  0  0  0  0  0  0  0  0  0
   18.2107  -25.3217  -12.8197 O   0  0  0  0  0  0  0  0  0  0  0  0
   18.1183  -21.1353  -12.5571 O   0  0  0  0  0  0  0  0  0  0  0  0
  2  1  1  6
  2  3  1  0
  2 13  1  0
  3  4  1  0
  4  5  2  0
  4 12  1  0
  5  6  1  0
  6  7  1  0
  7  8  2  0
  8  9  1  0
 10  9  2  0
 11 10  1  0
 12 11  2  0
 12  7  1  0
 13 14  2  0
 16 15  1  6
 16 17  1  0
 18 16  1  0
 19 13  1  0
 18 19  1  1
 20 22  1  0
 20 18  1  0
 21 20  2  0
 23 22  1  0
 23 27  1  0
 23 24  1  1
 25 26  2  0
 25 24  1  0
 27 30  1  0
 28 27  2  0
 29 25  1  0
M  END
$$$$
