WVD.pdb
     RDKit          3D

 30 31  0  0  1  0  0  0  0  0999 V2000
   27.5650  -21.6302  -11.7421 N   0  0  0  0  0  0  0  0  0  0  0  0
   26.4150  -21.0645  -12.4296 C   0  0  1  0  0  0  0  0  0  0  0  0
   25.9673  -19.8294  -11.6771 C   0  0  0  0  0  0  0  0  0  0  0  0
   25.4643  -20.1463  -10.3313 C   0  0  0  0  0  0  0  0  0  0  0  0
   26.1403  -20.0401   -9.1298 C   0  0  0  0  0  0  0  0  0  0  0  0
   25.3543  -20.4233   -8.1097 N   0  0  0  0  0  0  0  0  0  0  0  0
   24.1774  -20.7738   -8.6587 C   0  0  0  0  0  0  0  0  0  0  0  0
   23.0385  -21.2397   -7.9965 C   0  0  0  0  0  0  0  0  0  0  0  0
   21.9123  -21.5491   -8.7495 C   0  0  0  0  0  0  0  0  0  0  0  0
   21.9295  -21.3960  -10.1193 C   0  0  0  0  0  0  0  0  0  0  0  0
   23.0703  -20.9344  -10.7351 C   0  0  0  0  0  0  0  0  0  0  0  0
   24.2174  -20.6121  -10.0339 C   0  0  0  0  0  0  0  0  0  0  0  0
   26.7570  -20.7415  -13.8408 C   0  0  0  0  0  0  0  0  0  0  0  0
   27.5897  -19.8614  -14.1696 O   0  0  0  0  0  0  0  0  0  0  0  0
   27.3057  -22.2620  -18.2933 C   0  0  0  0  0  0  0  0  0  0  0  0
   27.0476  -22.4357  -16.8268 C   0  0  1  0  0  0  0  0  0  0  0  0
   28.1905  -22.9716  -16.0431 C   0  0  0  0  0  0  0  0  0  0  0  0
   26.4497  -21.1517  -16.2890 C   0  0  2  0  0  0  0  0  0  0  0  0
   26.1177  -21.4575  -14.8866 N   0  0  0  0  0  0  0  0  0  0  0  0
   25.2184  -20.7414  -16.9735 C   0  0  0  0  0  0  0  0  0  0  0  0
   24.1106  -21.3588  -16.7979 O   0  0  0  0  0  0  0  0  0  0  0  0
   25.1443  -19.6454  -17.8738 N   0  0  0  0  0  0  0  0  0  0  0  0
   23.8593  -19.1429  -18.3898 C   0  0  1  0  0  0  0  0  0  0  0  0
   23.0233  -18.7355  -17.2250 C   0  0  0  0  0  0  0  0  0  0  0  0
   21.7481  -18.0944  -17.5520 C   0  0  0  0  0  0  0  0  0  0  0  0
   21.1312  -18.4631  -18.5845 O   0  0  0  0  0  0  0  0  0  0  0  0
   24.1200  -18.0350  -19.3381 C   0  0  0  0  0  0  0  0  0  0  0  0
   25.2131  -17.4318  -19.2898 O   0  0  0  0  0  0  0  0  0  0  0  0
   21.1754  -17.0955  -16.7837 O   0  0  0  0  0  0  0  0  0  0  0  0
   23.1647  -17.6771  -20.2623 O   0  0  0  0  0  0  0  0  0  0  0  0
  2  1  1  1
  2  3  1  0
  2 13  1  0
  3  4  1  0
  4  5  2  0
  4 12  1  0
  5  6  1  0
  6  7  1  0
  7  8  2  0
  8  9  1  0
 10  9  2  0
 11 10  1  0
 12 11  2  0
 12  7  1  0
 13 14  2  0
 16 15  1  6
 16 17  1  0
 18 16  1  0
 19 13  1  0
 18 19  1  1
 20 22  1  0
 20 18  1  0
 21 20  2  0
 23 22  1  0
 23 27  1  0
 23 24  1  1
 25 26  2  0
 25 24  1  0
 27 30  1  0
 28 27  2  0
 29 25  1  0
M  END
$$$$
