WVD.pdb
     RDKit          3D

 30 31  0  0  1  0  0  0  0  0999 V2000
   21.6055  -21.5927  -21.6173 N   0  0  0  0  0  0  0  0  0  0  0  0
   20.9269  -20.9044  -20.5306 C   0  0  1  0  0  0  0  0  0  0  0  0
   20.3268  -19.6254  -21.0749 C   0  0  0  0  0  0  0  0  0  0  0  0
   21.3518  -18.6931  -21.5693 C   0  0  0  0  0  0  0  0  0  0  0  0
   21.7072  -18.4468  -22.8826 C   0  0  0  0  0  0  0  0  0  0  0  0
   22.6882  -17.5306  -22.9431 N   0  0  0  0  0  0  0  0  0  0  0  0
   22.9592  -17.1918  -21.6699 C   0  0  0  0  0  0  0  0  0  0  0  0
   23.9085  -16.2695  -21.2219 C   0  0  0  0  0  0  0  0  0  0  0  0
   24.0353  -16.0578  -19.8544 C   0  0  0  0  0  0  0  0  0  0  0  0
   23.2367  -16.7482  -18.9681 C   0  0  0  0  0  0  0  0  0  0  0  0
   22.3131  -17.6485  -19.4479 C   0  0  0  0  0  0  0  0  0  0  0  0
   22.1460  -17.8968  -20.7977 C   0  0  0  0  0  0  0  0  0  0  0  0
   19.8823  -21.7774  -19.9310 C   0  0  0  0  0  0  0  0  0  0  0  0
   19.5638  -22.8992  -20.3960 O   0  0  0  0  0  0  0  0  0  0  0  0
   18.0774  -24.1768  -16.7268 C   0  0  0  0  0  0  0  0  0  0  0  0
   18.9215  -23.4345  -17.7188 C   0  0  1  0  0  0  0  0  0  0  0  0
   19.4681  -24.2601  -18.8267 C   0  0  0  0  0  0  0  0  0  0  0  0
   18.1694  -22.1943  -18.1566 C   0  0  2  0  0  0  0  0  0  0  0  0
   19.1978  -21.3351  -18.7687 N   0  0  0  0  0  0  0  0  0  0  0  0
   17.5535  -21.4552  -17.0486 C   0  0  0  0  0  0  0  0  0  0  0  0
   16.5467  -21.9167  -16.4064 O   0  0  0  0  0  0  0  0  0  0  0  0
   18.0083  -20.1878  -16.5969 N   0  0  0  0  0  0  0  0  0  0  0  0
   17.3908  -19.4986  -15.4506 C   0  0  1  0  0  0  0  0  0  0  0  0
   17.9844  -18.1344  -15.3597 C   0  0  0  0  0  0  0  0  0  0  0  0
   17.4196  -17.2639  -14.3267 C   0  0  0  0  0  0  0  0  0  0  0  0
   16.6361  -17.7606  -13.4769 O   0  0  0  0  0  0  0  0  0  0  0  0
   15.9204  -19.4855  -15.6304 C   0  0  0  0  0  0  0  0  0  0  0  0
   15.4369  -19.0337  -16.6902 O   0  0  0  0  0  0  0  0  0  0  0  0
   17.7000  -15.9119  -14.2291 O   0  0  0  0  0  0  0  0  0  0  0  0
   15.0984  -19.9676  -14.6371 O   0  0  0  0  0  0  0  0  0  0  0  0
  2  1  1  6
  2  3  1  0
  2 13  1  0
  3  4  1  0
  4  5  2  0
  4 12  1  0
  5  6  1  0
  6  7  1  0
  7  8  2  0
  8  9  1  0
 10  9  2  0
 11 10  1  0
 12 11  2  0
 12  7  1  0
 13 14  2  0
 16 15  1  6
 16 17  1  0
 18 16  1  0
 19 13  1  0
 18 19  1  1
 20 22  1  0
 20 18  1  0
 21 20  2  0
 23 22  1  0
 23 27  1  0
 23 24  1  6
 25 26  2  0
 25 24  1  0
 27 30  1  0
 28 27  2  0
 29 25  1  0
M  END
$$$$
