WVD.pdb
     RDKit          3D

 30 31  0  0  1  0  0  0  0  0999 V2000
   28.4719  -21.3868  -10.1071 N   0  0  0  0  0  0  0  0  0  0  0  0
   27.0882  -20.9582   -9.9781 C   0  0  1  0  0  0  0  0  0  0  0  0
   27.0666  -19.6127   -9.2844 C   0  0  0  0  0  0  0  0  0  0  0  0
   27.9159  -19.5891   -8.0834 C   0  0  0  0  0  0  0  0  0  0  0  0
   29.2211  -19.1445   -7.9799 C   0  0  0  0  0  0  0  0  0  0  0  0
   29.6688  -19.2819   -6.7206 N   0  0  0  0  0  0  0  0  0  0  0  0
   28.6510  -19.8135   -6.0202 C   0  0  0  0  0  0  0  0  0  0  0  0
   28.6360  -20.1392   -4.6614 C   0  0  0  0  0  0  0  0  0  0  0  0
   27.4765  -20.6821   -4.1212 C   0  0  0  0  0  0  0  0  0  0  0  0
   26.3711  -20.8908   -4.9178 C   0  0  0  0  0  0  0  0  0  0  0  0
   26.4247  -20.5571   -6.2518 C   0  0  0  0  0  0  0  0  0  0  0  0
   27.5523  -20.0143   -6.8396 C   0  0  0  0  0  0  0  0  0  0  0  0
   26.4368  -20.8867  -11.3135 C   0  0  0  0  0  0  0  0  0  0  0  0
   27.0470  -20.5859  -12.3687 O   0  0  0  0  0  0  0  0  0  0  0  0
   23.2265  -22.8240  -14.1681 C   0  0  0  0  0  0  0  0  0  0  0  0
   24.1125  -22.6944  -12.9659 C   0  0  1  0  0  0  0  0  0  0  0  0
   25.2986  -23.5893  -12.9554 C   0  0  0  0  0  0  0  0  0  0  0  0
   24.4175  -21.2261  -12.7500 C   0  0  2  0  0  0  0  0  0  0  0  0
   25.0503  -21.1715  -11.4207 N   0  0  0  0  0  0  0  0  0  0  0  0
   23.2243  -20.3724  -12.7262 C   0  0  0  0  0  0  0  0  0  0  0  0
   22.5637  -20.1656  -11.6492 O   0  0  0  0  0  0  0  0  0  0  0  0
   22.7047  -19.7114  -13.8708 N   0  0  0  0  0  0  0  0  0  0  0  0
   21.5727  -18.7726  -13.7849 C   0  0  1  0  0  0  0  0  0  0  0  0
   21.3521  -18.1924  -15.1400 C   0  0  0  0  0  0  0  0  0  0  0  0
   22.4052  -17.2995  -15.6275 C   0  0  0  0  0  0  0  0  0  0  0  0
   23.3129  -16.9419  -14.8332 O   0  0  0  0  0  0  0  0  0  0  0  0
   20.3893  -19.4904  -13.2567 C   0  0  0  0  0  0  0  0  0  0  0  0
   20.1373  -20.6425  -13.6694 O   0  0  0  0  0  0  0  0  0  0  0  0
   22.4613  -16.8204  -16.9249 O   0  0  0  0  0  0  0  0  0  0  0  0
   19.5782  -18.8906  -12.3202 O   0  0  0  0  0  0  0  0  0  0  0  0
  2  1  1  6
  2  3  1  0
  2 13  1  0
  3  4  1  0
  4  5  2  0
  4 12  1  0
  5  6  1  0
  6  7  1  0
  7  8  2  0
  8  9  1  0
 10  9  2  0
 11 10  1  0
 12 11  2  0
 12  7  1  0
 13 14  2  0
 16 15  1  6
 16 17  1  0
 18 16  1  0
 19 13  1  0
 18 19  1  1
 20 22  1  0
 20 18  1  0
 21 20  2  0
 23 22  1  0
 23 27  1  0
 23 24  1  6
 25 26  2  0
 25 24  1  0
 27 30  1  0
 28 27  2  0
 29 25  1  0
M  END
$$$$
