WVD.pdb
     RDKit          3D

 30 31  0  0  1  0  0  0  0  0999 V2000
   25.1913  -20.5664   -8.5530 N   0  0  0  0  0  0  0  0  0  0  0  0
   26.3520  -20.0476   -9.2593 C   0  0  1  0  0  0  0  0  0  0  0  0
   27.5994  -20.5616   -8.5724 C   0  0  0  0  0  0  0  0  0  0  0  0
   27.8094  -19.9395   -7.2559 C   0  0  0  0  0  0  0  0  0  0  0  0
   27.0594  -18.9400   -6.6641 C   0  0  0  0  0  0  0  0  0  0  0  0
   27.5584  -18.6265   -5.4566 N   0  0  0  0  0  0  0  0  0  0  0  0
   28.6259  -19.4248   -5.2770 C   0  0  0  0  0  0  0  0  0  0  0  0
   29.4736  -19.4696   -4.1670 C   0  0  0  0  0  0  0  0  0  0  0  0
   30.5290  -20.3734   -4.1732 C   0  0  0  0  0  0  0  0  0  0  0  0
   30.7262  -21.2029   -5.2564 C   0  0  0  0  0  0  0  0  0  0  0  0
   29.8698  -21.1291   -6.3310 C   0  0  0  0  0  0  0  0  0  0  0  0
   28.8048  -20.2486   -6.3761 C   0  0  0  0  0  0  0  0  0  0  0  0
   26.3178  -20.4544  -10.6897 C   0  0  0  0  0  0  0  0  0  0  0  0
   27.2288  -21.1153  -11.2458 O   0  0  0  0  0  0  0  0  0  0  0  0
   24.6855  -22.5478  -14.1711 C   0  0  0  0  0  0  0  0  0  0  0  0
   25.1117  -22.0247  -12.8324 C   0  0  1  0  0  0  0  0  0  0  0  0
   26.3368  -22.6499  -12.2703 C   0  0  0  0  0  0  0  0  0  0  0  0
   25.1371  -20.5111  -12.8941 C   0  0  2  0  0  0  0  0  0  0  0  0
   25.2018  -20.0847  -11.4853 N   0  0  0  0  0  0  0  0  0  0  0  0
   23.9348  -19.9243  -13.4968 C   0  0  0  0  0  0  0  0  0  0  0  0
   22.7853  -20.0213  -12.9415 O   0  0  0  0  0  0  0  0  0  0  0  0
   23.9364  -19.2103  -14.7245 N   0  0  0  0  0  0  0  0  0  0  0  0
   22.7349  -18.5257  -15.2324 C   0  0  1  0  0  0  0  0  0  0  0  0
   23.1517  -17.6341  -16.3518 C   0  0  0  0  0  0  0  0  0  0  0  0
   22.0878  -16.8238  -16.9479 C   0  0  0  0  0  0  0  0  0  0  0  0
   20.9248  -16.9074  -16.4756 O   0  0  0  0  0  0  0  0  0  0  0  0
   21.7347  -19.5415  -15.6356 C   0  0  0  0  0  0  0  0  0  0  0  0
   22.1053  -20.5409  -16.2874 O   0  0  0  0  0  0  0  0  0  0  0  0
   22.2886  -15.9619  -18.0123 O   0  0  0  0  0  0  0  0  0  0  0  0
   20.4111  -19.3821  -15.2930 O   0  0  0  0  0  0  0  0  0  0  0  0
  2  1  1  1
  2  3  1  0
  2 13  1  0
  3  4  1  0
  4  5  2  0
  4 12  1  0
  5  6  1  0
  6  7  1  0
  7  8  2  0
  8  9  1  0
 10  9  2  0
 11 10  1  0
 12 11  2  0
 12  7  1  0
 13 14  2  0
 16 15  1  6
 16 17  1  0
 18 16  1  0
 19 13  1  0
 18 19  1  1
 20 22  1  0
 20 18  1  0
 21 20  2  0
 23 22  1  0
 23 27  1  0
 23 24  1  6
 25 26  2  0
 25 24  1  0
 27 30  1  0
 28 27  2  0
 29 25  1  0
M  END
$$$$
