WVD.pdb
     RDKit          3D

 30 31  0  0  1  0  0  0  0  0999 V2000
   27.7788  -19.7357  -16.4526 N   0  0  0  0  0  0  0  0  0  0  0  0
   26.7363  -19.1128  -15.6524 C   0  0  1  0  0  0  0  0  0  0  0  0
   25.7572  -18.4339  -16.5864 C   0  0  0  0  0  0  0  0  0  0  0  0
   26.2882  -17.1764  -17.1352 C   0  0  0  0  0  0  0  0  0  0  0  0
   26.3233  -16.7804  -18.4595 C   0  0  0  0  0  0  0  0  0  0  0  0
   26.8867  -15.5660  -18.5751 N   0  0  0  0  0  0  0  0  0  0  0  0
   27.2112  -15.1866  -17.3261 C   0  0  0  0  0  0  0  0  0  0  0  0
   27.8221  -13.9923  -16.9348 C   0  0  0  0  0  0  0  0  0  0  0  0
   28.0742  -13.7866  -15.5839 C   0  0  0  0  0  0  0  0  0  0  0  0
   27.7251  -14.7467  -14.6585 C   0  0  0  0  0  0  0  0  0  0  0  0
   27.1250  -15.9102  -15.0829 C   0  0  0  0  0  0  0  0  0  0  0  0
   26.8517  -16.1652  -16.4140 C   0  0  0  0  0  0  0  0  0  0  0  0
   26.0557  -20.1256  -14.8015 C   0  0  0  0  0  0  0  0  0  0  0  0
   25.7551  -21.2778  -15.1991 O   0  0  0  0  0  0  0  0  0  0  0  0
   24.7527  -21.3116  -10.2518 C   0  0  0  0  0  0  0  0  0  0  0  0
   25.6215  -20.6030  -11.2470 C   0  0  1  0  0  0  0  0  0  0  0  0
   27.0697  -20.9247  -11.1639 C   0  0  0  0  0  0  0  0  0  0  0  0
   25.0081  -20.7668  -12.6226 C   0  0  2  0  0  0  0  0  0  0  0  0
   25.7205  -19.7893  -13.4638 N   0  0  0  0  0  0  0  0  0  0  0  0
   23.5748  -20.4561  -12.6709 C   0  0  0  0  0  0  0  0  0  0  0  0
   23.1274  -19.2890  -12.3939 O   0  0  0  0  0  0  0  0  0  0  0  0
   22.5745  -21.4012  -13.0222 N   0  0  0  0  0  0  0  0  0  0  0  0
   21.1398  -21.0679  -12.9947 C   0  0  1  0  0  0  0  0  0  0  0  0
   20.5754  -21.3520  -14.3446 C   0  0  0  0  0  0  0  0  0  0  0  0
   19.1340  -21.1377  -14.4880 C   0  0  0  0  0  0  0  0  0  0  0  0
   18.5251  -20.4925  -13.5960 O   0  0  0  0  0  0  0  0  0  0  0  0
   20.4855  -21.8404  -11.9131 C   0  0  0  0  0  0  0  0  0  0  0  0
   20.6543  -23.0770  -11.8554 O   0  0  0  0  0  0  0  0  0  0  0  0
   18.3939  -21.6085  -15.5588 O   0  0  0  0  0  0  0  0  0  0  0  0
   19.7005  -21.1981  -10.9826 O   0  0  0  0  0  0  0  0  0  0  0  0
  2  1  1  6
  2  3  1  0
  2 13  1  0
  3  4  1  0
  4  5  2  0
  4 12  1  0
  5  6  1  0
  6  7  1  0
  7  8  2  0
  8  9  1  0
 10  9  2  0
 11 10  1  0
 12 11  2  0
 12  7  1  0
 13 14  2  0
 16 15  1  1
 16 17  1  0
 18 16  1  0
 19 13  1  0
 18 19  1  6
 20 22  1  0
 20 18  1  0
 21 20  2  0
 23 22  1  0
 23 27  1  0
 23 24  1  6
 25 26  2  0
 25 24  1  0
 27 30  1  0
 28 27  2  0
 29 25  1  0
M  END
$$$$
