WVD.pdb
     RDKit          3D

 30 31  0  0  1  0  0  0  0  0999 V2000
   28.0329  -22.0214  -10.1074 N   0  0  0  0  0  0  0  0  0  0  0  0
   26.8157  -21.2871   -9.8003 C   0  0  1  0  0  0  0  0  0  0  0  0
   27.1602  -20.1703   -8.8378 C   0  0  0  0  0  0  0  0  0  0  0  0
   28.1508  -20.5847   -7.8322 C   0  0  0  0  0  0  0  0  0  0  0  0
   29.1360  -21.5461   -7.9624 C   0  0  0  0  0  0  0  0  0  0  0  0
   29.8490  -21.6491   -6.8282 N   0  0  0  0  0  0  0  0  0  0  0  0
   29.3201  -20.7544   -5.9743 C   0  0  0  0  0  0  0  0  0  0  0  0
   29.7268  -20.4906   -4.6637 C   0  0  0  0  0  0  0  0  0  0  0  0
   29.0466  -19.5187   -3.9401 C   0  0  0  0  0  0  0  0  0  0  0  0
   27.9949  -18.8359   -4.5127 C   0  0  0  0  0  0  0  0  0  0  0  0
   27.6240  -19.1241   -5.8062 C   0  0  0  0  0  0  0  0  0  0  0  0
   28.2664  -20.0809   -6.5700 C   0  0  0  0  0  0  0  0  0  0  0  0
   26.1987  -20.7548  -11.0449 C   0  0  0  0  0  0  0  0  0  0  0  0
   26.8619  -20.3076  -12.0125 O   0  0  0  0  0  0  0  0  0  0  0  0
   23.7875  -22.0161  -14.4746 C   0  0  0  0  0  0  0  0  0  0  0  0
   24.6158  -21.8734  -13.2333 C   0  0  1  0  0  0  0  0  0  0  0  0
   26.0835  -21.9844  -13.4365 C   0  0  0  0  0  0  0  0  0  0  0  0
   24.1649  -20.6294  -12.4953 C   0  0  2  0  0  0  0  0  0  0  0  0
   24.7842  -20.7446  -11.1636 N   0  0  0  0  0  0  0  0  0  0  0  0
   22.7107  -20.5415  -12.3195 C   0  0  0  0  0  0  0  0  0  0  0  0
   22.0768  -21.3293  -11.5343 O   0  0  0  0  0  0  0  0  0  0  0  0
   21.8912  -19.5947  -12.9897 N   0  0  0  0  0  0  0  0  0  0  0  0
   20.4411  -19.5045  -12.7460 C   0  0  1  0  0  0  0  0  0  0  0  0
   19.9283  -18.3012  -13.4607 C   0  0  0  0  0  0  0  0  0  0  0  0
   18.7759  -17.6402  -12.8451 C   0  0  0  0  0  0  0  0  0  0  0  0
   18.2463  -18.1643  -11.8314 O   0  0  0  0  0  0  0  0  0  0  0  0
   19.7983  -20.7643  -13.1870 C   0  0  0  0  0  0  0  0  0  0  0  0
   18.9530  -21.3120  -12.4476 O   0  0  0  0  0  0  0  0  0  0  0  0
   18.2288  -16.4599  -13.3180 O   0  0  0  0  0  0  0  0  0  0  0  0
   20.1315  -21.3224  -14.4003 O   0  0  0  0  0  0  0  0  0  0  0  0
  2  1  1  6
  2  3  1  0
  2 13  1  0
  3  4  1  0
  4  5  2  0
  4 12  1  0
  5  6  1  0
  6  7  1  0
  7  8  2  0
  8  9  1  0
 10  9  2  0
 11 10  1  0
 12 11  2  0
 12  7  1  0
 13 14  2  0
 16 15  1  6
 16 17  1  0
 18 16  1  0
 19 13  1  0
 18 19  1  1
 20 22  1  0
 20 18  1  0
 21 20  2  0
 23 22  1  0
 23 27  1  0
 23 24  1  6
 25 26  2  0
 25 24  1  0
 27 30  1  0
 28 27  2  0
 29 25  1  0
M  END
$$$$
