WVD.pdb
     RDKit          3D

 30 31  0  0  1  0  0  0  0  0999 V2000
   27.8575  -20.6669  -16.0875 N   0  0  0  0  0  0  0  0  0  0  0  0
   27.1444  -19.8305  -15.1352 C   0  0  1  0  0  0  0  0  0  0  0  0
   26.2723  -18.8629  -15.9069 C   0  0  0  0  0  0  0  0  0  0  0  0
   27.0626  -17.9017  -16.6917 C   0  0  0  0  0  0  0  0  0  0  0  0
   26.5985  -16.9684  -17.6001 C   0  0  0  0  0  0  0  0  0  0  0  0
   27.6197  -16.2685  -18.1223 N   0  0  0  0  0  0  0  0  0  0  0  0
   28.7350  -16.7540  -17.5481 C   0  0  0  0  0  0  0  0  0  0  0  0
   30.0514  -16.3416  -17.7708 C   0  0  0  0  0  0  0  0  0  0  0  0
   31.0727  -16.9734  -17.0717 C   0  0  0  0  0  0  0  0  0  0  0  0
   30.7820  -17.9839  -16.1803 C   0  0  0  0  0  0  0  0  0  0  0  0
   29.4728  -18.3619  -15.9882 C   0  0  0  0  0  0  0  0  0  0  0  0
   28.4194  -17.7669  -16.6574 C   0  0  0  0  0  0  0  0  0  0  0  0
   26.3335  -20.6669  -14.2101 C   0  0  0  0  0  0  0  0  0  0  0  0
   25.9551  -21.8332  -14.4794 O   0  0  0  0  0  0  0  0  0  0  0  0
   24.5751  -21.0633   -9.6635 C   0  0  0  0  0  0  0  0  0  0  0  0
   25.5849  -20.5713  -10.6563 C   0  0  1  0  0  0  0  0  0  0  0  0
   26.9927  -20.9471  -10.3651 C   0  0  0  0  0  0  0  0  0  0  0  0
   25.1031  -20.9269  -12.0480 C   0  0  2  0  0  0  0  0  0  0  0  0
   25.9580  -20.1344  -12.9489 N   0  0  0  0  0  0  0  0  0  0  0  0
   23.7050  -20.5597  -12.3007 C   0  0  0  0  0  0  0  0  0  0  0  0
   23.3267  -19.3377  -12.3521 O   0  0  0  0  0  0  0  0  0  0  0  0
   22.6662  -21.5060  -12.5071 N   0  0  0  0  0  0  0  0  0  0  0  0
   21.2802  -21.0959  -12.7919 C   0  0  1  0  0  0  0  0  0  0  0  0
   20.7455  -21.9902  -13.8577 C   0  0  0  0  0  0  0  0  0  0  0  0
   19.3401  -21.7843  -14.2132 C   0  0  0  0  0  0  0  0  0  0  0  0
   18.7178  -20.8221  -13.6939 O   0  0  0  0  0  0  0  0  0  0  0  0
   20.4942  -21.1470  -11.5373 C   0  0  0  0  0  0  0  0  0  0  0  0
   20.6999  -22.0720  -10.7230 O   0  0  0  0  0  0  0  0  0  0  0  0
   18.6482  -22.5950  -15.0966 O   0  0  0  0  0  0  0  0  0  0  0  0
   19.5479  -20.1825  -11.2748 O   0  0  0  0  0  0  0  0  0  0  0  0
  2  1  1  6
  2  3  1  0
  2 13  1  0
  3  4  1  0
  4  5  2  0
  4 12  1  0
  5  6  1  0
  6  7  1  0
  7  8  2  0
  8  9  1  0
 10  9  2  0
 11 10  1  0
 12 11  2  0
 12  7  1  0
 13 14  2  0
 16 15  1  1
 16 17  1  0
 18 16  1  0
 19 13  1  0
 18 19  1  6
 20 22  1  0
 20 18  1  0
 21 20  2  0
 23 22  1  0
 23 27  1  0
 23 24  1  6
 25 26  2  0
 25 24  1  0
 27 30  1  0
 28 27  2  0
 29 25  1  0
M  END
$$$$
