KWQ.pdb
     RDKit          3D

 33 34  0  0  1  0  0  0  0  0999 V2000
   26.9763  -19.4728  -13.0682 N   0  0  0  0  0  0  0  0  0  0  0  0
   26.8073  -20.9321  -13.0101 C   0  0  1  0  0  0  0  0  0  0  0  0
   28.1471  -21.5133  -13.2621 C   0  0  0  0  0  0  0  0  0  0  0  0
   28.6718  -21.1983  -14.6096 C   0  0  0  0  0  0  0  0  0  0  0  0
   27.8624  -21.4050  -15.8020 C   0  0  0  0  0  0  0  0  0  0  0  0
   28.3500  -21.1754  -17.1673 C   0  0  0  0  0  0  0  0  0  0  0  0
   27.2428  -21.4570  -18.1434 N   0  0  0  0  0  0  0  0  0  0  0  0
   26.3034  -21.2749  -11.6381 C   0  0  0  0  0  0  0  0  0  0  0  0
   26.3087  -22.4680  -11.2682 O   0  0  0  0  0  0  0  0  0  0  0  0
   25.8244  -20.2920  -10.7546 N   0  0  0  0  0  0  0  0  0  0  0  0
   25.2507  -20.7036   -9.4854 C   0  0  1  0  0  0  0  0  0  0  0  0
   25.7999  -19.9110   -8.3351 C   0  0  0  0  0  0  0  0  0  0  0  0
   27.1589  -20.2175   -7.9113 C   0  0  0  0  0  0  0  0  0  0  0  0
   28.2235  -20.8187   -8.5332 C   0  0  0  0  0  0  0  0  0  0  0  0
   29.2372  -20.8352   -7.6716 N   0  0  0  0  0  0  0  0  0  0  0  0
   28.8911  -20.2708   -6.5055 C   0  0  0  0  0  0  0  0  0  0  0  0
   29.5772  -20.0529   -5.3144 C   0  0  0  0  0  0  0  0  0  0  0  0
   28.9294  -19.4349   -4.2672 C   0  0  0  0  0  0  0  0  0  0  0  0
   27.6207  -19.0172   -4.3420 C   0  0  0  0  0  0  0  0  0  0  0  0
   26.9749  -19.2525   -5.5445 C   0  0  0  0  0  0  0  0  0  0  0  0
   27.5904  -19.8691   -6.6162 C   0  0  0  0  0  0  0  0  0  0  0  0
   23.7877  -20.8134   -9.5448 C   0  0  0  0  0  0  0  0  0  0  0  0
   23.1614  -20.0339  -10.3152 O   0  0  0  0  0  0  0  0  0  0  0  0
   18.9982  -23.8332   -5.6586 N   0  0  0  0  0  0  0  0  0  0  0  0
   19.1762  -24.0670   -7.0449 C   0  0  0  0  0  0  0  0  0  0  0  0
   19.0037  -25.2098   -7.5146 O   0  0  0  0  0  0  0  0  0  0  0  0
   19.5664  -22.9560   -7.9398 C   0  0  0  0  0  0  0  0  0  0  0  0
   21.0610  -22.8429   -7.9486 C   0  0  0  0  0  0  0  0  0  0  0  0
   21.5430  -21.7704   -8.8980 C   0  0  2  0  0  0  0  0  0  0  0  0
   23.0051  -21.7323   -8.8031 N   0  0  0  0  0  0  0  0  0  0  0  0
   20.9484  -20.4765   -8.5891 C   0  0  0  0  0  0  0  0  0  0  0  0
   21.5406  -19.7590   -7.7162 O   0  0  0  0  0  0  0  0  0  0  0  0
   19.8002  -19.9554   -9.1566 O   0  0  0  0  0  0  0  0  0  0  0  0
  2  1  1  1
  2  3  1  0
  3  4  1  0
  5  6  1  0
  5  4  1  0
  7  6  1  0
  8  2  1  0
  9  8  2  0
 10  8  1  0
 11 22  1  0
 11 10  1  0
 11 12  1  1
 13 12  1  0
 14 13  2  0
 15 16  1  0
 15 14  1  0
 16 21  2  0
 17 18  2  0
 17 16  1  0
 18 19  1  0
 19 20  2  0
 21 20  1  0
 21 13  1  0
 22 30  1  0
 23 22  2  0
 25 24  1  0
 25 27  1  0
 26 25  2  0
 29 28  1  1
 28 27  1  0
 29 31  1  0
 30 29  1  0
 31 32  2  0
 31 33  1  0
M  END
$$$$
