KWQ.pdb
     RDKit          3D

 33 34  0  0  1  0  0  0  0  0999 V2000
   28.5235  -22.3070  -16.1271 N   0  0  0  0  0  0  0  0  0  0  0  0
   28.3197  -20.9677  -15.5561 C   0  0  1  0  0  0  0  0  0  0  0  0
   27.6924  -20.1543  -16.6244 C   0  0  0  0  0  0  0  0  0  0  0  0
   28.6272  -19.8175  -17.7212 C   0  0  0  0  0  0  0  0  0  0  0  0
   29.6057  -20.7824  -18.2020 C   0  0  0  0  0  0  0  0  0  0  0  0
   30.5433  -20.5140  -19.2991 C   0  0  0  0  0  0  0  0  0  0  0  0
   31.4295  -21.7110  -19.4981 N   0  0  0  0  0  0  0  0  0  0  0  0
   27.4140  -21.1155  -14.3679 C   0  0  0  0  0  0  0  0  0  0  0  0
   26.2325  -21.4803  -14.5447 O   0  0  0  0  0  0  0  0  0  0  0  0
   27.8559  -20.8551  -13.0590 N   0  0  0  0  0  0  0  0  0  0  0  0
   26.9595  -21.1173  -11.9468 C   0  0  1  0  0  0  0  0  0  0  0  0
   27.6632  -21.0330  -10.6236 C   0  0  0  0  0  0  0  0  0  0  0  0
   26.8305  -20.8454   -9.4438 C   0  0  0  0  0  0  0  0  0  0  0  0
   25.5144  -21.1187   -9.1702 C   0  0  0  0  0  0  0  0  0  0  0  0
   25.2765  -20.7423   -7.9163 N   0  0  0  0  0  0  0  0  0  0  0  0
   26.3778  -20.2315   -7.3467 C   0  0  0  0  0  0  0  0  0  0  0  0
   26.6392  -19.7082   -6.0839 C   0  0  0  0  0  0  0  0  0  0  0  0
   27.9046  -19.2467   -5.7946 C   0  0  0  0  0  0  0  0  0  0  0  0
   28.9360  -19.2780   -6.7046 C   0  0  0  0  0  0  0  0  0  0  0  0
   28.6339  -19.8068   -7.9485 C   0  0  0  0  0  0  0  0  0  0  0  0
   27.3778  -20.2789   -8.2758 C   0  0  0  0  0  0  0  0  0  0  0  0
   25.7049  -20.3617  -12.0522 C   0  0  0  0  0  0  0  0  0  0  0  0
   25.7729  -19.1147  -12.2363 O   0  0  0  0  0  0  0  0  0  0  0  0
   23.1144  -18.7553  -15.9996 N   0  0  0  0  0  0  0  0  0  0  0  0
   21.8451  -18.7660  -15.3696 C   0  0  0  0  0  0  0  0  0  0  0  0
   20.8693  -18.2144  -15.9173 O   0  0  0  0  0  0  0  0  0  0  0  0
   21.6730  -19.4322  -14.0603 C   0  0  0  0  0  0  0  0  0  0  0  0
   22.9504  -20.1283  -13.6993 C   0  0  0  0  0  0  0  0  0  0  0  0
   23.1965  -20.1243  -12.2082 C   0  0  2  0  0  0  0  0  0  0  0  0
   24.4048  -20.9177  -11.9658 N   0  0  0  0  0  0  0  0  0  0  0  0
   22.0509  -20.6486  -11.4759 C   0  0  0  0  0  0  0  0  0  0  0  0
   22.0979  -21.8741  -11.1246 O   0  0  0  0  0  0  0  0  0  0  0  0
   20.9172  -19.9381  -11.1270 O   0  0  0  0  0  0  0  0  0  0  0  0
  2  1  1  6
  2  3  1  0
  3  4  1  0
  5  6  1  0
  5  4  1  0
  7  6  1  0
  8  2  1  0
  9  8  2  0
 10  8  1  0
 11 22  1  0
 11 10  1  0
 11 12  1  1
 13 12  1  0
 14 13  2  0
 15 16  1  0
 15 14  1  0
 16 21  2  0
 17 18  2  0
 17 16  1  0
 18 19  1  0
 19 20  2  0
 21 20  1  0
 21 13  1  0
 22 30  1  0
 23 22  2  0
 25 24  1  0
 25 27  1  0
 26 25  2  0
 29 28  1  6
 28 27  1  0
 29 31  1  0
 30 29  1  0
 31 32  2  0
 31 33  1  0
M  END
$$$$
