KWQ.pdb
     RDKit          3D

 33 34  0  0  1  0  0  0  0  0999 V2000
   26.1853  -22.8422  -14.9945 N   0  0  0  0  0  0  0  0  0  0  0  0
   26.4350  -21.5890  -14.2674 C   0  0  1  0  0  0  0  0  0  0  0  0
   25.8632  -20.5062  -15.1021 C   0  0  0  0  0  0  0  0  0  0  0  0
   25.9431  -20.7885  -16.5527 C   0  0  0  0  0  0  0  0  0  0  0  0
   24.8556  -20.4311  -17.4522 C   0  0  0  0  0  0  0  0  0  0  0  0
   24.3655  -19.0593  -17.6332 C   0  0  0  0  0  0  0  0  0  0  0  0
   23.3236  -19.0436  -18.7157 N   0  0  0  0  0  0  0  0  0  0  0  0
   25.7416  -21.6904  -12.9398 C   0  0  0  0  0  0  0  0  0  0  0  0
   25.0583  -22.7048  -12.6858 O   0  0  0  0  0  0  0  0  0  0  0  0
   25.8377  -20.6762  -11.9711 N   0  0  0  0  0  0  0  0  0  0  0  0
   25.2520  -20.8951  -10.6602 C   0  0  1  0  0  0  0  0  0  0  0  0
   25.9607  -20.1181   -9.5892 C   0  0  0  0  0  0  0  0  0  0  0  0
   27.2926  -20.5729   -9.2153 C   0  0  0  0  0  0  0  0  0  0  0  0
   28.2430  -21.3248   -9.8580 C   0  0  0  0  0  0  0  0  0  0  0  0
   29.2903  -21.4323   -9.0444 N   0  0  0  0  0  0  0  0  0  0  0  0
   29.0756  -20.7842   -7.8902 C   0  0  0  0  0  0  0  0  0  0  0  0
   29.8434  -20.6059   -6.7432 C   0  0  0  0  0  0  0  0  0  0  0  0
   29.3301  -19.8721   -5.6963 C   0  0  0  0  0  0  0  0  0  0  0  0
   28.0796  -19.2996   -5.7293 C   0  0  0  0  0  0  0  0  0  0  0  0
   27.3490  -19.5005   -6.8887 C   0  0  0  0  0  0  0  0  0  0  0  0
   27.8292  -20.2299   -7.9587 C   0  0  0  0  0  0  0  0  0  0  0  0
   23.7889  -20.7724  -10.6762 C   0  0  0  0  0  0  0  0  0  0  0  0
   23.2685  -19.9390  -11.4686 O   0  0  0  0  0  0  0  0  0  0  0  0
   19.6912  -23.7706   -7.0276 N   0  0  0  0  0  0  0  0  0  0  0  0
   18.7983  -23.1044   -7.9033 C   0  0  0  0  0  0  0  0  0  0  0  0
   17.5659  -23.2139   -7.7436 O   0  0  0  0  0  0  0  0  0  0  0  0
   19.3251  -22.2760   -9.0097 C   0  0  0  0  0  0  0  0  0  0  0  0
   20.8171  -22.1984   -8.8890 C   0  0  0  0  0  0  0  0  0  0  0  0
   21.4430  -21.4674  -10.0543 C   0  0  2  0  0  0  0  0  0  0  0  0
   22.8960  -21.5197   -9.8692 N   0  0  0  0  0  0  0  0  0  0  0  0
   20.9600  -20.0957  -10.1465 C   0  0  0  0  0  0  0  0  0  0  0  0
   19.9490  -19.8854  -10.8956 O   0  0  0  0  0  0  0  0  0  0  0  0
   21.4980  -19.0010   -9.4955 O   0  0  0  0  0  0  0  0  0  0  0  0
  2  1  1  6
  2  3  1  0
  3  4  1  0
  5  6  1  0
  5  4  1  0
  7  6  1  0
  8  2  1  0
  9  8  2  0
 10  8  1  0
 11 22  1  0
 11 10  1  0
 11 12  1  1
 13 12  1  0
 14 13  2  0
 15 16  1  0
 15 14  1  0
 16 21  2  0
 17 18  2  0
 17 16  1  0
 18 19  1  0
 19 20  2  0
 21 20  1  0
 21 13  1  0
 22 30  1  0
 23 22  2  0
 25 24  1  0
 25 27  1  0
 26 25  2  0
 29 28  1  1
 28 27  1  0
 29 31  1  0
 30 29  1  0
 31 32  2  0
 31 33  1  0
M  END
$$$$
