KWQ.pdb
     RDKit          3D

 33 34  0  0  1  0  0  0  0  0999 V2000
   27.9702  -22.4904  -15.5543 N   0  0  0  0  0  0  0  0  0  0  0  0
   28.1919  -21.2788  -14.7515 C   0  0  1  0  0  0  0  0  0  0  0  0
   27.7153  -20.1437  -15.5766 C   0  0  0  0  0  0  0  0  0  0  0  0
   26.8705  -20.5688  -16.7150 C   0  0  0  0  0  0  0  0  0  0  0  0
   27.4014  -20.6244  -18.0694 C   0  0  0  0  0  0  0  0  0  0  0  0
   26.5736  -20.8515  -19.2602 C   0  0  0  0  0  0  0  0  0  0  0  0
   26.1936  -22.3035  -19.3306 N   0  0  0  0  0  0  0  0  0  0  0  0
   27.3924  -21.4203  -13.4887 C   0  0  0  0  0  0  0  0  0  0  0  0
   26.2520  -21.9270  -13.5439 O   0  0  0  0  0  0  0  0  0  0  0  0
   27.8889  -20.9989  -12.2430 N   0  0  0  0  0  0  0  0  0  0  0  0
   27.0547  -21.1493  -11.0637 C   0  0  1  0  0  0  0  0  0  0  0  0
   27.8329  -20.9583   -9.7944 C   0  0  0  0  0  0  0  0  0  0  0  0
   27.0653  -20.7838   -8.5694 C   0  0  0  0  0  0  0  0  0  0  0  0
   25.7286  -20.8807   -8.2768 C   0  0  0  0  0  0  0  0  0  0  0  0
   25.5797  -20.6214   -6.9803 N   0  0  0  0  0  0  0  0  0  0  0  0
   26.7595  -20.3569   -6.4005 C   0  0  0  0  0  0  0  0  0  0  0  0
   27.1268  -20.0316   -5.0981 C   0  0  0  0  0  0  0  0  0  0  0  0
   28.4550  -19.8080   -4.8087 C   0  0  0  0  0  0  0  0  0  0  0  0
   29.4491  -19.8915   -5.7561 C   0  0  0  0  0  0  0  0  0  0  0  0
   29.0411  -20.2181   -7.0387 C   0  0  0  0  0  0  0  0  0  0  0  0
   27.7197  -20.4491   -7.3675 C   0  0  0  0  0  0  0  0  0  0  0  0
   25.8029  -20.3886  -11.1660 C   0  0  0  0  0  0  0  0  0  0  0  0
   25.8601  -19.1985  -11.5829 O   0  0  0  0  0  0  0  0  0  0  0  0
   23.6498  -18.2953  -14.4746 N   0  0  0  0  0  0  0  0  0  0  0  0
   22.2941  -18.6122  -14.2111 C   0  0  0  0  0  0  0  0  0  0  0  0
   21.3812  -17.9314  -14.7206 O   0  0  0  0  0  0  0  0  0  0  0  0
   21.9568  -19.7522  -13.3312 C   0  0  0  0  0  0  0  0  0  0  0  0
   23.2247  -20.3269  -12.7753 C   0  0  0  0  0  0  0  0  0  0  0  0
   23.2867  -20.2128  -11.2697 C   0  0  2  0  0  0  0  0  0  0  0  0
   24.5166  -20.8807  -10.8343 N   0  0  0  0  0  0  0  0  0  0  0  0
   22.1066  -20.7917  -10.6406 C   0  0  0  0  0  0  0  0  0  0  0  0
   21.2130  -19.9811  -10.2263 O   0  0  0  0  0  0  0  0  0  0  0  0
   21.8674  -22.1404  -10.4522 O   0  0  0  0  0  0  0  0  0  0  0  0
  2  1  1  6
  2  3  1  0
  3  4  1  0
  5  6  1  0
  5  4  1  0
  7  6  1  0
  8  2  1  0
  9  8  2  0
 10  8  1  0
 11 22  1  0
 11 10  1  0
 11 12  1  1
 13 12  1  0
 14 13  2  0
 15 16  1  0
 15 14  1  0
 16 21  2  0
 17 18  2  0
 17 16  1  0
 18 19  1  0
 19 20  2  0
 21 20  1  0
 21 13  1  0
 22 30  1  0
 23 22  2  0
 25 24  1  0
 25 27  1  0
 26 25  2  0
 29 28  1  6
 28 27  1  0
 29 31  1  0
 30 29  1  0
 31 32  2  0
 31 33  1  0
M  END
$$$$
