KWQ.pdb
     RDKit          3D

 33 34  0  0  1  0  0  0  0  0999 V2000
   25.7456  -24.9951  -15.6664 N   0  0  0  0  0  0  0  0  0  0  0  0
   26.2226  -23.7243  -16.2312 C   0  0  1  0  0  0  0  0  0  0  0  0
   25.9702  -23.7999  -17.6896 C   0  0  0  0  0  0  0  0  0  0  0  0
   26.8957  -24.7169  -18.3915 C   0  0  0  0  0  0  0  0  0  0  0  0
   27.6803  -24.2692  -19.5333 C   0  0  0  0  0  0  0  0  0  0  0  0
   28.6255  -25.1266  -20.2587 C   0  0  0  0  0  0  0  0  0  0  0  0
   29.2721  -24.3325  -21.3583 N   0  0  0  0  0  0  0  0  0  0  0  0
   25.4346  -22.6197  -15.5888 C   0  0  0  0  0  0  0  0  0  0  0  0
   24.2032  -22.7608  -15.4339 O   0  0  0  0  0  0  0  0  0  0  0  0
   26.0416  -21.4282  -15.1552 N   0  0  0  0  0  0  0  0  0  0  0  0
   25.2267  -20.4184  -14.5028 C   0  0  1  0  0  0  0  0  0  0  0  0
   25.9705  -19.7175  -13.4034 C   0  0  0  0  0  0  0  0  0  0  0  0
   26.1774  -20.4606  -12.1683 C   0  0  0  0  0  0  0  0  0  0  0  0
   27.2620  -21.1063  -11.6313 C   0  0  0  0  0  0  0  0  0  0  0  0
   26.8878  -21.6190  -10.4619 N   0  0  0  0  0  0  0  0  0  0  0  0
   25.6024  -21.3411  -10.2001 C   0  0  0  0  0  0  0  0  0  0  0  0
   24.7613  -21.6485   -9.1348 C   0  0  0  0  0  0  0  0  0  0  0  0
   23.4549  -21.2120   -9.1601 C   0  0  0  0  0  0  0  0  0  0  0  0
   22.9340  -20.4776  -10.2003 C   0  0  0  0  0  0  0  0  0  0  0  0
   23.8041  -20.1930  -11.2396 C   0  0  0  0  0  0  0  0  0  0  0  0
   25.1197  -20.6133  -11.2503 C   0  0  0  0  0  0  0  0  0  0  0  0
   24.5414  -19.5476  -15.4663 C   0  0  0  0  0  0  0  0  0  0  0  0
   25.2088  -19.0853  -16.4328 O   0  0  0  0  0  0  0  0  0  0  0  0
   18.9300  -19.4193  -17.0557 N   0  0  0  0  0  0  0  0  0  0  0  0
   19.4028  -18.5183  -18.0420 C   0  0  0  0  0  0  0  0  0  0  0  0
   18.5949  -17.8925  -18.7576 O   0  0  0  0  0  0  0  0  0  0  0  0
   20.8565  -18.3163  -18.2256 C   0  0  0  0  0  0  0  0  0  0  0  0
   21.5917  -19.1307  -17.2044 C   0  0  0  0  0  0  0  0  0  0  0  0
   22.5602  -18.2933  -16.4016 C   0  0  2  0  0  0  0  0  0  0  0  0
   23.1756  -19.1762  -15.4065 N   0  0  0  0  0  0  0  0  0  0  0  0
   21.8945  -17.1576  -15.7769 C   0  0  0  0  0  0  0  0  0  0  0  0
   21.2816  -17.3756  -14.6795 O   0  0  0  0  0  0  0  0  0  0  0  0
   21.8670  -15.8644  -16.2656 O   0  0  0  0  0  0  0  0  0  0  0  0
  2  1  1  1
  2  3  1  0
  3  4  1  0
  5  6  1  0
  5  4  1  0
  7  6  1  0
  8  2  1  0
  9  8  2  0
 10  8  1  0
 11 22  1  0
 11 10  1  0
 11 12  1  1
 13 12  1  0
 14 13  2  0
 15 16  1  0
 15 14  1  0
 16 21  2  0
 17 18  2  0
 17 16  1  0
 18 19  1  0
 19 20  2  0
 21 20  1  0
 21 13  1  0
 22 30  1  0
 23 22  2  0
 25 24  1  0
 25 27  1  0
 26 25  2  0
 29 28  1  1
 28 27  1  0
 29 31  1  0
 30 29  1  0
 31 32  2  0
 31 33  1  0
M  END
$$$$
