KWQ.pdb
     RDKit          3D

 33 34  0  0  1  0  0  0  0  0999 V2000
   26.7041  -17.7319  -17.3718 N   0  0  0  0  0  0  0  0  0  0  0  0
   25.8519  -18.8209  -17.8712 C   0  0  1  0  0  0  0  0  0  0  0  0
   26.6917  -19.6074  -18.8052 C   0  0  0  0  0  0  0  0  0  0  0  0
   27.2594  -18.7917  -19.9018 C   0  0  0  0  0  0  0  0  0  0  0  0
   28.4902  -18.0354  -19.7206 C   0  0  0  0  0  0  0  0  0  0  0  0
   29.1441  -17.2747  -20.7923 C   0  0  0  0  0  0  0  0  0  0  0  0
   28.3022  -16.0788  -21.1366 N   0  0  0  0  0  0  0  0  0  0  0  0
   25.4236  -19.6392  -16.6876 C   0  0  0  0  0  0  0  0  0  0  0  0
   24.7759  -20.6904  -16.8767 O   0  0  0  0  0  0  0  0  0  0  0  0
   25.7297  -19.2577  -15.3697 N   0  0  0  0  0  0  0  0  0  0  0  0
   25.3385  -20.1278  -14.2746 C   0  0  1  0  0  0  0  0  0  0  0  0
   26.2590  -19.9994  -13.0960 C   0  0  0  0  0  0  0  0  0  0  0  0
   26.0085  -20.8800  -11.9637 C   0  0  0  0  0  0  0  0  0  0  0  0
   25.7072  -22.2143  -11.8604 C   0  0  0  0  0  0  0  0  0  0  0  0
   25.5858  -22.5013  -10.5668 N   0  0  0  0  0  0  0  0  0  0  0  0
   25.7938  -21.4155   -9.8080 C   0  0  0  0  0  0  0  0  0  0  0  0
   25.7775  -21.1993   -8.4333 C   0  0  0  0  0  0  0  0  0  0  0  0
   26.0336  -19.9360   -7.9469 C   0  0  0  0  0  0  0  0  0  0  0  0
   26.3080  -18.8637   -8.7640 C   0  0  0  0  0  0  0  0  0  0  0  0
   26.3149  -19.1219  -10.1247 C   0  0  0  0  0  0  0  0  0  0  0  0
   26.0628  -20.3742  -10.6500 C   0  0  0  0  0  0  0  0  0  0  0  0
   23.9034  -20.0379  -13.9770 C   0  0  0  0  0  0  0  0  0  0  0  0
   23.3930  -18.8916  -13.8397 O   0  0  0  0  0  0  0  0  0  0  0  0
   19.6237  -24.5362  -14.4151 N   0  0  0  0  0  0  0  0  0  0  0  0
   18.8179  -23.4743  -13.9344 C   0  0  0  0  0  0  0  0  0  0  0  0
   17.5842  -23.6243  -13.8247 O   0  0  0  0  0  0  0  0  0  0  0  0
   19.4373  -22.1843  -13.5606 C   0  0  0  0  0  0  0  0  0  0  0  0
   20.9177  -22.2771  -13.7762 C   0  0  0  0  0  0  0  0  0  0  0  0
   21.6204  -20.9790  -13.4522 C   0  0  2  0  0  0  0  0  0  0  0  0
   23.0274  -21.1414  -13.8295 N   0  0  0  0  0  0  0  0  0  0  0  0
   21.4761  -20.6298  -12.0449 C   0  0  0  0  0  0  0  0  0  0  0  0
   20.6713  -19.6814  -11.7616 O   0  0  0  0  0  0  0  0  0  0  0  0
   22.1323  -21.2335  -10.9881 O   0  0  0  0  0  0  0  0  0  0  0  0
  2  1  1  1
  2  3  1  0
  3  4  1  0
  5  6  1  0
  5  4  1  0
  7  6  1  0
  8  2  1  0
  9  8  2  0
 10  8  1  0
 11 22  1  0
 11 10  1  0
 11 12  1  1
 13 12  1  0
 14 13  2  0
 15 16  1  0
 15 14  1  0
 16 21  2  0
 17 18  2  0
 17 16  1  0
 18 19  1  0
 19 20  2  0
 21 20  1  0
 21 13  1  0
 22 30  1  0
 23 22  2  0
 25 24  1  0
 25 27  1  0
 26 25  2  0
 29 28  1  1
 28 27  1  0
 29 31  1  0
 30 29  1  0
 31 32  2  0
 31 33  1  0
M  END
$$$$
