KWQ.pdb
     RDKit          3D

 33 34  0  0  1  0  0  0  0  0999 V2000
   28.6799  -22.2380  -15.1527 N   0  0  0  0  0  0  0  0  0  0  0  0
   28.3518  -20.9572  -14.5097 C   0  0  1  0  0  0  0  0  0  0  0  0
   27.4836  -20.2268  -15.4632 C   0  0  0  0  0  0  0  0  0  0  0  0
   28.2280  -19.6663  -16.6129 C   0  0  0  0  0  0  0  0  0  0  0  0
   29.3671  -18.7813  -16.4155 C   0  0  0  0  0  0  0  0  0  0  0  0
   30.1481  -18.2012  -17.5147 C   0  0  0  0  0  0  0  0  0  0  0  0
   31.3707  -17.5310  -16.9546 N   0  0  0  0  0  0  0  0  0  0  0  0
   27.6321  -21.2654  -13.2288 C   0  0  0  0  0  0  0  0  0  0  0  0
   26.5179  -21.8281  -13.2768 O   0  0  0  0  0  0  0  0  0  0  0  0
   28.1747  -20.9391  -11.9737 N   0  0  0  0  0  0  0  0  0  0  0  0
   27.3198  -20.9900  -10.8008 C   0  0  1  0  0  0  0  0  0  0  0  0
   28.0398  -20.5517   -9.5588 C   0  0  0  0  0  0  0  0  0  0  0  0
   27.2268  -20.3088   -8.3754 C   0  0  0  0  0  0  0  0  0  0  0  0
   25.8741  -20.2130   -8.1688 C   0  0  0  0  0  0  0  0  0  0  0  0
   25.6793  -19.9827   -6.8729 N   0  0  0  0  0  0  0  0  0  0  0  0
   26.8441  -19.9220   -6.2112 C   0  0  0  0  0  0  0  0  0  0  0  0
   27.1680  -19.7049   -4.8753 C   0  0  0  0  0  0  0  0  0  0  0  0
   28.4925  -19.6960   -4.4961 C   0  0  0  0  0  0  0  0  0  0  0  0
   29.5240  -19.8937   -5.3847 C   0  0  0  0  0  0  0  0  0  0  0  0
   29.1583  -20.1066   -6.7036 C   0  0  0  0  0  0  0  0  0  0  0  0
   27.8421  -20.1223   -7.1219 C   0  0  0  0  0  0  0  0  0  0  0  0
   26.0130  -20.3631  -11.0363 C   0  0  0  0  0  0  0  0  0  0  0  0
   25.9883  -19.2041  -11.5356 O   0  0  0  0  0  0  0  0  0  0  0  0
   23.3875  -20.1411  -15.2533 N   0  0  0  0  0  0  0  0  0  0  0  0
   22.1207  -20.0220  -14.6295 C   0  0  0  0  0  0  0  0  0  0  0  0
   21.1162  -19.7186  -15.3044 O   0  0  0  0  0  0  0  0  0  0  0  0
   21.9852  -20.2579  -13.1757 C   0  0  0  0  0  0  0  0  0  0  0  0
   23.2989  -20.7399  -12.6385 C   0  0  0  0  0  0  0  0  0  0  0  0
   23.4931  -20.3584  -11.1891 C   0  0  2  0  0  0  0  0  0  0  0  0
   24.7580  -20.9544  -10.7495 N   0  0  0  0  0  0  0  0  0  0  0  0
   22.3743  -20.7987  -10.3659 C   0  0  0  0  0  0  0  0  0  0  0  0
   21.2446  -20.2452  -10.5776 O   0  0  0  0  0  0  0  0  0  0  0  0
   22.4260  -21.7626   -9.3759 O   0  0  0  0  0  0  0  0  0  0  0  0
  2  1  1  6
  2  3  1  0
  3  4  1  0
  5  6  1  0
  5  4  1  0
  7  6  1  0
  8  2  1  0
  9  8  2  0
 10  8  1  0
 11 22  1  0
 11 10  1  0
 11 12  1  1
 13 12  1  0
 14 13  2  0
 15 16  1  0
 15 14  1  0
 16 21  2  0
 17 18  2  0
 17 16  1  0
 18 19  1  0
 19 20  2  0
 21 20  1  0
 21 13  1  0
 22 30  1  0
 23 22  2  0
 25 24  1  0
 25 27  1  0
 26 25  2  0
 29 28  1  6
 28 27  1  0
 29 31  1  0
 30 29  1  0
 31 32  2  0
 31 33  1  0
M  END
$$$$
