SKF.pdb
     RDKit          3D

 27 27  0  0  1  0  0  0  0  0999 V2000
   27.1534  -16.5672  -14.0702 O   0  0  0  0  0  0  0  0  0  0  0  0
   28.0321  -17.4146  -14.7549 C   0  0  0  0  0  0  0  0  0  0  0  0
   27.1979  -18.4418  -15.4888 C   0  0  2  0  0  0  0  0  0  0  0  0
   26.2800  -17.7168  -16.3382 N   0  0  0  0  0  0  0  0  0  0  0  0
   26.4449  -19.2522  -14.4775 C   0  0  0  0  0  0  0  0  0  0  0  0
   25.2235  -19.0328  -14.3251 O   0  0  0  0  0  0  0  0  0  0  0  0
   27.0643  -20.2360  -13.7086 N   0  0  0  0  0  0  0  0  0  0  0  0
   26.2508  -21.2153  -12.9862 C   0  0  1  0  0  0  0  0  0  0  0  0
   26.4206  -22.5710  -13.6613 C   0  0  0  0  0  0  0  0  0  0  0  0
   25.1791  -22.9019  -14.4247 C   0  0  0  0  0  0  0  0  0  0  0  0
   24.3431  -24.0034  -13.8351 C   0  0  0  0  0  0  0  0  0  0  0  0
   23.1332  -24.3861  -14.6286 C   0  0  0  0  0  0  0  0  0  0  0  0
   22.3418  -25.4358  -14.0451 N   0  0  0  0  0  0  0  0  0  0  0  0
   26.6564  -21.1716  -11.5841 C   0  0  0  0  0  0  0  0  0  0  0  0
   27.9052  -21.3263  -11.3242 O   0  0  0  0  0  0  0  0  0  0  0  0
   25.8506  -20.9729  -10.4521 N   0  0  0  0  0  0  0  0  0  0  0  0
   26.3673  -20.9875   -9.0646 C   0  0  1  0  0  0  0  0  0  0  0  0
   27.3336  -19.8769   -8.8593 C   0  0  0  0  0  0  0  0  0  0  0  0
   27.8140  -19.8425   -7.4751 C   0  0  0  0  0  0  0  0  0  0  0  0
   28.7943  -20.6858   -6.9735 C   0  0  0  0  0  0  0  0  0  0  0  0
   29.2487  -20.6581   -5.6862 C   0  0  0  0  0  0  0  0  0  0  0  0
   28.7100  -19.7379   -4.8104 C   0  0  0  0  0  0  0  0  0  0  0  0
   27.7379  -18.8742   -5.2383 C   0  0  0  0  0  0  0  0  0  0  0  0
   27.3072  -18.9337   -6.5421 C   0  0  0  0  0  0  0  0  0  0  0  0
   25.2621  -20.9413   -8.1093 C   0  0  0  0  0  0  0  0  0  0  0  0
   24.1940  -20.3008   -8.3778 O   0  0  0  0  0  0  0  0  0  0  0  0
   25.3479  -21.5871   -6.9061 O   0  0  0  0  0  0  0  0  0  0  0  0
  2  1  1  0
  3  2  1  0
  3  4  1  6
  5  3  1  0
  5  6  2  0
  7  5  1  0
  8  7  1  0
  8  9  1  6
 10  9  1  0
 11 10  1  0
 12 11  1  0
 13 12  1  0
 14  8  1  0
 15 14  2  0
 16 14  1  0
 17 25  1  0
 17 16  1  0
 17 18  1  6
 19 18  1  0
 20 19  2  0
 21 20  1  0
 22 21  2  0
 22 23  1  0
 23 24  2  0
 24 19  1  0
 25 27  1  0
 26 25  2  0
M  END
$$$$
