SKF.pdb
     RDKit          3D

 27 27  0  0  1  0  0  0  0  0999 V2000
   38.8819  -20.0922  -18.2253 O   0  0  0  0  0  0  0  0  0  0  0  0
   39.8512  -20.8335  -18.9107 C   0  0  0  0  0  0  0  0  0  0  0  0
   39.6374  -22.2920  -18.5692 C   0  0  2  0  0  0  0  0  0  0  0  0
   40.6989  -23.0385  -19.2060 N   0  0  0  0  0  0  0  0  0  0  0  0
   38.3045  -22.7155  -19.1083 C   0  0  0  0  0  0  0  0  0  0  0  0
   38.1618  -22.8051  -20.3472 O   0  0  0  0  0  0  0  0  0  0  0  0
   37.2284  -23.0098  -18.2727 N   0  0  0  0  0  0  0  0  0  0  0  0
   35.9341  -23.3721  -18.8524 C   0  0  1  0  0  0  0  0  0  0  0  0
   35.4068  -24.5994  -18.1187 C   0  0  0  0  0  0  0  0  0  0  0  0
   35.8148  -25.8315  -18.8598 C   0  0  0  0  0  0  0  0  0  0  0  0
   34.7520  -26.8887  -18.9721 C   0  0  0  0  0  0  0  0  0  0  0  0
   34.9126  -28.0605  -18.0550 C   0  0  0  0  0  0  0  0  0  0  0  0
   33.8355  -29.0123  -18.1053 N   0  0  0  0  0  0  0  0  0  0  0  0
   35.0753  -22.1937  -18.7755 C   0  0  0  0  0  0  0  0  0  0  0  0
   35.1674  -21.4619  -17.7233 O   0  0  0  0  0  0  0  0  0  0  0  0
   34.1430  -21.7346  -19.7191 N   0  0  0  0  0  0  0  0  0  0  0  0
   33.3220  -20.5162  -19.5356 C   0  0  1  0  0  0  0  0  0  0  0  0
   34.0337  -19.3259  -20.0706 C   0  0  0  0  0  0  0  0  0  0  0  0
   33.1878  -18.1307  -20.0068 C   0  0  0  0  0  0  0  0  0  0  0  0
   33.3199  -17.1378  -19.0473 C   0  0  0  0  0  0  0  0  0  0  0  0
   32.5376  -16.0206  -18.9829 C   0  0  0  0  0  0  0  0  0  0  0  0
   31.5443  -15.8490  -19.9251 C   0  0  0  0  0  0  0  0  0  0  0  0
   31.3577  -16.7903  -20.9015 C   0  0  0  0  0  0  0  0  0  0  0  0
   32.1661  -17.9013  -20.9323 C   0  0  0  0  0  0  0  0  0  0  0  0
   32.0056  -20.6926  -20.1455 C   0  0  0  0  0  0  0  0  0  0  0  0
   31.8596  -21.4150  -21.1847 O   0  0  0  0  0  0  0  0  0  0  0  0
   30.8995  -20.0886  -19.6129 O   0  0  0  0  0  0  0  0  0  0  0  0
  2  1  1  0
  3  2  1  0
  3  4  1  6
  5  3  1  0
  5  6  2  0
  7  5  1  0
  8  7  1  0
  8  9  1  1
 10  9  1  0
 11 10  1  0
 12 11  1  0
 13 12  1  0
 14  8  1  0
 15 14  2  0
 16 14  1  0
 17 25  1  0
 17 16  1  0
 17 18  1  6
 19 18  1  0
 20 19  2  0
 21 20  1  0
 22 21  2  0
 22 23  1  0
 23 24  2  0
 24 19  1  0
 25 27  1  0
 26 25  2  0
M  END
$$$$
