SKF.pdb
     RDKit          3D

 27 27  0  0  1  0  0  0  0  0999 V2000
   15.7756  -14.2627  -11.9036 O   0  0  0  0  0  0  0  0  0  0  0  0
   15.6847  -12.8661  -11.8932 C   0  0  0  0  0  0  0  0  0  0  0  0
   14.2832  -12.5024  -11.4539 C   0  0  2  0  0  0  0  0  0  0  0  0
   13.3975  -12.8172  -12.5521 N   0  0  0  0  0  0  0  0  0  0  0  0
   14.2450  -11.0339  -11.1562 C   0  0  0  0  0  0  0  0  0  0  0  0
   14.2121  -10.2304  -12.1136 O   0  0  0  0  0  0  0  0  0  0  0  0
   14.2451  -10.5435   -9.8515 N   0  0  0  0  0  0  0  0  0  0  0  0
   14.2014   -9.0995   -9.6163 C   0  0  1  0  0  0  0  0  0  0  0  0
   13.4361   -8.8474   -8.3227 C   0  0  0  0  0  0  0  0  0  0  0  0
   11.9850   -9.1286   -8.5439 C   0  0  0  0  0  0  0  0  0  0  0  0
   11.0881   -8.8005   -7.3830 C   0  0  0  0  0  0  0  0  0  0  0  0
    9.6307   -9.0587   -7.6047 C   0  0  0  0  0  0  0  0  0  0  0  0
    8.7899   -8.7498   -6.4793 N   0  0  0  0  0  0  0  0  0  0  0  0
   15.5784   -8.6138   -9.6205 C   0  0  0  0  0  0  0  0  0  0  0  0
   16.4104   -9.1865   -8.8263 O   0  0  0  0  0  0  0  0  0  0  0  0
   16.1347   -7.5851  -10.3967 N   0  0  0  0  0  0  0  0  0  0  0  0
   17.5607   -7.1912  -10.3362 C   0  0  1  0  0  0  0  0  0  0  0  0
   18.2806   -7.6616  -11.5486 C   0  0  0  0  0  0  0  0  0  0  0  0
   19.6736   -7.2058  -11.5471 C   0  0  0  0  0  0  0  0  0  0  0  0
   20.6826   -7.7990  -10.8028 C   0  0  0  0  0  0  0  0  0  0  0  0
   21.9826   -7.3817  -10.7983 C   0  0  0  0  0  0  0  0  0  0  0  0
   22.3369   -6.3003  -11.5786 C   0  0  0  0  0  0  0  0  0  0  0  0
   21.3911   -5.6665  -12.3389 C   0  0  0  0  0  0  0  0  0  0  0  0
   20.0929   -6.1169  -12.3163 C   0  0  0  0  0  0  0  0  0  0  0  0
   17.6825   -5.7470  -10.1474 C   0  0  0  0  0  0  0  0  0  0  0  0
   16.9467   -4.9391  -10.8025 O   0  0  0  0  0  0  0  0  0  0  0  0
   18.5872   -5.2296   -9.2610 O   0  0  0  0  0  0  0  0  0  0  0  0
  2  1  1  0
  3  2  1  0
  3  4  1  6
  5  3  1  0
  5  6  2  0
  7  5  1  0
  8  7  1  0
  8  9  1  1
 10  9  1  0
 11 10  1  0
 12 11  1  0
 13 12  1  0
 14  8  1  0
 15 14  2  0
 16 14  1  0
 17 25  1  0
 17 16  1  0
 17 18  1  6
 19 18  1  0
 20 19  2  0
 21 20  1  0
 22 21  2  0
 22 23  1  0
 23 24  2  0
 24 19  1  0
 25 27  1  0
 26 25  2  0
M  END
$$$$
