SKF.pdb
     RDKit          3D

 27 27  0  0  1  0  0  0  0  0999 V2000
   28.9443   -8.8506  -17.4680 O   0  0  0  0  0  0  0  0  0  0  0  0
   28.4864   -9.9836  -16.7857 C   0  0  0  0  0  0  0  0  0  0  0  0
   27.7497  -10.8511  -17.7827 C   0  0  2  0  0  0  0  0  0  0  0  0
   28.5873  -10.9567  -18.9561 N   0  0  0  0  0  0  0  0  0  0  0  0
   26.4521  -10.1836  -18.1254 C   0  0  0  0  0  0  0  0  0  0  0  0
   26.3799   -9.5261  -19.1863 O   0  0  0  0  0  0  0  0  0  0  0  0
   25.3327  -10.2753  -17.3000 N   0  0  0  0  0  0  0  0  0  0  0  0
   24.0855   -9.6147  -17.6883 C   0  0  1  0  0  0  0  0  0  0  0  0
   23.2410  -10.6095  -18.4756 C   0  0  0  0  0  0  0  0  0  0  0  0
   21.9346   -9.9765  -18.8310 C   0  0  0  0  0  0  0  0  0  0  0  0
   20.9928  -10.8526  -19.6090 C   0  0  0  0  0  0  0  0  0  0  0  0
   19.6830  -10.2251  -19.9705 C   0  0  0  0  0  0  0  0  0  0  0  0
   18.8668  -11.0110  -20.8564 N   0  0  0  0  0  0  0  0  0  0  0  0
   23.4614   -9.1075  -16.4696 C   0  0  0  0  0  0  0  0  0  0  0  0
   23.4099   -9.8980  -15.4580 O   0  0  0  0  0  0  0  0  0  0  0  0
   22.9007   -7.8409  -16.2426 N   0  0  0  0  0  0  0  0  0  0  0  0
   22.3327   -7.4161  -14.9429 C   0  0  1  0  0  0  0  0  0  0  0  0
   23.2480   -6.4618  -14.2639 C   0  0  0  0  0  0  0  0  0  0  0  0
   23.4678   -5.2660  -15.0824 C   0  0  0  0  0  0  0  0  0  0  0  0
   22.7526   -4.0863  -14.9391 C   0  0  0  0  0  0  0  0  0  0  0  0
   22.9534   -2.9677  -15.6958 C   0  0  0  0  0  0  0  0  0  0  0  0
   23.9271   -2.9917  -16.6731 C   0  0  0  0  0  0  0  0  0  0  0  0
   24.6713   -4.1239  -16.8695 C   0  0  0  0  0  0  0  0  0  0  0  0
   24.4388   -5.2295  -16.0869 C   0  0  0  0  0  0  0  0  0  0  0  0
   20.9943   -6.8593  -15.1297 C   0  0  0  0  0  0  0  0  0  0  0  0
   20.5469   -6.6142  -16.2971 O   0  0  0  0  0  0  0  0  0  0  0  0
   20.1902   -6.5915  -14.0556 O   0  0  0  0  0  0  0  0  0  0  0  0
  2  1  1  0
  3  2  1  0
  3  4  1  6
  5  3  1  0
  5  6  2  0
  7  5  1  0
  8  7  1  0
  8  9  1  1
 10  9  1  0
 11 10  1  0
 12 11  1  0
 13 12  1  0
 14  8  1  0
 15 14  2  0
 16 14  1  0
 17 25  1  0
 17 16  1  0
 17 18  1  6
 19 18  1  0
 20 19  2  0
 21 20  1  0
 22 21  2  0
 22 23  1  0
 23 24  2  0
 24 19  1  0
 25 27  1  0
 26 25  2  0
M  END
$$$$
