SKF.pdb
     RDKit          3D

 27 27  0  0  1  0  0  0  0  0999 V2000
   26.4115  -16.9919  -15.5802 O   0  0  0  0  0  0  0  0  0  0  0  0
   27.4916  -17.8004  -15.2080 C   0  0  0  0  0  0  0  0  0  0  0  0
   27.7086  -18.8107  -16.3133 C   0  0  2  0  0  0  0  0  0  0  0  0
   27.8084  -18.0720  -17.5519 N   0  0  0  0  0  0  0  0  0  0  0  0
   26.5294  -19.7352  -16.3499 C   0  0  0  0  0  0  0  0  0  0  0  0
   25.5324  -19.4060  -17.0287 O   0  0  0  0  0  0  0  0  0  0  0  0
   26.5143  -20.9424  -15.6532 N   0  0  0  0  0  0  0  0  0  0  0  0
   25.3212  -21.7895  -15.6902 C   0  0  1  0  0  0  0  0  0  0  0  0
   25.7313  -23.2114  -15.3259 C   0  0  0  0  0  0  0  0  0  0  0  0
   26.5457  -23.7909  -16.4370 C   0  0  0  0  0  0  0  0  0  0  0  0
   27.7492  -24.5790  -16.0008 C   0  0  0  0  0  0  0  0  0  0  0  0
   28.6203  -25.0858  -17.1074 C   0  0  0  0  0  0  0  0  0  0  0  0
   29.9053  -25.5727  -16.6827 N   0  0  0  0  0  0  0  0  0  0  0  0
   24.3305  -21.1887  -14.8016 C   0  0  0  0  0  0  0  0  0  0  0  0
   24.7655  -20.5652  -13.7657 O   0  0  0  0  0  0  0  0  0  0  0  0
   22.9326  -21.1931  -14.9289 N   0  0  0  0  0  0  0  0  0  0  0  0
   22.0214  -20.4951  -13.9936 C   0  0  1  0  0  0  0  0  0  0  0  0
   22.1458  -19.0223  -14.1505 C   0  0  0  0  0  0  0  0  0  0  0  0
   21.7756  -18.6012  -15.5047 C   0  0  0  0  0  0  0  0  0  0  0  0
   22.6922  -18.2646  -16.4897 C   0  0  0  0  0  0  0  0  0  0  0  0
   22.3551  -17.8740  -17.7538 C   0  0  0  0  0  0  0  0  0  0  0  0
   21.0198  -17.8028  -18.0941 C   0  0  0  0  0  0  0  0  0  0  0  0
   20.0607  -18.1210  -17.1705 C   0  0  0  0  0  0  0  0  0  0  0  0
   20.4407  -18.5099  -15.9083 C   0  0  0  0  0  0  0  0  0  0  0  0
   20.6474  -20.9563  -14.1820 C   0  0  0  0  0  0  0  0  0  0  0  0
   20.3350  -21.6860  -15.1786 O   0  0  0  0  0  0  0  0  0  0  0  0
   19.6658  -20.6175  -13.2912 O   0  0  0  0  0  0  0  0  0  0  0  0
  2  1  1  0
  3  2  1  0
  3  4  1  6
  5  3  1  0
  5  6  2  0
  7  5  1  0
  8  7  1  0
  8  9  1  1
 10  9  1  0
 11 10  1  0
 12 11  1  0
 13 12  1  0
 14  8  1  0
 15 14  2  0
 16 14  1  0
 17 25  1  0
 17 16  1  0
 17 18  1  6
 19 18  1  0
 20 19  2  0
 21 20  1  0
 22 21  2  0
 22 23  1  0
 23 24  2  0
 24 19  1  0
 25 27  1  0
 26 25  2  0
M  END
$$$$
