SKF.pdb
     RDKit          3D

 27 27  0  0  1  0  0  0  0  0999 V2000
   20.1408  -19.1704  -11.8393 O   0  0  0  0  0  0  0  0  0  0  0  0
   19.9618  -18.8428  -13.1882 C   0  0  0  0  0  0  0  0  0  0  0  0
   20.0025  -20.1310  -13.9809 C   0  0  2  0  0  0  0  0  0  0  0  0
   18.9237  -20.9628  -13.4974 N   0  0  0  0  0  0  0  0  0  0  0  0
   21.3238  -20.7960  -13.7387 C   0  0  0  0  0  0  0  0  0  0  0  0
   21.3820  -21.7233  -12.9021 O   0  0  0  0  0  0  0  0  0  0  0  0
   22.4802  -20.4118  -14.4155 N   0  0  0  0  0  0  0  0  0  0  0  0
   23.7097  -21.1899  -14.2562 C   0  0  1  0  0  0  0  0  0  0  0  0
   24.4651  -21.1691  -15.5797 C   0  0  0  0  0  0  0  0  0  0  0  0
   25.7296  -21.9533  -15.4395 C   0  0  0  0  0  0  0  0  0  0  0  0
   26.5627  -22.0475  -16.6873 C   0  0  0  0  0  0  0  0  0  0  0  0
   27.7848  -22.9048  -16.5801 C   0  0  0  0  0  0  0  0  0  0  0  0
   28.5098  -23.0704  -17.8112 N   0  0  0  0  0  0  0  0  0  0  0  0
   24.4392  -20.6279  -13.1230 C   0  0  0  0  0  0  0  0  0  0  0  0
   24.4544  -19.3485  -13.0048 O   0  0  0  0  0  0  0  0  0  0  0  0
   25.1393  -21.3098  -12.1156 N   0  0  0  0  0  0  0  0  0  0  0  0
   26.1860  -20.6837  -11.2761 C   0  0  1  0  0  0  0  0  0  0  0  0
   26.5411  -21.5741  -10.1400 C   0  0  0  0  0  0  0  0  0  0  0  0
   27.3539  -20.8662   -9.1469 C   0  0  0  0  0  0  0  0  0  0  0  0
   26.8347  -20.0038   -8.1926 C   0  0  0  0  0  0  0  0  0  0  0  0
   27.5850  -19.3429   -7.2629 C   0  0  0  0  0  0  0  0  0  0  0  0
   28.9519  -19.5316   -7.2550 C   0  0  0  0  0  0  0  0  0  0  0  0
   29.5319  -20.3694   -8.1692 C   0  0  0  0  0  0  0  0  0  0  0  0
   28.7421  -21.0166   -9.0891 C   0  0  0  0  0  0  0  0  0  0  0  0
   27.3496  -20.3350  -12.0888 C   0  0  0  0  0  0  0  0  0  0  0  0
   27.9751  -21.2272  -12.7491 O   0  0  0  0  0  0  0  0  0  0  0  0
   27.7920  -19.0424  -12.1617 O   0  0  0  0  0  0  0  0  0  0  0  0
  2  1  1  0
  3  2  1  0
  3  4  1  1
  5  3  1  0
  5  6  2  0
  7  5  1  0
  8  7  1  0
  8  9  1  6
 10  9  1  0
 11 10  1  0
 12 11  1  0
 13 12  1  0
 14  8  1  0
 15 14  2  0
 16 14  1  0
 17 25  1  0
 17 16  1  0
 17 18  1  1
 19 18  1  0
 20 19  2  0
 21 20  1  0
 22 21  2  0
 22 23  1  0
 23 24  2  0
 24 19  1  0
 25 27  1  0
 26 25  2  0
M  END
$$$$
