CLV.pdb
     RDKit          3D

 22 21  0  0  1  0  0  0  0  0999 V2000
   28.4252  -20.6225  -15.7391 N   0  0  0  0  0  0  0  0  0  0  0  0
   27.6416  -19.6520  -14.9673 C   0  0  1  0  0  0  0  0  0  0  0  0
   27.1336  -18.6320  -15.9700 C   0  0  0  0  0  0  0  0  0  0  0  0
   28.4781  -17.4037  -16.1667 S   0  0  0  0  0  0  0  0  0  0  0  0
   26.5658  -20.3393  -14.2478 C   0  0  0  0  0  0  0  0  0  0  0  0
   26.0165  -21.3722  -14.7627 O   0  0  0  0  0  0  0  0  0  0  0  0
   26.8041  -21.5944  -10.4242 C   0  0  0  0  0  0  0  0  0  0  0  0
   25.4712  -21.1088   -9.8923 C   0  0  1  0  0  0  0  0  0  0  0  0
   25.6797  -20.5774   -8.5194 C   0  0  0  0  0  0  0  0  0  0  0  0
   24.9199  -20.1319  -10.8666 C   0  0  0  0  0  0  0  0  0  0  0  0
   25.0728  -20.5388  -12.3080 C   0  0  2  0  0  0  0  0  0  0  0  0
   26.1348  -19.8596  -12.9825 N   0  0  0  0  0  0  0  0  0  0  0  0
   23.7947  -20.1970  -12.9827 C   0  0  0  0  0  0  0  0  0  0  0  0
   23.5503  -19.0049  -13.2572 O   0  0  0  0  0  0  0  0  0  0  0  0
   21.3547  -22.9331  -15.1552 C   0  0  0  0  0  0  0  0  0  0  0  0
   21.4181  -21.4470  -15.2743 C   0  0  2  0  0  0  0  0  0  0  0  0
   22.5407  -21.0716  -16.2096 C   0  0  0  0  0  0  0  0  0  0  0  0
   21.6019  -20.7572  -13.9404 C   0  0  2  0  0  0  0  0  0  0  0  0
   22.8278  -21.1804  -13.3327 N   0  0  0  0  0  0  0  0  0  0  0  0
   20.4588  -21.0376  -13.0308 C   0  0  0  0  0  0  0  0  0  0  0  0
   19.2041  -20.4914  -13.3576 O   0  0  0  0  0  0  0  0  0  0  0  0
   20.5532  -21.7263  -12.0012 O   0  0  0  0  0  0  0  0  0  0  0  0
  2  1  1  6
  2  3  1  0
  3  4  1  0
  5  2  1  0
  6  5  2  0
  8  7  1  6
  8 10  1  0
  9  8  1  0
 11 10  1  1
 11 12  1  0
 11 13  1  0
 12  5  1  0
 13 14  2  0
 16 15  1  1
 17 16  1  0
 18 16  1  0
 19 13  1  0
 18 19  1  1
 20 18  1  0
 20 21  1  0
 22 20  2  0
M  END
$$$$
