CLV.pdb
     RDKit          3D

 22 21  0  0  1  0  0  0  0  0999 V2000
   28.6675  -21.4512  -16.1043 N   0  0  0  0  0  0  0  0  0  0  0  0
   28.2244  -20.3986  -15.1837 C   0  0  1  0  0  0  0  0  0  0  0  0
   27.6595  -19.2912  -16.0545 C   0  0  0  0  0  0  0  0  0  0  0  0
   29.0048  -18.0633  -16.2468 S   0  0  0  0  0  0  0  0  0  0  0  0
   27.2477  -20.9433  -14.2368 C   0  0  0  0  0  0  0  0  0  0  0  0
   26.4298  -21.8483  -14.6184 O   0  0  0  0  0  0  0  0  0  0  0  0
   25.8843  -20.7919   -8.2160 C   0  0  0  0  0  0  0  0  0  0  0  0
   25.4573  -21.1720   -9.6190 C   0  0  1  0  0  0  0  0  0  0  0  0
   24.0664  -20.6917   -9.8321 C   0  0  0  0  0  0  0  0  0  0  0  0
   26.4627  -20.6241  -10.5659 C   0  0  0  0  0  0  0  0  0  0  0  0
   26.2176  -20.9818  -12.0076 C   0  0  2  0  0  0  0  0  0  0  0  0
   27.2098  -20.4674  -12.8992 N   0  0  0  0  0  0  0  0  0  0  0  0
   24.9059  -20.3895  -12.3740 C   0  0  0  0  0  0  0  0  0  0  0  0
   24.7850  -19.1483  -12.4046 O   0  0  0  0  0  0  0  0  0  0  0  0
   21.3219  -20.3762  -15.4206 C   0  0  0  0  0  0  0  0  0  0  0  0
   22.4824  -21.0101  -14.7290 C   0  0  2  0  0  0  0  0  0  0  0  0
   22.3322  -22.5103  -14.7814 C   0  0  0  0  0  0  0  0  0  0  0  0
   22.6333  -20.5537  -13.2945 C   0  0  2  0  0  0  0  0  0  0  0  0
   23.7705  -21.1847  -12.6948 N   0  0  0  0  0  0  0  0  0  0  0  0
   21.4086  -20.8543  -12.5055 C   0  0  0  0  0  0  0  0  0  0  0  0
   20.2420  -20.1210  -12.7900 O   0  0  0  0  0  0  0  0  0  0  0  0
   21.3615  -21.7158  -11.6117 O   0  0  0  0  0  0  0  0  0  0  0  0
  2  1  1  6
  2  3  1  0
  3  4  1  0
  5  2  1  0
  6  5  2  0
  8  7  1  1
  8 10  1  0
  9  8  1  0
 11 10  1  1
 11 12  1  0
 11 13  1  0
 12  5  1  0
 13 14  2  0
 16 15  1  1
 17 16  1  0
 18 16  1  0
 19 13  1  0
 18 19  1  1
 20 18  1  0
 20 21  1  0
 22 20  2  0
M  END
$$$$
