CLV.pdb
     RDKit          3D

 22 21  0  0  1  0  0  0  0  0999 V2000
   27.0431  -20.1555  -16.5741 N   0  0  0  0  0  0  0  0  0  0  0  0
   25.8840  -19.4484  -16.0187 C   0  0  1  0  0  0  0  0  0  0  0  0
   25.0873  -18.9499  -17.2105 C   0  0  0  0  0  0  0  0  0  0  0  0
   23.7372  -17.9215  -16.5216 S   0  0  0  0  0  0  0  0  0  0  0  0
   25.1207  -20.3481  -15.1497 C   0  0  0  0  0  0  0  0  0  0  0  0
   24.9275  -21.5608  -15.5042 O   0  0  0  0  0  0  0  0  0  0  0  0
   25.5377  -20.4821   -9.6703 C   0  0  0  0  0  0  0  0  0  0  0  0
   25.4776  -20.7811  -11.1543 C   0  0  1  0  0  0  0  0  0  0  0  0
   25.9837  -22.1616  -11.3753 C   0  0  0  0  0  0  0  0  0  0  0  0
   24.0841  -20.5425  -11.6115 C   0  0  0  0  0  0  0  0  0  0  0  0
   23.8649  -20.7750  -13.0827 C   0  0  2  0  0  0  0  0  0  0  0  0
   24.5970  -19.8744  -13.9175 N   0  0  0  0  0  0  0  0  0  0  0  0
   22.4151  -20.5719  -13.3324 C   0  0  0  0  0  0  0  0  0  0  0  0
   21.9330  -19.4264  -13.2258 O   0  0  0  0  0  0  0  0  0  0  0  0
   19.9157  -23.3203  -15.4223 C   0  0  0  0  0  0  0  0  0  0  0  0
   19.7071  -21.8536  -15.2428 C   0  0  2  0  0  0  0  0  0  0  0  0
   20.4416  -21.1111  -16.3314 C   0  0  0  0  0  0  0  0  0  0  0  0
   20.1531  -21.3577  -13.8849 C   0  0  2  0  0  0  0  0  0  0  0  0
   21.5442  -21.6383  -13.6914 N   0  0  0  0  0  0  0  0  0  0  0  0
   19.3515  -21.9808  -12.7977 C   0  0  0  0  0  0  0  0  0  0  0  0
   18.0121  -21.5768  -12.6488 O   0  0  0  0  0  0  0  0  0  0  0  0
   19.8009  -22.8361  -12.0168 O   0  0  0  0  0  0  0  0  0  0  0  0
  2  1  1  6
  2  3  1  0
  3  4  1  0
  5  2  1  0
  6  5  2  0
  8  7  1  1
  8 10  1  0
  9  8  1  0
 11 10  1  1
 11 12  1  0
 11 13  1  0
 12  5  1  0
 13 14  2  0
 16 15  1  1
 17 16  1  0
 18 16  1  0
 19 13  1  0
 18 19  1  1
 20 18  1  0
 20 21  1  0
 22 20  2  0
M  END
$$$$
