CLV.pdb
     RDKit          3D

 22 21  0  0  1  0  0  0  0  0999 V2000
   19.1944  -14.1053  -18.8955 N   0  0  0  0  0  0  0  0  0  0  0  0
   19.9973  -12.9445  -19.2952 C   0  0  1  0  0  0  0  0  0  0  0  0
   19.0834  -12.0735  -20.1377 C   0  0  0  0  0  0  0  0  0  0  0  0
   18.8524  -12.9659  -21.7204 S   0  0  0  0  0  0  0  0  0  0  0  0
   20.5112  -12.2604  -18.1056 C   0  0  0  0  0  0  0  0  0  0  0  0
   19.7637  -12.1262  -17.0776 O   0  0  0  0  0  0  0  0  0  0  0  0
   23.6816  -10.9615  -14.3111 C   0  0  0  0  0  0  0  0  0  0  0  0
   24.3146  -10.4053  -15.5702 C   0  0  1  0  0  0  0  0  0  0  0  0
   25.7921  -10.4395  -15.4068 C   0  0  0  0  0  0  0  0  0  0  0  0
   23.7925  -11.1817  -16.7244 C   0  0  0  0  0  0  0  0  0  0  0  0
   22.3057  -11.0648  -16.9300 C   0  0  2  0  0  0  0  0  0  0  0  0
   21.8357  -11.7481  -18.0946 N   0  0  0  0  0  0  0  0  0  0  0  0
   22.0119   -9.6173  -17.0853 C   0  0  0  0  0  0  0  0  0  0  0  0
   22.4575   -9.0082  -18.0785 O   0  0  0  0  0  0  0  0  0  0  0  0
   19.2007   -5.8599  -17.0085 C   0  0  0  0  0  0  0  0  0  0  0  0
   19.5568   -7.2981  -16.8308 C   0  0  2  0  0  0  0  0  0  0  0  0
   18.6080   -7.9254  -15.8397 C   0  0  0  0  0  0  0  0  0  0  0  0
   20.9865   -7.4988  -16.3786 C   0  0  2  0  0  0  0  0  0  0  0  0
   21.2365   -8.8887  -16.1406 N   0  0  0  0  0  0  0  0  0  0  0  0
   21.2748   -6.7114  -15.1500 C   0  0  0  0  0  0  0  0  0  0  0  0
   21.4455   -5.3209  -15.2804 O   0  0  0  0  0  0  0  0  0  0  0  0
   21.3724   -7.2150  -14.0185 O   0  0  0  0  0  0  0  0  0  0  0  0
  2  1  1  1
  2  3  1  0
  3  4  1  0
  5  2  1  0
  6  5  2  0
  8  7  1  1
  8 10  1  0
  9  8  1  0
 11 10  1  6
 11 12  1  0
 11 13  1  0
 12  5  1  0
 13 14  2  0
 16 15  1  1
 17 16  1  0
 18 16  1  0
 19 13  1  0
 18 19  1  1
 20 18  1  0
 20 21  1  0
 22 20  2  0
M  END
$$$$
