CLV.pdb
     RDKit          3D

 22 21  0  0  1  0  0  0  0  0999 V2000
   19.2473  -12.7091  -17.9957 N   0  0  0  0  0  0  0  0  0  0  0  0
   19.7411  -11.3573  -18.2799 C   0  0  1  0  0  0  0  0  0  0  0  0
   18.5314  -10.5539  -18.7213 C   0  0  0  0  0  0  0  0  0  0  0  0
   18.7265  -10.2955  -20.5240 S   0  0  0  0  0  0  0  0  0  0  0  0
   20.3976  -10.8063  -17.0914 C   0  0  0  0  0  0  0  0  0  0  0  0
   19.7772  -10.7886  -15.9741 O   0  0  0  0  0  0  0  0  0  0  0  0
   25.5526  -11.7163  -15.5846 C   0  0  0  0  0  0  0  0  0  0  0  0
   24.0549  -11.4963  -15.5227 C   0  0  1  0  0  0  0  0  0  0  0  0
   23.5753  -11.9104  -14.1776 C   0  0  0  0  0  0  0  0  0  0  0  0
   23.7873  -10.0780  -15.8754 C   0  0  0  0  0  0  0  0  0  0  0  0
   22.3273   -9.7369  -16.0124 C   0  0  2  0  0  0  0  0  0  0  0  0
   21.7190  -10.2936  -17.1803 N   0  0  0  0  0  0  0  0  0  0  0  0
   22.2444   -8.2568  -16.1009 C   0  0  0  0  0  0  0  0  0  0  0  0
   22.6591   -7.6836  -17.1283 O   0  0  0  0  0  0  0  0  0  0  0  0
   20.1766   -4.1052  -15.7608 C   0  0  0  0  0  0  0  0  0  0  0  0
   20.2941   -5.5874  -15.6341 C   0  0  2  0  0  0  0  0  0  0  0  0
   19.2706   -6.0834  -14.6431 C   0  0  0  0  0  0  0  0  0  0  0  0
   21.6782   -6.0345  -15.2178 C   0  0  2  0  0  0  0  0  0  0  0  0
   21.7071   -7.4570  -15.0540 N   0  0  0  0  0  0  0  0  0  0  0  0
   22.0993   -5.3676  -13.9565 C   0  0  0  0  0  0  0  0  0  0  0  0
   22.5287   -4.0296  -14.0272 O   0  0  0  0  0  0  0  0  0  0  0  0
   22.0918   -5.9278  -12.8477 O   0  0  0  0  0  0  0  0  0  0  0  0
  2  1  1  1
  2  3  1  0
  3  4  1  0
  5  2  1  0
  6  5  2  0
  8  7  1  1
  8 10  1  0
  9  8  1  0
 11 10  1  6
 11 12  1  0
 11 13  1  0
 12  5  1  0
 13 14  2  0
 16 15  1  1
 17 16  1  0
 18 16  1  0
 19 13  1  0
 18 19  1  1
 20 18  1  0
 20 21  1  0
 22 20  2  0
M  END
$$$$
