CLV.pdb
     RDKit          3D

 22 21  0  0  1  0  0  0  0  0999 V2000
   28.9971  -21.1523  -16.1836 N   0  0  0  0  0  0  0  0  0  0  0  0
   28.3512  -20.1071  -15.3822 C   0  0  1  0  0  0  0  0  0  0  0  0
   27.6800  -19.1742  -16.3736 C   0  0  0  0  0  0  0  0  0  0  0  0
   28.9323  -17.9092  -16.8051 S   0  0  0  0  0  0  0  0  0  0  0  0
   27.4129  -20.7140  -14.4344 C   0  0  0  0  0  0  0  0  0  0  0  0
   26.8102  -21.7979  -14.7435 O   0  0  0  0  0  0  0  0  0  0  0  0
   25.4375  -22.1762   -9.8026 C   0  0  0  0  0  0  0  0  0  0  0  0
   25.2945  -20.6748   -9.9465 C   0  0  1  0  0  0  0  0  0  0  0  0
   25.3133  -20.0696   -8.5885 C   0  0  0  0  0  0  0  0  0  0  0  0
   26.3658  -20.2002  -10.8601 C   0  0  0  0  0  0  0  0  0  0  0  0
   26.2476  -20.7080  -12.2725 C   0  0  2  0  0  0  0  0  0  0  0  0
   27.1738  -20.1002  -13.1762 N   0  0  0  0  0  0  0  0  0  0  0  0
   24.8705  -20.3850  -12.7251 C   0  0  0  0  0  0  0  0  0  0  0  0
   24.5583  -19.1939  -12.9245 O   0  0  0  0  0  0  0  0  0  0  0  0
   21.0506  -21.6382  -15.3910 C   0  0  0  0  0  0  0  0  0  0  0  0
   22.3536  -21.9370  -14.7280 C   0  0  2  0  0  0  0  0  0  0  0  0
   22.3549  -23.3713  -14.2601 C   0  0  0  0  0  0  0  0  0  0  0  0
   22.6488  -21.0127  -13.5672 C   0  0  2  0  0  0  0  0  0  0  0  0
   23.8827  -21.3856  -12.9431 N   0  0  0  0  0  0  0  0  0  0  0  0
   21.5455  -21.0368  -12.5698 C   0  0  0  0  0  0  0  0  0  0  0  0
   20.3690  -20.3250  -12.8677 O   0  0  0  0  0  0  0  0  0  0  0  0
   21.6078  -21.6501  -11.4913 O   0  0  0  0  0  0  0  0  0  0  0  0
  2  1  1  6
  2  3  1  0
  3  4  1  0
  5  2  1  0
  6  5  2  0
  8  7  1  1
  8 10  1  0
  9  8  1  0
 11 10  1  1
 11 12  1  0
 11 13  1  0
 12  5  1  0
 13 14  2  0
 16 15  1  1
 17 16  1  0
 18 16  1  0
 19 13  1  0
 18 19  1  1
 20 18  1  0
 20 21  1  0
 22 20  2  0
M  END
$$$$
