CLV.pdb
     RDKit          3D

 22 21  0  0  1  0  0  0  0  0999 V2000
   29.2257  -27.5366  -16.2526 N   0  0  0  0  0  0  0  0  0  0  0  0
   28.7928  -26.5938  -17.2896 C   0  0  1  0  0  0  0  0  0  0  0  0
   27.7555  -27.3298  -18.1180 C   0  0  0  0  0  0  0  0  0  0  0  0
   28.6684  -28.6257  -19.0357 S   0  0  0  0  0  0  0  0  0  0  0  0
   28.2741  -25.3725  -16.6678 C   0  0  0  0  0  0  0  0  0  0  0  0
   27.7321  -25.4294  -15.5117 O   0  0  0  0  0  0  0  0  0  0  0  0
   28.2266  -20.3475  -15.2320 C   0  0  0  0  0  0  0  0  0  0  0  0
   27.9525  -20.4271  -16.7199 C   0  0  1  0  0  0  0  0  0  0  0  0
   28.4584  -19.1826  -17.3571 C   0  0  0  0  0  0  0  0  0  0  0  0
   28.5593  -21.6843  -17.2288 C   0  0  0  0  0  0  0  0  0  0  0  0
   27.9308  -22.9407  -16.6874 C   0  0  2  0  0  0  0  0  0  0  0  0
   28.3731  -24.1294  -17.3474 N   0  0  0  0  0  0  0  0  0  0  0  0
   26.4667  -22.8059  -16.8960 C   0  0  0  0  0  0  0  0  0  0  0  0
   25.9981  -22.9552  -18.0424 O   0  0  0  0  0  0  0  0  0  0  0  0
   23.8468  -24.7968  -15.0922 C   0  0  0  0  0  0  0  0  0  0  0  0
   23.4438  -23.3603  -15.0596 C   0  0  2  0  0  0  0  0  0  0  0  0
   21.9511  -23.2592  -15.2533 C   0  0  0  0  0  0  0  0  0  0  0  0
   24.1593  -22.5248  -16.0982 C   0  0  2  0  0  0  0  0  0  0  0  0
   25.5668  -22.5112  -15.8340 N   0  0  0  0  0  0  0  0  0  0  0  0
   23.6318  -21.1342  -16.1227 C   0  0  0  0  0  0  0  0  0  0  0  0
   22.7455  -20.7811  -17.1568 O   0  0  0  0  0  0  0  0  0  0  0  0
   23.9316  -20.2710  -15.2810 O   0  0  0  0  0  0  0  0  0  0  0  0
  2  1  1  1
  2  3  1  0
  3  4  1  0
  5  2  1  0
  6  5  2  0
  8  7  1  1
  8 10  1  0
  9  8  1  0
 11 10  1  6
 11 12  1  0
 11 13  1  0
 12  5  1  0
 13 14  2  0
 16 15  1  6
 17 16  1  0
 18 16  1  0
 19 13  1  0
 18 19  1  1
 20 18  1  0
 20 21  1  0
 22 20  2  0
M  END
$$$$
