CLV.pdb
     RDKit          3D

 22 21  0  0  1  0  0  0  0  0999 V2000
   20.6077  -13.5710  -18.6173 N   0  0  0  0  0  0  0  0  0  0  0  0
   20.6938  -12.1552  -18.9910 C   0  0  1  0  0  0  0  0  0  0  0  0
   19.4515  -11.8628  -19.8127 C   0  0  0  0  0  0  0  0  0  0  0  0
   19.6454  -10.1493  -20.4300 S   0  0  0  0  0  0  0  0  0  0  0  0
   20.7972  -11.3271  -17.7865 C   0  0  0  0  0  0  0  0  0  0  0  0
   19.9588  -11.4835  -16.8346 O   0  0  0  0  0  0  0  0  0  0  0  0
   24.9607  -10.2780  -14.5266 C   0  0  0  0  0  0  0  0  0  0  0  0
   23.5164  -10.4489  -14.9510 C   0  0  1  0  0  0  0  0  0  0  0  0
   22.6715  -10.5010  -13.7286 C   0  0  0  0  0  0  0  0  0  0  0  0
   23.1860   -9.3511  -15.8962 C   0  0  0  0  0  0  0  0  0  0  0  0
   21.8343   -9.4778  -16.5470 C   0  0  2  0  0  0  0  0  0  0  0  0
   21.8256  -10.3537  -17.6770 N   0  0  0  0  0  0  0  0  0  0  0  0
   21.4557   -8.1171  -17.0059 C   0  0  0  0  0  0  0  0  0  0  0  0
   22.0918   -7.5902  -17.9406 O   0  0  0  0  0  0  0  0  0  0  0  0
   18.3926   -6.9829  -18.5524 C   0  0  0  0  0  0  0  0  0  0  0  0
   18.6479   -6.0425  -17.4222 C   0  0  2  0  0  0  0  0  0  0  0  0
   18.2856   -4.6420  -17.8506 C   0  0  0  0  0  0  0  0  0  0  0  0
   20.0799   -6.0820  -16.9359 C   0  0  2  0  0  0  0  0  0  0  0  0
   20.3882   -7.3817  -16.4193 N   0  0  0  0  0  0  0  0  0  0  0  0
   20.3197   -5.0489  -15.8929 C   0  0  0  0  0  0  0  0  0  0  0  0
   20.6495   -3.7476  -16.3143 O   0  0  0  0  0  0  0  0  0  0  0  0
   20.2445   -5.2736  -14.6734 O   0  0  0  0  0  0  0  0  0  0  0  0
  2  1  1  1
  2  3  1  0
  3  4  1  0
  5  2  1  0
  6  5  2  0
  8  7  1  1
  8 10  1  0
  9  8  1  0
 11 10  1  6
 11 12  1  0
 11 13  1  0
 12  5  1  0
 13 14  2  0
 16 15  1  6
 17 16  1  0
 18 16  1  0
 19 13  1  0
 18 19  1  1
 20 18  1  0
 20 21  1  0
 22 20  2  0
M  END
$$$$
