KDI.pdb
     RDKit          3D

 26 25  0  0  1  0  0  0  0  0999 V2000
   17.6522  -13.9111  -18.7022 N   0  0  0  0  0  0  0  0  0  0  0  0
   18.9561  -14.0904  -18.1273 C   0  0  1  0  0  0  0  0  0  0  0  0
   19.8232  -15.1086  -18.7501 C   0  0  0  0  0  0  0  0  0  0  0  0
   19.1911  -16.4534  -18.8240 C   0  0  0  0  0  0  0  0  0  0  0  0
   18.9298  -17.0692  -17.4843 C   0  0  0  0  0  0  0  0  0  0  0  0
   18.3247  -18.4359  -17.6744 C   0  0  0  0  0  0  0  0  0  0  0  0
   19.3989  -19.3730  -17.9233 N   0  0  0  0  0  0  0  0  0  0  0  0
   19.6068  -12.7389  -18.0724 C   0  0  0  0  0  0  0  0  0  0  0  0
   20.8133  -12.5989  -17.7487 O   0  0  0  0  0  0  0  0  0  0  0  0
   18.8762  -11.5417  -18.3885 N   0  0  0  0  0  0  0  0  0  0  0  0
   19.5054  -10.2606  -18.2587 C   0  0  1  0  0  0  0  0  0  0  0  0
   18.5889   -9.2066  -18.8406 C   0  0  0  0  0  0  0  0  0  0  0  0
   18.4334   -9.3305  -20.3122 C   0  0  0  0  0  0  0  0  0  0  0  0
   19.4940   -9.3043  -20.9878 O   0  0  0  0  0  0  0  0  0  0  0  0
   19.7462   -9.8836  -16.8421 C   0  0  0  0  0  0  0  0  0  0  0  0
   18.9735  -10.1709  -15.8940 O   0  0  0  0  0  0  0  0  0  0  0  0
   17.2492   -9.4684  -20.9815 O   0  0  0  0  0  0  0  0  0  0  0  0
   23.8043  -11.7466  -14.5974 C   0  0  0  0  0  0  0  0  0  0  0  0
   22.5611  -11.0207  -14.9422 C   0  0  0  0  0  0  0  0  0  0  0  0
   22.5278   -9.5561  -14.8409 C   0  0  2  0  0  0  0  0  0  0  0  0
   23.1168   -9.1417  -13.4849 C   0  0  0  0  0  0  0  0  0  0  0  0
   21.3016   -8.7917  -15.1518 C   0  0  2  0  0  0  0  0  0  0  0  0
   20.9269   -9.1533  -16.5559 N   0  0  0  0  0  0  0  0  0  0  0  0
   21.3172   -7.3486  -15.0563 C   0  0  0  0  0  0  0  0  0  0  0  0
   20.8991   -6.6488  -13.9581 O   0  0  0  0  0  0  0  0  0  0  0  0
   21.7337   -6.6516  -16.0374 O   0  0  0  0  0  0  0  0  0  0  0  0
  2  1  1  6
  3  4  1  0
  3  2  1  0
  5  4  1  0
  5  6  1  0
  7  6  1  0
  8  2  1  0
  8  9  2  0
 10  8  1  0
 11 10  1  0
 11 12  1  1
 13 12  1  0
 14 13  2  0
 15 11  1  0
 16 15  2  0
 17 13  1  0
 19 18  1  0
 20 19  1  0
 20 22  1  0
 20 21  1  1
 22 24  1  0
 22 23  1  6
 23 15  1  0
 24 25  1  0
 26 24  2  0
M  END
$$$$
