KDI.pdb
     RDKit          3D

 26 25  0  0  1  0  0  0  0  0999 V2000
   28.0583  -20.8563  -15.0918 N   0  0  0  0  0  0  0  0  0  0  0  0
   28.4389  -19.6924  -14.3412 C   0  0  1  0  0  0  0  0  0  0  0  0
   28.6700  -18.4531  -15.1074 C   0  0  0  0  0  0  0  0  0  0  0  0
   27.8292  -18.3528  -16.3307 C   0  0  0  0  0  0  0  0  0  0  0  0
   28.6157  -18.1185  -17.5832 C   0  0  0  0  0  0  0  0  0  0  0  0
   27.6671  -17.9223  -18.7372 C   0  0  0  0  0  0  0  0  0  0  0  0
   28.4474  -17.8483  -19.9536 N   0  0  0  0  0  0  0  0  0  0  0  0
   27.4202  -19.5128  -13.2536 C   0  0  0  0  0  0  0  0  0  0  0  0
   27.4906  -18.5639  -12.4321 O   0  0  0  0  0  0  0  0  0  0  0  0
   26.3159  -20.4211  -13.1033 N   0  0  0  0  0  0  0  0  0  0  0  0
   25.3573  -20.2199  -12.0572 C   0  0  1  0  0  0  0  0  0  0  0  0
   24.0106  -20.7253  -12.5266 C   0  0  0  0  0  0  0  0  0  0  0  0
   22.8857  -20.2067  -11.7075 C   0  0  0  0  0  0  0  0  0  0  0  0
   23.1874  -19.3820  -10.8070 O   0  0  0  0  0  0  0  0  0  0  0  0
   25.6918  -20.9762  -10.8231 C   0  0  0  0  0  0  0  0  0  0  0  0
   26.0350  -22.1847  -10.8070 O   0  0  0  0  0  0  0  0  0  0  0  0
   21.5696  -20.5480  -11.8508 O   0  0  0  0  0  0  0  0  0  0  0  0
   28.8929  -18.9461   -7.0345 C   0  0  0  0  0  0  0  0  0  0  0  0
   28.0863  -19.9211   -7.8027 C   0  0  0  0  0  0  0  0  0  0  0  0
   26.6702  -20.1129   -7.4647 C   0  0  2  0  0  0  0  0  0  0  0  0
   26.5610  -20.4554   -5.9721 C   0  0  0  0  0  0  0  0  0  0  0  0
   25.7955  -20.9801   -8.2818 C   0  0  2  0  0  0  0  0  0  0  0  0
   25.6147  -20.2777   -9.5920 N   0  0  0  0  0  0  0  0  0  0  0  0
   24.4842  -21.3386   -7.7880 C   0  0  0  0  0  0  0  0  0  0  0  0
   24.2259  -22.4538   -7.0396 O   0  0  0  0  0  0  0  0  0  0  0  0
   23.4822  -20.5976   -8.0504 O   0  0  0  0  0  0  0  0  0  0  0  0
  2  1  1  6
  3  4  1  0
  3  2  1  0
  5  4  1  0
  5  6  1  0
  7  6  1  0
  8  2  1  0
  8  9  2  0
 10  8  1  0
 11 10  1  0
 11 12  1  6
 13 12  1  0
 14 13  2  0
 15 11  1  0
 16 15  2  0
 17 13  1  0
 19 18  1  0
 20 19  1  0
 20 22  1  0
 20 21  1  1
 22 24  1  0
 22 23  1  6
 23 15  1  0
 24 25  1  0
 26 24  2  0
M  END
$$$$
