KDI.pdb
     RDKit          3D

 26 25  0  0  1  0  0  0  0  0999 V2000
   18.1229  -19.3713  -13.6292 N   0  0  0  0  0  0  0  0  0  0  0  0
   17.8974  -19.7738  -14.9893 C   0  0  1  0  0  0  0  0  0  0  0  0
   16.4964  -19.8049  -15.4502 C   0  0  0  0  0  0  0  0  0  0  0  0
   15.6867  -20.8695  -14.7987 C   0  0  0  0  0  0  0  0  0  0  0  0
   15.9253  -22.2360  -15.3626 C   0  0  0  0  0  0  0  0  0  0  0  0
   15.0545  -23.2313  -14.6407 C   0  0  0  0  0  0  0  0  0  0  0  0
   15.3207  -24.5435  -15.1896 N   0  0  0  0  0  0  0  0  0  0  0  0
   18.7677  -18.9122  -15.8572 C   0  0  0  0  0  0  0  0  0  0  0  0
   18.7610  -19.0159  -17.1100 O   0  0  0  0  0  0  0  0  0  0  0  0
   19.6499  -17.9277  -15.2920 N   0  0  0  0  0  0  0  0  0  0  0  0
   20.5144  -17.1645  -16.1428 C   0  0  1  0  0  0  0  0  0  0  0  0
   20.8856  -15.8802  -15.4342 C   0  0  0  0  0  0  0  0  0  0  0  0
   21.6615  -14.9527  -16.2963 C   0  0  0  0  0  0  0  0  0  0  0  0
   21.7805  -15.2841  -17.5037 O   0  0  0  0  0  0  0  0  0  0  0  0
   21.7866  -17.8699  -16.4445 C   0  0  0  0  0  0  0  0  0  0  0  0
   22.4943  -18.4487  -15.5828 O   0  0  0  0  0  0  0  0  0  0  0  0
   22.2477  -13.7864  -15.8898 O   0  0  0  0  0  0  0  0  0  0  0  0
   23.5530  -21.7083  -20.5731 C   0  0  0  0  0  0  0  0  0  0  0  0
   24.0258  -20.5764  -19.7445 C   0  0  0  0  0  0  0  0  0  0  0  0
   23.0452  -19.6895  -19.1056 C   0  0  2  0  0  0  0  0  0  0  0  0
   22.0620  -19.1900  -20.1739 C   0  0  0  0  0  0  0  0  0  0  0  0
   23.4692  -18.5936  -18.2092 C   0  0  2  0  0  0  0  0  0  0  0  0
   22.2177  -17.8829  -17.7948 N   0  0  0  0  0  0  0  0  0  0  0  0
   24.4032  -17.5995  -18.6902 C   0  0  0  0  0  0  0  0  0  0  0  0
   24.0881  -16.2830  -18.8851 O   0  0  0  0  0  0  0  0  0  0  0  0
   25.6009  -17.9338  -18.9654 O   0  0  0  0  0  0  0  0  0  0  0  0
  2  1  1  1
  3  4  1  0
  3  2  1  0
  5  4  1  0
  5  6  1  0
  7  6  1  0
  8  2  1  0
  8  9  2  0
 10  8  1  0
 11 10  1  0
 11 12  1  1
 13 12  1  0
 14 13  2  0
 15 11  1  0
 16 15  2  0
 17 13  1  0
 19 18  1  0
 20 19  1  0
 20 22  1  0
 20 21  1  6
 22 24  1  0
 22 23  1  6
 23 15  1  0
 24 25  1  0
 26 24  2  0
M  END
$$$$
