KDI.pdb
     RDKit          3D

 26 25  0  0  1  0  0  0  0  0999 V2000
   21.3514  -25.6866  -13.1716 N   0  0  0  0  0  0  0  0  0  0  0  0
   21.1901  -25.3037  -14.5465 C   0  0  1  0  0  0  0  0  0  0  0  0
   20.4371  -26.2318  -15.4113 C   0  0  0  0  0  0  0  0  0  0  0  0
   20.9271  -27.6345  -15.3356 C   0  0  0  0  0  0  0  0  0  0  0  0
   19.8841  -28.6125  -14.8908 C   0  0  0  0  0  0  0  0  0  0  0  0
   20.4926  -29.9887  -14.8144 C   0  0  0  0  0  0  0  0  0  0  0  0
   19.4998  -30.8901  -14.2705 N   0  0  0  0  0  0  0  0  0  0  0  0
   20.6161  -23.9169  -14.5567 C   0  0  0  0  0  0  0  0  0  0  0  0
   20.4166  -23.2920  -15.6290 O   0  0  0  0  0  0  0  0  0  0  0  0
   20.2685  -23.2404  -13.3366 N   0  0  0  0  0  0  0  0  0  0  0  0
   19.5826  -21.9828  -13.3826 C   0  0  1  0  0  0  0  0  0  0  0  0
   18.7558  -21.8326  -12.1244 C   0  0  0  0  0  0  0  0  0  0  0  0
   17.6349  -22.8043  -12.0549 C   0  0  0  0  0  0  0  0  0  0  0  0
   17.1346  -23.1557  -13.1541 O   0  0  0  0  0  0  0  0  0  0  0  0
   20.5136  -20.8259  -13.4236 C   0  0  0  0  0  0  0  0  0  0  0  0
   21.4483  -20.6426  -12.6043 O   0  0  0  0  0  0  0  0  0  0  0  0
   17.1112  -23.3390  -10.9109 O   0  0  0  0  0  0  0  0  0  0  0  0
   23.8417  -18.2693  -17.4880 C   0  0  0  0  0  0  0  0  0  0  0  0
   23.0290  -17.9632  -16.2892 C   0  0  0  0  0  0  0  0  0  0  0  0
   22.0362  -18.9386  -15.8209 C   0  0  2  0  0  0  0  0  0  0  0  0
   21.1528  -19.3518  -17.0068 C   0  0  0  0  0  0  0  0  0  0  0  0
   21.2286  -18.6917  -14.6080 C   0  0  2  0  0  0  0  0  0  0  0  0
   20.3240  -19.8758  -14.4583 N   0  0  0  0  0  0  0  0  0  0  0  0
   20.4137  -17.4997  -14.5240 C   0  0  0  0  0  0  0  0  0  0  0  0
   19.0518  -17.4924  -14.6479 O   0  0  0  0  0  0  0  0  0  0  0  0
   20.9629  -16.3673  -14.3289 O   0  0  0  0  0  0  0  0  0  0  0  0
  2  1  1  1
  3  4  1  0
  3  2  1  0
  5  4  1  0
  5  6  1  0
  7  6  1  0
  8  2  1  0
  8  9  2  0
 10  8  1  0
 11 10  1  0
 11 12  1  1
 13 12  1  0
 14 13  2  0
 15 11  1  0
 16 15  2  0
 17 13  1  0
 19 18  1  0
 20 19  1  0
 20 22  1  0
 20 21  1  6
 22 24  1  0
 22 23  1  6
 23 15  1  0
 24 25  1  0
 26 24  2  0
M  END
$$$$
