KDI.pdb
     RDKit          3D

 26 25  0  0  1  0  0  0  0  0999 V2000
   19.0783  -12.5795  -19.3243 N   0  0  0  0  0  0  0  0  0  0  0  0
   18.5847  -12.1244  -18.0547 C   0  0  1  0  0  0  0  0  0  0  0  0
   18.7573  -13.0367  -16.9082 C   0  0  0  0  0  0  0  0  0  0  0  0
   17.8714  -14.2305  -16.9683 C   0  0  0  0  0  0  0  0  0  0  0  0
   17.8238  -15.0087  -15.6899 C   0  0  0  0  0  0  0  0  0  0  0  0
   16.7900  -16.0983  -15.8087 C   0  0  0  0  0  0  0  0  0  0  0  0
   16.7759  -16.8424  -14.5677 N   0  0  0  0  0  0  0  0  0  0  0  0
   19.1828  -10.7705  -17.8053 C   0  0  0  0  0  0  0  0  0  0  0  0
   20.3427  -10.4788  -18.1922 O   0  0  0  0  0  0  0  0  0  0  0  0
   18.4530   -9.7449  -17.1108 N   0  0  0  0  0  0  0  0  0  0  0  0
   19.0330   -8.4467  -16.9308 C   0  0  1  0  0  0  0  0  0  0  0  0
   17.9201   -7.4305  -16.7952 C   0  0  0  0  0  0  0  0  0  0  0  0
   17.0585   -7.3586  -18.0027 C   0  0  0  0  0  0  0  0  0  0  0  0
   17.6395   -7.0900  -19.0853 O   0  0  0  0  0  0  0  0  0  0  0  0
   19.8509   -8.3532  -15.6943 C   0  0  0  0  0  0  0  0  0  0  0  0
   19.5413   -8.8890  -14.6008 O   0  0  0  0  0  0  0  0  0  0  0  0
   15.7062   -7.5575  -18.0319 O   0  0  0  0  0  0  0  0  0  0  0  0
   25.2686   -9.6962  -14.3237 C   0  0  0  0  0  0  0  0  0  0  0  0
   24.0201   -9.0156  -13.9124 C   0  0  0  0  0  0  0  0  0  0  0  0
   23.0801   -8.5479  -14.9391 C   0  0  2  0  0  0  0  0  0  0  0  0
   23.8765   -8.1269  -16.1823 C   0  0  0  0  0  0  0  0  0  0  0  0
   22.0195   -7.5687  -14.6216 C   0  0  2  0  0  0  0  0  0  0  0  0
   21.0552   -7.6090  -15.7667 N   0  0  0  0  0  0  0  0  0  0  0  0
   22.3722   -6.1853  -14.3894 C   0  0  0  0  0  0  0  0  0  0  0  0
   22.7555   -5.6858  -13.1754 O   0  0  0  0  0  0  0  0  0  0  0  0
   22.3298   -5.3493  -15.3493 O   0  0  0  0  0  0  0  0  0  0  0  0
  2  1  1  6
  3  4  1  0
  3  2  1  0
  5  4  1  0
  5  6  1  0
  7  6  1  0
  8  2  1  0
  8  9  2  0
 10  8  1  0
 11 10  1  0
 11 12  1  1
 13 12  1  0
 14 13  2  0
 15 11  1  0
 16 15  2  0
 17 13  1  0
 19 18  1  0
 20 19  1  0
 20 22  1  0
 20 21  1  6
 22 24  1  0
 22 23  1  6
 23 15  1  0
 24 25  1  0
 26 24  2  0
M  END
$$$$
