DDK.pdb
     RDKit          3D

 26 25  0  0  1  0  0  0  0  0999 V2000
   25.0924  -17.7056  -18.3520 N   0  0  0  0  0  0  0  0  0  0  0  0
   25.3058  -18.9564  -17.6566 C   0  0  1  0  0  0  0  0  0  0  0  0
   26.6716  -18.9712  -17.0576 C   0  0  0  0  0  0  0  0  0  0  0  0
   27.6754  -18.9848  -18.1352 C   0  0  0  0  0  0  0  0  0  0  0  0
   28.8853  -19.0890  -17.8532 O   0  0  0  0  0  0  0  0  0  0  0  0
   24.2293  -19.0990  -16.6360 C   0  0  0  0  0  0  0  0  0  0  0  0
   24.4178  -19.8662  -15.6863 O   0  0  0  0  0  0  0  0  0  0  0  0
   27.3026  -18.8838  -19.4606 O   0  0  0  0  0  0  0  0  0  0  0  0
   23.0090  -18.3856  -16.7257 N   0  0  0  0  0  0  0  0  0  0  0  0
   21.9209  -18.3895  -15.8151 C   0  0  1  0  0  0  0  0  0  0  0  0
   21.0624  -17.1951  -15.9786 C   0  0  0  0  0  0  0  0  0  0  0  0
   21.8372  -15.9719  -15.6455 C   0  0  0  0  0  0  0  0  0  0  0  0
   22.6257  -15.8845  -14.6728 O   0  0  0  0  0  0  0  0  0  0  0  0
   21.1853  -19.6811  -15.6990 C   0  0  0  0  0  0  0  0  0  0  0  0
   20.9039  -20.2857  -16.7553 O   0  0  0  0  0  0  0  0  0  0  0  0
   21.7268  -14.8060  -16.4267 O   0  0  0  0  0  0  0  0  0  0  0  0
   20.8132  -20.2127  -14.4266 N   0  0  0  0  0  0  0  0  0  0  0  0
   20.1536  -21.4945  -14.2864 C   0  0  1  0  0  0  0  0  0  0  0  0
   20.1313  -21.8679  -12.8309 C   0  0  0  0  0  0  0  0  0  0  0  0
   19.4762  -23.1688  -12.5202 C   0  0  0  0  0  0  0  0  0  0  0  0
   19.6806  -23.6035  -11.0925 C   0  0  0  0  0  0  0  0  0  0  0  0
   19.1033  -24.9930  -10.9107 C   0  0  0  0  0  0  0  0  0  0  0  0
   19.3349  -25.4948   -9.5632 N   0  0  0  0  0  0  0  0  0  0  0  0
   18.7982  -21.4795  -14.8906 C   0  0  0  0  0  0  0  0  0  0  0  0
   18.3191  -22.5765  -15.6247 O   0  0  0  0  0  0  0  0  0  0  0  0
   18.0103  -20.5092  -14.7876 O   0  0  0  0  0  0  0  0  0  0  0  0
  2  1  1  1
  2  3  1  0
  4  3  1  0
  5  4  2  0
  6  7  2  0
  6  2  1  0
  8  4  1  0
  9  6  1  0
 10  9  1  0
 10 11  1  6
 12 11  1  0
 13 12  2  0
 14 10  1  0
 14 15  2  0
 16 12  1  0
 17 14  1  0
 18 17  1  0
 18 19  1  1
 19 20  1  0
 20 21  1  0
 21 22  1  0
 23 22  1  0
 24 18  1  0
 25 24  1  0
 26 24  2  0
M  END
$$$$
