DDK.pdb
     RDKit          3D

 26 25  0  0  1  0  0  0  0  0999 V2000
   19.8757  -22.8057  -13.3025 N   0  0  0  0  0  0  0  0  0  0  0  0
   18.6478  -22.4779  -12.6109 C   0  0  1  0  0  0  0  0  0  0  0  0
   17.5626  -22.2317  -13.6040 C   0  0  0  0  0  0  0  0  0  0  0  0
   17.8029  -20.9445  -14.2781 C   0  0  0  0  0  0  0  0  0  0  0  0
   18.0083  -20.9182  -15.5075 O   0  0  0  0  0  0  0  0  0  0  0  0
   18.3339  -23.6015  -11.6838 C   0  0  0  0  0  0  0  0  0  0  0  0
   17.2991  -23.5375  -11.0120 O   0  0  0  0  0  0  0  0  0  0  0  0
   17.8056  -19.7578  -13.5727 O   0  0  0  0  0  0  0  0  0  0  0  0
   19.1820  -24.7284  -11.5540 N   0  0  0  0  0  0  0  0  0  0  0  0
   19.0320  -25.8453  -10.6918 C   0  0  1  0  0  0  0  0  0  0  0  0
   20.0306  -26.8995  -10.9782 C   0  0  0  0  0  0  0  0  0  0  0  0
   20.0242  -27.2142  -12.4302 C   0  0  0  0  0  0  0  0  0  0  0  0
   21.0190  -27.0736  -13.1826 O   0  0  0  0  0  0  0  0  0  0  0  0
   18.8561  -25.5222   -9.2470 C   0  0  0  0  0  0  0  0  0  0  0  0
   19.6739  -24.7356   -8.7245 O   0  0  0  0  0  0  0  0  0  0  0  0
   18.8657  -27.7030  -13.0631 O   0  0  0  0  0  0  0  0  0  0  0  0
   17.7912  -26.0896   -8.4828 N   0  0  0  0  0  0  0  0  0  0  0  0
   17.5515  -25.7270   -7.1012 C   0  0  1  0  0  0  0  0  0  0  0  0
   16.2177  -25.0409   -7.0080 C   0  0  0  0  0  0  0  0  0  0  0  0
   15.8765  -24.4984   -5.6635 C   0  0  0  0  0  0  0  0  0  0  0  0
   14.4907  -23.9111   -5.6013 C   0  0  0  0  0  0  0  0  0  0  0  0
   14.2858  -23.2690   -4.2437 C   0  0  0  0  0  0  0  0  0  0  0  0
   13.0061  -22.5778   -4.1682 N   0  0  0  0  0  0  0  0  0  0  0  0
   17.6495  -26.9043   -6.2032 C   0  0  0  0  0  0  0  0  0  0  0  0
   17.9998  -26.7583   -4.8512 O   0  0  0  0  0  0  0  0  0  0  0  0
   17.4310  -28.0793   -6.5837 O   0  0  0  0  0  0  0  0  0  0  0  0
  2  1  1  6
  2  3  1  0
  4  3  1  0
  5  4  2  0
  6  7  2  0
  6  2  1  0
  8  4  1  0
  9  6  1  0
 10  9  1  0
 10 11  1  1
 12 11  1  0
 13 12  2  0
 14 10  1  0
 14 15  2  0
 16 12  1  0
 17 14  1  0
 18 17  1  0
 18 19  1  6
 19 20  1  0
 20 21  1  0
 21 22  1  0
 23 22  1  0
 24 18  1  0
 25 24  1  0
 26 24  2  0
M  END
$$$$
