DDK.pdb
     RDKit          3D

 26 25  0  0  1  0  0  0  0  0999 V2000
   20.2063   -9.1996  -13.9223 N   0  0  0  0  0  0  0  0  0  0  0  0
   20.6607   -8.0221  -14.6297 C   0  0  1  0  0  0  0  0  0  0  0  0
   21.2027   -8.4150  -15.9625 C   0  0  0  0  0  0  0  0  0  0  0  0
   22.4013   -9.2497  -15.7735 C   0  0  0  0  0  0  0  0  0  0  0  0
   22.3062  -10.3465  -15.1884 O   0  0  0  0  0  0  0  0  0  0  0  0
   19.5103   -7.0806  -14.7322 C   0  0  0  0  0  0  0  0  0  0  0  0
   19.6939   -5.9850  -15.2729 O   0  0  0  0  0  0  0  0  0  0  0  0
   23.6370   -8.8405  -16.2335 O   0  0  0  0  0  0  0  0  0  0  0  0
   18.2259   -7.4055  -14.2313 N   0  0  0  0  0  0  0  0  0  0  0  0
   17.0507   -6.6106  -14.2470 C   0  0  1  0  0  0  0  0  0  0  0  0
   15.9456   -7.2767  -14.9719 C   0  0  0  0  0  0  0  0  0  0  0  0
   14.8123   -6.3301  -15.1366 C   0  0  0  0  0  0  0  0  0  0  0  0
   13.8894   -6.1884  -14.2977 O   0  0  0  0  0  0  0  0  0  0  0  0
   16.6689   -6.0031  -12.9401 C   0  0  0  0  0  0  0  0  0  0  0  0
   16.6874   -6.7389  -11.9307 O   0  0  0  0  0  0  0  0  0  0  0  0
   14.7069   -5.5137  -16.2785 O   0  0  0  0  0  0  0  0  0  0  0  0
   16.2943   -4.6284  -12.8406 N   0  0  0  0  0  0  0  0  0  0  0  0
   15.8040   -4.0472  -11.6080 C   0  0  1  0  0  0  0  0  0  0  0  0
   16.7316   -2.9390  -11.1958 C   0  0  0  0  0  0  0  0  0  0  0  0
   16.3704   -2.2493   -9.9261 C   0  0  0  0  0  0  0  0  0  0  0  0
   17.4170   -1.2648   -9.4739 C   0  0  0  0  0  0  0  0  0  0  0  0
   17.0617   -0.7667   -8.0872 C   0  0  0  0  0  0  0  0  0  0  0  0
   18.1365    0.0332   -7.5161 N   0  0  0  0  0  0  0  0  0  0  0  0
   14.3978   -3.5920  -11.7408 C   0  0  0  0  0  0  0  0  0  0  0  0
   13.5140   -3.6389  -10.6506 O   0  0  0  0  0  0  0  0  0  0  0  0
   13.9177   -3.1460  -12.8103 O   0  0  0  0  0  0  0  0  0  0  0  0
  2  1  1  6
  2  3  1  0
  4  3  1  0
  5  4  2  0
  6  7  2  0
  6  2  1  0
  8  4  1  0
  9  6  1  0
 10  9  1  0
 10 11  1  1
 12 11  1  0
 13 12  2  0
 14 10  1  0
 14 15  2  0
 16 12  1  0
 17 14  1  0
 18 17  1  0
 18 19  1  6
 19 20  1  0
 20 21  1  0
 21 22  1  0
 23 22  1  0
 24 18  1  0
 25 24  1  0
 26 24  2  0
M  END
$$$$
