DDK.pdb
     RDKit          3D

 26 25  0  0  1  0  0  0  0  0999 V2000
   26.2686  -20.5039  -14.4715 N   0  0  0  0  0  0  0  0  0  0  0  0
   25.6798  -20.6084  -15.7890 C   0  0  1  0  0  0  0  0  0  0  0  0
   26.1242  -21.8753  -16.4386 C   0  0  0  0  0  0  0  0  0  0  0  0
   27.5961  -21.9167  -16.4678 C   0  0  0  0  0  0  0  0  0  0  0  0
   28.2465  -20.8540  -16.4228 O   0  0  0  0  0  0  0  0  0  0  0  0
   24.1998  -20.5311  -15.6333 C   0  0  0  0  0  0  0  0  0  0  0  0
   23.4949  -20.6744  -16.6378 O   0  0  0  0  0  0  0  0  0  0  0  0
   28.2760  -23.1157  -16.5448 O   0  0  0  0  0  0  0  0  0  0  0  0
   23.5870  -20.3000  -14.3775 N   0  0  0  0  0  0  0  0  0  0  0  0
   22.2051  -20.1604  -14.0874 C   0  0  1  0  0  0  0  0  0  0  0  0
   21.9115  -20.4342  -12.6629 C   0  0  0  0  0  0  0  0  0  0  0  0
   20.4430  -20.5463  -12.4667 C   0  0  0  0  0  0  0  0  0  0  0  0
   19.6480  -20.9618  -13.3446 O   0  0  0  0  0  0  0  0  0  0  0  0
   21.5532  -18.9387  -14.6400 C   0  0  0  0  0  0  0  0  0  0  0  0
   21.9498  -17.8301  -14.2225 O   0  0  0  0  0  0  0  0  0  0  0  0
   19.8424  -20.1814  -11.2469 O   0  0  0  0  0  0  0  0  0  0  0  0
   20.5112  -19.0276  -15.6128 N   0  0  0  0  0  0  0  0  0  0  0  0
   19.8834  -17.8539  -16.1837 C   0  0  1  0  0  0  0  0  0  0  0  0
   19.9449  -17.9556  -17.6818 C   0  0  0  0  0  0  0  0  0  0  0  0
   19.3255  -16.8202  -18.4202 C   0  0  0  0  0  0  0  0  0  0  0  0
   19.4002  -16.9814  -19.9160 C   0  0  0  0  0  0  0  0  0  0  0  0
   18.8283  -15.7429  -20.5766 C   0  0  0  0  0  0  0  0  0  0  0  0
   18.8005  -15.8763  -22.0266 N   0  0  0  0  0  0  0  0  0  0  0  0
   18.4979  -17.6777  -15.6821 C   0  0  0  0  0  0  0  0  0  0  0  0
   17.9229  -16.4013  -15.5723 O   0  0  0  0  0  0  0  0  0  0  0  0
   17.7667  -18.6346  -15.3316 O   0  0  0  0  0  0  0  0  0  0  0  0
  2  1  1  1
  2  3  1  0
  4  3  1  0
  5  4  2  0
  6  7  2  0
  6  2  1  0
  8  4  1  0
  9  6  1  0
 10  9  1  0
 10 11  1  1
 12 11  1  0
 13 12  2  0
 14 10  1  0
 14 15  2  0
 16 12  1  0
 17 14  1  0
 18 17  1  0
 18 19  1  6
 19 20  1  0
 20 21  1  0
 21 22  1  0
 23 22  1  0
 24 18  1  0
 25 24  1  0
 26 24  2  0
M  END
$$$$
