DDK.pdb
     RDKit          3D

 26 25  0  0  1  0  0  0  0  0999 V2000
   16.4562  -12.6790  -13.8377 N   0  0  0  0  0  0  0  0  0  0  0  0
   16.5302  -12.5856  -15.2797 C   0  0  1  0  0  0  0  0  0  0  0  0
   15.4799  -13.4487  -15.8932 C   0  0  0  0  0  0  0  0  0  0  0  0
   15.7128  -14.8498  -15.5037 C   0  0  0  0  0  0  0  0  0  0  0  0
   16.6648  -15.4813  -16.0030 O   0  0  0  0  0  0  0  0  0  0  0  0
   16.3831  -11.1500  -15.6508 C   0  0  0  0  0  0  0  0  0  0  0  0
   16.3527  -10.8530  -16.8496 O   0  0  0  0  0  0  0  0  0  0  0  0
   14.8935  -15.4836  -14.5911 O   0  0  0  0  0  0  0  0  0  0  0  0
   16.2784  -10.1282  -14.6756 N   0  0  0  0  0  0  0  0  0  0  0  0
   16.2219   -8.7248  -14.8770 C   0  0  1  0  0  0  0  0  0  0  0  0
   15.4077   -8.0525  -13.8400 C   0  0  0  0  0  0  0  0  0  0  0  0
   14.0002   -8.5203  -13.9269 C   0  0  0  0  0  0  0  0  0  0  0  0
   13.3343   -8.5463  -14.9906 O   0  0  0  0  0  0  0  0  0  0  0  0
   17.5253   -8.0663  -15.1776 C   0  0  0  0  0  0  0  0  0  0  0  0
   18.4946   -8.3324  -14.4359 O   0  0  0  0  0  0  0  0  0  0  0  0
   13.3133   -8.9750  -12.7854 O   0  0  0  0  0  0  0  0  0  0  0  0
   17.6656   -7.1619  -16.2742 N   0  0  0  0  0  0  0  0  0  0  0  0
   18.9198   -6.5052  -16.5800 C   0  0  1  0  0  0  0  0  0  0  0  0
   19.1462   -6.5670  -18.0644 C   0  0  0  0  0  0  0  0  0  0  0  0
   20.3803   -5.8864  -18.5462 C   0  0  0  0  0  0  0  0  0  0  0  0
   20.5192   -5.9142  -20.0459 C   0  0  0  0  0  0  0  0  0  0  0  0
   21.8362   -5.2716  -20.4329 C   0  0  0  0  0  0  0  0  0  0  0  0
   22.0584   -5.3349  -21.8709 N   0  0  0  0  0  0  0  0  0  0  0  0
   18.9502   -5.1166  -16.0573 C   0  0  0  0  0  0  0  0  0  0  0  0
   20.1628   -4.4965  -15.7157 O   0  0  0  0  0  0  0  0  0  0  0  0
   17.9192   -4.4222  -15.8905 O   0  0  0  0  0  0  0  0  0  0  0  0
  2  1  1  1
  2  3  1  0
  4  3  1  0
  5  4  2  0
  6  7  2  0
  6  2  1  0
  8  4  1  0
  9  6  1  0
 10  9  1  0
 10 11  1  1
 12 11  1  0
 13 12  2  0
 14 10  1  0
 14 15  2  0
 16 12  1  0
 17 14  1  0
 18 17  1  0
 18 19  1  6
 19 20  1  0
 20 21  1  0
 21 22  1  0
 23 22  1  0
 24 18  1  0
 25 24  1  0
 26 24  2  0
M  END
$$$$
