DDK.pdb
     RDKit          3D

 26 25  0  0  1  0  0  0  0  0999 V2000
   27.8939  -21.2367   -9.0288 N   0  0  0  0  0  0  0  0  0  0  0  0
   26.6242  -20.5756   -8.8182 C   0  0  1  0  0  0  0  0  0  0  0  0
   26.8431  -19.2825   -8.1081 C   0  0  0  0  0  0  0  0  0  0  0  0
   27.4994  -19.5422   -6.8155 C   0  0  0  0  0  0  0  0  0  0  0  0
   27.0083  -20.3744   -6.0278 O   0  0  0  0  0  0  0  0  0  0  0  0
   25.9775  -20.3980  -10.1489 C   0  0  0  0  0  0  0  0  0  0  0  0
   25.7685  -19.2491  -10.5521 O   0  0  0  0  0  0  0  0  0  0  0  0
   28.6552  -18.8790   -6.4548 O   0  0  0  0  0  0  0  0  0  0  0  0
   25.6004  -21.5001  -10.9546 N   0  0  0  0  0  0  0  0  0  0  0  0
   25.1277  -21.4885  -12.2924 C   0  0  1  0  0  0  0  0  0  0  0  0
   25.5550  -22.6939  -13.0374 C   0  0  0  0  0  0  0  0  0  0  0  0
   25.2519  -22.5235  -14.4819 C   0  0  0  0  0  0  0  0  0  0  0  0
   24.9303  -21.4296  -15.0067 O   0  0  0  0  0  0  0  0  0  0  0  0
   23.6934  -21.1195  -12.4636 C   0  0  0  0  0  0  0  0  0  0  0  0
   22.8550  -21.6985  -11.7407 O   0  0  0  0  0  0  0  0  0  0  0  0
   25.3104  -23.6137  -15.3706 O   0  0  0  0  0  0  0  0  0  0  0  0
   23.2871  -20.1389  -13.4193 N   0  0  0  0  0  0  0  0  0  0  0  0
   21.8973  -19.7852  -13.6219 C   0  0  1  0  0  0  0  0  0  0  0  0
   21.8190  -18.7364  -14.6954 C   0  0  0  0  0  0  0  0  0  0  0  0
   20.4493  -18.2304  -14.9886 C   0  0  0  0  0  0  0  0  0  0  0  0
   20.4248  -17.2078  -16.0944 C   0  0  0  0  0  0  0  0  0  0  0  0
   19.0083  -16.6961  -16.2641 C   0  0  0  0  0  0  0  0  0  0  0  0
   18.9230  -15.7047  -17.3275 N   0  0  0  0  0  0  0  0  0  0  0  0
   21.0701  -20.9780  -13.9307 C   0  0  0  0  0  0  0  0  0  0  0  0
   21.5862  -22.0426  -14.6869 O   0  0  0  0  0  0  0  0  0  0  0  0
   19.8839  -21.1103  -13.5456 O   0  0  0  0  0  0  0  0  0  0  0  0
  2  1  1  6
  2  3  1  0
  4  3  1  0
  5  4  2  0
  6  7  2  0
  6  2  1  0
  8  4  1  0
  9  6  1  0
 10  9  1  0
 10 11  1  1
 12 11  1  0
 13 12  2  0
 14 10  1  0
 14 15  2  0
 16 12  1  0
 17 14  1  0
 18 17  1  0
 18 19  1  6
 19 20  1  0
 20 21  1  0
 21 22  1  0
 23 22  1  0
 24 18  1  0
 25 24  1  0
 26 24  2  0
M  END
$$$$
