DDK.pdb
     RDKit          3D

 26 25  0  0  1  0  0  0  0  0999 V2000
   14.6319  -11.3825  -17.0442 N   0  0  0  0  0  0  0  0  0  0  0  0
   15.1513  -10.9515  -15.7644 C   0  0  1  0  0  0  0  0  0  0  0  0
   15.8832  -12.0770  -15.1148 C   0  0  0  0  0  0  0  0  0  0  0  0
   14.9129  -12.9937  -14.4926 C   0  0  0  0  0  0  0  0  0  0  0  0
   15.2692  -14.1421  -14.1630 O   0  0  0  0  0  0  0  0  0  0  0  0
   16.0187   -9.7634  -16.0021 C   0  0  0  0  0  0  0  0  0  0  0  0
   16.7485   -9.7586  -16.9990 O   0  0  0  0  0  0  0  0  0  0  0  0
   13.6076  -12.6060  -14.2651 O   0  0  0  0  0  0  0  0  0  0  0  0
   16.0283   -8.6518  -15.1244 N   0  0  0  0  0  0  0  0  0  0  0  0
   16.8352   -7.4867  -15.1922 C   0  0  1  0  0  0  0  0  0  0  0  0
   16.0959   -6.2795  -14.7602 C   0  0  0  0  0  0  0  0  0  0  0  0
   16.9405   -5.0746  -14.9659 C   0  0  0  0  0  0  0  0  0  0  0  0
   17.2819   -4.6417  -16.0935 O   0  0  0  0  0  0  0  0  0  0  0  0
   18.2065   -7.6212  -14.6227 C   0  0  0  0  0  0  0  0  0  0  0  0
   18.3235   -8.2014  -13.5225 O   0  0  0  0  0  0  0  0  0  0  0  0
   17.4201   -4.3277  -13.8732 O   0  0  0  0  0  0  0  0  0  0  0  0
   19.3494   -7.1065  -15.3072 N   0  0  0  0  0  0  0  0  0  0  0  0
   20.7011   -7.3476  -14.8463 C   0  0  1  0  0  0  0  0  0  0  0  0
   21.4033   -8.2196  -15.8487 C   0  0  0  0  0  0  0  0  0  0  0  0
   22.8060   -8.5809  -15.5021 C   0  0  0  0  0  0  0  0  0  0  0  0
   23.4561   -9.4672  -16.5322 C   0  0  0  0  0  0  0  0  0  0  0  0
   24.8876   -9.7416  -16.1164 C   0  0  0  0  0  0  0  0  0  0  0  0
   25.5104  -10.7396  -16.9750 N   0  0  0  0  0  0  0  0  0  0  0  0
   21.4252   -6.0776  -14.5911 C   0  0  0  0  0  0  0  0  0  0  0  0
   20.9061   -4.8469  -15.0242 O   0  0  0  0  0  0  0  0  0  0  0  0
   22.5224   -6.0215  -13.9861 O   0  0  0  0  0  0  0  0  0  0  0  0
  2  1  1  6
  2  3  1  0
  4  3  1  0
  5  4  2  0
  6  7  2  0
  6  2  1  0
  8  4  1  0
  9  6  1  0
 10  9  1  0
 10 11  1  1
 12 11  1  0
 13 12  2  0
 14 10  1  0
 14 15  2  0
 16 12  1  0
 17 14  1  0
 18 17  1  0
 18 19  1  6
 19 20  1  0
 20 21  1  0
 21 22  1  0
 23 22  1  0
 24 18  1  0
 25 24  1  0
 26 24  2  0
M  END
$$$$
