DDK.pdb
     RDKit          3D

 26 25  0  0  1  0  0  0  0  0999 V2000
   15.8434  -12.1321  -15.0155 N   0  0  0  0  0  0  0  0  0  0  0  0
   15.2557  -12.2517  -13.6987 C   0  0  1  0  0  0  0  0  0  0  0  0
   15.4101  -13.6507  -13.2053 C   0  0  0  0  0  0  0  0  0  0  0  0
   14.5779  -14.5496  -14.0229 C   0  0  0  0  0  0  0  0  0  0  0  0
   14.4981  -14.3704  -15.2541 O   0  0  0  0  0  0  0  0  0  0  0  0
   15.9181  -11.2536  -12.8124 C   0  0  0  0  0  0  0  0  0  0  0  0
   15.6372  -11.2581  -11.6093 O   0  0  0  0  0  0  0  0  0  0  0  0
   13.8792  -15.5940  -13.4512 O   0  0  0  0  0  0  0  0  0  0  0  0
   16.8509  -10.3101  -13.3080 N   0  0  0  0  0  0  0  0  0  0  0  0
   17.4646   -9.2349  -12.6148 C   0  0  1  0  0  0  0  0  0  0  0  0
   18.7382   -8.8269  -13.2489 C   0  0  0  0  0  0  0  0  0  0  0  0
   19.3911   -7.7739  -12.4290 C   0  0  0  0  0  0  0  0  0  0  0  0
   19.2509   -6.5426  -12.6282 O   0  0  0  0  0  0  0  0  0  0  0  0
   16.5591   -8.1103  -12.2430 C   0  0  0  0  0  0  0  0  0  0  0  0
   15.8480   -7.6160  -13.1433 O   0  0  0  0  0  0  0  0  0  0  0  0
   20.2297   -8.1088  -11.3491 O   0  0  0  0  0  0  0  0  0  0  0  0
   16.5032   -7.6121  -10.9056 N   0  0  0  0  0  0  0  0  0  0  0  0
   15.6238   -6.5279  -10.5199 C   0  0  1  0  0  0  0  0  0  0  0  0
   15.3106   -6.6596   -9.0560 C   0  0  0  0  0  0  0  0  0  0  0  0
   14.3566   -5.6500   -8.5186 C   0  0  0  0  0  0  0  0  0  0  0  0
   14.1251   -5.7907   -7.0368 C   0  0  0  0  0  0  0  0  0  0  0  0
   13.2053   -4.6795   -6.5718 C   0  0  0  0  0  0  0  0  0  0  0  0
   12.9988   -4.7258   -5.1308 N   0  0  0  0  0  0  0  0  0  0  0  0
   16.2057   -5.2059  -10.8604 C   0  0  0  0  0  0  0  0  0  0  0  0
   15.3844   -4.0980  -11.1242 O   0  0  0  0  0  0  0  0  0  0  0  0
   17.4402   -4.9963  -10.9330 O   0  0  0  0  0  0  0  0  0  0  0  0
  2  1  1  6
  2  3  1  0
  4  3  1  0
  5  4  2  0
  6  7  2  0
  6  2  1  0
  8  4  1  0
  9  6  1  0
 10  9  1  0
 10 11  1  6
 12 11  1  0
 13 12  2  0
 14 10  1  0
 14 15  2  0
 16 12  1  0
 17 14  1  0
 18 17  1  0
 18 19  1  1
 19 20  1  0
 20 21  1  0
 21 22  1  0
 23 22  1  0
 24 18  1  0
 25 24  1  0
 26 24  2  0
M  END
$$$$
