DDK.pdb
     RDKit          3D

 26 25  0  0  1  0  0  0  0  0999 V2000
   21.6593  -13.8777  -18.6957 N   0  0  0  0  0  0  0  0  0  0  0  0
   21.8608  -12.5054  -19.1077 C   0  0  1  0  0  0  0  0  0  0  0  0
   20.6111  -11.9790  -19.7286 C   0  0  0  0  0  0  0  0  0  0  0  0
   20.2969  -12.7667  -20.9328 C   0  0  0  0  0  0  0  0  0  0  0  0
   19.1749  -13.2973  -21.0502 O   0  0  0  0  0  0  0  0  0  0  0  0
   22.2782  -11.7268  -17.9077 C   0  0  0  0  0  0  0  0  0  0  0  0
   21.6707  -11.9101  -16.8477 O   0  0  0  0  0  0  0  0  0  0  0  0
   21.2249  -12.9314  -21.9414 O   0  0  0  0  0  0  0  0  0  0  0  0
   23.3415  -10.7921  -17.9504 N   0  0  0  0  0  0  0  0  0  0  0  0
   23.8460   -9.9876  -16.8962 C   0  0  1  0  0  0  0  0  0  0  0  0
   25.3231  -10.0425  -16.8207 C   0  0  0  0  0  0  0  0  0  0  0  0
   25.7924   -9.2840  -15.6324 C   0  0  0  0  0  0  0  0  0  0  0  0
   25.8722   -8.0323  -15.5861 O   0  0  0  0  0  0  0  0  0  0  0  0
   23.2621   -8.6194  -16.7964 C   0  0  0  0  0  0  0  0  0  0  0  0
   23.4083   -7.8535  -17.7724 O   0  0  0  0  0  0  0  0  0  0  0  0
   26.1861   -9.9479  -14.4551 O   0  0  0  0  0  0  0  0  0  0  0  0
   22.5590   -8.1947  -15.6279 N   0  0  0  0  0  0  0  0  0  0  0  0
   21.9505   -6.8845  -15.5244 C   0  0  1  0  0  0  0  0  0  0  0  0
   20.4619   -7.0530  -15.4064 C   0  0  0  0  0  0  0  0  0  0  0  0
   19.6805   -5.7853  -15.3809 C   0  0  0  0  0  0  0  0  0  0  0  0
   18.1917   -6.0119  -15.4159 C   0  0  0  0  0  0  0  0  0  0  0  0
   17.4885   -4.6711  -15.4862 C   0  0  0  0  0  0  0  0  0  0  0  0
   16.0748   -4.8260  -15.8006 N   0  0  0  0  0  0  0  0  0  0  0  0
   22.5253   -6.1031  -14.4013 C   0  0  0  0  0  0  0  0  0  0  0  0
   22.4551   -4.7008  -14.3824 O   0  0  0  0  0  0  0  0  0  0  0  0
   23.0978   -6.6315  -13.4184 O   0  0  0  0  0  0  0  0  0  0  0  0
  2  1  1  1
  2  3  1  0
  4  3  1  0
  5  4  2  0
  6  7  2  0
  6  2  1  0
  8  4  1  0
  9  6  1  0
 10  9  1  0
 10 11  1  6
 12 11  1  0
 13 12  2  0
 14 10  1  0
 14 15  2  0
 16 12  1  0
 17 14  1  0
 18 17  1  0
 18 19  1  1
 19 20  1  0
 20 21  1  0
 21 22  1  0
 23 22  1  0
 24 18  1  0
 25 24  1  0
 26 24  2  0
M  END
$$$$
