IQW.pdb
     RDKit          3D

 32 33  0  0  1  0  0  0  0  0999 V2000
   20.4585  -21.1184   -9.7261 C   0  0  0  0  0  0  0  0  0  0  0  0
   19.8291  -20.6725  -11.0081 C   0  0  0  0  0  0  0  0  0  0  0  0
   20.5583  -19.4262  -11.4861 C   0  0  2  0  0  0  0  0  0  0  0  0
   19.6339  -18.2380  -11.5486 C   0  0  0  0  0  0  0  0  0  0  0  0
   21.0390  -19.7135  -12.8978 C   0  0  2  0  0  0  0  0  0  0  0  0
   19.9876  -20.3181  -13.6931 N   0  0  0  0  0  0  0  0  0  0  0  0
   22.1679  -20.6693  -12.8210 C   0  0  0  0  0  0  0  0  0  0  0  0
   22.1362  -21.7972  -13.3993 O   0  0  0  0  0  0  0  0  0  0  0  0
   26.9937  -19.7644  -14.8021 N   0  0  0  0  0  0  0  0  0  0  0  0
   27.1759  -21.1674  -14.6168 C   0  0  0  0  0  0  0  0  0  0  0  0
   28.2384  -21.7246  -14.9543 O   0  0  0  0  0  0  0  0  0  0  0  0
   26.0889  -21.9535  -14.0204 C   0  0  0  0  0  0  0  0  0  0  0  0
   24.9045  -21.1568  -13.6073 C   0  0  0  0  0  0  0  0  0  0  0  0
   24.5256  -21.1828  -12.1718 C   0  0  2  0  0  0  0  0  0  0  0  0
   23.3159  -20.3221  -12.0846 N   0  0  0  0  0  0  0  0  0  0  0  0
   25.4942  -20.6432  -11.2208 C   0  0  0  0  0  0  0  0  0  0  0  0
   25.4656  -19.4176  -10.9402 O   0  0  0  0  0  0  0  0  0  0  0  0
   26.4763  -21.4105  -10.5800 N   0  0  0  0  0  0  0  0  0  0  0  0
   27.5087  -20.7644   -9.7499 C   0  0  1  0  0  0  0  0  0  0  0  0
   26.9588  -20.8135   -8.3563 C   0  0  0  0  0  0  0  0  0  0  0  0
   27.4594  -19.8291   -7.4040 C   0  0  0  0  0  0  0  0  0  0  0  0
   27.3264  -18.4404   -7.5501 C   0  0  0  0  0  0  0  0  0  0  0  0
   27.9307  -17.8746   -6.5121 N   0  0  0  0  0  0  0  0  0  0  0  0
   28.4415  -18.8237   -5.7108 C   0  0  0  0  0  0  0  0  0  0  0  0
   29.1336  -18.7574   -4.5204 C   0  0  0  0  0  0  0  0  0  0  0  0
   29.5422  -19.9048   -3.8663 C   0  0  0  0  0  0  0  0  0  0  0  0
   29.2604  -21.1271   -4.4002 C   0  0  0  0  0  0  0  0  0  0  0  0
   28.5802  -21.2246   -5.5730 C   0  0  0  0  0  0  0  0  0  0  0  0
   28.1612  -20.0744   -6.2458 C   0  0  0  0  0  0  0  0  0  0  0  0
   28.7573  -21.5047   -9.9356 C   0  0  0  0  0  0  0  0  0  0  0  0
   28.8342  -22.6638  -10.4260 O   0  0  0  0  0  0  0  0  0  0  0  0
   29.9605  -20.9316   -9.5610 O   0  0  0  0  0  0  0  0  0  0  0  0
  2  1  1  0
  3  4  1  6
  3  5  1  0
  3  2  1  0
  5  6  1  6
  7  5  1  0
  7  8  2  0
 10  9  1  0
 10 12  1  0
 11 10  2  0
 12 13  1  0
 14 13  1  6
 14 15  1  0
 15  7  1  0
 16 17  2  0
 16 14  1  0
 18 16  1  0
 19 18  1  0
 19 20  1  1
 20 21  1  0
 21 29  1  0
 21 22  2  0
 22 23  1  0
 24 23  1  0
 24 25  2  0
 26 25  1  0
 27 26  2  0
 28 29  2  0
 28 27  1  0
 29 24  1  0
 30 19  1  0
 31 30  2  0
 32 30  1  0
M  END
$$$$
