IQW.pdb
     RDKit          3D

 32 33  0  0  1  0  0  0  0  0999 V2000
   43.7929   -0.2056   -6.5034 C   0  0  0  0  0  0  0  0  0  0  0  0
   43.0223   -1.3801   -5.9885 C   0  0  0  0  0  0  0  0  0  0  0  0
   43.3233   -2.5734   -6.8824 C   0  0  2  0  0  0  0  0  0  0  0  0
   42.8729   -2.3271   -8.2990 C   0  0  0  0  0  0  0  0  0  0  0  0
   42.5210   -3.7426   -6.3382 C   0  0  2  0  0  0  0  0  0  0  0  0
   43.0199   -4.1579   -5.0413 N   0  0  0  0  0  0  0  0  0  0  0  0
   42.6627   -4.8817   -7.2742 C   0  0  0  0  0  0  0  0  0  0  0  0
   42.3518   -4.7892   -8.5000 O   0  0  0  0  0  0  0  0  0  0  0  0
   44.5691  -10.1442   -5.4277 N   0  0  0  0  0  0  0  0  0  0  0  0
   44.7345  -10.4588   -6.8096 C   0  0  0  0  0  0  0  0  0  0  0  0
   44.9069  -11.6357   -7.1816 O   0  0  0  0  0  0  0  0  0  0  0  0
   44.7003   -9.3719   -7.7958 C   0  0  0  0  0  0  0  0  0  0  0  0
   44.4599   -8.0228   -7.2210 C   0  0  0  0  0  0  0  0  0  0  0  0
   43.2978   -7.2543   -7.7345 C   0  0  2  0  0  0  0  0  0  0  0  0
   43.1574   -6.1093   -6.7957 N   0  0  0  0  0  0  0  0  0  0  0  0
   42.0079   -7.9393   -7.7570 C   0  0  0  0  0  0  0  0  0  0  0  0
   41.5881   -8.4978   -6.7112 O   0  0  0  0  0  0  0  0  0  0  0  0
   41.1815   -8.0199   -8.8860 N   0  0  0  0  0  0  0  0  0  0  0  0
   39.9902   -8.8877   -8.8821 C   0  0  1  0  0  0  0  0  0  0  0  0
   38.9101   -8.0448   -8.2739 C   0  0  0  0  0  0  0  0  0  0  0  0
   37.7231   -8.7322   -7.7790 C   0  0  0  0  0  0  0  0  0  0  0  0
   36.7953   -8.1764   -6.8859 C   0  0  0  0  0  0  0  0  0  0  0  0
   35.8777   -9.1045   -6.6417 N   0  0  0  0  0  0  0  0  0  0  0  0
   36.1667  -10.2214   -7.3292 C   0  0  0  0  0  0  0  0  0  0  0  0
   35.5285  -11.4393   -7.4291 C   0  0  0  0  0  0  0  0  0  0  0  0
   36.0273  -12.4434   -8.2380 C   0  0  0  0  0  0  0  0  0  0  0  0
   37.1693  -12.2347   -8.9526 C   0  0  0  0  0  0  0  0  0  0  0  0
   37.8214  -11.0446   -8.8742 C   0  0  0  0  0  0  0  0  0  0  0  0
   37.3300  -10.0207   -8.0610 C   0  0  0  0  0  0  0  0  0  0  0  0
   39.7337   -9.2984  -10.2630 C   0  0  0  0  0  0  0  0  0  0  0  0
   39.3680   -8.5184  -11.1840 O   0  0  0  0  0  0  0  0  0  0  0  0
   39.8906  -10.6244  -10.6282 O   0  0  0  0  0  0  0  0  0  0  0  0
  2  1  1  0
  3  4  1  6
  3  5  1  0
  3  2  1  0
  5  6  1  1
  7  5  1  0
  7  8  2  0
 10  9  1  0
 10 12  1  0
 11 10  2  0
 12 13  1  0
 14 13  1  1
 14 15  1  0
 15  7  1  0
 16 17  2  0
 16 14  1  0
 18 16  1  0
 19 18  1  0
 19 20  1  6
 20 21  1  0
 21 29  1  0
 21 22  2  0
 22 23  1  0
 24 23  1  0
 24 25  2  0
 26 25  1  0
 27 26  2  0
 28 29  2  0
 28 27  1  0
 29 24  1  0
 30 19  1  0
 31 30  2  0
 32 30  1  0
M  END
$$$$
