IQW.pdb
     RDKit          3D

 32 33  0  0  1  0  0  0  0  0999 V2000
   25.6089  -14.3294  -14.0228 C   0  0  0  0  0  0  0  0  0  0  0  0
   25.5172  -15.7232  -14.5590 C   0  0  0  0  0  0  0  0  0  0  0  0
   26.9291  -16.2234  -14.8233 C   0  0  2  0  0  0  0  0  0  0  0  0
   27.6303  -15.3736  -15.8511 C   0  0  0  0  0  0  0  0  0  0  0  0
   26.7984  -17.6252  -15.3930 C   0  0  2  0  0  0  0  0  0  0  0  0
   25.9566  -17.6309  -16.5741 N   0  0  0  0  0  0  0  0  0  0  0  0
   26.1642  -18.4877  -14.3695 C   0  0  0  0  0  0  0  0  0  0  0  0
   24.9054  -18.5633  -14.2382 O   0  0  0  0  0  0  0  0  0  0  0  0
   24.4357  -22.5100  -14.2606 N   0  0  0  0  0  0  0  0  0  0  0  0
   25.2380  -23.3833  -13.4671 C   0  0  0  0  0  0  0  0  0  0  0  0
   24.8002  -24.4870  -13.0888 O   0  0  0  0  0  0  0  0  0  0  0  0
   26.5952  -22.9631  -13.0976 C   0  0  0  0  0  0  0  0  0  0  0  0
   26.9707  -21.6038  -13.5659 C   0  0  0  0  0  0  0  0  0  0  0  0
   26.4041  -20.4435  -12.8328 C   0  0  2  0  0  0  0  0  0  0  0  0
   26.9777  -19.2509  -13.5114 N   0  0  0  0  0  0  0  0  0  0  0  0
   26.7431  -20.3244  -11.4169 C   0  0  0  0  0  0  0  0  0  0  0  0
   27.9471  -20.1864  -11.0808 O   0  0  0  0  0  0  0  0  0  0  0  0
   25.8013  -20.3507  -10.3794 N   0  0  0  0  0  0  0  0  0  0  0  0
   26.2224  -20.6150   -8.9919 C   0  0  1  0  0  0  0  0  0  0  0  0
   26.0181  -19.3119   -8.2799 C   0  0  0  0  0  0  0  0  0  0  0  0
   27.0794  -18.8639   -7.3858 C   0  0  0  0  0  0  0  0  0  0  0  0
   27.6841  -17.5994   -7.4383 C   0  0  0  0  0  0  0  0  0  0  0  0
   28.6218  -17.5709   -6.4987 N   0  0  0  0  0  0  0  0  0  0  0  0
   28.6495  -18.7457   -5.8485 C   0  0  0  0  0  0  0  0  0  0  0  0
   29.4158  -19.2062   -4.7991 C   0  0  0  0  0  0  0  0  0  0  0  0
   29.2342  -20.4765   -4.2849 C   0  0  0  0  0  0  0  0  0  0  0  0
   28.2836  -21.2951   -4.8185 C   0  0  0  0  0  0  0  0  0  0  0  0
   27.5129  -20.8696   -5.8542 C   0  0  0  0  0  0  0  0  0  0  0  0
   27.6849  -19.5889   -6.3848 C   0  0  0  0  0  0  0  0  0  0  0  0
   25.4082  -21.7189   -8.4819 C   0  0  0  0  0  0  0  0  0  0  0  0
   24.5615  -22.3567   -9.1647 O   0  0  0  0  0  0  0  0  0  0  0  0
   25.5438  -22.1242   -7.1652 O   0  0  0  0  0  0  0  0  0  0  0  0
  2  1  1  0
  3  4  1  6
  3  5  1  0
  3  2  1  0
  5  6  1  6
  7  5  1  0
  7  8  2  0
 10  9  1  0
 10 12  1  0
 11 10  2  0
 12 13  1  0
 14 13  1  6
 14 15  1  0
 15  7  1  0
 16 17  2  0
 16 14  1  0
 18 16  1  0
 19 18  1  0
 19 20  1  1
 20 21  1  0
 21 29  1  0
 21 22  2  0
 22 23  1  0
 24 23  1  0
 24 25  2  0
 26 25  1  0
 27 26  2  0
 28 29  2  0
 28 27  1  0
 29 24  1  0
 30 19  1  0
 31 30  2  0
 32 30  1  0
M  END
$$$$
