IQW.pdb
     RDKit          3D

 32 33  0  0  1  0  0  0  0  0999 V2000
   28.9144  -17.7082  -16.8962 C   0  0  0  0  0  0  0  0  0  0  0  0
   27.6021  -18.4263  -16.9198 C   0  0  0  0  0  0  0  0  0  0  0  0
   26.9565  -18.2796  -15.5504 C   0  0  2  0  0  0  0  0  0  0  0  0
   27.7867  -18.9358  -14.4777 C   0  0  0  0  0  0  0  0  0  0  0  0
   25.6240  -19.0056  -15.6135 C   0  0  2  0  0  0  0  0  0  0  0  0
   24.7522  -18.4085  -16.6069 N   0  0  0  0  0  0  0  0  0  0  0  0
   24.9660  -18.8891  -14.2916 C   0  0  0  0  0  0  0  0  0  0  0  0
   24.6167  -17.7698  -13.8092 O   0  0  0  0  0  0  0  0  0  0  0  0
   20.3895  -21.9642  -12.4986 N   0  0  0  0  0  0  0  0  0  0  0  0
   20.6938  -21.3838  -11.2312 C   0  0  0  0  0  0  0  0  0  0  0  0
   19.9073  -21.4958  -10.2709 O   0  0  0  0  0  0  0  0  0  0  0  0
   21.9530  -20.6466  -11.0701 C   0  0  0  0  0  0  0  0  0  0  0  0
   22.7879  -20.5733  -12.2972 C   0  0  0  0  0  0  0  0  0  0  0  0
   24.1221  -19.9316  -12.1833 C   0  0  2  0  0  0  0  0  0  0  0  0
   24.7171  -20.0532  -13.5409 N   0  0  0  0  0  0  0  0  0  0  0  0
   25.0715  -20.5374  -11.2530 C   0  0  0  0  0  0  0  0  0  0  0  0
   25.6044  -21.6383  -11.5458 O   0  0  0  0  0  0  0  0  0  0  0  0
   25.4437  -19.9664  -10.0285 N   0  0  0  0  0  0  0  0  0  0  0  0
   26.3583  -20.6775   -9.1174 C   0  0  1  0  0  0  0  0  0  0  0  0
   27.3952  -19.6589   -8.7513 C   0  0  0  0  0  0  0  0  0  0  0  0
   28.3773  -20.0363   -7.7416 C   0  0  0  0  0  0  0  0  0  0  0  0
   29.3197  -21.0643   -7.8923 C   0  0  0  0  0  0  0  0  0  0  0  0
   30.0117  -21.1343   -6.7614 N   0  0  0  0  0  0  0  0  0  0  0  0
   29.5651  -20.2083   -5.8972 C   0  0  0  0  0  0  0  0  0  0  0  0
   29.9553  -19.8687   -4.6193 C   0  0  0  0  0  0  0  0  0  0  0  0
   29.3363  -18.8410   -3.9323 C   0  0  0  0  0  0  0  0  0  0  0  0
   28.3215  -18.1463   -4.5204 C   0  0  0  0  0  0  0  0  0  0  0  0
   27.9139  -18.4584   -5.7790 C   0  0  0  0  0  0  0  0  0  0  0  0
   28.5293  -19.4943   -6.4857 C   0  0  0  0  0  0  0  0  0  0  0  0
   25.5682  -21.1712   -7.9889 C   0  0  0  0  0  0  0  0  0  0  0  0
   24.4884  -20.6543   -7.5926 O   0  0  0  0  0  0  0  0  0  0  0  0
   25.9981  -22.2790   -7.2788 O   0  0  0  0  0  0  0  0  0  0  0  0
  2  1  1  0
  3  4  1  1
  3  5  1  0
  3  2  1  0
  5  6  1  6
  7  5  1  0
  7  8  2  0
 10  9  1  0
 10 12  1  0
 11 10  2  0
 12 13  1  0
 14 13  1  6
 14 15  1  0
 15  7  1  0
 16 17  2  0
 16 14  1  0
 18 16  1  0
 19 18  1  0
 19 20  1  1
 20 21  1  0
 21 29  1  0
 21 22  2  0
 22 23  1  0
 24 23  1  0
 24 25  2  0
 26 25  1  0
 27 26  2  0
 28 29  2  0
 28 27  1  0
 29 24  1  0
 30 19  1  0
 31 30  2  0
 32 30  1  0
M  END
$$$$
