IQW.pdb
     RDKit          3D

 32 33  0  0  1  0  0  0  0  0999 V2000
   26.6478  -19.0613  -19.2946 C   0  0  0  0  0  0  0  0  0  0  0  0
   26.9589  -19.9332  -18.1191 C   0  0  0  0  0  0  0  0  0  0  0  0
   26.7559  -19.1136  -16.8540 C   0  0  2  0  0  0  0  0  0  0  0  0
   27.6795  -17.9238  -16.8152 C   0  0  0  0  0  0  0  0  0  0  0  0
   27.1133  -20.0152  -15.6852 C   0  0  2  0  0  0  0  0  0  0  0  0
   26.6116  -21.3602  -15.8925 N   0  0  0  0  0  0  0  0  0  0  0  0
   26.4790  -19.4689  -14.4633 C   0  0  0  0  0  0  0  0  0  0  0  0
   26.6704  -18.2752  -14.0810 O   0  0  0  0  0  0  0  0  0  0  0  0
   20.9471  -20.7330  -12.0556 N   0  0  0  0  0  0  0  0  0  0  0  0
   21.7195  -21.6384  -12.8427 C   0  0  0  0  0  0  0  0  0  0  0  0
   21.2660  -22.7538  -13.1644 O   0  0  0  0  0  0  0  0  0  0  0  0
   23.0653  -21.2386  -13.2718 C   0  0  0  0  0  0  0  0  0  0  0  0
   23.5094  -19.9156  -12.7613 C   0  0  0  0  0  0  0  0  0  0  0  0
   24.9591  -19.7323  -12.4974 C   0  0  2  0  0  0  0  0  0  0  0  0
   25.6356  -20.2945  -13.6967 N   0  0  0  0  0  0  0  0  0  0  0  0
   25.5146  -20.4260  -11.3382 C   0  0  0  0  0  0  0  0  0  0  0  0
   25.7839  -21.6515  -11.4238 O   0  0  0  0  0  0  0  0  0  0  0  0
   25.7788  -19.8103  -10.1072 N   0  0  0  0  0  0  0  0  0  0  0  0
   26.3325  -20.5878   -8.9842 C   0  0  1  0  0  0  0  0  0  0  0  0
   27.3217  -19.6658   -8.3372 C   0  0  0  0  0  0  0  0  0  0  0  0
   28.1059  -20.1968   -7.2284 C   0  0  0  0  0  0  0  0  0  0  0  0
   28.7693  -21.4326   -7.2420 C   0  0  0  0  0  0  0  0  0  0  0  0
   29.3419  -21.5863   -6.0541 N   0  0  0  0  0  0  0  0  0  0  0  0
   29.0823  -20.5180   -5.2827 C   0  0  0  0  0  0  0  0  0  0  0  0
   29.4557  -20.1910   -3.9965 C   0  0  0  0  0  0  0  0  0  0  0  0
   29.0672  -18.9952   -3.4217 C   0  0  0  0  0  0  0  0  0  0  0  0
   28.3016  -18.1183   -4.1311 C   0  0  0  0  0  0  0  0  0  0  0  0
   27.9171  -18.4130   -5.4011 C   0  0  0  0  0  0  0  0  0  0  0  0
   28.3012  -19.6174   -5.9954 C   0  0  0  0  0  0  0  0  0  0  0  0
   25.2174  -20.9820   -8.1225 C   0  0  0  0  0  0  0  0  0  0  0  0
   24.0779  -20.4419   -8.1371 O   0  0  0  0  0  0  0  0  0  0  0  0
   25.3797  -22.0137   -7.2139 O   0  0  0  0  0  0  0  0  0  0  0  0
  2  1  1  0
  3  4  1  6
  3  5  1  0
  3  2  1  0
  5  6  1  6
  7  5  1  0
  7  8  2  0
 10  9  1  0
 10 12  1  0
 11 10  2  0
 12 13  1  0
 14 13  1  6
 14 15  1  0
 15  7  1  0
 16 17  2  0
 16 14  1  0
 18 16  1  0
 19 18  1  0
 19 20  1  1
 20 21  1  0
 21 29  1  0
 21 22  2  0
 22 23  1  0
 24 23  1  0
 24 25  2  0
 26 25  1  0
 27 26  2  0
 28 29  2  0
 28 27  1  0
 29 24  1  0
 30 19  1  0
 31 30  2  0
 32 30  1  0
M  END
$$$$
