IQW.pdb
     RDKit          3D

 32 33  0  0  1  0  0  0  0  0999 V2000
   30.0306  -21.7228  -14.8849 C   0  0  0  0  0  0  0  0  0  0  0  0
   29.6000  -20.3474  -15.2866 C   0  0  0  0  0  0  0  0  0  0  0  0
   28.5962  -19.8459  -14.2597 C   0  0  2  0  0  0  0  0  0  0  0  0
   29.0389  -20.1667  -12.8556 C   0  0  0  0  0  0  0  0  0  0  0  0
   27.2971  -20.5895  -14.5166 C   0  0  2  0  0  0  0  0  0  0  0  0
   26.8030  -20.3276  -15.8549 N   0  0  0  0  0  0  0  0  0  0  0  0
   26.2848  -20.1088  -13.5482 C   0  0  0  0  0  0  0  0  0  0  0  0
   25.8048  -18.9365  -13.6014 O   0  0  0  0  0  0  0  0  0  0  0  0
   21.6195  -18.9835  -11.5942 N   0  0  0  0  0  0  0  0  0  0  0  0
   22.0386  -18.9766  -12.9581 C   0  0  0  0  0  0  0  0  0  0  0  0
   21.5873  -18.1378  -13.7617 O   0  0  0  0  0  0  0  0  0  0  0  0
   23.0142  -19.9772  -13.4077 C   0  0  0  0  0  0  0  0  0  0  0  0
   23.4916  -20.8973  -12.3430 C   0  0  0  0  0  0  0  0  0  0  0  0
   24.7414  -20.5324  -11.6291 C   0  0  2  0  0  0  0  0  0  0  0  0
   25.8361  -20.9747  -12.5335 N   0  0  0  0  0  0  0  0  0  0  0  0
   24.9786  -21.1734  -10.3381 C   0  0  0  0  0  0  0  0  0  0  0  0
   25.2883  -22.3918  -10.3025 O   0  0  0  0  0  0  0  0  0  0  0  0
   24.8865  -20.5134   -9.1053 N   0  0  0  0  0  0  0  0  0  0  0  0
   25.0480  -21.2573   -7.8433 C   0  0  1  0  0  0  0  0  0  0  0  0
   25.3218  -20.2020   -6.8145 C   0  0  0  0  0  0  0  0  0  0  0  0
   26.6442  -19.5875   -6.8213 C   0  0  0  0  0  0  0  0  0  0  0  0
   27.1112  -18.7135   -7.8141 C   0  0  0  0  0  0  0  0  0  0  0  0
   28.3601  -18.3906   -7.5001 N   0  0  0  0  0  0  0  0  0  0  0  0
   28.7169  -19.0084   -6.3622 C   0  0  0  0  0  0  0  0  0  0  0  0
   29.8803  -18.9890   -5.6227 C   0  0  0  0  0  0  0  0  0  0  0  0
   29.9939  -19.7124   -4.4501 C   0  0  0  0  0  0  0  0  0  0  0  0
   28.9429  -20.4607   -4.0098 C   0  0  0  0  0  0  0  0  0  0  0  0
   27.7831  -20.5004   -4.7176 C   0  0  0  0  0  0  0  0  0  0  0  0
   27.6533  -19.7753   -5.9044 C   0  0  0  0  0  0  0  0  0  0  0  0
   23.8208  -22.0214   -7.6164 C   0  0  0  0  0  0  0  0  0  0  0  0
   23.6961  -22.9331   -6.7541 O   0  0  0  0  0  0  0  0  0  0  0  0
   22.6948  -21.7590   -8.3777 O   0  0  0  0  0  0  0  0  0  0  0  0
  2  1  1  0
  3  4  1  1
  3  5  1  0
  3  2  1  0
  5  6  1  6
  7  5  1  0
  7  8  2  0
 10  9  1  0
 10 12  1  0
 11 10  2  0
 12 13  1  0
 14 13  1  6
 14 15  1  0
 15  7  1  0
 16 17  2  0
 16 14  1  0
 18 16  1  0
 19 18  1  0
 19 20  1  1
 20 21  1  0
 21 29  1  0
 21 22  2  0
 22 23  1  0
 24 23  1  0
 24 25  2  0
 26 25  1  0
 27 26  2  0
 28 29  2  0
 28 27  1  0
 29 24  1  0
 30 19  1  0
 31 30  2  0
 32 30  1  0
M  END
$$$$
