IQW.pdb
     RDKit          3D

 32 33  0  0  1  0  0  0  0  0999 V2000
   21.5860  -17.0877  -17.0770 C   0  0  0  0  0  0  0  0  0  0  0  0
   22.2933  -17.0526  -15.7592 C   0  0  0  0  0  0  0  0  0  0  0  0
   23.4241  -18.0691  -15.8007 C   0  0  2  0  0  0  0  0  0  0  0  0
   22.9048  -19.4593  -16.0614 C   0  0  0  0  0  0  0  0  0  0  0  0
   24.0676  -18.0659  -14.4249 C   0  0  2  0  0  0  0  0  0  0  0  0
   24.5748  -16.7489  -14.0903 N   0  0  0  0  0  0  0  0  0  0  0  0
   25.2087  -19.0100  -14.4413 C   0  0  0  0  0  0  0  0  0  0  0  0
   25.0723  -20.2260  -14.7733 O   0  0  0  0  0  0  0  0  0  0  0  0
   29.1426  -20.6102  -16.6351 N   0  0  0  0  0  0  0  0  0  0  0  0
   28.8665  -19.2562  -16.9907 C   0  0  0  0  0  0  0  0  0  0  0  0
   28.8101  -18.9075  -18.1859 O   0  0  0  0  0  0  0  0  0  0  0  0
   28.6491  -18.2707  -15.9246 C   0  0  0  0  0  0  0  0  0  0  0  0
   28.7800  -18.8114  -14.5467 C   0  0  0  0  0  0  0  0  0  0  0  0
   27.6093  -19.5225  -13.9735 C   0  0  2  0  0  0  0  0  0  0  0  0
   26.4884  -18.5506  -14.0780 N   0  0  0  0  0  0  0  0  0  0  0  0
   27.6948  -19.9153  -12.5692 C   0  0  0  0  0  0  0  0  0  0  0  0
   28.5381  -19.3555  -11.8227 O   0  0  0  0  0  0  0  0  0  0  0  0
   26.8841  -20.8929  -11.9767 N   0  0  0  0  0  0  0  0  0  0  0  0
   27.0321  -21.2239  -10.5481 C   0  0  1  0  0  0  0  0  0  0  0  0
   26.9529  -19.9032   -9.8436 C   0  0  0  0  0  0  0  0  0  0  0  0
   26.9182  -19.9230   -8.3860 C   0  0  0  0  0  0  0  0  0  0  0  0
   25.7659  -19.7141   -7.6138 C   0  0  0  0  0  0  0  0  0  0  0  0
   26.1297  -19.7721   -6.3382 N   0  0  0  0  0  0  0  0  0  0  0  0
   27.4492  -20.0071   -6.2521 C   0  0  0  0  0  0  0  0  0  0  0  0
   28.2932  -20.1688   -5.1741 C   0  0  0  0  0  0  0  0  0  0  0  0
   29.6394  -20.4277   -5.3529 C   0  0  0  0  0  0  0  0  0  0  0  0
   30.1500  -20.5262   -6.6131 C   0  0  0  0  0  0  0  0  0  0  0  0
   29.3429  -20.3708   -7.6958 C   0  0  0  0  0  0  0  0  0  0  0  0
   27.9809  -20.1084   -7.5312 C   0  0  0  0  0  0  0  0  0  0  0  0
   25.9672  -22.1639  -10.1960 C   0  0  0  0  0  0  0  0  0  0  0  0
   25.8294  -22.6944   -9.0603 O   0  0  0  0  0  0  0  0  0  0  0  0
   25.0244  -22.5238  -11.1436 O   0  0  0  0  0  0  0  0  0  0  0  0
  2  1  1  0
  3  4  1  1
  3  5  1  0
  3  2  1  0
  5  6  1  6
  7  5  1  0
  7  8  2  0
 10  9  1  0
 10 12  1  0
 11 10  2  0
 12 13  1  0
 14 13  1  1
 14 15  1  0
 15  7  1  0
 16 17  2  0
 16 14  1  0
 18 16  1  0
 19 18  1  0
 19 20  1  1
 20 21  1  0
 21 29  1  0
 21 22  2  0
 22 23  1  0
 24 23  1  0
 24 25  2  0
 26 25  1  0
 27 26  2  0
 28 29  2  0
 28 27  1  0
 29 24  1  0
 30 19  1  0
 31 30  2  0
 32 30  1  0
M  END
$$$$
