ENC.pdb
     RDKit          3D

 24 23  0  0  1  0  0  0  0  0999 V2000
   21.5888  -16.8787  -15.5435 N   0  0  0  0  0  0  0  0  0  0  0  0
   20.4393  -16.1395  -15.9528 C   0  0  1  0  0  0  0  0  0  0  0  0
   19.2893  -16.4138  -15.0162 C   0  0  0  0  0  0  0  0  0  0  0  0
   18.6220  -17.7029  -15.3612 C   0  0  0  0  0  0  0  0  0  0  0  0
   17.3626  -17.9171  -14.6397 C   0  0  0  0  0  0  0  0  0  0  0  0
   16.5922  -18.8971  -14.7676 O   0  0  0  0  0  0  0  0  0  0  0  0
   20.7752  -14.6846  -15.9447 C   0  0  0  0  0  0  0  0  0  0  0  0
   21.3723  -14.2220  -14.9619 O   0  0  0  0  0  0  0  0  0  0  0  0
   16.9894  -16.9307  -13.7219 O   0  0  0  0  0  0  0  0  0  0  0  0
   23.5057  -13.2933  -17.5681 N   0  0  0  0  0  0  0  0  0  0  0  0
   22.7959  -12.5061  -18.4963 C   0  0  0  0  0  0  0  0  0  0  0  0
   23.4131  -12.1898  -19.5613 O   0  0  0  0  0  0  0  0  0  0  0  0
   21.4239  -12.0168  -18.3595 C   0  0  0  0  0  0  0  0  0  0  0  0
   20.7483  -12.4453  -17.0921 C   0  0  2  0  0  0  0  0  0  0  0  0
   20.4074  -13.8469  -17.0609 N   0  0  0  0  0  0  0  0  0  0  0  0
   19.4881  -11.6498  -16.9012 C   0  0  0  0  0  0  0  0  0  0  0  0
   18.4600  -11.8729  -17.5937 O   0  0  0  0  0  0  0  0  0  0  0  0
   19.3898  -10.6103  -15.9357 N   0  0  0  0  0  0  0  0  0  0  0  0
   18.1907   -9.8256  -15.8003 C   0  0  1  0  0  0  0  0  0  0  0  0
   17.7426   -9.7172  -14.3566 C   0  0  0  0  0  0  0  0  0  0  0  0
   16.3994   -8.5134  -14.1825 S   0  0  0  0  0  0  0  0  0  0  0  0
   18.3529   -8.4799  -16.3944 C   0  0  0  0  0  0  0  0  0  0  0  0
   17.3258   -7.9774  -17.1737 O   0  0  0  0  0  0  0  0  0  0  0  0
   19.4047   -7.8252  -16.1847 O   0  0  0  0  0  0  0  0  0  0  0  0
  2  1  1  1
  3  4  1  0
  3  2  1  0
  5  9  1  0
  5  4  1  0
  6  5  2  0
  7  8  2  0
  7  2  1  0
 11 10  1  0
 11 13  1  0
 12 11  2  0
 14 13  1  6
 14 15  1  0
 15  7  1  0
 16 14  1  0
 17 16  2  0
 18 16  1  0
 19 18  1  0
 20 21  1  0
 19 20  1  1
 22 19  1  0
 22 23  1  0
 24 22  2  0
M  END
$$$$
