ENC.pdb
     RDKit          3D

 24 23  0  0  1  0  0  0  0  0999 V2000
   19.3694  -14.4681  -16.4794 N   0  0  0  0  0  0  0  0  0  0  0  0
   18.6211  -13.2587  -16.3655 C   0  0  1  0  0  0  0  0  0  0  0  0
   17.4645  -13.4552  -15.4175 C   0  0  0  0  0  0  0  0  0  0  0  0
   16.4475  -14.3738  -16.0073 C   0  0  0  0  0  0  0  0  0  0  0  0
   15.3108  -14.6318  -15.1162 C   0  0  0  0  0  0  0  0  0  0  0  0
   14.3368  -13.8691  -14.9170 O   0  0  0  0  0  0  0  0  0  0  0  0
   19.5233  -12.1807  -15.8617 C   0  0  0  0  0  0  0  0  0  0  0  0
   20.5454  -12.5081  -15.2417 O   0  0  0  0  0  0  0  0  0  0  0  0
   15.3187  -15.8468  -14.4245 O   0  0  0  0  0  0  0  0  0  0  0  0
   22.0887   -7.6979  -15.0409 N   0  0  0  0  0  0  0  0  0  0  0  0
   22.3920   -8.7990  -15.8660 C   0  0  0  0  0  0  0  0  0  0  0  0
   23.5806   -8.8638  -16.3114 O   0  0  0  0  0  0  0  0  0  0  0  0
   21.4805   -9.8728  -16.2613 C   0  0  0  0  0  0  0  0  0  0  0  0
   20.0985   -9.7365  -15.6978 C   0  0  2  0  0  0  0  0  0  0  0  0
   19.2015  -10.7937  -16.0974 N   0  0  0  0  0  0  0  0  0  0  0  0
   19.5057   -8.4264  -16.1330 C   0  0  0  0  0  0  0  0  0  0  0  0
   19.3955   -8.1286  -17.3519 O   0  0  0  0  0  0  0  0  0  0  0  0
   19.0409   -7.4600  -15.1990 N   0  0  0  0  0  0  0  0  0  0  0  0
   18.3510   -6.2728  -15.6310 C   0  0  1  0  0  0  0  0  0  0  0  0
   17.1343   -5.9800  -14.7763 C   0  0  0  0  0  0  0  0  0  0  0  0
   15.9911   -7.3860  -14.7709 S   0  0  0  0  0  0  0  0  0  0  0  0
   19.2548   -5.1014  -15.6637 C   0  0  0  0  0  0  0  0  0  0  0  0
   18.7516   -3.8956  -16.1192 O   0  0  0  0  0  0  0  0  0  0  0  0
   20.4465   -5.2190  -15.2831 O   0  0  0  0  0  0  0  0  0  0  0  0
  2  1  1  1
  3  4  1  0
  3  2  1  0
  5  9  1  0
  5  4  1  0
  6  5  2  0
  7  8  2  0
  7  2  1  0
 11 10  1  0
 11 13  1  0
 12 11  2  0
 14 13  1  6
 14 15  1  0
 15  7  1  0
 16 14  1  0
 17 16  2  0
 18 16  1  0
 19 18  1  0
 20 21  1  0
 19 20  1  1
 22 19  1  0
 22 23  1  0
 24 22  2  0
M  END
$$$$
