ENC.pdb
     RDKit          3D

 24 23  0  0  1  0  0  0  0  0999 V2000
   13.9398  -12.1219  -12.2428 N   0  0  0  0  0  0  0  0  0  0  0  0
   15.2478  -11.6730  -11.8924 C   0  0  1  0  0  0  0  0  0  0  0  0
   16.2272  -12.0393  -12.9794 C   0  0  0  0  0  0  0  0  0  0  0  0
   16.3904  -13.5197  -13.0672 C   0  0  0  0  0  0  0  0  0  0  0  0
   16.3291  -14.0311  -14.4411 C   0  0  0  0  0  0  0  0  0  0  0  0
   17.1823  -13.8458  -15.3399 O   0  0  0  0  0  0  0  0  0  0  0  0
   15.2140  -10.1917  -11.7066 C   0  0  0  0  0  0  0  0  0  0  0  0
   14.5337   -9.5138  -12.4901 O   0  0  0  0  0  0  0  0  0  0  0  0
   15.2095  -14.7985  -14.7758 O   0  0  0  0  0  0  0  0  0  0  0  0
   15.4531   -5.7659   -7.4180 N   0  0  0  0  0  0  0  0  0  0  0  0
   15.4682   -6.3904   -8.6809 C   0  0  0  0  0  0  0  0  0  0  0  0
   15.3763   -5.6268   -9.6926 O   0  0  0  0  0  0  0  0  0  0  0  0
   15.5785   -7.8250   -8.9457 C   0  0  0  0  0  0  0  0  0  0  0  0
   15.8716   -8.1591  -10.3770 C   0  0  2  0  0  0  0  0  0  0  0  0
   15.9607   -9.5757  -10.6361 N   0  0  0  0  0  0  0  0  0  0  0  0
   17.1701   -7.5231  -10.7853 C   0  0  0  0  0  0  0  0  0  0  0  0
   18.1871   -7.5732  -10.0439 O   0  0  0  0  0  0  0  0  0  0  0  0
   17.3190   -6.8359  -12.0214 N   0  0  0  0  0  0  0  0  0  0  0  0
   18.5541   -6.1851  -12.3719 C   0  0  1  0  0  0  0  0  0  0  0  0
   19.2591   -6.8833  -13.5174 C   0  0  0  0  0  0  0  0  0  0  0  0
   19.6518   -8.5995  -13.0884 S   0  0  0  0  0  0  0  0  0  0  0  0
   18.3431   -4.7549  -12.6886 C   0  0  0  0  0  0  0  0  0  0  0  0
   19.4543   -3.9564  -12.8941 O   0  0  0  0  0  0  0  0  0  0  0  0
   17.1760   -4.2958  -12.7645 O   0  0  0  0  0  0  0  0  0  0  0  0
  2  1  1  6
  3  4  1  0
  3  2  1  0
  5  9  1  0
  5  4  1  0
  6  5  2  0
  7  8  2  0
  7  2  1  0
 11 10  1  0
 11 13  1  0
 12 11  2  0
 14 13  1  1
 14 15  1  0
 15  7  1  0
 16 14  1  0
 17 16  2  0
 18 16  1  0
 19 18  1  0
 20 21  1  0
 19 20  1  6
 22 19  1  0
 22 23  1  0
 24 22  2  0
M  END
$$$$
