ENC.pdb
     RDKit          3D

 24 23  0  0  1  0  0  0  0  0999 V2000
   35.8495  -29.0789  -15.6556 N   0  0  0  0  0  0  0  0  0  0  0  0
   36.4013  -30.3922  -15.7348 C   0  0  1  0  0  0  0  0  0  0  0  0
   37.8486  -30.3699  -15.3109 C   0  0  0  0  0  0  0  0  0  0  0  0
   38.6938  -29.7120  -16.3495 C   0  0  0  0  0  0  0  0  0  0  0  0
   39.0196  -30.5922  -17.4773 C   0  0  0  0  0  0  0  0  0  0  0  0
   39.1095  -31.8415  -17.4409 O   0  0  0  0  0  0  0  0  0  0  0  0
   35.6168  -31.2978  -14.8435 C   0  0  0  0  0  0  0  0  0  0  0  0
   34.9529  -30.7936  -13.9264 O   0  0  0  0  0  0  0  0  0  0  0  0
   39.2513  -29.9738  -18.7096 O   0  0  0  0  0  0  0  0  0  0  0  0
   32.1761  -32.7922  -15.0355 N   0  0  0  0  0  0  0  0  0  0  0  0
   32.7073  -34.0493  -15.3859 C   0  0  0  0  0  0  0  0  0  0  0  0
   31.9696  -34.7977  -16.1006 O   0  0  0  0  0  0  0  0  0  0  0  0
   34.0185  -34.5795  -15.0117 C   0  0  0  0  0  0  0  0  0  0  0  0
   34.8633  -33.6191  -14.2306 C   0  0  2  0  0  0  0  0  0  0  0  0
   35.6398  -32.7253  -15.0552 N   0  0  0  0  0  0  0  0  0  0  0  0
   35.8073  -34.3844  -13.3473 C   0  0  0  0  0  0  0  0  0  0  0  0
   37.0192  -34.0576  -13.2432 O   0  0  0  0  0  0  0  0  0  0  0  0
   35.3860  -35.5102  -12.5874 N   0  0  0  0  0  0  0  0  0  0  0  0
   36.3005  -36.2213  -11.7330 C   0  0  1  0  0  0  0  0  0  0  0  0
   36.9706  -35.3041  -10.7297 C   0  0  0  0  0  0  0  0  0  0  0  0
   38.1155  -36.2266   -9.6705 S   0  0  0  0  0  0  0  0  0  0  0  0
   35.6333  -37.3464  -11.0409 C   0  0  0  0  0  0  0  0  0  0  0  0
   36.3480  -38.5153  -10.8468 O   0  0  0  0  0  0  0  0  0  0  0  0
   34.4466  -37.2240  -10.6467 O   0  0  0  0  0  0  0  0  0  0  0  0
  2  1  1  1
  3  4  1  0
  3  2  1  0
  5  9  1  0
  5  4  1  0
  6  5  2  0
  7  8  2  0
  7  2  1  0
 11 10  1  0
 11 13  1  0
 12 11  2  0
 14 13  1  6
 14 15  1  0
 15  7  1  0
 16 14  1  0
 17 16  2  0
 18 16  1  0
 19 18  1  0
 20 21  1  0
 19 20  1  1
 22 19  1  0
 22 23  1  0
 24 22  2  0
M  END
$$$$
