ENC.pdb
     RDKit          3D

 24 23  0  0  1  0  0  0  0  0999 V2000
   14.9561  -12.8605  -15.0148 N   0  0  0  0  0  0  0  0  0  0  0  0
   16.3502  -12.5574  -15.0230 C   0  0  1  0  0  0  0  0  0  0  0  0
   17.0705  -13.4689  -15.9850 C   0  0  0  0  0  0  0  0  0  0  0  0
   17.0520  -14.8774  -15.4934 C   0  0  0  0  0  0  0  0  0  0  0  0
   17.6413  -15.8314  -16.4396 C   0  0  0  0  0  0  0  0  0  0  0  0
   17.0250  -16.4895  -17.3097 O   0  0  0  0  0  0  0  0  0  0  0  0
   16.5300  -11.1321  -15.4305 C   0  0  0  0  0  0  0  0  0  0  0  0
   15.7297  -10.6445  -16.2418 O   0  0  0  0  0  0  0  0  0  0  0  0
   19.0241  -16.0217  -16.3596 O   0  0  0  0  0  0  0  0  0  0  0  0
   16.9413   -5.9752  -16.1987 N   0  0  0  0  0  0  0  0  0  0  0  0
   16.8675   -6.6604  -14.9698 C   0  0  0  0  0  0  0  0  0  0  0  0
   17.0174   -5.9602  -13.9199 O   0  0  0  0  0  0  0  0  0  0  0  0
   16.6364   -8.0925  -14.7796 C   0  0  0  0  0  0  0  0  0  0  0  0
   17.7782   -8.9572  -15.2209 C   0  0  2  0  0  0  0  0  0  0  0  0
   17.6144  -10.3510  -14.8856 N   0  0  0  0  0  0  0  0  0  0  0  0
   19.0514   -8.4679  -14.5910 C   0  0  0  0  0  0  0  0  0  0  0  0
   19.1893   -8.4223  -13.3399 O   0  0  0  0  0  0  0  0  0  0  0  0
   20.1604   -8.0334  -15.3680 N   0  0  0  0  0  0  0  0  0  0  0  0
   21.4095   -7.6699  -14.7519 C   0  0  1  0  0  0  0  0  0  0  0  0
   22.5856   -7.8822  -15.6838 C   0  0  0  0  0  0  0  0  0  0  0  0
   22.6760   -9.6069  -16.2324 S   0  0  0  0  0  0  0  0  0  0  0  0
   21.3854   -6.2750  -14.2581 C   0  0  0  0  0  0  0  0  0  0  0  0
   22.2895   -5.9098  -13.2763 O   0  0  0  0  0  0  0  0  0  0  0  0
   20.5570   -5.4573  -14.7311 O   0  0  0  0  0  0  0  0  0  0  0  0
  2  1  1  6
  3  4  1  0
  3  2  1  0
  5  9  1  0
  5  4  1  0
  6  5  2  0
  7  8  2  0
  7  2  1  0
 11 10  1  0
 11 13  1  0
 12 11  2  0
 14 13  1  1
 14 15  1  0
 15  7  1  0
 16 14  1  0
 17 16  2  0
 18 16  1  0
 19 18  1  0
 20 21  1  0
 19 20  1  6
 22 19  1  0
 22 23  1  0
 24 22  2  0
M  END
$$$$
