ENC.pdb
     RDKit          3D

 24 23  0  0  1  0  0  0  0  0999 V2000
   18.7333  -12.3737  -18.4550 N   0  0  0  0  0  0  0  0  0  0  0  0
   17.8900  -11.4888  -17.7192 C   0  0  1  0  0  0  0  0  0  0  0  0
   17.6126  -12.0594  -16.3508 C   0  0  0  0  0  0  0  0  0  0  0  0
   16.7601  -13.2798  -16.4496 C   0  0  0  0  0  0  0  0  0  0  0  0
   16.3814  -13.8319  -15.1440 C   0  0  0  0  0  0  0  0  0  0  0  0
   17.1549  -14.3510  -14.3059 O   0  0  0  0  0  0  0  0  0  0  0  0
   18.5711  -10.1655  -17.5977 C   0  0  0  0  0  0  0  0  0  0  0  0
   19.8054  -10.1249  -17.7032 O   0  0  0  0  0  0  0  0  0  0  0  0
   15.0262  -13.7711  -14.8060 O   0  0  0  0  0  0  0  0  0  0  0  0
   18.3949   -4.3932  -18.7110 N   0  0  0  0  0  0  0  0  0  0  0  0
   18.0655   -5.2179  -17.6172 C   0  0  0  0  0  0  0  0  0  0  0  0
   18.3201   -4.7555  -16.4611 O   0  0  0  0  0  0  0  0  0  0  0  0
   17.4616   -6.5491  -17.6764 C   0  0  0  0  0  0  0  0  0  0  0  0
   18.4151   -7.6643  -17.3711 C   0  0  2  0  0  0  0  0  0  0  0  0
   17.7991   -8.9690  -17.3624 N   0  0  0  0  0  0  0  0  0  0  0  0
   19.0455   -7.4322  -16.0272 C   0  0  0  0  0  0  0  0  0  0  0  0
   18.6246   -8.0184  -14.9949 O   0  0  0  0  0  0  0  0  0  0  0  0
   20.1427   -6.5450  -15.8505 N   0  0  0  0  0  0  0  0  0  0  0  0
   20.8458   -6.4645  -14.5971 C   0  0  1  0  0  0  0  0  0  0  0  0
   21.5514   -7.7619  -14.2570 C   0  0  0  0  0  0  0  0  0  0  0  0
   22.5719   -7.5756  -12.7712 S   0  0  0  0  0  0  0  0  0  0  0  0
   21.8027   -5.3356  -14.5831 C   0  0  0  0  0  0  0  0  0  0  0  0
   22.3479   -4.9511  -13.3708 O   0  0  0  0  0  0  0  0  0  0  0  0
   22.1002   -4.7534  -15.6561 O   0  0  0  0  0  0  0  0  0  0  0  0
  2  1  1  6
  3  4  1  0
  3  2  1  0
  5  9  1  0
  5  4  1  0
  6  5  2  0
  7  8  2  0
  7  2  1  0
 11 10  1  0
 11 13  1  0
 12 11  2  0
 14 13  1  1
 14 15  1  0
 15  7  1  0
 16 14  1  0
 17 16  2  0
 18 16  1  0
 19 18  1  0
 20 21  1  0
 19 20  1  6
 22 19  1  0
 22 23  1  0
 24 22  2  0
M  END
$$$$
