AYN.pdb
     RDKit          3D

 26 26  0  0  1  0  0  0  0  0999 V2000
   26.5895  -11.8887  -15.4515 C   0  0  0  0  0  0  0  0  0  0  0  0
   25.4647  -12.6687  -16.1475 C   0  0  2  0  0  0  0  0  0  0  0  0
   26.0353  -13.3387  -17.2609 N   0  0  0  0  0  0  0  0  0  0  0  0
   24.5267  -11.6093  -16.6539 C   0  0  0  0  0  0  0  0  0  0  0  0
   24.8433  -11.0063  -17.7127 O   0  0  0  0  0  0  0  0  0  0  0  0
   21.4408  -14.3021  -21.1426 O   0  0  0  0  0  0  0  0  0  0  0  0
   21.3436  -13.5181  -19.9994 C   0  0  0  0  0  0  0  0  0  0  0  0
   20.9769  -12.2060  -20.1232 C   0  0  0  0  0  0  0  0  0  0  0  0
   20.8776  -11.4177  -18.9950 C   0  0  0  0  0  0  0  0  0  0  0  0
   21.1540  -11.9858  -17.7768 C   0  0  0  0  0  0  0  0  0  0  0  0
   21.0165  -11.0772  -16.5894 C   0  0  0  0  0  0  0  0  0  0  0  0
   22.3526  -10.4310  -16.3429 C   0  0  2  0  0  0  0  0  0  0  0  0
   23.3558  -11.3419  -15.9320 N   0  0  0  0  0  0  0  0  0  0  0  0
   22.1747   -9.2585  -15.4070 C   0  0  0  0  0  0  0  0  0  0  0  0
   22.0434   -9.3937  -14.1715 O   0  0  0  0  0  0  0  0  0  0  0  0
   21.5212  -13.2889  -17.6307 C   0  0  0  0  0  0  0  0  0  0  0  0
   21.6129  -14.0634  -18.7883 C   0  0  0  0  0  0  0  0  0  0  0  0
   21.8680   -3.1885  -15.5926 N   0  0  0  0  0  0  0  0  0  0  0  0
   22.3747   -4.3917  -15.0586 C   0  0  0  0  0  0  0  0  0  0  0  0
   22.7128   -4.4773  -13.8205 O   0  0  0  0  0  0  0  0  0  0  0  0
   22.5197   -5.5807  -15.9332 C   0  0  0  0  0  0  0  0  0  0  0  0
   22.0481   -6.8092  -15.1618 C   0  0  2  0  0  0  0  0  0  0  0  0
   22.1673   -7.9787  -16.0113 N   0  0  0  0  0  0  0  0  0  0  0  0
   20.6508   -6.6869  -14.7262 C   0  0  0  0  0  0  0  0  0  0  0  0
   19.7145   -6.8665  -15.5332 O   0  0  0  0  0  0  0  0  0  0  0  0
   20.2951   -6.3667  -13.3992 O   0  0  0  0  0  0  0  0  0  0  0  0
  2  1  1  6
  3  2  1  0
  4  2  1  0
  4  5  2  0
  6  7  1  0
  7 17  2  0
  8  7  1  0
  8  9  2  0
  9 10  1  0
 10 16  2  0
 10 11  1  0
 12 11  1  1
 12 13  1  0
 13  4  1  0
 14 12  1  0
 15 14  2  0
 17 16  1  0
 19 18  1  0
 19 21  1  0
 20 19  2  0
 22 21  1  6
 22 24  1  0
 22 23  1  0
 23 14  1  0
 24 26  1  0
 25 24  2  0
M  END
$$$$
