AYN.pdb
     RDKit          3D

 26 26  0  0  1  0  0  0  0  0999 V2000
   27.4939  -25.0224  -16.9913 C   0  0  0  0  0  0  0  0  0  0  0  0
   26.7955  -23.7004  -17.3413 C   0  0  2  0  0  0  0  0  0  0  0  0
   27.8013  -22.7079  -17.4731 N   0  0  0  0  0  0  0  0  0  0  0  0
   25.9616  -23.3812  -16.1325 C   0  0  0  0  0  0  0  0  0  0  0  0
   25.0282  -24.1740  -15.8407 O   0  0  0  0  0  0  0  0  0  0  0  0
   23.2309  -20.4131   -8.6584 O   0  0  0  0  0  0  0  0  0  0  0  0
   24.0102  -20.5705   -9.7981 C   0  0  0  0  0  0  0  0  0  0  0  0
   23.6528  -19.9128  -10.9430 C   0  0  0  0  0  0  0  0  0  0  0  0
   24.4189  -20.0621  -12.0811 C   0  0  0  0  0  0  0  0  0  0  0  0
   25.5231  -20.8745  -12.0213 C   0  0  0  0  0  0  0  0  0  0  0  0
   26.3187  -20.9848  -13.2898 C   0  0  0  0  0  0  0  0  0  0  0  0
   25.5086  -21.7793  -14.2776 C   0  0  2  0  0  0  0  0  0  0  0  0
   26.2559  -22.2273  -15.3938 N   0  0  0  0  0  0  0  0  0  0  0  0
   24.2691  -20.9992  -14.6484 C   0  0  0  0  0  0  0  0  0  0  0  0
   24.2958  -20.0117  -15.4141 O   0  0  0  0  0  0  0  0  0  0  0  0
   25.8967  -21.5389  -10.8929 C   0  0  0  0  0  0  0  0  0  0  0  0
   25.1043  -21.3692   -9.7563 C   0  0  0  0  0  0  0  0  0  0  0  0
   19.5204  -19.9233  -15.5445 N   0  0  0  0  0  0  0  0  0  0  0  0
   20.3531  -20.5806  -16.4739 C   0  0  0  0  0  0  0  0  0  0  0  0
   20.0112  -20.6904  -17.7091 O   0  0  0  0  0  0  0  0  0  0  0  0
   21.6456  -21.1540  -16.0262 C   0  0  0  0  0  0  0  0  0  0  0  0
   21.8102  -20.8716  -14.5363 C   0  0  2  0  0  0  0  0  0  0  0  0
   23.0567  -21.4536  -14.0769 N   0  0  0  0  0  0  0  0  0  0  0  0
   20.7100  -21.4326  -13.7414 C   0  0  0  0  0  0  0  0  0  0  0  0
   20.7452  -22.6197  -13.3546 O   0  0  0  0  0  0  0  0  0  0  0  0
   19.5753  -20.6776  -13.3774 O   0  0  0  0  0  0  0  0  0  0  0  0
  2  1  1  1
  3  2  1  0
  4  2  1  0
  4  5  2  0
  6  7  1  0
  7 17  2  0
  8  7  1  0
  8  9  2  0
  9 10  1  0
 10 16  2  0
 10 11  1  0
 12 11  1  1
 12 13  1  0
 13  4  1  0
 14 12  1  0
 15 14  2  0
 17 16  1  0
 19 18  1  0
 19 21  1  0
 20 19  2  0
 22 21  1  6
 22 24  1  0
 22 23  1  0
 23 14  1  0
 24 26  1  0
 25 24  2  0
M  END
$$$$
