AYN.pdb
     RDKit          3D

 26 26  0  0  1  0  0  0  0  0999 V2000
   34.6666  -11.0180  -21.3360 C   0  0  0  0  0  0  0  0  0  0  0  0
   35.4711  -10.1932  -20.3209 C   0  0  2  0  0  0  0  0  0  0  0  0
   36.1988  -11.1041  -19.5116 N   0  0  0  0  0  0  0  0  0  0  0  0
   34.4307   -9.5207  -19.4702 C   0  0  0  0  0  0  0  0  0  0  0  0
   33.5913   -8.7821  -20.0488 O   0  0  0  0  0  0  0  0  0  0  0  0
   29.1998  -13.0923  -19.2481 O   0  0  0  0  0  0  0  0  0  0  0  0
   30.0972  -12.3404  -18.4994 C   0  0  0  0  0  0  0  0  0  0  0  0
   31.3408  -12.8503  -18.2454 C   0  0  0  0  0  0  0  0  0  0  0  0
   32.2401  -12.1128  -17.5026 C   0  0  0  0  0  0  0  0  0  0  0  0
   31.8486  -10.8814  -17.0407 C   0  0  0  0  0  0  0  0  0  0  0  0
   32.8772  -10.1266  -16.2491 C   0  0  0  0  0  0  0  0  0  0  0  0
   33.5424   -9.1426  -17.1724 C   0  0  2  0  0  0  0  0  0  0  0  0
   34.4426   -9.7418  -18.0865 N   0  0  0  0  0  0  0  0  0  0  0  0
   34.1550   -8.0284  -16.3566 C   0  0  0  0  0  0  0  0  0  0  0  0
   35.2894   -8.1145  -15.8393 O   0  0  0  0  0  0  0  0  0  0  0  0
   30.6159  -10.3551  -17.2810 C   0  0  0  0  0  0  0  0  0  0  0  0
   29.7267  -11.1221  -18.0357 C   0  0  0  0  0  0  0  0  0  0  0  0
   37.0660   -3.7407  -15.5661 N   0  0  0  0  0  0  0  0  0  0  0  0
   36.1553   -4.7552  -15.2045 C   0  0  0  0  0  0  0  0  0  0  0  0
   36.1175   -5.2154  -14.0038 O   0  0  0  0  0  0  0  0  0  0  0  0
   35.2225   -5.3021  -16.2196 C   0  0  0  0  0  0  0  0  0  0  0  0
   33.9348   -5.7213  -15.5176 C   0  0  2  0  0  0  0  0  0  0  0  0
   33.3663   -6.8625  -16.2088 N   0  0  0  0  0  0  0  0  0  0  0  0
   32.9388   -4.6422  -15.4967 C   0  0  0  0  0  0  0  0  0  0  0  0
   31.9604   -4.6640  -16.2728 O   0  0  0  0  0  0  0  0  0  0  0  0
   33.0292   -3.5433  -14.6168 O   0  0  0  0  0  0  0  0  0  0  0  0
  2  1  1  6
  3  2  1  0
  4  2  1  0
  4  5  2  0
  6  7  1  0
  7 17  2  0
  8  7  1  0
  8  9  2  0
  9 10  1  0
 10 16  2  0
 10 11  1  0
 12 11  1  1
 12 13  1  0
 13  4  1  0
 14 12  1  0
 15 14  2  0
 17 16  1  0
 19 18  1  0
 19 21  1  0
 20 19  2  0
 22 21  1  6
 22 24  1  0
 22 23  1  0
 23 14  1  0
 24 26  1  0
 25 24  2  0
M  END
$$$$
