AYN.pdb
     RDKit          3D

 26 26  0  0  1  0  0  0  0  0999 V2000
   19.5390  -14.0237  -16.9330 C   0  0  0  0  0  0  0  0  0  0  0  0
   19.5672  -12.8395  -17.9101 C   0  0  2  0  0  0  0  0  0  0  0  0
   20.8011  -12.8922  -18.6094 N   0  0  0  0  0  0  0  0  0  0  0  0
   19.5663  -11.6219  -17.0293 C   0  0  0  0  0  0  0  0  0  0  0  0
   18.5287  -11.3890  -16.3555 O   0  0  0  0  0  0  0  0  0  0  0  0
   22.2318   -4.3962  -13.1445 O   0  0  0  0  0  0  0  0  0  0  0  0
   22.2030   -5.6534  -13.7360 C   0  0  0  0  0  0  0  0  0  0  0  0
   22.6093   -5.7853  -15.0356 C   0  0  0  0  0  0  0  0  0  0  0  0
   22.5845   -7.0287  -15.6335 C   0  0  0  0  0  0  0  0  0  0  0  0
   22.1477   -8.0988  -14.8939 C   0  0  0  0  0  0  0  0  0  0  0  0
   22.1559   -9.4239  -15.5998 C   0  0  0  0  0  0  0  0  0  0  0  0
   20.8146   -9.6080  -16.2560 C   0  0  2  0  0  0  0  0  0  0  0  0
   20.7070  -10.8085  -16.9992 N   0  0  0  0  0  0  0  0  0  0  0  0
   20.4726   -8.3684  -17.0488 C   0  0  0  0  0  0  0  0  0  0  0  0
   21.0438   -8.0725  -18.1204 O   0  0  0  0  0  0  0  0  0  0  0  0
   21.7382   -7.9901  -13.5998 C   0  0  0  0  0  0  0  0  0  0  0  0
   21.7745   -6.7209  -13.0197 C   0  0  0  0  0  0  0  0  0  0  0  0
   18.0936   -4.5152  -18.9360 N   0  0  0  0  0  0  0  0  0  0  0  0
   17.1097   -5.3608  -18.3825 C   0  0  0  0  0  0  0  0  0  0  0  0
   15.8628   -5.1907  -18.6492 O   0  0  0  0  0  0  0  0  0  0  0  0
   17.5133   -6.4664  -17.4802 C   0  0  0  0  0  0  0  0  0  0  0  0
   19.0211   -6.3879  -17.2630 C   0  0  2  0  0  0  0  0  0  0  0  0
   19.4538   -7.5483  -16.5081 N   0  0  0  0  0  0  0  0  0  0  0  0
   19.4125   -5.1781  -16.5281 C   0  0  0  0  0  0  0  0  0  0  0  0
   19.2647   -5.1099  -15.2897 O   0  0  0  0  0  0  0  0  0  0  0  0
   19.9663   -4.0485  -17.1664 O   0  0  0  0  0  0  0  0  0  0  0  0
  2  1  1  1
  3  2  1  0
  4  2  1  0
  4  5  2  0
  6  7  1  0
  7 17  2  0
  8  7  1  0
  8  9  2  0
  9 10  1  0
 10 16  2  0
 10 11  1  0
 12 11  1  6
 12 13  1  0
 13  4  1  0
 14 12  1  0
 15 14  2  0
 17 16  1  0
 19 18  1  0
 19 21  1  0
 20 19  2  0
 22 21  1  1
 22 24  1  0
 22 23  1  0
 23 14  1  0
 24 26  1  0
 25 24  2  0
M  END
$$$$
