AYN.pdb
     RDKit          3D

 26 26  0  0  1  0  0  0  0  0999 V2000
   29.5951  -20.7741  -17.3704 C   0  0  0  0  0  0  0  0  0  0  0  0
   29.4330  -22.1776  -17.9720 C   0  0  2  0  0  0  0  0  0  0  0  0
   28.7970  -22.0311  -19.2323 N   0  0  0  0  0  0  0  0  0  0  0  0
   28.4907  -22.8833  -17.0380 C   0  0  0  0  0  0  0  0  0  0  0  0
   28.2501  -22.3383  -15.9290 O   0  0  0  0  0  0  0  0  0  0  0  0
   21.5507  -26.2310  -13.8545 O   0  0  0  0  0  0  0  0  0  0  0  0
   22.5402  -25.6355  -14.6274 C   0  0  0  0  0  0  0  0  0  0  0  0
   23.3761  -24.7214  -14.0468 C   0  0  0  0  0  0  0  0  0  0  0  0
   24.3620  -24.1231  -14.8047 C   0  0  0  0  0  0  0  0  0  0  0  0
   24.4682  -24.4712  -16.1278 C   0  0  0  0  0  0  0  0  0  0  0  0
   25.5677  -23.7925  -16.8925 C   0  0  0  0  0  0  0  0  0  0  0  0
   26.7783  -24.6849  -16.8543 C   0  0  2  0  0  0  0  0  0  0  0  0
   27.9299  -24.1036  -17.4381 N   0  0  0  0  0  0  0  0  0  0  0  0
   26.4207  -26.0358  -17.4283 C   0  0  0  0  0  0  0  0  0  0  0  0
   26.0813  -26.1952  -18.6206 O   0  0  0  0  0  0  0  0  0  0  0  0
   23.6468  -25.3778  -16.7259 C   0  0  0  0  0  0  0  0  0  0  0  0
   22.6590  -25.9680  -15.9357 C   0  0  0  0  0  0  0  0  0  0  0  0
   28.9049  -31.1404  -16.3765 N   0  0  0  0  0  0  0  0  0  0  0  0
   28.4250  -29.8347  -16.6092 C   0  0  0  0  0  0  0  0  0  0  0  0
   29.1186  -28.9827  -17.2784 O   0  0  0  0  0  0  0  0  0  0  0  0
   27.0996  -29.4329  -16.0786 C   0  0  0  0  0  0  0  0  0  0  0  0
   26.4508  -28.4746  -17.0723 C   0  0  2  0  0  0  0  0  0  0  0  0
   26.4940  -27.1291  -16.5325 N   0  0  0  0  0  0  0  0  0  0  0  0
   25.0512  -28.8248  -17.3464 C   0  0  0  0  0  0  0  0  0  0  0  0
   24.1354  -28.4174  -16.6012 O   0  0  0  0  0  0  0  0  0  0  0  0
   24.6703  -29.6244  -18.4445 O   0  0  0  0  0  0  0  0  0  0  0  0
  2  1  1  1
  3  2  1  0
  4  2  1  0
  4  5  2  0
  6  7  1  0
  7 17  2  0
  8  7  1  0
  8  9  2  0
  9 10  1  0
 10 16  2  0
 10 11  1  0
 12 11  1  6
 12 13  1  0
 13  4  1  0
 14 12  1  0
 15 14  2  0
 17 16  1  0
 19 18  1  0
 19 21  1  0
 20 19  2  0
 22 21  1  1
 22 24  1  0
 22 23  1  0
 23 14  1  0
 24 26  1  0
 25 24  2  0
M  END
$$$$
