AYN.pdb
     RDKit          3D

 26 26  0  0  1  0  0  0  0  0999 V2000
   23.3874  -23.9456  -15.6866 C   0  0  0  0  0  0  0  0  0  0  0  0
   24.5767  -23.7693  -14.7314 C   0  0  2  0  0  0  0  0  0  0  0  0
   24.2859  -24.4978  -13.5486 N   0  0  0  0  0  0  0  0  0  0  0  0
   24.5837  -22.3030  -14.4024 C   0  0  0  0  0  0  0  0  0  0  0  0
   23.5626  -21.8250  -13.8423 O   0  0  0  0  0  0  0  0  0  0  0  0
   24.9790  -21.4783   -8.3913 O   0  0  0  0  0  0  0  0  0  0  0  0
   25.4513  -21.0680   -9.6322 C   0  0  0  0  0  0  0  0  0  0  0  0
   26.4463  -21.7877  -10.2351 C   0  0  0  0  0  0  0  0  0  0  0  0
   26.9236  -21.3894  -11.4671 C   0  0  0  0  0  0  0  0  0  0  0  0
   26.3764  -20.2731  -12.0480 C   0  0  0  0  0  0  0  0  0  0  0  0
   26.9324  -19.9007  -13.3921 C   0  0  0  0  0  0  0  0  0  0  0  0
   25.8706  -20.1686  -14.4236 C   0  0  2  0  0  0  0  0  0  0  0  0
   25.7132  -21.5417  -14.7318 N   0  0  0  0  0  0  0  0  0  0  0  0
   26.1187  -19.2978  -15.6329 C   0  0  0  0  0  0  0  0  0  0  0  0
   26.5629  -19.7486  -16.7107 O   0  0  0  0  0  0  0  0  0  0  0  0
   25.3863  -19.5418  -11.4656 C   0  0  0  0  0  0  0  0  0  0  0  0
   24.9218  -19.9678  -10.2201 C   0  0  0  0  0  0  0  0  0  0  0  0
   26.5790  -14.6124  -17.3022 N   0  0  0  0  0  0  0  0  0  0  0  0
   27.5110  -15.6322  -17.5863 C   0  0  0  0  0  0  0  0  0  0  0  0
   28.6586  -15.3580  -18.0987 O   0  0  0  0  0  0  0  0  0  0  0  0
   27.1689  -17.0445  -17.2894 C   0  0  0  0  0  0  0  0  0  0  0  0
   25.7790  -17.0842  -16.6624 C   0  0  2  0  0  0  0  0  0  0  0  0
   25.8144  -17.9240  -15.4804 N   0  0  0  0  0  0  0  0  0  0  0  0
   24.7696  -17.6178  -17.5862 C   0  0  0  0  0  0  0  0  0  0  0  0
   23.6928  -17.0125  -17.7711 O   0  0  0  0  0  0  0  0  0  0  0  0
   24.9559  -18.8190  -18.3021 O   0  0  0  0  0  0  0  0  0  0  0  0
  2  1  1  6
  3  2  1  0
  4  2  1  0
  4  5  2  0
  6  7  1  0
  7 17  2  0
  8  7  1  0
  8  9  2  0
  9 10  1  0
 10 16  2  0
 10 11  1  0
 12 11  1  1
 12 13  1  0
 13  4  1  0
 14 12  1  0
 15 14  2  0
 17 16  1  0
 19 18  1  0
 19 21  1  0
 20 19  2  0
 22 21  1  6
 22 24  1  0
 22 23  1  0
 23 14  1  0
 24 26  1  0
 25 24  2  0
M  END
$$$$
