AYN.pdb
     RDKit          3D

 26 26  0  0  1  0  0  0  0  0999 V2000
   19.7002  -10.0631  -18.4481 C   0  0  0  0  0  0  0  0  0  0  0  0
   20.2523  -10.5284  -17.0928 C   0  0  2  0  0  0  0  0  0  0  0  0
   19.6302  -11.7651  -16.7802 N   0  0  0  0  0  0  0  0  0  0  0  0
   19.7773   -9.4913  -16.1144 C   0  0  0  0  0  0  0  0  0  0  0  0
   18.5361   -9.3840  -15.9334 O   0  0  0  0  0  0  0  0  0  0  0  0
   19.0616   -4.5206   -9.3219 O   0  0  0  0  0  0  0  0  0  0  0  0
   19.6415   -5.2952  -10.3193 C   0  0  0  0  0  0  0  0  0  0  0  0
   19.3980   -6.6411  -10.3408 C   0  0  0  0  0  0  0  0  0  0  0  0
   19.9690   -7.4204  -11.3262 C   0  0  0  0  0  0  0  0  0  0  0  0
   20.7693   -6.8092  -12.2583 C   0  0  0  0  0  0  0  0  0  0  0  0
   21.3501   -7.7114  -13.3085 C   0  0  0  0  0  0  0  0  0  0  0  0
   20.4138   -7.7149  -14.4861 C   0  0  2  0  0  0  0  0  0  0  0  0
   20.7265   -8.6978  -15.4562 N   0  0  0  0  0  0  0  0  0  0  0  0
   20.3130   -6.3160  -15.0475 C   0  0  0  0  0  0  0  0  0  0  0  0
   21.2648   -5.7500  -15.6269 O   0  0  0  0  0  0  0  0  0  0  0  0
   21.0256   -5.4718  -12.2553 C   0  0  0  0  0  0  0  0  0  0  0  0
   20.4345   -4.7075  -11.2478 C   0  0  0  0  0  0  0  0  0  0  0  0
   16.1738   -2.5598  -17.3595 N   0  0  0  0  0  0  0  0  0  0  0  0
   17.3771   -2.9111  -16.7130 C   0  0  0  0  0  0  0  0  0  0  0  0
   18.3679   -2.0920  -16.6653 O   0  0  0  0  0  0  0  0  0  0  0  0
   17.5070   -4.2432  -16.0741 C   0  0  0  0  0  0  0  0  0  0  0  0
   18.8896   -4.3419  -15.4374 C   0  0  2  0  0  0  0  0  0  0  0  0
   19.0640   -5.6708  -14.8832 N   0  0  0  0  0  0  0  0  0  0  0  0
   19.0761   -3.3579  -14.3632 C   0  0  0  0  0  0  0  0  0  0  0  0
   18.5015   -3.4998  -13.2633 O   0  0  0  0  0  0  0  0  0  0  0  0
   19.8981   -2.2209  -14.5102 O   0  0  0  0  0  0  0  0  0  0  0  0
  2  1  1  6
  3  2  1  0
  4  2  1  0
  4  5  2  0
  6  7  1  0
  7 17  2  0
  8  7  1  0
  8  9  2  0
  9 10  1  0
 10 16  2  0
 10 11  1  0
 12 11  1  1
 12 13  1  0
 13  4  1  0
 14 12  1  0
 15 14  2  0
 17 16  1  0
 19 18  1  0
 19 21  1  0
 20 19  2  0
 22 21  1  1
 22 24  1  0
 22 23  1  0
 23 14  1  0
 24 26  1  0
 25 24  2  0
M  END
$$$$
