AYN.pdb
     RDKit          3D

 26 26  0  0  1  0  0  0  0  0999 V2000
   19.1897  -15.7656  -17.2708 C   0  0  0  0  0  0  0  0  0  0  0  0
   19.2040  -14.2310  -17.3226 C   0  0  2  0  0  0  0  0  0  0  0  0
   19.1503  -13.8494  -18.6885 N   0  0  0  0  0  0  0  0  0  0  0  0
   20.5471  -13.8461  -16.7692 C   0  0  0  0  0  0  0  0  0  0  0  0
   20.7665  -14.0808  -15.5520 O   0  0  0  0  0  0  0  0  0  0  0  0
   28.6045  -10.9921  -16.0010 O   0  0  0  0  0  0  0  0  0  0  0  0
   27.4371  -11.6182  -16.4207 C   0  0  0  0  0  0  0  0  0  0  0  0
   26.9312  -11.3205  -17.6563 C   0  0  0  0  0  0  0  0  0  0  0  0
   25.7721  -11.9357  -18.0835 C   0  0  0  0  0  0  0  0  0  0  0  0
   25.1630  -12.8332  -17.2430 C   0  0  0  0  0  0  0  0  0  0  0  0
   23.9130  -13.4748  -17.7724 C   0  0  0  0  0  0  0  0  0  0  0  0
   22.7343  -12.7329  -17.2035 C   0  0  2  0  0  0  0  0  0  0  0  0
   21.4839  -13.2481  -17.6228 N   0  0  0  0  0  0  0  0  0  0  0  0
   22.9020  -11.2544  -17.4647 C   0  0  0  0  0  0  0  0  0  0  0  0
   22.6892  -10.7371  -18.5823 O   0  0  0  0  0  0  0  0  0  0  0  0
   25.6487  -13.1438  -16.0093 C   0  0  0  0  0  0  0  0  0  0  0  0
   26.8228  -12.5074  -15.6031 C   0  0  0  0  0  0  0  0  0  0  0  0
   23.1490   -6.3422  -17.7640 N   0  0  0  0  0  0  0  0  0  0  0  0
   22.0565   -7.2287  -17.6658 C   0  0  0  0  0  0  0  0  0  0  0  0
   20.8501   -6.7886  -17.5898 O   0  0  0  0  0  0  0  0  0  0  0  0
   22.2960   -8.6923  -17.6518 C   0  0  0  0  0  0  0  0  0  0  0  0
   23.0921   -9.0404  -16.3981 C   0  0  2  0  0  0  0  0  0  0  0  0
   23.3163  -10.4728  -16.3598 N   0  0  0  0  0  0  0  0  0  0  0  0
   22.3927   -8.6425  -15.1696 C   0  0  0  0  0  0  0  0  0  0  0  0
   22.1033   -7.4455  -14.9612 O   0  0  0  0  0  0  0  0  0  0  0  0
   22.0158   -9.5709  -14.1765 O   0  0  0  0  0  0  0  0  0  0  0  0
  2  1  1  6
  3  2  1  0
  4  2  1  0
  4  5  2  0
  6  7  1  0
  7 17  2  0
  8  7  1  0
  8  9  2  0
  9 10  1  0
 10 16  2  0
 10 11  1  0
 12 11  1  6
 12 13  1  0
 13  4  1  0
 14 12  1  0
 15 14  2  0
 17 16  1  0
 19 18  1  0
 19 21  1  0
 20 19  2  0
 22 21  1  6
 22 24  1  0
 22 23  1  0
 23 14  1  0
 24 26  1  0
 25 24  2  0
M  END
$$$$
