AYN.pdb
     RDKit          3D

 26 26  0  0  1  0  0  0  0  0999 V2000
   15.7388  -10.0521  -15.6619 C   0  0  0  0  0  0  0  0  0  0  0  0
   17.1757   -9.5143  -15.5978 C   0  0  2  0  0  0  0  0  0  0  0  0
   18.0306  -10.5163  -16.1265 N   0  0  0  0  0  0  0  0  0  0  0  0
   17.4596   -9.3670  -14.1295 C   0  0  0  0  0  0  0  0  0  0  0  0
   17.3055  -10.3814  -13.4000 O   0  0  0  0  0  0  0  0  0  0  0  0
   23.4288  -10.1135  -14.8153 O   0  0  0  0  0  0  0  0  0  0  0  0
   22.4574   -9.3629  -14.1641 C   0  0  0  0  0  0  0  0  0  0  0  0
   21.9805   -9.7973  -12.9578 C   0  0  0  0  0  0  0  0  0  0  0  0
   21.0153   -9.0605  -12.3022 C   0  0  0  0  0  0  0  0  0  0  0  0
   20.5643   -7.9064  -12.8917 C   0  0  0  0  0  0  0  0  0  0  0  0
   19.5230   -7.1467  -12.1217 C   0  0  0  0  0  0  0  0  0  0  0  0
   18.2089   -7.8590  -12.2919 C   0  0  2  0  0  0  0  0  0  0  0  0
   17.8766   -8.1206  -13.6433 N   0  0  0  0  0  0  0  0  0  0  0  0
   17.1354   -7.1133  -11.5345 C   0  0  0  0  0  0  0  0  0  0  0  0
   16.5962   -6.0746  -11.9731 O   0  0  0  0  0  0  0  0  0  0  0  0
   21.0244   -7.4560  -14.0917 C   0  0  0  0  0  0  0  0  0  0  0  0
   22.0010   -8.2204  -14.7324 C   0  0  0  0  0  0  0  0  0  0  0  0
   13.5524   -6.1972   -8.1485 N   0  0  0  0  0  0  0  0  0  0  0  0
   13.8733   -7.5561   -7.9495 C   0  0  0  0  0  0  0  0  0  0  0  0
   13.1619   -8.2994   -7.1773 O   0  0  0  0  0  0  0  0  0  0  0  0
   15.0468   -8.1434   -8.6407 C   0  0  0  0  0  0  0  0  0  0  0  0
   15.6260   -7.0957   -9.5859 C   0  0  2  0  0  0  0  0  0  0  0  0
   16.7640   -7.6625  -10.2840 N   0  0  0  0  0  0  0  0  0  0  0  0
   16.0668   -5.8898   -8.8728 C   0  0  0  0  0  0  0  0  0  0  0  0
   17.2224   -5.8136   -8.4050 O   0  0  0  0  0  0  0  0  0  0  0  0
   15.2271   -4.7726   -8.6805 O   0  0  0  0  0  0  0  0  0  0  0  0
  2  1  1  1
  3  2  1  0
  4  2  1  0
  4  5  2  0
  6  7  1  0
  7 17  2  0
  8  7  1  0
  8  9  2  0
  9 10  1  0
 10 16  2  0
 10 11  1  0
 12 11  1  6
 12 13  1  0
 13  4  1  0
 14 12  1  0
 15 14  2  0
 17 16  1  0
 19 18  1  0
 19 21  1  0
 20 19  2  0
 22 21  1  1
 22 24  1  0
 22 23  1  0
 23 14  1  0
 24 26  1  0
 25 24  2  0
M  END
$$$$
