SAF.pdb
     RDKit          3D

 23 23  0  0  1  0  0  0  0  0999 V2000
   23.5698  -19.7441  -12.5496 O   0  0  0  0  0  0  0  0  0  0  0  0
   24.7455  -19.1015  -12.8561 C   0  0  0  0  0  0  0  0  0  0  0  0
   25.6267  -19.9540  -13.7400 C   0  0  2  0  0  0  0  0  0  0  0  0
   24.7405  -20.7171  -14.5991 N   0  0  0  0  0  0  0  0  0  0  0  0
   26.5118  -20.8549  -12.9724 C   0  0  0  0  0  0  0  0  0  0  0  0
   26.1875  -22.0638  -12.8486 O   0  0  0  0  0  0  0  0  0  0  0  0
   29.9726  -20.8158  -11.4640 C   0  0  0  0  0  0  0  0  0  0  0  0
   28.5589  -21.2947  -11.5671 C   0  0  2  0  0  0  0  0  0  0  0  0
   27.7138  -20.4408  -12.3610 N   0  0  0  0  0  0  0  0  0  0  0  0
   28.0296  -21.4819  -10.1869 C   0  0  0  0  0  0  0  0  0  0  0  0
   28.5517  -22.2636   -9.3516 O   0  0  0  0  0  0  0  0  0  0  0  0
   26.8833  -20.7388   -9.8085 N   0  0  0  0  0  0  0  0  0  0  0  0
   26.2660  -20.8526   -8.4977 C   0  0  1  0  0  0  0  0  0  0  0  0
   26.4588  -19.5254   -7.8017 C   0  0  0  0  0  0  0  0  0  0  0  0
   27.3557  -19.5965   -6.6344 C   0  0  0  0  0  0  0  0  0  0  0  0
   28.1712  -18.5436   -6.2911 C   0  0  0  0  0  0  0  0  0  0  0  0
   29.0177  -18.6131   -5.1797 C   0  0  0  0  0  0  0  0  0  0  0  0
   29.0423  -19.7637   -4.4017 C   0  0  0  0  0  0  0  0  0  0  0  0
   28.2221  -20.8144   -4.7527 C   0  0  0  0  0  0  0  0  0  0  0  0
   27.3953  -20.7298   -5.8489 C   0  0  0  0  0  0  0  0  0  0  0  0
   24.8253  -21.1698   -8.6005 C   0  0  0  0  0  0  0  0  0  0  0  0
   24.1376  -21.7240   -7.5045 O   0  0  0  0  0  0  0  0  0  0  0  0
   24.1557  -20.9711   -9.6324 O   0  0  0  0  0  0  0  0  0  0  0  0
  2  1  1  0
  3  4  1  6
  3  2  1  0
  5  3  1  0
  5  6  2  0
  8  7  1  1
  8  9  1  0
  8 10  1  0
  9  5  1  0
 10 12  1  0
 10 11  2  0
 12 13  1  0
 13 14  1  6
 14 15  1  0
 15 20  2  0
 16 15  1  0
 16 17  2  0
 17 18  1  0
 18 19  2  0
 20 19  1  0
 21 22  1  0
 21 13  1  0
 23 21  2  0
M  END
$$$$
