SAF.pdb
     RDKit          3D

 23 23  0  0  1  0  0  0  0  0999 V2000
   11.3482   -8.6322  -14.6873 O   0  0  0  0  0  0  0  0  0  0  0  0
   12.4673   -9.1646  -15.2818 C   0  0  0  0  0  0  0  0  0  0  0  0
   12.7420   -8.5183  -16.6202 C   0  0  2  0  0  0  0  0  0  0  0  0
   12.4309   -9.5099  -17.6329 N   0  0  0  0  0  0  0  0  0  0  0  0
   14.1378   -8.0523  -16.7584 C   0  0  0  0  0  0  0  0  0  0  0  0
   14.9801   -8.8117  -17.3022 O   0  0  0  0  0  0  0  0  0  0  0  0
   16.1289   -4.8835  -16.1139 C   0  0  0  0  0  0  0  0  0  0  0  0
   15.9556   -6.3392  -16.4129 C   0  0  2  0  0  0  0  0  0  0  0  0
   14.5927   -6.7933  -16.3136 N   0  0  0  0  0  0  0  0  0  0  0  0
   16.8699   -7.1087  -15.5230 C   0  0  0  0  0  0  0  0  0  0  0  0
   16.5025   -7.6110  -14.4303 O   0  0  0  0  0  0  0  0  0  0  0  0
   18.2150   -7.2762  -15.9377 N   0  0  0  0  0  0  0  0  0  0  0  0
   19.1942   -8.0179  -15.1609 C   0  0  1  0  0  0  0  0  0  0  0  0
   20.2032   -8.5751  -16.1378 C   0  0  0  0  0  0  0  0  0  0  0  0
   21.2754   -9.3569  -15.4965 C   0  0  0  0  0  0  0  0  0  0  0  0
   21.1761  -10.7201  -15.3437 C   0  0  0  0  0  0  0  0  0  0  0  0
   22.1979  -11.4594  -14.7388 C   0  0  0  0  0  0  0  0  0  0  0  0
   23.3388  -10.8130  -14.2802 C   0  0  0  0  0  0  0  0  0  0  0  0
   23.4305   -9.4466  -14.4369 C   0  0  0  0  0  0  0  0  0  0  0  0
   22.4164   -8.7344  -15.0342 C   0  0  0  0  0  0  0  0  0  0  0  0
   19.8688   -7.1539  -14.1684 C   0  0  0  0  0  0  0  0  0  0  0  0
   20.1642   -7.6426  -12.8818 O   0  0  0  0  0  0  0  0  0  0  0  0
   20.2052   -5.9778  -14.4056 O   0  0  0  0  0  0  0  0  0  0  0  0
  2  1  1  0
  3  4  1  6
  3  2  1  0
  5  3  1  0
  5  6  2  0
  8  7  1  1
  8  9  1  0
  8 10  1  0
  9  5  1  0
 10 12  1  0
 10 11  2  0
 12 13  1  0
 13 14  1  6
 14 15  1  0
 15 20  2  0
 16 15  1  0
 16 17  2  0
 17 18  1  0
 18 19  2  0
 20 19  1  0
 21 22  1  0
 21 13  1  0
 23 21  2  0
M  END
$$$$
