SAF.pdb
     RDKit          3D

 23 23  0  0  1  0  0  0  0  0999 V2000
   28.6969  -25.7583  -16.0863 O   0  0  0  0  0  0  0  0  0  0  0  0
   28.7675  -25.7888  -17.4587 C   0  0  0  0  0  0  0  0  0  0  0  0
   29.1610  -24.4423  -18.0215 C   0  0  2  0  0  0  0  0  0  0  0  0
   30.5175  -24.1850  -17.5751 N   0  0  0  0  0  0  0  0  0  0  0  0
   28.2566  -23.3540  -17.5951 C   0  0  0  0  0  0  0  0  0  0  0  0
   28.7564  -22.2832  -17.1644 O   0  0  0  0  0  0  0  0  0  0  0  0
   24.6571  -22.4462  -18.1452 C   0  0  0  0  0  0  0  0  0  0  0  0
   25.9591  -22.3300  -17.4173 C   0  0  2  0  0  0  0  0  0  0  0  0
   26.8492  -23.4396  -17.6405 N   0  0  0  0  0  0  0  0  0  0  0  0
   25.6664  -22.1274  -15.9705 C   0  0  0  0  0  0  0  0  0  0  0  0
   25.5701  -23.0756  -15.1502 O   0  0  0  0  0  0  0  0  0  0  0  0
   25.4902  -20.7991  -15.5080 N   0  0  0  0  0  0  0  0  0  0  0  0
   25.1627  -20.4803  -14.1283 C   0  0  1  0  0  0  0  0  0  0  0  0
   26.3406  -19.7254  -13.5577 C   0  0  0  0  0  0  0  0  0  0  0  0
   26.7842  -18.6004  -14.4002 C   0  0  0  0  0  0  0  0  0  0  0  0
   26.2834  -17.3316  -14.2246 C   0  0  0  0  0  0  0  0  0  0  0  0
   26.7104  -16.2654  -15.0231 C   0  0  0  0  0  0  0  0  0  0  0  0
   27.6581  -16.4826  -16.0153 C   0  0  0  0  0  0  0  0  0  0  0  0
   28.1547  -17.7572  -16.1850 C   0  0  0  0  0  0  0  0  0  0  0  0
   27.7242  -18.7948  -15.3909 C   0  0  0  0  0  0  0  0  0  0  0  0
   23.9370  -19.6581  -14.0361 C   0  0  0  0  0  0  0  0  0  0  0  0
   23.3484  -19.3943  -12.7850 O   0  0  0  0  0  0  0  0  0  0  0  0
   23.3705  -19.1655  -15.0305 O   0  0  0  0  0  0  0  0  0  0  0  0
  2  1  1  0
  3  4  1  1
  3  2  1  0
  5  3  1  0
  5  6  2  0
  8  7  1  6
  8  9  1  0
  8 10  1  0
  9  5  1  0
 10 12  1  0
 10 11  2  0
 12 13  1  0
 13 14  1  6
 14 15  1  0
 15 20  2  0
 16 15  1  0
 16 17  2  0
 17 18  1  0
 18 19  2  0
 20 19  1  0
 21 22  1  0
 21 13  1  0
 23 21  2  0
M  END
$$$$
