SAF.pdb
     RDKit          3D

 23 23  0  0  1  0  0  0  0  0999 V2000
   18.5934  -13.0392  -16.0191 O   0  0  0  0  0  0  0  0  0  0  0  0
   19.3525  -11.8947  -15.9626 C   0  0  0  0  0  0  0  0  0  0  0  0
   20.1048  -11.6667  -17.2535 C   0  0  2  0  0  0  0  0  0  0  0  0
   21.1988  -12.6198  -17.2716 N   0  0  0  0  0  0  0  0  0  0  0  0
   20.6143  -10.2858  -17.3862 C   0  0  0  0  0  0  0  0  0  0  0  0
   21.7082   -9.9875  -16.8419 O   0  0  0  0  0  0  0  0  0  0  0  0
   19.6509   -7.0732  -19.1673 C   0  0  0  0  0  0  0  0  0  0  0  0
   20.3758   -7.8936  -18.1475 C   0  0  2  0  0  0  0  0  0  0  0  0
   19.9436   -9.2662  -18.0938 N   0  0  0  0  0  0  0  0  0  0  0  0
   20.2493   -7.2132  -16.8280 C   0  0  0  0  0  0  0  0  0  0  0  0
   19.3094   -7.4426  -16.0247 O   0  0  0  0  0  0  0  0  0  0  0  0
   21.2406   -6.2646  -16.4720 N   0  0  0  0  0  0  0  0  0  0  0  0
   21.1969   -5.5036  -15.2345 C   0  0  1  0  0  0  0  0  0  0  0  0
   22.4985   -5.7606  -14.5115 C   0  0  0  0  0  0  0  0  0  0  0  0
   22.6432   -7.1470  -14.0326 C   0  0  0  0  0  0  0  0  0  0  0  0
   21.9304   -7.6106  -12.9516 C   0  0  0  0  0  0  0  0  0  0  0  0
   22.0668   -8.9284  -12.5029 C   0  0  0  0  0  0  0  0  0  0  0  0
   22.9367   -9.7930  -13.1552 C   0  0  0  0  0  0  0  0  0  0  0  0
   23.6475   -9.3205  -14.2376 C   0  0  0  0  0  0  0  0  0  0  0  0
   23.5016   -8.0214  -14.6662 C   0  0  0  0  0  0  0  0  0  0  0  0
   21.0335   -4.0565  -15.4913 C   0  0  0  0  0  0  0  0  0  0  0  0
   21.0721   -3.5573  -16.8068 O   0  0  0  0  0  0  0  0  0  0  0  0
   20.8573   -3.2194  -14.5854 O   0  0  0  0  0  0  0  0  0  0  0  0
  2  1  1  0
  3  4  1  1
  3  2  1  0
  5  3  1  0
  5  6  2  0
  8  7  1  6
  8  9  1  0
  8 10  1  0
  9  5  1  0
 10 12  1  0
 10 11  2  0
 12 13  1  0
 13 14  1  6
 14 15  1  0
 15 20  2  0
 16 15  1  0
 16 17  2  0
 17 18  1  0
 18 19  2  0
 20 19  1  0
 21 22  1  0
 21 13  1  0
 23 21  2  0
M  END
$$$$
