SAF.pdb
     RDKit          3D

 23 23  0  0  1  0  0  0  0  0999 V2000
   22.7914  -16.5493  -15.4135 O   0  0  0  0  0  0  0  0  0  0  0  0
   23.8879  -17.0555  -14.7572 C   0  0  0  0  0  0  0  0  0  0  0  0
   25.1510  -16.8672  -15.5657 C   0  0  2  0  0  0  0  0  0  0  0  0
   24.7356  -16.5302  -16.9145 N   0  0  0  0  0  0  0  0  0  0  0  0
   26.0150  -18.0663  -15.5705 C   0  0  0  0  0  0  0  0  0  0  0  0
   25.7975  -18.9676  -16.4204 O   0  0  0  0  0  0  0  0  0  0  0  0
   29.1969  -19.2626  -13.9037 C   0  0  0  0  0  0  0  0  0  0  0  0
   27.9070  -19.4485  -14.6385 C   0  0  2  0  0  0  0  0  0  0  0  0
   27.0829  -18.2681  -14.6711 N   0  0  0  0  0  0  0  0  0  0  0  0
   27.1955  -20.6136  -14.0414 C   0  0  0  0  0  0  0  0  0  0  0  0
   27.5531  -21.8048  -14.2267 O   0  0  0  0  0  0  0  0  0  0  0  0
   26.0637  -20.3552  -13.2280 N   0  0  0  0  0  0  0  0  0  0  0  0
   25.2351  -21.4106  -12.6698 C   0  0  1  0  0  0  0  0  0  0  0  0
   25.9852  -21.9843  -11.4903 C   0  0  0  0  0  0  0  0  0  0  0  0
   26.1116  -21.0474  -10.3597 C   0  0  0  0  0  0  0  0  0  0  0  0
   26.5062  -19.7436  -10.5491 C   0  0  0  0  0  0  0  0  0  0  0  0
   26.6204  -18.8560   -9.4741 C   0  0  0  0  0  0  0  0  0  0  0  0
   26.3321  -19.2906   -8.1865 C   0  0  0  0  0  0  0  0  0  0  0  0
   25.9375  -20.5989   -8.0052 C   0  0  0  0  0  0  0  0  0  0  0  0
   25.8301  -21.4590   -9.0734 C   0  0  0  0  0  0  0  0  0  0  0  0
   23.9184  -20.8963  -12.2354 C   0  0  0  0  0  0  0  0  0  0  0  0
   23.6200  -19.5245  -12.3379 O   0  0  0  0  0  0  0  0  0  0  0  0
   23.0228  -21.6252  -11.7672 O   0  0  0  0  0  0  0  0  0  0  0  0
  2  1  1  0
  3  4  1  6
  3  2  1  0
  5  3  1  0
  5  6  2  0
  8  7  1  1
  8  9  1  0
  8 10  1  0
  9  5  1  0
 10 12  1  0
 10 11  2  0
 12 13  1  0
 13 14  1  1
 14 15  1  0
 15 20  2  0
 16 15  1  0
 16 17  2  0
 17 18  1  0
 18 19  2  0
 20 19  1  0
 21 22  1  0
 21 13  1  0
 23 21  2  0
M  END
$$$$
