SAF.pdb
     RDKit          3D

 23 23  0  0  1  0  0  0  0  0999 V2000
   27.2233  -22.8836  -14.4493 O   0  0  0  0  0  0  0  0  0  0  0  0
   26.6528  -21.9900  -15.3240 C   0  0  0  0  0  0  0  0  0  0  0  0
   26.9393  -20.5620  -14.9198 C   0  0  2  0  0  0  0  0  0  0  0  0
   28.3716  -20.3713  -15.0526 N   0  0  0  0  0  0  0  0  0  0  0  0
   26.4978  -20.2542  -13.5434 C   0  0  0  0  0  0  0  0  0  0  0  0
   27.2467  -19.5631  -12.8061 O   0  0  0  0  0  0  0  0  0  0  0  0
   23.3548  -20.6985  -11.4575 C   0  0  0  0  0  0  0  0  0  0  0  0
   24.7768  -20.3022  -11.7010 C   0  0  2  0  0  0  0  0  0  0  0  0
   25.2737  -20.6913  -12.9953 N   0  0  0  0  0  0  0  0  0  0  0  0
   25.6083  -20.8498  -10.5925 C   0  0  0  0  0  0  0  0  0  0  0  0
   26.1185  -21.9989  -10.6202 O   0  0  0  0  0  0  0  0  0  0  0  0
   25.8281  -20.0282   -9.4585 N   0  0  0  0  0  0  0  0  0  0  0  0
   26.5492  -20.4833   -8.2816 C   0  0  1  0  0  0  0  0  0  0  0  0
   27.3728  -19.3163   -7.7891 C   0  0  0  0  0  0  0  0  0  0  0  0
   28.0500  -19.5725   -6.5053 C   0  0  0  0  0  0  0  0  0  0  0  0
   29.1730  -20.3631   -6.4319 C   0  0  0  0  0  0  0  0  0  0  0  0
   29.8158  -20.6001   -5.2124 C   0  0  0  0  0  0  0  0  0  0  0  0
   29.3175  -20.0305   -4.0475 C   0  0  0  0  0  0  0  0  0  0  0  0
   28.1915  -19.2396   -4.1296 C   0  0  0  0  0  0  0  0  0  0  0  0
   27.5714  -19.0164   -5.3371 C   0  0  0  0  0  0  0  0  0  0  0  0
   25.6258  -20.9395   -7.2204 C   0  0  0  0  0  0  0  0  0  0  0  0
   26.0562  -21.8640   -6.2502 O   0  0  0  0  0  0  0  0  0  0  0  0
   24.4480  -20.5441   -7.1258 O   0  0  0  0  0  0  0  0  0  0  0  0
  2  1  1  0
  3  4  1  1
  3  2  1  0
  5  3  1  0
  5  6  2  0
  8  7  1  1
  8  9  1  0
  8 10  1  0
  9  5  1  0
 10 12  1  0
 10 11  2  0
 12 13  1  0
 13 14  1  1
 14 15  1  0
 15 20  2  0
 16 15  1  0
 16 17  2  0
 17 18  1  0
 18 19  2  0
 20 19  1  0
 21 22  1  0
 21 13  1  0
 23 21  2  0
M  END
$$$$
