SAF.pdb
     RDKit          3D

 23 23  0  0  1  0  0  0  0  0999 V2000
   19.5590  -11.9509  -19.7346 O   0  0  0  0  0  0  0  0  0  0  0  0
   20.1408  -11.1038  -18.8218 C   0  0  0  0  0  0  0  0  0  0  0  0
   21.6450  -11.2517  -18.8116 C   0  0  2  0  0  0  0  0  0  0  0  0
   21.9282  -12.5902  -18.3281 N   0  0  0  0  0  0  0  0  0  0  0  0
   22.3168  -10.2401  -17.9693 C   0  0  0  0  0  0  0  0  0  0  0  0
   22.0865  -10.2300  -16.7329 O   0  0  0  0  0  0  0  0  0  0  0  0
   24.7748   -7.3731  -18.4272 C   0  0  0  0  0  0  0  0  0  0  0  0
   23.7689   -8.1978  -17.6879 C   0  0  2  0  0  0  0  0  0  0  0  0
   23.2123   -9.2716  -18.4694 N   0  0  0  0  0  0  0  0  0  0  0  0
   22.7171   -7.2845  -17.1592 C   0  0  0  0  0  0  0  0  0  0  0  0
   21.6817   -6.9827  -17.8059 O   0  0  0  0  0  0  0  0  0  0  0  0
   22.9027   -6.7358  -15.8654 N   0  0  0  0  0  0  0  0  0  0  0  0
   21.9338   -5.8549  -15.2349 C   0  0  1  0  0  0  0  0  0  0  0  0
   21.4711   -6.5400  -13.9702 C   0  0  0  0  0  0  0  0  0  0  0  0
   20.6052   -7.7073  -14.2149 C   0  0  0  0  0  0  0  0  0  0  0  0
   19.3476   -7.5673  -14.7537 C   0  0  0  0  0  0  0  0  0  0  0  0
   18.5305   -8.6780  -14.9889 C   0  0  0  0  0  0  0  0  0  0  0  0
   18.9894   -9.9511  -14.6754 C   0  0  0  0  0  0  0  0  0  0  0  0
   20.2509  -10.0828  -14.1357 C   0  0  0  0  0  0  0  0  0  0  0  0
   21.0419   -8.9800  -13.9107 C   0  0  0  0  0  0  0  0  0  0  0  0
   22.5240   -4.5375  -14.9144 C   0  0  0  0  0  0  0  0  0  0  0  0
   21.7156   -3.4946  -14.4245 O   0  0  0  0  0  0  0  0  0  0  0  0
   23.7352   -4.2810  -15.0550 O   0  0  0  0  0  0  0  0  0  0  0  0
  2  1  1  0
  3  4  1  1
  3  2  1  0
  5  3  1  0
  5  6  2  0
  8  7  1  6
  8  9  1  0
  8 10  1  0
  9  5  1  0
 10 12  1  0
 10 11  2  0
 12 13  1  0
 13 14  1  1
 14 15  1  0
 15 20  2  0
 16 15  1  0
 16 17  2  0
 17 18  1  0
 18 19  2  0
 20 19  1  0
 21 22  1  0
 21 13  1  0
 23 21  2  0
M  END
$$$$
