SAF.pdb
     RDKit          3D

 23 23  0  0  1  0  0  0  0  0999 V2000
   17.0139  -23.7881  -14.6375 O   0  0  0  0  0  0  0  0  0  0  0  0
   16.8322  -22.6882  -13.8335 C   0  0  0  0  0  0  0  0  0  0  0  0
   18.1432  -22.1996  -13.2615 C   0  0  2  0  0  0  0  0  0  0  0  0
   18.8838  -21.6112  -14.3618 N   0  0  0  0  0  0  0  0  0  0  0  0
   18.9281  -23.2757  -12.6211 C   0  0  0  0  0  0  0  0  0  0  0  0
   20.0492  -23.5788  -13.1041 O   0  0  0  0  0  0  0  0  0  0  0  0
   18.6698  -25.5120   -9.5599 C   0  0  0  0  0  0  0  0  0  0  0  0
   19.2377  -25.0627  -10.8692 C   0  0  2  0  0  0  0  0  0  0  0  0
   18.4953  -23.9949  -11.4874 N   0  0  0  0  0  0  0  0  0  0  0  0
   19.3549  -26.2528  -11.7580 C   0  0  0  0  0  0  0  0  0  0  0  0
   18.5177  -26.5238  -12.6563 O   0  0  0  0  0  0  0  0  0  0  0  0
   20.4664  -27.1129  -11.5734 N   0  0  0  0  0  0  0  0  0  0  0  0
   20.6832  -28.3060  -12.3747 C   0  0  1  0  0  0  0  0  0  0  0  0
   22.1061  -28.7508  -12.1290 C   0  0  0  0  0  0  0  0  0  0  0  0
   22.4982  -29.9338  -12.9157 C   0  0  0  0  0  0  0  0  0  0  0  0
   22.9266  -29.8198  -14.2176 C   0  0  0  0  0  0  0  0  0  0  0  0
   23.3025  -30.9444  -14.9596 C   0  0  0  0  0  0  0  0  0  0  0  0
   23.2452  -32.2051  -14.3789 C   0  0  0  0  0  0  0  0  0  0  0  0
   22.8147  -32.3107  -13.0737 C   0  0  0  0  0  0  0  0  0  0  0  0
   22.4486  -31.1945  -12.3578 C   0  0  0  0  0  0  0  0  0  0  0  0
   19.7412  -29.3856  -12.0089 C   0  0  0  0  0  0  0  0  0  0  0  0
   19.2276  -30.2479  -12.9958 O   0  0  0  0  0  0  0  0  0  0  0  0
   19.3582  -29.5891  -10.8408 O   0  0  0  0  0  0  0  0  0  0  0  0
  2  1  1  0
  3  4  1  6
  3  2  1  0
  5  3  1  0
  5  6  2  0
  8  7  1  1
  8  9  1  0
  8 10  1  0
  9  5  1  0
 10 12  1  0
 10 11  2  0
 12 13  1  0
 13 14  1  1
 14 15  1  0
 15 20  2  0
 16 15  1  0
 16 17  2  0
 17 18  1  0
 18 19  2  0
 20 19  1  0
 21 22  1  0
 21 13  1  0
 23 21  2  0
M  END
$$$$
