SAF.pdb
     RDKit          3D

 23 23  0  0  1  0  0  0  0  0999 V2000
   28.8244  -28.1672  -22.8206 O   0  0  0  0  0  0  0  0  0  0  0  0
   29.3898  -28.1424  -21.5681 C   0  0  0  0  0  0  0  0  0  0  0  0
   29.5894  -26.7259  -21.0801 C   0  0  2  0  0  0  0  0  0  0  0  0
   30.7976  -26.2334  -21.7150 N   0  0  0  0  0  0  0  0  0  0  0  0
   29.6988  -26.6342  -19.6091 C   0  0  0  0  0  0  0  0  0  0  0  0
   30.8407  -26.6622  -19.0826 O   0  0  0  0  0  0  0  0  0  0  0  0
   27.8850  -25.2979  -16.7285 C   0  0  0  0  0  0  0  0  0  0  0  0
   28.6821  -26.4219  -17.3113 C   0  0  2  0  0  0  0  0  0  0  0  0
   28.5899  -26.5155  -18.7453 N   0  0  0  0  0  0  0  0  0  0  0  0
   28.2663  -27.6845  -16.6384 C   0  0  0  0  0  0  0  0  0  0  0  0
   28.3108  -27.8450  -15.3919 O   0  0  0  0  0  0  0  0  0  0  0  0
   27.8004  -28.7483  -17.4513 N   0  0  0  0  0  0  0  0  0  0  0  0
   27.3970  -30.0361  -16.9117 C   0  0  1  0  0  0  0  0  0  0  0  0
   26.0550  -30.3696  -17.5207 C   0  0  0  0  0  0  0  0  0  0  0  0
   24.9286  -29.6573  -16.8915 C   0  0  0  0  0  0  0  0  0  0  0  0
   24.7066  -28.3198  -17.1227 C   0  0  0  0  0  0  0  0  0  0  0  0
   23.6336  -27.6483  -16.5275 C   0  0  0  0  0  0  0  0  0  0  0  0
   22.7702  -28.3371  -15.6850 C   0  0  0  0  0  0  0  0  0  0  0  0
   22.9997  -29.6773  -15.4585 C   0  0  0  0  0  0  0  0  0  0  0  0
   24.0597  -30.3228  -16.0519 C   0  0  0  0  0  0  0  0  0  0  0  0
   28.3799  -31.0929  -17.2338 C   0  0  0  0  0  0  0  0  0  0  0  0
   28.3360  -32.3333  -16.5697 O   0  0  0  0  0  0  0  0  0  0  0  0
   29.2776  -30.9517  -18.0862 O   0  0  0  0  0  0  0  0  0  0  0  0
  2  1  1  0
  3  4  1  6
  3  2  1  0
  5  3  1  0
  5  6  2  0
  8  7  1  1
  8  9  1  0
  8 10  1  0
  9  5  1  0
 10 12  1  0
 10 11  2  0
 12 13  1  0
 13 14  1  6
 14 15  1  0
 15 20  2  0
 16 15  1  0
 16 17  2  0
 17 18  1  0
 18 19  2  0
 20 19  1  0
 21 22  1  0
 21 13  1  0
 23 21  2  0
M  END
$$$$
