DYE.pdb
     RDKit          3D

 30 30  0  0  1  0  0  0  0  0999 V2000
   28.5191  -21.5424  -18.7261 N   0  0  0  0  0  0  0  0  0  0  0  0
   28.0595  -20.3607  -17.9326 C   0  0  1  0  0  0  0  0  0  0  0  0
   27.1645  -19.5893  -18.8543 C   0  0  0  0  0  0  0  0  0  0  0  0
   27.9215  -18.9610  -19.9319 C   0  0  0  0  0  0  0  0  0  0  0  0
   29.1068  -18.6215  -19.7936 O   0  0  0  0  0  0  0  0  0  0  0  0
   27.3905  -20.9042  -16.7330 C   0  0  0  0  0  0  0  0  0  0  0  0
   26.7129  -21.9491  -16.7793 O   0  0  0  0  0  0  0  0  0  0  0  0
   27.3258  -18.7196  -21.1686 O   0  0  0  0  0  0  0  0  0  0  0  0
   24.8916  -20.8083   -8.0766 O   0  0  0  0  0  0  0  0  0  0  0  0
   25.5481  -20.6719   -9.2980 C   0  0  0  0  0  0  0  0  0  0  0  0
   25.5792  -19.4568   -9.9363 C   0  0  0  0  0  0  0  0  0  0  0  0
   26.2248  -19.3092  -11.1440 C   0  0  0  0  0  0  0  0  0  0  0  0
   26.8755  -20.3751  -11.7779 C   0  0  0  0  0  0  0  0  0  0  0  0
   27.5125  -20.1578  -13.0772 C   0  0  0  0  0  0  0  0  0  0  0  0
   26.7661  -20.6287  -14.2851 C   0  0  2  0  0  0  0  0  0  0  0  0
   27.5243  -20.2179  -15.4992 N   0  0  0  0  0  0  0  0  0  0  0  0
   25.4112  -20.1102  -14.4215 C   0  0  0  0  0  0  0  0  0  0  0  0
   25.2629  -18.8770  -14.7602 O   0  0  0  0  0  0  0  0  0  0  0  0
   26.8195  -21.5727  -11.1042 C   0  0  0  0  0  0  0  0  0  0  0  0
   26.1796  -21.7442   -9.8951 C   0  0  0  0  0  0  0  0  0  0  0  0
   24.1931  -20.7954  -14.2339 N   0  0  0  0  0  0  0  0  0  0  0  0
   22.9104  -20.1197  -14.1274 C   0  0  1  0  0  0  0  0  0  0  0  0
   22.1387  -20.4466  -15.4069 C   0  0  0  0  0  0  0  0  0  0  0  0
   22.2436  -19.4070  -16.4592 C   0  0  0  0  0  0  0  0  0  0  0  0
   23.0223  -19.7568  -17.6481 C   0  0  0  0  0  0  0  0  0  0  0  0
   23.0296  -20.8853  -18.2062 O   0  0  0  0  0  0  0  0  0  0  0  0
   22.1240  -20.4743  -12.9451 C   0  0  0  0  0  0  0  0  0  0  0  0
   22.4894  -21.4299  -12.2247 O   0  0  0  0  0  0  0  0  0  0  0  0
   23.8335  -18.7905  -18.2398 O   0  0  0  0  0  0  0  0  0  0  0  0
   20.9927  -19.7746  -12.6144 O   0  0  0  0  0  0  0  0  0  0  0  0
  2  1  1  6
  2  3  1  0
  4  5  2  0
  4  3  1  0
  6  7  2  0
  6  2  1  0
  8  4  1  0
  9 10  1  0
 10 11  2  0
 11 12  1  0
 13 12  2  0
 13 14  1  0
 15 14  1  1
 15 16  1  0
 16  6  1  0
 17 15  1  0
 17 18  2  0
 19 13  1  0
 20 10  1  0
 20 19  2  0
 21 17  1  0
 22 21  1  0
 22 23  1  6
 24 23  1  0
 25 24  1  0
 26 25  2  0
 27 22  1  0
 28 27  2  0
 29 25  1  0
 30 27  1  0
M  END
$$$$
