DYE.pdb
     RDKit          3D

 30 30  0  0  1  0  0  0  0  0999 V2000
   22.4321  -13.1712  -16.2026 N   0  0  0  0  0  0  0  0  0  0  0  0
   21.5436  -12.7480  -17.3289 C   0  0  1  0  0  0  0  0  0  0  0  0
   20.1585  -13.1336  -16.9065 C   0  0  0  0  0  0  0  0  0  0  0  0
   20.0165  -14.5819  -16.7994 C   0  0  0  0  0  0  0  0  0  0  0  0
   18.9141  -15.1252  -16.6295 O   0  0  0  0  0  0  0  0  0  0  0  0
   21.7560  -11.2961  -17.4990 C   0  0  0  0  0  0  0  0  0  0  0  0
   21.3500  -10.6900  -18.5094 O   0  0  0  0  0  0  0  0  0  0  0  0
   21.1333  -15.4113  -16.8861 O   0  0  0  0  0  0  0  0  0  0  0  0
   22.0922   -2.8992  -14.6397 O   0  0  0  0  0  0  0  0  0  0  0  0
   22.2463   -4.2753  -14.7948 C   0  0  0  0  0  0  0  0  0  0  0  0
   21.2067   -5.1256  -14.5103 C   0  0  0  0  0  0  0  0  0  0  0  0
   21.3466   -6.4877  -14.6595 C   0  0  0  0  0  0  0  0  0  0  0  0
   22.5398   -7.0714  -15.1032 C   0  0  0  0  0  0  0  0  0  0  0  0
   22.6323   -8.5281  -15.2064 C   0  0  0  0  0  0  0  0  0  0  0  0
   22.6710   -9.1088  -16.5846 C   0  0  2  0  0  0  0  0  0  0  0  0
   22.4391  -10.5764  -16.4859 N   0  0  0  0  0  0  0  0  0  0  0  0
   23.9204   -8.9129  -17.3082 C   0  0  0  0  0  0  0  0  0  0  0  0
   24.9475   -9.5993  -16.9457 O   0  0  0  0  0  0  0  0  0  0  0  0
   23.5540   -6.1836  -15.3764 C   0  0  0  0  0  0  0  0  0  0  0  0
   23.4371   -4.8172  -15.2346 C   0  0  0  0  0  0  0  0  0  0  0  0
   24.1721   -8.0498  -18.3946 N   0  0  0  0  0  0  0  0  0  0  0  0
   25.4937   -7.8625  -18.9701 C   0  0  1  0  0  0  0  0  0  0  0  0
   25.3877   -8.2614  -20.4428 C   0  0  0  0  0  0  0  0  0  0  0  0
   26.6644   -8.1607  -21.1906 C   0  0  0  0  0  0  0  0  0  0  0  0
   26.6297   -8.5571  -22.5991 C   0  0  0  0  0  0  0  0  0  0  0  0
   26.1436   -7.8706  -23.5358 O   0  0  0  0  0  0  0  0  0  0  0  0
   26.0361   -6.5094  -18.8393 C   0  0  0  0  0  0  0  0  0  0  0  0
   25.2607   -5.5522  -18.6200 O   0  0  0  0  0  0  0  0  0  0  0  0
   27.1684   -9.7864  -22.9743 O   0  0  0  0  0  0  0  0  0  0  0  0
   27.3818   -6.2747  -18.9529 O   0  0  0  0  0  0  0  0  0  0  0  0
  2  1  1  1
  2  3  1  0
  4  5  2  0
  4  3  1  0
  6  7  2  0
  6  2  1  0
  8  4  1  0
  9 10  1  0
 10 11  2  0
 11 12  1  0
 13 12  2  0
 13 14  1  0
 15 14  1  1
 15 16  1  0
 16  6  1  0
 17 15  1  0
 17 18  2  0
 19 13  1  0
 20 10  1  0
 20 19  2  0
 21 17  1  0
 22 21  1  0
 22 23  1  6
 24 23  1  0
 25 24  1  0
 26 25  2  0
 27 22  1  0
 28 27  2  0
 29 25  1  0
 30 27  1  0
M  END
$$$$
