DYE.pdb
     RDKit          3D

 30 30  0  0  1  0  0  0  0  0999 V2000
   43.9159  -10.8463   -5.3095 N   0  0  0  0  0  0  0  0  0  0  0  0
   42.8559  -10.8245   -6.3644 C   0  0  1  0  0  0  0  0  0  0  0  0
   42.3926   -9.4008   -6.4302 C   0  0  0  0  0  0  0  0  0  0  0  0
   41.5344   -9.0657   -5.2988 C   0  0  0  0  0  0  0  0  0  0  0  0
   40.9212   -9.9327   -4.6572 O   0  0  0  0  0  0  0  0  0  0  0  0
   43.4928  -11.3248   -7.5998 C   0  0  0  0  0  0  0  0  0  0  0  0
   44.7183  -11.2109   -7.7957 O   0  0  0  0  0  0  0  0  0  0  0  0
   41.3754   -7.7400   -4.8987 O   0  0  0  0  0  0  0  0  0  0  0  0
   44.5046  -18.5626   -8.8361 O   0  0  0  0  0  0  0  0  0  0  0  0
   43.9889  -17.3350   -9.2466 C   0  0  0  0  0  0  0  0  0  0  0  0
   44.5942  -16.1649   -8.8604 C   0  0  0  0  0  0  0  0  0  0  0  0
   44.0940  -14.9452   -9.2596 C   0  0  0  0  0  0  0  0  0  0  0  0
   42.9571  -14.8334  -10.0696 C   0  0  0  0  0  0  0  0  0  0  0  0
   42.4582  -13.5055  -10.4287 C   0  0  0  0  0  0  0  0  0  0  0  0
   43.2309  -12.3305   -9.9187 C   0  0  2  0  0  0  0  0  0  0  0  0
   42.6875  -11.9499   -8.5855 N   0  0  0  0  0  0  0  0  0  0  0  0
   43.1875  -11.1429  -10.7620 C   0  0  0  0  0  0  0  0  0  0  0  0
   42.0968  -10.4596  -10.7948 O   0  0  0  0  0  0  0  0  0  0  0  0
   42.3831  -16.0293  -10.4327 C   0  0  0  0  0  0  0  0  0  0  0  0
   42.8657  -17.2614  -10.0455 C   0  0  0  0  0  0  0  0  0  0  0  0
   44.2117  -10.6124  -11.5733 N   0  0  0  0  0  0  0  0  0  0  0  0
   44.0482   -9.4096  -12.3730 C   0  0  1  0  0  0  0  0  0  0  0  0
   45.4366   -8.7815  -12.5031 C   0  0  0  0  0  0  0  0  0  0  0  0
   45.4516   -7.4928  -13.2369 C   0  0  0  0  0  0  0  0  0  0  0  0
   46.7510   -6.8333  -13.3728 C   0  0  0  0  0  0  0  0  0  0  0  0
   47.0631   -6.0227  -14.2841 O   0  0  0  0  0  0  0  0  0  0  0  0
   43.4524   -9.6239  -13.6926 C   0  0  0  0  0  0  0  0  0  0  0  0
   42.7741   -8.7135  -14.2186 O   0  0  0  0  0  0  0  0  0  0  0  0
   47.7502   -7.0975  -12.4379 O   0  0  0  0  0  0  0  0  0  0  0  0
   43.6267  -10.8074  -14.3616 O   0  0  0  0  0  0  0  0  0  0  0  0
  2  1  1  1
  2  3  1  0
  4  5  2  0
  4  3  1  0
  6  7  2  0
  6  2  1  0
  8  4  1  0
  9 10  1  0
 10 11  2  0
 11 12  1  0
 13 12  2  0
 13 14  1  0
 15 14  1  6
 15 16  1  0
 16  6  1  0
 17 15  1  0
 17 18  2  0
 19 13  1  0
 20 10  1  0
 20 19  2  0
 21 17  1  0
 22 21  1  0
 22 23  1  6
 24 23  1  0
 25 24  1  0
 26 25  2  0
 27 22  1  0
 28 27  2  0
 29 25  1  0
 30 27  1  0
M  END
$$$$
