DYE.pdb
     RDKit          3D

 30 30  0  0  1  0  0  0  0  0999 V2000
   18.9037  -14.2037  -16.1066 N   0  0  0  0  0  0  0  0  0  0  0  0
   19.5849  -13.1957  -16.9766 C   0  0  1  0  0  0  0  0  0  0  0  0
   18.8662  -13.2569  -18.2902 C   0  0  0  0  0  0  0  0  0  0  0  0
   19.0783  -14.5378  -18.9558 C   0  0  0  0  0  0  0  0  0  0  0  0
   20.2049  -15.0466  -19.0623 O   0  0  0  0  0  0  0  0  0  0  0  0
   19.4759  -11.9018  -16.2722 C   0  0  0  0  0  0  0  0  0  0  0  0
   18.3959  -11.5089  -15.7902 O   0  0  0  0  0  0  0  0  0  0  0  0
   18.0042  -15.2392  -19.5007 O   0  0  0  0  0  0  0  0  0  0  0  0
   22.8248   -3.9562  -13.6274 O   0  0  0  0  0  0  0  0  0  0  0  0
   22.5979   -5.2970  -13.9308 C   0  0  0  0  0  0  0  0  0  0  0  0
   23.0392   -5.8230  -15.1197 C   0  0  0  0  0  0  0  0  0  0  0  0
   22.8211   -7.1468  -15.4312 C   0  0  0  0  0  0  0  0  0  0  0  0
   22.1470   -8.0164  -14.5646 C   0  0  0  0  0  0  0  0  0  0  0  0
   21.9184   -9.4030  -14.9723 C   0  0  0  0  0  0  0  0  0  0  0  0
   20.5711   -9.7309  -15.5339 C   0  0  2  0  0  0  0  0  0  0  0  0
   20.6304  -11.0887  -16.1425 N   0  0  0  0  0  0  0  0  0  0  0  0
   20.0832   -8.8156  -16.5573 C   0  0  0  0  0  0  0  0  0  0  0  0
   20.5976   -8.8901  -17.7352 O   0  0  0  0  0  0  0  0  0  0  0  0
   21.7228   -7.4483  -13.3862 C   0  0  0  0  0  0  0  0  0  0  0  0
   21.9296   -6.1265  -13.0530 C   0  0  0  0  0  0  0  0  0  0  0  0
   19.0853   -7.8266  -16.4376 N   0  0  0  0  0  0  0  0  0  0  0  0
   18.8147   -6.8425  -17.4727 C   0  0  1  0  0  0  0  0  0  0  0  0
   17.3046   -6.8685  -17.7139 C   0  0  0  0  0  0  0  0  0  0  0  0
   16.8361   -5.8893  -18.7243 C   0  0  0  0  0  0  0  0  0  0  0  0
   15.3899   -5.8090  -18.9349 C   0  0  0  0  0  0  0  0  0  0  0  0
   14.5258   -6.4769  -18.3086 O   0  0  0  0  0  0  0  0  0  0  0  0
   19.2652   -5.4846  -17.1642 C   0  0  0  0  0  0  0  0  0  0  0  0
   19.5707   -4.7088  -18.0972 O   0  0  0  0  0  0  0  0  0  0  0  0
   14.8892   -4.9344  -19.8974 O   0  0  0  0  0  0  0  0  0  0  0  0
   19.3573   -5.0493  -15.8677 O   0  0  0  0  0  0  0  0  0  0  0  0
  2  1  1  1
  2  3  1  0
  4  5  2  0
  4  3  1  0
  6  7  2  0
  6  2  1  0
  8  4  1  0
  9 10  1  0
 10 11  2  0
 11 12  1  0
 13 12  2  0
 13 14  1  0
 15 14  1  6
 15 16  1  0
 16  6  1  0
 17 15  1  0
 17 18  2  0
 19 13  1  0
 20 10  1  0
 20 19  2  0
 21 17  1  0
 22 21  1  0
 22 23  1  1
 24 23  1  0
 25 24  1  0
 26 25  2  0
 27 22  1  0
 28 27  2  0
 29 25  1  0
 30 27  1  0
M  END
$$$$
