DYE.pdb
     RDKit          3D

 30 30  0  0  1  0  0  0  0  0999 V2000
   28.0786  -22.8284  -18.3002 N   0  0  0  0  0  0  0  0  0  0  0  0
   27.1422  -21.7071  -17.9797 C   0  0  1  0  0  0  0  0  0  0  0  0
   26.1934  -21.6409  -19.1378 C   0  0  0  0  0  0  0  0  0  0  0  0
   26.7935  -20.9626  -20.2818 C   0  0  0  0  0  0  0  0  0  0  0  0
   26.4243  -21.1816  -21.4459 O   0  0  0  0  0  0  0  0  0  0  0  0
   26.5157  -22.0495  -16.6865 C   0  0  0  0  0  0  0  0  0  0  0  0
   26.2068  -23.2223  -16.3999 O   0  0  0  0  0  0  0  0  0  0  0  0
   27.8159  -20.0333  -20.0978 O   0  0  0  0  0  0  0  0  0  0  0  0
   24.3737  -20.8032   -8.0872 O   0  0  0  0  0  0  0  0  0  0  0  0
   24.8734  -20.7079   -9.3843 C   0  0  0  0  0  0  0  0  0  0  0  0
   24.2251  -19.9437  -10.3226 C   0  0  0  0  0  0  0  0  0  0  0  0
   24.7091  -19.8416  -11.6081 C   0  0  0  0  0  0  0  0  0  0  0  0
   25.8724  -20.5022  -12.0225 C   0  0  0  0  0  0  0  0  0  0  0  0
   26.3125  -20.3789  -13.4125 C   0  0  0  0  0  0  0  0  0  0  0  0
   25.6778  -21.2972  -14.4084 C   0  0  2  0  0  0  0  0  0  0  0  0
   26.2609  -21.0160  -15.7495 N   0  0  0  0  0  0  0  0  0  0  0  0
   24.2304  -21.1803  -14.5294 C   0  0  0  0  0  0  0  0  0  0  0  0
   23.7522  -20.1557  -15.1451 O   0  0  0  0  0  0  0  0  0  0  0  0
   26.4892  -21.2559  -11.0515 C   0  0  0  0  0  0  0  0  0  0  0  0
   26.0235  -21.3729   -9.7591 C   0  0  0  0  0  0  0  0  0  0  0  0
   23.2419  -22.0672  -14.0553 N   0  0  0  0  0  0  0  0  0  0  0  0
   21.8201  -21.7682  -14.0994 C   0  0  1  0  0  0  0  0  0  0  0  0
   21.0914  -23.0652  -13.7442 C   0  0  0  0  0  0  0  0  0  0  0  0
   19.6167  -22.9292  -13.6668 C   0  0  0  0  0  0  0  0  0  0  0  0
   18.8344  -24.1385  -13.9272 C   0  0  0  0  0  0  0  0  0  0  0  0
   18.8136  -25.1626  -13.1952 O   0  0  0  0  0  0  0  0  0  0  0  0
   21.3925  -20.6783  -13.2210 C   0  0  0  0  0  0  0  0  0  0  0  0
   21.9122  -20.5578  -12.0892 O   0  0  0  0  0  0  0  0  0  0  0  0
   18.0352  -24.2006  -15.0672 O   0  0  0  0  0  0  0  0  0  0  0  0
   20.4310  -19.7866  -13.6200 O   0  0  0  0  0  0  0  0  0  0  0  0
  2  1  1  6
  2  3  1  0
  4  5  2  0
  4  3  1  0
  6  7  2  0
  6  2  1  0
  8  4  1  0
  9 10  1  0
 10 11  2  0
 11 12  1  0
 13 12  2  0
 13 14  1  0
 15 14  1  1
 15 16  1  0
 16  6  1  0
 17 15  1  0
 17 18  2  0
 19 13  1  0
 20 10  1  0
 20 19  2  0
 21 17  1  0
 22 21  1  0
 22 23  1  1
 24 23  1  0
 25 24  1  0
 26 25  2  0
 27 22  1  0
 28 27  2  0
 29 25  1  0
 30 27  1  0
M  END
$$$$
