DYE.pdb
     RDKit          3D

 30 30  0  0  1  0  0  0  0  0999 V2000
   23.1513  -21.1785  -17.1244 N   0  0  0  0  0  0  0  0  0  0  0  0
   23.1700  -22.5680  -16.5712 C   0  0  1  0  0  0  0  0  0  0  0  0
   21.8021  -23.1185  -16.8382 C   0  0  0  0  0  0  0  0  0  0  0  0
   20.8203  -22.5888  -15.8976 C   0  0  0  0  0  0  0  0  0  0  0  0
   21.1205  -21.7493  -15.0348 O   0  0  0  0  0  0  0  0  0  0  0  0
   24.2664  -23.2738  -17.2654 C   0  0  0  0  0  0  0  0  0  0  0  0
   24.5433  -23.0393  -18.4577 O   0  0  0  0  0  0  0  0  0  0  0  0
   19.4947  -23.0171  -15.9414 O   0  0  0  0  0  0  0  0  0  0  0  0
   31.6618  -28.3080  -17.8110 O   0  0  0  0  0  0  0  0  0  0  0  0
   30.6173  -27.4509  -17.4705 C   0  0  0  0  0  0  0  0  0  0  0  0
   29.6965  -27.8229  -16.5225 C   0  0  0  0  0  0  0  0  0  0  0  0
   28.6596  -26.9846  -16.1773 C   0  0  0  0  0  0  0  0  0  0  0  0
   28.4901  -25.7251  -16.7658 C   0  0  0  0  0  0  0  0  0  0  0  0
   27.3465  -24.8987  -16.3781 C   0  0  0  0  0  0  0  0  0  0  0  0
   26.1075  -25.0244  -17.2070 C   0  0  2  0  0  0  0  0  0  0  0  0
   25.0213  -24.2417  -16.5552 N   0  0  0  0  0  0  0  0  0  0  0  0
   25.6156  -26.3838  -17.3897 C   0  0  0  0  0  0  0  0  0  0  0  0
   24.6165  -26.7703  -16.6756 O   0  0  0  0  0  0  0  0  0  0  0  0
   29.4342  -25.3934  -17.7092 C   0  0  0  0  0  0  0  0  0  0  0  0
   30.4801  -26.2157  -18.0708 C   0  0  0  0  0  0  0  0  0  0  0  0
   26.0928  -27.3714  -18.2759 N   0  0  0  0  0  0  0  0  0  0  0  0
   25.4440  -28.6602  -18.4522 C   0  0  1  0  0  0  0  0  0  0  0  0
   24.0217  -28.3692  -18.9334 C   0  0  0  0  0  0  0  0  0  0  0  0
   23.2723  -29.5723  -19.3696 C   0  0  0  0  0  0  0  0  0  0  0  0
   21.9186  -29.7283  -18.8356 C   0  0  0  0  0  0  0  0  0  0  0  0
   20.8606  -29.3835  -19.4243 O   0  0  0  0  0  0  0  0  0  0  0  0
   26.1247  -29.5713  -19.3734 C   0  0  0  0  0  0  0  0  0  0  0  0
   26.2614  -30.7754  -19.0621 O   0  0  0  0  0  0  0  0  0  0  0  0
   21.7446  -30.3005  -17.5768 O   0  0  0  0  0  0  0  0  0  0  0  0
   26.6148  -29.1252  -20.5733 O   0  0  0  0  0  0  0  0  0  0  0  0
  2  1  1  6
  2  3  1  0
  4  5  2  0
  4  3  1  0
  6  7  2  0
  6  2  1  0
  8  4  1  0
  9 10  1  0
 10 11  2  0
 11 12  1  0
 13 12  2  0
 13 14  1  0
 15 14  1  1
 15 16  1  0
 16  6  1  0
 17 15  1  0
 17 18  2  0
 19 13  1  0
 20 10  1  0
 20 19  2  0
 21 17  1  0
 22 21  1  0
 22 23  1  6
 24 23  1  0
 25 24  1  0
 26 25  2  0
 27 22  1  0
 28 27  2  0
 29 25  1  0
 30 27  1  0
M  END
$$$$
