DYE.pdb
     RDKit          3D

 30 30  0  0  1  0  0  0  0  0999 V2000
   20.5114  -15.7074  -17.5167 N   0  0  0  0  0  0  0  0  0  0  0  0
   20.7929  -14.4439  -18.2659 C   0  0  1  0  0  0  0  0  0  0  0  0
   19.4813  -13.7221  -18.3312 C   0  0  0  0  0  0  0  0  0  0  0  0
   18.5016  -14.4647  -19.1172 C   0  0  0  0  0  0  0  0  0  0  0  0
   18.7265  -14.8209  -20.2842 O   0  0  0  0  0  0  0  0  0  0  0  0
   21.8480  -13.7409  -17.5077 C   0  0  0  0  0  0  0  0  0  0  0  0
   21.8960  -13.7817  -16.2630 O   0  0  0  0  0  0  0  0  0  0  0  0
   17.2641  -14.8013  -18.5714 O   0  0  0  0  0  0  0  0  0  0  0  0
   30.1693  -10.8161  -16.3373 O   0  0  0  0  0  0  0  0  0  0  0  0
   28.9579  -11.4082  -16.6886 C   0  0  0  0  0  0  0  0  0  0  0  0
   28.4448  -11.2406  -17.9509 C   0  0  0  0  0  0  0  0  0  0  0  0
   27.2484  -11.8207  -18.3103 C   0  0  0  0  0  0  0  0  0  0  0  0
   26.5005  -12.6021  -17.4206 C   0  0  0  0  0  0  0  0  0  0  0  0
   25.2201  -13.1607  -17.8561 C   0  0  0  0  0  0  0  0  0  0  0  0
   23.9907  -12.3748  -17.5265 C   0  0  2  0  0  0  0  0  0  0  0  0
   22.8295  -13.0022  -18.2161 N   0  0  0  0  0  0  0  0  0  0  0  0
   24.0243  -10.9719  -17.9188 C   0  0  0  0  0  0  0  0  0  0  0  0
   24.0845  -10.6925  -19.1742 O   0  0  0  0  0  0  0  0  0  0  0  0
   27.0511  -12.7436  -16.1683 C   0  0  0  0  0  0  0  0  0  0  0  0
   28.2464  -12.1727  -15.7861 C   0  0  0  0  0  0  0  0  0  0  0  0
   23.9929   -9.8335  -17.0872 N   0  0  0  0  0  0  0  0  0  0  0  0
   24.0885   -8.4754  -17.5964 C   0  0  1  0  0  0  0  0  0  0  0  0
   22.8902   -7.7126  -17.0296 C   0  0  0  0  0  0  0  0  0  0  0  0
   22.8173   -7.7140  -15.5485 C   0  0  0  0  0  0  0  0  0  0  0  0
   21.6635   -7.0410  -14.9503 C   0  0  0  0  0  0  0  0  0  0  0  0
   20.7531   -6.4520  -15.5901 O   0  0  0  0  0  0  0  0  0  0  0  0
   25.3387   -7.7846  -17.2769 C   0  0  0  0  0  0  0  0  0  0  0  0
   26.0689   -8.2226  -16.3601 O   0  0  0  0  0  0  0  0  0  0  0  0
   21.5251   -7.0290  -13.5636 O   0  0  0  0  0  0  0  0  0  0  0  0
   25.7222   -6.6644  -17.9675 O   0  0  0  0  0  0  0  0  0  0  0  0
  2  1  1  1
  2  3  1  0
  4  5  2  0
  4  3  1  0
  6  7  2  0
  6  2  1  0
  8  4  1  0
  9 10  1  0
 10 11  2  0
 11 12  1  0
 13 12  2  0
 13 14  1  0
 15 14  1  6
 15 16  1  0
 16  6  1  0
 17 15  1  0
 17 18  2  0
 19 13  1  0
 20 10  1  0
 20 19  2  0
 21 17  1  0
 22 21  1  0
 22 23  1  1
 24 23  1  0
 25 24  1  0
 26 25  2  0
 27 22  1  0
 28 27  2  0
 29 25  1  0
 30 27  1  0
M  END
$$$$
