DYE.pdb
     RDKit          3D

 30 30  0  0  1  0  0  0  0  0999 V2000
   18.1046  -12.2606  -16.3460 N   0  0  0  0  0  0  0  0  0  0  0  0
   16.8606  -11.6285  -15.8076 C   0  0  1  0  0  0  0  0  0  0  0  0
   16.2527  -12.6583  -14.9045 C   0  0  0  0  0  0  0  0  0  0  0  0
   15.8023  -13.8266  -15.6536 C   0  0  0  0  0  0  0  0  0  0  0  0
   15.7152  -14.9496  -15.1334 O   0  0  0  0  0  0  0  0  0  0  0  0
   17.2884  -10.3875  -15.1299 C   0  0  0  0  0  0  0  0  0  0  0  0
   16.5125   -9.7405  -14.4002 O   0  0  0  0  0  0  0  0  0  0  0  0
   15.4508  -13.7138  -16.9976 O   0  0  0  0  0  0  0  0  0  0  0  0
   23.1942   -3.6119  -14.1775 O   0  0  0  0  0  0  0  0  0  0  0  0
   22.5495   -4.8358  -14.3442 C   0  0  0  0  0  0  0  0  0  0  0  0
   22.0723   -5.5219  -13.2551 C   0  0  0  0  0  0  0  0  0  0  0  0
   21.4333   -6.7326  -13.4068 C   0  0  0  0  0  0  0  0  0  0  0  0
   21.2381   -7.3216  -14.6623 C   0  0  0  0  0  0  0  0  0  0  0  0
   20.5821   -8.6266  -14.7498 C   0  0  0  0  0  0  0  0  0  0  0  0
   19.0862   -8.6355  -14.7352 C   0  0  2  0  0  0  0  0  0  0  0  0
   18.6153   -9.9233  -15.3159 N   0  0  0  0  0  0  0  0  0  0  0  0
   18.4495   -7.5607  -15.4853 C   0  0  0  0  0  0  0  0  0  0  0  0
   18.4800   -7.6154  -16.7713 O   0  0  0  0  0  0  0  0  0  0  0  0
   21.7313   -6.6008  -15.7247 C   0  0  0  0  0  0  0  0  0  0  0  0
   22.3740   -5.3877  -15.5972 C   0  0  0  0  0  0  0  0  0  0  0  0
   17.7737   -6.4294  -14.9835 N   0  0  0  0  0  0  0  0  0  0  0  0
   17.3751   -5.3078  -15.8178 C   0  0  1  0  0  0  0  0  0  0  0  0
   15.8599   -5.1674  -15.6636 C   0  0  0  0  0  0  0  0  0  0  0  0
   15.2645   -4.0906  -16.4913 C   0  0  0  0  0  0  0  0  0  0  0  0
   14.2374   -3.2671  -15.8517 C   0  0  0  0  0  0  0  0  0  0  0  0
   13.8842   -3.3516  -14.6463 O   0  0  0  0  0  0  0  0  0  0  0  0
   18.0449   -4.0432  -15.5106 C   0  0  0  0  0  0  0  0  0  0  0  0
   18.2274   -3.7156  -14.3169 O   0  0  0  0  0  0  0  0  0  0  0  0
   13.5738   -2.2997  -16.6041 O   0  0  0  0  0  0  0  0  0  0  0  0
   18.4761   -3.2119  -16.5116 O   0  0  0  0  0  0  0  0  0  0  0  0
  2  1  1  1
  2  3  1  0
  4  5  2  0
  4  3  1  0
  6  7  2  0
  6  2  1  0
  8  4  1  0
  9 10  1  0
 10 11  2  0
 11 12  1  0
 13 12  2  0
 13 14  1  0
 15 14  1  6
 15 16  1  0
 16  6  1  0
 17 15  1  0
 17 18  2  0
 19 13  1  0
 20 10  1  0
 20 19  2  0
 21 17  1  0
 22 21  1  0
 22 23  1  1
 24 23  1  0
 25 24  1  0
 26 25  2  0
 27 22  1  0
 28 27  2  0
 29 25  1  0
 30 27  1  0
M  END
$$$$
