RYQ.pdb
     RDKit          3D

 33 33  0  0  1  0  0  0  0  0999 V2000
   21.6230  -17.8508  -22.9460 N   0  0  0  0  0  0  0  0  0  0  0  0
   22.8725  -17.3976  -22.4020 C   0  0  0  0  0  0  0  0  0  0  0  0
   23.5984  -16.5440  -23.0353 N   0  0  0  0  0  0  0  0  0  0  0  0
   23.2684  -17.9225  -21.1544 N   0  0  0  0  0  0  0  0  0  0  0  0
   23.6423  -19.3124  -21.0488 C   0  0  0  0  0  0  0  0  0  0  0  0
   22.4468  -20.1644  -20.7454 C   0  0  0  0  0  0  0  0  0  0  0  0
   22.6267  -20.8353  -19.4080 C   0  0  0  0  0  0  0  0  0  0  0  0
   23.2413  -19.8736  -18.4009 C   0  0  2  0  0  0  0  0  0  0  0  0
   24.6500  -19.7436  -18.6067 N   0  0  0  0  0  0  0  0  0  0  0  0
   22.8974  -20.3728  -17.0453 C   0  0  0  0  0  0  0  0  0  0  0  0
   23.3307  -21.4839  -16.6444 O   0  0  0  0  0  0  0  0  0  0  0  0
   24.4664  -16.1454  -22.6246 O   0  0  0  0  0  0  0  0  0  0  0  0
   21.2778  -20.4118   -8.3950 C   0  0  0  0  0  0  0  0  0  0  0  0
   21.4310  -20.0270   -9.7171 C   0  0  0  0  0  0  0  0  0  0  0  0
   22.6205  -20.2667  -10.3455 C   0  0  0  0  0  0  0  0  0  0  0  0
   22.7791  -19.8862  -11.6608 C   0  0  0  0  0  0  0  0  0  0  0  0
   21.7913  -19.2682  -12.3905 C   0  0  0  0  0  0  0  0  0  0  0  0
   21.9451  -18.8505  -13.8161 C   0  0  2  0  0  0  0  0  0  0  0  0
   21.9294  -20.0147  -14.7646 N   0  0  0  0  0  0  0  0  0  0  0  0
   22.0788  -19.6502  -16.1349 C   0  0  0  0  0  0  0  0  0  0  0  0
   20.6846  -20.7773  -14.5330 O   0  0  0  0  0  0  0  0  0  0  0  0
   19.6344  -20.3756  -15.0964 C   0  0  0  0  0  0  0  0  0  0  0  0
   20.5824  -19.0308  -11.7336 C   0  0  0  0  0  0  0  0  0  0  0  0
   20.4214  -19.4097  -10.4199 N   0  0  0  0  0  0  0  0  0  0  0  0
   19.8272  -26.6059  -12.2636 C   0  0  0  0  0  0  0  0  0  0  0  0
   18.5143  -26.1278  -12.5311 O   0  0  0  0  0  0  0  0  0  0  0  0
   17.5551  -26.8949  -12.3763 C   0  0  0  0  0  0  0  0  0  0  0  0
   18.2905  -24.7456  -12.9848 C   0  0  0  0  0  0  0  0  0  0  0  0
   19.5940  -24.0292  -13.1316 C   0  0  2  0  0  0  0  0  0  0  0  0
   19.3047  -22.5892  -13.5461 N   0  0  0  0  0  0  0  0  0  0  0  0
   20.5912  -21.9410  -13.7162 C   0  0  0  0  0  0  0  0  0  0  0  0
   18.5387  -21.8776  -12.5160 O   0  0  0  0  0  0  0  0  0  0  0  0
   18.9458  -21.5828  -11.3736 O   0  0  0  0  0  0  0  0  0  0  0  0
  2  1  1  0
  3  2  2  0
  4  2  1  0
  5  6  1  0
  5  4  1  0
  7  6  1  0
  8  7  1  0
  8 10  1  0
  8  9  1  1
 10 19  1  0
 10 11  2  0
 12 13  1  0
 13 23  2  0
 13 14  1  0
 14 15  2  0
 15 16  1  0
 16 17  1  0
 18 17  1  1
 19 18  1  0
 20 18  1  0
 20 30  1  0
 21 20  2  0
 22 16  2  0
 23 22  1  0
 24 25  1  0
 25 26  2  0
 27 25  1  0
 27 28  1  0
 29 28  1  6
 29 30  1  0
 29 31  1  0
 31 33  1  0
 32 31  2  0
M  END
$$$$
