RYQ.pdb
     RDKit          3D

 33 33  0  0  1  0  0  0  0  0999 V2000
   31.9407  -33.2149  -16.2834 N   0  0  0  0  0  0  0  0  0  0  0  0
   31.1310  -34.1955  -15.6160 C   0  0  0  0  0  0  0  0  0  0  0  0
   31.6688  -35.1251  -14.9068 N   0  0  0  0  0  0  0  0  0  0  0  0
   29.7324  -34.0986  -15.7688 N   0  0  0  0  0  0  0  0  0  0  0  0
   29.1669  -32.9860  -16.4935 C   0  0  0  0  0  0  0  0  0  0  0  0
   28.8339  -31.8582  -15.5639 C   0  0  0  0  0  0  0  0  0  0  0  0
   27.9139  -30.8847  -16.2544 C   0  0  0  0  0  0  0  0  0  0  0  0
   28.4019  -30.5904  -17.6658 C   0  0  2  0  0  0  0  0  0  0  0  0
   29.7023  -29.9968  -17.6476 N   0  0  0  0  0  0  0  0  0  0  0  0
   27.3814  -29.7303  -18.3168 C   0  0  0  0  0  0  0  0  0  0  0  0
   27.4982  -28.4776  -18.3026 O   0  0  0  0  0  0  0  0  0  0  0  0
   31.1141  -35.9148  -14.5198 O   0  0  0  0  0  0  0  0  0  0  0  0
   21.6547  -26.5222  -24.1018 C   0  0  0  0  0  0  0  0  0  0  0  0
   22.4694  -27.3697  -23.3687 C   0  0  0  0  0  0  0  0  0  0  0  0
   23.7880  -27.0492  -23.2078 C   0  0  0  0  0  0  0  0  0  0  0  0
   24.6037  -27.8883  -22.4794 C   0  0  0  0  0  0  0  0  0  0  0  0
   24.1590  -29.0504  -21.8946 C   0  0  0  0  0  0  0  0  0  0  0  0
   25.0279  -29.9703  -21.1013 C   0  0  2  0  0  0  0  0  0  0  0  0
   25.3379  -29.4357  -19.7326 N   0  0  0  0  0  0  0  0  0  0  0  0
   26.2362  -30.2486  -18.9808 C   0  0  0  0  0  0  0  0  0  0  0  0
   24.0590  -29.2297  -19.0210 O   0  0  0  0  0  0  0  0  0  0  0  0
   23.5452  -30.2169  -18.4352 C   0  0  0  0  0  0  0  0  0  0  0  0
   22.8094  -29.3629  -22.0687 C   0  0  0  0  0  0  0  0  0  0  0  0
   21.9926  -28.5267  -22.7957 N   0  0  0  0  0  0  0  0  0  0  0  0
   21.4754  -23.8595  -16.9854 C   0  0  0  0  0  0  0  0  0  0  0  0
   20.5992  -24.8776  -16.5168 O   0  0  0  0  0  0  0  0  0  0  0  0
   19.6787  -24.5679  -15.7491 C   0  0  0  0  0  0  0  0  0  0  0  0
   20.7764  -26.2784  -16.9324 C   0  0  0  0  0  0  0  0  0  0  0  0
   21.9943  -26.4167  -17.7876 C   0  0  2  0  0  0  0  0  0  0  0  0
   22.1594  -27.8898  -18.1506 N   0  0  0  0  0  0  0  0  0  0  0  0
   23.3665  -27.9865  -18.9492 C   0  0  0  0  0  0  0  0  0  0  0  0
   21.0208  -28.3798  -18.9366 O   0  0  0  0  0  0  0  0  0  0  0  0
   20.9440  -28.3967  -20.1823 O   0  0  0  0  0  0  0  0  0  0  0  0
  2  1  1  0
  3  2  2  0
  4  2  1  0
  5  6  1  0
  5  4  1  0
  7  6  1  0
  8  7  1  0
  8 10  1  0
  8  9  1  1
 10 19  1  0
 10 11  2  0
 12 13  1  0
 13 23  2  0
 13 14  1  0
 14 15  2  0
 15 16  1  0
 16 17  1  0
 18 17  1  6
 19 18  1  0
 20 18  1  0
 20 30  1  0
 21 20  2  0
 22 16  2  0
 23 22  1  0
 24 25  1  0
 25 26  2  0
 27 25  1  0
 27 28  1  0
 29 28  1  1
 29 30  1  0
 29 31  1  0
 31 33  1  0
 32 31  2  0
M  END
$$$$
