RYQ.pdb
     RDKit          3D

 33 33  0  0  1  0  0  0  0  0999 V2000
   30.9942  -24.8644  -15.6309 N   0  0  0  0  0  0  0  0  0  0  0  0
   31.5476  -24.3537  -16.8538 C   0  0  0  0  0  0  0  0  0  0  0  0
   32.6134  -24.8660  -17.3618 N   0  0  0  0  0  0  0  0  0  0  0  0
   30.8798  -23.2756  -17.4707 N   0  0  0  0  0  0  0  0  0  0  0  0
   29.6659  -22.7573  -16.8870 C   0  0  0  0  0  0  0  0  0  0  0  0
   29.9752  -21.7895  -15.7849 C   0  0  0  0  0  0  0  0  0  0  0  0
   29.0176  -21.9992  -14.6403 C   0  0  0  0  0  0  0  0  0  0  0  0
   27.7853  -21.1204  -14.8008 C   0  0  2  0  0  0  0  0  0  0  0  0
   28.1178  -19.7370  -14.6607 N   0  0  0  0  0  0  0  0  0  0  0  0
   26.7821  -21.5787  -13.8065 C   0  0  0  0  0  0  0  0  0  0  0  0
   26.4659  -22.7942  -13.7313 O   0  0  0  0  0  0  0  0  0  0  0  0
   32.9766  -24.5748  -18.2915 O   0  0  0  0  0  0  0  0  0  0  0  0
   29.7720  -21.0027   -7.8295 C   0  0  0  0  0  0  0  0  0  0  0  0
   28.5904  -20.8616   -8.5390 C   0  0  0  0  0  0  0  0  0  0  0  0
   28.3624  -21.6691   -9.6175 C   0  0  0  0  0  0  0  0  0  0  0  0
   27.1887  -21.5335  -10.3275 C   0  0  0  0  0  0  0  0  0  0  0  0
   26.2162  -20.6160  -10.0072 C   0  0  0  0  0  0  0  0  0  0  0  0
   24.9386  -20.4563  -10.7640 C   0  0  2  0  0  0  0  0  0  0  0  0
   24.9924  -21.0826  -12.1278 N   0  0  0  0  0  0  0  0  0  0  0  0
   26.1297  -20.7007  -12.8984 C   0  0  0  0  0  0  0  0  0  0  0  0
   23.7276  -20.7696  -12.8256 O   0  0  0  0  0  0  0  0  0  0  0  0
   23.7963  -20.1688  -13.9283 C   0  0  0  0  0  0  0  0  0  0  0  0
   26.4650  -19.7989   -8.9027 C   0  0  0  0  0  0  0  0  0  0  0  0
   27.6364  -19.9321   -8.1919 N   0  0  0  0  0  0  0  0  0  0  0  0
   22.6983  -25.4988  -14.5861 C   0  0  0  0  0  0  0  0  0  0  0  0
   21.4720  -24.9607  -15.0662 O   0  0  0  0  0  0  0  0  0  0  0  0
   20.7982  -25.6261  -15.8636 C   0  0  0  0  0  0  0  0  0  0  0  0
   21.0043  -23.6358  -14.6279 C   0  0  0  0  0  0  0  0  0  0  0  0
   22.0026  -23.0103  -13.7080 C   0  0  1  0  0  0  0  0  0  0  0  0
   21.4509  -21.6642  -13.2470 N   0  0  0  0  0  0  0  0  0  0  0  0
   22.4318  -21.1046  -12.3367 C   0  0  0  0  0  0  0  0  0  0  0  0
   20.1731  -21.8208  -12.5420 O   0  0  0  0  0  0  0  0  0  0  0  0
   20.0323  -22.0392  -11.3212 O   0  0  0  0  0  0  0  0  0  0  0  0
  2  1  1  0
  3  2  2  0
  4  2  1  0
  5  6  1  0
  5  4  1  0
  7  6  1  0
  8  7  1  0
  8 10  1  0
  8  9  1  1
 10 19  1  0
 10 11  2  0
 12 13  1  0
 13 23  2  0
 13 14  1  0
 14 15  2  0
 15 16  1  0
 16 17  1  0
 18 17  1  1
 19 18  1  0
 20 18  1  0
 20 30  1  0
 21 20  2  0
 22 16  2  0
 23 22  1  0
 24 25  1  0
 25 26  2  0
 27 25  1  0
 27 28  1  0
 29 28  1  6
 29 30  1  0
 29 31  1  0
 31 33  1  0
 32 31  2  0
M  END
$$$$
