RYQ.pdb
     RDKit          3D

 33 33  0  0  1  0  0  0  0  0999 V2000
   28.6026  -24.7119  -16.1534 N   0  0  0  0  0  0  0  0  0  0  0  0
   27.5944  -24.3060  -17.0922 C   0  0  0  0  0  0  0  0  0  0  0  0
   26.6342  -25.0997  -17.4156 N   0  0  0  0  0  0  0  0  0  0  0  0
   27.6991  -23.0112  -17.6412 N   0  0  0  0  0  0  0  0  0  0  0  0
   28.6886  -22.0942  -17.1285 C   0  0  0  0  0  0  0  0  0  0  0  0
   28.6143  -20.7770  -17.8403 C   0  0  0  0  0  0  0  0  0  0  0  0
   27.8099  -19.8009  -17.0210 C   0  0  0  0  0  0  0  0  0  0  0  0
   26.4226  -19.6112  -17.6177 C   0  0  2  0  0  0  0  0  0  0  0  0
   26.4525  -18.6837  -18.7052 N   0  0  0  0  0  0  0  0  0  0  0  0
   25.5217  -19.1846  -16.5170 C   0  0  0  0  0  0  0  0  0  0  0  0
   25.3890  -17.9654  -16.2360 O   0  0  0  0  0  0  0  0  0  0  0  0
   25.9250  -24.8446  -18.1319 O   0  0  0  0  0  0  0  0  0  0  0  0
   19.5163  -16.6167  -18.1647 C   0  0  0  0  0  0  0  0  0  0  0  0
   20.2452  -17.4752  -17.3578 C   0  0  0  0  0  0  0  0  0  0  0  0
   20.1345  -17.3655  -16.0002 C   0  0  0  0  0  0  0  0  0  0  0  0
   20.8571  -18.2167  -15.1920 C   0  0  0  0  0  0  0  0  0  0  0  0
   21.6982  -19.1876  -15.6819 C   0  0  0  0  0  0  0  0  0  0  0  0
   22.4875  -20.1189  -14.8215 C   0  0  2  0  0  0  0  0  0  0  0  0
   23.9171  -19.6877  -14.6625 N   0  0  0  0  0  0  0  0  0  0  0  0
   24.7701  -20.0982  -15.7287 C   0  0  0  0  0  0  0  0  0  0  0  0
   24.4004  -20.1774  -13.3544 O   0  0  0  0  0  0  0  0  0  0  0  0
   23.9467  -21.2713  -12.9308 C   0  0  0  0  0  0  0  0  0  0  0  0
   21.7998  -19.2861  -17.0709 C   0  0  0  0  0  0  0  0  0  0  0  0
   21.0792  -18.4372  -17.8804 N   0  0  0  0  0  0  0  0  0  0  0  0
   22.4358  -21.2119   -8.9150 C   0  0  0  0  0  0  0  0  0  0  0  0
   23.7304  -21.1918   -8.3255 O   0  0  0  0  0  0  0  0  0  0  0  0
   23.8460  -21.4755   -7.1260 C   0  0  0  0  0  0  0  0  0  0  0  0
   24.9182  -20.8408   -9.1205 C   0  0  0  0  0  0  0  0  0  0  0  0
   24.5124  -20.3559  -10.4749 C   0  0  2  0  0  0  0  0  0  0  0  0
   25.7769  -20.1001  -11.2903 N   0  0  0  0  0  0  0  0  0  0  0  0
   25.3496  -19.4968  -12.5383 C   0  0  0  0  0  0  0  0  0  0  0  0
   26.4916  -21.3492  -11.5785 O   0  0  0  0  0  0  0  0  0  0  0  0
   26.8338  -22.2075  -10.7393 O   0  0  0  0  0  0  0  0  0  0  0  0
  2  1  1  0
  3  2  2  0
  4  2  1  0
  5  6  1  0
  5  4  1  0
  7  6  1  0
  8  7  1  0
  8 10  1  0
  8  9  1  6
 10 19  1  0
 10 11  2  0
 12 13  1  0
 13 23  2  0
 13 14  1  0
 14 15  2  0
 15 16  1  0
 16 17  1  0
 18 17  1  6
 19 18  1  0
 20 18  1  0
 20 30  1  0
 21 20  2  0
 22 16  2  0
 23 22  1  0
 24 25  1  0
 25 26  2  0
 27 25  1  0
 27 28  1  0
 29 28  1  1
 29 30  1  0
 29 31  1  0
 31 33  1  0
 32 31  2  0
M  END
$$$$
