RYQ.pdb
     RDKit          3D

 33 33  0  0  1  0  0  0  0  0999 V2000
   16.1919  -15.4758  -16.2489 N   0  0  0  0  0  0  0  0  0  0  0  0
   16.5840  -14.3058  -16.9837 C   0  0  0  0  0  0  0  0  0  0  0  0
   15.7072  -13.5692  -17.5710 N   0  0  0  0  0  0  0  0  0  0  0  0
   17.9597  -13.9995  -17.0348 N   0  0  0  0  0  0  0  0  0  0  0  0
   18.9110  -14.8675  -16.3832 C   0  0  0  0  0  0  0  0  0  0  0  0
   20.3159  -14.4459  -16.6920 C   0  0  0  0  0  0  0  0  0  0  0  0
   20.6658  -13.2177  -15.8919 C   0  0  0  0  0  0  0  0  0  0  0  0
   22.0338  -12.6847  -16.2932 C   0  0  2  0  0  0  0  0  0  0  0  0
   23.0483  -13.6734  -16.1003 N   0  0  0  0  0  0  0  0  0  0  0  0
   22.2744  -11.4471  -15.5086 C   0  0  0  0  0  0  0  0  0  0  0  0
   22.6778  -11.5130  -14.3187 O   0  0  0  0  0  0  0  0  0  0  0  0
   15.9756  -12.7598  -18.1659 O   0  0  0  0  0  0  0  0  0  0  0  0
   28.2587  -11.1468  -16.2857 C   0  0  0  0  0  0  0  0  0  0  0  0
   27.0925  -10.4098  -16.1581 C   0  0  0  0  0  0  0  0  0  0  0  0
   26.2761  -10.2646  -17.2442 C   0  0  0  0  0  0  0  0  0  0  0  0
   25.1143   -9.5326  -17.1237 C   0  0  0  0  0  0  0  0  0  0  0  0
   24.7224   -8.9291  -15.9522 C   0  0  0  0  0  0  0  0  0  0  0  0
   23.4671   -8.1337  -15.8032 C   0  0  2  0  0  0  0  0  0  0  0  0
   22.3211   -8.9541  -15.2850 N   0  0  0  0  0  0  0  0  0  0  0  0
   22.0710  -10.1416  -16.0335 C   0  0  0  0  0  0  0  0  0  0  0  0
   21.1274   -8.0848  -15.2215 O   0  0  0  0  0  0  0  0  0  0  0  0
   20.5919   -7.7395  -16.3059 C   0  0  0  0  0  0  0  0  0  0  0  0
   25.5679   -9.0872  -14.8524 C   0  0  0  0  0  0  0  0  0  0  0  0
   26.7288   -9.8178  -14.9701 N   0  0  0  0  0  0  0  0  0  0  0  0
   17.0463   -7.9532  -10.6417 C   0  0  0  0  0  0  0  0  0  0  0  0
   18.1817   -7.1096  -10.4898 O   0  0  0  0  0  0  0  0  0  0  0  0
   18.5165   -6.7562   -9.3516 C   0  0  0  0  0  0  0  0  0  0  0  0
   18.9517   -6.6595  -11.6607 C   0  0  0  0  0  0  0  0  0  0  0  0
   18.4456   -7.3218  -12.9014 C   0  0  1  0  0  0  0  0  0  0  0  0
   19.3009   -6.8549  -14.0759 N   0  0  0  0  0  0  0  0  0  0  0  0
   20.5371   -7.6113  -14.0142 C   0  0  0  0  0  0  0  0  0  0  0  0
   19.6068   -5.4226  -13.9812 O   0  0  0  0  0  0  0  0  0  0  0  0
   20.7128   -4.9283  -13.6802 O   0  0  0  0  0  0  0  0  0  0  0  0
  2  1  1  0
  3  2  2  0
  4  2  1  0
  5  6  1  0
  5  4  1  0
  7  6  1  0
  8  7  1  0
  8 10  1  0
  8  9  1  1
 10 19  1  0
 10 11  2  0
 12 13  1  0
 13 23  2  0
 13 14  1  0
 14 15  2  0
 15 16  1  0
 16 17  1  0
 18 17  1  1
 19 18  1  0
 20 18  1  0
 20 30  1  0
 21 20  2  0
 22 16  2  0
 23 22  1  0
 24 25  1  0
 25 26  2  0
 27 25  1  0
 27 28  1  0
 29 28  1  6
 29 30  1  0
 29 31  1  0
 31 33  1  0
 32 31  2  0
M  END
$$$$
