RYQ.pdb
     RDKit          3D

 33 33  0  0  1  0  0  0  0  0999 V2000
   29.1439  -27.1794  -17.3193 N   0  0  0  0  0  0  0  0  0  0  0  0
   29.5220  -27.5892  -18.6428 C   0  0  0  0  0  0  0  0  0  0  0  0
   30.1444  -28.6985  -18.8389 N   0  0  0  0  0  0  0  0  0  0  0  0
   29.1857  -26.7320  -19.7111 N   0  0  0  0  0  0  0  0  0  0  0  0
   28.2610  -25.6456  -19.4932 C   0  0  0  0  0  0  0  0  0  0  0  0
   28.8826  -24.5789  -18.6430 C   0  0  0  0  0  0  0  0  0  0  0  0
   28.0948  -24.4215  -17.3680 C   0  0  0  0  0  0  0  0  0  0  0  0
   28.1815  -22.9914  -16.8540 C   0  0  2  0  0  0  0  0  0  0  0  0
   29.5251  -22.6510  -16.5037 N   0  0  0  0  0  0  0  0  0  0  0  0
   27.2377  -22.8728  -15.7137 C   0  0  0  0  0  0  0  0  0  0  0  0
   26.9662  -23.8742  -15.0020 O   0  0  0  0  0  0  0  0  0  0  0  0
   30.4238  -29.0139  -19.7895 O   0  0  0  0  0  0  0  0  0  0  0  0
   22.5229  -19.9596   -8.9100 C   0  0  0  0  0  0  0  0  0  0  0  0
   23.3576  -20.0363  -10.0131 C   0  0  0  0  0  0  0  0  0  0  0  0
   24.5732  -20.6473   -9.8854 C   0  0  0  0  0  0  0  0  0  0  0  0
   25.4082  -20.7268  -10.9792 C   0  0  0  0  0  0  0  0  0  0  0  0
   25.0826  -20.2176  -12.2140 C   0  0  0  0  0  0  0  0  0  0  0  0
   25.9738  -20.2958  -13.4099 C   0  0  2  0  0  0  0  0  0  0  0  0
   25.7328  -21.5300  -14.2308 N   0  0  0  0  0  0  0  0  0  0  0  0
   26.5952  -21.6551  -15.3593 C   0  0  0  0  0  0  0  0  0  0  0  0
   24.3084  -21.5466  -14.6252 O   0  0  0  0  0  0  0  0  0  0  0  0
   23.9253  -20.7115  -15.4840 C   0  0  0  0  0  0  0  0  0  0  0  0
   23.8372  -19.5967  -12.3273 C   0  0  0  0  0  0  0  0  0  0  0  0
   23.0013  -19.5159  -11.2364 N   0  0  0  0  0  0  0  0  0  0  0  0
   20.1724  -26.1423  -16.0349 C   0  0  0  0  0  0  0  0  0  0  0  0
   21.5391  -25.9127  -15.7133 O   0  0  0  0  0  0  0  0  0  0  0  0
   22.2731  -26.8847  -15.4920 C   0  0  0  0  0  0  0  0  0  0  0  0
   22.0802  -24.5458  -15.6426 C   0  0  0  0  0  0  0  0  0  0  0  0
   21.4057  -23.7755  -14.5536 C   0  0  2  0  0  0  0  0  0  0  0  0
   21.9624  -22.3545  -14.5571 N   0  0  0  0  0  0  0  0  0  0  0  0
   23.3364  -22.4472  -14.1014 C   0  0  0  0  0  0  0  0  0  0  0  0
   21.2108  -21.4813  -13.6478 O   0  0  0  0  0  0  0  0  0  0  0  0
   21.2187  -21.5418  -12.4011 O   0  0  0  0  0  0  0  0  0  0  0  0
  2  1  1  0
  3  2  2  0
  4  2  1  0
  5  6  1  0
  5  4  1  0
  7  6  1  0
  8  7  1  0
  8 10  1  0
  8  9  1  1
 10 19  1  0
 10 11  2  0
 12 13  1  0
 13 23  2  0
 13 14  1  0
 14 15  2  0
 15 16  1  0
 16 17  1  0
 18 17  1  1
 19 18  1  0
 20 18  1  0
 20 30  1  0
 21 20  2  0
 22 16  2  0
 23 22  1  0
 24 25  1  0
 25 26  2  0
 27 25  1  0
 27 28  1  0
 29 28  1  6
 29 30  1  0
 29 31  1  0
 31 33  1  0
 32 31  2  0
M  END
$$$$
