RYQ.pdb
     RDKit          3D

 33 33  0  0  1  0  0  0  0  0999 V2000
   25.0002  -24.1909  -22.6965 N   0  0  0  0  0  0  0  0  0  0  0  0
   26.1962  -23.6890  -22.0800 C   0  0  0  0  0  0  0  0  0  0  0  0
   26.8161  -22.6728  -22.5696 N   0  0  0  0  0  0  0  0  0  0  0  0
   26.6602  -24.3507  -20.9243 N   0  0  0  0  0  0  0  0  0  0  0  0
   25.9232  -25.4746  -20.3984 C   0  0  0  0  0  0  0  0  0  0  0  0
   24.7509  -25.0108  -19.5875 C   0  0  0  0  0  0  0  0  0  0  0  0
   24.8128  -25.6192  -18.2101 C   0  0  0  0  0  0  0  0  0  0  0  0
   25.9345  -24.9926  -17.3941 C   0  0  2  0  0  0  0  0  0  0  0  0
   27.0044  -25.9192  -17.1931 N   0  0  0  0  0  0  0  0  0  0  0  0
   25.3399  -24.5094  -16.1220 C   0  0  0  0  0  0  0  0  0  0  0  0
   24.8139  -25.3184  -15.3145 O   0  0  0  0  0  0  0  0  0  0  0  0
   27.6986  -22.3122  -22.1546 O   0  0  0  0  0  0  0  0  0  0  0  0
   23.5075  -19.9705   -8.8379 C   0  0  0  0  0  0  0  0  0  0  0  0
   23.9900  -20.3363  -10.0840 C   0  0  0  0  0  0  0  0  0  0  0  0
   25.1064  -21.1206  -10.1603 C   0  0  0  0  0  0  0  0  0  0  0  0
   25.5914  -21.4879  -11.3972 C   0  0  0  0  0  0  0  0  0  0  0  0
   25.0059  -21.1037  -12.5802 C   0  0  0  0  0  0  0  0  0  0  0  0
   25.5167  -21.4932  -13.9286 C   0  0  2  0  0  0  0  0  0  0  0  0
   24.7990  -22.6836  -14.4969 N   0  0  0  0  0  0  0  0  0  0  0  0
   25.3249  -23.1398  -15.7412 C   0  0  0  0  0  0  0  0  0  0  0  0
   23.3635  -22.3471  -14.5990 O   0  0  0  0  0  0  0  0  0  0  0  0
   22.9959  -21.6184  -15.5560 C   0  0  0  0  0  0  0  0  0  0  0  0
   23.8664  -20.3026  -12.4844 C   0  0  0  0  0  0  0  0  0  0  0  0
   23.3799  -19.9343  -11.2504 N   0  0  0  0  0  0  0  0  0  0  0  0
   18.3701  -25.3456  -12.2735 C   0  0  0  0  0  0  0  0  0  0  0  0
   17.8174  -24.2190  -12.9436 O   0  0  0  0  0  0  0  0  0  0  0  0
   16.5863  -24.1088  -13.0133 C   0  0  0  0  0  0  0  0  0  0  0  0
   18.6870  -23.1962  -13.5471 C   0  0  0  0  0  0  0  0  0  0  0  0
   20.1244  -23.5299  -13.3091 C   0  0  2  0  0  0  0  0  0  0  0  0
   20.9797  -22.4184  -13.9108 N   0  0  0  0  0  0  0  0  0  0  0  0
   22.3630  -22.7941  -13.6883 C   0  0  0  0  0  0  0  0  0  0  0  0
   20.7197  -21.1289  -13.2597 O   0  0  0  0  0  0  0  0  0  0  0  0
   21.1856  -20.7547  -12.1639 O   0  0  0  0  0  0  0  0  0  0  0  0
  2  1  1  0
  3  2  2  0
  4  2  1  0
  5  6  1  0
  5  4  1  0
  7  6  1  0
  8  7  1  0
  8 10  1  0
  8  9  1  1
 10 19  1  0
 10 11  2  0
 12 13  1  0
 13 23  2  0
 13 14  1  0
 14 15  2  0
 15 16  1  0
 16 17  1  0
 18 17  1  1
 19 18  1  0
 20 18  1  0
 20 30  1  0
 21 20  2  0
 22 16  2  0
 23 22  1  0
 24 25  1  0
 25 26  2  0
 27 25  1  0
 27 28  1  0
 29 28  1  6
 29 30  1  0
 29 31  1  0
 31 33  1  0
 32 31  2  0
M  END
$$$$
