YRA.pdb
     RDKit          3D

 29 29  0  0  1  0  0  0  0  0999 V2000
    5.5810  -10.7966   27.7215 O   0  0  0  0  0  0  0  0  0  0  0  0
    6.1868  -12.0358   27.5179 C   0  0  0  0  0  0  0  0  0  0  0  0
    5.5318  -13.0768   26.8967 C   0  0  0  0  0  0  0  0  0  0  0  0
    6.1301  -14.3053   26.6930 C   0  0  0  0  0  0  0  0  0  0  0  0
    7.4259  -14.5412   27.1104 C   0  0  0  0  0  0  0  0  0  0  0  0
    8.1006  -15.8630   26.9098 C   0  0  0  0  0  0  0  0  0  0  0  0
    7.1696  -16.7425   26.1042 C   0  0  2  0  0  0  0  0  0  0  0  0
    7.0801  -18.0376   26.7313 N   0  0  0  0  0  0  0  0  0  0  0  0
    7.6791  -16.8415   24.7021 C   0  0  0  0  0  0  0  0  0  0  0  0
    8.4886  -17.7653   24.4454 O   0  0  0  0  0  0  0  0  0  0  0  0
    8.0889  -13.5045   27.7331 C   0  0  0  0  0  0  0  0  0  0  0  0
    7.4852  -12.2653   27.9383 C   0  0  0  0  0  0  0  0  0  0  0  0
    9.7659  -12.6553   17.9645 N   0  0  0  0  0  0  0  0  0  0  0  0
    8.7826  -13.4260   17.2920 C   0  0  0  0  0  0  0  0  0  0  0  0
    8.9808  -13.7100   16.0387 N   0  0  0  0  0  0  0  0  0  0  0  0
    7.6047  -13.8976   17.9093 N   0  0  0  0  0  0  0  0  0  0  0  0
    7.3963  -13.6708   19.3142 C   0  0  0  0  0  0  0  0  0  0  0  0
    7.9531  -14.7785   20.1720 C   0  0  0  0  0  0  0  0  0  0  0  0
    7.3013  -14.8070   21.5280 C   0  0  0  0  0  0  0  0  0  0  0  0
    7.8090  -15.9701   22.3337 C   0  0  2  0  0  0  0  0  0  0  0  0
    7.2952  -15.9630   23.6866 N   0  0  0  0  0  0  0  0  0  0  0  0
    9.3069  -15.7942   22.3924 C   0  0  0  0  0  0  0  0  0  0  0  0
    9.7543  -14.7283   22.8578 O   0  0  0  0  0  0  0  0  0  0  0  0
    8.3605  -14.3340   15.5037 C   0  0  0  0  0  0  0  0  0  0  0  0
   12.3063  -17.9341   22.4607 C   0  0  1  0  0  0  0  0  0  0  0  0
   11.6533  -16.6459   22.0090 N   0  0  0  0  0  0  0  0  0  0  0  0
   10.2095  -16.7836   21.9427 C   0  0  0  0  0  0  0  0  0  0  0  0
   12.2237  -16.1609   20.7401 O   0  0  0  0  0  0  0  0  0  0  0  0
   13.4229  -15.8279   20.6933 O   0  0  0  0  0  0  0  0  0  0  0  0
  2 12  2  0
  2  1  1  0
  3  2  1  0
  4  3  2  0
  5  4  1  0
  5 11  2  0
  6  5  1  0
  7  9  1  0
  7  6  1  0
  7  8  1  1
  9 10  2  0
 11 12  1  0
 14 13  1  0
 15 14  2  0
 16 14  1  0
 17 18  1  0
 17 16  1  0
 18 19  1  0
 20 19  1  6
 21 20  1  0
 21  9  1  0
 22 20  1  0
 23 22  2  0
 25 24  1  1
 25 26  1  0
 26 22  1  0
 27 25  1  0
 27 29  1  0
 28 27  2  0
M  END
$$$$
