YRA.pdb
     RDKit          3D

 29 29  0  0  1  0  0  0  0  0999 V2000
   11.5281  -14.8538   29.7049 O   0  0  0  0  0  0  0  0  0  0  0  0
   10.4033  -14.9266   28.8844 C   0  0  0  0  0  0  0  0  0  0  0  0
    9.4566  -15.9175   29.0274 C   0  0  0  0  0  0  0  0  0  0  0  0
    8.3407  -15.9915   28.2161 C   0  0  0  0  0  0  0  0  0  0  0  0
    8.1280  -15.0624   27.2159 C   0  0  0  0  0  0  0  0  0  0  0  0
    6.9321  -15.1181   26.3164 C   0  0  0  0  0  0  0  0  0  0  0  0
    6.8439  -16.5170   25.7466 C   0  0  2  0  0  0  0  0  0  0  0  0
    6.9147  -17.4728   26.8236 N   0  0  0  0  0  0  0  0  0  0  0  0
    7.9487  -16.7149   24.7589 C   0  0  0  0  0  0  0  0  0  0  0  0
    8.7208  -17.6868   24.9425 O   0  0  0  0  0  0  0  0  0  0  0  0
    9.0707  -14.0670   27.0659 C   0  0  0  0  0  0  0  0  0  0  0  0
   10.1962  -13.9925   27.8845 C   0  0  0  0  0  0  0  0  0  0  0  0
    8.3351  -13.7526   16.7249 N   0  0  0  0  0  0  0  0  0  0  0  0
    7.7441  -13.6226   18.0082 C   0  0  0  0  0  0  0  0  0  0  0  0
    6.5963  -13.0176   18.0939 N   0  0  0  0  0  0  0  0  0  0  0  0
    8.3348  -14.1126   19.1922 N   0  0  0  0  0  0  0  0  0  0  0  0
    9.6417  -14.7112   19.1418 C   0  0  0  0  0  0  0  0  0  0  0  0
   10.0561  -15.3172   20.4585 C   0  0  0  0  0  0  0  0  0  0  0  0
    9.0387  -15.0484   21.5342 C   0  0  0  0  0  0  0  0  0  0  0  0
    9.1605  -16.0586   22.6407 C   0  0  2  0  0  0  0  0  0  0  0  0
    8.1496  -15.8764   23.6603 N   0  0  0  0  0  0  0  0  0  0  0  0
   10.5135  -15.8117   23.2623 C   0  0  0  0  0  0  0  0  0  0  0  0
   10.6434  -14.8238   24.0108 O   0  0  0  0  0  0  0  0  0  0  0  0
    6.1030  -12.8821   18.9875 C   0  0  0  0  0  0  0  0  0  0  0  0
   12.9585  -16.9535   25.0573 C   0  0  2  0  0  0  0  0  0  0  0  0
   12.9297  -16.4464   23.6318 N   0  0  0  0  0  0  0  0  0  0  0  0
   11.6256  -16.6507   23.0276 C   0  0  0  0  0  0  0  0  0  0  0  0
   14.0141  -17.0304   22.8232 O   0  0  0  0  0  0  0  0  0  0  0  0
   13.7330  -17.7186   21.8240 O   0  0  0  0  0  0  0  0  0  0  0  0
  2 12  2  0
  2  1  1  0
  3  2  1  0
  4  3  2  0
  5  4  1  0
  5 11  2  0
  6  5  1  0
  7  9  1  0
  7  6  1  0
  7  8  1  1
  9 10  2  0
 11 12  1  0
 14 13  1  0
 15 14  2  0
 16 14  1  0
 17 18  1  0
 17 16  1  0
 18 19  1  0
 20 19  1  6
 21 20  1  0
 21  9  1  0
 22 20  1  0
 23 22  2  0
 25 24  1  1
 25 26  1  0
 26 22  1  0
 27 25  1  0
 27 29  1  0
 28 27  2  0
M  END
$$$$
