YRA.pdb
     RDKit          3D

 29 29  0  0  1  0  0  0  0  0999 V2000
    6.4097  -13.1238   16.1691 O   0  0  0  0  0  0  0  0  0  0  0  0
    7.0450  -13.5087   17.3489 C   0  0  0  0  0  0  0  0  0  0  0  0
    6.9496  -12.7672   18.5064 C   0  0  0  0  0  0  0  0  0  0  0  0
    7.5775  -13.1469   19.6771 C   0  0  0  0  0  0  0  0  0  0  0  0
    8.3362  -14.3001   19.7333 C   0  0  0  0  0  0  0  0  0  0  0  0
    9.0338  -14.7360   20.9847 C   0  0  0  0  0  0  0  0  0  0  0  0
    8.3531  -15.9922   21.4827 C   0  0  2  0  0  0  0  0  0  0  0  0
    7.0902  -15.6408   22.0830 N   0  0  0  0  0  0  0  0  0  0  0  0
    9.2530  -16.6853   22.4549 C   0  0  0  0  0  0  0  0  0  0  0  0
    9.3671  -16.1804   23.5979 O   0  0  0  0  0  0  0  0  0  0  0  0
    8.4370  -15.0483   18.5792 C   0  0  0  0  0  0  0  0  0  0  0  0
    7.8034  -14.6652   17.3985 C   0  0  0  0  0  0  0  0  0  0  0  0
   14.0106  -20.6488   21.5972 N   0  0  0  0  0  0  0  0  0  0  0  0
   13.7580  -21.3176   20.3716 C   0  0  0  0  0  0  0  0  0  0  0  0
   14.7247  -21.3909   19.5050 N   0  0  0  0  0  0  0  0  0  0  0  0
   12.5171  -21.9041   20.0445 N   0  0  0  0  0  0  0  0  0  0  0  0
   11.3627  -21.6295   20.8572 C   0  0  0  0  0  0  0  0  0  0  0  0
   11.2320  -20.1694   21.2091 C   0  0  0  0  0  0  0  0  0  0  0  0
   11.0519  -19.9727   22.6902 C   0  0  0  0  0  0  0  0  0  0  0  0
   10.9065  -18.5122   23.0152 C   0  0  2  0  0  0  0  0  0  0  0  0
    9.9569  -17.8512   22.1458 N   0  0  0  0  0  0  0  0  0  0  0  0
   12.2698  -17.9103   22.7762 C   0  0  0  0  0  0  0  0  0  0  0  0
   12.6165  -17.6927   21.5992 O   0  0  0  0  0  0  0  0  0  0  0  0
   14.6585  -21.9488   18.6421 C   0  0  0  0  0  0  0  0  0  0  0  0
   14.4819  -15.5347   23.7215 C   0  0  2  0  0  0  0  0  0  0  0  0
   14.4868  -17.0446   23.6208 N   0  0  0  0  0  0  0  0  0  0  0  0
   13.1571  -17.5894   23.8276 C   0  0  0  0  0  0  0  0  0  0  0  0
   15.4812  -17.6483   24.5248 O   0  0  0  0  0  0  0  0  0  0  0  0
   16.6847  -17.3538   24.3988 O   0  0  0  0  0  0  0  0  0  0  0  0
  2 12  2  0
  2  1  1  0
  3  2  1  0
  4  3  2  0
  5  4  1  0
  5 11  2  0
  6  5  1  0
  7  9  1  0
  7  6  1  0
  7  8  1  1
  9 10  2  0
 11 12  1  0
 14 13  1  0
 15 14  2  0
 16 14  1  0
 17 18  1  0
 17 16  1  0
 18 19  1  0
 20 19  1  6
 21 20  1  0
 21  9  1  0
 22 20  1  0
 23 22  2  0
 25 24  1  6
 25 26  1  0
 26 22  1  0
 27 25  1  0
 27 29  1  0
 28 27  2  0
M  END
$$$$
