YRA.pdb
     RDKit          3D

 29 29  0  0  1  0  0  0  0  0999 V2000
   10.4748  -13.8148   31.2148 O   0  0  0  0  0  0  0  0  0  0  0  0
   10.3292  -14.3363   29.9300 C   0  0  0  0  0  0  0  0  0  0  0  0
    9.8299  -13.5854   28.8881 C   0  0  0  0  0  0  0  0  0  0  0  0
    9.6854  -14.0994   27.6139 C   0  0  0  0  0  0  0  0  0  0  0  0
   10.0401  -15.4044   27.3310 C   0  0  0  0  0  0  0  0  0  0  0  0
    9.8905  -15.9931   25.9623 C   0  0  0  0  0  0  0  0  0  0  0  0
    8.4241  -16.2960   25.7445 C   0  0  2  0  0  0  0  0  0  0  0  0
    7.9990  -17.2910   26.6973 N   0  0  0  0  0  0  0  0  0  0  0  0
    8.2223  -16.7574   24.3367 C   0  0  0  0  0  0  0  0  0  0  0  0
    8.3947  -17.9771   24.0981 O   0  0  0  0  0  0  0  0  0  0  0  0
   10.5408  -16.1632   28.3682 C   0  0  0  0  0  0  0  0  0  0  0  0
   10.6867  -15.6443   29.6534 C   0  0  0  0  0  0  0  0  0  0  0  0
    7.7656  -11.9571   16.7729 N   0  0  0  0  0  0  0  0  0  0  0  0
    7.8213  -13.3234   16.3941 C   0  0  0  0  0  0  0  0  0  0  0  0
    7.9281  -13.6027   15.1287 N   0  0  0  0  0  0  0  0  0  0  0  0
    7.7660  -14.3909   17.3151 N   0  0  0  0  0  0  0  0  0  0  0  0
    7.6416  -14.1137   18.7209 C   0  0  0  0  0  0  0  0  0  0  0  0
    7.7426  -15.3550   19.5706 C   0  0  0  0  0  0  0  0  0  0  0  0
    7.5215  -15.0464   21.0267 C   0  0  0  0  0  0  0  0  0  0  0  0
    7.9962  -16.1850   21.8858 C   0  0  2  0  0  0  0  0  0  0  0  0
    7.8553  -15.8995   23.2976 N   0  0  0  0  0  0  0  0  0  0  0  0
    9.4654  -16.3367   21.5751 C   0  0  0  0  0  0  0  0  0  0  0  0
   10.2879  -15.8986   22.4024 O   0  0  0  0  0  0  0  0  0  0  0  0
    8.0102  -14.5664   14.7756 C   0  0  0  0  0  0  0  0  0  0  0  0
   11.4316  -18.6144   21.3828 C   0  0  1  0  0  0  0  0  0  0  0  0
   11.2310  -17.5963   20.2814 N   0  0  0  0  0  0  0  0  0  0  0  0
    9.9358  -16.9499   20.3926 C   0  0  0  0  0  0  0  0  0  0  0  0
   11.4449  -18.1859   18.9482 O   0  0  0  0  0  0  0  0  0  0  0  0
   10.5889  -18.9552   18.4723 O   0  0  0  0  0  0  0  0  0  0  0  0
  2 12  2  0
  2  1  1  0
  3  2  1  0
  4  3  2  0
  5  4  1  0
  5 11  2  0
  6  5  1  0
  7  9  1  0
  7  6  1  0
  7  8  1  1
  9 10  2  0
 11 12  1  0
 14 13  1  0
 15 14  2  0
 16 14  1  0
 17 18  1  0
 17 16  1  0
 18 19  1  0
 20 19  1  6
 21 20  1  0
 21  9  1  0
 22 20  1  0
 23 22  2  0
 25 24  1  1
 25 26  1  0
 26 22  1  0
 27 25  1  0
 27 29  1  0
 28 27  2  0
M  END
$$$$
