YRA.pdb
     RDKit          3D

 29 29  0  0  1  0  0  0  0  0999 V2000
    4.8729  -10.1030   27.6046 O   0  0  0  0  0  0  0  0  0  0  0  0
    5.6573  -11.1459   27.1138 C   0  0  0  0  0  0  0  0  0  0  0  0
    5.8455  -11.3467   25.7637 C   0  0  0  0  0  0  0  0  0  0  0  0
    6.6229  -12.3789   25.2748 C   0  0  0  0  0  0  0  0  0  0  0  0
    7.2501  -13.2622   26.1323 C   0  0  0  0  0  0  0  0  0  0  0  0
    8.0944  -14.3942   25.6342 C   0  0  0  0  0  0  0  0  0  0  0  0
    7.1699  -15.5259   25.2419 C   0  0  2  0  0  0  0  0  0  0  0  0
    6.7962  -16.2638   26.4228 N   0  0  0  0  0  0  0  0  0  0  0  0
    7.8584  -16.3972   24.2408 C   0  0  0  0  0  0  0  0  0  0  0  0
    8.4053  -17.4439   24.6650 O   0  0  0  0  0  0  0  0  0  0  0  0
    7.0670  -13.0685   27.4854 C   0  0  0  0  0  0  0  0  0  0  0  0
    6.2829  -12.0271   27.9783 C   0  0  0  0  0  0  0  0  0  0  0  0
    9.9433  -19.2831   18.7525 N   0  0  0  0  0  0  0  0  0  0  0  0
    9.8320  -18.8340   17.4111 C   0  0  0  0  0  0  0  0  0  0  0  0
   10.3277  -19.5847   16.4723 N   0  0  0  0  0  0  0  0  0  0  0  0
    9.2149  -17.6194   17.0440 N   0  0  0  0  0  0  0  0  0  0  0  0
    8.7931  -16.6974   18.0641 C   0  0  0  0  0  0  0  0  0  0  0  0
    8.9994  -17.2355   19.4572 C   0  0  0  0  0  0  0  0  0  0  0  0
    8.4562  -16.2944   20.4983 C   0  0  0  0  0  0  0  0  0  0  0  0
    8.5712  -16.9003   21.8692 C   0  0  2  0  0  0  0  0  0  0  0  0
    7.9139  -16.0972   22.8780 N   0  0  0  0  0  0  0  0  0  0  0  0
   10.0495  -16.9293   22.1724 C   0  0  0  0  0  0  0  0  0  0  0  0
   10.7193  -15.9084   21.9230 O   0  0  0  0  0  0  0  0  0  0  0  0
   10.2680  -19.3408   15.4737 C   0  0  0  0  0  0  0  0  0  0  0  0
   12.3915  -19.0938   24.1491 C   0  0  1  0  0  0  0  0  0  0  0  0
   12.1097  -18.1053   23.0385 N   0  0  0  0  0  0  0  0  0  0  0  0
   10.6936  -18.0602   22.7218 C   0  0  0  0  0  0  0  0  0  0  0  0
   12.9368  -18.3713   21.8486 O   0  0  0  0  0  0  0  0  0  0  0  0
   14.0564  -17.8357   21.7465 O   0  0  0  0  0  0  0  0  0  0  0  0
  2 12  2  0
  2  1  1  0
  3  2  1  0
  4  3  2  0
  5  4  1  0
  5 11  2  0
  6  5  1  0
  7  9  1  0
  7  6  1  0
  7  8  1  1
  9 10  2  0
 11 12  1  0
 14 13  1  0
 15 14  2  0
 16 14  1  0
 17 18  1  0
 17 16  1  0
 18 19  1  0
 20 19  1  6
 21 20  1  0
 21  9  1  0
 22 20  1  0
 23 22  2  0
 25 24  1  1
 25 26  1  0
 26 22  1  0
 27 25  1  0
 27 29  1  0
 28 27  2  0
M  END
$$$$
