YRA.pdb
     RDKit          3D

 29 29  0  0  1  0  0  0  0  0999 V2000
    5.2520  -10.7974   28.3528 O   0  0  0  0  0  0  0  0  0  0  0  0
    5.9798  -11.7480   27.6384 C   0  0  0  0  0  0  0  0  0  0  0  0
    5.8723  -11.8750   26.2706 C   0  0  0  0  0  0  0  0  0  0  0  0
    6.5931  -12.8156   25.5603 C   0  0  0  0  0  0  0  0  0  0  0  0
    7.4611  -13.6775   26.2025 C   0  0  0  0  0  0  0  0  0  0  0  0
    8.2521  -14.7114   25.4624 C   0  0  0  0  0  0  0  0  0  0  0  0
    7.2789  -15.7162   24.8857 C   0  0  2  0  0  0  0  0  0  0  0  0
    6.6896  -16.4759   25.9600 N   0  0  0  0  0  0  0  0  0  0  0  0
    8.0001  -16.5974   23.9168 C   0  0  0  0  0  0  0  0  0  0  0  0
    8.3617  -17.7283   24.3229 O   0  0  0  0  0  0  0  0  0  0  0  0
    7.5748  -13.5572   27.5717 C   0  0  0  0  0  0  0  0  0  0  0  0
    6.8478  -12.6082   28.2880 C   0  0  0  0  0  0  0  0  0  0  0  0
    8.1261  -14.3475   15.8114 N   0  0  0  0  0  0  0  0  0  0  0  0
    8.3965  -13.8219   17.1013 C   0  0  0  0  0  0  0  0  0  0  0  0
    8.7089  -12.5632   17.1950 N   0  0  0  0  0  0  0  0  0  0  0  0
    8.3455  -14.5909   18.2832 N   0  0  0  0  0  0  0  0  0  0  0  0
    7.8606  -15.9440   18.2328 C   0  0  0  0  0  0  0  0  0  0  0  0
    7.8967  -16.6263   19.5767 C   0  0  0  0  0  0  0  0  0  0  0  0
    9.1659  -16.3114   20.3214 C   0  0  0  0  0  0  0  0  0  0  0  0
    9.1442  -16.9348   21.6891 C   0  0  2  0  0  0  0  0  0  0  0  0
    8.2803  -16.2178   22.6024 N   0  0  0  0  0  0  0  0  0  0  0  0
   10.5618  -16.8357   22.1978 C   0  0  0  0  0  0  0  0  0  0  0  0
   11.2056  -15.8000   21.9415 O   0  0  0  0  0  0  0  0  0  0  0  0
    8.9567  -12.1154   18.0885 C   0  0  0  0  0  0  0  0  0  0  0  0
   12.3580  -16.4461   24.5527 C   0  0  2  0  0  0  0  0  0  0  0  0
   12.4109  -17.6890   23.6912 N   0  0  0  0  0  0  0  0  0  0  0  0
   11.1780  -17.8642   22.9449 C   0  0  0  0  0  0  0  0  0  0  0  0
   12.7577  -18.8845   24.4794 O   0  0  0  0  0  0  0  0  0  0  0  0
   11.9454  -19.8253   24.5581 O   0  0  0  0  0  0  0  0  0  0  0  0
  2 12  2  0
  2  1  1  0
  3  2  1  0
  4  3  2  0
  5  4  1  0
  5 11  2  0
  6  5  1  0
  7  9  1  0
  7  6  1  0
  7  8  1  1
  9 10  2  0
 11 12  1  0
 14 13  1  0
 15 14  2  0
 16 14  1  0
 17 18  1  0
 17 16  1  0
 18 19  1  0
 20 19  1  6
 21 20  1  0
 21  9  1  0
 22 20  1  0
 23 22  2  0
 25 24  1  6
 25 26  1  0
 26 22  1  0
 27 25  1  0
 27 29  1  0
 28 27  2  0
M  END
$$$$
