YRA.pdb
     RDKit          3D

 29 29  0  0  1  0  0  0  0  0999 V2000
    8.7022  -11.9344   16.8477 O   0  0  0  0  0  0  0  0  0  0  0  0
    8.2982  -12.4438   18.0810 C   0  0  0  0  0  0  0  0  0  0  0  0
    8.6065  -11.8160   19.2681 C   0  0  0  0  0  0  0  0  0  0  0  0
    8.2067  -12.3182   20.4915 C   0  0  0  0  0  0  0  0  0  0  0  0
    7.4725  -13.4858   20.5733 C   0  0  0  0  0  0  0  0  0  0  0  0
    7.0289  -14.0592   21.8836 C   0  0  0  0  0  0  0  0  0  0  0  0
    8.1534  -14.9180   22.4195 C   0  0  2  0  0  0  0  0  0  0  0  0
    8.6568  -15.7555   21.3594 N   0  0  0  0  0  0  0  0  0  0  0  0
    7.6468  -15.7277   23.5698 C   0  0  0  0  0  0  0  0  0  0  0  0
    7.1865  -15.1044   24.5568 O   0  0  0  0  0  0  0  0  0  0  0  0
    7.1594  -14.1207   19.3897 C   0  0  0  0  0  0  0  0  0  0  0  0
    7.5627  -13.6138   18.1558 C   0  0  0  0  0  0  0  0  0  0  0  0
    2.9425  -22.1007   21.6886 N   0  0  0  0  0  0  0  0  0  0  0  0
    2.6639  -20.7198   21.5187 C   0  0  0  0  0  0  0  0  0  0  0  0
    1.6591  -20.3876   20.7633 N   0  0  0  0  0  0  0  0  0  0  0  0
    3.4180  -19.6920   22.1235 N   0  0  0  0  0  0  0  0  0  0  0  0
    4.5990  -20.0222   22.8751 C   0  0  0  0  0  0  0  0  0  0  0  0
    5.2834  -18.8073   23.4482 C   0  0  0  0  0  0  0  0  0  0  0  0
    6.5103  -19.1843   24.2338 C   0  0  0  0  0  0  0  0  0  0  0  0
    7.2412  -17.9541   24.6943 C   0  0  2  0  0  0  0  0  0  0  0  0
    7.6648  -17.1241   23.5870 N   0  0  0  0  0  0  0  0  0  0  0  0
    8.4713  -18.4614   25.4069 C   0  0  0  0  0  0  0  0  0  0  0  0
    9.5606  -18.4116   24.8037 O   0  0  0  0  0  0  0  0  0  0  0  0
    1.4033  -19.4081   20.5749 C   0  0  0  0  0  0  0  0  0  0  0  0
    9.8539  -17.3827   27.8999 C   0  0  1  0  0  0  0  0  0  0  0  0
    9.5128  -18.8399   27.6761 N   0  0  0  0  0  0  0  0  0  0  0  0
    8.4317  -18.9855   26.7181 C   0  0  0  0  0  0  0  0  0  0  0  0
    9.2286  -19.5345   28.9440 O   0  0  0  0  0  0  0  0  0  0  0  0
    8.0521  -19.8157   29.2401 O   0  0  0  0  0  0  0  0  0  0  0  0
  2 12  2  0
  2  1  1  0
  3  2  1  0
  4  3  2  0
  5  4  1  0
  5 11  2  0
  6  5  1  0
  7  9  1  0
  7  6  1  0
  7  8  1  6
  9 10  2  0
 11 12  1  0
 14 13  1  0
 15 14  2  0
 16 14  1  0
 17 18  1  0
 17 16  1  0
 18 19  1  0
 20 19  1  6
 21 20  1  0
 21  9  1  0
 22 20  1  0
 23 22  2  0
 25 24  1  6
 25 26  1  0
 26 22  1  0
 27 25  1  0
 27 29  1  0
 28 27  2  0
M  END
$$$$
