YRA.pdb
     RDKit          3D

 29 29  0  0  1  0  0  0  0  0999 V2000
    5.4992  -10.9627   28.5429 O   0  0  0  0  0  0  0  0  0  0  0  0
    6.1394  -11.8466   27.6752 C   0  0  0  0  0  0  0  0  0  0  0  0
    5.5280  -12.3258   26.5372 C   0  0  0  0  0  0  0  0  0  0  0  0
    6.1605  -13.2011   25.6753 C   0  0  0  0  0  0  0  0  0  0  0  0
    7.4479  -13.6361   25.9248 C   0  0  0  0  0  0  0  0  0  0  0  0
    8.1588  -14.5886   25.0137 C   0  0  0  0  0  0  0  0  0  0  0  0
    7.4197  -15.9083   25.0529 C   0  0  2  0  0  0  0  0  0  0  0  0
    7.4930  -16.4533   26.3856 N   0  0  0  0  0  0  0  0  0  0  0  0
    8.0171  -16.8352   24.0433 C   0  0  0  0  0  0  0  0  0  0  0  0
    8.7737  -17.7418   24.4677 O   0  0  0  0  0  0  0  0  0  0  0  0
    8.0673  -13.1613   27.0618 C   0  0  0  0  0  0  0  0  0  0  0  0
    7.4291  -12.2783   27.9309 C   0  0  0  0  0  0  0  0  0  0  0  0
    7.5984  -13.8485   17.1935 N   0  0  0  0  0  0  0  0  0  0  0  0
    8.6572  -13.4429   18.0465 C   0  0  0  0  0  0  0  0  0  0  0  0
    8.7670  -12.1776   18.3250 N   0  0  0  0  0  0  0  0  0  0  0  0
    9.5945  -14.3373   18.6055 N   0  0  0  0  0  0  0  0  0  0  0  0
    9.2087  -15.6958   18.8779 C   0  0  0  0  0  0  0  0  0  0  0  0
    8.2021  -15.8027   19.9951 C   0  0  0  0  0  0  0  0  0  0  0  0
    7.8411  -17.2361   20.2773 C   0  0  0  0  0  0  0  0  0  0  0  0
    8.2827  -17.6298   21.6592 C   0  0  2  0  0  0  0  0  0  0  0  0
    7.7690  -16.7334   22.6727 N   0  0  0  0  0  0  0  0  0  0  0  0
    9.7880  -17.5206   21.6457 C   0  0  0  0  0  0  0  0  0  0  0  0
   10.3783  -17.6882   20.5611 O   0  0  0  0  0  0  0  0  0  0  0  0
    9.5558  -11.7915   18.8625 C   0  0  0  0  0  0  0  0  0  0  0  0
   12.5148  -16.1378   21.8642 C   0  0  1  0  0  0  0  0  0  0  0  0
   11.9934  -17.1812   22.8283 N   0  0  0  0  0  0  0  0  0  0  0  0
   10.5429  -17.2392   22.8061 C   0  0  0  0  0  0  0  0  0  0  0  0
   12.5204  -16.9781   24.1891 O   0  0  0  0  0  0  0  0  0  0  0  0
   11.7287  -16.8159   25.1366 O   0  0  0  0  0  0  0  0  0  0  0  0
  2 12  2  0
  2  1  1  0
  3  2  1  0
  4  3  2  0
  5  4  1  0
  5 11  2  0
  6  5  1  0
  7  9  1  0
  7  6  1  0
  7  8  1  1
  9 10  2  0
 11 12  1  0
 14 13  1  0
 15 14  2  0
 16 14  1  0
 17 18  1  0
 17 16  1  0
 18 19  1  0
 20 19  1  6
 21 20  1  0
 21  9  1  0
 22 20  1  0
 23 22  2  0
 25 24  1  6
 25 26  1  0
 26 22  1  0
 27 25  1  0
 27 29  1  0
 28 27  2  0
M  END
$$$$
