FSH.pdb
     RDKit          3D

 28 29  0  0  1  0  0  0  0  0999 V2000
    5.2354  -16.6640   21.6782 N   0  0  0  0  0  0  0  0  0  0  0  0
    6.6434  -16.8533   21.9706 C   0  0  1  0  0  0  0  0  0  0  0  0
    7.2154  -15.5316   22.4311 C   0  0  0  0  0  0  0  0  0  0  0  0
    7.3561  -14.5669   21.3232 C   0  0  0  0  0  0  0  0  0  0  0  0
    8.3163  -14.7599   20.3231 C   0  0  0  0  0  0  0  0  0  0  0  0
    8.4432  -13.8546   19.2908 C   0  0  0  0  0  0  0  0  0  0  0  0
    7.6439  -12.7398   19.2007 C   0  0  0  0  0  0  0  0  0  0  0  0
    6.6962  -12.5310   20.1701 C   0  0  0  0  0  0  0  0  0  0  0  0
    6.5743  -13.4371   21.1970 C   0  0  0  0  0  0  0  0  0  0  0  0
    6.7783  -17.8688   23.0613 C   0  0  0  0  0  0  0  0  0  0  0  0
    6.0556  -17.8437   24.0884 O   0  0  0  0  0  0  0  0  0  0  0  0
    8.1254  -21.3908   22.4419 O   0  0  0  0  0  0  0  0  0  0  0  0
    7.4936  -21.1644   23.6870 C   0  0  0  0  0  0  0  0  0  0  0  0
    7.9697  -19.7681   24.1145 C   0  0  2  0  0  0  0  0  0  0  0  0
    7.7395  -18.9073   22.9711 N   0  0  0  0  0  0  0  0  0  0  0  0
    9.4096  -19.9036   24.4271 C   0  0  0  0  0  0  0  0  0  0  0  0
   10.2445  -19.8758   23.4973 O   0  0  0  0  0  0  0  0  0  0  0  0
    9.9191  -20.0687   25.7622 N   0  0  0  0  0  0  0  0  0  0  0  0
   11.1617  -19.4924   26.1630 C   0  0  1  0  0  0  0  0  0  0  0  0
   11.2825  -18.0510   25.8054 C   0  0  0  0  0  0  0  0  0  0  0  0
   11.6634  -17.7890   24.4049 C   0  0  0  0  0  0  0  0  0  0  0  0
   11.9205  -18.6242   23.3625 C   0  0  0  0  0  0  0  0  0  0  0  0
   12.1983  -17.8894   22.2453 N   0  0  0  0  0  0  0  0  0  0  0  0
   12.1055  -16.6174   22.6237 C   0  0  0  0  0  0  0  0  0  0  0  0
   11.7869  -16.5045   23.9093 N   0  0  0  0  0  0  0  0  0  0  0  0
   11.4942  -19.6859   27.5991 C   0  0  0  0  0  0  0  0  0  0  0  0
   12.5166  -20.2092   28.0533 O   0  0  0  0  0  0  0  0  0  0  0  0
   10.5454  -19.2245   28.5128 O   0  0  0  0  0  0  0  0  0  0  0  0
  2  1  1  1
  2  3  1  0
  3  4  1  0
  4  5  2  0
  5  6  1  0
  7  6  2  0
  8  7  1  0
  9  8  2  0
  9  4  1  0
 10 11  2  0
 10  2  1  0
 12 13  1  0
 14 13  1  6
 14 15  1  0
 14 16  1  0
 15 10  1  0
 16 18  1  0
 17 16  2  0
 18 19  1  0
 19 26  1  0
 19 20  1  1
 20 21  1  0
 21 25  1  0
 22 21  2  0
 22 23  1  0
 23 24  1  0
 25 24  2  0
 26 27  2  0
 26 28  1  0
M  END
$$$$
