FSH.pdb
     RDKit          3D

 28 29  0  0  1  0  0  0  0  0999 V2000
    9.4346  -15.4465   22.0322 N   0  0  0  0  0  0  0  0  0  0  0  0
    9.0713  -14.6796   23.2086 C   0  0  1  0  0  0  0  0  0  0  0  0
    7.5637  -14.5774   23.2627 C   0  0  0  0  0  0  0  0  0  0  0  0
    7.1015  -13.7042   24.3591 C   0  0  0  0  0  0  0  0  0  0  0  0
    7.1992  -12.3118   24.2553 C   0  0  0  0  0  0  0  0  0  0  0  0
    6.7661  -11.5013   25.2832 C   0  0  0  0  0  0  0  0  0  0  0  0
    6.2275  -12.0184   26.4376 C   0  0  0  0  0  0  0  0  0  0  0  0
    6.1223  -13.3805   26.5605 C   0  0  0  0  0  0  0  0  0  0  0  0
    6.5559  -14.1836   25.5322 C   0  0  0  0  0  0  0  0  0  0  0  0
    9.5724  -15.3932   24.4246 C   0  0  0  0  0  0  0  0  0  0  0  0
    9.6064  -16.6468   24.4951 O   0  0  0  0  0  0  0  0  0  0  0  0
    9.7590  -14.1661   28.4118 O   0  0  0  0  0  0  0  0  0  0  0  0
   10.9777  -14.3138   27.7091 C   0  0  0  0  0  0  0  0  0  0  0  0
   10.6815  -15.3755   26.6394 C   0  0  2  0  0  0  0  0  0  0  0  0
   10.0319  -14.6685   25.5533 N   0  0  0  0  0  0  0  0  0  0  0  0
    9.7814  -16.3611   27.2779 C   0  0  0  0  0  0  0  0  0  0  0  0
    8.5608  -16.3412   27.0096 O   0  0  0  0  0  0  0  0  0  0  0  0
   10.2330  -17.3616   28.2077 N   0  0  0  0  0  0  0  0  0  0  0  0
    9.5072  -18.5737   28.4100 C   0  0  1  0  0  0  0  0  0  0  0  0
    9.1693  -19.2744   27.1391 C   0  0  0  0  0  0  0  0  0  0  0  0
    8.4260  -20.5374   27.3058 C   0  0  0  0  0  0  0  0  0  0  0  0
    7.9265  -21.1583   28.4082 C   0  0  0  0  0  0  0  0  0  0  0  0
    7.2785  -22.3012   28.0353 N   0  0  0  0  0  0  0  0  0  0  0  0
    7.3924  -22.3591   26.7112 C   0  0  0  0  0  0  0  0  0  0  0  0
    8.0716  -21.3245   26.2262 N   0  0  0  0  0  0  0  0  0  0  0  0
   10.1498  -19.5244   29.3553 C   0  0  0  0  0  0  0  0  0  0  0  0
    9.7040  -20.6189   29.7142 O   0  0  0  0  0  0  0  0  0  0  0  0
   11.3796  -19.1252   29.8808 O   0  0  0  0  0  0  0  0  0  0  0  0
  2  1  1  6
  2  3  1  0
  3  4  1  0
  4  5  2  0
  5  6  1  0
  7  6  2  0
  8  7  1  0
  9  8  2  0
  9  4  1  0
 10 11  2  0
 10  2  1  0
 12 13  1  0
 14 13  1  1
 14 15  1  0
 14 16  1  0
 15 10  1  0
 16 18  1  0
 17 16  2  0
 18 19  1  0
 19 26  1  0
 19 20  1  6
 20 21  1  0
 21 25  1  0
 22 21  2  0
 22 23  1  0
 23 24  1  0
 25 24  2  0
 26 27  2  0
 26 28  1  0
M  END
$$$$
