FSH.pdb
     RDKit          3D

 28 29  0  0  1  0  0  0  0  0999 V2000
    6.4300  -16.4462   25.8755 N   0  0  0  0  0  0  0  0  0  0  0  0
    7.0863  -15.6391   24.8646 C   0  0  1  0  0  0  0  0  0  0  0  0
    8.0224  -14.6759   25.5589 C   0  0  0  0  0  0  0  0  0  0  0  0
    7.3215  -13.4770   26.0582 C   0  0  0  0  0  0  0  0  0  0  0  0
    5.9272  -13.4615   26.1805 C   0  0  0  0  0  0  0  0  0  0  0  0
    5.2780  -12.3381   26.6472 C   0  0  0  0  0  0  0  0  0  0  0  0
    5.9624  -11.2015   27.0073 C   0  0  0  0  0  0  0  0  0  0  0  0
    7.3294  -11.1947   26.8955 C   0  0  0  0  0  0  0  0  0  0  0  0
    7.9712  -12.3178   26.4295 C   0  0  0  0  0  0  0  0  0  0  0  0
    7.8683  -16.5389   23.9602 C   0  0  0  0  0  0  0  0  0  0  0  0
    8.1770  -17.7108   24.2905 O   0  0  0  0  0  0  0  0  0  0  0  0
    9.3151  -14.8556   20.7238 O   0  0  0  0  0  0  0  0  0  0  0  0
    9.3381  -16.2592   20.5505 C   0  0  0  0  0  0  0  0  0  0  0  0
    9.3261  -16.8257   21.9782 C   0  0  2  0  0  0  0  0  0  0  0  0
    8.2927  -16.0930   22.6830 N   0  0  0  0  0  0  0  0  0  0  0  0
   10.6716  -16.5631   22.5350 C   0  0  0  0  0  0  0  0  0  0  0  0
   11.0509  -15.3826   22.6921 O   0  0  0  0  0  0  0  0  0  0  0  0
   11.5895  -17.6036   22.9147 N   0  0  0  0  0  0  0  0  0  0  0  0
   12.8494  -17.3045   23.5147 C   0  0  1  0  0  0  0  0  0  0  0  0
   13.0116  -17.9046   24.8689 C   0  0  0  0  0  0  0  0  0  0  0  0
   12.0489  -17.4265   25.8788 C   0  0  0  0  0  0  0  0  0  0  0  0
   11.2587  -16.3203   25.9277 C   0  0  0  0  0  0  0  0  0  0  0  0
   10.5073  -16.3450   27.0679 N   0  0  0  0  0  0  0  0  0  0  0  0
   10.8504  -17.4663   27.6961 C   0  0  0  0  0  0  0  0  0  0  0  0
   11.7711  -18.1496   27.0235 N   0  0  0  0  0  0  0  0  0  0  0  0
   14.0269  -17.6379   22.6704 C   0  0  0  0  0  0  0  0  0  0  0  0
   15.2120  -17.4230   22.9435 O   0  0  0  0  0  0  0  0  0  0  0  0
   13.7478  -18.2551   21.4502 O   0  0  0  0  0  0  0  0  0  0  0  0
  2  1  1  1
  2  3  1  0
  3  4  1  0
  4  5  2  0
  5  6  1  0
  7  6  2  0
  8  7  1  0
  9  8  2  0
  9  4  1  0
 10 11  2  0
 10  2  1  0
 12 13  1  0
 14 13  1  6
 14 15  1  0
 14 16  1  0
 15 10  1  0
 16 18  1  0
 17 16  2  0
 18 19  1  0
 19 26  1  0
 19 20  1  1
 20 21  1  0
 21 25  1  0
 22 21  2  0
 22 23  1  0
 23 24  1  0
 25 24  2  0
 26 27  2  0
 26 28  1  0
M  END
$$$$
