FSH.pdb
     RDKit          3D

 28 29  0  0  1  0  0  0  0  0999 V2000
    6.7923  -16.6118   25.6926 N   0  0  0  0  0  0  0  0  0  0  0  0
    6.8577  -15.5003   24.7630 C   0  0  1  0  0  0  0  0  0  0  0  0
    7.8525  -14.4934   25.2948 C   0  0  0  0  0  0  0  0  0  0  0  0
    7.2042  -13.4357   26.0943 C   0  0  0  0  0  0  0  0  0  0  0  0
    6.0789  -12.7594   25.6091 C   0  0  0  0  0  0  0  0  0  0  0  0
    5.4780  -11.7718   26.3605 C   0  0  0  0  0  0  0  0  0  0  0  0
    5.9514  -11.4140   27.6006 C   0  0  0  0  0  0  0  0  0  0  0  0
    7.0532  -12.0639   28.0956 C   0  0  0  0  0  0  0  0  0  0  0  0
    7.6482  -13.0478   27.3417 C   0  0  0  0  0  0  0  0  0  0  0  0
    7.3172  -16.0090   23.4329 C   0  0  0  0  0  0  0  0  0  0  0  0
    7.9305  -17.0985   23.3117 O   0  0  0  0  0  0  0  0  0  0  0  0
    7.7196  -15.1633   18.7290 O   0  0  0  0  0  0  0  0  0  0  0  0
    7.2889  -14.6290   19.9659 C   0  0  0  0  0  0  0  0  0  0  0  0
    7.6872  -15.6879   21.0047 C   0  0  2  0  0  0  0  0  0  0  0  0
    7.0725  -15.2684   22.2488 N   0  0  0  0  0  0  0  0  0  0  0  0
    9.1648  -15.6565   21.0767 C   0  0  0  0  0  0  0  0  0  0  0  0
    9.7215  -14.9698   21.9602 O   0  0  0  0  0  0  0  0  0  0  0  0
   10.0181  -16.3823   20.1743 N   0  0  0  0  0  0  0  0  0  0  0  0
   11.0531  -17.2400   20.6538 C   0  0  1  0  0  0  0  0  0  0  0  0
   10.5476  -18.3422   21.5198 C   0  0  0  0  0  0  0  0  0  0  0  0
   11.5941  -19.2012   22.1049 C   0  0  0  0  0  0  0  0  0  0  0  0
   12.9513  -19.1105   22.0992 C   0  0  0  0  0  0  0  0  0  0  0  0
   13.4818  -20.1425   22.8195 N   0  0  0  0  0  0  0  0  0  0  0  0
   12.4396  -20.8460   23.2539 C   0  0  0  0  0  0  0  0  0  0  0  0
   11.2857  -20.3223   22.8523 N   0  0  0  0  0  0  0  0  0  0  0  0
   11.9325  -17.7955   19.5915 C   0  0  0  0  0  0  0  0  0  0  0  0
   11.5716  -18.4309   18.5958 O   0  0  0  0  0  0  0  0  0  0  0  0
   13.3002  -17.5675   19.7502 O   0  0  0  0  0  0  0  0  0  0  0  0
  2  1  1  1
  2  3  1  0
  3  4  1  0
  4  5  2  0
  5  6  1  0
  7  6  2  0
  8  7  1  0
  9  8  2  0
  9  4  1  0
 10 11  2  0
 10  2  1  0
 12 13  1  0
 14 13  1  6
 14 15  1  0
 14 16  1  0
 15 10  1  0
 16 18  1  0
 17 16  2  0
 18 19  1  0
 19 26  1  0
 19 20  1  6
 20 21  1  0
 21 25  1  0
 22 21  2  0
 22 23  1  0
 23 24  1  0
 25 24  2  0
 26 27  2  0
 26 28  1  0
M  END
$$$$
