FSH.pdb
     RDKit          3D

 28 29  0  0  1  0  0  0  0  0999 V2000
    6.2512  -16.2997   25.3961 N   0  0  0  0  0  0  0  0  0  0  0  0
    6.5808  -16.0569   24.0045 C   0  0  1  0  0  0  0  0  0  0  0  0
    6.3753  -14.5868   23.7167 C   0  0  0  0  0  0  0  0  0  0  0  0
    6.7743  -13.7335   24.8528 C   0  0  0  0  0  0  0  0  0  0  0  0
    5.9177  -13.5474   25.9441 C   0  0  0  0  0  0  0  0  0  0  0  0
    6.2960  -12.7485   27.0024 C   0  0  0  0  0  0  0  0  0  0  0  0
    7.5130  -12.1097   27.0308 C   0  0  0  0  0  0  0  0  0  0  0  0
    8.3681  -12.2782   25.9716 C   0  0  0  0  0  0  0  0  0  0  0  0
    7.9854  -13.0759   24.9192 C   0  0  0  0  0  0  0  0  0  0  0  0
    8.0145  -16.4198   23.7770 C   0  0  0  0  0  0  0  0  0  0  0  0
    8.5974  -16.1833   22.6897 O   0  0  0  0  0  0  0  0  0  0  0  0
   11.7832  -16.1870   25.2522 O   0  0  0  0  0  0  0  0  0  0  0  0
   10.9550  -16.3765   24.1213 C   0  0  0  0  0  0  0  0  0  0  0  0
   10.0824  -17.5888   24.4794 C   0  0  2  0  0  0  0  0  0  0  0  0
    8.7734  -17.0513   24.7946 N   0  0  0  0  0  0  0  0  0  0  0  0
   10.7212  -18.2212   25.6547 C   0  0  0  0  0  0  0  0  0  0  0  0
   10.3217  -17.9277   26.8021 O   0  0  0  0  0  0  0  0  0  0  0  0
   11.7958  -19.1725   25.5570 N   0  0  0  0  0  0  0  0  0  0  0  0
   12.3246  -19.8218   26.7127 C   0  0  1  0  0  0  0  0  0  0  0  0
   13.2760  -20.9206   26.3846 C   0  0  0  0  0  0  0  0  0  0  0  0
   12.7374  -21.9605   25.4879 C   0  0  0  0  0  0  0  0  0  0  0  0
   11.4814  -22.1955   25.0215 C   0  0  0  0  0  0  0  0  0  0  0  0
   11.4998  -23.2708   24.1798 N   0  0  0  0  0  0  0  0  0  0  0  0
   12.7669  -23.6744   24.1454 C   0  0  0  0  0  0  0  0  0  0  0  0
   13.5482  -22.9210   24.9129 N   0  0  0  0  0  0  0  0  0  0  0  0
   12.9384  -18.9027   27.7072 C   0  0  0  0  0  0  0  0  0  0  0  0
   13.1279  -17.6902   27.5691 O   0  0  0  0  0  0  0  0  0  0  0  0
   13.3347  -19.4843   28.9124 O   0  0  0  0  0  0  0  0  0  0  0  0
  2  1  1  1
  2  3  1  0
  3  4  1  0
  4  5  2  0
  5  6  1  0
  7  6  2  0
  8  7  1  0
  9  8  2  0
  9  4  1  0
 10 11  2  0
 10  2  1  0
 12 13  1  0
 14 13  1  1
 14 15  1  0
 14 16  1  0
 15 10  1  0
 16 18  1  0
 17 16  2  0
 18 19  1  0
 19 26  1  0
 19 20  1  6
 20 21  1  0
 21 25  1  0
 22 21  2  0
 22 23  1  0
 23 24  1  0
 25 24  2  0
 26 27  2  0
 26 28  1  0
M  END
$$$$
