FSH.pdb
     RDKit          3D

 28 29  0  0  1  0  0  0  0  0999 V2000
    6.4076  -15.7437   23.5220 N   0  0  0  0  0  0  0  0  0  0  0  0
    7.7961  -15.6324   23.9266 C   0  0  1  0  0  0  0  0  0  0  0  0
    7.8362  -15.2407   25.3864 C   0  0  0  0  0  0  0  0  0  0  0  0
    7.2895  -13.8895   25.6179 C   0  0  0  0  0  0  0  0  0  0  0  0
    6.1161  -13.7091   26.3594 C   0  0  0  0  0  0  0  0  0  0  0  0
    5.6100  -12.4442   26.5718 C   0  0  0  0  0  0  0  0  0  0  0  0
    6.2272  -11.3222   26.0718 C   0  0  0  0  0  0  0  0  0  0  0  0
    7.3785  -11.4758   25.3422 C   0  0  0  0  0  0  0  0  0  0  0  0
    7.8784  -12.7396   25.1336 C   0  0  0  0  0  0  0  0  0  0  0  0
    8.4611  -16.9601   23.7422 C   0  0  0  0  0  0  0  0  0  0  0  0
    8.0678  -17.7892   22.8845 O   0  0  0  0  0  0  0  0  0  0  0  0
   12.3460  -16.8917   22.3148 O   0  0  0  0  0  0  0  0  0  0  0  0
   11.2115  -16.4676   23.0454 C   0  0  0  0  0  0  0  0  0  0  0  0
   10.8250  -17.6836   23.9004 C   0  0  2  0  0  0  0  0  0  0  0  0
    9.5726  -17.3319   24.5403 N   0  0  0  0  0  0  0  0  0  0  0  0
   11.9192  -17.8605   24.8805 C   0  0  0  0  0  0  0  0  0  0  0  0
   13.1015  -17.9091   24.4779 O   0  0  0  0  0  0  0  0  0  0  0  0
   11.7027  -17.9824   26.2974 N   0  0  0  0  0  0  0  0  0  0  0  0
   11.7464  -19.2497   26.9524 C   0  0  1  0  0  0  0  0  0  0  0  0
   10.6989  -20.1945   26.4726 C   0  0  0  0  0  0  0  0  0  0  0  0
    9.3155  -19.8117   26.8120 C   0  0  0  0  0  0  0  0  0  0  0  0
    8.8091  -18.7508   27.4965 C   0  0  0  0  0  0  0  0  0  0  0  0
    7.4455  -18.8250   27.5115 N   0  0  0  0  0  0  0  0  0  0  0  0
    7.1416  -19.9296   26.8353 C   0  0  0  0  0  0  0  0  0  0  0  0
    8.2281  -20.5563   26.3953 N   0  0  0  0  0  0  0  0  0  0  0  0
   13.0769  -19.9124   26.9206 C   0  0  0  0  0  0  0  0  0  0  0  0
   14.1020  -19.4785   26.3857 O   0  0  0  0  0  0  0  0  0  0  0  0
   13.1587  -21.1481   27.5642 O   0  0  0  0  0  0  0  0  0  0  0  0
  2  1  1  1
  2  3  1  0
  3  4  1  0
  4  5  2  0
  5  6  1  0
  7  6  2  0
  8  7  1  0
  9  8  2  0
  9  4  1  0
 10 11  2  0
 10  2  1  0
 12 13  1  0
 14 13  1  6
 14 15  1  0
 14 16  1  0
 15 10  1  0
 16 18  1  0
 17 16  2  0
 18 19  1  0
 19 26  1  0
 19 20  1  6
 20 21  1  0
 21 25  1  0
 22 21  2  0
 22 23  1  0
 23 24  1  0
 25 24  2  0
 26 27  2  0
 26 28  1  0
M  END
$$$$
