FSH.pdb
     RDKit          3D

 28 29  0  0  1  0  0  0  0  0999 V2000
    6.3390  -16.4479   25.6203 N   0  0  0  0  0  0  0  0  0  0  0  0
    6.8384  -15.4969   24.6454 C   0  0  1  0  0  0  0  0  0  0  0  0
    7.8652  -14.6171   25.3220 C   0  0  0  0  0  0  0  0  0  0  0  0
    7.2428  -13.5831   26.1714 C   0  0  0  0  0  0  0  0  0  0  0  0
    6.0144  -13.0116   25.8199 C   0  0  0  0  0  0  0  0  0  0  0  0
    5.4382  -12.0455   26.6174 C   0  0  0  0  0  0  0  0  0  0  0  0
    6.0368  -11.6085   27.7753 C   0  0  0  0  0  0  0  0  0  0  0  0
    7.2411  -12.1551   28.1389 C   0  0  0  0  0  0  0  0  0  0  0  0
    7.8108  -13.1180   27.3396 C   0  0  0  0  0  0  0  0  0  0  0  0
    7.4800  -16.2485   23.5218 C   0  0  0  0  0  0  0  0  0  0  0  0
    7.9816  -17.3887   23.6832 O   0  0  0  0  0  0  0  0  0  0  0  0
    6.9588  -14.7683   20.1614 O   0  0  0  0  0  0  0  0  0  0  0  0
    8.1238  -15.5320   19.9160 C   0  0  0  0  0  0  0  0  0  0  0  0
    8.3194  -16.3613   21.1939 C   0  0  2  0  0  0  0  0  0  0  0  0
    7.5443  -15.6913   22.2195 N   0  0  0  0  0  0  0  0  0  0  0  0
    9.7698  -16.3308   21.4848 C   0  0  0  0  0  0  0  0  0  0  0  0
   10.3594  -15.2307   21.5504 O   0  0  0  0  0  0  0  0  0  0  0  0
   10.5602  -17.5132   21.7012 N   0  0  0  0  0  0  0  0  0  0  0  0
   11.9786  -17.4465   21.8439 C   0  0  1  0  0  0  0  0  0  0  0  0
   12.4641  -17.9949   23.1415 C   0  0  0  0  0  0  0  0  0  0  0  0
   11.9924  -17.2705   24.3366 C   0  0  0  0  0  0  0  0  0  0  0  0
   11.8397  -15.9433   24.5924 C   0  0  0  0  0  0  0  0  0  0  0  0
   11.3296  -15.7751   25.8480 N   0  0  0  0  0  0  0  0  0  0  0  0
   11.1784  -17.0025   26.3381 C   0  0  0  0  0  0  0  0  0  0  0  0
   11.5615  -17.9337   25.4702 N   0  0  0  0  0  0  0  0  0  0  0  0
   12.7387  -18.0573   20.7217 C   0  0  0  0  0  0  0  0  0  0  0  0
   12.2652  -18.6768   19.7639 O   0  0  0  0  0  0  0  0  0  0  0  0
   14.1254  -17.9066   20.7703 O   0  0  0  0  0  0  0  0  0  0  0  0
  2  1  1  1
  2  3  1  0
  3  4  1  0
  4  5  2  0
  5  6  1  0
  7  6  2  0
  8  7  1  0
  9  8  2  0
  9  4  1  0
 10 11  2  0
 10  2  1  0
 12 13  1  0
 14 13  1  6
 14 15  1  0
 14 16  1  0
 15 10  1  0
 16 18  1  0
 17 16  2  0
 18 19  1  0
 19 26  1  0
 19 20  1  1
 20 21  1  0
 21 25  1  0
 22 21  2  0
 22 23  1  0
 23 24  1  0
 25 24  2  0
 26 27  2  0
 26 28  1  0
M  END
$$$$
