FSH.pdb
     RDKit          3D

 28 29  0  0  1  0  0  0  0  0999 V2000
    7.7295  -15.0024   20.5975 N   0  0  0  0  0  0  0  0  0  0  0  0
    8.1067  -14.6309   21.9480 C   0  0  1  0  0  0  0  0  0  0  0  0
    6.8709  -14.1433   22.6698 C   0  0  0  0  0  0  0  0  0  0  0  0
    7.1678  -13.6884   24.0421 C   0  0  0  0  0  0  0  0  0  0  0  0
    8.1675  -12.7383   24.2810 C   0  0  0  0  0  0  0  0  0  0  0  0
    8.4405  -12.3177   25.5655 C   0  0  0  0  0  0  0  0  0  0  0  0
    7.7527  -12.8063   26.6508 C   0  0  0  0  0  0  0  0  0  0  0  0
    6.7687  -13.7383   26.4396 C   0  0  0  0  0  0  0  0  0  0  0  0
    6.5009  -14.1539   25.1567 C   0  0  0  0  0  0  0  0  0  0  0  0
    8.6557  -15.8356   22.6453 C   0  0  0  0  0  0  0  0  0  0  0  0
    8.5921  -16.9843   22.1410 O   0  0  0  0  0  0  0  0  0  0  0  0
   12.1426  -15.5884   23.9213 O   0  0  0  0  0  0  0  0  0  0  0  0
   11.3960  -16.6902   23.4423 C   0  0  0  0  0  0  0  0  0  0  0  0
   10.1738  -16.7620   24.3697 C   0  0  2  0  0  0  0  0  0  0  0  0
    9.2744  -15.7195   23.9158 N   0  0  0  0  0  0  0  0  0  0  0  0
   10.6796  -16.5034   25.7359 C   0  0  0  0  0  0  0  0  0  0  0  0
   10.5478  -15.3645   26.2336 O   0  0  0  0  0  0  0  0  0  0  0  0
   11.3272  -17.5020   26.5439 N   0  0  0  0  0  0  0  0  0  0  0  0
   10.5800  -18.3841   27.3807 C   0  0  1  0  0  0  0  0  0  0  0  0
    9.5373  -19.1508   26.6423 C   0  0  0  0  0  0  0  0  0  0  0  0
    8.2589  -18.4391   26.4566 C   0  0  0  0  0  0  0  0  0  0  0  0
    7.8441  -17.2022   26.8418 C   0  0  0  0  0  0  0  0  0  0  0  0
    6.5718  -16.9865   26.3946 N   0  0  0  0  0  0  0  0  0  0  0  0
    6.2309  -18.0951   25.7429 C   0  0  0  0  0  0  0  0  0  0  0  0
    7.2084  -18.9958   25.7517 N   0  0  0  0  0  0  0  0  0  0  0  0
   11.4107  -19.3133   28.1912 C   0  0  0  0  0  0  0  0  0  0  0  0
   12.2323  -20.1297   27.7623 O   0  0  0  0  0  0  0  0  0  0  0  0
   11.2322  -19.2436   29.5737 O   0  0  0  0  0  0  0  0  0  0  0  0
  2  1  1  6
  2  3  1  0
  3  4  1  0
  4  5  2  0
  5  6  1  0
  7  6  2  0
  8  7  1  0
  9  8  2  0
  9  4  1  0
 10 11  2  0
 10  2  1  0
 12 13  1  0
 14 13  1  6
 14 15  1  0
 14 16  1  0
 15 10  1  0
 16 18  1  0
 17 16  2  0
 18 19  1  0
 19 26  1  0
 19 20  1  6
 20 21  1  0
 21 25  1  0
 22 21  2  0
 22 23  1  0
 23 24  1  0
 25 24  2  0
 26 27  2  0
 26 28  1  0
M  END
$$$$
