FSH.pdb
     RDKit          3D

 28 29  0  0  1  0  0  0  0  0999 V2000
    6.6176  -17.3275   20.3729 N   0  0  0  0  0  0  0  0  0  0  0  0
    7.8069  -16.6443   20.8451 C   0  0  1  0  0  0  0  0  0  0  0  0
    7.3793  -15.3754   21.5473 C   0  0  0  0  0  0  0  0  0  0  0  0
    7.6237  -14.1730   20.7272 C   0  0  0  0  0  0  0  0  0  0  0  0
    7.9570  -12.9529   21.3267 C   0  0  0  0  0  0  0  0  0  0  0  0
    8.1837  -11.8328   20.5551 C   0  0  0  0  0  0  0  0  0  0  0  0
    8.0934  -11.8658   19.1838 C   0  0  0  0  0  0  0  0  0  0  0  0
    7.7679  -13.0512   18.5753 C   0  0  0  0  0  0  0  0  0  0  0  0
    7.5430  -14.1647   19.3498 C   0  0  0  0  0  0  0  0  0  0  0  0
    8.5262  -17.5357   21.8079 C   0  0  0  0  0  0  0  0  0  0  0  0
    7.9193  -18.1879   22.6933 O   0  0  0  0  0  0  0  0  0  0  0  0
   12.4073  -17.1437   22.0882 O   0  0  0  0  0  0  0  0  0  0  0  0
   12.0921  -18.5004   22.3348 C   0  0  0  0  0  0  0  0  0  0  0  0
   10.6125  -18.4853   22.7468 C   0  0  2  0  0  0  0  0  0  0  0  0
    9.9360  -17.6759   21.7524 N   0  0  0  0  0  0  0  0  0  0  0  0
   10.5671  -17.8676   24.0905 C   0  0  0  0  0  0  0  0  0  0  0  0
   10.8367  -16.6538   24.2172 O   0  0  0  0  0  0  0  0  0  0  0  0
   10.2249  -18.5923   25.2852 N   0  0  0  0  0  0  0  0  0  0  0  0
   10.2482  -17.9684   26.5685 C   0  0  1  0  0  0  0  0  0  0  0  0
    8.8942  -17.5872   27.0602 C   0  0  0  0  0  0  0  0  0  0  0  0
    8.2488  -16.4912   26.3135 C   0  0  0  0  0  0  0  0  0  0  0  0
    8.7015  -15.6795   25.3204 C   0  0  0  0  0  0  0  0  0  0  0  0
    7.7019  -14.8359   24.9276 N   0  0  0  0  0  0  0  0  0  0  0  0
    6.6548  -15.1470   25.6868 C   0  0  0  0  0  0  0  0  0  0  0  0
    6.9319  -16.1334   26.5337 N   0  0  0  0  0  0  0  0  0  0  0  0
   10.9660  -18.7424   27.6154 C   0  0  0  0  0  0  0  0  0  0  0  0
   11.4898  -19.8527   27.4797 O   0  0  0  0  0  0  0  0  0  0  0  0
   11.0473  -18.1401   28.8718 O   0  0  0  0  0  0  0  0  0  0  0  0
  2  1  1  1
  2  3  1  0
  3  4  1  0
  4  5  2  0
  5  6  1  0
  7  6  2  0
  8  7  1  0
  9  8  2  0
  9  4  1  0
 10 11  2  0
 10  2  1  0
 12 13  1  0
 14 13  1  6
 14 15  1  0
 14 16  1  0
 15 10  1  0
 16 18  1  0
 17 16  2  0
 18 19  1  0
 19 26  1  0
 19 20  1  1
 20 21  1  0
 21 25  1  0
 22 21  2  0
 22 23  1  0
 23 24  1  0
 25 24  2  0
 26 27  2  0
 26 28  1  0
M  END
$$$$
