YIK.pdb
     RDKit          3D

 30 30  0  0  1  0  0  0  0  0999 V2000
   20.0500  -22.8170   -6.5487 O   0  0  0  0  0  0  0  0  0  0  0  0
   20.7564  -22.2634   -7.5973 C   0  0  0  0  0  0  0  0  0  0  0  0
   21.5233  -21.1557   -7.4042 C   0  0  0  0  0  0  0  0  0  0  0  0
   22.2255  -20.6069   -8.4510 C   0  0  0  0  0  0  0  0  0  0  0  0
   22.1743  -21.1550   -9.7103 C   0  0  0  0  0  0  0  0  0  0  0  0
   22.9301  -20.5673  -10.8438 C   0  0  0  0  0  0  0  0  0  0  0  0
   24.0555  -21.4844  -11.2936 C   0  0  2  0  0  0  0  0  0  0  0  0
   25.1127  -21.3763  -10.3372 N   0  0  0  0  0  0  0  0  0  0  0  0
   24.4488  -21.0563  -12.6529 C   0  0  0  0  0  0  0  0  0  0  0  0
   25.2781  -20.1289  -12.7960 O   0  0  0  0  0  0  0  0  0  0  0  0
   21.3896  -22.2764   -9.8764 C   0  0  0  0  0  0  0  0  0  0  0  0
   20.6897  -22.8262   -8.8403 C   0  0  0  0  0  0  0  0  0  0  0  0
   26.0630  -24.6107  -15.6426 C   0  0  0  0  0  0  0  0  0  0  0  0
   26.1736  -23.1321  -15.3304 C   0  0  0  0  0  0  0  0  0  0  0  0
   25.1048  -22.3069  -15.9680 C   0  0  2  0  0  0  0  0  0  0  0  0
   25.5518  -21.7659  -17.3335 C   0  0  0  0  0  0  0  0  0  0  0  0
   24.3942  -21.3275  -15.1578 C   0  0  2  0  0  0  0  0  0  0  0  0
   23.9684  -21.6051  -13.8486 N   0  0  0  0  0  0  0  0  0  0  0  0
   23.3428  -20.6395  -15.9719 C   0  0  0  0  0  0  0  0  0  0  0  0
   22.2006  -21.1586  -16.1377 O   0  0  0  0  0  0  0  0  0  0  0  0
   23.5586  -19.3903  -16.5971 N   0  0  0  0  0  0  0  0  0  0  0  0
   22.5183  -18.7261  -17.3518 C   0  0  1  0  0  0  0  0  0  0  0  0
   23.0165  -17.3797  -17.8212 C   0  0  0  0  0  0  0  0  0  0  0  0
   22.0464  -16.6231  -18.6649 C   0  0  0  0  0  0  0  0  0  0  0  0
   21.1246  -15.7596  -17.8357 C   0  0  0  0  0  0  0  0  0  0  0  0
   20.0787  -15.0608  -18.6485 C   0  0  0  0  0  0  0  0  0  0  0  0
   19.2501  -14.2215  -17.7843 N   0  0  0  0  0  0  0  0  0  0  0  0
   22.2167  -19.5306  -18.6070 C   0  0  0  0  0  0  0  0  0  0  0  0
   20.9282  -19.6455  -19.0894 O   0  0  0  0  0  0  0  0  0  0  0  0
   23.1488  -20.1016  -19.2190 O   0  0  0  0  0  0  0  0  0  0  0  0
  2  1  1  0
  3  2  2  0
  4  3  1  0
  5 11  1  0
  5  4  2  0
  6  5  1  0
  7  6  1  0
  7  8  1  1
  9 10  2  0
  9  7  1  0
 11 12  2  0
 12  2  1  0
 14 13  1  0
 15 17  1  0
 15 14  1  0
 15 16  1  6
 17 18  1  1
 18  9  1  0
 19 17  1  0
 20 19  2  0
 21 19  1  0
 22 21  1  0
 22 23  1  6
 23 24  1  0
 24 25  1  0
 25 26  1  0
 27 26  1  0
 28 29  1  0
 28 22  1  0
 30 28  2  0
M  END
$$$$
