YIK.pdb
     RDKit          3D

 30 30  0  0  1  0  0  0  0  0999 V2000
   22.9533  -13.7997  -19.5533 O   0  0  0  0  0  0  0  0  0  0  0  0
   22.7288  -14.9125  -18.7683 C   0  0  0  0  0  0  0  0  0  0  0  0
   22.5907  -16.1415  -19.3367 C   0  0  0  0  0  0  0  0  0  0  0  0
   22.3671  -17.2477  -18.5517 C   0  0  0  0  0  0  0  0  0  0  0  0
   22.2774  -17.1464  -17.1841 C   0  0  0  0  0  0  0  0  0  0  0  0
   22.0364  -18.3368  -16.3317 C   0  0  0  0  0  0  0  0  0  0  0  0
   23.3368  -18.8889  -15.7714 C   0  0  2  0  0  0  0  0  0  0  0  0
   24.1124  -19.3737  -16.8704 N   0  0  0  0  0  0  0  0  0  0  0  0
   22.9787  -19.9417  -14.7973 C   0  0  0  0  0  0  0  0  0  0  0  0
   22.7502  -21.1061  -15.1976 O   0  0  0  0  0  0  0  0  0  0  0  0
   22.4211  -15.8894  -16.6361 C   0  0  0  0  0  0  0  0  0  0  0  0
   22.6434  -14.7866  -17.4107 C   0  0  0  0  0  0  0  0  0  0  0  0
   25.3938  -20.0165  -10.0322 C   0  0  0  0  0  0  0  0  0  0  0  0
   24.7750  -20.8108  -11.1644 C   0  0  0  0  0  0  0  0  0  0  0  0
   23.2819  -20.7847  -11.1642 C   0  0  2  0  0  0  0  0  0  0  0  0
   22.7019  -21.8144  -10.1841 C   0  0  0  0  0  0  0  0  0  0  0  0
   22.5785  -20.7328  -12.4382 C   0  0  2  0  0  0  0  0  0  0  0  0
   22.8640  -19.7628  -13.4129 N   0  0  0  0  0  0  0  0  0  0  0  0
   21.1085  -20.9273  -12.2321 C   0  0  0  0  0  0  0  0  0  0  0  0
   20.3819  -19.9932  -11.7837 O   0  0  0  0  0  0  0  0  0  0  0  0
   20.4532  -22.1466  -12.5183 N   0  0  0  0  0  0  0  0  0  0  0  0
   19.0202  -22.2919  -12.3822 C   0  0  1  0  0  0  0  0  0  0  0  0
   18.5861  -23.6050  -12.9889 C   0  0  0  0  0  0  0  0  0  0  0  0
   17.1121  -23.8344  -12.9731 C   0  0  0  0  0  0  0  0  0  0  0  0
   16.7395  -25.1771  -13.5574 C   0  0  0  0  0  0  0  0  0  0  0  0
   15.2722  -25.4674  -13.4837 C   0  0  0  0  0  0  0  0  0  0  0  0
   14.9837  -26.7551  -14.1134 N   0  0  0  0  0  0  0  0  0  0  0  0
   18.6606  -22.3643  -10.9061 C   0  0  0  0  0  0  0  0  0  0  0  0
   17.5287  -21.7444  -10.4153 O   0  0  0  0  0  0  0  0  0  0  0  0
   19.3997  -22.9958  -10.1159 O   0  0  0  0  0  0  0  0  0  0  0  0
  2  1  1  0
  3  2  2  0
  4  3  1  0
  5 11  1  0
  5  4  2  0
  6  5  1  0
  7  6  1  0
  7  8  1  6
  9 10  2  0
  9  7  1  0
 11 12  2  0
 12  2  1  0
 14 13  1  0
 15 17  1  0
 15 14  1  0
 15 16  1  6
 17 18  1  1
 18  9  1  0
 19 17  1  0
 20 19  2  0
 21 19  1  0
 22 21  1  0
 22 23  1  6
 23 24  1  0
 24 25  1  0
 25 26  1  0
 27 26  1  0
 28 29  1  0
 28 22  1  0
 30 28  2  0
M  END
$$$$
