YIK.pdb
     RDKit          3D

 30 30  0  0  1  0  0  0  0  0999 V2000
   20.0801  -15.1760  -18.4461 O   0  0  0  0  0  0  0  0  0  0  0  0
   20.1879  -16.2212  -17.5512 C   0  0  0  0  0  0  0  0  0  0  0  0
   20.1411  -15.9896  -16.2108 C   0  0  0  0  0  0  0  0  0  0  0  0
   20.2489  -17.0331  -15.3223 C   0  0  0  0  0  0  0  0  0  0  0  0
   20.4054  -18.3275  -15.7568 C   0  0  0  0  0  0  0  0  0  0  0  0
   20.5220  -19.4578  -14.8026 C   0  0  0  0  0  0  0  0  0  0  0  0
   21.9702  -19.7084  -14.4156 C   0  0  2  0  0  0  0  0  0  0  0  0
   22.6402  -20.2407  -15.5611 N   0  0  0  0  0  0  0  0  0  0  0  0
   21.9587  -20.6323  -13.2616 C   0  0  0  0  0  0  0  0  0  0  0  0
   21.7819  -21.8578  -13.4492 O   0  0  0  0  0  0  0  0  0  0  0  0
   20.4494  -18.5321  -17.1195 C   0  0  0  0  0  0  0  0  0  0  0  0
   20.3429  -17.4995  -18.0072 C   0  0  0  0  0  0  0  0  0  0  0  0
   25.2946  -20.5142   -8.6765 C   0  0  0  0  0  0  0  0  0  0  0  0
   24.4738  -20.7533   -9.9274 C   0  0  0  0  0  0  0  0  0  0  0  0
   23.0108  -20.8931   -9.6625 C   0  0  2  0  0  0  0  0  0  0  0  0
   22.7408  -21.8416   -8.4858 C   0  0  0  0  0  0  0  0  0  0  0  0
   22.1072  -21.0891  -10.7876 C   0  0  2  0  0  0  0  0  0  0  0  0
   22.1326  -20.2617  -11.9222 N   0  0  0  0  0  0  0  0  0  0  0  0
   20.7170  -21.3573  -10.3011 C   0  0  0  0  0  0  0  0  0  0  0  0
   19.9741  -20.4171   -9.8939 O   0  0  0  0  0  0  0  0  0  0  0  0
   20.1591  -22.6555  -10.2647 N   0  0  0  0  0  0  0  0  0  0  0  0
   18.7956  -22.8874   -9.8403 C   0  0  1  0  0  0  0  0  0  0  0  0
   18.2484  -24.1068  -10.5436 C   0  0  0  0  0  0  0  0  0  0  0  0
   16.8529  -24.4667  -10.1584 C   0  0  0  0  0  0  0  0  0  0  0  0
   16.4158  -25.7789  -10.7667 C   0  0  0  0  0  0  0  0  0  0  0  0
   14.9842  -26.1145  -10.4828 C   0  0  0  0  0  0  0  0  0  0  0  0
   14.6139  -27.3517  -11.1685 N   0  0  0  0  0  0  0  0  0  0  0  0
   18.7801  -23.2094   -8.3538 C   0  0  0  0  0  0  0  0  0  0  0  0
   17.6549  -22.9847   -7.5859 O   0  0  0  0  0  0  0  0  0  0  0  0
   19.8025  -23.6871   -7.8100 O   0  0  0  0  0  0  0  0  0  0  0  0
  2  1  1  0
  3  2  2  0
  4  3  1  0
  5 11  1  0
  5  4  2  0
  6  5  1  0
  7  6  1  0
  7  8  1  6
  9 10  2  0
  9  7  1  0
 11 12  2  0
 12  2  1  0
 14 13  1  0
 15 17  1  0
 15 14  1  0
 15 16  1  1
 17 18  1  6
 18  9  1  0
 19 17  1  0
 20 19  2  0
 21 19  1  0
 22 21  1  0
 22 23  1  6
 23 24  1  0
 24 25  1  0
 25 26  1  0
 27 26  1  0
 28 29  1  0
 28 22  1  0
 30 28  2  0
M  END
$$$$
