YIK.pdb
     RDKit          3D

 30 30  0  0  1  0  0  0  0  0999 V2000
   30.0323  -15.5413  -18.4303 O   0  0  0  0  0  0  0  0  0  0  0  0
   29.2439  -16.4252  -17.7218 C   0  0  0  0  0  0  0  0  0  0  0  0
   29.0201  -17.6818  -18.1942 C   0  0  0  0  0  0  0  0  0  0  0  0
   28.2342  -18.5596  -17.4859 C   0  0  0  0  0  0  0  0  0  0  0  0
   27.6572  -18.1979  -16.2922 C   0  0  0  0  0  0  0  0  0  0  0  0
   26.8082  -19.1410  -15.5232 C   0  0  0  0  0  0  0  0  0  0  0  0
   27.6231  -19.9056  -14.4931 C   0  0  2  0  0  0  0  0  0  0  0  0
   28.5120  -20.7743  -15.1999 N   0  0  0  0  0  0  0  0  0  0  0  0
   26.6650  -20.6257  -13.6276 C   0  0  0  0  0  0  0  0  0  0  0  0
   26.2842  -21.7756  -13.9454 O   0  0  0  0  0  0  0  0  0  0  0  0
   27.9011  -16.9191  -15.8381 C   0  0  0  0  0  0  0  0  0  0  0  0
   28.6810  -16.0425  -16.5373 C   0  0  0  0  0  0  0  0  0  0  0  0
   26.7445  -20.1170   -8.2313 C   0  0  0  0  0  0  0  0  0  0  0  0
   26.4972  -20.9671   -9.4610 C   0  0  0  0  0  0  0  0  0  0  0  0
   25.2151  -20.6490  -10.1574 C   0  0  2  0  0  0  0  0  0  0  0  0
   24.0164  -21.3009   -9.4536 C   0  0  0  0  0  0  0  0  0  0  0  0
   25.1602  -20.7442  -11.6094 C   0  0  2  0  0  0  0  0  0  0  0  0
   26.1158  -20.1326  -12.4373 N   0  0  0  0  0  0  0  0  0  0  0  0
   23.7594  -20.5352  -12.0945 C   0  0  0  0  0  0  0  0  0  0  0  0
   23.2472  -19.3787  -12.1348 O   0  0  0  0  0  0  0  0  0  0  0  0
   22.9357  -21.5993  -12.5274 N   0  0  0  0  0  0  0  0  0  0  0  0
   21.5611  -21.3857  -12.9250 C   0  0  1  0  0  0  0  0  0  0  0  0
   20.9976  -22.6636  -13.4997 C   0  0  0  0  0  0  0  0  0  0  0  0
   19.5509  -22.5939  -13.8570 C   0  0  0  0  0  0  0  0  0  0  0  0
   19.0442  -23.8957  -14.4328 C   0  0  0  0  0  0  0  0  0  0  0  0
   17.6108  -23.8342  -14.8624 C   0  0  0  0  0  0  0  0  0  0  0  0
   17.1508  -25.1623  -15.2653 N   0  0  0  0  0  0  0  0  0  0  0  0
   20.7261  -21.0668  -11.6943 C   0  0  0  0  0  0  0  0  0  0  0  0
   19.7225  -20.1197  -11.7378 O   0  0  0  0  0  0  0  0  0  0  0  0
   20.9472  -21.6702  -10.6189 O   0  0  0  0  0  0  0  0  0  0  0  0
  2  1  1  0
  3  2  2  0
  4  3  1  0
  5 11  1  0
  5  4  2  0
  6  5  1  0
  7  6  1  0
  7  8  1  6
  9 10  2  0
  9  7  1  0
 11 12  2  0
 12  2  1  0
 14 13  1  0
 15 17  1  0
 15 14  1  0
 15 16  1  1
 17 18  1  6
 18  9  1  0
 19 17  1  0
 20 19  2  0
 21 19  1  0
 22 21  1  0
 22 23  1  1
 23 24  1  0
 24 25  1  0
 25 26  1  0
 27 26  1  0
 28 29  1  0
 28 22  1  0
 30 28  2  0
M  END
$$$$
