YIK.pdb
     RDKit          3D

 30 30  0  0  1  0  0  0  0  0999 V2000
   26.8395   -2.8502  -24.1176 O   0  0  0  0  0  0  0  0  0  0  0  0
   26.1680   -3.6878  -23.2501 C   0  0  0  0  0  0  0  0  0  0  0  0
   26.3350   -3.5655  -21.9049 C   0  0  0  0  0  0  0  0  0  0  0  0
   25.6646   -4.4015  -21.0437 C   0  0  0  0  0  0  0  0  0  0  0  0
   24.8146   -5.3752  -21.5110 C   0  0  0  0  0  0  0  0  0  0  0  0
   24.0881   -6.2802  -20.5864 C   0  0  0  0  0  0  0  0  0  0  0  0
   24.8724   -7.5568  -20.3313 C   0  0  2  0  0  0  0  0  0  0  0  0
   24.8746   -8.3151  -21.5434 N   0  0  0  0  0  0  0  0  0  0  0  0
   24.2152   -8.2536  -19.2052 C   0  0  0  0  0  0  0  0  0  0  0  0
   23.1555   -8.8909  -19.4030 O   0  0  0  0  0  0  0  0  0  0  0  0
   24.6649   -5.4758  -22.8778 C   0  0  0  0  0  0  0  0  0  0  0  0
   25.3283   -4.6483  -23.7384 C   0  0  0  0  0  0  0  0  0  0  0  0
   27.0655  -10.9609  -15.1856 C   0  0  0  0  0  0  0  0  0  0  0  0
   26.2022  -10.4162  -16.3054 C   0  0  0  0  0  0  0  0  0  0  0  0
   25.0064   -9.6627  -15.8233 C   0  0  2  0  0  0  0  0  0  0  0  0
   24.2273  -10.4604  -14.7680 C   0  0  0  0  0  0  0  0  0  0  0  0
   24.1529   -8.9982  -16.7983 C   0  0  2  0  0  0  0  0  0  0  0  0
   24.6760   -8.2751  -17.8827 N   0  0  0  0  0  0  0  0  0  0  0  0
   23.0360   -8.2772  -16.1100 C   0  0  0  0  0  0  0  0  0  0  0  0
   23.2200   -7.1448  -15.5757 O   0  0  0  0  0  0  0  0  0  0  0  0
   21.7299   -8.8091  -16.0138 N   0  0  0  0  0  0  0  0  0  0  0  0
   20.6413   -8.0556  -15.4304 C   0  0  1  0  0  0  0  0  0  0  0  0
   19.3797   -8.2931  -16.2260 C   0  0  0  0  0  0  0  0  0  0  0  0
   18.2003   -7.5067  -15.7613 C   0  0  0  0  0  0  0  0  0  0  0  0
   16.9814   -7.7486  -16.6209 C   0  0  0  0  0  0  0  0  0  0  0  0
   15.8483   -6.8183  -16.3154 C   0  0  0  0  0  0  0  0  0  0  0  0
   14.6592   -7.2119  -17.0698 N   0  0  0  0  0  0  0  0  0  0  0  0
   20.3654   -8.5757  -14.0279 C   0  0  0  0  0  0  0  0  0  0  0  0
   19.8932   -7.7394  -13.0360 O   0  0  0  0  0  0  0  0  0  0  0  0
   20.5679   -9.7827  -13.7608 O   0  0  0  0  0  0  0  0  0  0  0  0
  2  1  1  0
  3  2  2  0
  4  3  1  0
  5 11  1  0
  5  4  2  0
  6  5  1  0
  7  6  1  0
  7  8  1  6
  9 10  2  0
  9  7  1  0
 11 12  2  0
 12  2  1  0
 14 13  1  0
 15 17  1  0
 15 14  1  0
 15 16  1  6
 17 18  1  1
 18  9  1  0
 19 17  1  0
 20 19  2  0
 21 19  1  0
 22 21  1  0
 22 23  1  6
 23 24  1  0
 24 25  1  0
 25 26  1  0
 27 26  1  0
 28 29  1  0
 28 22  1  0
 30 28  2  0
M  END
$$$$
