YIK.pdb
     RDKit          3D

 30 30  0  0  1  0  0  0  0  0999 V2000
   28.9116  -13.6404  -17.4809 O   0  0  0  0  0  0  0  0  0  0  0  0
   28.1652  -14.6840  -16.9722 C   0  0  0  0  0  0  0  0  0  0  0  0
   27.7350  -15.6859  -17.7868 C   0  0  0  0  0  0  0  0  0  0  0  0
   26.9918  -16.7239  -17.2768 C   0  0  0  0  0  0  0  0  0  0  0  0
   26.6647  -16.7800  -15.9432 C   0  0  0  0  0  0  0  0  0  0  0  0
   25.8630  -17.8978  -15.3869 C   0  0  0  0  0  0  0  0  0  0  0  0
   26.7428  -18.9026  -14.6614 C   0  0  2  0  0  0  0  0  0  0  0  0
   27.6031  -19.5065  -15.6307 N   0  0  0  0  0  0  0  0  0  0  0  0
   25.8428  -19.8674  -13.9946 C   0  0  0  0  0  0  0  0  0  0  0  0
   25.4395  -20.8746  -14.6200 O   0  0  0  0  0  0  0  0  0  0  0  0
   27.1139  -15.7518  -15.1420 C   0  0  0  0  0  0  0  0  0  0  0  0
   27.8526  -14.7178  -15.6429 C   0  0  0  0  0  0  0  0  0  0  0  0
   26.3336  -20.5933   -8.7308 C   0  0  0  0  0  0  0  0  0  0  0  0
   25.9809  -21.2966  -10.0257 C   0  0  0  0  0  0  0  0  0  0  0  0
   24.6461  -20.9075  -10.5707 C   0  0  2  0  0  0  0  0  0  0  0  0
   23.5280  -21.7952  -10.0059 C   0  0  0  0  0  0  0  0  0  0  0  0
   24.5174  -20.6459  -11.9974 C   0  0  2  0  0  0  0  0  0  0  0  0
   25.3747  -19.7662  -12.6784 N   0  0  0  0  0  0  0  0  0  0  0  0
   23.0796  -20.4493  -12.3652 C   0  0  0  0  0  0  0  0  0  0  0  0
   22.4997  -19.3419  -12.1676 O   0  0  0  0  0  0  0  0  0  0  0  0
   22.2938  -21.4720  -12.9436 N   0  0  0  0  0  0  0  0  0  0  0  0
   20.9281  -21.2399  -13.3610 C   0  0  1  0  0  0  0  0  0  0  0  0
   20.4884  -22.3481  -14.2882 C   0  0  0  0  0  0  0  0  0  0  0  0
   19.1132  -22.1801  -14.8414 C   0  0  0  0  0  0  0  0  0  0  0  0
   18.6951  -23.3568  -15.6921 C   0  0  0  0  0  0  0  0  0  0  0  0
   17.3947  -23.1404  -16.4026 C   0  0  0  0  0  0  0  0  0  0  0  0
   17.1476  -24.2349  -17.3401 N   0  0  0  0  0  0  0  0  0  0  0  0
   20.0132  -21.3105  -12.1479 C   0  0  0  0  0  0  0  0  0  0  0  0
   18.9391  -20.4536  -12.0124 O   0  0  0  0  0  0  0  0  0  0  0  0
   20.2320  -22.1584  -11.2521 O   0  0  0  0  0  0  0  0  0  0  0  0
  2  1  1  0
  3  2  2  0
  4  3  1  0
  5 11  1  0
  5  4  2  0
  6  5  1  0
  7  6  1  0
  7  8  1  6
  9 10  2  0
  9  7  1  0
 11 12  2  0
 12  2  1  0
 14 13  1  0
 15 17  1  0
 15 14  1  0
 15 16  1  6
 17 18  1  1
 18  9  1  0
 19 17  1  0
 20 19  2  0
 21 19  1  0
 22 21  1  0
 22 23  1  6
 23 24  1  0
 24 25  1  0
 25 26  1  0
 27 26  1  0
 28 29  1  0
 28 22  1  0
 30 28  2  0
M  END
$$$$
