YIK.pdb
     RDKit          3D

 30 30  0  0  1  0  0  0  0  0999 V2000
   17.6208  -24.7029   -7.3574 O   0  0  0  0  0  0  0  0  0  0  0  0
   18.3532  -23.8222   -8.1274 C   0  0  0  0  0  0  0  0  0  0  0  0
   18.7058  -22.6034   -7.6349 C   0  0  0  0  0  0  0  0  0  0  0  0
   19.4354  -21.7287   -8.4047 C   0  0  0  0  0  0  0  0  0  0  0  0
   19.8260  -22.0557   -9.6811 C   0  0  0  0  0  0  0  0  0  0  0  0
   20.6137  -21.1159  -10.5166 C   0  0  0  0  0  0  0  0  0  0  0  0
   22.0822  -21.1246  -10.1252 C   0  0  2  0  0  0  0  0  0  0  0  0
   22.1926  -20.5116   -8.8382 N   0  0  0  0  0  0  0  0  0  0  0  0
   22.8190  -20.4019  -11.1836 C   0  0  0  0  0  0  0  0  0  0  0  0
   22.7518  -19.1528  -11.2446 O   0  0  0  0  0  0  0  0  0  0  0  0
   19.4547  -23.2966  -10.1536 C   0  0  0  0  0  0  0  0  0  0  0  0
   18.7300  -24.1699   -9.3936 C   0  0  0  0  0  0  0  0  0  0  0  0
   27.2960  -21.8549  -11.3629 C   0  0  0  0  0  0  0  0  0  0  0  0
   26.6796  -20.5385  -11.7909 C   0  0  0  0  0  0  0  0  0  0  0  0
   25.9238  -20.6245  -13.0760 C   0  0  2  0  0  0  0  0  0  0  0  0
   26.6707  -19.9171  -14.2157 C   0  0  0  0  0  0  0  0  0  0  0  0
   24.4911  -20.3640  -13.0688 C   0  0  2  0  0  0  0  0  0  0  0  0
   23.6189  -20.9963  -12.1677 N   0  0  0  0  0  0  0  0  0  0  0  0
   23.9570  -20.3404  -14.4672 C   0  0  0  0  0  0  0  0  0  0  0  0
   23.8295  -21.4069  -15.1364 O   0  0  0  0  0  0  0  0  0  0  0  0
   23.5713  -19.1453  -15.1159 N   0  0  0  0  0  0  0  0  0  0  0  0
   23.0229  -19.1477  -16.4548 C   0  0  1  0  0  0  0  0  0  0  0  0
   22.0943  -17.9685  -16.6221 C   0  0  0  0  0  0  0  0  0  0  0  0
   21.4319  -17.8895  -17.9564 C   0  0  0  0  0  0  0  0  0  0  0  0
   20.5431  -16.6738  -18.0787 C   0  0  0  0  0  0  0  0  0  0  0  0
   19.8347  -16.5892  -19.3954 C   0  0  0  0  0  0  0  0  0  0  0  0
   19.0572  -15.3530  -19.4679 N   0  0  0  0  0  0  0  0  0  0  0  0
   24.1484  -18.9503  -17.4588 C   0  0  0  0  0  0  0  0  0  0  0  0
   24.1064  -19.5438  -18.7047 O   0  0  0  0  0  0  0  0  0  0  0  0
   25.1337  -18.2380  -17.1569 O   0  0  0  0  0  0  0  0  0  0  0  0
  2  1  1  0
  3  2  2  0
  4  3  1  0
  5 11  1  0
  5  4  2  0
  6  5  1  0
  7  6  1  0
  7  8  1  1
  9 10  2  0
  9  7  1  0
 11 12  2  0
 12  2  1  0
 14 13  1  0
 15 17  1  0
 15 14  1  0
 15 16  1  6
 17 18  1  1
 18  9  1  0
 19 17  1  0
 20 19  2  0
 21 19  1  0
 22 21  1  0
 22 23  1  1
 23 24  1  0
 24 25  1  0
 25 26  1  0
 27 26  1  0
 28 29  1  0
 28 22  1  0
 30 28  2  0
M  END
$$$$
