YIK.pdb
     RDKit          3D

 30 30  0  0  1  0  0  0  0  0999 V2000
   29.5266  -18.4734  -20.9805 O   0  0  0  0  0  0  0  0  0  0  0  0
   28.6575  -18.9923  -20.0422 C   0  0  0  0  0  0  0  0  0  0  0  0
   28.6390  -18.5014  -18.7730 C   0  0  0  0  0  0  0  0  0  0  0  0
   27.7721  -19.0207  -17.8409 C   0  0  0  0  0  0  0  0  0  0  0  0
   26.9075  -20.0402  -18.1600 C   0  0  0  0  0  0  0  0  0  0  0  0
   25.9695  -20.6045  -17.1583 C   0  0  0  0  0  0  0  0  0  0  0  0
   26.6924  -21.5001  -16.1658 C   0  0  2  0  0  0  0  0  0  0  0  0
   27.0393  -22.7098  -16.8445 N   0  0  0  0  0  0  0  0  0  0  0  0
   25.7780  -21.7106  -15.0234 C   0  0  0  0  0  0  0  0  0  0  0  0
   24.8431  -22.5380  -15.1208 O   0  0  0  0  0  0  0  0  0  0  0  0
   26.9484  -20.5176  -19.4528 C   0  0  0  0  0  0  0  0  0  0  0  0
   27.8074  -20.0058  -20.3832 C   0  0  0  0  0  0  0  0  0  0  0  0
   25.2592  -21.1680   -8.8055 C   0  0  0  0  0  0  0  0  0  0  0  0
   24.6118  -21.3557  -10.1625 C   0  0  0  0  0  0  0  0  0  0  0  0
   25.5354  -21.0892  -11.3054 C   0  0  2  0  0  0  0  0  0  0  0  0
   26.3511  -19.8079  -11.0818 C   0  0  0  0  0  0  0  0  0  0  0  0
   25.0321  -21.2294  -12.6647 C   0  0  2  0  0  0  0  0  0  0  0  0
   25.8533  -21.0512  -13.7900 N   0  0  0  0  0  0  0  0  0  0  0  0
   23.7069  -20.5470  -12.8045 C   0  0  0  0  0  0  0  0  0  0  0  0
   23.6306  -19.2944  -12.9679 O   0  0  0  0  0  0  0  0  0  0  0  0
   22.4801  -21.2477  -12.7606 N   0  0  0  0  0  0  0  0  0  0  0  0
   21.2129  -20.5787  -12.9598 C   0  0  1  0  0  0  0  0  0  0  0  0
   20.2809  -21.4824  -13.7317 C   0  0  0  0  0  0  0  0  0  0  0  0
   18.9688  -20.8633  -14.0790 C   0  0  0  0  0  0  0  0  0  0  0  0
   18.1104  -21.7827  -14.9162 C   0  0  0  0  0  0  0  0  0  0  0  0
   16.8629  -21.1277  -15.4236 C   0  0  0  0  0  0  0  0  0  0  0  0
   16.0467  -22.0991  -16.1503 N   0  0  0  0  0  0  0  0  0  0  0  0
   20.5538  -20.3389  -11.6101 C   0  0  0  0  0  0  0  0  0  0  0  0
   19.7371  -19.2461  -11.3981 O   0  0  0  0  0  0  0  0  0  0  0  0
   20.7509  -21.1428  -10.6698 O   0  0  0  0  0  0  0  0  0  0  0  0
  2  1  1  0
  3  2  2  0
  4  3  1  0
  5 11  1  0
  5  4  2  0
  6  5  1  0
  7  6  1  0
  7  8  1  6
  9 10  2  0
  9  7  1  0
 11 12  2  0
 12  2  1  0
 14 13  1  0
 15 17  1  0
 15 14  1  0
 15 16  1  1
 17 18  1  6
 18  9  1  0
 19 17  1  0
 20 19  2  0
 21 19  1  0
 22 21  1  0
 22 23  1  6
 23 24  1  0
 24 25  1  0
 25 26  1  0
 27 26  1  0
 28 29  1  0
 28 22  1  0
 30 28  2  0
M  END
$$$$
