YIK.pdb
     RDKit          3D

 30 30  0  0  1  0  0  0  0  0999 V2000
   27.9551  -19.1031   -4.8465 O   0  0  0  0  0  0  0  0  0  0  0  0
   27.6430  -19.5942   -6.0981 C   0  0  0  0  0  0  0  0  0  0  0  0
   26.5916  -20.4424   -6.2640 C   0  0  0  0  0  0  0  0  0  0  0  0
   26.2835  -20.9296   -7.5120 C   0  0  0  0  0  0  0  0  0  0  0  0
   27.0204  -20.5782   -8.6176 C   0  0  0  0  0  0  0  0  0  0  0  0
   26.6926  -21.1007   -9.9671 C   0  0  0  0  0  0  0  0  0  0  0  0
   25.6819  -20.2126  -10.6741 C   0  0  2  0  0  0  0  0  0  0  0  0
   24.3844  -20.5499  -10.1770 N   0  0  0  0  0  0  0  0  0  0  0  0
   25.8337  -20.4504  -12.1252 C   0  0  0  0  0  0  0  0  0  0  0  0
   24.9808  -21.1357  -12.7345 O   0  0  0  0  0  0  0  0  0  0  0  0
   28.0793  -19.7177   -8.4196 C   0  0  0  0  0  0  0  0  0  0  0  0
   28.3903  -19.2304   -7.1821 C   0  0  0  0  0  0  0  0  0  0  0  0
   26.9138  -16.1221  -15.2945 C   0  0  0  0  0  0  0  0  0  0  0  0
   26.3885  -17.3995  -14.6716 C   0  0  0  0  0  0  0  0  0  0  0  0
   27.2098  -18.6033  -14.9982 C   0  0  2  0  0  0  0  0  0  0  0  0
   27.4106  -18.7526  -16.5129 C   0  0  0  0  0  0  0  0  0  0  0  0
   26.9167  -19.8597  -14.3229 C   0  0  2  0  0  0  0  0  0  0  0  0
   26.8785  -19.9670  -12.9230 N   0  0  0  0  0  0  0  0  0  0  0  0
   27.6637  -20.9860  -14.9669 C   0  0  0  0  0  0  0  0  0  0  0  0
   28.9093  -21.1280  -14.7935 O   0  0  0  0  0  0  0  0  0  0  0  0
   27.0349  -21.9423  -15.7963 N   0  0  0  0  0  0  0  0  0  0  0  0
   27.7535  -23.0796  -16.3286 C   0  0  1  0  0  0  0  0  0  0  0  0
   26.9078  -24.3228  -16.1862 C   0  0  0  0  0  0  0  0  0  0  0  0
   27.5552  -25.5699  -16.6870 C   0  0  0  0  0  0  0  0  0  0  0  0
   26.6672  -26.7801  -16.5145 C   0  0  0  0  0  0  0  0  0  0  0  0
   27.3237  -28.0597  -16.9322 C   0  0  0  0  0  0  0  0  0  0  0  0
   26.5046  -29.1999  -16.5239 N   0  0  0  0  0  0  0  0  0  0  0  0
   27.9730  -22.8816  -17.8206 C   0  0  0  0  0  0  0  0  0  0  0  0
   29.0451  -23.4624  -18.4682 O   0  0  0  0  0  0  0  0  0  0  0  0
   27.1709  -22.1805  -18.4798 O   0  0  0  0  0  0  0  0  0  0  0  0
  2  1  1  0
  3  2  2  0
  4  3  1  0
  5 11  1  0
  5  4  2  0
  6  5  1  0
  7  6  1  0
  7  8  1  1
  9 10  2  0
  9  7  1  0
 11 12  2  0
 12  2  1  0
 14 13  1  0
 15 17  1  0
 15 14  1  0
 15 16  1  6
 17 18  1  1
 18  9  1  0
 19 17  1  0
 20 19  2  0
 21 19  1  0
 22 21  1  0
 22 23  1  6
 23 24  1  0
 24 25  1  0
 25 26  1  0
 27 26  1  0
 28 29  1  0
 28 22  1  0
 30 28  2  0
M  END
$$$$
