YIK.pdb
     RDKit          3D

 30 30  0  0  1  0  0  0  0  0999 V2000
   29.6391  -16.7580  -18.7145 O   0  0  0  0  0  0  0  0  0  0  0  0
   28.8802  -17.4394  -17.7847 C   0  0  0  0  0  0  0  0  0  0  0  0
   28.2377  -18.5892  -18.1274 C   0  0  0  0  0  0  0  0  0  0  0  0
   27.4826  -19.2654  -17.1987 C   0  0  0  0  0  0  0  0  0  0  0  0
   27.3555  -18.8049  -15.9100 C   0  0  0  0  0  0  0  0  0  0  0  0
   26.5421  -19.5304  -14.9032 C   0  0  0  0  0  0  0  0  0  0  0  0
   27.4170  -20.3626  -13.9802 C   0  0  2  0  0  0  0  0  0  0  0  0
   28.0246  -21.3902  -14.7669 N   0  0  0  0  0  0  0  0  0  0  0  0
   26.5443  -20.8847  -12.9072 C   0  0  0  0  0  0  0  0  0  0  0  0
   25.9492  -21.9750  -13.0664 O   0  0  0  0  0  0  0  0  0  0  0  0
   28.0172  -17.6381  -15.5913 C   0  0  0  0  0  0  0  0  0  0  0  0
   28.7689  -16.9619  -16.5096 C   0  0  0  0  0  0  0  0  0  0  0  0
   27.4124  -20.0776   -7.4473 C   0  0  0  0  0  0  0  0  0  0  0  0
   27.0664  -20.7822   -8.7433 C   0  0  0  0  0  0  0  0  0  0  0  0
   25.7020  -20.4542   -9.2540 C   0  0  2  0  0  0  0  0  0  0  0  0
   24.6082  -20.9936   -8.3214 C   0  0  0  0  0  0  0  0  0  0  0  0
   25.4126  -20.6533  -10.6672 C   0  0  2  0  0  0  0  0  0  0  0  0
   26.3044  -20.2581  -11.6777 N   0  0  0  0  0  0  0  0  0  0  0  0
   23.9958  -20.2756  -10.9690 C   0  0  0  0  0  0  0  0  0  0  0  0
   23.6221  -19.0667  -10.9451 O   0  0  0  0  0  0  0  0  0  0  0  0
   23.0043  -21.2302  -11.2912 N   0  0  0  0  0  0  0  0  0  0  0  0
   21.7390  -20.8462  -11.8782 C   0  0  1  0  0  0  0  0  0  0  0  0
   21.5546  -21.5639  -13.1943 C   0  0  0  0  0  0  0  0  0  0  0  0
   20.2690  -21.2603  -13.8875 C   0  0  0  0  0  0  0  0  0  0  0  0
   20.1563  -21.9742  -15.2143 C   0  0  0  0  0  0  0  0  0  0  0  0
   18.8788  -21.6792  -15.9380 C   0  0  0  0  0  0  0  0  0  0  0  0
   18.8556  -22.3810  -17.2205 N   0  0  0  0  0  0  0  0  0  0  0  0
   20.6054  -21.3107  -10.9765 C   0  0  0  0  0  0  0  0  0  0  0  0
   20.8485  -22.1121   -9.8788 O   0  0  0  0  0  0  0  0  0  0  0  0
   19.4282  -20.9641  -11.2282 O   0  0  0  0  0  0  0  0  0  0  0  0
  2  1  1  0
  3  2  2  0
  4  3  1  0
  5 11  1  0
  5  4  2  0
  6  5  1  0
  7  6  1  0
  7  8  1  6
  9 10  2  0
  9  7  1  0
 11 12  2  0
 12  2  1  0
 14 13  1  0
 15 17  1  0
 15 14  1  0
 15 16  1  1
 17 18  1  6
 18  9  1  0
 19 17  1  0
 20 19  2  0
 21 19  1  0
 22 21  1  0
 22 23  1  6
 23 24  1  0
 24 25  1  0
 25 26  1  0
 27 26  1  0
 28 29  1  0
 28 22  1  0
 30 28  2  0
M  END
$$$$
