YIK.pdb
     RDKit          3D

 30 30  0  0  1  0  0  0  0  0999 V2000
   16.9695  -11.6848  -24.7119 O   0  0  0  0  0  0  0  0  0  0  0  0
   17.2898  -11.2948  -23.4273 C   0  0  0  0  0  0  0  0  0  0  0  0
   16.3819  -11.4214  -22.4212 C   0  0  0  0  0  0  0  0  0  0  0  0
   16.7042  -11.0320  -21.1428 C   0  0  0  0  0  0  0  0  0  0  0  0
   17.9399  -10.5088  -20.8460 C   0  0  0  0  0  0  0  0  0  0  0  0
   18.2936  -10.0870  -19.4681 C   0  0  0  0  0  0  0  0  0  0  0  0
   19.0233  -11.1913  -18.7211 C   0  0  2  0  0  0  0  0  0  0  0  0
   18.0881  -12.2464  -18.4834 N   0  0  0  0  0  0  0  0  0  0  0  0
   19.5620  -10.5950  -17.4803 C   0  0  0  0  0  0  0  0  0  0  0  0
   18.8913  -10.6481  -16.4240 O   0  0  0  0  0  0  0  0  0  0  0  0
   18.8392  -10.3923  -21.8846 C   0  0  0  0  0  0  0  0  0  0  0  0
   18.5248  -10.7775  -23.1567 C   0  0  0  0  0  0  0  0  0  0  0  0
   24.2010  -10.3184  -13.6861 C   0  0  0  0  0  0  0  0  0  0  0  0
   23.0817   -9.4998  -14.2969 C   0  0  0  0  0  0  0  0  0  0  0  0
   22.4599  -10.1404  -15.4941 C   0  0  2  0  0  0  0  0  0  0  0  0
   23.5227  -10.7347  -16.4291 C   0  0  0  0  0  0  0  0  0  0  0  0
   21.3950   -9.4371  -16.1954 C   0  0  2  0  0  0  0  0  0  0  0  0
   20.7988   -9.9490  -17.3595 N   0  0  0  0  0  0  0  0  0  0  0  0
   21.7156   -7.9790  -16.3056 C   0  0  0  0  0  0  0  0  0  0  0  0
   22.5636   -7.5576  -17.1452 O   0  0  0  0  0  0  0  0  0  0  0  0
   21.1031   -6.9999  -15.4905 N   0  0  0  0  0  0  0  0  0  0  0  0
   21.4088   -5.5927  -15.6295 C   0  0  1  0  0  0  0  0  0  0  0  0
   20.1244   -4.8000  -15.6838 C   0  0  0  0  0  0  0  0  0  0  0  0
   20.3136   -3.3208  -15.7227 C   0  0  0  0  0  0  0  0  0  0  0  0
   18.9982   -2.5784  -15.6870 C   0  0  0  0  0  0  0  0  0  0  0  0
   19.1540   -1.0934  -15.8020 C   0  0  0  0  0  0  0  0  0  0  0  0
   17.8428   -0.4474  -15.7651 N   0  0  0  0  0  0  0  0  0  0  0  0
   22.1526   -5.1155  -14.3915 C   0  0  0  0  0  0  0  0  0  0  0  0
   21.8935   -5.6587  -13.1489 O   0  0  0  0  0  0  0  0  0  0  0  0
   23.0167   -4.2143  -14.4935 O   0  0  0  0  0  0  0  0  0  0  0  0
  2  1  1  0
  3  2  2  0
  4  3  1  0
  5 11  1  0
  5  4  2  0
  6  5  1  0
  7  6  1  0
  7  8  1  1
  9 10  2  0
  9  7  1  0
 11 12  2  0
 12  2  1  0
 14 13  1  0
 15 17  1  0
 15 14  1  0
 15 16  1  6
 17 18  1  6
 18  9  1  0
 19 17  1  0
 20 19  2  0
 21 19  1  0
 22 21  1  0
 22 23  1  1
 23 24  1  0
 24 25  1  0
 25 26  1  0
 27 26  1  0
 28 29  1  0
 28 22  1  0
 30 28  2  0
M  END
$$$$
