DYP.pdb
     RDKit          3D

 28 29  0  0  1  0  0  0  0  0999 V2000
    6.2105  -18.8680   26.0457 N   0  0  0  0  0  0  0  0  0  0  0  0
    7.0928  -18.7013   24.9371 C   0  0  1  0  0  0  0  0  0  0  0  0
    7.0069  -19.7899   23.9209 C   0  0  0  0  0  0  0  0  0  0  0  0
    7.8302  -20.9749   24.1930 C   0  0  0  0  0  0  0  0  0  0  0  0
    7.3200  -22.0193   24.6674 O   0  0  0  0  0  0  0  0  0  0  0  0
    6.9908  -17.3887   24.2647 C   0  0  0  0  0  0  0  0  0  0  0  0
    5.8589  -16.9626   23.9192 O   0  0  0  0  0  0  0  0  0  0  0  0
    9.1888  -20.9546   23.9265 O   0  0  0  0  0  0  0  0  0  0  0  0
    5.7623  -12.1748   28.1871 O   0  0  0  0  0  0  0  0  0  0  0  0
    6.4915  -12.6706   27.1105 C   0  0  0  0  0  0  0  0  0  0  0  0
    6.0289  -12.4930   25.8287 C   0  0  0  0  0  0  0  0  0  0  0  0
    6.7613  -12.9908   24.7529 C   0  0  0  0  0  0  0  0  0  0  0  0
    7.9364  -13.6541   24.9689 C   0  0  0  0  0  0  0  0  0  0  0  0
    8.7076  -14.1797   23.8315 C   0  0  0  0  0  0  0  0  0  0  0  0
    7.9708  -15.3603   23.1576 C   0  0  2  0  0  0  0  0  0  0  0  0
    8.1007  -16.5414   23.9660 N   0  0  0  0  0  0  0  0  0  0  0  0
    8.3534  -15.4629   21.7538 C   0  0  0  0  0  0  0  0  0  0  0  0
    9.0967  -16.4723   21.4360 O   0  0  0  0  0  0  0  0  0  0  0  0
    8.3926  -13.8283   26.2483 C   0  0  0  0  0  0  0  0  0  0  0  0
    7.6680  -13.3338   27.3379 C   0  0  0  0  0  0  0  0  0  0  0  0
    8.0261  -14.6111   20.6757 N   0  0  0  0  0  0  0  0  0  0  0  0
    7.1209  -13.5053   20.7171 C   0  0  0  0  0  0  0  0  0  0  0  0
    7.7572  -12.4929   19.7521 C   0  0  0  0  0  0  0  0  0  0  0  0
    8.0846  -13.4581   18.6059 C   0  0  0  0  0  0  0  0  0  0  0  0
    8.5578  -14.6963   19.3178 C   0  0  1  0  0  0  0  0  0  0  0  0
   10.0402  -14.6507   19.3158 C   0  0  0  0  0  0  0  0  0  0  0  0
   10.5937  -14.1761   20.3400 O   0  0  0  0  0  0  0  0  0  0  0  0
   10.8349  -15.0838   18.2895 O   0  0  0  0  0  0  0  0  0  0  0  0
  2  1  1  1
  2  3  1  0
  3  4  1  0
  4  8  1  0
  5  4  2  0
  6  2  1  0
  7  6  2  0
  9 10  1  0
 10 11  2  0
 10 20  1  0
 11 12  1  0
 12 13  2  0
 13 14  1  0
 15 14  1  1
 15 16  1  0
 15 17  1  0
 16  6  1  0
 17 18  2  0
 19 13  1  0
 20 19  2  0
 21 17  1  0
 21 25  1  0
 22 23  1  0
 22 21  1  0
 23 24  1  0
 24 25  1  0
 25 26  1  1
 26 28  1  0
 27 26  2  0
M  END
$$$$
