DYP.pdb
     RDKit          3D

 28 29  0  0  1  0  0  0  0  0999 V2000
    7.0362  -19.4312   25.8552 N   0  0  0  0  0  0  0  0  0  0  0  0
    6.7183  -19.3651   24.4660 C   0  0  1  0  0  0  0  0  0  0  0  0
    5.5739  -20.2318   24.0609 C   0  0  0  0  0  0  0  0  0  0  0  0
    5.6727  -21.6396   24.4664 C   0  0  0  0  0  0  0  0  0  0  0  0
    6.6755  -22.0612   25.0931 O   0  0  0  0  0  0  0  0  0  0  0  0
    6.5079  -17.9959   23.9501 C   0  0  0  0  0  0  0  0  0  0  0  0
    5.8456  -17.8335   22.8931 O   0  0  0  0  0  0  0  0  0  0  0  0
    4.6529  -22.5250   24.1610 O   0  0  0  0  0  0  0  0  0  0  0  0
   10.9547  -15.3324   28.8914 O   0  0  0  0  0  0  0  0  0  0  0  0
    9.9991  -15.1010   27.9064 C   0  0  0  0  0  0  0  0  0  0  0  0
    9.9843  -13.9032   27.2329 C   0  0  0  0  0  0  0  0  0  0  0  0
    9.0262  -13.6746   26.2474 C   0  0  0  0  0  0  0  0  0  0  0  0
    8.1027  -14.6369   25.9494 C   0  0  0  0  0  0  0  0  0  0  0  0
    7.0913  -14.3931   24.9091 C   0  0  0  0  0  0  0  0  0  0  0  0
    7.0601  -15.5482   23.8818 C   0  0  2  0  0  0  0  0  0  0  0  0
    7.0082  -16.8099   24.5681 N   0  0  0  0  0  0  0  0  0  0  0  0
    8.1097  -15.3696   22.8848 C   0  0  0  0  0  0  0  0  0  0  0  0
    9.1983  -16.0413   23.0740 O   0  0  0  0  0  0  0  0  0  0  0  0
    8.1221  -15.8286   26.6239 C   0  0  0  0  0  0  0  0  0  0  0  0
    9.0782  -16.0721   27.6155 C   0  0  0  0  0  0  0  0  0  0  0  0
    8.1114  -14.5609   21.7267 N   0  0  0  0  0  0  0  0  0  0  0  0
    7.1489  -13.5570   21.3957 C   0  0  0  0  0  0  0  0  0  0  0  0
    7.9883  -12.4863   20.6815 C   0  0  0  0  0  0  0  0  0  0  0  0
    8.7991  -13.4154   19.7693 C   0  0  0  0  0  0  0  0  0  0  0  0
    9.1023  -14.5940   20.6539 C   0  0  1  0  0  0  0  0  0  0  0  0
   10.4737  -14.3919   21.1807 C   0  0  0  0  0  0  0  0  0  0  0  0
   10.5709  -13.9822   22.3653 O   0  0  0  0  0  0  0  0  0  0  0  0
   11.6241  -14.6177   20.4750 O   0  0  0  0  0  0  0  0  0  0  0  0
  2  1  1  1
  2  3  1  0
  3  4  1  0
  4  8  1  0
  5  4  2  0
  6  2  1  0
  7  6  2  0
  9 10  1  0
 10 11  2  0
 10 20  1  0
 11 12  1  0
 12 13  2  0
 13 14  1  0
 15 14  1  1
 15 16  1  0
 15 17  1  0
 16  6  1  0
 17 18  2  0
 19 13  1  0
 20 19  2  0
 21 17  1  0
 21 25  1  0
 22 23  1  0
 22 21  1  0
 23 24  1  0
 24 25  1  0
 25 26  1  1
 26 28  1  0
 27 26  2  0
M  END
$$$$
