DYP.pdb
     RDKit          3D

 28 29  0  0  1  0  0  0  0  0999 V2000
   10.3367  -17.9555   20.5864 N   0  0  0  0  0  0  0  0  0  0  0  0
   11.3167  -17.1060   21.1807 C   0  0  1  0  0  0  0  0  0  0  0  0
   12.0414  -16.2382   20.2078 C   0  0  0  0  0  0  0  0  0  0  0  0
   12.6690  -16.9395   19.0806 C   0  0  0  0  0  0  0  0  0  0  0  0
   13.5233  -17.8384   19.2757 O   0  0  0  0  0  0  0  0  0  0  0  0
   10.8148  -16.2811   22.3001 C   0  0  0  0  0  0  0  0  0  0  0  0
   11.5396  -15.3599   22.7566 O   0  0  0  0  0  0  0  0  0  0  0  0
   12.3225  -16.6158   17.7797 O   0  0  0  0  0  0  0  0  0  0  0  0
    5.9992  -11.4458   27.6082 O   0  0  0  0  0  0  0  0  0  0  0  0
    6.3952  -12.4574   26.7382 C   0  0  0  0  0  0  0  0  0  0  0  0
    6.0116  -13.7554   26.9757 C   0  0  0  0  0  0  0  0  0  0  0  0
    6.4098  -14.7660   26.1028 C   0  0  0  0  0  0  0  0  0  0  0  0
    7.1796  -14.4699   25.0132 C   0  0  0  0  0  0  0  0  0  0  0  0
    7.5997  -15.5386   24.0934 C   0  0  0  0  0  0  0  0  0  0  0  0
    9.1394  -15.6788   24.0694 C   0  0  2  0  0  0  0  0  0  0  0  0
    9.5413  -16.4479   22.9239 N   0  0  0  0  0  0  0  0  0  0  0  0
    9.6303  -16.1109   25.3732 C   0  0  0  0  0  0  0  0  0  0  0  0
    9.6842  -17.3879   25.5694 O   0  0  0  0  0  0  0  0  0  0  0  0
    7.5590  -13.1746   24.7815 C   0  0  0  0  0  0  0  0  0  0  0  0
    7.1665  -12.1499   25.6491 C   0  0  0  0  0  0  0  0  0  0  0  0
   10.0625  -15.3291   26.4673 N   0  0  0  0  0  0  0  0  0  0  0  0
    9.8986  -13.9164   26.6135 C   0  0  0  0  0  0  0  0  0  0  0  0
    9.6790  -13.7418   28.1243 C   0  0  0  0  0  0  0  0  0  0  0  0
   10.8033  -14.6614   28.6173 C   0  0  0  0  0  0  0  0  0  0  0  0
   10.7513  -15.8197   27.6584 C   0  0  1  0  0  0  0  0  0  0  0  0
    9.9754  -16.8929   28.3258 C   0  0  0  0  0  0  0  0  0  0  0  0
    8.7943  -17.0668   27.9318 O   0  0  0  0  0  0  0  0  0  0  0  0
   10.4511  -17.6952   29.3271 O   0  0  0  0  0  0  0  0  0  0  0  0
  2  1  1  6
  2  3  1  0
  3  4  1  0
  4  8  1  0
  5  4  2  0
  6  2  1  0
  7  6  2  0
  9 10  1  0
 10 11  2  0
 10 20  1  0
 11 12  1  0
 12 13  2  0
 13 14  1  0
 15 14  1  1
 15 16  1  0
 15 17  1  0
 16  6  1  0
 17 18  2  0
 19 13  1  0
 20 19  2  0
 21 17  1  0
 21 25  1  0
 22 23  1  0
 22 21  1  0
 23 24  1  0
 24 25  1  0
 25 26  1  1
 26 28  1  0
 27 26  2  0
M  END
$$$$
