DYP.pdb
     RDKit          3D

 28 29  0  0  1  0  0  0  0  0999 V2000
    6.4759  -18.9347   25.6804 N   0  0  0  0  0  0  0  0  0  0  0  0
    6.5751  -18.8279   24.2613 C   0  0  1  0  0  0  0  0  0  0  0  0
    5.4810  -19.5198   23.5202 C   0  0  0  0  0  0  0  0  0  0  0  0
    5.4399  -20.9797   23.6717 C   0  0  0  0  0  0  0  0  0  0  0  0
    4.6534  -21.5215   24.4866 O   0  0  0  0  0  0  0  0  0  0  0  0
    6.7138  -17.4444   23.7591 C   0  0  0  0  0  0  0  0  0  0  0  0
    5.7122  -16.8691   23.2609 O   0  0  0  0  0  0  0  0  0  0  0  0
    6.2736  -21.7820   22.9112 O   0  0  0  0  0  0  0  0  0  0  0  0
    5.8465  -11.8369   27.8376 O   0  0  0  0  0  0  0  0  0  0  0  0
    6.6096  -12.4879   26.8728 C   0  0  0  0  0  0  0  0  0  0  0  0
    7.8705  -12.9371   27.1837 C   0  0  0  0  0  0  0  0  0  0  0  0
    8.6320  -13.5885   26.2155 C   0  0  0  0  0  0  0  0  0  0  0  0
    8.1289  -13.7812   24.9595 C   0  0  0  0  0  0  0  0  0  0  0  0
    8.9350  -14.4683   23.9384 C   0  0  0  0  0  0  0  0  0  0  0  0
    8.0659  -15.4347   23.1009 C   0  0  2  0  0  0  0  0  0  0  0  0
    7.9233  -16.6863   23.7927 N   0  0  0  0  0  0  0  0  0  0  0  0
    8.5415  -15.4805   21.7227 C   0  0  0  0  0  0  0  0  0  0  0  0
    9.3684  -16.4320   21.4345 O   0  0  0  0  0  0  0  0  0  0  0  0
    6.8717  -13.3313   24.6552 C   0  0  0  0  0  0  0  0  0  0  0  0
    6.0959  -12.6760   25.6173 C   0  0  0  0  0  0  0  0  0  0  0  0
    8.2265  -14.6276   20.6418 N   0  0  0  0  0  0  0  0  0  0  0  0
    7.2253  -13.6071   20.6346 C   0  0  0  0  0  0  0  0  0  0  0  0
    7.8434  -12.5135   19.7498 C   0  0  0  0  0  0  0  0  0  0  0  0
    8.3472  -13.4103   18.6119 C   0  0  0  0  0  0  0  0  0  0  0  0
    8.8710  -14.6237   19.3309 C   0  0  1  0  0  0  0  0  0  0  0  0
   10.3386  -14.4484   19.4525 C   0  0  0  0  0  0  0  0  0  0  0  0
   10.7637  -13.9639   20.5319 O   0  0  0  0  0  0  0  0  0  0  0  0
   11.2484  -14.7735   18.4834 O   0  0  0  0  0  0  0  0  0  0  0  0
  2  1  1  1
  2  3  1  0
  3  4  1  0
  4  8  1  0
  5  4  2  0
  6  2  1  0
  7  6  2  0
  9 10  1  0
 10 11  2  0
 10 20  1  0
 11 12  1  0
 12 13  2  0
 13 14  1  0
 15 14  1  1
 15 16  1  0
 15 17  1  0
 16  6  1  0
 17 18  2  0
 19 13  1  0
 20 19  2  0
 21 17  1  0
 21 25  1  0
 22 23  1  0
 22 21  1  0
 23 24  1  0
 24 25  1  0
 25 26  1  1
 26 28  1  0
 27 26  2  0
M  END
$$$$
