DYP.pdb
     RDKit          3D

 28 29  0  0  1  0  0  0  0  0999 V2000
   11.3491  -16.9935   20.1658 N   0  0  0  0  0  0  0  0  0  0  0  0
   11.7212  -17.2153   21.5250 C   0  0  1  0  0  0  0  0  0  0  0  0
   13.1926  -17.3248   21.7438 C   0  0  0  0  0  0  0  0  0  0  0  0
   13.8582  -18.4206   21.0280 C   0  0  0  0  0  0  0  0  0  0  0  0
   13.2345  -19.4683   20.7293 O   0  0  0  0  0  0  0  0  0  0  0  0
   11.1503  -16.2447   22.4828 C   0  0  0  0  0  0  0  0  0  0  0  0
   11.7098  -15.1281   22.6320 O   0  0  0  0  0  0  0  0  0  0  0  0
   15.1913  -18.3097   20.6703 O   0  0  0  0  0  0  0  0  0  0  0  0
    7.0400  -12.9336   19.0492 O   0  0  0  0  0  0  0  0  0  0  0  0
    7.2839  -13.5083   20.2930 C   0  0  0  0  0  0  0  0  0  0  0  0
    7.8921  -12.7722   21.2814 C   0  0  0  0  0  0  0  0  0  0  0  0
    8.1350  -13.3505   22.5256 C   0  0  0  0  0  0  0  0  0  0  0  0
    7.7706  -14.6457   22.7650 C   0  0  0  0  0  0  0  0  0  0  0  0
    8.0289  -15.2547   24.0793 C   0  0  0  0  0  0  0  0  0  0  0  0
    9.5356  -15.5435   24.2722 C   0  0  2  0  0  0  0  0  0  0  0  0
    9.9850  -16.4758   23.2750 N   0  0  0  0  0  0  0  0  0  0  0  0
    9.8164  -15.8659   25.6668 C   0  0  0  0  0  0  0  0  0  0  0  0
    9.7998  -17.1209   25.9781 O   0  0  0  0  0  0  0  0  0  0  0  0
    7.1650  -15.3746   21.7765 C   0  0  0  0  0  0  0  0  0  0  0  0
    6.9147  -14.8070   20.5226 C   0  0  0  0  0  0  0  0  0  0  0  0
   10.1088  -14.9972   26.7415 N   0  0  0  0  0  0  0  0  0  0  0  0
    9.9220  -13.5799   26.7572 C   0  0  0  0  0  0  0  0  0  0  0  0
    9.5195  -13.2939   28.2123 C   0  0  0  0  0  0  0  0  0  0  0  0
   10.5795  -14.1577   28.9072 C   0  0  0  0  0  0  0  0  0  0  0  0
   10.6497  -15.3862   28.0414 C   0  0  1  0  0  0  0  0  0  0  0  0
    9.8032  -16.4162   28.6910 C   0  0  0  0  0  0  0  0  0  0  0  0
   10.2843  -16.9905   29.7005 O   0  0  0  0  0  0  0  0  0  0  0  0
    8.5520  -16.7787   28.2719 O   0  0  0  0  0  0  0  0  0  0  0  0
  2  1  1  6
  2  3  1  0
  3  4  1  0
  4  8  1  0
  5  4  2  0
  6  2  1  0
  7  6  2  0
  9 10  1  0
 10 11  2  0
 10 20  1  0
 11 12  1  0
 12 13  2  0
 13 14  1  0
 15 14  1  1
 15 16  1  0
 15 17  1  0
 16  6  1  0
 17 18  2  0
 19 13  1  0
 20 19  2  0
 21 17  1  0
 21 25  1  0
 22 23  1  0
 22 21  1  0
 23 24  1  0
 24 25  1  0
 25 26  1  1
 26 28  1  0
 27 26  2  0
M  END
$$$$
