DYP.pdb
     RDKit          3D

 28 29  0  0  1  0  0  0  0  0999 V2000
   10.6545  -18.3206   20.8456 N   0  0  0  0  0  0  0  0  0  0  0  0
   11.6138  -17.4288   21.4110 C   0  0  1  0  0  0  0  0  0  0  0  0
   12.4183  -16.6800   20.4026 C   0  0  0  0  0  0  0  0  0  0  0  0
   12.9144  -17.4758   19.2726 C   0  0  0  0  0  0  0  0  0  0  0  0
   13.6475  -18.4773   19.4620 O   0  0  0  0  0  0  0  0  0  0  0  0
   11.0606  -16.4825   22.4030 C   0  0  0  0  0  0  0  0  0  0  0  0
   11.7900  -15.5555   22.8399 O   0  0  0  0  0  0  0  0  0  0  0  0
   12.5762  -17.1290   17.9755 O   0  0  0  0  0  0  0  0  0  0  0  0
    5.8803  -11.5462   27.4311 O   0  0  0  0  0  0  0  0  0  0  0  0
    6.3462  -12.4791   26.5095 C   0  0  0  0  0  0  0  0  0  0  0  0
    7.0540  -12.0611   25.4082 C   0  0  0  0  0  0  0  0  0  0  0  0
    7.5190  -12.9977   24.4873 C   0  0  0  0  0  0  0  0  0  0  0  0
    7.2732  -14.3287   24.6762 C   0  0  0  0  0  0  0  0  0  0  0  0
    7.7643  -15.3159   23.7020 C   0  0  0  0  0  0  0  0  0  0  0  0
    9.2622  -15.6246   23.9295 C   0  0  2  0  0  0  0  0  0  0  0  0
    9.7311  -16.5350   22.9212 N   0  0  0  0  0  0  0  0  0  0  0  0
    9.5004  -15.9858   25.3225 C   0  0  0  0  0  0  0  0  0  0  0  0
    9.2248  -17.2055   25.6520 O   0  0  0  0  0  0  0  0  0  0  0  0
    6.5673  -14.7396   25.7753 C   0  0  0  0  0  0  0  0  0  0  0  0
    6.0946  -13.8106   26.7083 C   0  0  0  0  0  0  0  0  0  0  0  0
    9.9955  -15.1889   26.3783 N   0  0  0  0  0  0  0  0  0  0  0  0
   10.0413  -13.7604   26.4091 C   0  0  0  0  0  0  0  0  0  0  0  0
    9.7817  -13.4314   27.8874 C   0  0  0  0  0  0  0  0  0  0  0  0
   10.7297  -14.4631   28.5116 C   0  0  0  0  0  0  0  0  0  0  0  0
   10.5466  -15.6760   27.6404 C   0  0  1  0  0  0  0  0  0  0  0  0
    9.5872  -16.5644   28.3402 C   0  0  0  0  0  0  0  0  0  0  0  0
    9.9936  -17.1205   29.3918 O   0  0  0  0  0  0  0  0  0  0  0  0
    8.3080  -16.8162   27.9246 O   0  0  0  0  0  0  0  0  0  0  0  0
  2  1  1  6
  2  3  1  0
  3  4  1  0
  4  8  1  0
  5  4  2  0
  6  2  1  0
  7  6  2  0
  9 10  1  0
 10 11  2  0
 10 20  1  0
 11 12  1  0
 12 13  2  0
 13 14  1  0
 15 14  1  1
 15 16  1  0
 15 17  1  0
 16  6  1  0
 17 18  2  0
 19 13  1  0
 20 19  2  0
 21 17  1  0
 21 25  1  0
 22 23  1  0
 22 21  1  0
 23 24  1  0
 24 25  1  0
 25 26  1  1
 26 28  1  0
 27 26  2  0
M  END
$$$$
