DYP.pdb
     RDKit          3D

 28 29  0  0  1  0  0  0  0  0999 V2000
   10.7871  -18.1435   20.8668 N   0  0  0  0  0  0  0  0  0  0  0  0
   11.7367  -17.2612   21.4627 C   0  0  1  0  0  0  0  0  0  0  0  0
   12.5458  -16.4832   20.4804 C   0  0  0  0  0  0  0  0  0  0  0  0
   13.3349  -17.2844   19.5361 C   0  0  0  0  0  0  0  0  0  0  0  0
   12.8500  -18.3102   18.9987 O   0  0  0  0  0  0  0  0  0  0  0  0
   11.1699  -16.3430   22.4731 C   0  0  0  0  0  0  0  0  0  0  0  0
   11.9092  -15.4648   22.9875 O   0  0  0  0  0  0  0  0  0  0  0  0
   14.6323  -16.9146   19.2244 O   0  0  0  0  0  0  0  0  0  0  0  0
    5.9934  -11.4264   27.4964 O   0  0  0  0  0  0  0  0  0  0  0  0
    6.4472  -12.3722   26.5820 C   0  0  0  0  0  0  0  0  0  0  0  0
    6.2988  -13.7119   26.8500 C   0  0  0  0  0  0  0  0  0  0  0  0
    6.7545  -14.6564   25.9325 C   0  0  0  0  0  0  0  0  0  0  0  0
    7.3476  -14.2545   24.7688 C   0  0  0  0  0  0  0  0  0  0  0  0
    7.8289  -15.2536   23.8018 C   0  0  0  0  0  0  0  0  0  0  0  0
    9.3412  -15.5196   23.9827 C   0  0  2  0  0  0  0  0  0  0  0  0
    9.8163  -16.3711   22.9269 N   0  0  0  0  0  0  0  0  0  0  0  0
    9.6243  -15.9295   25.3536 C   0  0  0  0  0  0  0  0  0  0  0  0
    9.3128  -17.1459   25.6627 O   0  0  0  0  0  0  0  0  0  0  0  0
    7.4931  -12.9182   24.5069 C   0  0  0  0  0  0  0  0  0  0  0  0
    7.0402  -11.9589   25.4187 C   0  0  0  0  0  0  0  0  0  0  0  0
   10.1975  -15.1834   26.4072 N   0  0  0  0  0  0  0  0  0  0  0  0
   10.3409  -13.7618   26.4554 C   0  0  0  0  0  0  0  0  0  0  0  0
   10.1396  -13.4378   27.9438 C   0  0  0  0  0  0  0  0  0  0  0  0
   11.0299  -14.5402   28.5309 C   0  0  0  0  0  0  0  0  0  0  0  0
   10.7442  -15.7251   27.6488 C   0  0  1  0  0  0  0  0  0  0  0  0
    9.7436  -16.5567   28.3605 C   0  0  0  0  0  0  0  0  0  0  0  0
    8.5627  -16.5133   27.9313 O   0  0  0  0  0  0  0  0  0  0  0  0
   10.0146  -17.3566   29.4371 O   0  0  0  0  0  0  0  0  0  0  0  0
  2  1  1  6
  2  3  1  0
  3  4  1  0
  4  8  1  0
  5  4  2  0
  6  2  1  0
  7  6  2  0
  9 10  1  0
 10 11  2  0
 10 20  1  0
 11 12  1  0
 12 13  2  0
 13 14  1  0
 15 14  1  1
 15 16  1  0
 15 17  1  0
 16  6  1  0
 17 18  2  0
 19 13  1  0
 20 19  2  0
 21 17  1  0
 21 25  1  0
 22 23  1  0
 22 21  1  0
 23 24  1  0
 24 25  1  0
 25 26  1  1
 26 28  1  0
 27 26  2  0
M  END
$$$$
