DYP.pdb
     RDKit          3D

 28 29  0  0  1  0  0  0  0  0999 V2000
   12.2810  -16.8349   20.2414 N   0  0  0  0  0  0  0  0  0  0  0  0
   11.4575  -17.4192   21.2492 C   0  0  1  0  0  0  0  0  0  0  0  0
   12.0719  -18.5940   21.9328 C   0  0  0  0  0  0  0  0  0  0  0  0
   12.1960  -19.8073   21.1151 C   0  0  0  0  0  0  0  0  0  0  0  0
   12.6347  -19.7509   19.9402 O   0  0  0  0  0  0  0  0  0  0  0  0
   10.9572  -16.4648   22.2612 C   0  0  0  0  0  0  0  0  0  0  0  0
   11.7306  -15.5759   22.7016 O   0  0  0  0  0  0  0  0  0  0  0  0
   11.8290  -21.0372   21.6347 O   0  0  0  0  0  0  0  0  0  0  0  0
    6.1168  -11.1908   27.2454 O   0  0  0  0  0  0  0  0  0  0  0  0
    6.5216  -12.1570   26.3291 C   0  0  0  0  0  0  0  0  0  0  0  0
    6.2005  -13.4769   26.5371 C   0  0  0  0  0  0  0  0  0  0  0  0
    6.6074  -14.4418   25.6179 C   0  0  0  0  0  0  0  0  0  0  0  0
    7.3240  -14.0795   24.5121 C   0  0  0  0  0  0  0  0  0  0  0  0
    7.7535  -15.1001   23.5433 C   0  0  0  0  0  0  0  0  0  0  0  0
    9.2108  -15.5424   23.8104 C   0  0  2  0  0  0  0  0  0  0  0  0
    9.6331  -16.4684   22.7956 N   0  0  0  0  0  0  0  0  0  0  0  0
    9.3702  -15.9527   25.2010 C   0  0  0  0  0  0  0  0  0  0  0  0
    9.0186  -17.1646   25.4835 O   0  0  0  0  0  0  0  0  0  0  0  0
    7.6412  -12.7627   24.3099 C   0  0  0  0  0  0  0  0  0  0  0  0
    7.2392  -11.7832   25.2241 C   0  0  0  0  0  0  0  0  0  0  0  0
    9.8598  -15.2113   26.2990 N   0  0  0  0  0  0  0  0  0  0  0  0
    9.8542  -13.7874   26.4270 C   0  0  0  0  0  0  0  0  0  0  0  0
    9.6162  -13.5697   27.9294 C   0  0  0  0  0  0  0  0  0  0  0  0
   10.6150  -14.6049   28.4621 C   0  0  0  0  0  0  0  0  0  0  0  0
   10.4565  -15.7618   27.5134 C   0  0  1  0  0  0  0  0  0  0  0  0
    9.5460  -16.7313   28.1694 C   0  0  0  0  0  0  0  0  0  0  0  0
    8.3918  -16.8426   27.6836 O   0  0  0  0  0  0  0  0  0  0  0  0
    9.8722  -17.5018   29.2522 O   0  0  0  0  0  0  0  0  0  0  0  0
  2  1  1  1
  2  3  1  0
  3  4  1  0
  4  8  1  0
  5  4  2  0
  6  2  1  0
  7  6  2  0
  9 10  1  0
 10 11  2  0
 10 20  1  0
 11 12  1  0
 12 13  2  0
 13 14  1  0
 15 14  1  6
 15 16  1  0
 15 17  1  0
 16  6  1  0
 17 18  2  0
 19 13  1  0
 20 19  2  0
 21 17  1  0
 21 25  1  0
 22 23  1  0
 22 21  1  0
 23 24  1  0
 24 25  1  0
 25 26  1  1
 26 28  1  0
 27 26  2  0
M  END
$$$$
