DYP.pdb
     RDKit          3D

 28 29  0  0  1  0  0  0  0  0999 V2000
   12.3615  -16.7685   20.5193 N   0  0  0  0  0  0  0  0  0  0  0  0
   11.4203  -17.3791   21.4006 C   0  0  1  0  0  0  0  0  0  0  0  0
   11.8936  -18.6570   22.0071 C   0  0  0  0  0  0  0  0  0  0  0  0
   12.2783  -19.7050   21.0532 C   0  0  0  0  0  0  0  0  0  0  0  0
   11.8516  -19.6904   19.8726 O   0  0  0  0  0  0  0  0  0  0  0  0
   10.9081  -16.4879   22.4630 C   0  0  0  0  0  0  0  0  0  0  0  0
   11.6837  -15.6460   22.9844 O   0  0  0  0  0  0  0  0  0  0  0  0
   13.1233  -20.7286   21.4473 O   0  0  0  0  0  0  0  0  0  0  0  0
    5.7888  -11.4565   27.4623 O   0  0  0  0  0  0  0  0  0  0  0  0
    6.2432  -12.3899   26.5355 C   0  0  0  0  0  0  0  0  0  0  0  0
    6.0442  -13.7312   26.7587 C   0  0  0  0  0  0  0  0  0  0  0  0
    6.5006  -14.6633   25.8288 C   0  0  0  0  0  0  0  0  0  0  0  0
    7.1446  -14.2475   24.6975 C   0  0  0  0  0  0  0  0  0  0  0  0
    7.6265  -15.2334   23.7175 C   0  0  0  0  0  0  0  0  0  0  0  0
    9.1118  -15.5843   23.9655 C   0  0  2  0  0  0  0  0  0  0  0  0
    9.5699  -16.5043   22.9609 N   0  0  0  0  0  0  0  0  0  0  0  0
    9.3196  -15.9564   25.3605 C   0  0  0  0  0  0  0  0  0  0  0  0
    8.9456  -17.1479   25.6963 O   0  0  0  0  0  0  0  0  0  0  0  0
    7.3403  -12.9096   24.4802 C   0  0  0  0  0  0  0  0  0  0  0  0
    6.8874  -11.9627   25.4049 C   0  0  0  0  0  0  0  0  0  0  0  0
    9.8779  -15.1969   26.4124 N   0  0  0  0  0  0  0  0  0  0  0  0
   10.0470  -13.7775   26.4325 C   0  0  0  0  0  0  0  0  0  0  0  0
    9.8112  -13.4155   27.9070 C   0  0  0  0  0  0  0  0  0  0  0  0
   10.6639  -14.5203   28.5434 C   0  0  0  0  0  0  0  0  0  0  0  0
   10.3798  -15.7198   27.6807 C   0  0  1  0  0  0  0  0  0  0  0  0
    9.3444  -16.5161   28.3829 C   0  0  0  0  0  0  0  0  0  0  0  0
    9.6879  -17.0695   29.4581 O   0  0  0  0  0  0  0  0  0  0  0  0
    8.0589  -16.6870   27.9460 O   0  0  0  0  0  0  0  0  0  0  0  0
  2  1  1  1
  2  3  1  0
  3  4  1  0
  4  8  1  0
  5  4  2  0
  6  2  1  0
  7  6  2  0
  9 10  1  0
 10 11  2  0
 10 20  1  0
 11 12  1  0
 12 13  2  0
 13 14  1  0
 15 14  1  1
 15 16  1  0
 15 17  1  0
 16  6  1  0
 17 18  2  0
 19 13  1  0
 20 19  2  0
 21 17  1  0
 21 25  1  0
 22 23  1  0
 22 21  1  0
 23 24  1  0
 24 25  1  0
 25 26  1  1
 26 28  1  0
 27 26  2  0
M  END
$$$$
