DYP.pdb
     RDKit          3D

 28 29  0  0  1  0  0  0  0  0999 V2000
   11.1451  -17.1896   20.3026 N   0  0  0  0  0  0  0  0  0  0  0  0
   11.6309  -17.3916   21.6286 C   0  0  1  0  0  0  0  0  0  0  0  0
   13.1172  -17.4671   21.7282 C   0  0  0  0  0  0  0  0  0  0  0  0
   13.7419  -18.5915   21.0199 C   0  0  0  0  0  0  0  0  0  0  0  0
   13.0683  -19.3277   20.2580 O   0  0  0  0  0  0  0  0  0  0  0  0
   11.1175  -16.4257   22.6230 C   0  0  0  0  0  0  0  0  0  0  0  0
   11.7223  -15.3351   22.7881 O   0  0  0  0  0  0  0  0  0  0  0  0
   15.0913  -18.8544   21.1846 O   0  0  0  0  0  0  0  0  0  0  0  0
    7.0082  -13.0785   19.1806 O   0  0  0  0  0  0  0  0  0  0  0  0
    7.2571  -13.6485   20.4256 C   0  0  0  0  0  0  0  0  0  0  0  0
    6.9165  -14.9589   20.6605 C   0  0  0  0  0  0  0  0  0  0  0  0
    7.1669  -15.5266   21.9081 C   0  0  0  0  0  0  0  0  0  0  0  0
    7.7492  -14.7847   22.8971 C   0  0  0  0  0  0  0  0  0  0  0  0
    8.0119  -15.3859   24.2140 C   0  0  0  0  0  0  0  0  0  0  0  0
    9.5196  -15.6701   24.4053 C   0  0  2  0  0  0  0  0  0  0  0  0
    9.9612  -16.6335   23.4346 N   0  0  0  0  0  0  0  0  0  0  0  0
    9.8100  -15.9489   25.8072 C   0  0  0  0  0  0  0  0  0  0  0  0
    9.8414  -17.1961   26.1476 O   0  0  0  0  0  0  0  0  0  0  0  0
    8.0864  -13.4792   22.6575 C   0  0  0  0  0  0  0  0  0  0  0  0
    7.8412  -12.8962   21.4098 C   0  0  0  0  0  0  0  0  0  0  0  0
   10.0666  -15.0449   26.8618 N   0  0  0  0  0  0  0  0  0  0  0  0
    9.8797  -13.6281   26.8244 C   0  0  0  0  0  0  0  0  0  0  0  0
    9.4289  -13.2945   28.2550 C   0  0  0  0  0  0  0  0  0  0  0  0
   10.4651  -14.1339   29.0130 C   0  0  0  0  0  0  0  0  0  0  0  0
   10.5639  -15.3903   28.1911 C   0  0  1  0  0  0  0  0  0  0  0  0
    9.6960  -16.3990   28.8458 C   0  0  0  0  0  0  0  0  0  0  0  0
    8.5516  -16.5667   28.3534 O   0  0  0  0  0  0  0  0  0  0  0  0
   10.0514  -17.1487   29.9340 O   0  0  0  0  0  0  0  0  0  0  0  0
  2  1  1  6
  2  3  1  0
  3  4  1  0
  4  8  1  0
  5  4  2  0
  6  2  1  0
  7  6  2  0
  9 10  1  0
 10 11  2  0
 10 20  1  0
 11 12  1  0
 12 13  2  0
 13 14  1  0
 15 14  1  1
 15 16  1  0
 15 17  1  0
 16  6  1  0
 17 18  2  0
 19 13  1  0
 20 19  2  0
 21 17  1  0
 21 25  1  0
 22 23  1  0
 22 21  1  0
 23 24  1  0
 24 25  1  0
 25 26  1  1
 26 28  1  0
 27 26  2  0
M  END
$$$$
