DYP.pdb
     RDKit          3D

 28 29  0  0  1  0  0  0  0  0999 V2000
   10.9490  -18.0448   20.9017 N   0  0  0  0  0  0  0  0  0  0  0  0
   11.8819  -17.2799   21.6632 C   0  0  1  0  0  0  0  0  0  0  0  0
   12.8896  -16.5519   20.8390 C   0  0  0  0  0  0  0  0  0  0  0  0
   13.5378  -17.3452   19.7869 C   0  0  0  0  0  0  0  0  0  0  0  0
   14.2275  -18.3544   20.0731 O   0  0  0  0  0  0  0  0  0  0  0  0
   11.2650  -16.3454   22.6283 C   0  0  0  0  0  0  0  0  0  0  0  0
   11.9901  -15.5004   23.2135 O   0  0  0  0  0  0  0  0  0  0  0  0
   13.3940  -16.9873   18.4571 O   0  0  0  0  0  0  0  0  0  0  0  0
    5.9023  -11.3626   27.3770 O   0  0  0  0  0  0  0  0  0  0  0  0
    6.3858  -12.3117   26.4814 C   0  0  0  0  0  0  0  0  0  0  0  0
    6.1787  -13.6490   26.7208 C   0  0  0  0  0  0  0  0  0  0  0  0
    6.6643  -14.5968   25.8221 C   0  0  0  0  0  0  0  0  0  0  0  0
    7.3448  -14.2004   24.7052 C   0  0  0  0  0  0  0  0  0  0  0  0
    7.8575  -15.2029   23.7582 C   0  0  0  0  0  0  0  0  0  0  0  0
    9.3528  -15.4993   24.0169 C   0  0  2  0  0  0  0  0  0  0  0  0
    9.8766  -16.3218   22.9613 N   0  0  0  0  0  0  0  0  0  0  0  0
    9.5495  -15.9602   25.3868 C   0  0  0  0  0  0  0  0  0  0  0  0
    9.3494  -17.2198   25.6006 O   0  0  0  0  0  0  0  0  0  0  0  0
    7.5484  -12.8664   24.4718 C   0  0  0  0  0  0  0  0  0  0  0  0
    7.0665  -11.9039   25.3651 C   0  0  0  0  0  0  0  0  0  0  0  0
    9.9327  -15.2234   26.5293 N   0  0  0  0  0  0  0  0  0  0  0  0
    9.8092  -13.8098   26.7037 C   0  0  0  0  0  0  0  0  0  0  0  0
    9.4923  -13.6660   28.2004 C   0  0  0  0  0  0  0  0  0  0  0  0
   10.5468  -14.6391   28.7425 C   0  0  0  0  0  0  0  0  0  0  0  0
   10.5200  -15.7697   27.7501 C   0  0  1  0  0  0  0  0  0  0  0  0
    9.6625  -16.8301   28.3328 C   0  0  0  0  0  0  0  0  0  0  0  0
    8.5135  -16.9636   27.8406 O   0  0  0  0  0  0  0  0  0  0  0  0
   10.0319  -17.6612   29.3553 O   0  0  0  0  0  0  0  0  0  0  0  0
  2  1  1  6
  2  3  1  0
  3  4  1  0
  4  8  1  0
  5  4  2  0
  6  2  1  0
  7  6  2  0
  9 10  1  0
 10 11  2  0
 10 20  1  0
 11 12  1  0
 12 13  2  0
 13 14  1  0
 15 14  1  6
 15 16  1  0
 15 17  1  0
 16  6  1  0
 17 18  2  0
 19 13  1  0
 20 19  2  0
 21 17  1  0
 21 25  1  0
 22 23  1  0
 22 21  1  0
 23 24  1  0
 24 25  1  0
 25 26  1  1
 26 28  1  0
 27 26  2  0
M  END
$$$$
