YEG.pdb
     RDKit          3D

 26 26  0  0  1  0  0  0  0  0999 V2000
    5.4039  -10.3519   26.3389 O   0  0  0  0  0  0  0  0  0  0  0  0
    6.0372  -11.5706   26.1543 C   0  0  0  0  0  0  0  0  0  0  0  0
    7.2260  -11.6324   25.4449 C   0  0  0  0  0  0  0  0  0  0  0  0
    7.8826  -12.8092   25.2393 C   0  0  0  0  0  0  0  0  0  0  0  0
    7.3860  -14.0087   25.7352 C   0  0  0  0  0  0  0  0  0  0  0  0
    8.0880  -15.2865   25.5192 C   0  0  0  0  0  0  0  0  0  0  0  0
    7.8095  -15.8901   24.1616 C   0  0  2  0  0  0  0  0  0  0  0  0
    6.4447  -16.3609   24.0940 N   0  0  0  0  0  0  0  0  0  0  0  0
    8.7215  -17.0177   23.8626 C   0  0  0  0  0  0  0  0  0  0  0  0
    8.2925  -18.2147   23.9452 O   0  0  0  0  0  0  0  0  0  0  0  0
    6.1990  -13.9419   26.4427 C   0  0  0  0  0  0  0  0  0  0  0  0
    5.5370  -12.7594   26.6507 C   0  0  0  0  0  0  0  0  0  0  0  0
   10.0698  -16.7776   23.4846 N   0  0  0  0  0  0  0  0  0  0  0  0
   10.9369  -17.9182   23.1251 C   0  0  1  0  0  0  0  0  0  0  0  0
   11.4372  -17.6561   21.7339 C   0  0  0  0  0  0  0  0  0  0  0  0
   10.5198  -16.8200   20.8936 C   0  0  0  0  0  0  0  0  0  0  0  0
   10.5976  -17.1750   19.4728 C   0  0  0  0  0  0  0  0  0  0  0  0
   11.6145  -17.0312   18.7589 O   0  0  0  0  0  0  0  0  0  0  0  0
   12.0809  -17.8927   24.0625 C   0  0  0  0  0  0  0  0  0  0  0  0
   13.1452  -18.5613   23.8624 O   0  0  0  0  0  0  0  0  0  0  0  0
    9.4390  -17.7166   18.8763 O   0  0  0  0  0  0  0  0  0  0  0  0
   12.0223  -17.1045   25.2382 N   0  0  0  0  0  0  0  0  0  0  0  0
   11.4979  -17.6219   26.4839 C   0  0  0  0  0  0  0  0  0  0  0  0
   12.3588  -18.7055   27.0081 C   0  0  0  0  0  0  0  0  0  0  0  0
   12.9955  -19.4674   26.2236 O   0  0  0  0  0  0  0  0  0  0  0  0
   12.5212  -18.9520   28.3633 O   0  0  0  0  0  0  0  0  0  0  0  0
  2  3  2  0
  2  1  1  0
  4  3  1  0
  5  4  2  0
  6  5  1  0
  7  6  1  0
  7  9  1  0
  7  8  1  1
  9 13  1  0
  9 10  2  0
 11  5  1  0
 11 12  2  0
 12  2  1  0
 13 14  1  0
 14 15  1  6
 15 16  1  0
 16 17  1  0
 17 21  1  0
 18 17  2  0
 19 22  1  0
 19 14  1  0
 20 19  2  0
 23 22  1  0
 24 26  1  0
 24 23  1  0
 25 24  2  0
M  END
$$$$
