YEG.pdb
     RDKit          3D

 26 26  0  0  1  0  0  0  0  0999 V2000
    5.8606  -10.7050   26.5183 O   0  0  0  0  0  0  0  0  0  0  0  0
    6.4415  -11.9143   26.1709 C   0  0  0  0  0  0  0  0  0  0  0  0
    5.8141  -13.1043   26.5036 C   0  0  0  0  0  0  0  0  0  0  0  0
    6.3495  -14.3159   26.1819 C   0  0  0  0  0  0  0  0  0  0  0  0
    7.5570  -14.4135   25.5008 C   0  0  0  0  0  0  0  0  0  0  0  0
    8.1443  -15.7181   25.1475 C   0  0  0  0  0  0  0  0  0  0  0  0
    7.8628  -16.1241   23.7188 C   0  0  2  0  0  0  0  0  0  0  0  0
    6.4484  -16.3574   23.5347 N   0  0  0  0  0  0  0  0  0  0  0  0
    8.6046  -17.3475   23.3374 C   0  0  0  0  0  0  0  0  0  0  0  0
    7.9652  -18.4218   23.0916 O   0  0  0  0  0  0  0  0  0  0  0  0
    8.1794  -13.2227   25.1709 C   0  0  0  0  0  0  0  0  0  0  0  0
    7.6428  -12.0029   25.4935 C   0  0  0  0  0  0  0  0  0  0  0  0
   10.0222  -17.3346   23.2430 N   0  0  0  0  0  0  0  0  0  0  0  0
   10.7333  -18.5622   22.8318 C   0  0  1  0  0  0  0  0  0  0  0  0
   12.0176  -18.1209   22.1910 C   0  0  0  0  0  0  0  0  0  0  0  0
   11.8706  -17.6360   20.7804 C   0  0  0  0  0  0  0  0  0  0  0  0
   13.0922  -17.8444   19.9962 C   0  0  0  0  0  0  0  0  0  0  0  0
   13.8478  -16.9295   19.6007 O   0  0  0  0  0  0  0  0  0  0  0  0
   11.0433  -19.3078   24.0713 C   0  0  0  0  0  0  0  0  0  0  0  0
   11.5681  -20.4672   24.0599 O   0  0  0  0  0  0  0  0  0  0  0  0
   13.4324  -19.1743   19.6687 O   0  0  0  0  0  0  0  0  0  0  0  0
   10.7574  -18.7383   25.3365 N   0  0  0  0  0  0  0  0  0  0  0  0
   10.9746  -19.4621   26.5708 C   0  0  0  0  0  0  0  0  0  0  0  0
   12.3902  -19.3711   26.9927 C   0  0  0  0  0  0  0  0  0  0  0  0
   12.7695  -19.8443   28.1033 O   0  0  0  0  0  0  0  0  0  0  0  0
   13.3725  -18.7747   26.2162 O   0  0  0  0  0  0  0  0  0  0  0  0
  2  3  2  0
  2  1  1  0
  4  3  1  0
  5  4  2  0
  6  5  1  0
  7  6  1  0
  7  9  1  0
  7  8  1  1
  9 13  1  0
  9 10  2  0
 11  5  1  0
 11 12  2  0
 12  2  1  0
 13 14  1  0
 14 15  1  1
 15 16  1  0
 16 17  1  0
 17 21  1  0
 18 17  2  0
 19 22  1  0
 19 14  1  0
 20 19  2  0
 23 22  1  0
 24 26  1  0
 24 23  1  0
 25 24  2  0
M  END
$$$$
