YEG.pdb
     RDKit          3D

 26 26  0  0  1  0  0  0  0  0999 V2000
    6.5903  -12.1792   28.4531 O   0  0  0  0  0  0  0  0  0  0  0  0
    6.7416  -12.6315   27.1520 C   0  0  0  0  0  0  0  0  0  0  0  0
    7.8309  -12.2224   26.3994 C   0  0  0  0  0  0  0  0  0  0  0  0
    8.0191  -12.6424   25.1162 C   0  0  0  0  0  0  0  0  0  0  0  0
    7.1209  -13.5057   24.5003 C   0  0  0  0  0  0  0  0  0  0  0  0
    7.3151  -13.9663   23.1139 C   0  0  0  0  0  0  0  0  0  0  0  0
    7.8703  -15.3699   23.0312 C   0  0  2  0  0  0  0  0  0  0  0  0
    7.1097  -16.2593   23.8793 N   0  0  0  0  0  0  0  0  0  0  0  0
    9.2942  -15.4236   23.4339 C   0  0  0  0  0  0  0  0  0  0  0  0
   10.1192  -14.5831   22.9477 O   0  0  0  0  0  0  0  0  0  0  0  0
    6.0351  -13.9112   25.2558 C   0  0  0  0  0  0  0  0  0  0  0  0
    5.8438  -13.4901   26.5465 C   0  0  0  0  0  0  0  0  0  0  0  0
    9.7489  -16.4032   24.3570 N   0  0  0  0  0  0  0  0  0  0  0  0
   11.1863  -16.4747   24.6902 C   0  0  1  0  0  0  0  0  0  0  0  0
   11.3210  -17.4778   25.7994 C   0  0  0  0  0  0  0  0  0  0  0  0
   11.0590  -16.9257   27.1681 C   0  0  0  0  0  0  0  0  0  0  0  0
   10.9538  -17.9839   28.1780 C   0  0  0  0  0  0  0  0  0  0  0  0
    9.8768  -18.4654   28.5935 O   0  0  0  0  0  0  0  0  0  0  0  0
   11.8751  -16.9901   23.4868 C   0  0  0  0  0  0  0  0  0  0  0  0
   11.2591  -17.5937   22.5510 O   0  0  0  0  0  0  0  0  0  0  0  0
   12.1575  -18.4894   28.7140 O   0  0  0  0  0  0  0  0  0  0  0  0
   13.2740  -16.8223   23.3390 N   0  0  0  0  0  0  0  0  0  0  0  0
   13.9044  -16.7424   22.0387 C   0  0  0  0  0  0  0  0  0  0  0  0
   15.3781  -16.7046   22.1694 C   0  0  0  0  0  0  0  0  0  0  0  0
   15.9454  -15.8270   22.8831 O   0  0  0  0  0  0  0  0  0  0  0  0
   16.2159  -17.6081   21.5327 O   0  0  0  0  0  0  0  0  0  0  0  0
  2  3  2  0
  2  1  1  0
  4  3  1  0
  5  4  2  0
  6  5  1  0
  7  6  1  0
  7  9  1  0
  7  8  1  1
  9 13  1  0
  9 10  2  0
 11  5  1  0
 11 12  2  0
 12  2  1  0
 13 14  1  0
 14 15  1  1
 15 16  1  0
 16 17  1  0
 17 21  1  0
 18 17  2  0
 19 22  1  0
 19 14  1  0
 20 19  2  0
 23 22  1  0
 24 26  1  0
 24 23  1  0
 25 24  2  0
M  END
$$$$
