YEG.pdb
     RDKit          3D

 26 26  0  0  1  0  0  0  0  0999 V2000
    5.3812  -10.3868   26.9629 O   0  0  0  0  0  0  0  0  0  0  0  0
    6.1017  -11.5357   26.6777 C   0  0  0  0  0  0  0  0  0  0  0  0
    5.5077  -12.7792   26.8235 C   0  0  0  0  0  0  0  0  0  0  0  0
    6.1789  -13.9348   26.5544 C   0  0  0  0  0  0  0  0  0  0  0  0
    7.4984  -13.9182   26.1187 C   0  0  0  0  0  0  0  0  0  0  0  0
    8.2332  -15.1614   25.8244 C   0  0  0  0  0  0  0  0  0  0  0  0
    7.6003  -15.9722   24.7167 C   0  0  2  0  0  0  0  0  0  0  0  0
    6.6631  -16.9250   25.2670 N   0  0  0  0  0  0  0  0  0  0  0  0
    8.6133  -16.7010   23.9196 C   0  0  0  0  0  0  0  0  0  0  0  0
    9.0013  -17.8548   24.2963 O   0  0  0  0  0  0  0  0  0  0  0  0
    8.0871  -12.6744   25.9748 C   0  0  0  0  0  0  0  0  0  0  0  0
    7.4139  -11.5109   26.2448 C   0  0  0  0  0  0  0  0  0  0  0  0
    9.1564  -16.1261   22.7394 N   0  0  0  0  0  0  0  0  0  0  0  0
   10.1754  -16.8708   21.9719 C   0  0  1  0  0  0  0  0  0  0  0  0
   10.1751  -16.2948   20.5853 C   0  0  0  0  0  0  0  0  0  0  0  0
    8.8994  -16.5068   19.8274 C   0  0  0  0  0  0  0  0  0  0  0  0
    8.8989  -17.7768   19.0942 C   0  0  0  0  0  0  0  0  0  0  0  0
    9.8461  -18.1919   18.3906 O   0  0  0  0  0  0  0  0  0  0  0  0
   11.4787  -16.5879   22.6120 C   0  0  0  0  0  0  0  0  0  0  0  0
   11.8149  -15.4216   22.9945 O   0  0  0  0  0  0  0  0  0  0  0  0
    7.7443  -18.5820   19.1946 O   0  0  0  0  0  0  0  0  0  0  0  0
   12.4119  -17.6329   22.8219 N   0  0  0  0  0  0  0  0  0  0  0  0
   13.6213  -17.4388   23.5928 C   0  0  0  0  0  0  0  0  0  0  0  0
   14.6802  -16.8201   22.7645 C   0  0  0  0  0  0  0  0  0  0  0  0
   14.4951  -16.5966   21.5329 O   0  0  0  0  0  0  0  0  0  0  0  0
   15.9176  -16.4526   23.2721 O   0  0  0  0  0  0  0  0  0  0  0  0
  2  3  2  0
  2  1  1  0
  4  3  1  0
  5  4  2  0
  6  5  1  0
  7  6  1  0
  7  9  1  0
  7  8  1  1
  9 13  1  0
  9 10  2  0
 11  5  1  0
 11 12  2  0
 12  2  1  0
 13 14  1  0
 14 15  1  6
 15 16  1  0
 16 17  1  0
 17 21  1  0
 18 17  2  0
 19 22  1  0
 19 14  1  0
 20 19  2  0
 23 22  1  0
 24 26  1  0
 24 23  1  0
 25 24  2  0
M  END
$$$$
