YEG.pdb
     RDKit          3D

 26 26  0  0  1  0  0  0  0  0999 V2000
    4.8138  -10.5131   27.3094 O   0  0  0  0  0  0  0  0  0  0  0  0
    5.7020  -11.5036   26.9213 C   0  0  0  0  0  0  0  0  0  0  0  0
    5.8080  -11.8530   25.5845 C   0  0  0  0  0  0  0  0  0  0  0  0
    6.6680  -12.8210   25.1584 C   0  0  0  0  0  0  0  0  0  0  0  0
    7.4830  -13.5062   26.0515 C   0  0  0  0  0  0  0  0  0  0  0  0
    8.4166  -14.5541   25.6015 C   0  0  0  0  0  0  0  0  0  0  0  0
    7.7443  -15.6288   24.7781 C   0  0  2  0  0  0  0  0  0  0  0  0
    6.8367  -16.3953   25.6013 N   0  0  0  0  0  0  0  0  0  0  0  0
    8.7287  -16.5490   24.1641 C   0  0  0  0  0  0  0  0  0  0  0  0
    9.0531  -17.6215   24.7708 O   0  0  0  0  0  0  0  0  0  0  0  0
    7.3735  -13.1538   27.3849 C   0  0  0  0  0  0  0  0  0  0  0  0
    6.5093  -12.1805   27.8157 C   0  0  0  0  0  0  0  0  0  0  0  0
    9.3146  -16.2472   22.9055 N   0  0  0  0  0  0  0  0  0  0  0  0
   10.3908  -17.1119   22.3800 C   0  0  1  0  0  0  0  0  0  0  0  0
   10.3124  -17.0337   20.8825 C   0  0  0  0  0  0  0  0  0  0  0  0
    9.0273  -17.5426   20.3027 C   0  0  0  0  0  0  0  0  0  0  0  0
    9.0270  -17.4941   18.8370 C   0  0  0  0  0  0  0  0  0  0  0  0
    8.0583  -17.8181   18.1152 O   0  0  0  0  0  0  0  0  0  0  0  0
   11.6691  -16.5176   22.8283 C   0  0  0  0  0  0  0  0  0  0  0  0
   11.9205  -15.2745   22.7229 O   0  0  0  0  0  0  0  0  0  0  0  0
   10.2070  -17.0491   18.2036 O   0  0  0  0  0  0  0  0  0  0  0  0
   12.6738  -17.3356   23.4013 N   0  0  0  0  0  0  0  0  0  0  0  0
   13.8998  -16.7840   23.9370 C   0  0  0  0  0  0  0  0  0  0  0  0
   14.9330  -16.6749   22.8829 C   0  0  0  0  0  0  0  0  0  0  0  0
   14.6865  -17.0247   21.6921 O   0  0  0  0  0  0  0  0  0  0  0  0
   16.2107  -16.1929   23.1252 O   0  0  0  0  0  0  0  0  0  0  0  0
  2  3  2  0
  2  1  1  0
  4  3  1  0
  5  4  2  0
  6  5  1  0
  7  6  1  0
  7  9  1  0
  7  8  1  1
  9 13  1  0
  9 10  2  0
 11  5  1  0
 11 12  2  0
 12  2  1  0
 13 14  1  0
 14 15  1  6
 15 16  1  0
 16 17  1  0
 17 21  1  0
 18 17  2  0
 19 22  1  0
 19 14  1  0
 20 19  2  0
 23 22  1  0
 24 26  1  0
 24 23  1  0
 25 24  2  0
M  END
$$$$
