YEG.pdb
     RDKit          3D

 26 26  0  0  1  0  0  0  0  0999 V2000
    5.5624  -10.5809   26.9218 O   0  0  0  0  0  0  0  0  0  0  0  0
    6.2399  -11.7465   26.6013 C   0  0  0  0  0  0  0  0  0  0  0  0
    7.4660  -11.6800   25.9588 C   0  0  0  0  0  0  0  0  0  0  0  0
    8.1666  -12.8007   25.6249 C   0  0  0  0  0  0  0  0  0  0  0  0
    7.6797  -14.0695   25.9156 C   0  0  0  0  0  0  0  0  0  0  0  0
    8.4291  -15.2876   25.5596 C   0  0  0  0  0  0  0  0  0  0  0  0
    7.6984  -16.1597   24.5643 C   0  0  2  0  0  0  0  0  0  0  0  0
    6.7007  -16.9594   25.2380 N   0  0  0  0  0  0  0  0  0  0  0  0
    8.6230  -17.0588   23.8368 C   0  0  0  0  0  0  0  0  0  0  0  0
    8.9062  -18.2011   24.3250 O   0  0  0  0  0  0  0  0  0  0  0  0
    6.4553  -14.1306   26.5570 C   0  0  0  0  0  0  0  0  0  0  0  0
    5.7489  -13.0048   26.8937 C   0  0  0  0  0  0  0  0  0  0  0  0
    9.1970  -16.6598   22.5999 N   0  0  0  0  0  0  0  0  0  0  0  0
   10.2041  -17.5262   21.9542 C   0  0  1  0  0  0  0  0  0  0  0  0
   10.2150  -17.1610   20.4978 C   0  0  0  0  0  0  0  0  0  0  0  0
    9.1158  -17.7879   19.6944 C   0  0  0  0  0  0  0  0  0  0  0  0
    9.5482  -18.1174   18.3323 C   0  0  0  0  0  0  0  0  0  0  0  0
   10.7099  -17.9580   17.8971 O   0  0  0  0  0  0  0  0  0  0  0  0
   11.5113  -17.1735   22.5502 C   0  0  0  0  0  0  0  0  0  0  0  0
   11.9114  -15.9705   22.6603 O   0  0  0  0  0  0  0  0  0  0  0  0
    8.5789  -18.6517   17.4567 O   0  0  0  0  0  0  0  0  0  0  0  0
   12.3755  -18.1901   23.0263 N   0  0  0  0  0  0  0  0  0  0  0  0
   13.5687  -17.8887   23.7879 C   0  0  0  0  0  0  0  0  0  0  0  0
   14.2716  -19.1310   24.1791 C   0  0  0  0  0  0  0  0  0  0  0  0
   13.6794  -20.2490   24.1529 O   0  0  0  0  0  0  0  0  0  0  0  0
   15.5958  -19.1515   24.5909 O   0  0  0  0  0  0  0  0  0  0  0  0
  2  3  2  0
  2  1  1  0
  4  3  1  0
  5  4  2  0
  6  5  1  0
  7  6  1  0
  7  9  1  0
  7  8  1  1
  9 13  1  0
  9 10  2  0
 11  5  1  0
 11 12  2  0
 12  2  1  0
 13 14  1  0
 14 15  1  6
 15 16  1  0
 16 17  1  0
 17 21  1  0
 18 17  2  0
 19 22  1  0
 19 14  1  0
 20 19  2  0
 23 22  1  0
 24 26  1  0
 24 23  1  0
 25 24  2  0
M  END
$$$$
