YEG.pdb
     RDKit          3D

 26 26  0  0  1  0  0  0  0  0999 V2000
    6.8914  -11.9599   18.7058 O   0  0  0  0  0  0  0  0  0  0  0  0
    7.3506  -12.8332   19.6790 C   0  0  0  0  0  0  0  0  0  0  0  0
    8.7112  -12.9591   19.9096 C   0  0  0  0  0  0  0  0  0  0  0  0
    9.2066  -13.8055   20.8563 C   0  0  0  0  0  0  0  0  0  0  0  0
    8.3639  -14.5860   21.6386 C   0  0  0  0  0  0  0  0  0  0  0  0
    8.8888  -15.5039   22.6652 C   0  0  0  0  0  0  0  0  0  0  0  0
    9.4949  -16.7589   22.0797 C   0  0  2  0  0  0  0  0  0  0  0  0
    8.4677  -17.5736   21.4713 N   0  0  0  0  0  0  0  0  0  0  0  0
   10.1987  -17.5614   23.1060 C   0  0  0  0  0  0  0  0  0  0  0  0
    9.5844  -18.5091   23.6960 O   0  0  0  0  0  0  0  0  0  0  0  0
    7.0064  -14.4568   21.4046 C   0  0  0  0  0  0  0  0  0  0  0  0
    6.5059  -13.6061   20.4529 C   0  0  0  0  0  0  0  0  0  0  0  0
   11.5518  -17.2846   23.4389 N   0  0  0  0  0  0  0  0  0  0  0  0
   12.2825  -18.2062   24.3326 C   0  0  1  0  0  0  0  0  0  0  0  0
   13.7425  -18.0337   24.0274 C   0  0  0  0  0  0  0  0  0  0  0  0
   14.2462  -18.8923   22.9067 C   0  0  0  0  0  0  0  0  0  0  0  0
   15.6125  -18.5358   22.5109 C   0  0  0  0  0  0  0  0  0  0  0  0
   16.5798  -19.3287   22.5023 O   0  0  0  0  0  0  0  0  0  0  0  0
   12.0213  -17.7515   25.7158 C   0  0  0  0  0  0  0  0  0  0  0  0
   12.1532  -16.5374   26.0738 O   0  0  0  0  0  0  0  0  0  0  0  0
   15.8442  -17.2018   22.1130 O   0  0  0  0  0  0  0  0  0  0  0  0
   11.6073  -18.6774   26.7048 N   0  0  0  0  0  0  0  0  0  0  0  0
   11.2504  -18.2616   28.0443 C   0  0  0  0  0  0  0  0  0  0  0  0
   10.7745  -19.4125   28.8438 C   0  0  0  0  0  0  0  0  0  0  0  0
   10.6616  -20.5616   28.3262 O   0  0  0  0  0  0  0  0  0  0  0  0
   10.4288  -19.3099   30.1830 O   0  0  0  0  0  0  0  0  0  0  0  0
  2  3  2  0
  2  1  1  0
  4  3  1  0
  5  4  2  0
  6  5  1  0
  7  6  1  0
  7  9  1  0
  7  8  1  1
  9 13  1  0
  9 10  2  0
 11  5  1  0
 11 12  2  0
 12  2  1  0
 13 14  1  0
 14 15  1  6
 15 16  1  0
 16 17  1  0
 17 21  1  0
 18 17  2  0
 19 22  1  0
 19 14  1  0
 20 19  2  0
 23 22  1  0
 24 26  1  0
 24 23  1  0
 25 24  2  0
M  END
$$$$
