YEG.pdb
     RDKit          3D

 26 26  0  0  1  0  0  0  0  0999 V2000
    5.8483  -10.9686   28.2764 O   0  0  0  0  0  0  0  0  0  0  0  0
    6.2532  -11.7710   27.2216 C   0  0  0  0  0  0  0  0  0  0  0  0
    7.5934  -12.0884   27.0683 C   0  0  0  0  0  0  0  0  0  0  0  0
    8.0358  -12.8740   26.0458 C   0  0  0  0  0  0  0  0  0  0  0  0
    7.1568  -13.3958   25.1043 C   0  0  0  0  0  0  0  0  0  0  0  0
    7.6242  -14.2465   23.9954 C   0  0  0  0  0  0  0  0  0  0  0  0
    7.2142  -15.6934   24.1490 C   0  0  2  0  0  0  0  0  0  0  0  0
    6.6907  -15.9267   25.4758 N   0  0  0  0  0  0  0  0  0  0  0  0
    8.3481  -16.6155   23.9115 C   0  0  0  0  0  0  0  0  0  0  0  0
    8.6487  -17.4855   24.7926 O   0  0  0  0  0  0  0  0  0  0  0  0
    5.8199  -13.0760   25.2616 C   0  0  0  0  0  0  0  0  0  0  0  0
    5.3727  -12.2861   26.2892 C   0  0  0  0  0  0  0  0  0  0  0  0
    9.1039  -16.5393   22.7108 N   0  0  0  0  0  0  0  0  0  0  0  0
   10.1774  -17.5238   22.4652 C   0  0  1  0  0  0  0  0  0  0  0  0
   10.5038  -17.4478   21.0016 C   0  0  0  0  0  0  0  0  0  0  0  0
   11.4533  -18.5045   20.5236 C   0  0  0  0  0  0  0  0  0  0  0  0
   11.6909  -18.4189   19.0790 C   0  0  0  0  0  0  0  0  0  0  0  0
   12.7894  -18.6435   18.5247 O   0  0  0  0  0  0  0  0  0  0  0  0
   11.3510  -17.0747   23.2457 C   0  0  0  0  0  0  0  0  0  0  0  0
   12.1081  -16.1272   22.8599 O   0  0  0  0  0  0  0  0  0  0  0  0
   10.5976  -18.0569   18.2633 O   0  0  0  0  0  0  0  0  0  0  0  0
   11.6732  -17.7023   24.4742 N   0  0  0  0  0  0  0  0  0  0  0  0
   12.6543  -18.7627   24.5604 C   0  0  0  0  0  0  0  0  0  0  0  0
   14.0166  -18.2078   24.7236 C   0  0  0  0  0  0  0  0  0  0  0  0
   14.4714  -17.9271   25.8706 O   0  0  0  0  0  0  0  0  0  0  0  0
   14.8656  -17.9642   23.6543 O   0  0  0  0  0  0  0  0  0  0  0  0
  2  3  2  0
  2  1  1  0
  4  3  1  0
  5  4  2  0
  6  5  1  0
  7  6  1  0
  7  9  1  0
  7  8  1  1
  9 13  1  0
  9 10  2  0
 11  5  1  0
 11 12  2  0
 12  2  1  0
 13 14  1  0
 14 15  1  6
 15 16  1  0
 16 17  1  0
 17 21  1  0
 18 17  2  0
 19 22  1  0
 19 14  1  0
 20 19  2  0
 23 22  1  0
 24 26  1  0
 24 23  1  0
 25 24  2  0
M  END
$$$$
