YEG.pdb
     RDKit          3D

 26 26  0  0  1  0  0  0  0  0999 V2000
    4.7382  -11.0807   27.6339 O   0  0  0  0  0  0  0  0  0  0  0  0
    5.6431  -11.9116   26.9928 C   0  0  0  0  0  0  0  0  0  0  0  0
    6.8689  -12.1835   27.5794 C   0  0  0  0  0  0  0  0  0  0  0  0
    7.7887  -12.9948   26.9844 C   0  0  0  0  0  0  0  0  0  0  0  0
    7.5372  -13.5902   25.7541 C   0  0  0  0  0  0  0  0  0  0  0  0
    8.5242  -14.4694   25.1024 C   0  0  0  0  0  0  0  0  0  0  0  0
    7.9975  -15.8642   24.8528 C   0  0  2  0  0  0  0  0  0  0  0  0
    7.6843  -16.5122   26.1062 N   0  0  0  0  0  0  0  0  0  0  0  0
    8.9727  -16.6970   24.1126 C   0  0  0  0  0  0  0  0  0  0  0  0
    9.7770  -17.4477   24.7553 O   0  0  0  0  0  0  0  0  0  0  0  0
    6.3122  -13.3157   25.1726 C   0  0  0  0  0  0  0  0  0  0  0  0
    5.3856  -12.5001   25.7692 C   0  0  0  0  0  0  0  0  0  0  0  0
    9.0199  -16.6668   22.6929 N   0  0  0  0  0  0  0  0  0  0  0  0
   10.1188  -17.3584   21.9885 C   0  0  1  0  0  0  0  0  0  0  0  0
    9.7025  -17.4731   20.5504 C   0  0  0  0  0  0  0  0  0  0  0  0
   10.7188  -18.1247   19.6620 C   0  0  0  0  0  0  0  0  0  0  0  0
   10.2830  -18.1633   18.2623 C   0  0  0  0  0  0  0  0  0  0  0  0
   10.7572  -17.4508   17.3502 O   0  0  0  0  0  0  0  0  0  0  0  0
   11.3024  -16.4758   22.0796 C   0  0  0  0  0  0  0  0  0  0  0  0
   11.2378  -15.2208   21.8790 O   0  0  0  0  0  0  0  0  0  0  0  0
    9.2553  -19.0712   17.9289 O   0  0  0  0  0  0  0  0  0  0  0  0
   12.5721  -17.0164   22.4001 N   0  0  0  0  0  0  0  0  0  0  0  0
   13.7620  -16.1951   22.4644 C   0  0  0  0  0  0  0  0  0  0  0  0
   14.9528  -17.0168   22.7756 C   0  0  0  0  0  0  0  0  0  0  0  0
   14.8480  -18.2601   22.9868 O   0  0  0  0  0  0  0  0  0  0  0  0
   16.2336  -16.4905   22.8546 O   0  0  0  0  0  0  0  0  0  0  0  0
  2  3  2  0
  2  1  1  0
  4  3  1  0
  5  4  2  0
  6  5  1  0
  7  6  1  0
  7  9  1  0
  7  8  1  1
  9 13  1  0
  9 10  2  0
 11  5  1  0
 11 12  2  0
 12  2  1  0
 13 14  1  0
 14 15  1  6
 15 16  1  0
 16 17  1  0
 17 21  1  0
 18 17  2  0
 19 22  1  0
 19 14  1  0
 20 19  2  0
 23 22  1  0
 24 26  1  0
 24 23  1  0
 25 24  2  0
M  END
$$$$
