YEG.pdb
     RDKit          3D

 26 26  0  0  1  0  0  0  0  0999 V2000
    5.0709  -11.6802   28.2782 O   0  0  0  0  0  0  0  0  0  0  0  0
    5.8385  -12.0540   27.1867 C   0  0  0  0  0  0  0  0  0  0  0  0
    5.4623  -13.1429   26.4165 C   0  0  0  0  0  0  0  0  0  0  0  0
    6.1873  -13.5456   25.3346 C   0  0  0  0  0  0  0  0  0  0  0  0
    7.3446  -12.8779   24.9524 C   0  0  0  0  0  0  0  0  0  0  0  0
    8.1356  -13.3044   23.7843 C   0  0  0  0  0  0  0  0  0  0  0  0
    8.6216  -14.7319   23.8907 C   0  0  2  0  0  0  0  0  0  0  0  0
    9.4746  -14.8849   25.0473 N   0  0  0  0  0  0  0  0  0  0  0  0
    9.3701  -15.1503   22.6835 C   0  0  0  0  0  0  0  0  0  0  0  0
   10.6025  -14.8474   22.5692 O   0  0  0  0  0  0  0  0  0  0  0  0
    7.7160  -11.7915   25.7244 C   0  0  0  0  0  0  0  0  0  0  0  0
    6.9883  -11.3847   26.8129 C   0  0  0  0  0  0  0  0  0  0  0  0
    8.7273  -15.8860   21.6520 N   0  0  0  0  0  0  0  0  0  0  0  0
    9.3826  -16.0124   20.3342 C   0  0  1  0  0  0  0  0  0  0  0  0
    9.3961  -17.4761   19.9994 C   0  0  0  0  0  0  0  0  0  0  0  0
   10.1594  -18.3258   20.9699 C   0  0  0  0  0  0  0  0  0  0  0  0
   11.1041  -19.2209   20.2939 C   0  0  0  0  0  0  0  0  0  0  0  0
   11.8955  -19.9925   20.8793 O   0  0  0  0  0  0  0  0  0  0  0  0
    8.5215  -15.3028   19.3630 C   0  0  0  0  0  0  0  0  0  0  0  0
    7.2678  -15.5060   19.2830 O   0  0  0  0  0  0  0  0  0  0  0  0
   11.1147  -19.2048   18.8828 O   0  0  0  0  0  0  0  0  0  0  0  0
    9.0823  -14.3542   18.4726 N   0  0  0  0  0  0  0  0  0  0  0  0
    8.2715  -13.6126   17.5307 C   0  0  0  0  0  0  0  0  0  0  0  0
    8.1902  -14.3208   16.2338 C   0  0  0  0  0  0  0  0  0  0  0  0
    8.2517  -15.5834   16.1774 O   0  0  0  0  0  0  0  0  0  0  0  0
    8.0443  -13.6623   15.0219 O   0  0  0  0  0  0  0  0  0  0  0  0
  2  3  2  0
  2  1  1  0
  4  3  1  0
  5  4  2  0
  6  5  1  0
  7  6  1  0
  7  9  1  0
  7  8  1  1
  9 13  1  0
  9 10  2  0
 11  5  1  0
 11 12  2  0
 12  2  1  0
 13 14  1  0
 14 15  1  6
 15 16  1  0
 16 17  1  0
 17 21  1  0
 18 17  2  0
 19 22  1  0
 19 14  1  0
 20 19  2  0
 23 22  1  0
 24 26  1  0
 24 23  1  0
 25 24  2  0
M  END
$$$$
