LNK.pdb
     RDKit          3D

 26 25  0  0  1  0  0  0  0  0999 V2000
    6.4871  -12.4747   19.0431 C   0  0  0  0  0  0  0  0  0  0  0  0
    7.8335  -13.1591   18.9398 C   0  0  1  0  0  0  0  0  0  0  0  0
    8.8956  -12.1192   18.9735 C   0  0  0  0  0  0  0  0  0  0  0  0
    7.9687  -14.2509   19.9412 C   0  0  0  0  0  0  0  0  0  0  0  0
    9.3094  -14.8633   20.0650 C   0  0  2  0  0  0  0  0  0  0  0  0
    9.8041  -15.5246   18.8966 N   0  0  0  0  0  0  0  0  0  0  0  0
    9.2510  -15.8946   21.1451 C   0  0  0  0  0  0  0  0  0  0  0  0
    8.5436  -15.6186   22.1465 O   0  0  0  0  0  0  0  0  0  0  0  0
    8.1512  -20.0248   20.9920 N   0  0  0  0  0  0  0  0  0  0  0  0
    9.5713  -20.0420   20.7753 C   0  0  0  0  0  0  0  0  0  0  0  0
    9.9743  -20.6193   19.7537 O   0  0  0  0  0  0  0  0  0  0  0  0
   10.4740  -19.4015   21.7308 C   0  0  0  0  0  0  0  0  0  0  0  0
    9.9390  -18.0972   22.2013 C   0  0  2  0  0  0  0  0  0  0  0  0
    9.9273  -17.1131   21.0924 N   0  0  0  0  0  0  0  0  0  0  0  0
   10.9311  -17.5149   23.1871 C   0  0  0  0  0  0  0  0  0  0  0  0
   12.1297  -17.4691   22.8888 O   0  0  0  0  0  0  0  0  0  0  0  0
   10.5284  -17.0143   24.4579 N   0  0  0  0  0  0  0  0  0  0  0  0
   11.5110  -16.4304   25.3858 C   0  0  1  0  0  0  0  0  0  0  0  0
   10.8659  -15.4266   26.2708 C   0  0  0  0  0  0  0  0  0  0  0  0
   11.0426  -15.7796   27.7194 C   0  0  0  0  0  0  0  0  0  0  0  0
   10.3494  -14.7527   28.6175 C   0  0  0  0  0  0  0  0  0  0  0  0
   10.6354  -14.9867   30.0751 C   0  0  0  0  0  0  0  0  0  0  0  0
    9.9743  -14.0041   30.9173 N   0  0  0  0  0  0  0  0  0  0  0  0
   12.1644  -17.5074   26.1583 C   0  0  0  0  0  0  0  0  0  0  0  0
   11.7060  -18.8001   26.2929 O   0  0  0  0  0  0  0  0  0  0  0  0
   13.2593  -17.2573   26.7777 O   0  0  0  0  0  0  0  0  0  0  0  0
  2  1  1  1
  2  4  1  0
  3  2  1  0
  4  5  1  0
  5  6  1  6
  7  5  1  0
  7  8  2  0
  9 10  1  0
 10 11  2  0
 10 12  1  0
 13 12  1  6
 13 14  1  0
 13 15  1  0
 14  7  1  0
 15 17  1  0
 16 15  2  0
 17 18  1  0
 18 24  1  0
 18 19  1  1
 20 19  1  0
 21 20  1  0
 22 21  1  0
 23 22  1  0
 24 26  2  0
 24 25  1  0
M  END
$$$$
