LNK.pdb
     RDKit          3D

 26 25  0  0  1  0  0  0  0  0999 V2000
    8.2143  -11.8336   25.5704 C   0  0  0  0  0  0  0  0  0  0  0  0
    7.2039  -12.9597   25.6258 C   0  0  1  0  0  0  0  0  0  0  0  0
    6.1060  -12.5641   26.5470 C   0  0  0  0  0  0  0  0  0  0  0  0
    6.7813  -13.3810   24.2631 C   0  0  0  0  0  0  0  0  0  0  0  0
    6.6994  -14.8384   24.0243 C   0  0  2  0  0  0  0  0  0  0  0  0
    6.8219  -15.6688   25.1829 N   0  0  0  0  0  0  0  0  0  0  0  0
    7.8141  -15.2220   23.1058 C   0  0  0  0  0  0  0  0  0  0  0  0
    8.1161  -14.3912   22.2126 O   0  0  0  0  0  0  0  0  0  0  0  0
   10.0455  -16.1308   19.1687 N   0  0  0  0  0  0  0  0  0  0  0  0
   10.7921  -16.0386   20.3927 C   0  0  0  0  0  0  0  0  0  0  0  0
   11.9818  -16.3877   20.3498 O   0  0  0  0  0  0  0  0  0  0  0  0
   10.1530  -15.5532   21.6150 C   0  0  0  0  0  0  0  0  0  0  0  0
    9.8219  -16.6678   22.5407 C   0  0  2  0  0  0  0  0  0  0  0  0
    8.5128  -16.4258   23.1935 N   0  0  0  0  0  0  0  0  0  0  0  0
   10.8084  -16.6278   23.6898 C   0  0  0  0  0  0  0  0  0  0  0  0
   11.8862  -17.2242   23.5876 O   0  0  0  0  0  0  0  0  0  0  0  0
   10.5354  -15.9216   24.8958 N   0  0  0  0  0  0  0  0  0  0  0  0
   11.4767  -15.9658   26.0268 C   0  0  1  0  0  0  0  0  0  0  0  0
   10.7448  -16.0592   27.3163 C   0  0  0  0  0  0  0  0  0  0  0  0
   11.6914  -16.1524   28.4780 C   0  0  0  0  0  0  0  0  0  0  0  0
   10.9238  -16.2652   29.7968 C   0  0  0  0  0  0  0  0  0  0  0  0
   11.8397  -16.4605   30.9732 C   0  0  0  0  0  0  0  0  0  0  0  0
   11.0973  -16.7141   32.1965 N   0  0  0  0  0  0  0  0  0  0  0  0
   12.4182  -17.0901   25.8446 C   0  0  0  0  0  0  0  0  0  0  0  0
   12.0823  -18.4251   25.7787 O   0  0  0  0  0  0  0  0  0  0  0  0
   13.6725  -16.8446   25.7364 O   0  0  0  0  0  0  0  0  0  0  0  0
  2  1  1  6
  2  4  1  0
  3  2  1  0
  4  5  1  0
  5  6  1  1
  7  5  1  0
  7  8  2  0
  9 10  1  0
 10 11  2  0
 10 12  1  0
 13 12  1  6
 13 14  1  0
 13 15  1  0
 14  7  1  0
 15 17  1  0
 16 15  2  0
 17 18  1  0
 18 24  1  0
 18 19  1  1
 20 19  1  0
 21 20  1  0
 22 21  1  0
 23 22  1  0
 24 26  2  0
 24 25  1  0
M  END
$$$$
