LNK.pdb
     RDKit          3D

 26 25  0  0  1  0  0  0  0  0999 V2000
    6.8871  -13.1484   19.3483 C   0  0  0  0  0  0  0  0  0  0  0  0
    8.3802  -12.9258   19.2339 C   0  0  1  0  0  0  0  0  0  0  0  0
    8.7484  -11.7538   20.0715 C   0  0  0  0  0  0  0  0  0  0  0  0
    9.1404  -14.1755   19.5046 C   0  0  0  0  0  0  0  0  0  0  0  0
   10.4069  -14.0223   20.2531 C   0  0  2  0  0  0  0  0  0  0  0  0
   11.3086  -13.0280   19.7579 N   0  0  0  0  0  0  0  0  0  0  0  0
   11.1384  -15.3245   20.1999 C   0  0  0  0  0  0  0  0  0  0  0  0
   10.4754  -16.3524   20.4885 O   0  0  0  0  0  0  0  0  0  0  0  0
   14.5389  -19.0476   18.2694 N   0  0  0  0  0  0  0  0  0  0  0  0
   15.1440  -17.8858   18.8596 C   0  0  0  0  0  0  0  0  0  0  0  0
   16.2992  -18.0160   19.2929 O   0  0  0  0  0  0  0  0  0  0  0  0
   14.4086  -16.6241   18.9325 C   0  0  0  0  0  0  0  0  0  0  0  0
   13.2076  -16.7386   19.8004 C   0  0  2  0  0  0  0  0  0  0  0  0
   12.4842  -15.4454   19.8550 N   0  0  0  0  0  0  0  0  0  0  0  0
   13.6799  -16.9455   21.2249 C   0  0  0  0  0  0  0  0  0  0  0  0
   14.3455  -16.0639   21.7794 O   0  0  0  0  0  0  0  0  0  0  0  0
   13.3826  -18.1315   21.9547 N   0  0  0  0  0  0  0  0  0  0  0  0
   13.8016  -18.2799   23.3582 C   0  0  1  0  0  0  0  0  0  0  0  0
   12.7909  -19.0482   24.1298 C   0  0  0  0  0  0  0  0  0  0  0  0
   12.5925  -20.4218   23.5569 C   0  0  0  0  0  0  0  0  0  0  0  0
   11.5602  -21.2058   24.3700 C   0  0  0  0  0  0  0  0  0  0  0  0
   11.2749  -22.5571   23.7754 C   0  0  0  0  0  0  0  0  0  0  0  0
   10.3848  -23.3383   24.6177 N   0  0  0  0  0  0  0  0  0  0  0  0
   15.1354  -18.9135   23.4130 C   0  0  0  0  0  0  0  0  0  0  0  0
   15.9701  -18.9503   24.5091 O   0  0  0  0  0  0  0  0  0  0  0  0
   15.5974  -19.4910   22.3650 O   0  0  0  0  0  0  0  0  0  0  0  0
  2  1  1  1
  2  4  1  0
  3  2  1  0
  4  5  1  0
  5  6  1  6
  7  5  1  0
  7  8  2  0
  9 10  1  0
 10 11  2  0
 10 12  1  0
 13 12  1  6
 13 14  1  0
 13 15  1  0
 14  7  1  0
 15 17  1  0
 16 15  2  0
 17 18  1  0
 18 24  1  0
 18 19  1  1
 20 19  1  0
 21 20  1  0
 22 21  1  0
 23 22  1  0
 24 26  2  0
 24 25  1  0
M  END
$$$$
