LNK.pdb
     RDKit          3D

 26 25  0  0  1  0  0  0  0  0999 V2000
    6.3929  -12.7861   19.8170 C   0  0  0  0  0  0  0  0  0  0  0  0
    7.7640  -13.4278   19.8315 C   0  0  1  0  0  0  0  0  0  0  0  0
    8.7840  -12.3672   19.6188 C   0  0  0  0  0  0  0  0  0  0  0  0
    7.9572  -14.2747   21.0391 C   0  0  0  0  0  0  0  0  0  0  0  0
    9.3293  -14.7735   21.2763 C   0  0  2  0  0  0  0  0  0  0  0  0
    9.9012  -15.5534   20.2219 N   0  0  0  0  0  0  0  0  0  0  0  0
    9.3024  -15.6493   22.4871 C   0  0  0  0  0  0  0  0  0  0  0  0
    8.2622  -15.6017   23.1907 O   0  0  0  0  0  0  0  0  0  0  0  0
   12.2720  -19.3488   21.7822 N   0  0  0  0  0  0  0  0  0  0  0  0
   11.2068  -19.2480   22.7410 C   0  0  0  0  0  0  0  0  0  0  0  0
   10.1707  -19.8844   22.4949 O   0  0  0  0  0  0  0  0  0  0  0  0
   11.3653  -18.4264   23.9402 C   0  0  0  0  0  0  0  0  0  0  0  0
   10.3053  -17.3893   24.0385 C   0  0  2  0  0  0  0  0  0  0  0  0
   10.3498  -16.4914   22.8595 N   0  0  0  0  0  0  0  0  0  0  0  0
   10.6521  -16.4770   25.1973 C   0  0  0  0  0  0  0  0  0  0  0  0
   11.7423  -15.8946   25.2080 O   0  0  0  0  0  0  0  0  0  0  0  0
    9.7588  -16.2651   26.2857 N   0  0  0  0  0  0  0  0  0  0  0  0
   10.1286  -15.3848   27.4062 C   0  0  1  0  0  0  0  0  0  0  0  0
    8.9847  -14.5202   27.7948 C   0  0  0  0  0  0  0  0  0  0  0  0
    8.5142  -13.6828   26.6408 C   0  0  0  0  0  0  0  0  0  0  0  0
    7.3015  -12.8394   27.0401 C   0  0  0  0  0  0  0  0  0  0  0  0
    6.8378  -11.9453   25.9235 C   0  0  0  0  0  0  0  0  0  0  0  0
    5.6264  -11.2255   26.2788 N   0  0  0  0  0  0  0  0  0  0  0  0
   10.6125  -16.2009   28.5391 C   0  0  0  0  0  0  0  0  0  0  0  0
   11.2829  -15.7309   29.6477 O   0  0  0  0  0  0  0  0  0  0  0  0
   10.4132  -17.4679   28.5276 O   0  0  0  0  0  0  0  0  0  0  0  0
  2  1  1  1
  2  4  1  0
  3  2  1  0
  4  5  1  0
  5  6  1  6
  7  5  1  0
  7  8  2  0
  9 10  1  0
 10 11  2  0
 10 12  1  0
 13 12  1  6
 13 14  1  0
 13 15  1  0
 14  7  1  0
 15 17  1  0
 16 15  2  0
 17 18  1  0
 18 24  1  0
 18 19  1  1
 20 19  1  0
 21 20  1  0
 22 21  1  0
 23 22  1  0
 24 26  2  0
 24 25  1  0
M  END
$$$$
