LNK.pdb
     RDKit          3D

 26 25  0  0  1  0  0  0  0  0999 V2000
    8.2962  -12.0150   19.1869 C   0  0  0  0  0  0  0  0  0  0  0  0
    7.5464  -13.3157   19.3820 C   0  0  1  0  0  0  0  0  0  0  0  0
    7.8901  -14.2314   18.2622 C   0  0  0  0  0  0  0  0  0  0  0  0
    7.7524  -13.8643   20.7494 C   0  0  0  0  0  0  0  0  0  0  0  0
    6.9573  -15.0608   21.1014 C   0  0  2  0  0  0  0  0  0  0  0  0
    5.5386  -14.8790   21.1387 N   0  0  0  0  0  0  0  0  0  0  0  0
    7.3657  -15.5040   22.4690 C   0  0  0  0  0  0  0  0  0  0  0  0
    7.0592  -14.7423   23.4203 O   0  0  0  0  0  0  0  0  0  0  0  0
    7.1468  -18.4945   27.0770 N   0  0  0  0  0  0  0  0  0  0  0  0
    7.9641  -18.6629   25.9075 C   0  0  0  0  0  0  0  0  0  0  0  0
    9.0393  -19.2632   26.0583 O   0  0  0  0  0  0  0  0  0  0  0  0
    7.5235  -18.1407   24.6147 C   0  0  0  0  0  0  0  0  0  0  0  0
    8.4670  -17.1223   24.0842 C   0  0  2  0  0  0  0  0  0  0  0  0
    8.0520  -16.6902   22.7279 N   0  0  0  0  0  0  0  0  0  0  0  0
    9.8018  -17.8001   23.8517 C   0  0  0  0  0  0  0  0  0  0  0  0
    9.9425  -18.5494   22.8788 O   0  0  0  0  0  0  0  0  0  0  0  0
   10.9109  -17.6038   24.7230 N   0  0  0  0  0  0  0  0  0  0  0  0
   12.2374  -17.2525   24.1900 C   0  0  1  0  0  0  0  0  0  0  0  0
   12.1478  -16.0701   23.2951 C   0  0  0  0  0  0  0  0  0  0  0  0
   12.4809  -16.4305   21.8762 C   0  0  0  0  0  0  0  0  0  0  0  0
   12.5121  -15.1825   20.9914 C   0  0  0  0  0  0  0  0  0  0  0  0
   12.7134  -15.5191   19.5398 C   0  0  0  0  0  0  0  0  0  0  0  0
   12.6019  -14.3423   18.6944 N   0  0  0  0  0  0  0  0  0  0  0  0
   13.1773  -17.0278   25.3080 C   0  0  0  0  0  0  0  0  0  0  0  0
   12.9213  -16.2941   26.4461 O   0  0  0  0  0  0  0  0  0  0  0  0
   14.3505  -17.5432   25.2523 O   0  0  0  0  0  0  0  0  0  0  0  0
  2  1  1  6
  2  4  1  0
  3  2  1  0
  4  5  1  0
  5  6  1  1
  7  5  1  0
  7  8  2  0
  9 10  1  0
 10 11  2  0
 10 12  1  0
 13 12  1  6
 13 14  1  0
 13 15  1  0
 14  7  1  0
 15 17  1  0
 16 15  2  0
 17 18  1  0
 18 24  1  0
 18 19  1  1
 20 19  1  0
 21 20  1  0
 22 21  1  0
 23 22  1  0
 24 26  2  0
 24 25  1  0
M  END
$$$$
