LNK.pdb
     RDKit          3D

 26 25  0  0  1  0  0  0  0  0999 V2000
    6.6026  -13.6147   18.2531 C   0  0  0  0  0  0  0  0  0  0  0  0
    7.8968  -12.9665   18.6968 C   0  0  1  0  0  0  0  0  0  0  0  0
    7.5823  -11.9398   19.7251 C   0  0  0  0  0  0  0  0  0  0  0  0
    8.9093  -13.9831   19.0897 C   0  0  0  0  0  0  0  0  0  0  0  0
   10.1070  -13.4760   19.7942 C   0  0  2  0  0  0  0  0  0  0  0  0
   10.7783  -12.3762   19.1722 N   0  0  0  0  0  0  0  0  0  0  0  0
   11.1014  -14.5884   19.8796 C   0  0  0  0  0  0  0  0  0  0  0  0
   10.6412  -15.7361   20.1040 O   0  0  0  0  0  0  0  0  0  0  0  0
   14.6833  -13.9294   16.8428 N   0  0  0  0  0  0  0  0  0  0  0  0
   14.5078  -15.1395   17.5969 C   0  0  0  0  0  0  0  0  0  0  0  0
   14.1900  -16.1550   16.9589 O   0  0  0  0  0  0  0  0  0  0  0  0
   14.7011  -15.1435   19.0463 C   0  0  0  0  0  0  0  0  0  0  0  0
   13.4571  -15.5252   19.7645 C   0  0  2  0  0  0  0  0  0  0  0  0
   12.4765  -14.4138   19.7263 N   0  0  0  0  0  0  0  0  0  0  0  0
   13.7910  -15.6584   21.2362 C   0  0  0  0  0  0  0  0  0  0  0  0
   14.2047  -14.6735   21.8579 O   0  0  0  0  0  0  0  0  0  0  0  0
   13.6447  -16.8901   21.9357 N   0  0  0  0  0  0  0  0  0  0  0  0
   13.9571  -16.9854   23.3712 C   0  0  1  0  0  0  0  0  0  0  0  0
   13.1391  -18.0437   24.0178 C   0  0  0  0  0  0  0  0  0  0  0  0
   13.4176  -18.1279   25.4908 C   0  0  0  0  0  0  0  0  0  0  0  0
   12.5039  -19.1577   26.1586 C   0  0  0  0  0  0  0  0  0  0  0  0
   12.7286  -19.2397   27.6431 C   0  0  0  0  0  0  0  0  0  0  0  0
   11.7671  -20.1204   28.2848 N   0  0  0  0  0  0  0  0  0  0  0  0
   15.4048  -17.2220   23.5489 C   0  0  0  0  0  0  0  0  0  0  0  0
   16.2513  -17.7948   22.6245 O   0  0  0  0  0  0  0  0  0  0  0  0
   15.9640  -16.8799   24.6514 O   0  0  0  0  0  0  0  0  0  0  0  0
  2  1  1  1
  2  4  1  0
  3  2  1  0
  4  5  1  0
  5  6  1  6
  7  5  1  0
  7  8  2  0
  9 10  1  0
 10 11  2  0
 10 12  1  0
 13 12  1  6
 13 14  1  0
 13 15  1  0
 14  7  1  0
 15 17  1  0
 16 15  2  0
 17 18  1  0
 18 24  1  0
 18 19  1  6
 20 19  1  0
 21 20  1  0
 22 21  1  0
 23 22  1  0
 24 26  2  0
 24 25  1  0
M  END
$$$$
