LNK.pdb
     RDKit          3D

 26 25  0  0  1  0  0  0  0  0999 V2000
    8.2029  -11.9530   19.1561 C   0  0  0  0  0  0  0  0  0  0  0  0
    7.9051  -13.3439   19.6745 C   0  0  1  0  0  0  0  0  0  0  0  0
    8.3110  -14.3307   18.6391 C   0  0  0  0  0  0  0  0  0  0  0  0
    8.4827  -13.5566   21.0288 C   0  0  0  0  0  0  0  0  0  0  0  0
    8.1809  -14.8534   21.6731 C   0  0  2  0  0  0  0  0  0  0  0  0
    6.8208  -15.2898   21.5912 N   0  0  0  0  0  0  0  0  0  0  0  0
    8.5033  -14.7356   23.1276 C   0  0  0  0  0  0  0  0  0  0  0  0
    9.6998  -14.4843   23.4184 O   0  0  0  0  0  0  0  0  0  0  0  0
    5.7613  -11.9290   25.9947 N   0  0  0  0  0  0  0  0  0  0  0  0
    6.9067  -12.7339   26.3175 C   0  0  0  0  0  0  0  0  0  0  0  0
    7.9644  -12.1311   26.5566 O   0  0  0  0  0  0  0  0  0  0  0  0
    6.8006  -14.1918   26.3545 C   0  0  0  0  0  0  0  0  0  0  0  0
    7.8971  -14.8411   25.5898 C   0  0  2  0  0  0  0  0  0  0  0  0
    7.5628  -14.8883   24.1460 N   0  0  0  0  0  0  0  0  0  0  0  0
    7.9468  -16.3002   25.9942 C   0  0  0  0  0  0  0  0  0  0  0  0
    7.0245  -17.0545   25.6653 O   0  0  0  0  0  0  0  0  0  0  0  0
    9.0281  -16.8390   26.7481 N   0  0  0  0  0  0  0  0  0  0  0  0
    9.6089  -18.1479   26.4065 C   0  0  1  0  0  0  0  0  0  0  0  0
   10.1208  -18.1477   25.0119 C   0  0  0  0  0  0  0  0  0  0  0  0
   10.6774  -19.4896   24.6325 C   0  0  0  0  0  0  0  0  0  0  0  0
   11.2149  -19.4697   23.2000 C   0  0  0  0  0  0  0  0  0  0  0  0
   11.7434  -20.8108   22.7720 C   0  0  0  0  0  0  0  0  0  0  0  0
   12.3852  -20.7453   21.4698 N   0  0  0  0  0  0  0  0  0  0  0  0
   10.6651  -18.4911   27.3813 C   0  0  0  0  0  0  0  0  0  0  0  0
   11.4722  -17.5961   28.0497 O   0  0  0  0  0  0  0  0  0  0  0  0
   10.8852  -19.7243   27.6571 O   0  0  0  0  0  0  0  0  0  0  0  0
  2  1  1  6
  2  4  1  0
  3  2  1  0
  4  5  1  0
  5  6  1  1
  7  5  1  0
  7  8  2  0
  9 10  1  0
 10 11  2  0
 10 12  1  0
 13 12  1  1
 13 14  1  0
 13 15  1  0
 14  7  1  0
 15 17  1  0
 16 15  2  0
 17 18  1  0
 18 24  1  0
 18 19  1  6
 20 19  1  0
 21 20  1  0
 22 21  1  0
 23 22  1  0
 24 26  2  0
 24 25  1  0
M  END
$$$$
