LNK.pdb
     RDKit          3D

 26 25  0  0  1  0  0  0  0  0999 V2000
    7.6352  -12.4378   21.7791 C   0  0  0  0  0  0  0  0  0  0  0  0
    7.6924  -13.5464   20.7497 C   0  0  1  0  0  0  0  0  0  0  0  0
    8.1729  -12.9732   19.4648 C   0  0  0  0  0  0  0  0  0  0  0  0
    8.4519  -14.7215   21.2551 C   0  0  0  0  0  0  0  0  0  0  0  0
    8.5040  -15.9003   20.3633 C   0  0  2  0  0  0  0  0  0  0  0  0
    7.2581  -16.5656   20.1343 N   0  0  0  0  0  0  0  0  0  0  0  0
    9.4182  -16.9091   20.9796 C   0  0  0  0  0  0  0  0  0  0  0  0
    8.8718  -17.8721   21.5741 O   0  0  0  0  0  0  0  0  0  0  0  0
   13.3484  -18.1608   18.3528 N   0  0  0  0  0  0  0  0  0  0  0  0
   12.7508  -18.6440   19.5667 C   0  0  0  0  0  0  0  0  0  0  0  0
   12.0501  -19.6639   19.4777 O   0  0  0  0  0  0  0  0  0  0  0  0
   12.9756  -17.9458   20.8317 C   0  0  0  0  0  0  0  0  0  0  0  0
   11.7151  -17.7898   21.6036 C   0  0  2  0  0  0  0  0  0  0  0  0
   10.8096  -16.8308   20.9262 N   0  0  0  0  0  0  0  0  0  0  0  0
   12.0515  -17.1028   22.9112 C   0  0  0  0  0  0  0  0  0  0  0  0
   13.2214  -16.7798   23.1455 O   0  0  0  0  0  0  0  0  0  0  0  0
   11.0586  -16.8138   23.8902 N   0  0  0  0  0  0  0  0  0  0  0  0
   11.4296  -16.2520   25.1994 C   0  0  1  0  0  0  0  0  0  0  0  0
   10.2442  -15.6613   25.8726 C   0  0  0  0  0  0  0  0  0  0  0  0
   10.6084  -15.0694   27.2035 C   0  0  0  0  0  0  0  0  0  0  0  0
    9.3785  -14.4653   27.8845 C   0  0  0  0  0  0  0  0  0  0  0  0
    9.7165  -13.8178   29.1988 C   0  0  0  0  0  0  0  0  0  0  0  0
    8.5651  -13.1486   29.7805 N   0  0  0  0  0  0  0  0  0  0  0  0
   12.0680  -17.2981   26.0250 C   0  0  0  0  0  0  0  0  0  0  0  0
   11.5938  -18.5772   26.2205 O   0  0  0  0  0  0  0  0  0  0  0  0
   13.1643  -17.0313   26.6350 O   0  0  0  0  0  0  0  0  0  0  0  0
  2  1  1  1
  2  4  1  0
  3  2  1  0
  4  5  1  0
  5  6  1  1
  7  5  1  0
  7  8  2  0
  9 10  1  0
 10 11  2  0
 10 12  1  0
 13 12  1  6
 13 14  1  0
 13 15  1  0
 14  7  1  0
 15 17  1  0
 16 15  2  0
 17 18  1  0
 18 24  1  0
 18 19  1  1
 20 19  1  0
 21 20  1  0
 22 21  1  0
 23 22  1  0
 24 26  2  0
 24 25  1  0
M  END
$$$$
