LNK.pdb
     RDKit          3D

 26 25  0  0  1  0  0  0  0  0999 V2000
    6.1723  -10.9212   25.9092 C   0  0  0  0  0  0  0  0  0  0  0  0
    6.8985  -12.2011   26.2648 C   0  0  1  0  0  0  0  0  0  0  0  0
    6.6798  -12.4826   27.7083 C   0  0  0  0  0  0  0  0  0  0  0  0
    6.5462  -13.3054   25.3324 C   0  0  0  0  0  0  0  0  0  0  0  0
    7.5315  -14.4022   25.2144 C   0  0  2  0  0  0  0  0  0  0  0  0
    8.8940  -14.0477   25.4697 N   0  0  0  0  0  0  0  0  0  0  0  0
    7.4822  -14.9224   23.8143 C   0  0  0  0  0  0  0  0  0  0  0  0
    6.3906  -15.4188   23.4385 O   0  0  0  0  0  0  0  0  0  0  0  0
    7.6009  -12.1618   20.6933 N   0  0  0  0  0  0  0  0  0  0  0  0
    7.4847  -13.5793   20.4898 C   0  0  0  0  0  0  0  0  0  0  0  0
    6.3457  -14.0220   20.2755 O   0  0  0  0  0  0  0  0  0  0  0  0
    8.6700  -14.4340   20.5390 C   0  0  0  0  0  0  0  0  0  0  0  0
    8.5435  -15.4878   21.5794 C   0  0  2  0  0  0  0  0  0  0  0  0
    8.5623  -14.8827   22.9329 N   0  0  0  0  0  0  0  0  0  0  0  0
    9.8026  -16.3296   21.5455 C   0  0  0  0  0  0  0  0  0  0  0  0
   10.3817  -16.5152   20.4694 O   0  0  0  0  0  0  0  0  0  0  0  0
   10.3477  -16.9215   22.7204 N   0  0  0  0  0  0  0  0  0  0  0  0
   11.7470  -17.3774   22.7572 C   0  0  1  0  0  0  0  0  0  0  0  0
   12.6683  -16.2771   22.3730 C   0  0  0  0  0  0  0  0  0  0  0  0
   12.9199  -16.2649   20.8928 C   0  0  0  0  0  0  0  0  0  0  0  0
   13.9044  -15.1551   20.5180 C   0  0  0  0  0  0  0  0  0  0  0  0
   14.0757  -15.0254   19.0297 C   0  0  0  0  0  0  0  0  0  0  0  0
   14.7883  -13.8097   18.6744 N   0  0  0  0  0  0  0  0  0  0  0  0
   12.0584  -17.9142   24.0982 C   0  0  0  0  0  0  0  0  0  0  0  0
   11.2240  -17.8885   25.1947 O   0  0  0  0  0  0  0  0  0  0  0  0
   13.2008  -18.4601   24.3038 O   0  0  0  0  0  0  0  0  0  0  0  0
  2  1  1  6
  2  4  1  0
  3  2  1  0
  4  5  1  0
  5  6  1  6
  7  5  1  0
  7  8  2  0
  9 10  1  0
 10 11  2  0
 10 12  1  0
 13 12  1  6
 13 14  1  0
 13 15  1  0
 14  7  1  0
 15 17  1  0
 16 15  2  0
 17 18  1  0
 18 24  1  0
 18 19  1  1
 20 19  1  0
 21 20  1  0
 22 21  1  0
 23 22  1  0
 24 26  2  0
 24 25  1  0
M  END
$$$$
