LNK.pdb
     RDKit          3D

 26 25  0  0  1  0  0  0  0  0999 V2000
    7.8484  -11.6627   25.9690 C   0  0  0  0  0  0  0  0  0  0  0  0
    6.6469  -12.5190   26.3084 C   0  0  1  0  0  0  0  0  0  0  0  0
    5.5897  -11.6438   26.8801 C   0  0  0  0  0  0  0  0  0  0  0  0
    6.2325  -13.3597   25.1532 C   0  0  0  0  0  0  0  0  0  0  0  0
    6.7532  -14.7440   25.1306 C   0  0  2  0  0  0  0  0  0  0  0  0
    7.8042  -15.0309   26.0581 N   0  0  0  0  0  0  0  0  0  0  0  0
    7.3041  -15.0109   23.7672 C   0  0  0  0  0  0  0  0  0  0  0  0
    6.5461  -14.7592   22.7969 O   0  0  0  0  0  0  0  0  0  0  0  0
    7.2797  -13.1951   20.1912 N   0  0  0  0  0  0  0  0  0  0  0  0
    7.9610  -14.4263   20.4812 C   0  0  0  0  0  0  0  0  0  0  0  0
    7.5361  -15.4467   19.9177 O   0  0  0  0  0  0  0  0  0  0  0  0
    9.0976  -14.4449   21.4009 C   0  0  0  0  0  0  0  0  0  0  0  0
    9.1542  -15.7109   22.1774 C   0  0  2  0  0  0  0  0  0  0  0  0
    8.5838  -15.5126   23.5315 N   0  0  0  0  0  0  0  0  0  0  0  0
   10.6111  -16.0285   22.4451 C   0  0  0  0  0  0  0  0  0  0  0  0
   11.3929  -16.1456   21.4949 O   0  0  0  0  0  0  0  0  0  0  0  0
   11.1170  -16.1998   23.7651 N   0  0  0  0  0  0  0  0  0  0  0  0
   11.9317  -17.3749   24.1154 C   0  0  1  0  0  0  0  0  0  0  0  0
   11.1184  -18.3780   24.8499 C   0  0  0  0  0  0  0  0  0  0  0  0
   11.8552  -18.9121   26.0442 C   0  0  0  0  0  0  0  0  0  0  0  0
   10.8950  -19.1571   27.2101 C   0  0  0  0  0  0  0  0  0  0  0  0
   11.6178  -19.5443   28.4706 C   0  0  0  0  0  0  0  0  0  0  0  0
   10.6967  -19.7637   29.5730 N   0  0  0  0  0  0  0  0  0  0  0  0
   12.5342  -17.9430   22.8916 C   0  0  0  0  0  0  0  0  0  0  0  0
   13.8573  -17.8433   22.5188 O   0  0  0  0  0  0  0  0  0  0  0  0
   11.7918  -18.5939   22.0727 O   0  0  0  0  0  0  0  0  0  0  0  0
  2  1  1  6
  2  4  1  0
  3  2  1  0
  4  5  1  0
  5  6  1  1
  7  5  1  0
  7  8  2  0
  9 10  1  0
 10 11  2  0
 10 12  1  0
 13 12  1  6
 13 14  1  0
 13 15  1  0
 14  7  1  0
 15 17  1  0
 16 15  2  0
 17 18  1  0
 18 24  1  0
 18 19  1  6
 20 19  1  0
 21 20  1  0
 22 21  1  0
 23 22  1  0
 24 26  2  0
 24 25  1  0
M  END
$$$$
