LNK.pdb
     RDKit          3D

 26 25  0  0  1  0  0  0  0  0999 V2000
    5.4607  -10.8267   25.1339 C   0  0  0  0  0  0  0  0  0  0  0  0
    6.3844  -11.7906   25.8478 C   0  0  1  0  0  0  0  0  0  0  0  0
    6.3343  -11.5008   27.3052 C   0  0  0  0  0  0  0  0  0  0  0  0
    6.1066  -13.2000   25.4612 C   0  0  0  0  0  0  0  0  0  0  0  0
    7.1719  -14.1824   25.7577 C   0  0  2  0  0  0  0  0  0  0  0  0
    8.4027  -13.6404   26.2460 N   0  0  0  0  0  0  0  0  0  0  0  0
    7.4986  -14.9091   24.4934 C   0  0  0  0  0  0  0  0  0  0  0  0
    6.5669  -15.5698   23.9693 O   0  0  0  0  0  0  0  0  0  0  0  0
    7.5597  -13.0868   20.5953 N   0  0  0  0  0  0  0  0  0  0  0  0
    7.9390  -14.4419   20.8849 C   0  0  0  0  0  0  0  0  0  0  0  0
    7.1224  -15.3271   20.5868 O   0  0  0  0  0  0  0  0  0  0  0  0
    9.2322  -14.7331   21.5022 C   0  0  0  0  0  0  0  0  0  0  0  0
    9.0918  -15.6511   22.6625 C   0  0  2  0  0  0  0  0  0  0  0  0
    8.7548  -14.8873   23.8879 N   0  0  0  0  0  0  0  0  0  0  0  0
   10.4581  -16.2310   22.9659 C   0  0  0  0  0  0  0  0  0  0  0  0
   11.4229  -15.4719   23.1100 O   0  0  0  0  0  0  0  0  0  0  0  0
   10.6730  -17.6330   23.0913 N   0  0  0  0  0  0  0  0  0  0  0  0
   12.0177  -18.1705   23.3565 C   0  0  1  0  0  0  0  0  0  0  0  0
   11.9374  -19.4033   24.1816 C   0  0  0  0  0  0  0  0  0  0  0  0
   11.6159  -19.0844   25.6131 C   0  0  0  0  0  0  0  0  0  0  0  0
   11.5001  -20.3651   26.4424 C   0  0  0  0  0  0  0  0  0  0  0  0
   11.0896  -20.0882   27.8623 C   0  0  0  0  0  0  0  0  0  0  0  0
   10.7526  -21.3104   28.5727 N   0  0  0  0  0  0  0  0  0  0  0  0
   12.7179  -18.4081   22.0771 C   0  0  0  0  0  0  0  0  0  0  0  0
   14.0552  -18.1828   21.8317 O   0  0  0  0  0  0  0  0  0  0  0  0
   12.0562  -18.8628   21.0768 O   0  0  0  0  0  0  0  0  0  0  0  0
  2  1  1  6
  2  4  1  0
  3  2  1  0
  4  5  1  0
  5  6  1  6
  7  5  1  0
  7  8  2  0
  9 10  1  0
 10 11  2  0
 10 12  1  0
 13 12  1  6
 13 14  1  0
 13 15  1  0
 14  7  1  0
 15 17  1  0
 16 15  2  0
 17 18  1  0
 18 24  1  0
 18 19  1  6
 20 19  1  0
 21 20  1  0
 22 21  1  0
 23 22  1  0
 24 26  2  0
 24 25  1  0
M  END
$$$$
