VAK.pdb
     RDKit          3D

 22 21  0  0  1  0  0  0  0  0999 V2000
    8.8155  -18.6557   22.7185 C   0  0  0  0  0  0  0  0  0  0  0  0
    7.7624  -17.9461   21.8946 C   0  0  2  0  0  0  0  0  0  0  0  0
    7.4729  -18.8154   20.6847 C   0  0  0  0  0  0  0  0  0  0  0  0
    8.2705  -16.6149   21.3770 C   0  0  2  0  0  0  0  0  0  0  0  0
    9.3193  -16.8952   20.4306 N   0  0  0  0  0  0  0  0  0  0  0  0
    8.7264  -15.7316   22.4647 C   0  0  0  0  0  0  0  0  0  0  0  0
    9.8816  -15.8667   22.9221 O   0  0  0  0  0  0  0  0  0  0  0  0
    7.2436  -12.7916   24.3436 C   0  0  0  0  0  0  0  0  0  0  0  0
    8.2438  -13.9051   24.1116 C   0  0  2  0  0  0  0  0  0  0  0  0
    7.8690  -14.7389   22.9897 N   0  0  0  0  0  0  0  0  0  0  0  0
    8.4493  -14.7269   25.3431 C   0  0  0  0  0  0  0  0  0  0  0  0
    7.5970  -15.5795   25.6956 O   0  0  0  0  0  0  0  0  0  0  0  0
    9.6005  -14.5786   26.1527 N   0  0  0  0  0  0  0  0  0  0  0  0
    9.7853  -15.3219   27.4066 C   0  0  1  0  0  0  0  0  0  0  0  0
   11.0639  -16.0968   27.2569 C   0  0  0  0  0  0  0  0  0  0  0  0
   11.0262  -17.1576   26.1858 C   0  0  0  0  0  0  0  0  0  0  0  0
   12.3831  -17.7923   26.0659 C   0  0  0  0  0  0  0  0  0  0  0  0
   12.4947  -18.8691   25.0542 C   0  0  0  0  0  0  0  0  0  0  0  0
   13.7925  -19.4447   24.9146 N   0  0  0  0  0  0  0  0  0  0  0  0
    9.8379  -14.3439   28.5136 C   0  0  0  0  0  0  0  0  0  0  0  0
    9.7893  -14.7780   29.8405 O   0  0  0  0  0  0  0  0  0  0  0  0
    9.9258  -13.1159   28.3366 O   0  0  0  0  0  0  0  0  0  0  0  0
  2  1  1  1
  2  3  1  0
  4  2  1  0
  4  6  1  0
  4  5  1  6
  6  7  2  0
  6 10  1  0
  9  8  1  1
 10  9  1  0
 11 13  1  0
 11  9  1  0
 12 11  2  0
 14 20  1  0
 14 13  1  0
 14 15  1  6
 16 15  1  0
 17 16  1  0
 18 17  1  0
 19 18  1  0
 20 21  1  0
 22 20  2  0
M  END
$$$$
