VAK.pdb
     RDKit          3D

 22 21  0  0  1  0  0  0  0  0999 V2000
   14.6624  -23.4010   30.0732 C   0  0  0  0  0  0  0  0  0  0  0  0
   13.6996  -24.4124   30.6576 C   0  0  2  0  0  0  0  0  0  0  0  0
   12.6288  -24.6730   29.6140 C   0  0  0  0  0  0  0  0  0  0  0  0
   13.0016  -23.8643   31.8867 C   0  0  2  0  0  0  0  0  0  0  0  0
   12.2148  -22.7343   31.4646 N   0  0  0  0  0  0  0  0  0  0  0  0
   13.9521  -23.5102   32.9555 C   0  0  0  0  0  0  0  0  0  0  0  0
   14.2796  -22.3147   33.1148 O   0  0  0  0  0  0  0  0  0  0  0  0
   15.3802  -25.2934   35.9435 C   0  0  0  0  0  0  0  0  0  0  0  0
   15.3828  -24.2016   34.8937 C   0  0  2  0  0  0  0  0  0  0  0  0
   14.4917  -24.5097   33.7958 N   0  0  0  0  0  0  0  0  0  0  0  0
   16.7637  -23.9172   34.3975 C   0  0  0  0  0  0  0  0  0  0  0  0
   17.1481  -24.3526   33.2839 O   0  0  0  0  0  0  0  0  0  0  0  0
   17.6837  -23.1538   35.1548 N   0  0  0  0  0  0  0  0  0  0  0  0
   19.0600  -22.9027   34.7058 C   0  0  1  0  0  0  0  0  0  0  0  0
   19.6818  -21.9943   35.7285 C   0  0  0  0  0  0  0  0  0  0  0  0
   19.1528  -20.5822   35.7090 C   0  0  0  0  0  0  0  0  0  0  0  0
   19.7873  -19.7976   36.8227 C   0  0  0  0  0  0  0  0  0  0  0  0
   19.4073  -18.3671   36.8900 C   0  0  0  0  0  0  0  0  0  0  0  0
   19.8809  -17.6619   38.0361 N   0  0  0  0  0  0  0  0  0  0  0  0
   19.7520  -24.2049   34.6046 C   0  0  0  0  0  0  0  0  0  0  0  0
   19.3142  -25.2962   35.3588 O   0  0  0  0  0  0  0  0  0  0  0  0
   20.7334  -24.4012   33.8662 O   0  0  0  0  0  0  0  0  0  0  0  0
  2  1  1  6
  2  3  1  0
  4  2  1  0
  4  6  1  0
  4  5  1  6
  6  7  2  0
  6 10  1  0
  9  8  1  1
 10  9  1  0
 11 13  1  0
 11  9  1  0
 12 11  2  0
 14 20  1  0
 14 13  1  0
 14 15  1  1
 16 15  1  0
 17 16  1  0
 18 17  1  0
 19 18  1  0
 20 21  1  0
 22 20  2  0
M  END
$$$$
