VAK.pdb
     RDKit          3D

 22 21  0  0  1  0  0  0  0  0999 V2000
    7.3234  -12.7245   20.1060 C   0  0  0  0  0  0  0  0  0  0  0  0
    8.5112  -13.3242   19.3844 C   0  0  2  0  0  0  0  0  0  0  0  0
    8.0816  -13.5965   17.9544 C   0  0  0  0  0  0  0  0  0  0  0  0
    8.9122  -14.6543   19.9913 C   0  0  2  0  0  0  0  0  0  0  0  0
    7.8154  -15.5656   19.7892 N   0  0  0  0  0  0  0  0  0  0  0  0
    9.2755  -14.5304   21.4139 C   0  0  0  0  0  0  0  0  0  0  0  0
   10.3577  -13.9891   21.7265 O   0  0  0  0  0  0  0  0  0  0  0  0
    7.4790  -14.7524   24.6731 C   0  0  0  0  0  0  0  0  0  0  0  0
    8.7259  -14.9148   23.8289 C   0  0  2  0  0  0  0  0  0  0  0  0
    8.4115  -15.0178   22.4200 N   0  0  0  0  0  0  0  0  0  0  0  0
    9.5489  -16.0784   24.2792 C   0  0  0  0  0  0  0  0  0  0  0  0
    9.8772  -16.2043   25.4850 O   0  0  0  0  0  0  0  0  0  0  0  0
    9.9865  -17.0745   23.3743 N   0  0  0  0  0  0  0  0  0  0  0  0
   10.7578  -18.2487   23.8045 C   0  0  1  0  0  0  0  0  0  0  0  0
   10.6338  -19.2651   22.7048 C   0  0  0  0  0  0  0  0  0  0  0  0
   11.3810  -20.5501   22.9588 C   0  0  0  0  0  0  0  0  0  0  0  0
   11.2793  -21.4330   21.7469 C   0  0  0  0  0  0  0  0  0  0  0  0
   11.9019  -22.7709   21.8803 C   0  0  0  0  0  0  0  0  0  0  0  0
   11.6571  -23.6696   20.7998 N   0  0  0  0  0  0  0  0  0  0  0  0
   12.1544  -17.8203   24.0297 C   0  0  0  0  0  0  0  0  0  0  0  0
   12.9785  -18.5341   24.9030 O   0  0  0  0  0  0  0  0  0  0  0  0
   12.6634  -16.8310   23.4736 O   0  0  0  0  0  0  0  0  0  0  0  0
  2  1  1  1
  2  3  1  0
  4  2  1  0
  4  6  1  0
  4  5  1  1
  6  7  2  0
  6 10  1  0
  9  8  1  1
 10  9  1  0
 11 13  1  0
 11  9  1  0
 12 11  2  0
 14 20  1  0
 14 13  1  0
 14 15  1  6
 16 15  1  0
 17 16  1  0
 18 17  1  0
 19 18  1  0
 20 21  1  0
 22 20  2  0
M  END
$$$$
