VAK.pdb
     RDKit          3D

 22 21  0  0  1  0  0  0  0  0999 V2000
    9.6574  -19.1660   20.5456 C   0  0  0  0  0  0  0  0  0  0  0  0
    8.2776  -18.8757   19.9949 C   0  0  2  0  0  0  0  0  0  0  0  0
    7.8387  -20.0967   19.2074 C   0  0  0  0  0  0  0  0  0  0  0  0
    8.3028  -17.7069   19.0298 C   0  0  2  0  0  0  0  0  0  0  0  0
    9.2775  -18.0109   18.0140 N   0  0  0  0  0  0  0  0  0  0  0  0
    8.5884  -16.4305   19.7083 C   0  0  0  0  0  0  0  0  0  0  0  0
    9.7664  -16.0176   19.7694 O   0  0  0  0  0  0  0  0  0  0  0  0
    6.4779  -13.6143   21.0812 C   0  0  0  0  0  0  0  0  0  0  0  0
    7.7682  -14.3881   20.9074 C   0  0  2  0  0  0  0  0  0  0  0  0
    7.5432  -15.6758   20.2865 N   0  0  0  0  0  0  0  0  0  0  0  0
    8.4988  -14.5397   22.2025 C   0  0  0  0  0  0  0  0  0  0  0  0
    8.8406  -13.5313   22.8687 O   0  0  0  0  0  0  0  0  0  0  0  0
    8.8311  -15.8125   22.7245 N   0  0  0  0  0  0  0  0  0  0  0  0
    9.4304  -15.9889   24.0543 C   0  0  1  0  0  0  0  0  0  0  0  0
    9.1782  -17.4168   24.4482 C   0  0  0  0  0  0  0  0  0  0  0  0
    7.9300  -17.6242   25.2686 C   0  0  0  0  0  0  0  0  0  0  0  0
    7.8364  -19.0677   25.6762 C   0  0  0  0  0  0  0  0  0  0  0  0
    6.5786  -19.4566   26.3560 C   0  0  0  0  0  0  0  0  0  0  0  0
    6.5028  -20.8201   26.7683 N   0  0  0  0  0  0  0  0  0  0  0  0
   10.8705  -15.6718   23.9520 C   0  0  0  0  0  0  0  0  0  0  0  0
   11.4710  -15.5175   22.7002 O   0  0  0  0  0  0  0  0  0  0  0  0
   11.6101  -15.5279   24.9415 O   0  0  0  0  0  0  0  0  0  0  0  0
  2  1  1  6
  2  3  1  0
  4  2  1  0
  4  6  1  0
  4  5  1  6
  6  7  2  0
  6 10  1  0
  9  8  1  1
 10  9  1  0
 11 13  1  0
 11  9  1  0
 12 11  2  0
 14 20  1  0
 14 13  1  0
 14 15  1  6
 16 15  1  0
 17 16  1  0
 18 17  1  0
 19 18  1  0
 20 21  1  0
 22 20  2  0
M  END
$$$$
