VAK.pdb
     RDKit          3D

 22 21  0  0  1  0  0  0  0  0999 V2000
    6.9518  -14.6029   17.9640 C   0  0  0  0  0  0  0  0  0  0  0  0
    7.6540  -14.8172   19.2877 C   0  0  2  0  0  0  0  0  0  0  0  0
    6.9498  -15.9616   19.9934 C   0  0  0  0  0  0  0  0  0  0  0  0
    7.5320  -13.5986   20.1813 C   0  0  2  0  0  0  0  0  0  0  0  0
    8.1206  -12.4894   19.4760 N   0  0  0  0  0  0  0  0  0  0  0  0
    8.1544  -13.8105   21.5000 C   0  0  0  0  0  0  0  0  0  0  0  0
    9.3902  -13.9808   21.5756 O   0  0  0  0  0  0  0  0  0  0  0  0
    6.9688  -13.6000   25.0824 C   0  0  0  0  0  0  0  0  0  0  0  0
    7.9365  -14.0035   23.9894 C   0  0  2  0  0  0  0  0  0  0  0  0
    7.3655  -13.8218   22.6720 N   0  0  0  0  0  0  0  0  0  0  0  0
    8.4220  -15.4052   24.1727 C   0  0  0  0  0  0  0  0  0  0  0  0
    7.6615  -16.3813   23.9572 O   0  0  0  0  0  0  0  0  0  0  0  0
    9.7441  -15.6856   24.5921 N   0  0  0  0  0  0  0  0  0  0  0  0
   10.1944  -17.0425   24.9308 C   0  0  1  0  0  0  0  0  0  0  0  0
   11.5678  -17.1944   24.3406 C   0  0  0  0  0  0  0  0  0  0  0  0
   12.2356  -18.5105   24.6506 C   0  0  0  0  0  0  0  0  0  0  0  0
   13.6355  -18.4993   24.1041 C   0  0  0  0  0  0  0  0  0  0  0  0
   14.4265  -19.7267   24.3555 C   0  0  0  0  0  0  0  0  0  0  0  0
   15.7937  -19.6660   23.9529 N   0  0  0  0  0  0  0  0  0  0  0  0
   10.1895  -17.1712   26.4032 C   0  0  0  0  0  0  0  0  0  0  0  0
   10.1766  -18.4340   27.0004 O   0  0  0  0  0  0  0  0  0  0  0  0
   10.1963  -16.1952   27.1741 O   0  0  0  0  0  0  0  0  0  0  0  0
  2  1  1  6
  2  3  1  0
  4  2  1  0
  4  6  1  0
  4  5  1  6
  6  7  2  0
  6 10  1  0
  9  8  1  1
 10  9  1  0
 11 13  1  0
 11  9  1  0
 12 11  2  0
 14 20  1  0
 14 13  1  0
 14 15  1  1
 16 15  1  0
 17 16  1  0
 18 17  1  0
 19 18  1  0
 20 21  1  0
 22 20  2  0
M  END
$$$$
