PWV.pdb
     RDKit          3D

 29 31  0  0  1  0  0  0  0  0999 V2000
   27.7098  -20.6068  -16.2463 N   0  0  0  0  0  0  0  0  0  0  0  0
   28.5730  -20.8025  -17.3974 C   0  0  0  0  0  0  0  0  0  0  0  0
   29.6793  -21.6621  -16.7711 C   0  0  0  0  0  0  0  0  0  0  0  0
   28.9961  -22.4117  -15.6293 C   0  0  0  0  0  0  0  0  0  0  0  0
   27.5817  -21.9571  -15.7478 C   0  0  1  0  0  0  0  0  0  0  0  0
   26.8384  -21.9726  -14.4683 C   0  0  0  0  0  0  0  0  0  0  0  0
   25.8589  -22.7482  -14.3522 O   0  0  0  0  0  0  0  0  0  0  0  0
   27.1977  -21.1446  -13.3802 N   0  0  0  0  0  0  0  0  0  0  0  0
   26.6029  -21.1214  -12.0838 C   0  0  1  0  0  0  0  0  0  0  0  0
   27.5055  -20.6876  -10.9831 C   0  0  0  0  0  0  0  0  0  0  0  0
   26.7611  -20.6259   -9.6841 C   0  0  0  0  0  0  0  0  0  0  0  0
   25.4454  -20.9938   -9.5167 C   0  0  0  0  0  0  0  0  0  0  0  0
   25.1382  -20.7996   -8.2230 N   0  0  0  0  0  0  0  0  0  0  0  0
   26.1908  -20.3254   -7.5513 C   0  0  0  0  0  0  0  0  0  0  0  0
   26.3999  -19.9654   -6.2266 C   0  0  0  0  0  0  0  0  0  0  0  0
   27.6193  -19.4945   -5.7987 C   0  0  0  0  0  0  0  0  0  0  0  0
   28.6356  -19.3875   -6.7224 C   0  0  0  0  0  0  0  0  0  0  0  0
   28.4397  -19.7395   -8.0294 C   0  0  0  0  0  0  0  0  0  0  0  0
   27.2106  -20.2127   -8.4537 C   0  0  0  0  0  0  0  0  0  0  0  0
   25.3232  -20.3434  -12.0150 C   0  0  0  0  0  0  0  0  0  0  0  0
   25.3879  -19.0964  -12.0566 O   0  0  0  0  0  0  0  0  0  0  0  0
   23.4824  -20.1022  -14.6277 C   0  0  0  0  0  0  0  0  0  0  0  0
   22.4310  -20.5331  -13.6436 C   0  0  1  0  0  0  0  0  0  0  0  0
   22.1280  -22.0092  -13.7186 C   0  0  0  0  0  0  0  0  0  0  0  0
   22.8360  -20.1991  -12.2419 C   0  0  2  0  0  0  0  0  0  0  0  0
   24.0634  -20.9346  -11.9069 N   0  0  0  0  0  0  0  0  0  0  0  0
   21.7731  -20.4883  -11.2430 C   0  0  0  0  0  0  0  0  0  0  0  0
   21.9957  -21.4856  -10.3146 O   0  0  0  0  0  0  0  0  0  0  0  0
   20.6829  -19.8744  -11.1981 O   0  0  0  0  0  0  0  0  0  0  0  0
  1  5  1  0
  2  3  1  0
  2  1  1  0
  3  4  1  0
  4  5  1  0
  5  6  1  1
  6  8  1  0
  6  7  2  0
  8  9  1  0
  9 10  1  1
  9 20  1  0
 10 11  1  0
 11 19  1  0
 11 12  2  0
 12 13  1  0
 14 13  1  0
 14 15  2  0
 16 15  1  0
 17 16  2  0
 18 19  2  0
 18 17  1  0
 19 14  1  0
 20 26  1  0
 21 20  2  0
 23 22  1  6
 23 24  1  0
 25 23  1  0
 25 27  1  0
 25 26  1  1
 27 29  2  0
 27 28  1  0
M  END
$$$$
