PWV.pdb
     RDKit          3D

 29 31  0  0  1  0  0  0  0  0999 V2000
   28.2071  -19.6722  -14.5687 N   0  0  0  0  0  0  0  0  0  0  0  0
   28.8234  -19.6337  -15.8828 C   0  0  0  0  0  0  0  0  0  0  0  0
   29.6803  -20.9053  -15.8244 C   0  0  0  0  0  0  0  0  0  0  0  0
   28.9433  -21.8323  -14.8600 C   0  0  0  0  0  0  0  0  0  0  0  0
   27.7327  -21.0359  -14.5115 C   0  0  1  0  0  0  0  0  0  0  0  0
   27.1804  -21.3406  -13.1728 C   0  0  0  0  0  0  0  0  0  0  0  0
   26.5032  -22.3868  -13.0265 O   0  0  0  0  0  0  0  0  0  0  0  0
   27.3922  -20.4929  -12.0616 N   0  0  0  0  0  0  0  0  0  0  0  0
   26.8807  -20.6619  -10.7407 C   0  0  1  0  0  0  0  0  0  0  0  0
   27.7720  -20.1777   -9.6520 C   0  0  0  0  0  0  0  0  0  0  0  0
   27.1369  -20.3987   -8.3129 C   0  0  0  0  0  0  0  0  0  0  0  0
   25.9107  -20.9919   -8.1155 C   0  0  0  0  0  0  0  0  0  0  0  0
   25.6856  -21.0120   -6.7910 N   0  0  0  0  0  0  0  0  0  0  0  0
   26.7059  -20.4613   -6.1278 C   0  0  0  0  0  0  0  0  0  0  0  0
   26.9667  -20.2397   -4.7821 C   0  0  0  0  0  0  0  0  0  0  0  0
   28.1316  -19.6350   -4.3708 C   0  0  0  0  0  0  0  0  0  0  0  0
   29.0400  -19.2516   -5.3328 C   0  0  0  0  0  0  0  0  0  0  0  0
   28.7925  -19.4655   -6.6607 C   0  0  0  0  0  0  0  0  0  0  0  0
   27.6186  -20.0744   -7.0681 C   0  0  0  0  0  0  0  0  0  0  0  0
   25.5042  -20.1011  -10.5445 C   0  0  0  0  0  0  0  0  0  0  0  0
   25.3944  -18.8828  -10.2902 O   0  0  0  0  0  0  0  0  0  0  0  0
   23.6266  -19.7283  -13.2126 C   0  0  0  0  0  0  0  0  0  0  0  0
   22.6526  -20.4272  -12.3059 C   0  0  1  0  0  0  0  0  0  0  0  0
   22.5435  -21.9049  -12.5905 C   0  0  0  0  0  0  0  0  0  0  0  0
   23.0277  -20.2440  -10.8685 C   0  0  2  0  0  0  0  0  0  0  0  0
   24.3386  -20.8641  -10.6300 N   0  0  0  0  0  0  0  0  0  0  0  0
   22.0177  -20.7960   -9.9271 C   0  0  0  0  0  0  0  0  0  0  0  0
   20.7714  -20.2042   -9.8771 O   0  0  0  0  0  0  0  0  0  0  0  0
   22.2368  -21.7720   -9.1742 O   0  0  0  0  0  0  0  0  0  0  0  0
  1  5  1  0
  2  3  1  0
  2  1  1  0
  3  4  1  0
  4  5  1  0
  5  6  1  1
  6  8  1  0
  6  7  2  0
  8  9  1  0
  9 10  1  1
  9 20  1  0
 10 11  1  0
 11 19  1  0
 11 12  2  0
 12 13  1  0
 14 13  1  0
 14 15  2  0
 16 15  1  0
 17 16  2  0
 18 19  2  0
 18 17  1  0
 19 14  1  0
 20 26  1  0
 21 20  2  0
 23 22  1  6
 23 24  1  0
 25 23  1  0
 25 27  1  0
 25 26  1  6
 27 29  2  0
 27 28  1  0
M  END
$$$$
