PWV.pdb
     RDKit          3D

 29 31  0  0  1  0  0  0  0  0999 V2000
   28.9034  -19.1122  -18.0702 N   0  0  0  0  0  0  0  0  0  0  0  0
   29.9660  -18.6634  -18.9520 C   0  0  0  0  0  0  0  0  0  0  0  0
   29.7257  -17.1479  -18.9267 C   0  0  0  0  0  0  0  0  0  0  0  0
   29.0837  -16.8742  -17.5682 C   0  0  0  0  0  0  0  0  0  0  0  0
   29.0709  -18.2261  -16.9410 C   0  0  1  0  0  0  0  0  0  0  0  0
   27.9811  -18.4205  -15.9590 C   0  0  0  0  0  0  0  0  0  0  0  0
   27.9824  -17.7245  -14.9150 O   0  0  0  0  0  0  0  0  0  0  0  0
   26.9455  -19.3611  -16.1618 N   0  0  0  0  0  0  0  0  0  0  0  0
   25.7452  -19.4961  -15.4029 C   0  0  1  0  0  0  0  0  0  0  0  0
   24.5348  -19.8482  -16.1937 C   0  0  0  0  0  0  0  0  0  0  0  0
   23.3014  -19.7300  -15.3509 C   0  0  0  0  0  0  0  0  0  0  0  0
   22.8938  -18.5790  -14.7157 C   0  0  0  0  0  0  0  0  0  0  0  0
   21.7537  -18.8650  -14.0645 N   0  0  0  0  0  0  0  0  0  0  0  0
   21.4088  -20.1420  -14.2498 C   0  0  0  0  0  0  0  0  0  0  0  0
   20.3480  -20.9222  -13.8093 C   0  0  0  0  0  0  0  0  0  0  0  0
   20.2401  -22.2466  -14.1644 C   0  0  0  0  0  0  0  0  0  0  0  0
   21.2168  -22.7845  -14.9734 C   0  0  0  0  0  0  0  0  0  0  0  0
   22.2654  -22.0244  -15.4125 C   0  0  0  0  0  0  0  0  0  0  0  0
   22.3683  -20.6925  -15.0518 C   0  0  0  0  0  0  0  0  0  0  0  0
   25.8653  -20.4275  -14.2342 C   0  0  0  0  0  0  0  0  0  0  0  0
   26.3459  -21.5636  -14.4322 O   0  0  0  0  0  0  0  0  0  0  0  0
   25.5305  -19.1807  -10.1975 C   0  0  0  0  0  0  0  0  0  0  0  0
   26.3144  -20.3656  -10.6885 C   0  0  1  0  0  0  0  0  0  0  0  0
   26.5764  -21.3839   -9.6066 C   0  0  0  0  0  0  0  0  0  0  0  0
   25.6117  -21.0437  -11.8229 C   0  0  2  0  0  0  0  0  0  0  0  0
   25.4701  -20.0961  -12.9372 N   0  0  0  0  0  0  0  0  0  0  0  0
   24.2836  -21.5929  -11.4416 C   0  0  0  0  0  0  0  0  0  0  0  0
   24.2307  -22.8433  -10.8587 O   0  0  0  0  0  0  0  0  0  0  0  0
   23.2063  -20.9808  -11.6211 O   0  0  0  0  0  0  0  0  0  0  0  0
  1  5  1  0
  2  3  1  0
  2  1  1  0
  3  4  1  0
  4  5  1  0
  5  6  1  1
  6  8  1  0
  6  7  2  0
  8  9  1  0
  9 10  1  6
  9 20  1  0
 10 11  1  0
 11 19  1  0
 11 12  2  0
 12 13  1  0
 14 13  1  0
 14 15  2  0
 16 15  1  0
 17 16  2  0
 18 19  2  0
 18 17  1  0
 19 14  1  0
 20 26  1  0
 21 20  2  0
 23 22  1  1
 23 24  1  0
 25 23  1  0
 25 27  1  0
 25 26  1  6
 27 29  2  0
 27 28  1  0
M  END
$$$$
