PWV.pdb
     RDKit          3D

 29 31  0  0  1  0  0  0  0  0999 V2000
   26.9000  -18.1348  -16.9419 N   0  0  0  0  0  0  0  0  0  0  0  0
   27.9622  -18.1505  -17.9317 C   0  0  0  0  0  0  0  0  0  0  0  0
   29.1883  -17.9776  -17.0253 C   0  0  0  0  0  0  0  0  0  0  0  0
   28.7743  -18.5805  -15.6845 C   0  0  0  0  0  0  0  0  0  0  0  0
   27.3984  -19.0784  -15.9676 C   0  0  1  0  0  0  0  0  0  0  0  0
   26.5182  -19.1148  -14.7786 C   0  0  0  0  0  0  0  0  0  0  0  0
   26.0673  -18.0324  -14.3319 O   0  0  0  0  0  0  0  0  0  0  0  0
   26.1729  -20.3256  -14.1358 N   0  0  0  0  0  0  0  0  0  0  0  0
   25.3888  -20.4790  -12.9540 C   0  0  1  0  0  0  0  0  0  0  0  0
   24.0884  -21.1766  -13.1456 C   0  0  0  0  0  0  0  0  0  0  0  0
   23.0715  -20.2451  -13.7318 C   0  0  0  0  0  0  0  0  0  0  0  0
   22.9951  -19.9061  -15.0636 C   0  0  0  0  0  0  0  0  0  0  0  0
   21.9626  -19.0571  -15.2007 N   0  0  0  0  0  0  0  0  0  0  0  0
   21.3722  -18.8340  -14.0236 C   0  0  0  0  0  0  0  0  0  0  0  0
   20.2913  -18.0588  -13.6249 C   0  0  0  0  0  0  0  0  0  0  0  0
   19.8905  -18.0153  -12.3099 C   0  0  0  0  0  0  0  0  0  0  0  0
   20.5921  -18.7645  -11.3911 C   0  0  0  0  0  0  0  0  0  0  0  0
   21.6579  -19.5311  -11.7739 C   0  0  0  0  0  0  0  0  0  0  0  0
   22.0563  -19.5707  -13.0984 C   0  0  0  0  0  0  0  0  0  0  0  0
   26.1276  -21.1069  -11.8105 C   0  0  0  0  0  0  0  0  0  0  0  0
   26.6025  -22.2511  -11.9721 O   0  0  0  0  0  0  0  0  0  0  0  0
   28.9194  -20.4911   -9.4033 C   0  0  0  0  0  0  0  0  0  0  0  0
   27.6689  -20.6050   -8.5771 C   0  0  1  0  0  0  0  0  0  0  0  0
   27.1758  -19.2710   -8.0734 C   0  0  0  0  0  0  0  0  0  0  0  0
   26.5686  -21.2593   -9.3527 C   0  0  2  0  0  0  0  0  0  0  0  0
   26.3144  -20.4843  -10.5752 N   0  0  0  0  0  0  0  0  0  0  0  0
   25.3139  -21.4123   -8.5693 C   0  0  0  0  0  0  0  0  0  0  0  0
   25.2886  -22.3311   -7.5392 O   0  0  0  0  0  0  0  0  0  0  0  0
   24.2751  -20.7507   -8.7941 O   0  0  0  0  0  0  0  0  0  0  0  0
  1  5  1  0
  2  3  1  0
  2  1  1  0
  3  4  1  0
  4  5  1  0
  5  6  1  1
  6  8  1  0
  6  7  2  0
  8  9  1  0
  9 10  1  6
  9 20  1  0
 10 11  1  0
 11 19  1  0
 11 12  2  0
 12 13  1  0
 14 13  1  0
 14 15  2  0
 16 15  1  0
 17 16  2  0
 18 19  2  0
 18 17  1  0
 19 14  1  0
 20 26  1  0
 21 20  2  0
 23 22  1  6
 23 24  1  0
 25 23  1  0
 25 27  1  0
 25 26  1  6
 27 29  2  0
 27 28  1  0
M  END
$$$$
