PWV.pdb
     RDKit          3D

 29 31  0  0  1  0  0  0  0  0999 V2000
   29.2120  -19.7637  -12.0345 N   0  0  0  0  0  0  0  0  0  0  0  0
   30.5344  -19.7096  -12.6316 C   0  0  0  0  0  0  0  0  0  0  0  0
   31.2836  -20.7057  -11.7364 C   0  0  0  0  0  0  0  0  0  0  0  0
   30.2132  -21.6816  -11.2522 C   0  0  0  0  0  0  0  0  0  0  0  0
   28.9912  -21.1891  -11.9489 C   0  0  1  0  0  0  0  0  0  0  0  0
   27.7323  -21.4798  -11.2273 C   0  0  0  0  0  0  0  0  0  0  0  0
   27.3140  -22.6625  -11.2020 O   0  0  0  0  0  0  0  0  0  0  0  0
   26.9924  -20.4704  -10.5701 N   0  0  0  0  0  0  0  0  0  0  0  0
   25.7017  -20.5984   -9.9761 C   0  0  1  0  0  0  0  0  0  0  0  0
   25.4926  -19.7944   -8.7415 C   0  0  0  0  0  0  0  0  0  0  0  0
   26.7646  -19.6939   -7.9558 C   0  0  0  0  0  0  0  0  0  0  0  0
   27.9179  -19.0922   -8.4055 C   0  0  0  0  0  0  0  0  0  0  0  0
   28.8323  -19.2007   -7.4270 N   0  0  0  0  0  0  0  0  0  0  0  0
   28.3239  -19.8419   -6.3713 C   0  0  0  0  0  0  0  0  0  0  0  0
   28.8355  -20.2055   -5.1327 C   0  0  0  0  0  0  0  0  0  0  0  0
   28.0664  -20.8786   -4.2123 C   0  0  0  0  0  0  0  0  0  0  0  0
   26.7671  -21.1859   -4.5511 C   0  0  0  0  0  0  0  0  0  0  0  0
   26.2539  -20.8322   -5.7684 C   0  0  0  0  0  0  0  0  0  0  0  0
   27.0327  -20.1550   -6.6901 C   0  0  0  0  0  0  0  0  0  0  0  0
   24.5675  -20.3568  -10.9264 C   0  0  0  0  0  0  0  0  0  0  0  0
   24.5791  -19.3073  -11.6041 O   0  0  0  0  0  0  0  0  0  0  0  0
   21.1371  -22.0371  -13.9093 C   0  0  0  0  0  0  0  0  0  0  0  0
   22.2572  -22.2187  -12.9235 C   0  0  1  0  0  0  0  0  0  0  0  0
   23.5704  -22.5574  -13.5845 C   0  0  0  0  0  0  0  0  0  0  0  0
   22.4450  -20.9903  -12.0892 C   0  0  2  0  0  0  0  0  0  0  0  0
   23.4993  -21.2391  -11.0961 N   0  0  0  0  0  0  0  0  0  0  0  0
   21.1962  -20.5466  -11.4148 C   0  0  0  0  0  0  0  0  0  0  0  0
   20.2329  -19.9058  -12.1681 O   0  0  0  0  0  0  0  0  0  0  0  0
   20.9700  -20.7232  -10.1961 O   0  0  0  0  0  0  0  0  0  0  0  0
  1  5  1  0
  2  3  1  0
  2  1  1  0
  3  4  1  0
  4  5  1  0
  5  6  1  1
  6  8  1  0
  6  7  2  0
  8  9  1  0
  9 10  1  1
  9 20  1  0
 10 11  1  0
 11 19  1  0
 11 12  2  0
 12 13  1  0
 14 13  1  0
 14 15  2  0
 16 15  1  0
 17 16  2  0
 18 19  2  0
 18 17  1  0
 19 14  1  0
 20 26  1  0
 21 20  2  0
 23 22  1  6
 23 24  1  0
 25 23  1  0
 25 27  1  0
 25 26  1  1
 27 29  2  0
 27 28  1  0
M  END
$$$$
