PWV.pdb
     RDKit          3D

 29 31  0  0  1  0  0  0  0  0999 V2000
   27.8606  -19.1729  -14.4739 N   0  0  0  0  0  0  0  0  0  0  0  0
   28.9819  -18.8660  -15.3439 C   0  0  0  0  0  0  0  0  0  0  0  0
   30.0053  -19.8979  -14.8512 C   0  0  0  0  0  0  0  0  0  0  0  0
   29.1681  -21.0596  -14.3201 C   0  0  0  0  0  0  0  0  0  0  0  0
   27.7765  -20.6094  -14.6061 C   0  0  1  0  0  0  0  0  0  0  0  0
   26.7657  -21.1607  -13.6765 C   0  0  0  0  0  0  0  0  0  0  0  0
   26.3236  -22.3160  -13.8865 O   0  0  0  0  0  0  0  0  0  0  0  0
   26.2871  -20.4283  -12.5661 N   0  0  0  0  0  0  0  0  0  0  0  0
   25.2408  -20.8058  -11.6729 C   0  0  1  0  0  0  0  0  0  0  0  0
   25.3666  -20.2690  -10.2908 C   0  0  0  0  0  0  0  0  0  0  0  0
   26.6649  -20.6949   -9.6756 C   0  0  0  0  0  0  0  0  0  0  0  0
   27.5978  -21.4977  -10.2918 C   0  0  0  0  0  0  0  0  0  0  0  0
   28.6187  -21.6552   -9.4324 N   0  0  0  0  0  0  0  0  0  0  0  0
   28.3880  -20.9936   -8.2952 C   0  0  0  0  0  0  0  0  0  0  0  0
   29.1049  -20.8336   -7.1168 C   0  0  0  0  0  0  0  0  0  0  0  0
   28.6136  -20.0756   -6.0796 C   0  0  0  0  0  0  0  0  0  0  0  0
   27.3844  -19.4745   -6.2389 C   0  0  0  0  0  0  0  0  0  0  0  0
   26.6707  -19.6260   -7.3956 C   0  0  0  0  0  0  0  0  0  0  0  0
   27.1704  -20.3899   -8.4355 C   0  0  0  0  0  0  0  0  0  0  0  0
   23.8638  -20.5230  -12.1941 C   0  0  0  0  0  0  0  0  0  0  0  0
   23.5959  -19.3556  -12.5496 O   0  0  0  0  0  0  0  0  0  0  0  0
   21.4762  -23.6026  -13.6613 C   0  0  0  0  0  0  0  0  0  0  0  0
   21.4613  -22.1804  -14.1476 C   0  0  1  0  0  0  0  0  0  0  0  0
   20.2082  -21.8364  -14.9142 C   0  0  0  0  0  0  0  0  0  0  0  0
   21.6034  -21.2200  -13.0085 C   0  0  2  0  0  0  0  0  0  0  0  0
   22.8645  -21.4912  -12.3043 N   0  0  0  0  0  0  0  0  0  0  0  0
   20.4612  -21.2698  -12.0576 C   0  0  0  0  0  0  0  0  0  0  0  0
   19.2640  -20.6956  -12.4358 O   0  0  0  0  0  0  0  0  0  0  0  0
   20.5264  -21.8060  -10.9282 O   0  0  0  0  0  0  0  0  0  0  0  0
  1  5  1  0
  2  3  1  0
  2  1  1  0
  3  4  1  0
  4  5  1  0
  5  6  1  1
  6  8  1  0
  6  7  2  0
  8  9  1  0
  9 10  1  1
  9 20  1  0
 10 11  1  0
 11 19  1  0
 11 12  2  0
 12 13  1  0
 14 13  1  0
 14 15  2  0
 16 15  1  0
 17 16  2  0
 18 19  2  0
 18 17  1  0
 19 14  1  0
 20 26  1  0
 21 20  2  0
 23 22  1  1
 23 24  1  0
 25 23  1  0
 25 27  1  0
 25 26  1  1
 27 29  2  0
 27 28  1  0
M  END
$$$$
