IAN.pdb
     RDKit          3D

 22 21  0  0  1  0  0  0  0  0999 V2000
    6.9089  -12.6006   18.6055 C   0  0  0  0  0  0  0  0  0  0  0  0
    7.7094  -13.8651   18.9661 C   0  0  0  0  0  0  0  0  0  0  0  0
    7.8761  -13.8348   20.4442 C   0  0  2  0  0  0  0  0  0  0  0  0
    8.3309  -12.4836   20.8908 C   0  0  0  0  0  0  0  0  0  0  0  0
    8.6749  -14.9690   21.0329 C   0  0  2  0  0  0  0  0  0  0  0  0
    7.8921  -16.1760   20.7033 N   0  0  0  0  0  0  0  0  0  0  0  0
    8.7651  -14.9306   22.5063 C   0  0  0  0  0  0  0  0  0  0  0  0
    9.5706  -14.1814   23.1413 O   0  0  0  0  0  0  0  0  0  0  0  0
    6.6379  -15.9956   25.3395 C   0  0  0  0  0  0  0  0  0  0  0  0
    8.0182  -15.7314   24.7693 C   0  0  2  0  0  0  0  0  0  0  0  0
    7.9254  -15.7572   23.2989 N   0  0  0  0  0  0  0  0  0  0  0  0
    9.0038  -16.7150   25.2487 C   0  0  0  0  0  0  0  0  0  0  0  0
    9.1651  -16.9041   26.4887 O   0  0  0  0  0  0  0  0  0  0  0  0
   10.5002  -18.3511   22.1347 N   0  0  0  0  0  0  0  0  0  0  0  0
   10.5537  -19.6430   22.7501 C   0  0  0  0  0  0  0  0  0  0  0  0
   10.5393  -20.6452   22.0168 O   0  0  0  0  0  0  0  0  0  0  0  0
   10.6227  -19.7596   24.2046 C   0  0  0  0  0  0  0  0  0  0  0  0
   10.8158  -18.4295   24.8441 C   0  0  2  0  0  0  0  0  0  0  0  0
    9.7946  -17.4746   24.3823 N   0  0  0  0  0  0  0  0  0  0  0  0
   12.1029  -17.8514   24.4465 C   0  0  0  0  0  0  0  0  0  0  0  0
   12.1181  -16.8254   23.6903 O   0  0  0  0  0  0  0  0  0  0  0  0
   13.3187  -18.3314   24.8278 O   0  0  0  0  0  0  0  0  0  0  0  0
  1  2  1  0
  2  3  1  0
  3  4  1  6
  5  3  1  0
  5  6  1  1
  7  5  1  0
  7 11  1  0
  8  7  2  0
 10 11  1  0
 10 12  1  0
 10  9  1  1
 12 19  1  0
 13 12  2  0
 15 14  1  0
 16 15  2  0
 17 15  1  0
 18 17  1  6
 19 18  1  0
 20 22  1  0
 20 18  1  0
 21 20  2  0
M  END
$$$$
