IAN.pdb
     RDKit          3D

 22 21  0  0  1  0  0  0  0  0999 V2000
    7.4169  -11.6705   27.3354 C   0  0  0  0  0  0  0  0  0  0  0  0
    6.4208  -12.7128   26.7958 C   0  0  0  0  0  0  0  0  0  0  0  0
    7.1611  -13.4891   25.7649 C   0  0  2  0  0  0  0  0  0  0  0  0
    7.8577  -12.5675   24.8175 C   0  0  0  0  0  0  0  0  0  0  0  0
    6.3763  -14.5802   25.0831 C   0  0  2  0  0  0  0  0  0  0  0  0
    6.0078  -15.5015   26.1757 N   0  0  0  0  0  0  0  0  0  0  0  0
    7.1722  -15.3770   24.1281 C   0  0  0  0  0  0  0  0  0  0  0  0
    7.9227  -16.3420   24.4728 O   0  0  0  0  0  0  0  0  0  0  0  0
    7.6692  -15.3428   20.3893 C   0  0  0  0  0  0  0  0  0  0  0  0
    8.0206  -15.7848   21.7969 C   0  0  2  0  0  0  0  0  0  0  0  0
    7.1276  -15.0869   22.7387 N   0  0  0  0  0  0  0  0  0  0  0  0
    9.4324  -15.5150   22.1169 C   0  0  0  0  0  0  0  0  0  0  0  0
    9.7353  -14.6413   22.9796 O   0  0  0  0  0  0  0  0  0  0  0  0
   10.8500  -16.7400   25.6943 N   0  0  0  0  0  0  0  0  0  0  0  0
   11.7132  -16.4666   24.5848 C   0  0  0  0  0  0  0  0  0  0  0  0
   12.5293  -15.5363   24.6895 O   0  0  0  0  0  0  0  0  0  0  0  0
   11.6215  -17.2714   23.3692 C   0  0  0  0  0  0  0  0  0  0  0  0
   11.7874  -16.4312   22.1519 C   0  0  2  0  0  0  0  0  0  0  0  0
   10.4885  -16.1921   21.5010 N   0  0  0  0  0  0  0  0  0  0  0  0
   12.6041  -17.1293   21.1545 C   0  0  0  0  0  0  0  0  0  0  0  0
   12.1555  -18.1941   20.6166 O   0  0  0  0  0  0  0  0  0  0  0  0
   13.8370  -16.7244   20.7420 O   0  0  0  0  0  0  0  0  0  0  0  0
  1  2  1  0
  2  3  1  0
  3  4  1  6
  5  3  1  0
  5  6  1  1
  7  5  1  0
  7 11  1  0
  8  7  2  0
 10 11  1  0
 10 12  1  0
 10  9  1  6
 12 19  1  0
 13 12  2  0
 15 14  1  0
 16 15  2  0
 17 15  1  0
 18 17  1  1
 19 18  1  0
 20 22  1  0
 20 18  1  0
 21 20  2  0
M  END
$$$$
