IAN.pdb
     RDKit          3D

 22 21  0  0  1  0  0  0  0  0999 V2000
    6.1230  -11.8650   26.5374 C   0  0  0  0  0  0  0  0  0  0  0  0
    5.6251  -13.0680   25.7160 C   0  0  0  0  0  0  0  0  0  0  0  0
    6.8440  -13.8214   25.3159 C   0  0  2  0  0  0  0  0  0  0  0  0
    7.8996  -12.8846   24.8260 C   0  0  0  0  0  0  0  0  0  0  0  0
    6.6114  -15.0015   24.4080 C   0  0  2  0  0  0  0  0  0  0  0  0
    5.6180  -15.8239   25.1260 N   0  0  0  0  0  0  0  0  0  0  0  0
    7.8003  -15.8592   24.2314 C   0  0  0  0  0  0  0  0  0  0  0  0
    8.0696  -16.8493   24.9801 O   0  0  0  0  0  0  0  0  0  0  0  0
   10.7581  -15.8501   21.8897 C   0  0  0  0  0  0  0  0  0  0  0  0
    9.9528  -16.4011   23.0507 C   0  0  2  0  0  0  0  0  0  0  0  0
    8.7208  -15.6031   23.1808 N   0  0  0  0  0  0  0  0  0  0  0  0
   10.7228  -16.3831   24.3058 C   0  0  0  0  0  0  0  0  0  0  0  0
   11.8824  -16.8859   24.3500 O   0  0  0  0  0  0  0  0  0  0  0  0
   10.6349  -13.9666   30.0378 N   0  0  0  0  0  0  0  0  0  0  0  0
   11.1347  -14.7462   28.9455 C   0  0  0  0  0  0  0  0  0  0  0  0
   12.1721  -15.4063   29.1198 O   0  0  0  0  0  0  0  0  0  0  0  0
   10.4292  -14.7522   27.6663 C   0  0  0  0  0  0  0  0  0  0  0  0
   10.9931  -15.7751   26.7438 C   0  0  2  0  0  0  0  0  0  0  0  0
   10.2278  -15.8237   25.4869 N   0  0  0  0  0  0  0  0  0  0  0  0
   10.8740  -17.1142   27.3285 C   0  0  0  0  0  0  0  0  0  0  0  0
    9.7152  -17.5961   27.5509 O   0  0  0  0  0  0  0  0  0  0  0  0
   11.9271  -17.9097   27.6635 O   0  0  0  0  0  0  0  0  0  0  0  0
  1  2  1  0
  2  3  1  0
  3  4  1  6
  5  3  1  0
  5  6  1  1
  7  5  1  0
  7 11  1  0
  8  7  2  0
 10 11  1  0
 10 12  1  0
 10  9  1  6
 12 19  1  0
 13 12  2  0
 15 14  1  0
 16 15  2  0
 17 15  1  0
 18 17  1  1
 19 18  1  0
 20 22  1  0
 20 18  1  0
 21 20  2  0
M  END
$$$$
