IAN.pdb
     RDKit          3D

 22 21  0  0  1  0  0  0  0  0999 V2000
    7.1373  -12.4441   18.6797 C   0  0  0  0  0  0  0  0  0  0  0  0
    7.8678  -13.7340   19.0948 C   0  0  0  0  0  0  0  0  0  0  0  0
    8.0166  -13.6609   20.5732 C   0  0  2  0  0  0  0  0  0  0  0  0
    8.6517  -12.3685   20.9709 C   0  0  0  0  0  0  0  0  0  0  0  0
    8.6386  -14.8686   21.2257 C   0  0  2  0  0  0  0  0  0  0  0  0
    7.6932  -15.9653   20.9396 N   0  0  0  0  0  0  0  0  0  0  0  0
    8.7205  -14.7734   22.6970 C   0  0  0  0  0  0  0  0  0  0  0  0
    9.6502  -14.1632   23.3107 O   0  0  0  0  0  0  0  0  0  0  0  0
    6.3353  -15.0120   25.4621 C   0  0  0  0  0  0  0  0  0  0  0  0
    7.7573  -15.2175   24.9764 C   0  0  2  0  0  0  0  0  0  0  0  0
    7.7284  -15.3801   23.5121 N   0  0  0  0  0  0  0  0  0  0  0  0
    8.3906  -16.3810   25.6196 C   0  0  0  0  0  0  0  0  0  0  0  0
    8.4548  -16.4564   26.8804 O   0  0  0  0  0  0  0  0  0  0  0  0
    6.7281  -20.0893   26.0100 N   0  0  0  0  0  0  0  0  0  0  0  0
    7.5746  -19.7712   24.8996 C   0  0  0  0  0  0  0  0  0  0  0  0
    7.0413  -19.4140   23.8364 O   0  0  0  0  0  0  0  0  0  0  0  0
    9.0260  -19.8705   25.0325 C   0  0  0  0  0  0  0  0  0  0  0  0
    9.6123  -18.5909   25.5165 C   0  0  2  0  0  0  0  0  0  0  0  0
    8.9411  -17.4391   24.8914 N   0  0  0  0  0  0  0  0  0  0  0  0
   11.0197  -18.4890   25.1190 C   0  0  0  0  0  0  0  0  0  0  0  0
   11.9277  -18.8131   25.9526 O   0  0  0  0  0  0  0  0  0  0  0  0
   11.4514  -18.0653   23.8990 O   0  0  0  0  0  0  0  0  0  0  0  0
  1  2  1  0
  2  3  1  0
  3  4  1  6
  5  3  1  0
  5  6  1  1
  7  5  1  0
  7 11  1  0
  8  7  2  0
 10 11  1  0
 10 12  1  0
 10  9  1  1
 12 19  1  0
 13 12  2  0
 15 14  1  0
 16 15  2  0
 17 15  1  0
 18 17  1  6
 19 18  1  0
 20 22  1  0
 20 18  1  0
 21 20  2  0
M  END
$$$$
