IAN.pdb
     RDKit          3D

 22 21  0  0  1  0  0  0  0  0999 V2000
    6.8953  -11.2796   27.6654 C   0  0  0  0  0  0  0  0  0  0  0  0
    7.3535  -12.7487   27.6295 C   0  0  0  0  0  0  0  0  0  0  0  0
    6.8595  -13.2988   26.3385 C   0  0  2  0  0  0  0  0  0  0  0  0
    5.3935  -13.0511   26.1921 C   0  0  0  0  0  0  0  0  0  0  0  0
    7.2682  -14.7174   26.0361 C   0  0  2  0  0  0  0  0  0  0  0  0
    8.7092  -14.7573   26.3529 N   0  0  0  0  0  0  0  0  0  0  0  0
    7.1539  -15.0777   24.6087 C   0  0  0  0  0  0  0  0  0  0  0  0
    6.1387  -15.6550   24.1092 O   0  0  0  0  0  0  0  0  0  0  0  0
    8.1891  -14.0072   21.4092 C   0  0  0  0  0  0  0  0  0  0  0  0
    8.1476  -15.2307   22.3044 C   0  0  2  0  0  0  0  0  0  0  0  0
    8.2099  -14.7818   23.7066 N   0  0  0  0  0  0  0  0  0  0  0  0
    9.2468  -16.1636   22.0043 C   0  0  0  0  0  0  0  0  0  0  0  0
    9.4303  -16.5741   20.8224 O   0  0  0  0  0  0  0  0  0  0  0  0
   13.3162  -14.8121   23.5055 N   0  0  0  0  0  0  0  0  0  0  0  0
   12.9481  -15.9288   22.6880 C   0  0  0  0  0  0  0  0  0  0  0  0
   13.0374  -15.8103   21.4550 O   0  0  0  0  0  0  0  0  0  0  0  0
   12.4815  -17.1673   23.3063 C   0  0  0  0  0  0  0  0  0  0  0  0
   11.1913  -17.6138   22.7134 C   0  0  2  0  0  0  0  0  0  0  0  0
   10.1254  -16.6345   22.9837 N   0  0  0  0  0  0  0  0  0  0  0  0
   10.7450  -18.8628   23.3377 C   0  0  0  0  0  0  0  0  0  0  0  0
    9.8147  -18.8265   24.2083 O   0  0  0  0  0  0  0  0  0  0  0  0
   11.2548  -20.0940   23.0580 O   0  0  0  0  0  0  0  0  0  0  0  0
  1  2  1  0
  2  3  1  0
  3  4  1  1
  5  3  1  0
  5  6  1  6
  7  5  1  0
  7 11  1  0
  8  7  2  0
 10 11  1  0
 10 12  1  0
 10  9  1  6
 12 19  1  0
 13 12  2  0
 15 14  1  0
 16 15  2  0
 17 15  1  0
 18 17  1  1
 19 18  1  0
 20 22  1  0
 20 18  1  0
 21 20  2  0
M  END
$$$$
