IAN.pdb
     RDKit          3D

 22 21  0  0  1  0  0  0  0  0999 V2000
    8.2198  -11.7130   20.3256 C   0  0  0  0  0  0  0  0  0  0  0  0
    7.3790  -12.9420   19.9356 C   0  0  0  0  0  0  0  0  0  0  0  0
    8.3077  -14.1034   19.9827 C   0  0  2  0  0  0  0  0  0  0  0  0
    9.5728  -13.7901   19.2525 C   0  0  0  0  0  0  0  0  0  0  0  0
    7.7059  -15.4339   19.6106 C   0  0  2  0  0  0  0  0  0  0  0  0
    6.5414  -15.5711   20.5069 N   0  0  0  0  0  0  0  0  0  0  0  0
    8.5832  -16.5855   19.9018 C   0  0  0  0  0  0  0  0  0  0  0  0
    8.5602  -17.2264   20.9981 O   0  0  0  0  0  0  0  0  0  0  0  0
   10.8428  -18.7711   17.8744 C   0  0  0  0  0  0  0  0  0  0  0  0
   10.3670  -18.2131   19.2019 C   0  0  2  0  0  0  0  0  0  0  0  0
    9.5187  -17.0383   18.9340 N   0  0  0  0  0  0  0  0  0  0  0  0
   11.4947  -17.8552   20.0787 C   0  0  0  0  0  0  0  0  0  0  0  0
   12.2890  -18.7478   20.4929 O   0  0  0  0  0  0  0  0  0  0  0  0
   13.7364  -14.4460   18.3947 N   0  0  0  0  0  0  0  0  0  0  0  0
   14.2033  -15.0905   19.5853 C   0  0  0  0  0  0  0  0  0  0  0  0
   15.2108  -15.8125   19.5072 O   0  0  0  0  0  0  0  0  0  0  0  0
   13.4996  -14.8924   20.8500 C   0  0  0  0  0  0  0  0  0  0  0  0
   12.8894  -16.1612   21.3326 C   0  0  2  0  0  0  0  0  0  0  0  0
   11.7433  -16.5432   20.4908 N   0  0  0  0  0  0  0  0  0  0  0  0
   12.3448  -15.9874   22.6825 C   0  0  0  0  0  0  0  0  0  0  0  0
   11.0862  -16.0770   22.8629 O   0  0  0  0  0  0  0  0  0  0  0  0
   13.0914  -15.7312   23.7920 O   0  0  0  0  0  0  0  0  0  0  0  0
  1  2  1  0
  2  3  1  0
  3  4  1  6
  5  3  1  0
  5  6  1  1
  7  5  1  0
  7 11  1  0
  8  7  2  0
 10 11  1  0
 10 12  1  0
 10  9  1  6
 12 19  1  0
 13 12  2  0
 15 14  1  0
 16 15  2  0
 17 15  1  0
 18 17  1  6
 19 18  1  0
 20 22  1  0
 20 18  1  0
 21 20  2  0
M  END
$$$$
