IAN.pdb
     RDKit          3D

 22 21  0  0  1  0  0  0  0  0999 V2000
    5.7642  -11.0499   26.0301 C   0  0  0  0  0  0  0  0  0  0  0  0
    6.9206  -11.8198   25.3670 C   0  0  0  0  0  0  0  0  0  0  0  0
    6.8651  -13.1983   25.9237 C   0  0  2  0  0  0  0  0  0  0  0  0
    6.7248  -13.1559   27.4104 C   0  0  0  0  0  0  0  0  0  0  0  0
    7.9399  -14.1387   25.4423 C   0  0  2  0  0  0  0  0  0  0  0  0
    7.8845  -14.0337   23.9712 N   0  0  0  0  0  0  0  0  0  0  0  0
    7.6757  -15.5562   25.7606 C   0  0  0  0  0  0  0  0  0  0  0  0
    7.6939  -16.0263   26.9405 O   0  0  0  0  0  0  0  0  0  0  0  0
    6.3079  -18.4896   23.8894 C   0  0  0  0  0  0  0  0  0  0  0  0
    7.1000  -17.8943   25.0376 C   0  0  2  0  0  0  0  0  0  0  0  0
    7.3795  -16.4816   24.7250 N   0  0  0  0  0  0  0  0  0  0  0  0
    8.3502  -18.6340   25.2791 C   0  0  0  0  0  0  0  0  0  0  0  0
    8.3154  -19.8511   25.6210 O   0  0  0  0  0  0  0  0  0  0  0  0
   11.7749  -16.6414   22.6123 N   0  0  0  0  0  0  0  0  0  0  0  0
   11.7004  -17.9389   23.2138 C   0  0  0  0  0  0  0  0  0  0  0  0
   11.3829  -18.9024   22.4973 O   0  0  0  0  0  0  0  0  0  0  0  0
   11.9936  -18.1056   24.6351 C   0  0  0  0  0  0  0  0  0  0  0  0
   10.8722  -18.7830   25.3416 C   0  0  2  0  0  0  0  0  0  0  0  0
    9.6117  -18.0474   25.1470 N   0  0  0  0  0  0  0  0  0  0  0  0
   11.1057  -18.7868   26.7889 C   0  0  0  0  0  0  0  0  0  0  0  0
   10.5918  -17.8663   27.5053 O   0  0  0  0  0  0  0  0  0  0  0  0
   11.8462  -19.7175   27.4517 O   0  0  0  0  0  0  0  0  0  0  0  0
  1  2  1  0
  2  3  1  0
  3  4  1  1
  5  3  1  0
  5  6  1  6
  7  5  1  0
  7 11  1  0
  8  7  2  0
 10 11  1  0
 10 12  1  0
 10  9  1  6
 12 19  1  0
 13 12  2  0
 15 14  1  0
 16 15  2  0
 17 15  1  0
 18 17  1  6
 19 18  1  0
 20 22  1  0
 20 18  1  0
 21 20  2  0
M  END
$$$$
