IAN.pdb
     RDKit          3D

 22 21  0  0  1  0  0  0  0  0999 V2000
    8.3628  -11.9482   27.1017 C   0  0  0  0  0  0  0  0  0  0  0  0
    7.1639  -12.8446   26.7425 C   0  0  0  0  0  0  0  0  0  0  0  0
    7.6602  -13.7964   25.7124 C   0  0  2  0  0  0  0  0  0  0  0  0
    8.4353  -13.0708   24.6613 C   0  0  0  0  0  0  0  0  0  0  0  0
    6.6335  -14.7506   25.1589 C   0  0  2  0  0  0  0  0  0  0  0  0
    6.0633  -15.4054   26.3524 N   0  0  0  0  0  0  0  0  0  0  0  0
    7.2102  -15.8326   24.3359 C   0  0  0  0  0  0  0  0  0  0  0  0
    7.6696  -16.9138   24.8191 O   0  0  0  0  0  0  0  0  0  0  0  0
    7.2776  -16.5613   20.6555 C   0  0  0  0  0  0  0  0  0  0  0  0
    7.7045  -16.8365   22.0846 C   0  0  2  0  0  0  0  0  0  0  0  0
    7.2753  -15.7034   22.9232 N   0  0  0  0  0  0  0  0  0  0  0  0
    9.1587  -17.0436   22.1892 C   0  0  0  0  0  0  0  0  0  0  0  0
    9.7167  -17.9828   21.5521 O   0  0  0  0  0  0  0  0  0  0  0  0
   11.9946  -14.0813   20.3787 N   0  0  0  0  0  0  0  0  0  0  0  0
   12.3865  -15.1980   21.1849 C   0  0  0  0  0  0  0  0  0  0  0  0
   12.9253  -16.1672   20.6258 O   0  0  0  0  0  0  0  0  0  0  0  0
   12.1501  -15.1800   22.6264 C   0  0  0  0  0  0  0  0  0  0  0  0
   11.4402  -16.4099   23.0723 C   0  0  2  0  0  0  0  0  0  0  0  0
    9.9813  -16.2345   22.9775 N   0  0  0  0  0  0  0  0  0  0  0  0
   11.7131  -16.6747   24.4881 C   0  0  0  0  0  0  0  0  0  0  0  0
   10.7412  -16.7246   25.3112 O   0  0  0  0  0  0  0  0  0  0  0  0
   12.9528  -16.8780   25.0132 O   0  0  0  0  0  0  0  0  0  0  0  0
  1  2  1  0
  2  3  1  0
  3  4  1  6
  5  3  1  0
  5  6  1  1
  7  5  1  0
  7 11  1  0
  8  7  2  0
 10 11  1  0
 10 12  1  0
 10  9  1  6
 12 19  1  0
 13 12  2  0
 15 14  1  0
 16 15  2  0
 17 15  1  0
 18 17  1  1
 19 18  1  0
 20 22  1  0
 20 18  1  0
 21 20  2  0
M  END
$$$$
