IAN.pdb
     RDKit          3D

 22 21  0  0  1  0  0  0  0  0999 V2000
    7.2027  -11.4551   27.0159 C   0  0  0  0  0  0  0  0  0  0  0  0
    6.5108  -12.8242   26.8868 C   0  0  0  0  0  0  0  0  0  0  0  0
    6.9322  -13.3716   25.5691 C   0  0  2  0  0  0  0  0  0  0  0  0
    6.5081  -12.4591   24.4649 C   0  0  0  0  0  0  0  0  0  0  0  0
    6.5897  -14.8188   25.3256 C   0  0  2  0  0  0  0  0  0  0  0  0
    7.2937  -15.5460   26.3998 N   0  0  0  0  0  0  0  0  0  0  0  0
    7.1231  -15.3503   24.0553 C   0  0  0  0  0  0  0  0  0  0  0  0
    6.7494  -14.9433   22.9116 O   0  0  0  0  0  0  0  0  0  0  0  0
    9.0740  -15.1182   22.2244 C   0  0  0  0  0  0  0  0  0  0  0  0
    9.2587  -16.3119   23.1416 C   0  0  2  0  0  0  0  0  0  0  0  0
    8.1097  -16.3717   24.0622 N   0  0  0  0  0  0  0  0  0  0  0  0
   10.5249  -16.2344   23.8894 C   0  0  0  0  0  0  0  0  0  0  0  0
   11.6094  -15.9952   23.2844 O   0  0  0  0  0  0  0  0  0  0  0  0
   10.0132  -14.9863   28.8484 N   0  0  0  0  0  0  0  0  0  0  0  0
   10.9640  -15.0631   27.7804 C   0  0  0  0  0  0  0  0  0  0  0  0
   11.2014  -14.0329   27.1286 O   0  0  0  0  0  0  0  0  0  0  0  0
   11.6275  -16.3292   27.4795 C   0  0  0  0  0  0  0  0  0  0  0  0
   11.8649  -16.4802   26.0179 C   0  0  2  0  0  0  0  0  0  0  0  0
   10.5963  -16.4158   25.2732 N   0  0  0  0  0  0  0  0  0  0  0  0
   12.4268  -17.8019   25.7235 C   0  0  0  0  0  0  0  0  0  0  0  0
   11.6574  -18.7257   25.3002 O   0  0  0  0  0  0  0  0  0  0  0  0
   13.7389  -18.1355   25.8680 O   0  0  0  0  0  0  0  0  0  0  0  0
  1  2  1  0
  2  3  1  0
  3  4  1  6
  5  3  1  0
  5  6  1  1
  7  5  1  0
  7 11  1  0
  8  7  2  0
 10 11  1  0
 10 12  1  0
 10  9  1  6
 12 19  1  0
 13 12  2  0
 15 14  1  0
 16 15  2  0
 17 15  1  0
 18 17  1  1
 19 18  1  0
 20 22  1  0
 20 18  1  0
 21 20  2  0
M  END
$$$$
