IAN.pdb
     RDKit          3D

 22 21  0  0  1  0  0  0  0  0999 V2000
    6.7040  -10.5217   26.9834 C   0  0  0  0  0  0  0  0  0  0  0  0
    7.3976  -11.8649   27.2743 C   0  0  0  0  0  0  0  0  0  0  0  0
    6.9677  -12.7892   26.1907 C   0  0  2  0  0  0  0  0  0  0  0  0
    5.4768  -12.8513   26.1181 C   0  0  0  0  0  0  0  0  0  0  0  0
    7.6321  -14.1418   26.1868 C   0  0  2  0  0  0  0  0  0  0  0  0
    9.0713  -13.8417   26.3176 N   0  0  0  0  0  0  0  0  0  0  0  0
    7.4819  -14.8743   24.9135 C   0  0  0  0  0  0  0  0  0  0  0  0
    6.5119  -15.6550   24.6626 O   0  0  0  0  0  0  0  0  0  0  0  0
    8.6293  -14.4696   21.4793 C   0  0  0  0  0  0  0  0  0  0  0  0
    8.2887  -15.4341   22.5991 C   0  0  2  0  0  0  0  0  0  0  0  0
    8.4484  -14.7291   23.8832 N   0  0  0  0  0  0  0  0  0  0  0  0
    9.1326  -16.6401   22.5558 C   0  0  0  0  0  0  0  0  0  0  0  0
    9.1625  -17.3608   21.5170 O   0  0  0  0  0  0  0  0  0  0  0  0
   13.4524  -19.8392   22.5406 N   0  0  0  0  0  0  0  0  0  0  0  0
   13.1169  -18.9699   23.6281 C   0  0  0  0  0  0  0  0  0  0  0  0
   13.6058  -19.2085   24.7446 O   0  0  0  0  0  0  0  0  0  0  0  0
   12.2208  -17.8369   23.4110 C   0  0  0  0  0  0  0  0  0  0  0  0
   10.7976  -18.2311   23.5965 C   0  0  2  0  0  0  0  0  0  0  0  0
    9.9270  -17.0442   23.6321 N   0  0  0  0  0  0  0  0  0  0  0  0
   10.6134  -18.8927   24.8917 C   0  0  0  0  0  0  0  0  0  0  0  0
    9.9210  -18.3159   25.7930 O   0  0  0  0  0  0  0  0  0  0  0  0
   11.1342  -20.1065   25.2226 O   0  0  0  0  0  0  0  0  0  0  0  0
  1  2  1  0
  2  3  1  0
  3  4  1  1
  5  3  1  0
  5  6  1  6
  7  5  1  0
  7 11  1  0
  8  7  2  0
 10 11  1  0
 10 12  1  0
 10  9  1  6
 12 19  1  0
 13 12  2  0
 15 14  1  0
 16 15  2  0
 17 15  1  0
 18 17  1  1
 19 18  1  0
 20 22  1  0
 20 18  1  0
 21 20  2  0
M  END
$$$$
