VHH.pdb
     RDKit          3D

 28 29  0  0  1  0  0  0  0  0999 V2000
   12.4146  -18.0445   12.3951 C   0  0  0  0  0  0  0  0  0  0  0  0
   12.2523  -17.2305   13.6344 C   0  0  2  0  0  0  0  0  0  0  0  0
   12.1890  -18.1761   14.8181 C   0  0  0  0  0  0  0  0  0  0  0  0
   11.0072  -16.3910   13.6570 C   0  0  2  0  0  0  0  0  0  0  0  0
   11.0388  -15.4934   12.5252 N   0  0  0  0  0  0  0  0  0  0  0  0
   10.8609  -15.6183   14.9124 C   0  0  0  0  0  0  0  0  0  0  0  0
   11.7313  -14.7460   15.1629 O   0  0  0  0  0  0  0  0  0  0  0  0
    9.8170  -15.8045   15.8261 N   0  0  0  0  0  0  0  0  0  0  0  0
    9.7564  -14.9825   17.0426 C   0  0  1  0  0  0  0  0  0  0  0  0
    8.3341  -14.8602   17.4700 C   0  0  0  0  0  0  0  0  0  0  0  0
    8.0474  -14.2607   18.7575 C   0  0  0  0  0  0  0  0  0  0  0  0
    8.0153  -12.8712   18.9552 C   0  0  0  0  0  0  0  0  0  0  0  0
    7.7286  -12.5803   20.2294 N   0  0  0  0  0  0  0  0  0  0  0  0
    7.5749  -13.7506   20.8587 C   0  0  0  0  0  0  0  0  0  0  0  0
    7.7661  -14.7481   19.9766 N   0  0  0  0  0  0  0  0  0  0  0  0
   10.7159  -15.4770   18.0305 C   0  0  0  0  0  0  0  0  0  0  0  0
   10.8919  -16.7277   18.1272 O   0  0  0  0  0  0  0  0  0  0  0  0
   11.4887  -14.6809   18.9047 N   0  0  0  0  0  0  0  0  0  0  0  0
   12.4256  -15.2333   19.8508 C   0  0  1  0  0  0  0  0  0  0  0  0
   13.5817  -14.3006   20.1233 C   0  0  0  0  0  0  0  0  0  0  0  0
   14.5597  -14.2711   19.0078 C   0  0  0  0  0  0  0  0  0  0  0  0
   14.4941  -15.1481   17.9461 C   0  0  0  0  0  0  0  0  0  0  0  0
   15.5045  -14.8828   17.0986 N   0  0  0  0  0  0  0  0  0  0  0  0
   16.1973  -13.8540   17.6177 C   0  0  0  0  0  0  0  0  0  0  0  0
   15.6188  -13.4774   18.7894 N   0  0  0  0  0  0  0  0  0  0  0  0
   11.7924  -15.7393   21.0783 C   0  0  0  0  0  0  0  0  0  0  0  0
   10.4259  -15.7073   21.2704 O   0  0  0  0  0  0  0  0  0  0  0  0
   12.4779  -16.2364   22.0328 O   0  0  0  0  0  0  0  0  0  0  0  0
  2  1  1  6
  2  3  1  0
  4  2  1  0
  4  5  1  6
  6  8  1  0
  6  4  1  0
  7  6  2  0
  9  8  1  0
  9 10  1  1
 11 12  2  0
 11 10  1  0
 13 12  1  0
 14 15  2  0
 14 13  1  0
 15 11  1  0
 16 18  1  0
 16  9  1  0
 17 16  2  0
 19 18  1  0
 19 26  1  0
 20 21  1  0
 19 20  1  1
 21 25  1  0
 22 21  2  0
 22 23  1  0
 23 24  1  0
 25 24  2  0
 26 27  1  0
 28 26  2  0
M  END
$$$$
