VHH.pdb
     RDKit          3D

 28 29  0  0  1  0  0  0  0  0999 V2000
    7.2578  -12.5210   18.3998 C   0  0  0  0  0  0  0  0  0  0  0  0
    8.3734  -13.2328   19.0879 C   0  0  2  0  0  0  0  0  0  0  0  0
    9.2172  -12.2028   19.8134 C   0  0  0  0  0  0  0  0  0  0  0  0
    9.2800  -13.9910   18.1613 C   0  0  2  0  0  0  0  0  0  0  0  0
    8.4682  -14.8338   17.3136 N   0  0  0  0  0  0  0  0  0  0  0  0
   10.2795  -14.8118   18.8836 C   0  0  0  0  0  0  0  0  0  0  0  0
    9.9630  -15.9947   19.1696 O   0  0  0  0  0  0  0  0  0  0  0  0
   11.5447  -14.3470   19.2614 N   0  0  0  0  0  0  0  0  0  0  0  0
   12.4630  -15.2368   19.9853 C   0  0  1  0  0  0  0  0  0  0  0  0
   13.8633  -14.8886   19.6129 C   0  0  0  0  0  0  0  0  0  0  0  0
   14.3540  -15.2929   18.3109 C   0  0  0  0  0  0  0  0  0  0  0  0
   14.5970  -14.3766   17.2755 C   0  0  0  0  0  0  0  0  0  0  0  0
   15.0438  -15.0048   16.1818 N   0  0  0  0  0  0  0  0  0  0  0  0
   15.0946  -16.3060   16.4878 C   0  0  0  0  0  0  0  0  0  0  0  0
   14.6825  -16.4715   17.7576 N   0  0  0  0  0  0  0  0  0  0  0  0
   12.1291  -15.2508   21.4099 C   0  0  0  0  0  0  0  0  0  0  0  0
   11.3162  -14.3836   21.8477 O   0  0  0  0  0  0  0  0  0  0  0  0
   12.6296  -16.1594   22.3686 N   0  0  0  0  0  0  0  0  0  0  0  0
   11.7860  -17.0562   23.1184 C   0  0  1  0  0  0  0  0  0  0  0  0
   10.8836  -17.8746   22.2257 C   0  0  0  0  0  0  0  0  0  0  0  0
    9.5379  -17.2683   22.0733 C   0  0  0  0  0  0  0  0  0  0  0  0
    9.2211  -16.0343   22.6000 C   0  0  0  0  0  0  0  0  0  0  0  0
    7.9400  -15.7501   22.3039 N   0  0  0  0  0  0  0  0  0  0  0  0
    7.4558  -16.7890   21.6011 C   0  0  0  0  0  0  0  0  0  0  0  0
    8.4351  -17.7216   21.4587 N   0  0  0  0  0  0  0  0  0  0  0  0
   12.5194  -17.8717   24.0986 C   0  0  0  0  0  0  0  0  0  0  0  0
   12.2006  -17.8746   25.4415 O   0  0  0  0  0  0  0  0  0  0  0  0
   13.4926  -18.6220   23.7552 O   0  0  0  0  0  0  0  0  0  0  0  0
  2  1  1  6
  2  3  1  0
  4  2  1  0
  4  5  1  1
  6  8  1  0
  6  4  1  0
  7  6  2  0
  9  8  1  0
  9 10  1  1
 11 12  2  0
 11 10  1  0
 13 12  1  0
 14 15  2  0
 14 13  1  0
 15 11  1  0
 16 18  1  0
 16  9  1  0
 17 16  2  0
 19 18  1  0
 19 26  1  0
 20 21  1  0
 19 20  1  6
 21 25  1  0
 22 21  2  0
 22 23  1  0
 23 24  1  0
 25 24  2  0
 26 27  1  0
 28 26  2  0
M  END
$$$$
