VHH.pdb
     RDKit          3D

 28 29  0  0  1  0  0  0  0  0999 V2000
   10.1821  -19.1365   19.1725 C   0  0  0  0  0  0  0  0  0  0  0  0
    9.0366  -18.4193   18.5415 C   0  0  2  0  0  0  0  0  0  0  0  0
    8.8605  -18.9533   17.1332 C   0  0  0  0  0  0  0  0  0  0  0  0
    9.2243  -16.9325   18.4429 C   0  0  2  0  0  0  0  0  0  0  0  0
   10.4058  -16.6709   17.6534 N   0  0  0  0  0  0  0  0  0  0  0  0
    9.3463  -16.2822   19.7683 C   0  0  0  0  0  0  0  0  0  0  0  0
   10.5042  -16.1156   20.2297 O   0  0  0  0  0  0  0  0  0  0  0  0
    8.2538  -15.8472   20.5276 N   0  0  0  0  0  0  0  0  0  0  0  0
    8.4743  -15.2769   21.8637 C   0  0  1  0  0  0  0  0  0  0  0  0
    7.2062  -14.6520   22.3350 C   0  0  0  0  0  0  0  0  0  0  0  0
    7.1323  -14.1845   23.7045 C   0  0  0  0  0  0  0  0  0  0  0  0
    6.3304  -14.8065   24.6744 C   0  0  0  0  0  0  0  0  0  0  0  0
    6.4417  -14.1822   25.8527 N   0  0  0  0  0  0  0  0  0  0  0  0
    7.2973  -13.1713   25.6653 C   0  0  0  0  0  0  0  0  0  0  0  0
    7.7054  -13.1777   24.3835 N   0  0  0  0  0  0  0  0  0  0  0  0
    9.0999  -16.2709   22.7365 C   0  0  0  0  0  0  0  0  0  0  0  0
    8.7233  -17.4768   22.6445 O   0  0  0  0  0  0  0  0  0  0  0  0
   10.1098  -16.0163   23.6906 N   0  0  0  0  0  0  0  0  0  0  0  0
   10.6518  -17.0359   24.5537 C   0  0  1  0  0  0  0  0  0  0  0  0
   12.1585  -17.1077   24.4795 C   0  0  0  0  0  0  0  0  0  0  0  0
   12.7192  -18.1557   25.3677 C   0  0  0  0  0  0  0  0  0  0  0  0
   11.9211  -18.9709   26.1417 C   0  0  0  0  0  0  0  0  0  0  0  0
   12.7046  -19.8160   26.8356 N   0  0  0  0  0  0  0  0  0  0  0  0
   13.9778  -19.5383   26.5046 C   0  0  0  0  0  0  0  0  0  0  0  0
   13.9886  -18.5196   25.6039 N   0  0  0  0  0  0  0  0  0  0  0  0
   10.1460  -16.9682   25.9333 C   0  0  0  0  0  0  0  0  0  0  0  0
   10.4025  -17.9563   26.8622 O   0  0  0  0  0  0  0  0  0  0  0  0
    9.4408  -15.9871   26.3435 O   0  0  0  0  0  0  0  0  0  0  0  0
  2  1  1  6
  2  3  1  0
  4  2  1  0
  4  5  1  6
  6  8  1  0
  6  4  1  0
  7  6  2  0
  9  8  1  0
  9 10  1  1
 11 12  2  0
 11 10  1  0
 13 12  1  0
 14 15  2  0
 14 13  1  0
 15 11  1  0
 16 18  1  0
 16  9  1  0
 17 16  2  0
 19 18  1  0
 19 26  1  0
 20 21  1  0
 19 20  1  1
 21 25  1  0
 22 21  2  0
 22 23  1  0
 23 24  1  0
 25 24  2  0
 26 27  1  0
 28 26  2  0
M  END
$$$$
