VHH.pdb
     RDKit          3D

 28 29  0  0  1  0  0  0  0  0999 V2000
    7.8247  -13.9685   20.1672 C   0  0  0  0  0  0  0  0  0  0  0  0
    8.5725  -13.1783   19.1470 C   0  0  2  0  0  0  0  0  0  0  0  0
    7.5668  -12.4112   18.3105 C   0  0  0  0  0  0  0  0  0  0  0  0
    9.3988  -14.0128   18.2109 C   0  0  2  0  0  0  0  0  0  0  0  0
    8.5141  -14.8808   17.4682 N   0  0  0  0  0  0  0  0  0  0  0  0
   10.4241  -14.8172   18.9153 C   0  0  0  0  0  0  0  0  0  0  0  0
   10.1592  -16.0249   19.1443 O   0  0  0  0  0  0  0  0  0  0  0  0
   11.6597  -14.3112   19.3357 N   0  0  0  0  0  0  0  0  0  0  0  0
   12.5465  -15.1431   20.1607 C   0  0  1  0  0  0  0  0  0  0  0  0
   13.9437  -14.6452   20.0171 C   0  0  0  0  0  0  0  0  0  0  0  0
   14.5537  -14.6645   18.7029 C   0  0  0  0  0  0  0  0  0  0  0  0
   14.8688  -15.8568   18.0321 C   0  0  0  0  0  0  0  0  0  0  0  0
   15.4206  -15.5986   16.8407 N   0  0  0  0  0  0  0  0  0  0  0  0
   15.4688  -14.2667   16.7274 C   0  0  0  0  0  0  0  0  0  0  0  0
   14.9509  -13.7156   17.8399 N   0  0  0  0  0  0  0  0  0  0  0  0
   12.0089  -15.2575   21.5168 C   0  0  0  0  0  0  0  0  0  0  0  0
   10.9808  -14.5813   21.8173 O   0  0  0  0  0  0  0  0  0  0  0  0
   12.5299  -16.0699   22.5481 N   0  0  0  0  0  0  0  0  0  0  0  0
   11.7284  -17.0122   23.2884 C   0  0  1  0  0  0  0  0  0  0  0  0
   10.7759  -17.7765   22.3999 C   0  0  0  0  0  0  0  0  0  0  0  0
    9.4101  -17.1967   22.4041 C   0  0  0  0  0  0  0  0  0  0  0  0
    9.0802  -16.0918   23.1597 C   0  0  0  0  0  0  0  0  0  0  0  0
    7.7822  -15.7998   22.9611 N   0  0  0  0  0  0  0  0  0  0  0  0
    7.3003  -16.7067   22.0933 C   0  0  0  0  0  0  0  0  0  0  0  0
    8.2980  -17.5648   21.7505 N   0  0  0  0  0  0  0  0  0  0  0  0
   12.5146  -17.8843   24.1744 C   0  0  0  0  0  0  0  0  0  0  0  0
   12.3158  -17.9204   25.5398 O   0  0  0  0  0  0  0  0  0  0  0  0
   13.4251  -18.6560   23.7232 O   0  0  0  0  0  0  0  0  0  0  0  0
  2  1  1  1
  2  3  1  0
  4  2  1  0
  4  5  1  1
  6  8  1  0
  6  4  1  0
  7  6  2  0
  9  8  1  0
  9 10  1  1
 11 12  2  0
 11 10  1  0
 13 12  1  0
 14 15  2  0
 14 13  1  0
 15 11  1  0
 16 18  1  0
 16  9  1  0
 17 16  2  0
 19 18  1  0
 19 26  1  0
 20 21  1  0
 19 20  1  6
 21 25  1  0
 22 21  2  0
 22 23  1  0
 23 24  1  0
 25 24  2  0
 26 27  1  0
 28 26  2  0
M  END
$$$$
