VHH.pdb
     RDKit          3D

 28 29  0  0  1  0  0  0  0  0999 V2000
    8.0591  -13.5785   20.4937 C   0  0  0  0  0  0  0  0  0  0  0  0
    8.6649  -12.7710   19.3957 C   0  0  2  0  0  0  0  0  0  0  0  0
    7.5990  -11.8432   18.8457 C   0  0  0  0  0  0  0  0  0  0  0  0
    9.1888  -13.5895   18.2508 C   0  0  2  0  0  0  0  0  0  0  0  0
    8.0814  -14.2941   17.6465 N   0  0  0  0  0  0  0  0  0  0  0  0
   10.2350  -14.5521   18.6672 C   0  0  0  0  0  0  0  0  0  0  0  0
    9.9153  -15.7666   18.7311 O   0  0  0  0  0  0  0  0  0  0  0  0
   11.5471  -14.1870   18.9903 N   0  0  0  0  0  0  0  0  0  0  0  0
   12.4995  -15.2109   19.4417 C   0  0  1  0  0  0  0  0  0  0  0  0
   13.8627  -14.8430   18.9652 C   0  0  0  0  0  0  0  0  0  0  0  0
   14.2512  -15.2200   17.6211 C   0  0  0  0  0  0  0  0  0  0  0  0
   13.5739  -16.2054   16.8858 C   0  0  0  0  0  0  0  0  0  0  0  0
   14.1300  -16.3622   15.6789 N   0  0  0  0  0  0  0  0  0  0  0  0
   15.1511  -15.5001   15.6186 C   0  0  0  0  0  0  0  0  0  0  0  0
   15.2183  -14.8225   16.7787 N   0  0  0  0  0  0  0  0  0  0  0  0
   12.3307  -15.4562   20.8744 C   0  0  0  0  0  0  0  0  0  0  0  0
   12.6259  -14.5281   21.6843 O   0  0  0  0  0  0  0  0  0  0  0  0
   11.8550  -16.6506   21.4594 N   0  0  0  0  0  0  0  0  0  0  0  0
   11.8259  -16.8719   22.8836 C   0  0  1  0  0  0  0  0  0  0  0  0
   10.4909  -17.3983   23.3543 C   0  0  0  0  0  0  0  0  0  0  0  0
    9.3697  -16.4928   23.0016 C   0  0  0  0  0  0  0  0  0  0  0  0
    8.7839  -15.6508   23.9227 C   0  0  0  0  0  0  0  0  0  0  0  0
    7.8028  -14.9575   23.3174 N   0  0  0  0  0  0  0  0  0  0  0  0
    7.7700  -15.3560   22.0337 C   0  0  0  0  0  0  0  0  0  0  0  0
    8.7309  -16.2981   21.8381 N   0  0  0  0  0  0  0  0  0  0  0  0
   12.9635  -17.6619   23.3792 C   0  0  0  0  0  0  0  0  0  0  0  0
   13.1904  -17.8636   24.7256 O   0  0  0  0  0  0  0  0  0  0  0  0
   13.8025  -18.2038   22.5852 O   0  0  0  0  0  0  0  0  0  0  0  0
  2  1  1  1
  2  3  1  0
  4  2  1  0
  4  5  1  1
  6  8  1  0
  6  4  1  0
  7  6  2  0
  9  8  1  0
  9 10  1  1
 11 12  2  0
 11 10  1  0
 13 12  1  0
 14 15  2  0
 14 13  1  0
 15 11  1  0
 16 18  1  0
 16  9  1  0
 17 16  2  0
 19 18  1  0
 19 26  1  0
 20 21  1  0
 19 20  1  6
 21 25  1  0
 22 21  2  0
 22 23  1  0
 23 24  1  0
 25 24  2  0
 26 27  1  0
 28 26  2  0
M  END
$$$$
