VHH.pdb
     RDKit          3D

 28 29  0  0  1  0  0  0  0  0999 V2000
    8.6741  -12.1000   19.6891 C   0  0  0  0  0  0  0  0  0  0  0  0
    7.9196  -13.1088   18.8905 C   0  0  2  0  0  0  0  0  0  0  0  0
    7.3174  -14.1182   19.8486 C   0  0  0  0  0  0  0  0  0  0  0  0
    8.7635  -13.8656   17.9054 C   0  0  2  0  0  0  0  0  0  0  0  0
    7.9174  -14.8005   17.1998 N   0  0  0  0  0  0  0  0  0  0  0  0
    9.8872  -14.5852   18.5487 C   0  0  0  0  0  0  0  0  0  0  0  0
    9.6856  -15.7722   18.9116 O   0  0  0  0  0  0  0  0  0  0  0  0
   11.1488  -14.0215   18.7724 N   0  0  0  0  0  0  0  0  0  0  0  0
   12.2026  -14.8213   19.4120 C   0  0  1  0  0  0  0  0  0  0  0  0
   13.5281  -14.2354   19.0652 C   0  0  0  0  0  0  0  0  0  0  0  0
   14.7254  -14.9417   19.4743 C   0  0  0  0  0  0  0  0  0  0  0  0
   14.8083  -16.3429   19.4936 C   0  0  0  0  0  0  0  0  0  0  0  0
   16.0168  -16.7404   19.9084 N   0  0  0  0  0  0  0  0  0  0  0  0
   16.7157  -15.6274   20.1573 C   0  0  0  0  0  0  0  0  0  0  0  0
   15.9411  -14.5589   19.8968 N   0  0  0  0  0  0  0  0  0  0  0  0
   11.8995  -15.0073   20.8314 C   0  0  0  0  0  0  0  0  0  0  0  0
   11.6192  -13.9867   21.5272 O   0  0  0  0  0  0  0  0  0  0  0  0
   11.8821  -16.2407   21.5195 N   0  0  0  0  0  0  0  0  0  0  0  0
   11.5932  -16.3522   22.9275 C   0  0  1  0  0  0  0  0  0  0  0  0
   10.4265  -17.2711   23.2018 C   0  0  0  0  0  0  0  0  0  0  0  0
    9.1245  -16.6528   22.8494 C   0  0  0  0  0  0  0  0  0  0  0  0
    9.0287  -15.3760   22.3383 C   0  0  0  0  0  0  0  0  0  0  0  0
    7.7327  -15.0910   22.1178 N   0  0  0  0  0  0  0  0  0  0  0  0
    7.0214  -16.1715   22.4842 C   0  0  0  0  0  0  0  0  0  0  0  0
    7.8740  -17.1309   22.9334 N   0  0  0  0  0  0  0  0  0  0  0  0
   12.7747  -16.6612   23.7474 C   0  0  0  0  0  0  0  0  0  0  0  0
   12.7395  -16.6453   25.1271 O   0  0  0  0  0  0  0  0  0  0  0  0
   13.8979  -16.9615   23.2219 O   0  0  0  0  0  0  0  0  0  0  0  0
  2  1  1  1
  2  3  1  0
  4  2  1  0
  4  5  1  1
  6  8  1  0
  6  4  1  0
  7  6  2  0
  9  8  1  0
  9 10  1  1
 11 12  2  0
 11 10  1  0
 13 12  1  0
 14 15  2  0
 14 13  1  0
 15 11  1  0
 16 18  1  0
 16  9  1  0
 17 16  2  0
 19 18  1  0
 19 26  1  0
 20 21  1  0
 19 20  1  6
 21 25  1  0
 22 21  2  0
 22 23  1  0
 23 24  1  0
 25 24  2  0
 26 27  1  0
 28 26  2  0
M  END
$$$$
