VHH.pdb
     RDKit          3D

 28 29  0  0  1  0  0  0  0  0999 V2000
    8.5043  -13.4203   20.7092 C   0  0  0  0  0  0  0  0  0  0  0  0
    8.7878  -12.8255   19.3711 C   0  0  2  0  0  0  0  0  0  0  0  0
    7.5213  -12.1584   18.8708 C   0  0  0  0  0  0  0  0  0  0  0  0
    9.2142  -13.8250   18.3345 C   0  0  2  0  0  0  0  0  0  0  0  0
    8.1066  -14.7153   18.0731 N   0  0  0  0  0  0  0  0  0  0  0  0
   10.4045  -14.6045   18.7469 C   0  0  0  0  0  0  0  0  0  0  0  0
   10.2105  -15.7465   19.2362 O   0  0  0  0  0  0  0  0  0  0  0  0
   11.7204  -14.1437   18.6228 N   0  0  0  0  0  0  0  0  0  0  0  0
   12.8283  -14.9455   19.1602 C   0  0  1  0  0  0  0  0  0  0  0  0
   14.0228  -14.7600   18.2889 C   0  0  0  0  0  0  0  0  0  0  0  0
   13.9630  -15.2364   16.9218 C   0  0  0  0  0  0  0  0  0  0  0  0
   14.1199  -16.5900   16.5843 C   0  0  0  0  0  0  0  0  0  0  0  0
   14.0218  -16.7630   15.2611 N   0  0  0  0  0  0  0  0  0  0  0  0
   13.8051  -15.5516   14.7368 C   0  0  0  0  0  0  0  0  0  0  0  0
   13.7711  -14.6462   15.7311 N   0  0  0  0  0  0  0  0  0  0  0  0
   12.9908  -14.6818   20.5903 C   0  0  0  0  0  0  0  0  0  0  0  0
   12.1104  -13.9875   21.1797 O   0  0  0  0  0  0  0  0  0  0  0  0
   14.0533  -15.1391   21.4009 N   0  0  0  0  0  0  0  0  0  0  0  0
   13.8590  -15.9990   22.5416 C   0  0  1  0  0  0  0  0  0  0  0  0
   12.9695  -17.1778   22.2254 C   0  0  0  0  0  0  0  0  0  0  0  0
   11.5547  -16.9356   22.6013 C   0  0  0  0  0  0  0  0  0  0  0  0
   11.1204  -15.7253   23.0985 C   0  0  0  0  0  0  0  0  0  0  0  0
    9.8007  -15.8043   23.3466 N   0  0  0  0  0  0  0  0  0  0  0  0
    9.4080  -17.0457   23.0110 C   0  0  0  0  0  0  0  0  0  0  0  0
   10.4832  -17.7413   22.5534 N   0  0  0  0  0  0  0  0  0  0  0  0
   15.1127  -16.3857   23.2066 C   0  0  0  0  0  0  0  0  0  0  0  0
   15.3625  -16.0993   24.5336 O   0  0  0  0  0  0  0  0  0  0  0  0
   16.0378  -17.0091   22.5873 O   0  0  0  0  0  0  0  0  0  0  0  0
  2  1  1  1
  2  3  1  0
  4  2  1  0
  4  5  1  1
  6  8  1  0
  6  4  1  0
  7  6  2  0
  9  8  1  0
  9 10  1  6
 11 12  2  0
 11 10  1  0
 13 12  1  0
 14 15  2  0
 14 13  1  0
 15 11  1  0
 16 18  1  0
 16  9  1  0
 17 16  2  0
 19 18  1  0
 19 26  1  0
 20 21  1  0
 19 20  1  6
 21 25  1  0
 22 21  2  0
 22 23  1  0
 23 24  1  0
 25 24  2  0
 26 27  1  0
 28 26  2  0
M  END
$$$$
