VHH.pdb
     RDKit          3D

 28 29  0  0  1  0  0  0  0  0999 V2000
    7.8251  -12.1305   18.8411 C   0  0  0  0  0  0  0  0  0  0  0  0
    8.0031  -13.3236   19.7183 C   0  0  2  0  0  0  0  0  0  0  0  0
    8.7959  -12.9003   20.9396 C   0  0  0  0  0  0  0  0  0  0  0  0
    8.7426  -14.4572   19.0676 C   0  0  2  0  0  0  0  0  0  0  0  0
    8.0187  -14.8567   17.8827 N   0  0  0  0  0  0  0  0  0  0  0  0
    8.9178  -15.6189   19.9700 C   0  0  0  0  0  0  0  0  0  0  0  0
    7.9858  -16.4616   20.0204 O   0  0  0  0  0  0  0  0  0  0  0  0
   10.0529  -15.8276   20.7621 N   0  0  0  0  0  0  0  0  0  0  0  0
   10.1422  -17.0254   21.6085 C   0  0  1  0  0  0  0  0  0  0  0  0
   11.3348  -17.8179   21.1959 C   0  0  0  0  0  0  0  0  0  0  0  0
   11.6588  -19.0186   21.9393 C   0  0  0  0  0  0  0  0  0  0  0  0
   12.6086  -19.0358   22.9729 C   0  0  0  0  0  0  0  0  0  0  0  0
   12.7193  -20.2631   23.4944 N   0  0  0  0  0  0  0  0  0  0  0  0
   11.8625  -21.0385   22.8208 C   0  0  0  0  0  0  0  0  0  0  0  0
   11.2336  -20.2915   21.8956 N   0  0  0  0  0  0  0  0  0  0  0  0
   10.0377  -16.6515   23.0194 C   0  0  0  0  0  0  0  0  0  0  0  0
   10.6338  -15.6051   23.4120 O   0  0  0  0  0  0  0  0  0  0  0  0
    9.3171  -17.3538   24.0107 N   0  0  0  0  0  0  0  0  0  0  0  0
    9.2963  -16.9583   25.3968 C   0  0  1  0  0  0  0  0  0  0  0  0
    7.9020  -16.6369   25.8799 C   0  0  0  0  0  0  0  0  0  0  0  0
    7.4674  -15.2737   25.4869 C   0  0  0  0  0  0  0  0  0  0  0  0
    8.3188  -14.3741   24.8814 C   0  0  0  0  0  0  0  0  0  0  0  0
    7.6491  -13.2316   24.6449 N   0  0  0  0  0  0  0  0  0  0  0  0
    6.3942  -13.4076   25.0944 C   0  0  0  0  0  0  0  0  0  0  0  0
    6.2810  -14.6602   25.6115 N   0  0  0  0  0  0  0  0  0  0  0  0
   10.0132  -17.8870   26.2840 C   0  0  0  0  0  0  0  0  0  0  0  0
   10.2736  -17.5907   27.6067 O   0  0  0  0  0  0  0  0  0  0  0  0
   10.4329  -19.0200   25.8737 O   0  0  0  0  0  0  0  0  0  0  0  0
  2  1  1  6
  2  3  1  0
  4  2  1  0
  4  5  1  6
  6  8  1  0
  6  4  1  0
  7  6  2  0
  9  8  1  0
  9 10  1  1
 11 12  2  0
 11 10  1  0
 13 12  1  0
 14 15  2  0
 14 13  1  0
 15 11  1  0
 16 18  1  0
 16  9  1  0
 17 16  2  0
 19 18  1  0
 19 26  1  0
 20 21  1  0
 19 20  1  1
 21 25  1  0
 22 21  2  0
 22 23  1  0
 23 24  1  0
 25 24  2  0
 26 27  1  0
 28 26  2  0
M  END
$$$$
