VHH.pdb
     RDKit          3D

 28 29  0  0  1  0  0  0  0  0999 V2000
   12.4856  -18.3325   13.3135 C   0  0  0  0  0  0  0  0  0  0  0  0
   11.3240  -17.7703   12.5656 C   0  0  2  0  0  0  0  0  0  0  0  0
   11.4753  -18.1441   11.1038 C   0  0  0  0  0  0  0  0  0  0  0  0
   11.2120  -16.2747   12.6423 C   0  0  2  0  0  0  0  0  0  0  0  0
   12.3837  -15.6950   12.0269 N   0  0  0  0  0  0  0  0  0  0  0  0
   11.0736  -15.7819   14.0324 C   0  0  0  0  0  0  0  0  0  0  0  0
   12.1291  -15.5254   14.6660 O   0  0  0  0  0  0  0  0  0  0  0  0
    9.8442  -15.5882   14.6730 N   0  0  0  0  0  0  0  0  0  0  0  0
    9.8116  -15.0897   16.0549 C   0  0  1  0  0  0  0  0  0  0  0  0
    8.4401  -14.5893   16.3532 C   0  0  0  0  0  0  0  0  0  0  0  0
    8.1734  -14.0438   17.6689 C   0  0  0  0  0  0  0  0  0  0  0  0
    9.1385  -14.0194   18.6880 C   0  0  0  0  0  0  0  0  0  0  0  0
    8.6400  -13.4655   19.7995 N   0  0  0  0  0  0  0  0  0  0  0  0
    7.3750  -13.1319   19.5208 C   0  0  0  0  0  0  0  0  0  0  0  0
    7.1027  -13.4789   18.2499 N   0  0  0  0  0  0  0  0  0  0  0  0
   10.3754  -16.0897   16.9622 C   0  0  0  0  0  0  0  0  0  0  0  0
   10.7942  -17.1804   16.4729 O   0  0  0  0  0  0  0  0  0  0  0  0
   10.5082  -15.9560   18.3621 N   0  0  0  0  0  0  0  0  0  0  0  0
   11.4330  -16.7390   19.1431 C   0  0  1  0  0  0  0  0  0  0  0  0
   12.8544  -16.6063   18.6504 C   0  0  0  0  0  0  0  0  0  0  0  0
   13.7928  -17.4895   19.3860 C   0  0  0  0  0  0  0  0  0  0  0  0
   13.3590  -18.4418   20.2836 C   0  0  0  0  0  0  0  0  0  0  0  0
   14.4281  -19.0827   20.7894 N   0  0  0  0  0  0  0  0  0  0  0  0
   15.5199  -18.5431   20.2198 C   0  0  0  0  0  0  0  0  0  0  0  0
   15.1318  -17.5652   19.3582 N   0  0  0  0  0  0  0  0  0  0  0  0
   11.3041  -16.5275   20.5930 C   0  0  0  0  0  0  0  0  0  0  0  0
   10.3583  -15.6798   21.1334 O   0  0  0  0  0  0  0  0  0  0  0  0
   12.0640  -17.1203   21.4292 O   0  0  0  0  0  0  0  0  0  0  0  0
  2  1  1  1
  2  3  1  0
  4  2  1  0
  4  5  1  1
  6  8  1  0
  6  4  1  0
  7  6  2  0
  9  8  1  0
  9 10  1  1
 11 12  2  0
 11 10  1  0
 13 12  1  0
 14 15  2  0
 14 13  1  0
 15 11  1  0
 16 18  1  0
 16  9  1  0
 17 16  2  0
 19 18  1  0
 19 26  1  0
 20 21  1  0
 19 20  1  6
 21 25  1  0
 22 21  2  0
 22 23  1  0
 23 24  1  0
 25 24  2  0
 26 27  1  0
 28 26  2  0
M  END
$$$$
