SNF.pdb
     RDKit          3D

 26 26  0  0  1  0  0  0  0  0999 V2000
    9.6712  -13.0989   20.2644 O   0  0  0  0  0  0  0  0  0  0  0  0
    9.3975  -14.3719   19.7855 C   0  0  0  0  0  0  0  0  0  0  0  0
    7.8952  -14.5394   19.6105 C   0  0  2  0  0  0  0  0  0  0  0  0
    7.3284  -13.2557   19.2890 N   0  0  0  0  0  0  0  0  0  0  0  0
    7.3816  -15.0327   20.9256 C   0  0  0  0  0  0  0  0  0  0  0  0
    6.7024  -14.2799   21.6869 O   0  0  0  0  0  0  0  0  0  0  0  0
    5.1649  -19.0862   23.9704 N   0  0  0  0  0  0  0  0  0  0  0  0
    6.5328  -19.1906   23.5202 C   0  0  0  0  0  0  0  0  0  0  0  0
    7.2351  -19.9960   24.1418 O   0  0  0  0  0  0  0  0  0  0  0  0
    6.9283  -18.3545   22.4078 C   0  0  0  0  0  0  0  0  0  0  0  0
    6.9524  -16.8481   22.6382 C   0  0  2  0  0  0  0  0  0  0  0  0
    7.6172  -16.3447   21.3903 N   0  0  0  0  0  0  0  0  0  0  0  0
    7.8835  -16.4843   23.7082 C   0  0  0  0  0  0  0  0  0  0  0  0
    9.1261  -16.3674   23.4079 O   0  0  0  0  0  0  0  0  0  0  0  0
    7.4869  -16.2524   25.0410 N   0  0  0  0  0  0  0  0  0  0  0  0
    8.5161  -15.8228   25.9973 C   0  0  1  0  0  0  0  0  0  0  0  0
    7.7715  -15.1275   27.1117 C   0  0  0  0  0  0  0  0  0  0  0  0
    7.1789  -13.8346   26.7127 C   0  0  0  0  0  0  0  0  0  0  0  0
    5.8256  -13.6836   26.5512 C   0  0  0  0  0  0  0  0  0  0  0  0
    5.3485  -12.4447   26.1772 C   0  0  0  0  0  0  0  0  0  0  0  0
    6.1903  -11.3744   25.9666 C   0  0  0  0  0  0  0  0  0  0  0  0
    7.5582  -11.5261   26.1297 C   0  0  0  0  0  0  0  0  0  0  0  0
    8.0073  -12.7636   26.5009 C   0  0  0  0  0  0  0  0  0  0  0  0
    9.2867  -16.9824   26.4703 C   0  0  0  0  0  0  0  0  0  0  0  0
   10.5274  -16.9066   27.0773 O   0  0  0  0  0  0  0  0  0  0  0  0
    8.7994  -18.1459   26.3211 O   0  0  0  0  0  0  0  0  0  0  0  0
  2  1  1  0
  3  2  1  0
  3  4  1  1
  5  6  2  0
  5  3  1  0
  7  8  1  0
  8  9  2  0
  8 10  1  0
 11 10  1  6
 11 12  1  0
 12  5  1  0
 13 15  1  0
 13 11  1  0
 14 13  2  0
 16 15  1  0
 16 17  1  1
 18 17  1  0
 18 23  2  0
 19 18  1  0
 20 19  2  0
 20 21  1  0
 21 22  2  0
 22 23  1  0
 24 16  1  0
 25 24  1  0
 26 24  2  0
M  END
$$$$
