SNF.pdb
     RDKit          3D

 26 26  0  0  1  0  0  0  0  0999 V2000
   10.0601  -13.1763   20.6093 O   0  0  0  0  0  0  0  0  0  0  0  0
    9.4398  -14.1067   19.7880 C   0  0  0  0  0  0  0  0  0  0  0  0
    7.9409  -13.8451   19.7617 C   0  0  2  0  0  0  0  0  0  0  0  0
    7.7254  -12.4236   19.8346 N   0  0  0  0  0  0  0  0  0  0  0  0
    7.3839  -14.5295   20.9692 C   0  0  0  0  0  0  0  0  0  0  0  0
    6.7992  -13.8724   21.8824 O   0  0  0  0  0  0  0  0  0  0  0  0
    5.5225  -18.4135   24.0264 N   0  0  0  0  0  0  0  0  0  0  0  0
    6.0092  -18.9377   22.7722 C   0  0  0  0  0  0  0  0  0  0  0  0
    5.7296  -20.1209   22.5483 O   0  0  0  0  0  0  0  0  0  0  0  0
    6.7601  -18.0362   21.9257 C   0  0  0  0  0  0  0  0  0  0  0  0
    6.8447  -16.5772   22.3581 C   0  0  2  0  0  0  0  0  0  0  0  0
    7.4732  -15.9253   21.1613 N   0  0  0  0  0  0  0  0  0  0  0  0
    7.8316  -16.3903   23.4236 C   0  0  0  0  0  0  0  0  0  0  0  0
    9.0743  -16.4534   23.1078 O   0  0  0  0  0  0  0  0  0  0  0  0
    7.4892  -16.1413   24.7683 N   0  0  0  0  0  0  0  0  0  0  0  0
    8.5833  -15.9555   25.7309 C   0  0  1  0  0  0  0  0  0  0  0  0
    7.9873  -15.1773   26.8794 C   0  0  0  0  0  0  0  0  0  0  0  0
    7.4759  -13.8467   26.4922 C   0  0  0  0  0  0  0  0  0  0  0  0
    6.1319  -13.5966   26.3848 C   0  0  0  0  0  0  0  0  0  0  0  0
    5.7327  -12.3283   26.0184 C   0  0  0  0  0  0  0  0  0  0  0  0
    6.6418  -11.3250   25.7628 C   0  0  0  0  0  0  0  0  0  0  0  0
    8.0004  -11.5768   25.8713 C   0  0  0  0  0  0  0  0  0  0  0  0
    8.3717  -12.8417   26.2360 C   0  0  0  0  0  0  0  0  0  0  0  0
    9.1192  -17.2592   26.1497 C   0  0  0  0  0  0  0  0  0  0  0  0
    8.5260  -18.4780   25.8736 O   0  0  0  0  0  0  0  0  0  0  0  0
   10.2016  -17.2937   26.8135 O   0  0  0  0  0  0  0  0  0  0  0  0
  2  1  1  0
  3  2  1  0
  3  4  1  1
  5  6  2  0
  5  3  1  0
  7  8  1  0
  8  9  2  0
  8 10  1  0
 11 10  1  6
 11 12  1  0
 12  5  1  0
 13 15  1  0
 13 11  1  0
 14 13  2  0
 16 15  1  0
 16 17  1  1
 18 17  1  0
 18 23  2  0
 19 18  1  0
 20 19  2  0
 20 21  1  0
 21 22  2  0
 22 23  1  0
 24 16  1  0
 25 24  1  0
 26 24  2  0
M  END
$$$$
