SNF.pdb
     RDKit          3D

 26 26  0  0  1  0  0  0  0  0999 V2000
    7.6306  -15.9381   15.0626 O   0  0  0  0  0  0  0  0  0  0  0  0
    9.0030  -15.9933   15.2583 C   0  0  0  0  0  0  0  0  0  0  0  0
    9.4407  -17.4441   15.3977 C   0  0  2  0  0  0  0  0  0  0  0  0
    8.8210  -18.2095   14.3478 N   0  0  0  0  0  0  0  0  0  0  0  0
    8.9548  -17.8919   16.7394 C   0  0  0  0  0  0  0  0  0  0  0  0
    8.0630  -18.7866   16.8472 O   0  0  0  0  0  0  0  0  0  0  0  0
    8.5499  -20.8469   19.8842 N   0  0  0  0  0  0  0  0  0  0  0  0
    9.6536  -20.6284   18.9792 C   0  0  0  0  0  0  0  0  0  0  0  0
    9.9733  -21.6025   18.2886 O   0  0  0  0  0  0  0  0  0  0  0  0
   10.2573  -19.3136   18.9782 C   0  0  0  0  0  0  0  0  0  0  0  0
    9.3411  -18.1223   19.2315 C   0  0  2  0  0  0  0  0  0  0  0  0
    9.4523  -17.3549   17.9465 N   0  0  0  0  0  0  0  0  0  0  0  0
    9.9039  -17.2173   20.2356 C   0  0  0  0  0  0  0  0  0  0  0  0
   11.0416  -16.6776   19.9860 O   0  0  0  0  0  0  0  0  0  0  0  0
    9.2622  -16.9063   21.4517 N   0  0  0  0  0  0  0  0  0  0  0  0
    9.9406  -15.9789   22.3670 C   0  0  1  0  0  0  0  0  0  0  0  0
    8.8664  -15.0448   22.8701 C   0  0  0  0  0  0  0  0  0  0  0  0
    8.2456  -14.2276   21.8077 C   0  0  0  0  0  0  0  0  0  0  0  0
    8.8744  -13.1246   21.2894 C   0  0  0  0  0  0  0  0  0  0  0  0
    8.2301  -12.4128   20.2992 C   0  0  0  0  0  0  0  0  0  0  0  0
    6.9888  -12.7820   19.8283 C   0  0  0  0  0  0  0  0  0  0  0  0
    6.3528  -13.8968   20.3514 C   0  0  0  0  0  0  0  0  0  0  0  0
    7.0114  -14.5862   21.3321 C   0  0  0  0  0  0  0  0  0  0  0  0
   10.5954  -16.7236   23.4527 C   0  0  0  0  0  0  0  0  0  0  0  0
   11.5764  -16.2068   24.2797 O   0  0  0  0  0  0  0  0  0  0  0  0
   10.2532  -17.9284   23.6644 O   0  0  0  0  0  0  0  0  0  0  0  0
  2  1  1  0
  3  2  1  0
  3  4  1  6
  5  6  2  0
  5  3  1  0
  7  8  1  0
  8  9  2  0
  8 10  1  0
 11 10  1  6
 11 12  1  0
 12  5  1  0
 13 15  1  0
 13 11  1  0
 14 13  2  0
 16 15  1  0
 16 17  1  1
 18 17  1  0
 18 23  2  0
 19 18  1  0
 20 19  2  0
 20 21  1  0
 21 22  2  0
 22 23  1  0
 24 16  1  0
 25 24  1  0
 26 24  2  0
M  END
$$$$
