SNF.pdb
     RDKit          3D

 26 26  0  0  1  0  0  0  0  0999 V2000
    7.3918  -12.8411   19.9135 O   0  0  0  0  0  0  0  0  0  0  0  0
    8.5754  -12.5604   19.2464 C   0  0  0  0  0  0  0  0  0  0  0  0
    8.9820  -13.7594   18.4020 C   0  0  2  0  0  0  0  0  0  0  0  0
    8.1052  -13.8321   17.2625 N   0  0  0  0  0  0  0  0  0  0  0  0
    8.8111  -14.9570   19.2812 C   0  0  0  0  0  0  0  0  0  0  0  0
    8.1070  -15.9447   18.9120 O   0  0  0  0  0  0  0  0  0  0  0  0
    9.5422  -19.6625   20.6880 N   0  0  0  0  0  0  0  0  0  0  0  0
   10.4513  -18.5973   21.0396 C   0  0  0  0  0  0  0  0  0  0  0  0
   11.3840  -18.9209   21.7836 O   0  0  0  0  0  0  0  0  0  0  0  0
   10.1771  -17.2866   20.4922 C   0  0  0  0  0  0  0  0  0  0  0  0
    9.3393  -16.3356   21.3387 C   0  0  2  0  0  0  0  0  0  0  0  0
    9.4142  -15.0587   20.5536 N   0  0  0  0  0  0  0  0  0  0  0  0
   10.0055  -16.0149   22.6027 C   0  0  0  0  0  0  0  0  0  0  0  0
   11.0332  -15.2469   22.5609 O   0  0  0  0  0  0  0  0  0  0  0  0
    9.5756  -16.4990   23.8550 N   0  0  0  0  0  0  0  0  0  0  0  0
    9.2127  -15.5139   24.8827 C   0  0  1  0  0  0  0  0  0  0  0  0
    8.1205  -14.6703   24.2703 C   0  0  0  0  0  0  0  0  0  0  0  0
    7.5551  -13.6682   25.1967 C   0  0  0  0  0  0  0  0  0  0  0  0
    8.2192  -12.5046   25.4893 C   0  0  0  0  0  0  0  0  0  0  0  0
    7.6259  -11.6183   26.3638 C   0  0  0  0  0  0  0  0  0  0  0  0
    6.4002  -11.8743   26.9389 C   0  0  0  0  0  0  0  0  0  0  0  0
    5.7283  -13.0500   26.6436 C   0  0  0  0  0  0  0  0  0  0  0  0
    6.3366  -13.9129   25.7740 C   0  0  0  0  0  0  0  0  0  0  0  0
    8.7782  -16.1963   26.1106 C   0  0  0  0  0  0  0  0  0  0  0  0
    7.9304  -17.2888   26.1444 O   0  0  0  0  0  0  0  0  0  0  0  0
    9.1975  -15.7699   27.2313 O   0  0  0  0  0  0  0  0  0  0  0  0
  2  1  1  0
  3  2  1  0
  3  4  1  6
  5  6  2  0
  5  3  1  0
  7  8  1  0
  8  9  2  0
  8 10  1  0
 11 10  1  6
 11 12  1  0
 12  5  1  0
 13 15  1  0
 13 11  1  0
 14 13  2  0
 16 15  1  0
 16 17  1  6
 18 17  1  0
 18 23  2  0
 19 18  1  0
 20 19  2  0
 20 21  1  0
 21 22  2  0
 22 23  1  0
 24 16  1  0
 25 24  1  0
 26 24  2  0
M  END
$$$$
