SNF.pdb
     RDKit          3D

 26 26  0  0  1  0  0  0  0  0999 V2000
    7.4252  -12.5988   21.9978 O   0  0  0  0  0  0  0  0  0  0  0  0
    8.3988  -12.7027   21.0149 C   0  0  0  0  0  0  0  0  0  0  0  0
    8.1585  -13.9581   20.1891 C   0  0  2  0  0  0  0  0  0  0  0  0
    6.8389  -13.8821   19.6187 N   0  0  0  0  0  0  0  0  0  0  0  0
    8.2588  -15.1035   21.1454 C   0  0  0  0  0  0  0  0  0  0  0  0
    7.2415  -15.8000   21.4412 O   0  0  0  0  0  0  0  0  0  0  0  0
   11.6398  -18.0156   19.7994 N   0  0  0  0  0  0  0  0  0  0  0  0
   10.8727  -18.2978   20.9896 C   0  0  0  0  0  0  0  0  0  0  0  0
   10.2517  -19.3666   20.9787 O   0  0  0  0  0  0  0  0  0  0  0  0
   10.9126  -17.3147   22.0503 C   0  0  0  0  0  0  0  0  0  0  0  0
    9.5809  -16.7554   22.5368 C   0  0  2  0  0  0  0  0  0  0  0  0
    9.4722  -15.4726   21.7654 N   0  0  0  0  0  0  0  0  0  0  0  0
    9.6592  -16.3241   23.9340 C   0  0  0  0  0  0  0  0  0  0  0  0
   10.5979  -15.5110   24.2590 O   0  0  0  0  0  0  0  0  0  0  0  0
    8.7593  -16.7491   24.9325 N   0  0  0  0  0  0  0  0  0  0  0  0
    8.9946  -16.2894   26.3078 C   0  0  1  0  0  0  0  0  0  0  0  0
    7.6574  -15.7969   26.8068 C   0  0  0  0  0  0  0  0  0  0  0  0
    7.3181  -14.4345   26.3477 C   0  0  0  0  0  0  0  0  0  0  0  0
    6.1920  -14.1857   25.6058 C   0  0  0  0  0  0  0  0  0  0  0  0
    5.9436  -12.8866   25.2147 C   0  0  0  0  0  0  0  0  0  0  0  0
    6.7898  -11.8519   25.5491 C   0  0  0  0  0  0  0  0  0  0  0  0
    7.9281  -12.1025   26.2991 C   0  0  0  0  0  0  0  0  0  0  0  0
    8.1529  -13.3981   26.6751 C   0  0  0  0  0  0  0  0  0  0  0  0
    9.5337  -17.3861   27.1255 C   0  0  0  0  0  0  0  0  0  0  0  0
    9.7493  -18.6740   26.6690 O   0  0  0  0  0  0  0  0  0  0  0  0
    9.8289  -17.1589   28.3399 O   0  0  0  0  0  0  0  0  0  0  0  0
  2  1  1  0
  3  2  1  0
  3  4  1  1
  5  6  2  0
  5  3  1  0
  7  8  1  0
  8  9  2  0
  8 10  1  0
 11 10  1  6
 11 12  1  0
 12  5  1  0
 13 15  1  0
 13 11  1  0
 14 13  2  0
 16 15  1  0
 16 17  1  1
 18 17  1  0
 18 23  2  0
 19 18  1  0
 20 19  2  0
 20 21  1  0
 21 22  2  0
 22 23  1  0
 24 16  1  0
 25 24  1  0
 26 24  2  0
M  END
$$$$
