SNF.pdb
     RDKit          3D

 26 26  0  0  1  0  0  0  0  0999 V2000
   10.5548  -13.0754   20.2140 O   0  0  0  0  0  0  0  0  0  0  0  0
   10.1438  -13.9844   19.2499 C   0  0  0  0  0  0  0  0  0  0  0  0
    8.6392  -13.8728   19.0515 C   0  0  2  0  0  0  0  0  0  0  0  0
    8.2894  -12.4773   18.9979 N   0  0  0  0  0  0  0  0  0  0  0  0
    8.0186  -14.5307   20.2426 C   0  0  0  0  0  0  0  0  0  0  0  0
    7.2164  -13.8997   20.9948 O   0  0  0  0  0  0  0  0  0  0  0  0
    7.3750  -18.8108   19.0330 N   0  0  0  0  0  0  0  0  0  0  0  0
    6.7777  -18.5166   20.3141 C   0  0  0  0  0  0  0  0  0  0  0  0
    5.5626  -18.7297   20.3936 O   0  0  0  0  0  0  0  0  0  0  0  0
    7.6516  -18.0116   21.3506 C   0  0  0  0  0  0  0  0  0  0  0  0
    7.5308  -16.5356   21.7106 C   0  0  2  0  0  0  0  0  0  0  0  0
    8.2834  -15.8720   20.5946 N   0  0  0  0  0  0  0  0  0  0  0  0
    8.3098  -16.2103   22.9070 C   0  0  0  0  0  0  0  0  0  0  0  0
    9.5691  -16.0052   22.7653 O   0  0  0  0  0  0  0  0  0  0  0  0
    7.7505  -16.1063   24.1969 N   0  0  0  0  0  0  0  0  0  0  0  0
    8.6373  -15.7082   25.2984 C   0  0  1  0  0  0  0  0  0  0  0  0
    7.7269  -15.2044   26.3924 C   0  0  0  0  0  0  0  0  0  0  0  0
    7.3057  -13.7999   26.2138 C   0  0  0  0  0  0  0  0  0  0  0  0
    6.0474  -13.3775   26.5582 C   0  0  0  0  0  0  0  0  0  0  0  0
    5.7294  -12.0499   26.3614 C   0  0  0  0  0  0  0  0  0  0  0  0
    6.6354  -11.1553   25.8349 C   0  0  0  0  0  0  0  0  0  0  0  0
    7.9075  -11.5813   25.4866 C   0  0  0  0  0  0  0  0  0  0  0  0
    8.1993  -12.9018   25.6911 C   0  0  0  0  0  0  0  0  0  0  0  0
    9.4588  -16.8496   25.7280 C   0  0  0  0  0  0  0  0  0  0  0  0
   10.6300  -16.7447   26.4566 O   0  0  0  0  0  0  0  0  0  0  0  0
    9.0872  -18.0244   25.4193 O   0  0  0  0  0  0  0  0  0  0  0  0
  2  1  1  0
  3  2  1  0
  3  4  1  1
  5  6  2  0
  5  3  1  0
  7  8  1  0
  8  9  2  0
  8 10  1  0
 11 10  1  6
 11 12  1  0
 12  5  1  0
 13 15  1  0
 13 11  1  0
 14 13  2  0
 16 15  1  0
 16 17  1  1
 18 17  1  0
 18 23  2  0
 19 18  1  0
 20 19  2  0
 20 21  1  0
 21 22  2  0
 22 23  1  0
 24 16  1  0
 25 24  1  0
 26 24  2  0
M  END
$$$$
