SNF.pdb
     RDKit          3D

 26 26  0  0  1  0  0  0  0  0999 V2000
    4.8133  -19.3732   22.9630 O   0  0  0  0  0  0  0  0  0  0  0  0
    5.3023  -18.0752   22.9336 C   0  0  0  0  0  0  0  0  0  0  0  0
    5.5576  -17.6585   21.4924 C   0  0  2  0  0  0  0  0  0  0  0  0
    5.4669  -18.8278   20.6575 N   0  0  0  0  0  0  0  0  0  0  0  0
    6.9423  -17.0941   21.4678 C   0  0  0  0  0  0  0  0  0  0  0  0
    7.9343  -17.8087   21.1317 O   0  0  0  0  0  0  0  0  0  0  0  0
    7.0668  -12.8802   19.5471 N   0  0  0  0  0  0  0  0  0  0  0  0
    8.2011  -13.7003   19.9014 C   0  0  0  0  0  0  0  0  0  0  0  0
    8.8069  -14.2063   18.9499 O   0  0  0  0  0  0  0  0  0  0  0  0
    8.5020  -13.8398   21.3096 C   0  0  0  0  0  0  0  0  0  0  0  0
    8.6380  -15.2546   21.8596 C   0  0  2  0  0  0  0  0  0  0  0  0
    7.2235  -15.7538   21.8106 N   0  0  0  0  0  0  0  0  0  0  0  0
    8.9622  -15.2456   23.2876 C   0  0  0  0  0  0  0  0  0  0  0  0
   10.0830  -14.7319   23.6449 O   0  0  0  0  0  0  0  0  0  0  0  0
    8.1097  -15.7640   24.2836 N   0  0  0  0  0  0  0  0  0  0  0  0
    8.6244  -15.8335   25.6578 C   0  0  1  0  0  0  0  0  0  0  0  0
    7.4762  -15.4144   26.5442 C   0  0  0  0  0  0  0  0  0  0  0  0
    7.1740  -13.9699   26.4800 C   0  0  0  0  0  0  0  0  0  0  0  0
    5.8938  -13.5106   26.3051 C   0  0  0  0  0  0  0  0  0  0  0  0
    5.6921  -12.1471   26.2555 C   0  0  0  0  0  0  0  0  0  0  0  0
    6.7335  -11.2529   26.3765 C   0  0  0  0  0  0  0  0  0  0  0  0
    8.0276  -11.7163   26.5535 C   0  0  0  0  0  0  0  0  0  0  0  0
    8.2024  -13.0720   26.5995 C   0  0  0  0  0  0  0  0  0  0  0  0
    9.1002  -17.1928   25.9546 C   0  0  0  0  0  0  0  0  0  0  0  0
    9.0578  -18.2518   25.0656 O   0  0  0  0  0  0  0  0  0  0  0  0
    9.5880  -17.4358   27.1020 O   0  0  0  0  0  0  0  0  0  0  0  0
  2  1  1  0
  3  2  1  0
  3  4  1  6
  5  6  2  0
  5  3  1  0
  7  8  1  0
  8  9  2  0
  8 10  1  0
 11 10  1  1
 11 12  1  0
 12  5  1  0
 13 15  1  0
 13 11  1  0
 14 13  2  0
 16 15  1  0
 16 17  1  1
 18 17  1  0
 18 23  2  0
 19 18  1  0
 20 19  2  0
 20 21  1  0
 21 22  2  0
 22 23  1  0
 24 16  1  0
 25 24  1  0
 26 24  2  0
M  END
$$$$
