SNF.pdb
     RDKit          3D

 26 26  0  0  1  0  0  0  0  0999 V2000
    9.9483  -12.6057   18.8863 O   0  0  0  0  0  0  0  0  0  0  0  0
    9.0119  -13.0655   19.8009 C   0  0  0  0  0  0  0  0  0  0  0  0
    8.2712  -14.2595   19.2165 C   0  0  2  0  0  0  0  0  0  0  0  0
    7.4173  -13.7911   18.1563 N   0  0  0  0  0  0  0  0  0  0  0  0
    7.4621  -14.8291   20.3379 C   0  0  0  0  0  0  0  0  0  0  0  0
    6.2176  -15.0340   20.2086 O   0  0  0  0  0  0  0  0  0  0  0  0
    6.1602  -18.1661   23.9793 N   0  0  0  0  0  0  0  0  0  0  0  0
    6.6406  -18.4556   22.6488 C   0  0  0  0  0  0  0  0  0  0  0  0
    6.4807  -19.6213   22.2698 O   0  0  0  0  0  0  0  0  0  0  0  0
    7.2482  -17.3675   21.9141 C   0  0  0  0  0  0  0  0  0  0  0  0
    7.2586  -15.9950   22.5767 C   0  0  2  0  0  0  0  0  0  0  0  0
    8.0262  -15.1682   21.5869 N   0  0  0  0  0  0  0  0  0  0  0  0
    8.0994  -15.9850   23.7755 C   0  0  0  0  0  0  0  0  0  0  0  0
    9.3431  -16.2718   23.6382 O   0  0  0  0  0  0  0  0  0  0  0  0
    7.6172  -15.6735   25.0631 N   0  0  0  0  0  0  0  0  0  0  0  0
    8.5986  -15.5340   26.1473 C   0  0  1  0  0  0  0  0  0  0  0  0
    7.8874  -14.7812   27.2459 C   0  0  0  0  0  0  0  0  0  0  0  0
    7.3180  -13.4905   26.8080 C   0  0  0  0  0  0  0  0  0  0  0  0
    8.1184  -12.4355   26.4520 C   0  0  0  0  0  0  0  0  0  0  0  0
    7.5114  -11.2627   26.0539 C   0  0  0  0  0  0  0  0  0  0  0  0
    6.1405  -11.1326   26.0074 C   0  0  0  0  0  0  0  0  0  0  0  0
    5.3307  -12.1984   26.3668 C   0  0  0  0  0  0  0  0  0  0  0  0
    5.9556  -13.3505   26.7579 C   0  0  0  0  0  0  0  0  0  0  0  0
    9.0681  -16.8579   26.5819 C   0  0  0  0  0  0  0  0  0  0  0  0
    8.6401  -18.0587   26.0448 O   0  0  0  0  0  0  0  0  0  0  0  0
    9.9265  -16.9291   27.5155 O   0  0  0  0  0  0  0  0  0  0  0  0
  2  1  1  0
  3  2  1  0
  3  4  1  6
  5  6  2  0
  5  3  1  0
  7  8  1  0
  8  9  2  0
  8 10  1  0
 11 10  1  6
 11 12  1  0
 12  5  1  0
 13 15  1  0
 13 11  1  0
 14 13  2  0
 16 15  1  0
 16 17  1  1
 18 17  1  0
 18 23  2  0
 19 18  1  0
 20 19  2  0
 20 21  1  0
 21 22  2  0
 22 23  1  0
 24 16  1  0
 25 24  1  0
 26 24  2  0
M  END
$$$$
