SNF.pdb
     RDKit          3D

 26 26  0  0  1  0  0  0  0  0999 V2000
    6.8610  -15.8416   18.5710 O   0  0  0  0  0  0  0  0  0  0  0  0
    7.2953  -14.5788   18.9470 C   0  0  0  0  0  0  0  0  0  0  0  0
    8.3215  -14.7036   20.0637 C   0  0  2  0  0  0  0  0  0  0  0  0
    9.3197  -15.6592   19.6601 N   0  0  0  0  0  0  0  0  0  0  0  0
    7.5690  -15.1943   21.2593 C   0  0  0  0  0  0  0  0  0  0  0  0
    6.6141  -14.5218   21.7528 O   0  0  0  0  0  0  0  0  0  0  0  0
    7.6388  -20.2182   24.7001 N   0  0  0  0  0  0  0  0  0  0  0  0
    6.8167  -19.1409   24.2019 C   0  0  0  0  0  0  0  0  0  0  0  0
    5.7413  -18.9796   24.7900 O   0  0  0  0  0  0  0  0  0  0  0  0
    7.3314  -18.3783   23.0856 C   0  0  0  0  0  0  0  0  0  0  0  0
    7.0799  -16.8751   23.0892 C   0  0  2  0  0  0  0  0  0  0  0  0
    7.8708  -16.4159   21.8992 N   0  0  0  0  0  0  0  0  0  0  0  0
    7.7368  -16.2245   24.2248 C   0  0  0  0  0  0  0  0  0  0  0  0
    7.9164  -14.9548   24.1667 O   0  0  0  0  0  0  0  0  0  0  0  0
    8.1742  -16.9159   25.3728 N   0  0  0  0  0  0  0  0  0  0  0  0
    8.5737  -16.1201   26.5413 C   0  0  1  0  0  0  0  0  0  0  0  0
    7.3120  -15.4477   27.0267 C   0  0  0  0  0  0  0  0  0  0  0  0
    7.2402  -14.0103   26.6939 C   0  0  0  0  0  0  0  0  0  0  0  0
    8.3431  -13.1990   26.7701 C   0  0  0  0  0  0  0  0  0  0  0  0
    8.1958  -11.8672   26.4431 C   0  0  0  0  0  0  0  0  0  0  0  0
    6.9835  -11.3450   26.0480 C   0  0  0  0  0  0  0  0  0  0  0  0
    5.8683  -12.1644   25.9705 C   0  0  0  0  0  0  0  0  0  0  0  0
    6.0392  -13.4809   26.2996 C   0  0  0  0  0  0  0  0  0  0  0  0
    9.1813  -16.9859   27.5628 C   0  0  0  0  0  0  0  0  0  0  0  0
    9.1416  -18.3686   27.5455 O   0  0  0  0  0  0  0  0  0  0  0  0
    9.7902  -16.4490   28.5398 O   0  0  0  0  0  0  0  0  0  0  0  0
  2  1  1  0
  3  2  1  0
  3  4  1  6
  5  6  2  0
  5  3  1  0
  7  8  1  0
  8  9  2  0
  8 10  1  0
 11 10  1  1
 11 12  1  0
 12  5  1  0
 13 15  1  0
 13 11  1  0
 14 13  2  0
 16 15  1  0
 16 17  1  1
 18 17  1  0
 18 23  2  0
 19 18  1  0
 20 19  2  0
 20 21  1  0
 21 22  2  0
 22 23  1  0
 24 16  1  0
 25 24  1  0
 26 24  2  0
M  END
$$$$
