ARD.pdb
     RDKit          3D

 25 24  0  0  1  0  0  0  0  0999 V2000
   15.2254  -10.7096  -14.8326 C   0  0  0  0  0  0  0  0  0  0  0  0
   16.6419  -10.5565  -14.3356 C   0  0  2  0  0  0  0  0  0  0  0  0
   16.9332  -11.4482  -13.2375 N   0  0  0  0  0  0  0  0  0  0  0  0
   16.9271   -9.1734  -13.8816 C   0  0  0  0  0  0  0  0  0  0  0  0
   16.7698   -8.1734  -14.6294 O   0  0  0  0  0  0  0  0  0  0  0  0
   14.3329   -6.6126   -6.3228 N   0  0  0  0  0  0  0  0  0  0  0  0
   13.4732   -6.8832   -7.4241 C   0  0  0  0  0  0  0  0  0  0  0  0
   12.2106   -6.8558   -7.2266 N   0  0  0  0  0  0  0  0  0  0  0  0
   13.9989   -7.1791   -8.7217 N   0  0  0  0  0  0  0  0  0  0  0  0
   15.4208   -7.2801   -8.9270 C   0  0  0  0  0  0  0  0  0  0  0  0
   15.7219   -7.4872  -10.3929 C   0  0  0  0  0  0  0  0  0  0  0  0
   17.2163   -7.4292  -10.6006 C   0  0  0  0  0  0  0  0  0  0  0  0
   17.5944   -7.5678  -12.0559 C   0  0  2  0  0  0  0  0  0  0  0  0
   17.4017   -8.8964  -12.5545 N   0  0  0  0  0  0  0  0  0  0  0  0
   18.9680   -7.1363  -12.3369 C   0  0  0  0  0  0  0  0  0  0  0  0
   19.9454   -7.9339  -12.2178 O   0  0  0  0  0  0  0  0  0  0  0  0
   11.5591   -7.0285   -8.0099 N   0  0  0  0  0  0  0  0  0  0  0  0
   19.3055   -5.8085  -12.7589 C   0  0  1  0  0  0  0  0  0  0  0  0
   20.6289   -5.4571  -13.2064 C   0  0  0  0  0  0  0  0  0  0  0  0
   21.1274   -6.3603  -14.3096 C   0  0  0  0  0  0  0  0  0  0  0  0
   22.4333   -5.9002  -14.8494 O   0  0  0  0  0  0  0  0  0  0  0  0
   23.3483   -5.4114  -14.1645 C   0  0  0  0  0  0  0  0  0  0  0  0
   20.7103   -4.0482  -13.6622 O   0  0  0  0  0  0  0  0  0  0  0  0
   21.8734   -3.3185  -13.6817 O   0  0  0  0  0  0  0  0  0  0  0  0
   22.6288   -6.0327  -16.2177 O   0  0  0  0  0  0  0  0  0  0  0  0
  2  1  1  1
  3  2  1  0
  4  5  2  0
  4  2  1  0
  6  7  1  0
  7  9  1  0
  7  8  2  0
  9 10  1  0
 11 10  1  0
 12 11  1  0
 13 12  1  1
 13 14  1  0
 14  4  1  0
 15 17  1  0
 15 13  1  0
 16 15  2  0
 18 17  1  0
 18 22  1  0
 18 19  1  1
 20 19  1  0
 21 20  2  0
 22 23  1  0
 24 20  1  0
 25 22  2  0
M  END
$$$$
