ARD.pdb
     RDKit          3D

 25 24  0  0  1  0  0  0  0  0999 V2000
   26.4869  -20.7553  -18.4858 C   0  0  0  0  0  0  0  0  0  0  0  0
   25.3686  -19.7873  -18.1867 C   0  0  2  0  0  0  0  0  0  0  0  0
   25.7756  -18.7530  -17.2645 N   0  0  0  0  0  0  0  0  0  0  0  0
   24.1832  -20.4664  -17.6086 C   0  0  0  0  0  0  0  0  0  0  0  0
   23.6104  -21.4276  -18.1847 O   0  0  0  0  0  0  0  0  0  0  0  0
   26.6006  -21.7884  -11.1383 N   0  0  0  0  0  0  0  0  0  0  0  0
   25.3098  -21.1993  -11.0298 C   0  0  0  0  0  0  0  0  0  0  0  0
   25.0602  -20.4737  -10.0075 N   0  0  0  0  0  0  0  0  0  0  0  0
   24.3113  -21.4078  -12.0334 N   0  0  0  0  0  0  0  0  0  0  0  0
   24.3872  -22.5460  -12.9125 C   0  0  0  0  0  0  0  0  0  0  0  0
   24.0913  -22.1272  -14.3335 C   0  0  0  0  0  0  0  0  0  0  0  0
   22.8667  -21.2439  -14.3406 C   0  0  0  0  0  0  0  0  0  0  0  0
   22.5292  -20.7501  -15.7271 C   0  0  2  0  0  0  0  0  0  0  0  0
   23.6192  -20.0620  -16.3509 N   0  0  0  0  0  0  0  0  0  0  0  0
   21.3339  -19.9005  -15.7599 C   0  0  0  0  0  0  0  0  0  0  0  0
   21.3782  -18.6883  -15.3934 O   0  0  0  0  0  0  0  0  0  0  0  0
   24.1625  -19.9666   -9.9378 N   0  0  0  0  0  0  0  0  0  0  0  0
   20.0503  -20.3637  -16.1991 C   0  0  1  0  0  0  0  0  0  0  0  0
   18.8893  -19.5110  -16.2148 C   0  0  0  0  0  0  0  0  0  0  0  0
   18.1636  -19.5431  -17.5391 C   0  0  0  0  0  0  0  0  0  0  0  0
   16.9906  -18.6307  -17.5458 O   0  0  0  0  0  0  0  0  0  0  0  0
   17.0269  -17.4307  -17.2234 C   0  0  0  0  0  0  0  0  0  0  0  0
   17.9331  -19.8469  -15.1321 O   0  0  0  0  0  0  0  0  0  0  0  0
   17.0213  -18.9589  -14.6167 O   0  0  0  0  0  0  0  0  0  0  0  0
   15.7756  -19.1732  -17.9429 O   0  0  0  0  0  0  0  0  0  0  0  0
  2  1  1  1
  3  2  1  0
  4  5  2  0
  4  2  1  0
  6  7  1  0
  7  9  1  0
  7  8  2  0
  9 10  1  0
 11 10  1  0
 12 11  1  0
 13 12  1  1
 13 14  1  0
 14  4  1  0
 15 17  1  0
 15 13  1  0
 16 15  2  0
 18 17  1  0
 18 22  1  0
 18 19  1  1
 20 19  1  0
 21 20  2  0
 22 23  1  0
 24 20  1  0
 25 22  2  0
M  END
$$$$
