ARD.pdb
     RDKit          3D

 25 24  0  0  1  0  0  0  0  0999 V2000
   26.1229  -15.4683  -15.5560 C   0  0  0  0  0  0  0  0  0  0  0  0
   26.7202  -16.8114  -15.8972 C   0  0  2  0  0  0  0  0  0  0  0  0
   27.0837  -16.9074  -17.2916 N   0  0  0  0  0  0  0  0  0  0  0  0
   25.7911  -17.9276  -15.5952 C   0  0  0  0  0  0  0  0  0  0  0  0
   24.8324  -18.2294  -16.3528 O   0  0  0  0  0  0  0  0  0  0  0  0
   24.0308  -25.0042  -15.5777 N   0  0  0  0  0  0  0  0  0  0  0  0
   23.0804  -24.6189  -14.5911 C   0  0  0  0  0  0  0  0  0  0  0  0
   21.9257  -25.1664  -14.6174 N   0  0  0  0  0  0  0  0  0  0  0  0
   23.3998  -23.6454  -13.5921 N   0  0  0  0  0  0  0  0  0  0  0  0
   24.4639  -22.6995  -13.8092 C   0  0  0  0  0  0  0  0  0  0  0  0
   24.5970  -21.7824  -12.6161 C   0  0  0  0  0  0  0  0  0  0  0  0
   25.5545  -20.6663  -12.9585 C   0  0  0  0  0  0  0  0  0  0  0  0
   25.0398  -19.7998  -14.0830 C   0  0  2  0  0  0  0  0  0  0  0  0
   25.9345  -18.7316  -14.4135 N   0  0  0  0  0  0  0  0  0  0  0  0
   23.7036  -19.2534  -13.8227 C   0  0  0  0  0  0  0  0  0  0  0  0
   23.4908  -18.4719  -12.8482 O   0  0  0  0  0  0  0  0  0  0  0  0
   21.2166  -24.9164  -13.9085 N   0  0  0  0  0  0  0  0  0  0  0  0
   22.5589  -19.5534  -14.6319 C   0  0  1  0  0  0  0  0  0  0  0  0
   21.2692  -18.9590  -14.3897 C   0  0  0  0  0  0  0  0  0  0  0  0
   20.9048  -17.9213  -15.4250 C   0  0  0  0  0  0  0  0  0  0  0  0
   19.5901  -17.2925  -15.1346 O   0  0  0  0  0  0  0  0  0  0  0  0
   19.1168  -17.1382  -13.9955 C   0  0  0  0  0  0  0  0  0  0  0  0
   20.1891  -19.9730  -14.3219 O   0  0  0  0  0  0  0  0  0  0  0  0
   19.0719  -19.8463  -13.5335 O   0  0  0  0  0  0  0  0  0  0  0  0
   18.8508  -16.8515  -16.2240 O   0  0  0  0  0  0  0  0  0  0  0  0
  2  1  1  6
  3  2  1  0
  4  5  2  0
  4  2  1  0
  6  7  1  0
  7  9  1  0
  7  8  2  0
  9 10  1  0
 11 10  1  0
 12 11  1  0
 13 12  1  1
 13 14  1  0
 14  4  1  0
 15 17  1  0
 15 13  1  0
 16 15  2  0
 18 17  1  0
 18 22  1  0
 18 19  1  6
 20 19  1  0
 21 20  2  0
 22 23  1  0
 24 20  1  0
 25 22  2  0
M  END
$$$$
