ARD.pdb
     RDKit          3D

 25 24  0  0  1  0  0  0  0  0999 V2000
   23.5177  -12.6467  -16.2213 C   0  0  0  0  0  0  0  0  0  0  0  0
   24.9045  -13.2040  -16.4291 C   0  0  2  0  0  0  0  0  0  0  0  0
   25.4858  -12.7669  -17.6768 N   0  0  0  0  0  0  0  0  0  0  0  0
   24.9163  -14.6873  -16.4209 C   0  0  0  0  0  0  0  0  0  0  0  0
   24.4033  -15.3698  -17.3456 O   0  0  0  0  0  0  0  0  0  0  0  0
   26.5155  -20.8293  -10.8918 N   0  0  0  0  0  0  0  0  0  0  0  0
   26.4902  -21.4142  -12.1889 C   0  0  0  0  0  0  0  0  0  0  0  0
   25.6997  -22.3975  -12.3936 N   0  0  0  0  0  0  0  0  0  0  0  0
   27.3239  -20.9213  -13.2424 N   0  0  0  0  0  0  0  0  0  0  0  0
   27.4865  -19.5042  -13.4415 C   0  0  0  0  0  0  0  0  0  0  0  0
   26.2665  -18.9307  -14.1232 C   0  0  0  0  0  0  0  0  0  0  0  0
   26.4883  -17.4578  -14.3704 C   0  0  0  0  0  0  0  0  0  0  0  0
   25.4013  -16.8544  -15.2273 C   0  0  2  0  0  0  0  0  0  0  0  0
   25.5177  -15.4324  -15.3502 N   0  0  0  0  0  0  0  0  0  0  0  0
   24.0507  -17.1948  -14.7671 C   0  0  0  0  0  0  0  0  0  0  0  0
   23.3433  -16.3595  -14.1286 O   0  0  0  0  0  0  0  0  0  0  0  0
   25.6711  -22.8564  -13.3191 N   0  0  0  0  0  0  0  0  0  0  0  0
   23.4381  -18.4701  -14.9981 C   0  0  1  0  0  0  0  0  0  0  0  0
   22.0502  -18.7208  -14.7048 C   0  0  0  0  0  0  0  0  0  0  0  0
   21.1220  -17.7959  -15.4562 C   0  0  0  0  0  0  0  0  0  0  0  0
   19.6982  -18.0477  -15.1132 O   0  0  0  0  0  0  0  0  0  0  0  0
   19.3130  -18.6775  -14.1131 C   0  0  0  0  0  0  0  0  0  0  0  0
   21.6633  -20.1248  -14.9849 O   0  0  0  0  0  0  0  0  0  0  0  0
   20.6981  -20.8047  -14.2838 O   0  0  0  0  0  0  0  0  0  0  0  0
   18.7433  -17.5364  -15.9819 O   0  0  0  0  0  0  0  0  0  0  0  0
  2  1  1  6
  3  2  1  0
  4  5  2  0
  4  2  1  0
  6  7  1  0
  7  9  1  0
  7  8  2  0
  9 10  1  0
 11 10  1  0
 12 11  1  0
 13 12  1  1
 13 14  1  0
 14  4  1  0
 15 17  1  0
 15 13  1  0
 16 15  2  0
 18 17  1  0
 18 22  1  0
 18 19  1  6
 20 19  1  0
 21 20  2  0
 22 23  1  0
 24 20  1  0
 25 22  2  0
M  END
$$$$
