ARD.pdb
     RDKit          3D

 25 24  0  0  1  0  0  0  0  0999 V2000
   17.1964  -23.2898  -12.9858 C   0  0  0  0  0  0  0  0  0  0  0  0
   18.5681  -23.2411  -12.3589 C   0  0  2  0  0  0  0  0  0  0  0  0
   18.5119  -23.3268  -10.9184 N   0  0  0  0  0  0  0  0  0  0  0  0
   19.2973  -21.9975  -12.7089 C   0  0  0  0  0  0  0  0  0  0  0  0
   18.9540  -20.8694  -12.2691 O   0  0  0  0  0  0  0  0  0  0  0  0
   24.6542  -24.8921  -14.4498 N   0  0  0  0  0  0  0  0  0  0  0  0
   25.2586  -23.9052  -15.2781 C   0  0  0  0  0  0  0  0  0  0  0  0
   26.3141  -24.2228  -15.9253 N   0  0  0  0  0  0  0  0  0  0  0  0
   24.7067  -22.5897  -15.3899 N   0  0  0  0  0  0  0  0  0  0  0  0
   24.7749  -21.6734  -14.2809 C   0  0  0  0  0  0  0  0  0  0  0  0
   23.4167  -21.5373  -13.6335 C   0  0  0  0  0  0  0  0  0  0  0  0
   22.4229  -21.0701  -14.6697 C   0  0  0  0  0  0  0  0  0  0  0  0
   21.0574  -20.8190  -14.0762 C   0  0  2  0  0  0  0  0  0  0  0  0
   20.4432  -22.0117  -13.5749 N   0  0  0  0  0  0  0  0  0  0  0  0
   20.1397  -20.1522  -15.0063 C   0  0  0  0  0  0  0  0  0  0  0  0
   19.1806  -20.7794  -15.5471 O   0  0  0  0  0  0  0  0  0  0  0  0
   26.7525  -23.5434  -16.5687 N   0  0  0  0  0  0  0  0  0  0  0  0
   20.2527  -18.7698  -15.3687 C   0  0  1  0  0  0  0  0  0  0  0  0
   19.3166  -18.1287  -16.2562 C   0  0  0  0  0  0  0  0  0  0  0  0
   17.8985  -18.1787  -15.7386 C   0  0  0  0  0  0  0  0  0  0  0  0
   16.9485  -17.5200  -16.6723 O   0  0  0  0  0  0  0  0  0  0  0  0
   16.8619  -17.7719  -17.8865 C   0  0  0  0  0  0  0  0  0  0  0  0
   19.6810  -16.7175  -16.5301 O   0  0  0  0  0  0  0  0  0  0  0  0
   18.9880  -15.9040  -17.3925 O   0  0  0  0  0  0  0  0  0  0  0  0
   16.1049  -16.5574  -16.1340 O   0  0  0  0  0  0  0  0  0  0  0  0
  2  1  1  6
  3  2  1  0
  4  5  2  0
  4  2  1  0
  6  7  1  0
  7  9  1  0
  7  8  2  0
  9 10  1  0
 11 10  1  0
 12 11  1  0
 13 12  1  6
 13 14  1  0
 14  4  1  0
 15 17  1  0
 15 13  1  0
 16 15  2  0
 18 17  1  0
 18 22  1  0
 18 19  1  6
 20 19  1  0
 21 20  2  0
 22 23  1  0
 24 20  1  0
 25 22  2  0
M  END
$$$$
