ARD.pdb
     RDKit          3D

 25 24  0  0  1  0  0  0  0  0999 V2000
   14.4858  -20.7683    3.5548 C   0  0  0  0  0  0  0  0  0  0  0  0
   15.2002  -19.6000    2.9210 C   0  0  2  0  0  0  0  0  0  0  0  0
   15.7270  -19.9265    1.6165 N   0  0  0  0  0  0  0  0  0  0  0  0
   16.3277  -19.1168    3.7551 C   0  0  0  0  0  0  0  0  0  0  0  0
   17.5240  -19.4242    3.5134 O   0  0  0  0  0  0  0  0  0  0  0  0
   19.1558  -11.2776    5.2790 N   0  0  0  0  0  0  0  0  0  0  0  0
   19.9494  -12.0743    6.1511 C   0  0  0  0  0  0  0  0  0  0  0  0
   20.9382  -11.5215    6.7432 N   0  0  0  0  0  0  0  0  0  0  0  0
   19.6560  -13.4583    6.3660 N   0  0  0  0  0  0  0  0  0  0  0  0
   18.5435  -14.0807    5.6958 C   0  0  0  0  0  0  0  0  0  0  0  0
   18.4348  -15.5311    6.1041 C   0  0  0  0  0  0  0  0  0  0  0  0
   17.2651  -16.1580    5.3841 C   0  0  0  0  0  0  0  0  0  0  0  0
   17.1865  -17.6481    5.6156 C   0  0  2  0  0  0  0  0  0  0  0  0
   16.1157  -18.2656    4.8925 N   0  0  0  0  0  0  0  0  0  0  0  0
   17.0858  -18.0052    7.0348 C   0  0  0  0  0  0  0  0  0  0  0  0
   15.9825  -17.9349    7.6541 O   0  0  0  0  0  0  0  0  0  0  0  0
   21.5447  -12.0767    7.3691 N   0  0  0  0  0  0  0  0  0  0  0  0
   18.2020  -18.4518    7.8156 C   0  0  1  0  0  0  0  0  0  0  0  0
   18.1196  -18.6307    9.2426 C   0  0  0  0  0  0  0  0  0  0  0  0
   18.5960  -19.9940    9.6851 C   0  0  0  0  0  0  0  0  0  0  0  0
   17.6017  -21.0528    9.3713 O   0  0  0  0  0  0  0  0  0  0  0  0
   16.4176  -20.8399    9.0582 C   0  0  0  0  0  0  0  0  0  0  0  0
   18.8765  -17.5915    9.9820 O   0  0  0  0  0  0  0  0  0  0  0  0
   19.6153  -16.6072    9.3729 O   0  0  0  0  0  0  0  0  0  0  0  0
   18.0428  -22.3678    9.4373 O   0  0  0  0  0  0  0  0  0  0  0  0
  2  1  1  1
  3  2  1  0
  4  5  2  0
  4  2  1  0
  6  7  1  0
  7  9  1  0
  7  8  2  0
  9 10  1  0
 11 10  1  0
 12 11  1  0
 13 12  1  1
 13 14  1  0
 14  4  1  0
 15 17  1  0
 15 13  1  0
 16 15  2  0
 18 17  1  0
 18 22  1  0
 18 19  1  1
 20 19  1  0
 21 20  2  0
 22 23  1  0
 24 20  1  0
 25 22  2  0
M  END
$$$$
