ARD.pdb
     RDKit          3D

 25 24  0  0  1  0  0  0  0  0999 V2000
   14.8870   -6.5081   -7.1048 C   0  0  0  0  0  0  0  0  0  0  0  0
   14.2906   -7.4320   -8.1380 C   0  0  2  0  0  0  0  0  0  0  0  0
   13.6463   -8.5767   -7.5379 N   0  0  0  0  0  0  0  0  0  0  0  0
   15.3104   -7.9359   -9.0903 C   0  0  0  0  0  0  0  0  0  0  0  0
   16.2564   -8.6838   -8.7302 O   0  0  0  0  0  0  0  0  0  0  0  0
   16.1297  -13.1481  -11.4271 N   0  0  0  0  0  0  0  0  0  0  0  0
   14.8749  -13.3418  -12.0698 C   0  0  0  0  0  0  0  0  0  0  0  0
   14.2558  -14.4418  -11.8685 N   0  0  0  0  0  0  0  0  0  0  0  0
   14.3131  -12.3377  -12.9205 N   0  0  0  0  0  0  0  0  0  0  0  0
   15.0516  -11.1376  -13.2186 C   0  0  0  0  0  0  0  0  0  0  0  0
   14.6734  -10.0399  -12.2521 C   0  0  0  0  0  0  0  0  0  0  0  0
   15.4130   -8.7782  -12.6274 C   0  0  0  0  0  0  0  0  0  0  0  0
   16.1524   -8.1814  -11.4539 C   0  0  2  0  0  0  0  0  0  0  0  0
   15.2748   -7.5961  -10.4855 N   0  0  0  0  0  0  0  0  0  0  0  0
   17.1645   -7.1971  -11.8522 C   0  0  0  0  0  0  0  0  0  0  0  0
   16.8546   -5.9892  -12.0774 O   0  0  0  0  0  0  0  0  0  0  0  0
   13.3734  -14.6397  -12.3685 N   0  0  0  0  0  0  0  0  0  0  0  0
   18.5526   -7.5164  -12.0144 C   0  0  2  0  0  0  0  0  0  0  0  0
   19.5064   -6.5638  -12.5225 C   0  0  0  0  0  0  0  0  0  0  0  0
   20.8602   -6.6910  -11.8649 C   0  0  0  0  0  0  0  0  0  0  0  0
   21.8334   -5.7124  -12.4158 O   0  0  0  0  0  0  0  0  0  0  0  0
   21.5532   -4.8240  -13.2389 C   0  0  0  0  0  0  0  0  0  0  0  0
   19.6722   -6.6671  -13.9926 O   0  0  0  0  0  0  0  0  0  0  0  0
   19.6993   -5.5834  -14.8354 O   0  0  0  0  0  0  0  0  0  0  0  0
   23.1443   -5.8112  -11.9689 O   0  0  0  0  0  0  0  0  0  0  0  0
  2  1  1  1
  3  2  1  0
  4  5  2  0
  4  2  1  0
  6  7  1  0
  7  9  1  0
  7  8  2  0
  9 10  1  0
 11 10  1  0
 12 11  1  0
 13 12  1  6
 13 14  1  0
 14  4  1  0
 15 17  1  0
 15 13  1  0
 16 15  2  0
 18 17  1  0
 18 22  1  0
 18 19  1  1
 20 19  1  0
 21 20  2  0
 22 23  1  0
 24 20  1  0
 25 22  2  0
M  END
$$$$
