ARD.pdb
     RDKit          3D

 25 24  0  0  1  0  0  0  0  0999 V2000
   26.1004  -15.6455  -18.7305 C   0  0  0  0  0  0  0  0  0  0  0  0
   26.7736  -16.7573  -17.9638 C   0  0  2  0  0  0  0  0  0  0  0  0
   27.9417  -17.2608  -18.6478 N   0  0  0  0  0  0  0  0  0  0  0  0
   25.8613  -17.9026  -17.7261 C   0  0  0  0  0  0  0  0  0  0  0  0
   25.4386  -18.6319  -18.6606 O   0  0  0  0  0  0  0  0  0  0  0  0
   24.8968  -20.7478  -11.8402 N   0  0  0  0  0  0  0  0  0  0  0  0
   26.3061  -20.9380  -11.7860 C   0  0  0  0  0  0  0  0  0  0  0  0
   26.7674  -21.8147  -10.9783 N   0  0  0  0  0  0  0  0  0  0  0  0
   27.1912  -20.1729  -12.6100 N   0  0  0  0  0  0  0  0  0  0  0  0
   26.6689  -19.3254  -13.6507 C   0  0  0  0  0  0  0  0  0  0  0  0
   26.6457  -20.0692  -14.9655 C   0  0  0  0  0  0  0  0  0  0  0  0
   25.2179  -20.4250  -15.3037 C   0  0  0  0  0  0  0  0  0  0  0  0
   24.5500  -19.3621  -16.1429 C   0  0  2  0  0  0  0  0  0  0  0  0
   25.4065  -18.2453  -16.4074 N   0  0  0  0  0  0  0  0  0  0  0  0
   23.2886  -18.8832  -15.5673 C   0  0  0  0  0  0  0  0  0  0  0  0
   23.2717  -18.1778  -14.5147 O   0  0  0  0  0  0  0  0  0  0  0  0
   27.7806  -22.0166  -10.9549 N   0  0  0  0  0  0  0  0  0  0  0  0
   22.0044  -19.1687  -16.1370 C   0  0  1  0  0  0  0  0  0  0  0  0
   20.7829  -18.6464  -15.5800 C   0  0  0  0  0  0  0  0  0  0  0  0
   20.0675  -17.7106  -16.5254 C   0  0  0  0  0  0  0  0  0  0  0  0
   18.8166  -17.1753  -15.9278 O   0  0  0  0  0  0  0  0  0  0  0  0
   18.5592  -17.1727  -14.7117 C   0  0  0  0  0  0  0  0  0  0  0  0
   19.8497  -19.7231  -15.1685 O   0  0  0  0  0  0  0  0  0  0  0  0
   18.9153  -19.5835  -14.1720 O   0  0  0  0  0  0  0  0  0  0  0  0
   17.8797  -16.6439  -16.8040 O   0  0  0  0  0  0  0  0  0  0  0  0
  2  1  1  6
  3  2  1  0
  4  5  2  0
  4  2  1  0
  6  7  1  0
  7  9  1  0
  7  8  2  0
  9 10  1  0
 11 10  1  0
 12 11  1  0
 13 12  1  1
 13 14  1  0
 14  4  1  0
 15 17  1  0
 15 13  1  0
 16 15  2  0
 18 17  1  0
 18 22  1  0
 18 19  1  1
 20 19  1  0
 21 20  2  0
 22 23  1  0
 24 20  1  0
 25 22  2  0
M  END
$$$$
