TLI.pdb
     RDKit          3D

 24 23  0  0  1  0  0  0  0  0999 V2000
   10.3165  -16.4898   20.6232 C   0  0  0  0  0  0  0  0  0  0  0  0
    9.1926  -16.1333   19.6519 C   0  0  1  0  0  0  0  0  0  0  0  0
    9.6504  -16.4177   18.3664 O   0  0  0  0  0  0  0  0  0  0  0  0
    8.0060  -17.0636   19.9022 C   0  0  2  0  0  0  0  0  0  0  0  0
    7.0192  -16.8739   18.8841 N   0  0  0  0  0  0  0  0  0  0  0  0
    7.4849  -16.9521   21.2646 C   0  0  0  0  0  0  0  0  0  0  0  0
    6.6617  -16.0592   21.5739 O   0  0  0  0  0  0  0  0  0  0  0  0
    7.4694  -18.7832   26.6416 C   0  0  0  0  0  0  0  0  0  0  0  0
    6.7110  -19.4034   25.5395 C   0  0  2  0  0  0  0  0  0  0  0  0
    6.6571  -20.9339   25.8106 C   0  0  0  0  0  0  0  0  0  0  0  0
    7.1092  -19.1592   24.1363 C   0  0  0  0  0  0  0  0  0  0  0  0
    7.3070  -17.7981   23.6350 C   0  0  2  0  0  0  0  0  0  0  0  0
    7.8967  -17.8507   22.2712 N   0  0  0  0  0  0  0  0  0  0  0  0
    8.1370  -16.9016   24.4484 C   0  0  0  0  0  0  0  0  0  0  0  0
    9.3815  -16.7923   24.4259 O   0  0  0  0  0  0  0  0  0  0  0  0
    5.6662  -12.1971   26.1026 C   0  0  0  0  0  0  0  0  0  0  0  0
    6.8210  -12.9909   25.6124 C   0  0  0  0  0  0  0  0  0  0  0  0
    7.5416  -13.8223   26.6151 C   0  0  2  0  0  0  0  0  0  0  0  0
    8.4993  -12.9642   27.4585 C   0  0  0  0  0  0  0  0  0  0  0  0
    8.2962  -14.9925   26.0989 C   0  0  2  0  0  0  0  0  0  0  0  0
    7.5262  -16.0002   25.4207 N   0  0  0  0  0  0  0  0  0  0  0  0
    9.0687  -15.6837   27.1792 C   0  0  0  0  0  0  0  0  0  0  0  0
   10.3257  -15.2425   27.5621 O   0  0  0  0  0  0  0  0  0  0  0  0
    8.5980  -16.6853   27.7702 O   0  0  0  0  0  0  0  0  0  0  0  0
  2  1  1  1
  2  4  1  0
  3  2  1  0
  4  6  1  0
  4  5  1  6
  6  7  2  0
  9  8  1  1
  9 10  1  0
 11  9  1  0
 12 11  1  1
 13 12  1  0
 13  6  1  0
 14 15  2  0
 14 12  1  0
 17 16  1  0
 17 18  1  0
 18 20  1  0
 18 19  1  6
 20 21  1  1
 20 22  1  0
 21 14  1  0
 22 23  1  0
 24 22  2  0
M  END
$$$$
