TLI.pdb
     RDKit          3D

 24 23  0  0  1  0  0  0  0  0999 V2000
    9.0063  -18.2016   19.6044 C   0  0  0  0  0  0  0  0  0  0  0  0
    9.1523  -17.5769   20.9908 C   0  0  1  0  0  0  0  0  0  0  0  0
   10.4237  -17.9029   21.4601 O   0  0  0  0  0  0  0  0  0  0  0  0
    9.1203  -16.0548   20.8557 C   0  0  2  0  0  0  0  0  0  0  0  0
   10.0990  -15.6330   19.9015 N   0  0  0  0  0  0  0  0  0  0  0  0
    9.2173  -15.3759   22.1479 C   0  0  0  0  0  0  0  0  0  0  0  0
   10.2601  -14.7684   22.4855 O   0  0  0  0  0  0  0  0  0  0  0  0
    7.4383  -11.9126   25.2752 C   0  0  0  0  0  0  0  0  0  0  0  0
    6.5024  -12.9778   24.8704 C   0  0  2  0  0  0  0  0  0  0  0  0
    5.2088  -12.8122   25.7181 C   0  0  0  0  0  0  0  0  0  0  0  0
    6.9347  -14.3919   24.8913 C   0  0  0  0  0  0  0  0  0  0  0  0
    8.2592  -14.7823   24.4052 C   0  0  2  0  0  0  0  0  0  0  0  0
    8.1349  -15.3868   23.0526 N   0  0  0  0  0  0  0  0  0  0  0  0
    9.0301  -15.7097   25.2419 C   0  0  0  0  0  0  0  0  0  0  0  0
    9.4821  -16.8279   24.9157 O   0  0  0  0  0  0  0  0  0  0  0  0
   10.3312  -13.5415   30.0849 C   0  0  0  0  0  0  0  0  0  0  0  0
   10.8721  -14.2572   28.9021 C   0  0  0  0  0  0  0  0  0  0  0  0
   10.5418  -15.7036   28.7802 C   0  0  2  0  0  0  0  0  0  0  0  0
   11.6675  -16.5779   29.3574 C   0  0  0  0  0  0  0  0  0  0  0  0
   10.2125  -16.2047   27.4216 C   0  0  2  0  0  0  0  0  0  0  0  0
    9.3523  -15.3717   26.6250 N   0  0  0  0  0  0  0  0  0  0  0  0
    9.5915  -17.5664   27.4604 C   0  0  0  0  0  0  0  0  0  0  0  0
   10.3670  -18.7143   27.4139 O   0  0  0  0  0  0  0  0  0  0  0  0
    8.3471  -17.7070   27.5365 O   0  0  0  0  0  0  0  0  0  0  0  0
  2  1  1  6
  2  4  1  0
  3  2  1  0
  4  6  1  0
  4  5  1  6
  6  7  2  0
  9  8  1  1
  9 10  1  0
 11  9  1  0
 12 11  1  1
 13 12  1  0
 13  6  1  0
 14 15  2  0
 14 12  1  0
 17 16  1  0
 17 18  1  0
 18 20  1  0
 18 19  1  6
 20 21  1  1
 20 22  1  0
 21 14  1  0
 22 23  1  0
 24 22  2  0
M  END
$$$$
