TLI.pdb
     RDKit          3D

 24 23  0  0  1  0  0  0  0  0999 V2000
    7.4710  -17.6078   19.5265 C   0  0  0  0  0  0  0  0  0  0  0  0
    7.9087  -17.1002   20.8992 C   0  0  1  0  0  0  0  0  0  0  0  0
    9.0282  -17.8400   21.2767 O   0  0  0  0  0  0  0  0  0  0  0  0
    8.3747  -15.6506   20.7674 C   0  0  2  0  0  0  0  0  0  0  0  0
    9.3750  -15.5545   19.7494 N   0  0  0  0  0  0  0  0  0  0  0  0
    8.7736  -15.0719   22.0504 C   0  0  0  0  0  0  0  0  0  0  0  0
    9.9818  -14.9448   22.3578 O   0  0  0  0  0  0  0  0  0  0  0  0
    6.0110  -12.4455   27.0228 C   0  0  0  0  0  0  0  0  0  0  0  0
    7.2103  -12.9984   26.3667 C   0  0  2  0  0  0  0  0  0  0  0  0
    8.3716  -11.9868   26.5832 C   0  0  0  0  0  0  0  0  0  0  0  0
    7.1582  -13.4009   24.9446 C   0  0  0  0  0  0  0  0  0  0  0  0
    8.1846  -14.2721   24.3698 C   0  0  2  0  0  0  0  0  0  0  0  0
    7.8046  -14.6396   22.9802 N   0  0  0  0  0  0  0  0  0  0  0  0
    8.4896  -15.5117   25.0942 C   0  0  0  0  0  0  0  0  0  0  0  0
    7.7400  -16.4978   25.2582 O   0  0  0  0  0  0  0  0  0  0  0  0
   12.7841  -18.2573   23.7278 C   0  0  0  0  0  0  0  0  0  0  0  0
   11.5116  -17.7202   24.2722 C   0  0  0  0  0  0  0  0  0  0  0  0
   11.4171  -17.5800   25.7511 C   0  0  2  0  0  0  0  0  0  0  0  0
   11.6315  -18.9333   26.4492 C   0  0  0  0  0  0  0  0  0  0  0  0
   10.1751  -16.9693   26.2894 C   0  0  2  0  0  0  0  0  0  0  0  0
    9.7910  -15.7024   25.7274 N   0  0  0  0  0  0  0  0  0  0  0  0
   10.2352  -16.7904   27.7746 C   0  0  0  0  0  0  0  0  0  0  0  0
    9.9568  -17.8375   28.6390 O   0  0  0  0  0  0  0  0  0  0  0  0
   10.5404  -15.6834   28.2801 O   0  0  0  0  0  0  0  0  0  0  0  0
  2  1  1  6
  2  4  1  0
  3  2  1  0
  4  6  1  0
  4  5  1  6
  6  7  2  0
  9  8  1  6
  9 10  1  0
 11  9  1  0
 12 11  1  1
 13 12  1  0
 13  6  1  0
 14 15  2  0
 14 12  1  0
 17 16  1  0
 17 18  1  0
 18 20  1  0
 18 19  1  1
 20 21  1  6
 20 22  1  0
 21 14  1  0
 22 23  1  0
 24 22  2  0
M  END
$$$$
