TLI.pdb
     RDKit          3D

 24 23  0  0  1  0  0  0  0  0999 V2000
    7.7324  -19.8333   21.6432 C   0  0  0  0  0  0  0  0  0  0  0  0
    8.1965  -18.6544   22.4966 C   0  0  1  0  0  0  0  0  0  0  0  0
    9.5503  -18.8470   22.7677 O   0  0  0  0  0  0  0  0  0  0  0  0
    8.1011  -17.3735   21.6682 C   0  0  2  0  0  0  0  0  0  0  0  0
    8.7949  -17.5457   20.4292 N   0  0  0  0  0  0  0  0  0  0  0  0
    8.5119  -16.1882   22.4208 C   0  0  0  0  0  0  0  0  0  0  0  0
    9.6114  -15.6285   22.2012 O   0  0  0  0  0  0  0  0  0  0  0  0
    6.0780  -12.4397   26.8532 C   0  0  0  0  0  0  0  0  0  0  0  0
    7.1902  -12.8606   25.9814 C   0  0  2  0  0  0  0  0  0  0  0  0
    7.6709  -11.6068   25.1964 C   0  0  0  0  0  0  0  0  0  0  0  0
    7.0131  -13.9949   25.0492 C   0  0  0  0  0  0  0  0  0  0  0  0
    8.1394  -14.5146   24.2719 C   0  0  2  0  0  0  0  0  0  0  0  0
    7.6777  -15.6410   23.4183 N   0  0  0  0  0  0  0  0  0  0  0  0
    9.3135  -14.9736   25.0237 C   0  0  0  0  0  0  0  0  0  0  0  0
   10.4893  -14.5645   24.9171 O   0  0  0  0  0  0  0  0  0  0  0  0
   10.1660  -13.5552   29.5796 C   0  0  0  0  0  0  0  0  0  0  0  0
   10.3849  -14.2225   28.2717 C   0  0  0  0  0  0  0  0  0  0  0  0
   10.2692  -15.7064   28.2444 C   0  0  2  0  0  0  0  0  0  0  0  0
   11.3609  -16.3615   29.1068 C   0  0  0  0  0  0  0  0  0  0  0  0
   10.2777  -16.3558   26.9089 C   0  0  2  0  0  0  0  0  0  0  0  0
    9.1887  -16.0234   26.0303 N   0  0  0  0  0  0  0  0  0  0  0  0
   10.3195  -17.8489   27.0107 C   0  0  0  0  0  0  0  0  0  0  0  0
   11.4993  -18.5199   27.2919 O   0  0  0  0  0  0  0  0  0  0  0  0
    9.2837  -18.5369   26.8436 O   0  0  0  0  0  0  0  0  0  0  0  0
  2  1  1  6
  2  4  1  0
  3  2  1  0
  4  6  1  0
  4  5  1  6
  6  7  2  0
  9  8  1  6
  9 10  1  0
 11  9  1  0
 12 11  1  1
 13 12  1  0
 13  6  1  0
 14 15  2  0
 14 12  1  0
 17 16  1  0
 17 18  1  0
 18 20  1  0
 18 19  1  1
 20 21  1  1
 20 22  1  0
 21 14  1  0
 22 23  1  0
 24 22  2  0
M  END
$$$$
