TLI.pdb
     RDKit          3D

 24 23  0  0  1  0  0  0  0  0999 V2000
    9.6921  -18.7627   21.7471 C   0  0  0  0  0  0  0  0  0  0  0  0
   10.1682  -17.6964   20.7623 C   0  0  1  0  0  0  0  0  0  0  0  0
    9.9749  -18.2029   19.4781 O   0  0  0  0  0  0  0  0  0  0  0  0
    9.2638  -16.4702   20.8823 C   0  0  2  0  0  0  0  0  0  0  0  0
    9.4519  -15.6174   19.7493 N   0  0  0  0  0  0  0  0  0  0  0  0
    9.4098  -15.7907   22.1696 C   0  0  0  0  0  0  0  0  0  0  0  0
   10.4403  -15.1319   22.4429 O   0  0  0  0  0  0  0  0  0  0  0  0
    7.6905  -12.2686   25.1353 C   0  0  0  0  0  0  0  0  0  0  0  0
    6.7316  -13.3618   24.8909 C   0  0  2  0  0  0  0  0  0  0  0  0
    5.5432  -13.1721   25.8762 C   0  0  0  0  0  0  0  0  0  0  0  0
    7.1869  -14.7684   24.9236 C   0  0  0  0  0  0  0  0  0  0  0  0
    8.5165  -15.1418   24.4383 C   0  0  2  0  0  0  0  0  0  0  0  0
    8.3902  -15.8591   23.1421 N   0  0  0  0  0  0  0  0  0  0  0  0
    9.3445  -15.9650   25.3277 C   0  0  0  0  0  0  0  0  0  0  0  0
    9.8094  -17.1011   25.0944 O   0  0  0  0  0  0  0  0  0  0  0  0
   11.0856  -13.3069   29.8688 C   0  0  0  0  0  0  0  0  0  0  0  0
   11.4300  -14.1834   28.7212 C   0  0  0  0  0  0  0  0  0  0  0  0
   10.9745  -15.5987   28.7935 C   0  0  2  0  0  0  0  0  0  0  0  0
   12.0292  -16.4842   29.4780 C   0  0  0  0  0  0  0  0  0  0  0  0
   10.5830  -16.2440   27.5145 C   0  0  2  0  0  0  0  0  0  0  0  0
    9.7166  -15.4836   26.6547 N   0  0  0  0  0  0  0  0  0  0  0  0
    9.9285  -17.5727   27.7331 C   0  0  0  0  0  0  0  0  0  0  0  0
    8.5527  -17.6874   27.8560 O   0  0  0  0  0  0  0  0  0  0  0  0
   10.6098  -18.6233   27.8114 O   0  0  0  0  0  0  0  0  0  0  0  0
  2  1  1  1
  2  4  1  0
  3  2  1  0
  4  6  1  0
  4  5  1  6
  6  7  2  0
  9  8  1  1
  9 10  1  0
 11  9  1  0
 12 11  1  1
 13 12  1  0
 13  6  1  0
 14 15  2  0
 14 12  1  0
 17 16  1  0
 17 18  1  0
 18 20  1  0
 18 19  1  6
 20 21  1  1
 20 22  1  0
 21 14  1  0
 22 23  1  0
 24 22  2  0
M  END
$$$$
