TLI.pdb
     RDKit          3D

 24 23  0  0  1  0  0  0  0  0999 V2000
    8.9306  -18.7291   19.7785 C   0  0  0  0  0  0  0  0  0  0  0  0
    9.0866  -17.9063   21.0562 C   0  0  1  0  0  0  0  0  0  0  0  0
   10.3694  -18.1434   21.5474 O   0  0  0  0  0  0  0  0  0  0  0  0
    9.0292  -16.4210   20.7007 C   0  0  2  0  0  0  0  0  0  0  0  0
    9.9837  -16.1315   19.6755 N   0  0  0  0  0  0  0  0  0  0  0  0
    9.1395  -15.5590   21.8776 C   0  0  0  0  0  0  0  0  0  0  0  0
   10.2134  -14.9769   22.1576 O   0  0  0  0  0  0  0  0  0  0  0  0
    5.4725  -12.8943   26.1902 C   0  0  0  0  0  0  0  0  0  0  0  0
    6.8006  -13.2991   25.6936 C   0  0  2  0  0  0  0  0  0  0  0  0
    7.6759  -12.0171   25.5975 C   0  0  0  0  0  0  0  0  0  0  0  0
    6.9183  -14.0783   24.4422 C   0  0  0  0  0  0  0  0  0  0  0  0
    8.1937  -14.6759   24.0436 C   0  0  2  0  0  0  0  0  0  0  0  0
    8.0354  -15.3590   22.7325 N   0  0  0  0  0  0  0  0  0  0  0  0
    8.8033  -15.6312   24.9764 C   0  0  0  0  0  0  0  0  0  0  0  0
    8.7304  -16.8781   24.9399 O   0  0  0  0  0  0  0  0  0  0  0  0
   11.1827  -14.0907   30.1768 C   0  0  0  0  0  0  0  0  0  0  0  0
   10.3700  -14.7042   29.0965 C   0  0  0  0  0  0  0  0  0  0  0  0
   11.1035  -15.4789   28.0584 C   0  0  2  0  0  0  0  0  0  0  0  0
   12.2138  -14.6299   27.4172 C   0  0  0  0  0  0  0  0  0  0  0  0
   10.2907  -16.0813   26.9712 C   0  0  2  0  0  0  0  0  0  0  0  0
    9.6022  -15.1628   26.1048 N   0  0  0  0  0  0  0  0  0  0  0  0
    9.2669  -17.0376   27.4993 C   0  0  0  0  0  0  0  0  0  0  0  0
    7.9101  -16.7829   27.3749 O   0  0  0  0  0  0  0  0  0  0  0  0
    9.6099  -18.1002   28.0714 O   0  0  0  0  0  0  0  0  0  0  0  0
  2  1  1  6
  2  4  1  0
  3  2  1  0
  4  6  1  0
  4  5  1  6
  6  7  2  0
  9  8  1  6
  9 10  1  0
 11  9  1  0
 12 11  1  1
 13 12  1  0
 13  6  1  0
 14 15  2  0
 14 12  1  0
 17 16  1  0
 17 18  1  0
 18 20  1  0
 18 19  1  6
 20 21  1  1
 20 22  1  0
 21 14  1  0
 22 23  1  0
 24 22  2  0
M  END
$$$$
