TLI.pdb
     RDKit          3D

 24 23  0  0  1  0  0  0  0  0999 V2000
    6.4655  -20.8573   23.7668 C   0  0  0  0  0  0  0  0  0  0  0  0
    7.2288  -19.5368   23.6814 C   0  0  1  0  0  0  0  0  0  0  0  0
    8.3790  -19.6723   24.4571 O   0  0  0  0  0  0  0  0  0  0  0  0
    7.7014  -19.3283   22.2430 C   0  0  2  0  0  0  0  0  0  0  0  0
    8.4605  -20.4623   21.8139 N   0  0  0  0  0  0  0  0  0  0  0  0
    8.3866  -18.0490   22.0586 C   0  0  0  0  0  0  0  0  0  0  0  0
    9.6369  -17.9841   22.0034 O   0  0  0  0  0  0  0  0  0  0  0  0
    6.8701  -12.1536   20.5524 C   0  0  0  0  0  0  0  0  0  0  0  0
    7.8577  -13.2277   20.7655 C   0  0  2  0  0  0  0  0  0  0  0  0
    8.7342  -13.3196   19.4840 C   0  0  0  0  0  0  0  0  0  0  0  0
    7.4085  -14.5802   21.1605 C   0  0  0  0  0  0  0  0  0  0  0  0
    8.3444  -15.5468   21.7371 C   0  0  2  0  0  0  0  0  0  0  0  0
    7.6551  -16.8488   21.9376 N   0  0  0  0  0  0  0  0  0  0  0  0
    8.9864  -15.1792   23.0049 C   0  0  0  0  0  0  0  0  0  0  0  0
   10.1404  -14.7287   23.1675 O   0  0  0  0  0  0  0  0  0  0  0  0
    6.0048  -12.0618   26.0071 C   0  0  0  0  0  0  0  0  0  0  0  0
    7.1412  -12.7772   25.3740 C   0  0  0  0  0  0  0  0  0  0  0  0
    7.8240  -13.8160   26.1929 C   0  0  2  0  0  0  0  0  0  0  0  0
    8.5716  -13.1822   27.3778 C   0  0  0  0  0  0  0  0  0  0  0  0
    8.7609  -14.7226   25.4817 C   0  0  2  0  0  0  0  0  0  0  0  0
    8.2720  -15.3230   24.2697 N   0  0  0  0  0  0  0  0  0  0  0  0
    9.2409  -15.8358   26.3603 C   0  0  0  0  0  0  0  0  0  0  0  0
   10.2644  -15.6427   27.2747 O   0  0  0  0  0  0  0  0  0  0  0  0
    8.7279  -16.9788   26.2930 O   0  0  0  0  0  0  0  0  0  0  0  0
  2  1  1  6
  2  4  1  0
  3  2  1  0
  4  6  1  0
  4  5  1  1
  6  7  2  0
  9  8  1  6
  9 10  1  0
 11  9  1  0
 12 11  1  1
 13 12  1  0
 13  6  1  0
 14 15  2  0
 14 12  1  0
 17 16  1  0
 17 18  1  0
 18 20  1  0
 18 19  1  1
 20 21  1  6
 20 22  1  0
 21 14  1  0
 22 23  1  0
 24 22  2  0
M  END
$$$$
