TLI.pdb
     RDKit          3D

 24 23  0  0  1  0  0  0  0  0999 V2000
   11.7740  -19.2666   22.3390 C   0  0  0  0  0  0  0  0  0  0  0  0
   12.7551  -18.5990   21.3769 C   0  0  1  0  0  0  0  0  0  0  0  0
   13.1215  -19.5543   20.4301 O   0  0  0  0  0  0  0  0  0  0  0  0
   12.0272  -17.4930   20.6135 C   0  0  2  0  0  0  0  0  0  0  0  0
   12.8896  -16.9493   19.6101 N   0  0  0  0  0  0  0  0  0  0  0  0
   11.4426  -16.4898   21.5034 C   0  0  0  0  0  0  0  0  0  0  0  0
   12.1593  -15.6447   22.0889 O   0  0  0  0  0  0  0  0  0  0  0  0
    8.3170  -12.9787   21.4488 C   0  0  0  0  0  0  0  0  0  0  0  0
    7.7352  -14.3336   21.4362 C   0  0  2  0  0  0  0  0  0  0  0  0
    6.1901  -14.1796   21.3455 C   0  0  0  0  0  0  0  0  0  0  0  0
    8.0784  -15.2977   22.5037 C   0  0  0  0  0  0  0  0  0  0  0  0
    9.4738  -15.6125   22.8148 C   0  0  2  0  0  0  0  0  0  0  0  0
   10.0505  -16.4464   21.7274 N   0  0  0  0  0  0  0  0  0  0  0  0
    9.7361  -16.2926   24.0888 C   0  0  0  0  0  0  0  0  0  0  0  0
   10.0789  -17.4824   24.2564 O   0  0  0  0  0  0  0  0  0  0  0  0
    9.9127  -12.8572   28.5258 C   0  0  0  0  0  0  0  0  0  0  0  0
   10.4995  -13.8943   27.6405 C   0  0  0  0  0  0  0  0  0  0  0  0
    9.9817  -15.2817   27.7923 C   0  0  2  0  0  0  0  0  0  0  0  0
   10.6754  -16.0058   28.9582 C   0  0  0  0  0  0  0  0  0  0  0  0
   10.0472  -16.1573   26.5946 C   0  0  2  0  0  0  0  0  0  0  0  0
    9.6064  -15.5772   25.3547 N   0  0  0  0  0  0  0  0  0  0  0  0
    9.2761  -17.4265   26.7839 C   0  0  0  0  0  0  0  0  0  0  0  0
    8.0111  -17.5896   26.2414 O   0  0  0  0  0  0  0  0  0  0  0  0
    9.7553  -18.3815   27.4416 O   0  0  0  0  0  0  0  0  0  0  0  0
  2  1  1  1
  2  4  1  0
  3  2  1  0
  4  6  1  0
  4  5  1  6
  6  7  2  0
  9  8  1  1
  9 10  1  0
 11  9  1  0
 12 11  1  6
 13 12  1  0
 13  6  1  0
 14 15  2  0
 14 12  1  0
 17 16  1  0
 17 18  1  0
 18 20  1  0
 18 19  1  1
 20 21  1  6
 20 22  1  0
 21 14  1  0
 22 23  1  0
 24 22  2  0
M  END
$$$$
