TLI.pdb
     RDKit          3D

 24 23  0  0  1  0  0  0  0  0999 V2000
    8.8591  -19.3731   23.4501 C   0  0  0  0  0  0  0  0  0  0  0  0
    9.0528  -18.8641   22.0228 C   0  0  1  0  0  0  0  0  0  0  0  0
    8.6199  -19.8711   21.1617 O   0  0  0  0  0  0  0  0  0  0  0  0
    8.1261  -17.6710   21.7908 C   0  0  2  0  0  0  0  0  0  0  0  0
    7.9657  -17.4487   20.3869 N   0  0  0  0  0  0  0  0  0  0  0  0
    8.5435  -16.4844   22.5377 C   0  0  0  0  0  0  0  0  0  0  0  0
    9.5661  -15.8379   22.2108 O   0  0  0  0  0  0  0  0  0  0  0  0
    7.4042  -11.9061   24.9437 C   0  0  0  0  0  0  0  0  0  0  0  0
    6.5613  -13.1021   25.1269 C   0  0  2  0  0  0  0  0  0  0  0  0
    5.5672  -12.8022   26.2849 C   0  0  0  0  0  0  0  0  0  0  0  0
    7.1874  -14.4252   25.3372 C   0  0  0  0  0  0  0  0  0  0  0  0
    8.2751  -14.8900   24.4747 C   0  0  2  0  0  0  0  0  0  0  0  0
    7.8029  -16.0340   23.6507 N   0  0  0  0  0  0  0  0  0  0  0  0
    9.5220  -15.2964   25.1338 C   0  0  0  0  0  0  0  0  0  0  0  0
   10.6351  -14.7332   25.0633 O   0  0  0  0  0  0  0  0  0  0  0  0
    9.8499  -13.4159   29.2496 C   0  0  0  0  0  0  0  0  0  0  0  0
   10.1951  -14.2599   28.0781 C   0  0  0  0  0  0  0  0  0  0  0  0
   10.1664  -15.7347   28.2780 C   0  0  2  0  0  0  0  0  0  0  0  0
   11.1001  -16.1549   29.4254 C   0  0  0  0  0  0  0  0  0  0  0  0
   10.4727  -16.5785   27.0950 C   0  0  2  0  0  0  0  0  0  0  0  0
    9.5609  -16.4801   25.9872 N   0  0  0  0  0  0  0  0  0  0  0  0
   10.5756  -18.0291   27.4512 C   0  0  0  0  0  0  0  0  0  0  0  0
   11.7253  -18.5517   28.0221 O   0  0  0  0  0  0  0  0  0  0  0  0
    9.6201  -18.8149   27.2420 O   0  0  0  0  0  0  0  0  0  0  0  0
  2  1  1  1
  2  4  1  0
  3  2  1  0
  4  6  1  0
  4  5  1  6
  6  7  2  0
  9  8  1  1
  9 10  1  0
 11  9  1  0
 12 11  1  1
 13 12  1  0
 13  6  1  0
 14 15  2  0
 14 12  1  0
 17 16  1  0
 17 18  1  0
 18 20  1  0
 18 19  1  1
 20 21  1  6
 20 22  1  0
 21 14  1  0
 22 23  1  0
 24 22  2  0
M  END
$$$$
