KQN.pdb
     RDKit          3D

 27 26  0  0  1  0  0  0  0  0999 V2000
   14.6132  -14.7947  -12.7247 N   0  0  0  0  0  0  0  0  0  0  0  0
   13.9105  -13.4610  -12.6412 C   0  0  1  0  0  0  0  0  0  0  0  0
   13.0196  -13.5433  -11.4772 C   0  0  0  0  0  0  0  0  0  0  0  0
   11.8215  -14.3633  -11.4292 C   0  0  0  0  0  0  0  0  0  0  0  0
   10.6080  -14.2284  -12.1987 C   0  0  0  0  0  0  0  0  0  0  0  0
    9.3943  -15.0462  -11.9937 C   0  0  0  0  0  0  0  0  0  0  0  0
    8.7560  -14.9297  -10.7250 N   0  0  0  0  0  0  0  0  0  0  0  0
   14.9345  -12.4001  -12.5842 C   0  0  0  0  0  0  0  0  0  0  0  0
   15.9802  -12.5251  -11.8954 O   0  0  0  0  0  0  0  0  0  0  0  0
   16.6077   -8.6698  -17.1822 N   0  0  0  0  0  0  0  0  0  0  0  0
   17.3678   -8.0966  -16.1121 C   0  0  0  0  0  0  0  0  0  0  0  0
   18.2280   -7.2212  -16.3435 O   0  0  0  0  0  0  0  0  0  0  0  0
   17.1354   -8.5377  -14.7260 C   0  0  0  0  0  0  0  0  0  0  0  0
   16.0713   -9.5764  -14.6376 C   0  0  0  0  0  0  0  0  0  0  0  0
   15.8202  -10.1212  -13.2579 C   0  0  2  0  0  0  0  0  0  0  0  0
   14.8147  -11.1672  -13.2991 N   0  0  0  0  0  0  0  0  0  0  0  0
   15.4768   -9.0547  -12.2843 C   0  0  0  0  0  0  0  0  0  0  0  0
   14.2966   -8.6420  -12.2717 O   0  0  0  0  0  0  0  0  0  0  0  0
   15.5253   -6.2959   -7.5819 N   0  0  0  0  0  0  0  0  0  0  0  0
   16.7778   -6.4222   -8.2377 C   0  0  0  0  0  0  0  0  0  0  0  0
   17.6535   -5.5559   -8.0015 O   0  0  0  0  0  0  0  0  0  0  0  0
   16.9799   -7.5538   -9.1525 C   0  0  0  0  0  0  0  0  0  0  0  0
   16.2200   -7.4744  -10.4167 C   0  0  2  0  0  0  0  0  0  0  0  0
   16.3994   -8.4866  -11.3811 N   0  0  0  0  0  0  0  0  0  0  0  0
   16.3195   -6.0590  -10.9269 C   0  0  0  0  0  0  0  0  0  0  0  0
   15.7528   -5.1648  -10.2786 O   0  0  0  0  0  0  0  0  0  0  0  0
   17.0252   -5.7719  -12.0876 O   0  0  0  0  0  0  0  0  0  0  0  0
  2  1  1  1
  3  2  1  0
  4  3  1  0
  5  4  1  0
  6  5  1  0
  7  6  1  0
  8  2  1  0
  8  9  2  0
 10 11  1  0
 11 12  2  0
 13 11  1  0
 13 14  1  0
 15 14  1  6
 15 16  1  0
 16  8  1  0
 17 15  1  0
 18 17  2  0
 20 22  1  0
 20 19  1  0
 21 20  2  0
 23 22  1  1
 23 25  1  0
 23 24  1  0
 24 17  1  0
 25 27  1  0
 26 25  2  0
M  END
$$$$
