KQN.pdb
     RDKit          3D

 27 26  0  0  1  0  0  0  0  0999 V2000
   18.9184  -20.7094  -11.1762 N   0  0  0  0  0  0  0  0  0  0  0  0
   19.6744  -21.6105  -12.1227 C   0  0  1  0  0  0  0  0  0  0  0  0
   18.6610  -22.4238  -12.8060 C   0  0  0  0  0  0  0  0  0  0  0  0
   18.0970  -23.6454  -12.2583 C   0  0  0  0  0  0  0  0  0  0  0  0
   17.1021  -23.7915  -11.2232 C   0  0  0  0  0  0  0  0  0  0  0  0
   16.5435  -25.0854  -10.7787 C   0  0  0  0  0  0  0  0  0  0  0  0
   17.0651  -25.6199   -9.5651 N   0  0  0  0  0  0  0  0  0  0  0  0
   20.5090  -20.7666  -12.9994 C   0  0  0  0  0  0  0  0  0  0  0  0
   20.2235  -19.5623  -13.2267 O   0  0  0  0  0  0  0  0  0  0  0  0
   26.5134  -21.9188  -14.5650 N   0  0  0  0  0  0  0  0  0  0  0  0
   26.2199  -20.8096  -15.4223 C   0  0  0  0  0  0  0  0  0  0  0  0
   27.1088  -20.3166  -16.1480 O   0  0  0  0  0  0  0  0  0  0  0  0
   24.8601  -20.2439  -15.4540 C   0  0  0  0  0  0  0  0  0  0  0  0
   23.9290  -20.9673  -14.5436 C   0  0  0  0  0  0  0  0  0  0  0  0
   22.5268  -20.4240  -14.4969 C   0  0  2  0  0  0  0  0  0  0  0  0
   21.6892  -21.2499  -13.6467 N   0  0  0  0  0  0  0  0  0  0  0  0
   21.9453  -20.2468  -15.8511 C   0  0  0  0  0  0  0  0  0  0  0  0
   21.0685  -21.0606  -16.2143 O   0  0  0  0  0  0  0  0  0  0  0  0
   19.8936  -16.4994  -18.7751 N   0  0  0  0  0  0  0  0  0  0  0  0
   19.5906  -16.6997  -17.4030 C   0  0  0  0  0  0  0  0  0  0  0  0
   18.5878  -16.1119  -16.9318 O   0  0  0  0  0  0  0  0  0  0  0  0
   20.4626  -17.5793  -16.6130 C   0  0  0  0  0  0  0  0  0  0  0  0
   21.5402  -18.2375  -17.3795 C   0  0  2  0  0  0  0  0  0  0  0  0
   22.3236  -19.2207  -16.7420 N   0  0  0  0  0  0  0  0  0  0  0  0
   22.3053  -17.1655  -18.1137 C   0  0  0  0  0  0  0  0  0  0  0  0
   21.8182  -16.7177  -19.1641 O   0  0  0  0  0  0  0  0  0  0  0  0
   23.5175  -16.6982  -17.6239 O   0  0  0  0  0  0  0  0  0  0  0  0
  2  1  1  1
  3  2  1  0
  4  3  1  0
  5  4  1  0
  6  5  1  0
  7  6  1  0
  8  2  1  0
  8  9  2  0
 10 11  1  0
 11 12  2  0
 13 11  1  0
 13 14  1  0
 15 14  1  6
 15 16  1  0
 16  8  1  0
 17 15  1  0
 18 17  2  0
 20 22  1  0
 20 19  1  0
 21 20  2  0
 23 22  1  1
 23 25  1  0
 23 24  1  0
 24 17  1  0
 25 27  1  0
 26 25  2  0
M  END
$$$$
