KQN.pdb
     RDKit          3D

 27 26  0  0  1  0  0  0  0  0999 V2000
   22.1076  -12.7677  -17.2780 N   0  0  0  0  0  0  0  0  0  0  0  0
   21.0849  -11.6579  -17.3235 C   0  0  1  0  0  0  0  0  0  0  0  0
   19.7954  -12.2800  -16.9988 C   0  0  0  0  0  0  0  0  0  0  0  0
   19.3388  -13.5401  -17.5591 C   0  0  0  0  0  0  0  0  0  0  0  0
   18.1242  -14.2646  -17.2717 C   0  0  0  0  0  0  0  0  0  0  0  0
   17.7558  -15.5553  -17.8899 C   0  0  0  0  0  0  0  0  0  0  0  0
   18.4818  -15.9314  -19.0570 N   0  0  0  0  0  0  0  0  0  0  0  0
   21.5222  -10.5864  -16.4080 C   0  0  0  0  0  0  0  0  0  0  0  0
   20.8675  -10.2895  -15.3752 O   0  0  0  0  0  0  0  0  0  0  0  0
   26.5241  -10.5830  -16.8966 N   0  0  0  0  0  0  0  0  0  0  0  0
   26.1463  -11.0221  -15.5867 C   0  0  0  0  0  0  0  0  0  0  0  0
   26.6409  -12.0600  -15.0988 O   0  0  0  0  0  0  0  0  0  0  0  0
   25.1691  -10.2460  -14.8039 C   0  0  0  0  0  0  0  0  0  0  0  0
   24.7202   -9.0204  -15.5217 C   0  0  0  0  0  0  0  0  0  0  0  0
   23.2298   -8.8675  -15.6589 C   0  0  2  0  0  0  0  0  0  0  0  0
   22.7078   -9.8165  -16.6252 N   0  0  0  0  0  0  0  0  0  0  0  0
   22.8327   -7.4728  -15.9754 C   0  0  0  0  0  0  0  0  0  0  0  0
   23.1265   -7.0312  -17.1076 O   0  0  0  0  0  0  0  0  0  0  0  0
   19.4845   -3.1471  -16.6113 N   0  0  0  0  0  0  0  0  0  0  0  0
   19.9440   -3.5663  -15.3354 C   0  0  0  0  0  0  0  0  0  0  0  0
   20.0344   -2.7016  -14.4314 O   0  0  0  0  0  0  0  0  0  0  0  0
   20.2870   -4.9818  -15.1434 C   0  0  0  0  0  0  0  0  0  0  0  0
   21.7290   -5.2894  -15.2321 C   0  0  2  0  0  0  0  0  0  0  0  0
   22.1486   -6.6262  -15.0781 N   0  0  0  0  0  0  0  0  0  0  0  0
   22.4701   -4.2711  -14.4028 C   0  0  0  0  0  0  0  0  0  0  0  0
   22.8078   -4.5914  -13.2520 O   0  0  0  0  0  0  0  0  0  0  0  0
   22.7624   -3.0151  -14.9174 O   0  0  0  0  0  0  0  0  0  0  0  0
  2  1  1  1
  3  2  1  0
  4  3  1  0
  5  4  1  0
  6  5  1  0
  7  6  1  0
  8  2  1  0
  8  9  2  0
 10 11  1  0
 11 12  2  0
 13 11  1  0
 13 14  1  0
 15 14  1  6
 15 16  1  0
 16  8  1  0
 17 15  1  0
 18 17  2  0
 20 22  1  0
 20 19  1  0
 21 20  2  0
 23 22  1  1
 23 25  1  0
 23 24  1  0
 24 17  1  0
 25 27  1  0
 26 25  2  0
M  END
$$$$
