KQN.pdb
     RDKit          3D

 27 26  0  0  1  0  0  0  0  0999 V2000
   19.9495  -11.8770  -17.5236 N   0  0  0  0  0  0  0  0  0  0  0  0
   19.2619  -11.1112  -18.6282 C   0  0  1  0  0  0  0  0  0  0  0  0
   18.4070  -12.0810  -19.3238 C   0  0  0  0  0  0  0  0  0  0  0  0
   18.4025  -13.5063  -19.0430 C   0  0  0  0  0  0  0  0  0  0  0  0
   17.6499  -14.5495  -19.6973 C   0  0  0  0  0  0  0  0  0  0  0  0
   17.7128  -15.9797  -19.3308 C   0  0  0  0  0  0  0  0  0  0  0  0
   16.8308  -16.8543  -20.0292 N   0  0  0  0  0  0  0  0  0  0  0  0
   18.5597   -9.9608  -18.0275 C   0  0  0  0  0  0  0  0  0  0  0  0
   17.8986   -9.1497  -18.7265 O   0  0  0  0  0  0  0  0  0  0  0  0
   15.7123   -9.9040  -12.5841 N   0  0  0  0  0  0  0  0  0  0  0  0
   16.0940  -10.9023  -13.5376 C   0  0  0  0  0  0  0  0  0  0  0  0
   15.8236  -12.1052  -13.3388 O   0  0  0  0  0  0  0  0  0  0  0  0
   16.8091  -10.5120  -14.7650 C   0  0  0  0  0  0  0  0  0  0  0  0
   17.0959   -9.0509  -14.8080 C   0  0  0  0  0  0  0  0  0  0  0  0
   17.8585   -8.5826  -16.0174 C   0  0  2  0  0  0  0  0  0  0  0  0
   18.5788   -9.6872  -16.6239 N   0  0  0  0  0  0  0  0  0  0  0  0
   18.7493   -7.4350  -15.7129 C   0  0  0  0  0  0  0  0  0  0  0  0
   18.2119   -6.3695  -15.3399 O   0  0  0  0  0  0  0  0  0  0  0  0
   20.5551   -6.8542  -12.8297 N   0  0  0  0  0  0  0  0  0  0  0  0
   21.8970   -7.0796  -13.2339 C   0  0  0  0  0  0  0  0  0  0  0  0
   22.7159   -7.4592  -12.3631 O   0  0  0  0  0  0  0  0  0  0  0  0
   22.2524   -6.8574  -14.6418 C   0  0  0  0  0  0  0  0  0  0  0  0
   21.1201   -6.4973  -15.5194 C   0  0  2  0  0  0  0  0  0  0  0  0
   20.1551   -7.4797  -15.8199 N   0  0  0  0  0  0  0  0  0  0  0  0
   21.6739   -5.7409  -16.7004 C   0  0  0  0  0  0  0  0  0  0  0  0
   21.3621   -6.1275  -17.8381 O   0  0  0  0  0  0  0  0  0  0  0  0
   22.5070   -4.6460  -16.5135 O   0  0  0  0  0  0  0  0  0  0  0  0
  2  1  1  1
  3  2  1  0
  4  3  1  0
  5  4  1  0
  6  5  1  0
  7  6  1  0
  8  2  1  0
  8  9  2  0
 10 11  1  0
 11 12  2  0
 13 11  1  0
 13 14  1  0
 15 14  1  1
 15 16  1  0
 16  8  1  0
 17 15  1  0
 18 17  2  0
 20 22  1  0
 20 19  1  0
 21 20  2  0
 23 22  1  6
 23 25  1  0
 23 24  1  0
 24 17  1  0
 25 27  1  0
 26 25  2  0
M  END
$$$$
