KQN.pdb
     RDKit          3D

 27 26  0  0  1  0  0  0  0  0999 V2000
   18.4330  -11.8372  -16.3095 N   0  0  0  0  0  0  0  0  0  0  0  0
   18.4981  -10.3936  -16.7467 C   0  0  1  0  0  0  0  0  0  0  0  0
   17.1126   -9.9080  -16.7528 C   0  0  0  0  0  0  0  0  0  0  0  0
   16.0931  -10.3763  -17.6755 C   0  0  0  0  0  0  0  0  0  0  0  0
   16.2092  -11.3705  -18.7151 C   0  0  0  0  0  0  0  0  0  0  0  0
   15.1079  -11.7685  -19.6165 C   0  0  0  0  0  0  0  0  0  0  0  0
   15.4081  -12.7722  -20.5824 N   0  0  0  0  0  0  0  0  0  0  0  0
   19.4190   -9.6766  -15.8437 C   0  0  0  0  0  0  0  0  0  0  0  0
   19.2292   -9.6353  -14.6005 O   0  0  0  0  0  0  0  0  0  0  0  0
   25.3158  -10.1691  -15.6161 N   0  0  0  0  0  0  0  0  0  0  0  0
   24.2096  -10.9817  -15.2069 C   0  0  0  0  0  0  0  0  0  0  0  0
   24.3779  -12.1870  -14.9264 O   0  0  0  0  0  0  0  0  0  0  0  0
   22.8615  -10.3955  -15.1122 C   0  0  0  0  0  0  0  0  0  0  0  0
   22.8537   -8.9456  -15.4541 C   0  0  0  0  0  0  0  0  0  0  0  0
   21.5006   -8.2884  -15.4296 C   0  0  2  0  0  0  0  0  0  0  0  0
   20.5806   -8.9848  -16.3102 N   0  0  0  0  0  0  0  0  0  0  0  0
   21.5730   -6.8371  -15.7326 C   0  0  0  0  0  0  0  0  0  0  0  0
   21.9474   -6.5040  -16.8780 O   0  0  0  0  0  0  0  0  0  0  0  0
   18.3459   -2.6094  -15.9218 N   0  0  0  0  0  0  0  0  0  0  0  0
   19.0347   -3.7622  -15.4620 C   0  0  0  0  0  0  0  0  0  0  0  0
   18.6121   -4.8840  -15.8308 O   0  0  0  0  0  0  0  0  0  0  0  0
   20.1985   -3.5806  -14.5842 C   0  0  0  0  0  0  0  0  0  0  0  0
   21.3656   -4.4226  -14.9172 C   0  0  2  0  0  0  0  0  0  0  0  0
   21.2456   -5.8228  -14.8085 N   0  0  0  0  0  0  0  0  0  0  0  0
   22.5766   -3.8161  -14.2542 C   0  0  0  0  0  0  0  0  0  0  0  0
   23.1740   -4.4923  -13.4017 O   0  0  0  0  0  0  0  0  0  0  0  0
   23.0046   -2.5392  -14.5921 O   0  0  0  0  0  0  0  0  0  0  0  0
  2  1  1  1
  3  2  1  0
  4  3  1  0
  5  4  1  0
  6  5  1  0
  7  6  1  0
  8  2  1  0
  8  9  2  0
 10 11  1  0
 11 12  2  0
 13 11  1  0
 13 14  1  0
 15 14  1  6
 15 16  1  0
 16  8  1  0
 17 15  1  0
 18 17  2  0
 20 22  1  0
 20 19  1  0
 21 20  2  0
 23 22  1  1
 23 25  1  0
 23 24  1  0
 24 17  1  0
 25 27  1  0
 26 25  2  0
M  END
$$$$
