CQC.pdb
     RDKit          3D

 22 21  0  0  1  0  0  0  0  0999 V2000
   17.7589  -12.0237  -17.3273 N   0  0  0  0  0  0  0  0  0  0  0  0
   17.7752  -11.1963  -16.1604 C   0  0  1  0  0  0  0  0  0  0  0  0
   18.6563  -11.8492  -15.1191 C   0  0  0  0  0  0  0  0  0  0  0  0
   17.7223  -13.2346  -14.4066 S   0  0  0  0  0  0  0  0  0  0  0  0
   18.1620   -9.8013  -16.4320 C   0  0  0  0  0  0  0  0  0  0  0  0
   19.1142   -9.6162  -17.2443 O   0  0  0  0  0  0  0  0  0  0  0  0
   14.4194   -4.9192  -16.1422 N   0  0  0  0  0  0  0  0  0  0  0  0
   14.6451   -5.7791  -17.2386 C   0  0  0  0  0  0  0  0  0  0  0  0
   13.7954   -5.7814  -18.1615 O   0  0  0  0  0  0  0  0  0  0  0  0
   15.8316   -6.6582  -17.3251 C   0  0  0  0  0  0  0  0  0  0  0  0
   16.6935   -6.4402  -16.1266 C   0  0  0  0  0  0  0  0  0  0  0  0
   17.9261   -7.2971  -16.1086 C   0  0  2  0  0  0  0  0  0  0  0  0
   17.5486   -8.6648  -15.8533 N   0  0  0  0  0  0  0  0  0  0  0  0
   18.9158   -6.7969  -15.0885 C   0  0  0  0  0  0  0  0  0  0  0  0
   19.1604   -7.5262  -14.1066 O   0  0  0  0  0  0  0  0  0  0  0  0
   19.5298   -5.5622  -15.2465 N   0  0  0  0  0  0  0  0  0  0  0  0
   20.5542   -5.0489  -14.4134 C   0  0  1  0  0  0  0  0  0  0  0  0
   21.6430   -5.9845  -14.0653 C   0  0  0  0  0  0  0  0  0  0  0  0
   22.8364   -5.1544  -12.9866 S   0  0  0  0  0  0  0  0  0  0  0  0
   21.0470   -3.6797  -14.7572 C   0  0  0  0  0  0  0  0  0  0  0  0
   20.9668   -3.0595  -15.9668 O   0  0  0  0  0  0  0  0  0  0  0  0
   21.5918   -3.0501  -13.7927 O   0  0  0  0  0  0  0  0  0  0  0  0
  2  1  1  6
  2  5  1  0
  3  2  1  0
  4  3  1  0
  5  6  2  0
  7  8  1  0
  8  9  2  0
  8 10  1  0
 10 11  1  0
 12 11  1  1
 12 14  1  0
 13 12  1  0
 13  5  1  0
 14 15  2  0
 14 16  1  0
 16 17  1  0
 17 20  1  0
 17 18  1  6
 19 18  1  0
 20 22  2  0
 20 21  1  0
M  END
$$$$
