CQC.pdb
     RDKit          3D

 22 21  0  0  1  0  0  0  0  0999 V2000
   19.5792   -9.0355  -13.8170 N   0  0  0  0  0  0  0  0  0  0  0  0
   19.5724   -8.4887  -12.4951 C   0  0  1  0  0  0  0  0  0  0  0  0
   20.6887   -7.4741  -12.3876 C   0  0  0  0  0  0  0  0  0  0  0  0
   22.2597   -8.3820  -12.4720 S   0  0  0  0  0  0  0  0  0  0  0  0
   18.2677   -7.9366  -12.0920 C   0  0  0  0  0  0  0  0  0  0  0  0
   17.6738   -7.1956  -12.9281 O   0  0  0  0  0  0  0  0  0  0  0  0
   13.9244  -10.7837   -9.0067 N   0  0  0  0  0  0  0  0  0  0  0  0
   13.3565   -9.4941   -9.0891 C   0  0  0  0  0  0  0  0  0  0  0  0
   12.1567   -9.3631   -8.7468 O   0  0  0  0  0  0  0  0  0  0  0  0
   14.1229   -8.3191   -9.5583 C   0  0  0  0  0  0  0  0  0  0  0  0
   15.5217   -8.7364   -9.8684 C   0  0  0  0  0  0  0  0  0  0  0  0
   16.3641   -7.6351  -10.4439 C   0  0  2  0  0  0  0  0  0  0  0  0
   17.6387   -8.1749  -10.8470 N   0  0  0  0  0  0  0  0  0  0  0  0
   16.5278   -6.5090   -9.4562 C   0  0  0  0  0  0  0  0  0  0  0  0
   17.2404   -6.7122   -8.4528 O   0  0  0  0  0  0  0  0  0  0  0  0
   15.9009   -5.2887   -9.6663 N   0  0  0  0  0  0  0  0  0  0  0  0
   15.9832   -4.1705   -8.8004 C   0  0  1  0  0  0  0  0  0  0  0  0
   17.0135   -3.1643   -9.1292 C   0  0  0  0  0  0  0  0  0  0  0  0
   18.6022   -3.9877   -9.4026 S   0  0  0  0  0  0  0  0  0  0  0  0
   14.6779   -3.5616   -8.3988 C   0  0  0  0  0  0  0  0  0  0  0  0
   14.4515   -2.7288   -7.3455 O   0  0  0  0  0  0  0  0  0  0  0  0
   13.6920   -3.8714   -9.1442 O   0  0  0  0  0  0  0  0  0  0  0  0
  2  1  1  6
  2  5  1  0
  3  2  1  0
  4  3  1  0
  5  6  2  0
  7  8  1  0
  8  9  2  0
  8 10  1  0
 10 11  1  0
 12 11  1  1
 12 14  1  0
 13 12  1  0
 13  5  1  0
 14 15  2  0
 14 16  1  0
 16 17  1  0
 17 20  1  0
 17 18  1  6
 19 18  1  0
 20 22  2  0
 20 21  1  0
M  END
$$$$
