CQC.pdb
     RDKit          3D

 22 21  0  0  1  0  0  0  0  0999 V2000
   28.1885  -21.0894  -17.0159 N   0  0  0  0  0  0  0  0  0  0  0  0
   27.7674  -20.2538  -15.9337 C   0  0  1  0  0  0  0  0  0  0  0  0
   27.3510  -18.9125  -16.4945 C   0  0  0  0  0  0  0  0  0  0  0  0
   28.8560  -18.0686  -17.0619 S   0  0  0  0  0  0  0  0  0  0  0  0
   26.7231  -20.8616  -15.0913 C   0  0  0  0  0  0  0  0  0  0  0  0
   25.9017  -21.6360  -15.6626 O   0  0  0  0  0  0  0  0  0  0  0  0
   26.2351  -20.3792   -8.8172 N   0  0  0  0  0  0  0  0  0  0  0  0
   24.9818  -20.9257   -9.1681 C   0  0  0  0  0  0  0  0  0  0  0  0
   24.2162  -21.2723   -8.2368 O   0  0  0  0  0  0  0  0  0  0  0  0
   24.5576  -21.0963  -10.5749 C   0  0  0  0  0  0  0  0  0  0  0  0
   25.6771  -20.6982  -11.4778 C   0  0  0  0  0  0  0  0  0  0  0  0
   25.3999  -20.9587  -12.9301 C   0  0  2  0  0  0  0  0  0  0  0  0
   26.5762  -20.6417  -13.7011 N   0  0  0  0  0  0  0  0  0  0  0  0
   24.2025  -20.1738  -13.3999 C   0  0  0  0  0  0  0  0  0  0  0  0
   24.3380  -18.9445  -13.5622 O   0  0  0  0  0  0  0  0  0  0  0  0
   22.9923  -20.8090  -13.6413 N   0  0  0  0  0  0  0  0  0  0  0  0
   21.8118  -20.1689  -14.0925 C   0  0  1  0  0  0  0  0  0  0  0  0
   21.6467  -20.0597  -15.5563 C   0  0  0  0  0  0  0  0  0  0  0  0
   20.1096  -19.1802  -15.9311 S   0  0  0  0  0  0  0  0  0  0  0  0
   20.5512  -20.5587  -13.3890 C   0  0  0  0  0  0  0  0  0  0  0  0
   19.5052  -19.7468  -13.0712 O   0  0  0  0  0  0  0  0  0  0  0  0
   20.4766  -21.7899  -13.0694 O   0  0  0  0  0  0  0  0  0  0  0  0
  2  1  1  6
  2  5  1  0
  3  2  1  0
  4  3  1  0
  5  6  2  0
  7  8  1  0
  8  9  2  0
  8 10  1  0
 10 11  1  0
 12 11  1  1
 12 14  1  0
 13 12  1  0
 13  5  1  0
 14 15  2  0
 14 16  1  0
 16 17  1  0
 17 20  1  0
 17 18  1  6
 19 18  1  0
 20 22  2  0
 20 21  1  0
M  END
$$$$
