CQC.pdb
     RDKit          3D

 22 21  0  0  1  0  0  0  0  0999 V2000
   15.4828  -13.3883  -14.5681 N   0  0  0  0  0  0  0  0  0  0  0  0
   15.3165  -11.9736  -14.6997 C   0  0  1  0  0  0  0  0  0  0  0  0
   13.8383  -11.6566  -14.6615 C   0  0  0  0  0  0  0  0  0  0  0  0
   13.1711  -11.9694  -16.3217 S   0  0  0  0  0  0  0  0  0  0  0  0
   16.0858  -11.1951  -13.7140 C   0  0  0  0  0  0  0  0  0  0  0  0
   16.0695  -11.6059  -12.5175 O   0  0  0  0  0  0  0  0  0  0  0  0
   20.7352   -7.2338  -15.0123 N   0  0  0  0  0  0  0  0  0  0  0  0
   20.5582   -6.9972  -13.6321 C   0  0  0  0  0  0  0  0  0  0  0  0
   21.3792   -6.2399  -13.0609 O   0  0  0  0  0  0  0  0  0  0  0  0
   19.4537   -7.6060  -12.8589 C   0  0  0  0  0  0  0  0  0  0  0  0
   18.6373   -8.4678  -13.7632 C   0  0  0  0  0  0  0  0  0  0  0  0
   17.5787   -9.2563  -13.0481 C   0  0  2  0  0  0  0  0  0  0  0  0
   16.8346  -10.0312  -14.0095 N   0  0  0  0  0  0  0  0  0  0  0  0
   16.6766   -8.3496  -12.2514 C   0  0  0  0  0  0  0  0  0  0  0  0
   15.7586   -7.7613  -12.8573 O   0  0  0  0  0  0  0  0  0  0  0  0
   16.8703   -8.1819  -10.8873 N   0  0  0  0  0  0  0  0  0  0  0  0
   16.1317   -7.2985  -10.0620 C   0  0  1  0  0  0  0  0  0  0  0  0
   15.9557   -7.7129   -8.6551 C   0  0  0  0  0  0  0  0  0  0  0  0
   14.8566   -6.5483   -7.8111 S   0  0  0  0  0  0  0  0  0  0  0  0
   16.4582   -5.8467  -10.2078 C   0  0  0  0  0  0  0  0  0  0  0  0
   15.5944   -4.8388  -10.5120 O   0  0  0  0  0  0  0  0  0  0  0  0
   17.6832   -5.5527  -10.0171 O   0  0  0  0  0  0  0  0  0  0  0  0
  2  1  1  1
  2  5  1  0
  3  2  1  0
  4  3  1  0
  5  6  2  0
  7  8  1  0
  8  9  2  0
  8 10  1  0
 10 11  1  0
 12 11  1  6
 12 14  1  0
 13 12  1  0
 13  5  1  0
 14 15  2  0
 14 16  1  0
 16 17  1  0
 17 20  1  0
 17 18  1  1
 19 18  1  0
 20 22  2  0
 20 21  1  0
M  END
$$$$
