CQC.pdb
     RDKit          3D

 22 21  0  0  1  0  0  0  0  0999 V2000
   23.8063  -12.4252  -18.0040 N   0  0  0  0  0  0  0  0  0  0  0  0
   23.3054  -12.0462  -16.7187 C   0  0  1  0  0  0  0  0  0  0  0  0
   24.4780  -11.8395  -15.7864 C   0  0  0  0  0  0  0  0  0  0  0  0
   25.2794  -13.4528  -15.5534 S   0  0  0  0  0  0  0  0  0  0  0  0
   22.4035  -10.8823  -16.7571 C   0  0  0  0  0  0  0  0  0  0  0  0
   22.7157   -9.9383  -17.5395 O   0  0  0  0  0  0  0  0  0  0  0  0
   17.8565  -12.4994  -14.8747 N   0  0  0  0  0  0  0  0  0  0  0  0
   17.7429  -12.1867  -16.2465 C   0  0  0  0  0  0  0  0  0  0  0  0
   17.1489  -13.0093  -16.9841 O   0  0  0  0  0  0  0  0  0  0  0  0
   18.2943  -10.9413  -16.8237 C   0  0  0  0  0  0  0  0  0  0  0  0
   18.9190  -10.1306  -15.7377 C   0  0  0  0  0  0  0  0  0  0  0  0
   20.3000   -9.6440  -16.0693 C   0  0  2  0  0  0  0  0  0  0  0  0
   21.2236  -10.7479  -15.9873 N   0  0  0  0  0  0  0  0  0  0  0  0
   20.7066   -8.5139  -15.1592 C   0  0  0  0  0  0  0  0  0  0  0  0
   20.9231   -8.7799  -13.9600 O   0  0  0  0  0  0  0  0  0  0  0  0
   20.8331   -7.2221  -15.6507 N   0  0  0  0  0  0  0  0  0  0  0  0
   21.2110   -6.0921  -14.8844 C   0  0  1  0  0  0  0  0  0  0  0  0
   22.6120   -5.6460  -15.0257 C   0  0  0  0  0  0  0  0  0  0  0  0
   22.9247   -4.2592  -13.9051 S   0  0  0  0  0  0  0  0  0  0  0  0
   20.2349   -4.9594  -14.8713 C   0  0  0  0  0  0  0  0  0  0  0  0
   19.8176   -4.2495  -13.7867 O   0  0  0  0  0  0  0  0  0  0  0  0
   19.7640   -4.6467  -16.0132 O   0  0  0  0  0  0  0  0  0  0  0  0
  2  1  1  6
  2  5  1  0
  3  2  1  0
  4  3  1  0
  5  6  2  0
  7  8  1  0
  8  9  2  0
  8 10  1  0
 10 11  1  0
 12 11  1  1
 12 14  1  0
 13 12  1  0
 13  5  1  0
 14 15  2  0
 14 16  1  0
 16 17  1  0
 17 20  1  0
 17 18  1  6
 19 18  1  0
 20 22  2  0
 20 21  1  0
M  END
$$$$
