CQC.pdb
     RDKit          3D

 22 21  0  0  1  0  0  0  0  0999 V2000
   19.9514  -12.6766  -15.7415 N   0  0  0  0  0  0  0  0  0  0  0  0
   19.5609  -11.6602  -16.6694 C   0  0  1  0  0  0  0  0  0  0  0  0
   18.0522  -11.5558  -16.6628 C   0  0  0  0  0  0  0  0  0  0  0  0
   17.4015  -13.0178  -17.5222 S   0  0  0  0  0  0  0  0  0  0  0  0
   20.2170  -10.3627  -16.4335 C   0  0  0  0  0  0  0  0  0  0  0  0
   19.9863   -9.7944  -15.3268 O   0  0  0  0  0  0  0  0  0  0  0  0
   25.6498   -8.6310  -18.7662 N   0  0  0  0  0  0  0  0  0  0  0  0
   25.2893   -7.4745  -18.0417 C   0  0  0  0  0  0  0  0  0  0  0  0
   26.1420   -6.5597  -17.9428 O   0  0  0  0  0  0  0  0  0  0  0  0
   23.9610   -7.3172  -17.4100 C   0  0  0  0  0  0  0  0  0  0  0  0
   23.1363   -8.5288  -17.6909 C   0  0  0  0  0  0  0  0  0  0  0  0
   21.7530   -8.4621  -17.1115 C   0  0  2  0  0  0  0  0  0  0  0  0
   21.0789   -9.7141  -17.3495 N   0  0  0  0  0  0  0  0  0  0  0  0
   20.9829   -7.3014  -17.6860 C   0  0  0  0  0  0  0  0  0  0  0  0
   20.4890   -7.4349  -18.8235 O   0  0  0  0  0  0  0  0  0  0  0  0
   20.8344   -6.1257  -16.9634 N   0  0  0  0  0  0  0  0  0  0  0  0
   20.0834   -5.0003  -17.3836 C   0  0  1  0  0  0  0  0  0  0  0  0
   18.6458   -5.2307  -17.6331 C   0  0  0  0  0  0  0  0  0  0  0  0
   17.8287   -3.6534  -17.9815 S   0  0  0  0  0  0  0  0  0  0  0  0
   20.3527   -3.7271  -16.6473 C   0  0  0  0  0  0  0  0  0  0  0  0
   19.9452   -2.4758  -16.9974 O   0  0  0  0  0  0  0  0  0  0  0  0
   21.0359   -3.8613  -15.5802 O   0  0  0  0  0  0  0  0  0  0  0  0
  2  1  1  1
  2  5  1  0
  3  2  1  0
  4  3  1  0
  5  6  2  0
  7  8  1  0
  8  9  2  0
  8 10  1  0
 10 11  1  0
 12 11  1  6
 12 14  1  0
 13 12  1  0
 13  5  1  0
 14 15  2  0
 14 16  1  0
 16 17  1  0
 17 20  1  0
 17 18  1  1
 19 18  1  0
 20 22  2  0
 20 21  1  0
M  END
$$$$
