CQC.pdb
     RDKit          3D

 22 21  0  0  1  0  0  0  0  0999 V2000
   16.6704  -13.3820    3.8525 N   0  0  0  0  0  0  0  0  0  0  0  0
   16.8454  -12.6828    5.0882 C   0  0  1  0  0  0  0  0  0  0  0  0
   15.7058  -13.0467    6.0133 C   0  0  0  0  0  0  0  0  0  0  0  0
   14.1817  -12.3718    5.2913 S   0  0  0  0  0  0  0  0  0  0  0  0
   18.1647  -12.8992    5.7064 C   0  0  0  0  0  0  0  0  0  0  0  0
   18.7193  -14.0177    5.5015 O   0  0  0  0  0  0  0  0  0  0  0  0
   21.8461   -8.3486    7.9341 N   0  0  0  0  0  0  0  0  0  0  0  0
   22.6327   -9.4933    8.1856 C   0  0  0  0  0  0  0  0  0  0  0  0
   23.7943   -9.3168    8.6251 O   0  0  0  0  0  0  0  0  0  0  0  0
   22.1332  -10.8655    7.9494 C   0  0  0  0  0  0  0  0  0  0  0  0
   20.7326  -10.7979    7.4391 C   0  0  0  0  0  0  0  0  0  0  0  0
   20.1613  -12.1367    7.0715 C   0  0  2  0  0  0  0  0  0  0  0  0
   18.8482  -11.9523    6.5057 N   0  0  0  0  0  0  0  0  0  0  0  0
   20.1249  -13.0541    8.2663 C   0  0  0  0  0  0  0  0  0  0  0  0
   19.0228  -13.2532    8.8154 O   0  0  0  0  0  0  0  0  0  0  0  0
   21.2870  -13.6530    8.7323 N   0  0  0  0  0  0  0  0  0  0  0  0
   21.3427  -14.8679    9.4590 C   0  0  1  0  0  0  0  0  0  0  0  0
   20.6339  -16.0186    8.8627 C   0  0  0  0  0  0  0  0  0  0  0  0
   20.5844  -17.3840   10.0501 S   0  0  0  0  0  0  0  0  0  0  0  0
   22.6815  -15.2308   10.0172 C   0  0  0  0  0  0  0  0  0  0  0  0
   22.9748  -16.2910   10.8199 O   0  0  0  0  0  0  0  0  0  0  0  0
   23.6294  -14.4468    9.6849 O   0  0  0  0  0  0  0  0  0  0  0  0
  2  1  1  6
  2  5  1  0
  3  2  1  0
  4  3  1  0
  5  6  2  0
  7  8  1  0
  8  9  2  0
  8 10  1  0
 10 11  1  0
 12 11  1  1
 12 14  1  0
 13 12  1  0
 13  5  1  0
 14 15  2  0
 14 16  1  0
 16 17  1  0
 17 20  1  0
 17 18  1  6
 19 18  1  0
 20 22  2  0
 20 21  1  0
M  END
$$$$
