CQC.pdb
     RDKit          3D

 22 21  0  0  1  0  0  0  0  0999 V2000
   13.7172  -10.9856  -10.6861 N   0  0  0  0  0  0  0  0  0  0  0  0
   15.1070  -10.7441  -10.4477 C   0  0  1  0  0  0  0  0  0  0  0  0
   15.9060  -11.8586  -11.0851 C   0  0  0  0  0  0  0  0  0  0  0  0
   15.6479  -13.3537  -10.0863 S   0  0  0  0  0  0  0  0  0  0  0  0
   15.5562   -9.4096  -10.8800 C   0  0  0  0  0  0  0  0  0  0  0  0
   15.1840   -9.0205  -12.0249 O   0  0  0  0  0  0  0  0  0  0  0  0
   15.4713   -5.5339   -7.0112 N   0  0  0  0  0  0  0  0  0  0  0  0
   14.5908   -5.4912   -8.1136 C   0  0  0  0  0  0  0  0  0  0  0  0
   13.3990   -5.1663   -7.8950 O   0  0  0  0  0  0  0  0  0  0  0  0
   15.0278   -5.8128   -9.4897 C   0  0  0  0  0  0  0  0  0  0  0  0
   16.4596   -6.2327   -9.4654 C   0  0  0  0  0  0  0  0  0  0  0  0
   16.8107   -7.2340  -10.5275 C   0  0  2  0  0  0  0  0  0  0  0  0
   16.3672   -8.5411  -10.1114 N   0  0  0  0  0  0  0  0  0  0  0  0
   18.2894   -7.2177  -10.8165 C   0  0  0  0  0  0  0  0  0  0  0  0
   18.9968   -8.0984  -10.2877 O   0  0  0  0  0  0  0  0  0  0  0  0
   18.8361   -6.2486  -11.6463 N   0  0  0  0  0  0  0  0  0  0  0  0
   20.1630   -6.2550  -12.1426 C   0  0  1  0  0  0  0  0  0  0  0  0
   20.7008   -7.5684  -12.5520 C   0  0  0  0  0  0  0  0  0  0  0  0
   22.4338   -7.3896  -13.0434 S   0  0  0  0  0  0  0  0  0  0  0  0
   20.5041   -5.1587  -13.1005 C   0  0  0  0  0  0  0  0  0  0  0  0
   21.6609   -4.4418  -13.1475 O   0  0  0  0  0  0  0  0  0  0  0  0
   19.5962   -4.8933  -13.9542 O   0  0  0  0  0  0  0  0  0  0  0  0
  2  1  1  6
  2  5  1  0
  3  2  1  0
  4  3  1  0
  5  6  2  0
  7  8  1  0
  8  9  2  0
  8 10  1  0
 10 11  1  0
 12 11  1  1
 12 14  1  0
 13 12  1  0
 13  5  1  0
 14 15  2  0
 14 16  1  0
 16 17  1  0
 17 20  1  0
 17 18  1  6
 19 18  1  0
 20 22  2  0
 20 21  1  0
M  END
$$$$
