CQC.pdb
     RDKit          3D

 22 21  0  0  1  0  0  0  0  0999 V2000
   28.3899  -21.3795  -16.6940 N   0  0  0  0  0  0  0  0  0  0  0  0
   27.9843  -22.1334  -17.8402 C   0  0  1  0  0  0  0  0  0  0  0  0
   28.3245  -21.3415  -19.0828 C   0  0  0  0  0  0  0  0  0  0  0  0
   27.5684  -19.6995  -18.9061 S   0  0  0  0  0  0  0  0  0  0  0  0
   28.5356  -23.4989  -17.8731 C   0  0  0  0  0  0  0  0  0  0  0  0
   28.8691  -23.9573  -19.0042 O   0  0  0  0  0  0  0  0  0  0  0  0
   32.6002  -27.4127  -15.8312 N   0  0  0  0  0  0  0  0  0  0  0  0
   32.7798  -26.1174  -16.3626 C   0  0  0  0  0  0  0  0  0  0  0  0
   33.9189  -25.8177  -16.7941 O   0  0  0  0  0  0  0  0  0  0  0  0
   31.6833  -25.1263  -16.4223 C   0  0  0  0  0  0  0  0  0  0  0  0
   30.4456  -25.7270  -15.8442 C   0  0  0  0  0  0  0  0  0  0  0  0
   29.2596  -25.6606  -16.7623 C   0  0  2  0  0  0  0  0  0  0  0  0
   28.7164  -24.3254  -16.7387 N   0  0  0  0  0  0  0  0  0  0  0  0
   28.2238  -26.6860  -16.3803 C   0  0  0  0  0  0  0  0  0  0  0  0
   27.3705  -26.3641  -15.5293 O   0  0  0  0  0  0  0  0  0  0  0  0
   28.2284  -27.9456  -16.9633 N   0  0  0  0  0  0  0  0  0  0  0  0
   27.1356  -28.8471  -16.9643 C   0  0  1  0  0  0  0  0  0  0  0  0
   25.7999  -28.2539  -17.1784 C   0  0  0  0  0  0  0  0  0  0  0  0
   24.5247  -29.5040  -16.8818 S   0  0  0  0  0  0  0  0  0  0  0  0
   27.3409  -30.1169  -17.7267 C   0  0  0  0  0  0  0  0  0  0  0  0
   26.6203  -31.2668  -17.6131 O   0  0  0  0  0  0  0  0  0  0  0  0
   28.2978  -30.0866  -18.5674 O   0  0  0  0  0  0  0  0  0  0  0  0
  2  1  1  1
  2  5  1  0
  3  2  1  0
  4  3  1  0
  5  6  2  0
  7  8  1  0
  8  9  2  0
  8 10  1  0
 10 11  1  0
 12 11  1  1
 12 14  1  0
 13 12  1  0
 13  5  1  0
 14 15  2  0
 14 16  1  0
 16 17  1  0
 17 20  1  0
 17 18  1  6
 19 18  1  0
 20 22  2  0
 20 21  1  0
M  END
$$$$
