CQC.pdb
     RDKit          3D

 22 21  0  0  1  0  0  0  0  0999 V2000
   15.1286  -11.1643  -14.3613 N   0  0  0  0  0  0  0  0  0  0  0  0
   16.2762  -10.9347  -13.5387 C   0  0  1  0  0  0  0  0  0  0  0  0
   17.4722  -11.5978  -14.1844 C   0  0  0  0  0  0  0  0  0  0  0  0
   17.3144  -13.3871  -13.9145 S   0  0  0  0  0  0  0  0  0  0  0  0
   16.5130   -9.5117  -13.2407 C   0  0  0  0  0  0  0  0  0  0  0  0
   16.4077   -8.6973  -14.2032 O   0  0  0  0  0  0  0  0  0  0  0  0
   15.5511   -7.1352   -7.7297 N   0  0  0  0  0  0  0  0  0  0  0  0
   14.6421   -7.0016   -8.8013 C   0  0  0  0  0  0  0  0  0  0  0  0
   13.4343   -6.8123   -8.5203 O   0  0  0  0  0  0  0  0  0  0  0  0
   15.0680   -7.0775  -10.2159 C   0  0  0  0  0  0  0  0  0  0  0  0
   16.5386   -7.3243  -10.2740 C   0  0  0  0  0  0  0  0  0  0  0  0
   17.0472   -7.6030  -11.6587 C   0  0  2  0  0  0  0  0  0  0  0  0
   16.8467   -8.9974  -11.9652 N   0  0  0  0  0  0  0  0  0  0  0  0
   18.4960   -7.2106  -11.7904 C   0  0  0  0  0  0  0  0  0  0  0  0
   19.3548   -7.9848  -11.3224 O   0  0  0  0  0  0  0  0  0  0  0  0
   18.8521   -6.0231  -12.4144 N   0  0  0  0  0  0  0  0  0  0  0  0
   20.1803   -5.6101  -12.6831 C   0  0  1  0  0  0  0  0  0  0  0  0
   21.1141   -6.6639  -13.1298 C   0  0  0  0  0  0  0  0  0  0  0  0
   22.7625   -5.9548  -13.3677 S   0  0  0  0  0  0  0  0  0  0  0  0
   20.3220   -4.3373  -13.4549 C   0  0  0  0  0  0  0  0  0  0  0  0
   19.3477   -3.6874  -14.1498 O   0  0  0  0  0  0  0  0  0  0  0  0
   21.4904   -3.8295  -13.4382 O   0  0  0  0  0  0  0  0  0  0  0  0
  2  1  1  6
  2  5  1  0
  3  2  1  0
  4  3  1  0
  5  6  2  0
  7  8  1  0
  8  9  2  0
  8 10  1  0
 10 11  1  0
 12 11  1  1
 12 14  1  0
 13 12  1  0
 13  5  1  0
 14 15  2  0
 14 16  1  0
 16 17  1  0
 17 20  1  0
 17 18  1  6
 19 18  1  0
 20 22  2  0
 20 21  1  0
M  END
$$$$
