IQS.pdb
     RDKit          3D

 24 23  0  0  1  0  0  0  0  0999 V2000
    6.7776  -12.0027   19.5448 C   0  0  0  0  0  0  0  0  0  0  0  0
    7.6630  -13.1113   19.0689 C   0  0  0  0  0  0  0  0  0  0  0  0
    8.0757  -14.0866   20.1004 C   0  0  2  0  0  0  0  0  0  0  0  0
    8.7115  -13.3234   21.2494 C   0  0  0  0  0  0  0  0  0  0  0  0
    8.9127  -15.2156   19.6213 C   0  0  2  0  0  0  0  0  0  0  0  0
    8.1779  -15.9678   18.6008 N   0  0  0  0  0  0  0  0  0  0  0  0
    9.3298  -16.1521   20.6594 C   0  0  0  0  0  0  0  0  0  0  0  0
    8.5316  -17.0230   21.0792 O   0  0  0  0  0  0  0  0  0  0  0  0
   14.1254  -19.4876   21.6668 N   0  0  0  0  0  0  0  0  0  0  0  0
   13.3358  -19.3019   22.8325 C   0  0  0  0  0  0  0  0  0  0  0  0
   12.8245  -20.3131   23.3645 O   0  0  0  0  0  0  0  0  0  0  0  0
   13.1220  -17.9206   23.4100 C   0  0  0  0  0  0  0  0  0  0  0  0
   12.4969  -17.1098   22.3399 C   0  0  0  0  0  0  0  0  0  0  0  0
   11.0079  -17.0055   22.3351 C   0  0  2  0  0  0  0  0  0  0  0  0
   10.6282  -16.1070   21.2159 N   0  0  0  0  0  0  0  0  0  0  0  0
   10.3841  -16.5547   23.5779 C   0  0  0  0  0  0  0  0  0  0  0  0
   10.6644  -15.3917   24.0549 O   0  0  0  0  0  0  0  0  0  0  0  0
    6.9583  -17.8322   25.0012 O   0  0  0  0  0  0  0  0  0  0  0  0
    7.4546  -16.6811   25.6232 C   0  0  0  0  0  0  0  0  0  0  0  0
    8.9658  -16.8075   25.6257 C   0  0  2  0  0  0  0  0  0  0  0  0
    9.4568  -17.2921   24.3496 N   0  0  0  0  0  0  0  0  0  0  0  0
    9.3011  -17.7928   26.6774 C   0  0  0  0  0  0  0  0  0  0  0  0
   10.1559  -18.8562   26.4533 O   0  0  0  0  0  0  0  0  0  0  0  0
    8.8042  -17.6853   27.8311 O   0  0  0  0  0  0  0  0  0  0  0  0
  1  2  1  0
  3  2  1  0
  3  4  1  1
  5  3  1  0
  5  6  1  6
  7  5  1  0
  7  8  2  0
  9 10  1  0
 10 12  1  0
 11 10  2  0
 12 13  1  0
 14 15  1  0
 14 13  1  1
 15  7  1  0
 16 14  1  0
 17 16  2  0
 18 19  1  0
 20 19  1  6
 20 21  1  0
 21 16  1  0
 22 23  1  0
 22 20  1  0
 24 22  2  0
M  END
$$$$
