IQS.pdb
     RDKit          3D

 24 23  0  0  1  0  0  0  0  0999 V2000
    6.4622  -10.9965   27.6077 C   0  0  0  0  0  0  0  0  0  0  0  0
    5.8639  -12.2027   26.9544 C   0  0  0  0  0  0  0  0  0  0  0  0
    6.7927  -13.0146   26.1399 C   0  0  2  0  0  0  0  0  0  0  0  0
    7.4864  -12.0946   25.1502 C   0  0  0  0  0  0  0  0  0  0  0  0
    6.2040  -14.2173   25.4983 C   0  0  2  0  0  0  0  0  0  0  0  0
    5.7362  -15.1421   26.5342 N   0  0  0  0  0  0  0  0  0  0  0  0
    7.1099  -14.9468   24.6176 C   0  0  0  0  0  0  0  0  0  0  0  0
    7.7956  -15.8959   25.0661 O   0  0  0  0  0  0  0  0  0  0  0  0
    6.7731  -17.2194   20.0948 N   0  0  0  0  0  0  0  0  0  0  0  0
    7.9801  -16.8124   19.4670 C   0  0  0  0  0  0  0  0  0  0  0  0
    8.4568  -17.5490   18.5741 O   0  0  0  0  0  0  0  0  0  0  0  0
    8.6656  -15.5256   19.8692 C   0  0  0  0  0  0  0  0  0  0  0  0
    7.8454  -14.9329   20.9506 C   0  0  0  0  0  0  0  0  0  0  0  0
    8.0500  -15.4534   22.3346 C   0  0  2  0  0  0  0  0  0  0  0  0
    7.2407  -14.6111   23.2510 N   0  0  0  0  0  0  0  0  0  0  0  0
    9.4325  -15.5252   22.8041 C   0  0  0  0  0  0  0  0  0  0  0  0
   10.0695  -14.4459   23.1006 O   0  0  0  0  0  0  0  0  0  0  0  0
   10.9790  -18.7698   24.3376 O   0  0  0  0  0  0  0  0  0  0  0  0
   11.7628  -17.6419   24.6055 C   0  0  0  0  0  0  0  0  0  0  0  0
   11.5560  -16.6856   23.4468 C   0  0  2  0  0  0  0  0  0  0  0  0
   10.1825  -16.7107   22.9807 N   0  0  0  0  0  0  0  0  0  0  0  0
   12.4436  -17.1502   22.3579 C   0  0  0  0  0  0  0  0  0  0  0  0
   13.8213  -17.1578   22.4752 O   0  0  0  0  0  0  0  0  0  0  0  0
   11.9550  -17.5602   21.2704 O   0  0  0  0  0  0  0  0  0  0  0  0
  1  2  1  0
  3  2  1  0
  3  4  1  6
  5  3  1  0
  5  6  1  1
  7  5  1  0
  7  8  2  0
  9 10  1  0
 10 12  1  0
 11 10  2  0
 12 13  1  0
 14 15  1  0
 14 13  1  6
 15  7  1  0
 16 14  1  0
 17 16  2  0
 18 19  1  0
 20 19  1  1
 20 21  1  0
 21 16  1  0
 22 23  1  0
 22 20  1  0
 24 22  2  0
M  END
$$$$
