IQS.pdb
     RDKit          3D

 24 23  0  0  1  0  0  0  0  0999 V2000
    6.4085  -12.1381   19.3380 C   0  0  0  0  0  0  0  0  0  0  0  0
    7.3421  -12.7524   18.3428 C   0  0  0  0  0  0  0  0  0  0  0  0
    8.5198  -13.4409   18.9123 C   0  0  2  0  0  0  0  0  0  0  0  0
    9.2347  -12.4729   19.8391 C   0  0  0  0  0  0  0  0  0  0  0  0
    9.4300  -14.0806   17.9289 C   0  0  2  0  0  0  0  0  0  0  0  0
    8.6645  -15.0008   17.0836 N   0  0  0  0  0  0  0  0  0  0  0  0
   10.5401  -14.8238   18.5153 C   0  0  0  0  0  0  0  0  0  0  0  0
   10.4012  -16.0345   18.8100 O   0  0  0  0  0  0  0  0  0  0  0  0
   16.9477  -16.0666   17.6098 N   0  0  0  0  0  0  0  0  0  0  0  0
   16.4473  -14.8457   18.1347 C   0  0  0  0  0  0  0  0  0  0  0  0
   16.8334  -13.7769   17.6096 O   0  0  0  0  0  0  0  0  0  0  0  0
   15.4764  -14.8424   19.2943 C   0  0  0  0  0  0  0  0  0  0  0  0
   14.1845  -14.3544   18.7592 C   0  0  0  0  0  0  0  0  0  0  0  0
   12.9396  -15.0046   19.2649 C   0  0  2  0  0  0  0  0  0  0  0  0
   11.7886  -14.2107   18.7658 N   0  0  0  0  0  0  0  0  0  0  0  0
   12.8408  -15.1813   20.7126 C   0  0  0  0  0  0  0  0  0  0  0  0
   12.9110  -14.1592   21.4931 O   0  0  0  0  0  0  0  0  0  0  0  0
   10.5974  -17.6017   22.4369 O   0  0  0  0  0  0  0  0  0  0  0  0
   11.7062  -17.6169   23.2904 C   0  0  0  0  0  0  0  0  0  0  0  0
   12.6226  -16.4998   22.8299 C   0  0  2  0  0  0  0  0  0  0  0  0
   12.6634  -16.4138   21.3823 N   0  0  0  0  0  0  0  0  0  0  0  0
   13.9738  -16.8338   23.3318 C   0  0  0  0  0  0  0  0  0  0  0  0
   14.2641  -16.9218   24.6807 O   0  0  0  0  0  0  0  0  0  0  0  0
   14.9165  -17.0517   22.5234 O   0  0  0  0  0  0  0  0  0  0  0  0
  1  2  1  0
  3  2  1  0
  3  4  1  6
  5  3  1  0
  5  6  1  1
  7  5  1  0
  7  8  2  0
  9 10  1  0
 10 12  1  0
 11 10  2  0
 12 13  1  0
 14 15  1  0
 14 13  1  1
 15  7  1  0
 16 14  1  0
 17 16  2  0
 18 19  1  0
 20 19  1  6
 20 21  1  0
 21 16  1  0
 22 23  1  0
 22 20  1  0
 24 22  2  0
M  END
$$$$
