IQS.pdb
     RDKit          3D

 24 23  0  0  1  0  0  0  0  0999 V2000
    7.3919  -11.7560   19.2237 C   0  0  0  0  0  0  0  0  0  0  0  0
    8.0101  -12.8599   18.4246 C   0  0  0  0  0  0  0  0  0  0  0  0
    8.7984  -13.8434   19.1969 C   0  0  2  0  0  0  0  0  0  0  0  0
    9.8905  -13.0968   19.9434 C   0  0  0  0  0  0  0  0  0  0  0  0
    9.3125  -15.0043   18.4271 C   0  0  2  0  0  0  0  0  0  0  0  0
    8.1938  -15.6901   17.7750 N   0  0  0  0  0  0  0  0  0  0  0  0
   10.0455  -15.9872   19.2177 C   0  0  0  0  0  0  0  0  0  0  0  0
    9.4248  -16.8138   19.9272 O   0  0  0  0  0  0  0  0  0  0  0  0
   15.6891  -17.6519   17.8452 N   0  0  0  0  0  0  0  0  0  0  0  0
   15.7050  -18.2214   19.1460 C   0  0  0  0  0  0  0  0  0  0  0  0
   16.7524  -18.7920   19.5261 O   0  0  0  0  0  0  0  0  0  0  0  0
   14.4893  -18.1382   20.0418 C   0  0  0  0  0  0  0  0  0  0  0  0
   13.5112  -17.2728   19.3435 C   0  0  0  0  0  0  0  0  0  0  0  0
   12.1883  -17.0583   20.0010 C   0  0  2  0  0  0  0  0  0  0  0  0
   11.4580  -16.0371   19.2086 N   0  0  0  0  0  0  0  0  0  0  0  0
   12.2183  -16.6760   21.4115 C   0  0  0  0  0  0  0  0  0  0  0  0
   12.6439  -15.5098   21.7545 O   0  0  0  0  0  0  0  0  0  0  0  0
    9.8194  -18.1407   24.1047 O   0  0  0  0  0  0  0  0  0  0  0  0
   10.4710  -16.9606   24.4805 C   0  0  0  0  0  0  0  0  0  0  0  0
   11.8561  -17.0161   23.8655 C   0  0  2  0  0  0  0  0  0  0  0  0
   11.8061  -17.4866   22.4942 N   0  0  0  0  0  0  0  0  0  0  0  0
   12.6356  -17.9767   24.6772 C   0  0  0  0  0  0  0  0  0  0  0  0
   12.9624  -17.7382   25.9993 O   0  0  0  0  0  0  0  0  0  0  0  0
   13.0308  -19.0622   24.1720 O   0  0  0  0  0  0  0  0  0  0  0  0
  1  2  1  0
  3  2  1  0
  3  4  1  6
  5  3  1  0
  5  6  1  1
  7  5  1  0
  7  8  2  0
  9 10  1  0
 10 12  1  0
 11 10  2  0
 12 13  1  0
 14 15  1  0
 14 13  1  6
 15  7  1  0
 16 14  1  0
 17 16  2  0
 18 19  1  0
 20 19  1  1
 20 21  1  0
 21 16  1  0
 22 23  1  0
 22 20  1  0
 24 22  2  0
M  END
$$$$
