IQS.pdb
     RDKit          3D

 24 23  0  0  1  0  0  0  0  0999 V2000
    7.2425  -11.9505   20.0192 C   0  0  0  0  0  0  0  0  0  0  0  0
    7.6814  -13.0994   19.1666 C   0  0  0  0  0  0  0  0  0  0  0  0
    8.3611  -14.2012   19.8801 C   0  0  2  0  0  0  0  0  0  0  0  0
    9.4933  -13.6091   20.7015 C   0  0  0  0  0  0  0  0  0  0  0  0
    8.7933  -15.3447   19.0373 C   0  0  2  0  0  0  0  0  0  0  0  0
    7.6353  -15.8876   18.3221 N   0  0  0  0  0  0  0  0  0  0  0  0
    9.4265  -16.4380   19.7668 C   0  0  0  0  0  0  0  0  0  0  0  0
    8.7263  -17.3494   20.2678 O   0  0  0  0  0  0  0  0  0  0  0  0
   14.9296  -18.3450   18.4533 N   0  0  0  0  0  0  0  0  0  0  0  0
   14.8268  -19.1026   19.6500 C   0  0  0  0  0  0  0  0  0  0  0  0
   15.8002  -19.8172   19.9800 O   0  0  0  0  0  0  0  0  0  0  0  0
   13.5755  -19.0441   20.4974 C   0  0  0  0  0  0  0  0  0  0  0  0
   12.7642  -17.9220   19.9720 C   0  0  0  0  0  0  0  0  0  0  0  0
   11.4607  -17.6409   20.6429 C   0  0  2  0  0  0  0  0  0  0  0  0
   10.8291  -16.5028   19.9289 N   0  0  0  0  0  0  0  0  0  0  0  0
   11.5139  -17.3692   22.0782 C   0  0  0  0  0  0  0  0  0  0  0  0
   12.0105  -16.2607   22.5065 O   0  0  0  0  0  0  0  0  0  0  0  0
    9.4723  -19.4767   24.7316 O   0  0  0  0  0  0  0  0  0  0  0  0
    9.9308  -18.2720   25.2765 C   0  0  0  0  0  0  0  0  0  0  0  0
   11.1795  -17.8946   24.5033 C   0  0  2  0  0  0  0  0  0  0  0  0
   11.0526  -18.2326   23.0983 N   0  0  0  0  0  0  0  0  0  0  0  0
   12.2879  -18.6796   25.0903 C   0  0  0  0  0  0  0  0  0  0  0  0
   12.7349  -18.4811   26.3836 O   0  0  0  0  0  0  0  0  0  0  0  0
   12.8662  -19.5699   24.4103 O   0  0  0  0  0  0  0  0  0  0  0  0
  1  2  1  0
  3  2  1  0
  3  4  1  6
  5  3  1  0
  5  6  1  1
  7  5  1  0
  7  8  2  0
  9 10  1  0
 10 12  1  0
 11 10  2  0
 12 13  1  0
 14 15  1  0
 14 13  1  6
 15  7  1  0
 16 14  1  0
 17 16  2  0
 18 19  1  0
 20 19  1  1
 20 21  1  0
 21 16  1  0
 22 23  1  0
 22 20  1  0
 24 22  2  0
M  END
$$$$
