IQS.pdb
     RDKit          3D

 24 23  0  0  1  0  0  0  0  0999 V2000
    6.8135  -12.3524   20.0386 C   0  0  0  0  0  0  0  0  0  0  0  0
    7.6267  -13.0407   18.9877 C   0  0  0  0  0  0  0  0  0  0  0  0
    8.7961  -13.7993   19.4799 C   0  0  2  0  0  0  0  0  0  0  0  0
    9.6772  -12.8518   20.2755 C   0  0  0  0  0  0  0  0  0  0  0  0
    9.5473  -14.5635   18.4521 C   0  0  2  0  0  0  0  0  0  0  0  0
    8.6120  -15.3743   17.6679 N   0  0  0  0  0  0  0  0  0  0  0  0
   10.5793  -15.4492   18.9804 C   0  0  0  0  0  0  0  0  0  0  0  0
   10.2638  -16.5524   19.4857 O   0  0  0  0  0  0  0  0  0  0  0  0
   15.4025  -14.3205   16.9712 N   0  0  0  0  0  0  0  0  0  0  0  0
   14.8211  -15.5103   16.4585 C   0  0  0  0  0  0  0  0  0  0  0  0
   14.9324  -15.7393   15.2329 O   0  0  0  0  0  0  0  0  0  0  0  0
   14.0897  -16.4694   17.3710 C   0  0  0  0  0  0  0  0  0  0  0  0
   14.1956  -15.9114   18.7388 C   0  0  0  0  0  0  0  0  0  0  0  0
   12.9726  -15.9469   19.5940 C   0  0  2  0  0  0  0  0  0  0  0  0
   11.9472  -15.0959   18.9395 N   0  0  0  0  0  0  0  0  0  0  0  0
   13.1439  -15.5476   20.9896 C   0  0  0  0  0  0  0  0  0  0  0  0
   12.9179  -14.3303   21.3442 O   0  0  0  0  0  0  0  0  0  0  0  0
   10.8005  -16.6835   24.4116 O   0  0  0  0  0  0  0  0  0  0  0  0
   11.3782  -16.7280   23.1377 C   0  0  0  0  0  0  0  0  0  0  0  0
   12.8514  -16.4173   23.3192 C   0  0  2  0  0  0  0  0  0  0  0  0
   13.5469  -16.3962   22.0463 N   0  0  0  0  0  0  0  0  0  0  0  0
   13.4079  -17.5040   24.1552 C   0  0  0  0  0  0  0  0  0  0  0  0
   13.5960  -17.3700   25.5184 O   0  0  0  0  0  0  0  0  0  0  0  0
   13.7322  -18.6050   23.6335 O   0  0  0  0  0  0  0  0  0  0  0  0
  1  2  1  0
  3  2  1  0
  3  4  1  6
  5  3  1  0
  5  6  1  1
  7  5  1  0
  7  8  2  0
  9 10  1  0
 10 12  1  0
 11 10  2  0
 12 13  1  0
 14 15  1  0
 14 13  1  6
 15  7  1  0
 16 14  1  0
 17 16  2  0
 18 19  1  0
 20 19  1  6
 20 21  1  0
 21 16  1  0
 22 23  1  0
 22 20  1  0
 24 22  2  0
M  END
$$$$
