KVG.pdb
     RDKit          3D

 21 20  0  0  1  0  0  0  0  0999 V2000
    7.0877  -15.6902   22.1952 N   0  0  0  0  0  0  0  0  0  0  0  0
    8.1976  -14.7896   22.1139 C   0  0  1  0  0  0  0  0  0  0  0  0
    8.0969  -13.8334   20.9682 C   0  0  0  0  0  0  0  0  0  0  0  0
    7.9366  -14.4499   19.6295 C   0  0  0  0  0  0  0  0  0  0  0  0
    7.9021  -13.5210   18.4719 C   0  0  0  0  0  0  0  0  0  0  0  0
    7.8013  -14.2148   17.1368 C   0  0  0  0  0  0  0  0  0  0  0  0
    7.7448  -13.1883   16.1120 N   0  0  0  0  0  0  0  0  0  0  0  0
    8.4919  -14.1187   23.4019 C   0  0  0  0  0  0  0  0  0  0  0  0
    9.4977  -13.3429   23.4930 O   0  0  0  0  0  0  0  0  0  0  0  0
    6.8969  -12.3599   27.7512 C   0  0  0  0  0  0  0  0  0  0  0  0
    6.6744  -13.0379   26.4289 C   0  0  1  0  0  0  0  0  0  0  0  0
    5.8360  -12.1986   25.5110 C   0  0  0  0  0  0  0  0  0  0  0  0
    7.9846  -13.4543   25.7794 C   0  0  2  0  0  0  0  0  0  0  0  0
    7.7296  -14.2649   24.5877 N   0  0  0  0  0  0  0  0  0  0  0  0
    8.7321  -14.3118   26.7361 C   0  0  0  0  0  0  0  0  0  0  0  0
    8.9864  -13.8921   27.8983 O   0  0  0  0  0  0  0  0  0  0  0  0
    9.1865  -15.6156   26.3971 N   0  0  0  0  0  0  0  0  0  0  0  0
    9.9210  -16.4607   27.2927 C   0  0  0  0  0  0  0  0  0  0  0  0
   10.2648  -17.7214   26.5907 C   0  0  0  0  0  0  0  0  0  0  0  0
   10.8185  -18.8133   27.2694 O   0  0  0  0  0  0  0  0  0  0  0  0
   10.0490  -17.7983   25.3570 O   0  0  0  0  0  0  0  0  0  0  0  0
  2  1  1  1
  3  4  1  0
  3  2  1  0
  5  4  1  0
  6  5  1  0
  7  6  1  0
  8  2  1  0
  9  8  2  0
 11 10  1  1
 11 13  1  0
 12 11  1  0
 13 15  1  0
 13 14  1  6
 14  8  1  0
 15 17  1  0
 16 15  2  0
 17 18  1  0
 19 18  1  0
 19 20  1  0
 21 19  2  0
M  END
$$$$
