KVG.pdb
     RDKit          3D

 21 20  0  0  1  0  0  0  0  0999 V2000
    7.6753  -17.4659   16.5846 N   0  0  0  0  0  0  0  0  0  0  0  0
    7.3456  -17.3640   17.9741 C   0  0  1  0  0  0  0  0  0  0  0  0
    7.1827  -18.6937   18.6392 C   0  0  0  0  0  0  0  0  0  0  0  0
    6.7146  -19.7959   17.7653 C   0  0  0  0  0  0  0  0  0  0  0  0
    6.4447  -21.0972   18.4268 C   0  0  0  0  0  0  0  0  0  0  0  0
    5.9792  -22.1762   17.4817 C   0  0  0  0  0  0  0  0  0  0  0  0
    5.7753  -23.3840   18.2607 N   0  0  0  0  0  0  0  0  0  0  0  0
    8.2490  -16.4537   18.7162 C   0  0  0  0  0  0  0  0  0  0  0  0
    9.4950  -16.4495   18.4524 O   0  0  0  0  0  0  0  0  0  0  0  0
    7.7048  -12.5837   19.8379 C   0  0  0  0  0  0  0  0  0  0  0  0
    8.1442  -13.4621   20.9751 C   0  0  1  0  0  0  0  0  0  0  0  0
    7.0176  -13.7423   21.9249 C   0  0  0  0  0  0  0  0  0  0  0  0
    8.8013  -14.7409   20.4804 C   0  0  2  0  0  0  0  0  0  0  0  0
    7.8410  -15.5524   19.7310 N   0  0  0  0  0  0  0  0  0  0  0  0
    9.2189  -15.5421   21.6608 C   0  0  0  0  0  0  0  0  0  0  0  0
    8.3693  -16.2244   22.2964 O   0  0  0  0  0  0  0  0  0  0  0  0
   10.5638  -15.5782   22.1207 N   0  0  0  0  0  0  0  0  0  0  0  0
   11.0132  -16.4044   23.2030 C   0  0  0  0  0  0  0  0  0  0  0  0
   12.4620  -16.1694   23.4175 C   0  0  0  0  0  0  0  0  0  0  0  0
   12.9987  -16.0092   24.7003 O   0  0  0  0  0  0  0  0  0  0  0  0
   13.2151  -16.1150   22.4152 O   0  0  0  0  0  0  0  0  0  0  0  0
  2  1  1  6
  3  4  1  0
  3  2  1  0
  5  4  1  0
  6  5  1  0
  7  6  1  0
  8  2  1  0
  9  8  2  0
 11 10  1  6
 11 13  1  0
 12 11  1  0
 13 15  1  0
 13 14  1  1
 14  8  1  0
 15 17  1  0
 16 15  2  0
 17 18  1  0
 19 18  1  0
 19 20  1  0
 21 19  2  0
M  END
$$$$
