KVG.pdb
     RDKit          3D

 21 20  0  0  1  0  0  0  0  0999 V2000
    7.8494  -17.4009   16.6681 N   0  0  0  0  0  0  0  0  0  0  0  0
    7.5704  -17.5421   18.0652 C   0  0  1  0  0  0  0  0  0  0  0  0
    7.6076  -18.9625   18.5321 C   0  0  0  0  0  0  0  0  0  0  0  0
    6.3334  -19.7109   18.4140 C   0  0  0  0  0  0  0  0  0  0  0  0
    6.3638  -21.1392   18.8178 C   0  0  0  0  0  0  0  0  0  0  0  0
    5.0784  -21.8778   18.5419 C   0  0  0  0  0  0  0  0  0  0  0  0
    5.2897  -23.2714   18.8890 N   0  0  0  0  0  0  0  0  0  0  0  0
    8.3819  -16.6348   18.9101 C   0  0  0  0  0  0  0  0  0  0  0  0
    9.6408  -16.5645   18.7307 O   0  0  0  0  0  0  0  0  0  0  0  0
    7.4089  -12.8603   19.7478 C   0  0  0  0  0  0  0  0  0  0  0  0
    7.8812  -13.5850   20.9764 C   0  0  1  0  0  0  0  0  0  0  0  0
    6.7434  -13.9123   21.8973 C   0  0  0  0  0  0  0  0  0  0  0  0
    8.7007  -14.8169   20.6262 C   0  0  2  0  0  0  0  0  0  0  0  0
    7.8689  -15.8059   19.9389 N   0  0  0  0  0  0  0  0  0  0  0  0
    9.1683  -15.4455   21.8894 C   0  0  0  0  0  0  0  0  0  0  0  0
    8.3565  -16.0725   22.6238 O   0  0  0  0  0  0  0  0  0  0  0  0
   10.5207  -15.3729   22.3221 N   0  0  0  0  0  0  0  0  0  0  0  0
   10.9881  -15.9086   23.5673 C   0  0  0  0  0  0  0  0  0  0  0  0
   12.4401  -15.6335   23.6942 C   0  0  0  0  0  0  0  0  0  0  0  0
   13.1553  -15.9763   24.8476 O   0  0  0  0  0  0  0  0  0  0  0  0
   13.0309  -15.0789   22.7360 O   0  0  0  0  0  0  0  0  0  0  0  0
  2  1  1  6
  3  4  1  0
  3  2  1  0
  5  4  1  0
  6  5  1  0
  7  6  1  0
  8  2  1  0
  9  8  2  0
 11 10  1  6
 11 13  1  0
 12 11  1  0
 13 15  1  0
 13 14  1  1
 14  8  1  0
 15 17  1  0
 16 15  2  0
 17 18  1  0
 19 18  1  0
 19 20  1  0
 21 19  2  0
M  END
$$$$
