KVG.pdb
     RDKit          3D

 21 20  0  0  1  0  0  0  0  0999 V2000
    5.8596  -18.5906   18.9730 N   0  0  0  0  0  0  0  0  0  0  0  0
    5.7446  -17.6870   20.0775 C   0  0  1  0  0  0  0  0  0  0  0  0
    5.2460  -18.3435   21.3255 C   0  0  0  0  0  0  0  0  0  0  0  0
    6.0120  -19.5297   21.7771 C   0  0  0  0  0  0  0  0  0  0  0  0
    5.4306  -20.3054   22.9014 C   0  0  0  0  0  0  0  0  0  0  0  0
    6.2419  -21.5155   23.2905 C   0  0  0  0  0  0  0  0  0  0  0  0
    5.5098  -22.2199   24.3274 N   0  0  0  0  0  0  0  0  0  0  0  0
    6.9711  -16.8851   20.2971 C   0  0  0  0  0  0  0  0  0  0  0  0
    8.1109  -17.3962   20.0489 O   0  0  0  0  0  0  0  0  0  0  0  0
    7.4157  -12.8365   19.6260 C   0  0  0  0  0  0  0  0  0  0  0  0
    7.9739  -13.3095   20.9385 C   0  0  1  0  0  0  0  0  0  0  0  0
    7.1010  -12.9044   22.0891 C   0  0  0  0  0  0  0  0  0  0  0  0
    8.2457  -14.8054   20.9310 C   0  0  2  0  0  0  0  0  0  0  0  0
    6.9959  -15.5514   20.7758 N   0  0  0  0  0  0  0  0  0  0  0  0
    8.8178  -15.1861   22.2491 C   0  0  0  0  0  0  0  0  0  0  0  0
    8.0681  -15.6323   23.1603 O   0  0  0  0  0  0  0  0  0  0  0  0
   10.2043  -15.0691   22.5409 N   0  0  0  0  0  0  0  0  0  0  0  0
   10.7797  -15.3902   23.8144 C   0  0  0  0  0  0  0  0  0  0  0  0
   11.9562  -16.2684   23.6026 C   0  0  0  0  0  0  0  0  0  0  0  0
   12.3214  -16.7132   22.3266 O   0  0  0  0  0  0  0  0  0  0  0  0
   12.6331  -16.6145   24.6010 O   0  0  0  0  0  0  0  0  0  0  0  0
  2  1  1  6
  3  4  1  0
  3  2  1  0
  5  4  1  0
  6  5  1  0
  7  6  1  0
  8  2  1  0
  9  8  2  0
 11 10  1  6
 11 13  1  0
 12 11  1  0
 13 15  1  0
 13 14  1  1
 14  8  1  0
 15 17  1  0
 16 15  2  0
 17 18  1  0
 19 18  1  0
 19 20  1  0
 21 19  2  0
M  END
$$$$
