KVG.pdb
     RDKit          3D

 21 20  0  0  1  0  0  0  0  0999 V2000
    7.5719  -14.7412   20.6649 N   0  0  0  0  0  0  0  0  0  0  0  0
    6.9539  -15.2696   21.8432 C   0  0  1  0  0  0  0  0  0  0  0  0
    6.6108  -16.7208   21.7275 C   0  0  0  0  0  0  0  0  0  0  0  0
    5.8016  -17.0969   20.5435 C   0  0  0  0  0  0  0  0  0  0  0  0
    5.4656  -18.5358   20.4003 C   0  0  0  0  0  0  0  0  0  0  0  0
    4.5132  -18.8294   19.2687 C   0  0  0  0  0  0  0  0  0  0  0  0
    4.2723  -20.2608   19.2579 N   0  0  0  0  0  0  0  0  0  0  0  0
    7.7038  -14.9504   23.0807 C   0  0  0  0  0  0  0  0  0  0  0  0
    8.9609  -15.1494   23.1248 O   0  0  0  0  0  0  0  0  0  0  0  0
    7.4576  -11.7175   25.4362 C   0  0  0  0  0  0  0  0  0  0  0  0
    7.3738  -12.9865   26.2364 C   0  0  1  0  0  0  0  0  0  0  0  0
    5.9801  -13.2378   26.7307 C   0  0  0  0  0  0  0  0  0  0  0  0
    7.9272  -14.1766   25.4688 C   0  0  2  0  0  0  0  0  0  0  0  0
    7.1314  -14.4237   24.2655 N   0  0  0  0  0  0  0  0  0  0  0  0
    7.8069  -15.3858   26.3249 C   0  0  0  0  0  0  0  0  0  0  0  0
    6.6807  -15.9249   26.5055 O   0  0  0  0  0  0  0  0  0  0  0  0
    8.9275  -15.9800   26.9670 N   0  0  0  0  0  0  0  0  0  0  0  0
    8.8477  -17.1605   27.7769 C   0  0  0  0  0  0  0  0  0  0  0  0
   10.1909  -17.4532   28.3337 C   0  0  0  0  0  0  0  0  0  0  0  0
   10.3879  -18.4572   29.2891 O   0  0  0  0  0  0  0  0  0  0  0  0
   11.1675  -16.7765   27.9299 O   0  0  0  0  0  0  0  0  0  0  0  0
  2  1  1  6
  3  4  1  0
  3  2  1  0
  5  4  1  0
  6  5  1  0
  7  6  1  0
  8  2  1  0
  9  8  2  0
 11 10  1  6
 11 13  1  0
 12 11  1  0
 13 15  1  0
 13 14  1  6
 14  8  1  0
 15 17  1  0
 16 15  2  0
 17 18  1  0
 19 18  1  0
 19 20  1  0
 21 19  2  0
M  END
$$$$
