KVG.pdb
     RDKit          3D

 21 20  0  0  1  0  0  0  0  0999 V2000
    6.4914  -18.5569   25.3328 N   0  0  0  0  0  0  0  0  0  0  0  0
    6.5443  -17.9553   24.0347 C   0  0  1  0  0  0  0  0  0  0  0  0
    5.3855  -18.3280   23.1657 C   0  0  0  0  0  0  0  0  0  0  0  0
    4.9853  -19.7549   23.2060 C   0  0  0  0  0  0  0  0  0  0  0  0
    3.8512  -20.1501   22.3333 C   0  0  0  0  0  0  0  0  0  0  0  0
    3.4841  -21.6091   22.4346 C   0  0  0  0  0  0  0  0  0  0  0  0
    2.4020  -21.8555   21.4989 N   0  0  0  0  0  0  0  0  0  0  0  0
    6.7817  -16.4936   24.0855 C   0  0  0  0  0  0  0  0  0  0  0  0
    6.7929  -15.8191   23.0052 O   0  0  0  0  0  0  0  0  0  0  0  0
    7.5289  -12.3194   26.7334 C   0  0  0  0  0  0  0  0  0  0  0  0
    6.8583  -13.6482   26.5272 C   0  0  1  0  0  0  0  0  0  0  0  0
    5.3649  -13.5321   26.6048 C   0  0  0  0  0  0  0  0  0  0  0  0
    7.3098  -14.3153   25.2377 C   0  0  2  0  0  0  0  0  0  0  0  0
    7.0059  -15.7467   25.2689 N   0  0  0  0  0  0  0  0  0  0  0  0
    8.7871  -14.1872   25.1341 C   0  0  0  0  0  0  0  0  0  0  0  0
    9.3173  -13.0495   25.0072 O   0  0  0  0  0  0  0  0  0  0  0  0
    9.6546  -15.3130   25.1720 N   0  0  0  0  0  0  0  0  0  0  0  0
   11.0802  -15.2242   25.0471 C   0  0  0  0  0  0  0  0  0  0  0  0
   11.7030  -16.2712   25.8934 C   0  0  0  0  0  0  0  0  0  0  0  0
   13.0905  -16.3530   26.0597 O   0  0  0  0  0  0  0  0  0  0  0  0
   10.9561  -17.0987   26.4697 O   0  0  0  0  0  0  0  0  0  0  0  0
  2  1  1  1
  3  4  1  0
  3  2  1  0
  5  4  1  0
  6  5  1  0
  7  6  1  0
  8  2  1  0
  9  8  2  0
 11 10  1  6
 11 13  1  0
 12 11  1  0
 13 15  1  0
 13 14  1  1
 14  8  1  0
 15 17  1  0
 16 15  2  0
 17 18  1  0
 19 18  1  0
 19 20  1  0
 21 19  2  0
M  END
$$$$
