KVG.pdb
     RDKit          3D

 21 20  0  0  1  0  0  0  0  0999 V2000
    7.4565  -13.7594   20.1406 N   0  0  0  0  0  0  0  0  0  0  0  0
    7.1337  -14.6121   21.2444 C   0  0  1  0  0  0  0  0  0  0  0  0
    7.3547  -16.0621   20.9521 C   0  0  0  0  0  0  0  0  0  0  0  0
    6.2333  -16.9662   21.3030 C   0  0  0  0  0  0  0  0  0  0  0  0
    5.4697  -17.5458   20.1695 C   0  0  0  0  0  0  0  0  0  0  0  0
    4.2727  -18.3588   20.5936 C   0  0  0  0  0  0  0  0  0  0  0  0
    3.6594  -18.8966   19.3928 N   0  0  0  0  0  0  0  0  0  0  0  0
    7.7625  -14.1763   22.5134 C   0  0  0  0  0  0  0  0  0  0  0  0
    9.0116  -13.9301   22.5456 O   0  0  0  0  0  0  0  0  0  0  0  0
    5.5330  -12.9478   25.8741 C   0  0  0  0  0  0  0  0  0  0  0  0
    6.9728  -12.5487   25.7140 C   0  0  1  0  0  0  0  0  0  0  0  0
    7.5993  -12.1980   27.0309 C   0  0  0  0  0  0  0  0  0  0  0  0
    7.7726  -13.6047   24.9679 C   0  0  2  0  0  0  0  0  0  0  0  0
    7.0780  -14.0008   23.7419 N   0  0  0  0  0  0  0  0  0  0  0  0
    7.8664  -14.8160   25.8244 C   0  0  0  0  0  0  0  0  0  0  0  0
    6.8193  -15.3556   26.2759 O   0  0  0  0  0  0  0  0  0  0  0  0
    9.1105  -15.4118   26.1688 N   0  0  0  0  0  0  0  0  0  0  0  0
    9.2401  -16.5216   27.0675 C   0  0  0  0  0  0  0  0  0  0  0  0
   10.6756  -16.8729   27.1936 C   0  0  0  0  0  0  0  0  0  0  0  0
   11.1120  -17.8834   28.0584 O   0  0  0  0  0  0  0  0  0  0  0  0
   11.5103  -16.2406   26.5020 O   0  0  0  0  0  0  0  0  0  0  0  0
  2  1  1  6
  3  4  1  0
  3  2  1  0
  5  4  1  0
  6  5  1  0
  7  6  1  0
  8  2  1  0
  9  8  2  0
 11 10  1  1
 11 13  1  0
 12 11  1  0
 13 15  1  0
 13 14  1  6
 14  8  1  0
 15 17  1  0
 16 15  2  0
 17 18  1  0
 19 18  1  0
 19 20  1  0
 21 19  2  0
M  END
$$$$
