LTK.pdb
     RDKit          3D

 25 24  0  0  1  0  0  0  0  0999 V2000
   20.9862  -17.2189  -19.8276 C   0  0  0  0  0  0  0  0  0  0  0  0
   21.7153  -15.9559  -20.1273 C   0  0  2  0  0  0  0  0  0  0  0  0
   23.1442  -16.1957  -20.5715 C   0  0  0  0  0  0  0  0  0  0  0  0
   21.7067  -14.9597  -19.0072 C   0  0  0  0  0  0  0  0  0  0  0  0
   22.0410  -13.5662  -19.4206 C   0  0  2  0  0  0  0  0  0  0  0  0
   23.3806  -13.5082  -19.9143 N   0  0  0  0  0  0  0  0  0  0  0  0
   21.8302  -12.6870  -18.2288 C   0  0  0  0  0  0  0  0  0  0  0  0
   20.7916  -12.8452  -17.5375 O   0  0  0  0  0  0  0  0  0  0  0  0
   24.2480  -11.8343  -15.3029 C   0  0  0  0  0  0  0  0  0  0  0  0
   23.8253  -10.5654  -16.0264 C   0  0  1  0  0  0  0  0  0  0  0  0
   24.8103  -10.2137  -16.9662 O   0  0  0  0  0  0  0  0  0  0  0  0
   22.5056  -10.7548  -16.7449 C   0  0  2  0  0  0  0  0  0  0  0  0
   22.7361  -11.6824  -17.8319 N   0  0  0  0  0  0  0  0  0  0  0  0
   22.0643   -9.4243  -17.2242 C   0  0  0  0  0  0  0  0  0  0  0  0
   22.5338   -9.0357  -18.3252 O   0  0  0  0  0  0  0  0  0  0  0  0
   21.1756   -8.5911  -16.5407 N   0  0  0  0  0  0  0  0  0  0  0  0
   20.8211   -7.2446  -17.1347 C   0  0  1  0  0  0  0  0  0  0  0  0
   19.3584   -7.2941  -17.3050 C   0  0  0  0  0  0  0  0  0  0  0  0
   18.5331   -6.1635  -17.6901 C   0  0  0  0  0  0  0  0  0  0  0  0
   17.0819   -6.2544  -17.8941 C   0  0  0  0  0  0  0  0  0  0  0  0
   16.6359   -4.8168  -18.3273 C   0  0  0  0  0  0  0  0  0  0  0  0
   15.2137   -4.7996  -18.5779 N   0  0  0  0  0  0  0  0  0  0  0  0
   21.2943   -6.2461  -16.1541 C   0  0  0  0  0  0  0  0  0  0  0  0
   21.4822   -4.9170  -16.6216 O   0  0  0  0  0  0  0  0  0  0  0  0
   21.5513   -6.4314  -14.9555 O   0  0  0  0  0  0  0  0  0  0  0  0
  2  1  1  1
  2  3  1  0
  4  2  1  0
  5  7  1  0
  5  4  1  0
  5  6  1  1
  7  8  2  0
 10  9  1  6
 10 11  1  0
 12 10  1  0
 12 13  1  6
 13  7  1  0
 14 12  1  0
 15 14  2  0
 16 14  1  0
 17 16  1  0
 17 18  1  1
 19 18  1  0
 20 19  1  0
 21 20  1  0
 22 21  1  0
 23 24  1  0
 23 17  1  0
 25 23  2  0
M  END
$$$$
