LTK.pdb
     RDKit          3D

 25 24  0  0  1  0  0  0  0  0999 V2000
   28.1116  -20.1312   -7.1998 C   0  0  0  0  0  0  0  0  0  0  0  0
   28.3993  -21.0928   -8.2994 C   0  0  2  0  0  0  0  0  0  0  0  0
   29.8580  -21.4999   -8.3548 C   0  0  0  0  0  0  0  0  0  0  0  0
   27.9653  -20.6246   -9.6557 C   0  0  0  0  0  0  0  0  0  0  0  0
   28.0506  -21.6641  -10.7217 C   0  0  2  0  0  0  0  0  0  0  0  0
   29.4137  -22.0328  -10.9405 N   0  0  0  0  0  0  0  0  0  0  0  0
   27.4060  -21.0973  -11.9470 C   0  0  0  0  0  0  0  0  0  0  0  0
   28.1365  -20.5739  -12.8268 O   0  0  0  0  0  0  0  0  0  0  0  0
   24.9446  -21.9448  -15.6725 C   0  0  0  0  0  0  0  0  0  0  0  0
   25.6307  -22.0823  -14.3225 C   0  0  1  0  0  0  0  0  0  0  0  0
   27.0144  -22.2405  -14.5160 O   0  0  0  0  0  0  0  0  0  0  0  0
   25.3916  -20.8630  -13.4565 C   0  0  2  0  0  0  0  0  0  0  0  0
   26.0149  -21.1159  -12.1749 N   0  0  0  0  0  0  0  0  0  0  0  0
   23.9261  -20.6774  -13.3431 C   0  0  0  0  0  0  0  0  0  0  0  0
   23.3389  -21.3462  -12.4535 O   0  0  0  0  0  0  0  0  0  0  0  0
   23.1717  -19.8213  -14.1487 N   0  0  0  0  0  0  0  0  0  0  0  0
   21.7043  -19.6177  -13.8376 C   0  0  1  0  0  0  0  0  0  0  0  0
   21.2805  -18.5487  -14.7589 C   0  0  0  0  0  0  0  0  0  0  0  0
   19.9199  -18.0583  -14.8846 C   0  0  0  0  0  0  0  0  0  0  0  0
   19.1172  -18.2053  -16.1054 C   0  0  0  0  0  0  0  0  0  0  0  0
   17.7636  -17.4796  -15.7982 C   0  0  0  0  0  0  0  0  0  0  0  0
   16.8513  -17.6559  -16.9038 N   0  0  0  0  0  0  0  0  0  0  0  0
   21.0664  -20.9282  -14.0784 C   0  0  0  0  0  0  0  0  0  0  0  0
   19.9926  -21.2937  -13.2218 O   0  0  0  0  0  0  0  0  0  0  0  0
   21.3598  -21.7593  -14.9503 O   0  0  0  0  0  0  0  0  0  0  0  0
  2  1  1  1
  2  3  1  0
  4  2  1  0
  5  7  1  0
  5  4  1  0
  5  6  1  6
  7  8  2  0
 10  9  1  6
 10 11  1  0
 12 10  1  0
 12 13  1  1
 13  7  1  0
 14 12  1  0
 15 14  2  0
 16 14  1  0
 17 16  1  0
 17 18  1  6
 19 18  1  0
 20 19  1  0
 21 20  1  0
 22 21  1  0
 23 24  1  0
 23 17  1  0
 25 23  2  0
M  END
$$$$
