LTK.pdb
     RDKit          3D

 25 24  0  0  1  0  0  0  0  0999 V2000
   15.0240  -10.8770  -17.0519 C   0  0  0  0  0  0  0  0  0  0  0  0
   15.4696  -12.1084  -16.3436 C   0  0  2  0  0  0  0  0  0  0  0  0
   14.3142  -13.0013  -15.9379 C   0  0  0  0  0  0  0  0  0  0  0  0
   16.3382  -11.8512  -15.1493 C   0  0  0  0  0  0  0  0  0  0  0  0
   17.4893  -10.9396  -15.4107 C   0  0  2  0  0  0  0  0  0  0  0  0
   18.5319  -11.6458  -16.0858 N   0  0  0  0  0  0  0  0  0  0  0  0
   17.9297  -10.3910  -14.0904 C   0  0  0  0  0  0  0  0  0  0  0  0
   18.5598  -11.1430  -13.3036 O   0  0  0  0  0  0  0  0  0  0  0  0
   20.4142   -8.1104  -13.2364 C   0  0  0  0  0  0  0  0  0  0  0  0
   19.1500   -7.4763  -12.6779 C   0  0  1  0  0  0  0  0  0  0  0  0
   18.6447   -6.5475  -13.6048 O   0  0  0  0  0  0  0  0  0  0  0  0
   18.0880   -8.5193  -12.3983 C   0  0  2  0  0  0  0  0  0  0  0  0
   17.6773   -9.0683  -13.6731 N   0  0  0  0  0  0  0  0  0  0  0  0
   16.9751   -7.8436  -11.6914 C   0  0  0  0  0  0  0  0  0  0  0  0
   16.1673   -7.1911  -12.4022 O   0  0  0  0  0  0  0  0  0  0  0  0
   16.7724   -7.8864  -10.3100 N   0  0  0  0  0  0  0  0  0  0  0  0
   15.6830   -7.0325   -9.6972 C   0  0  1  0  0  0  0  0  0  0  0  0
   14.8477   -7.9880   -8.9486 C   0  0  0  0  0  0  0  0  0  0  0  0
   13.4613   -7.7620   -8.5819 C   0  0  0  0  0  0  0  0  0  0  0  0
   12.6708   -8.7098   -7.7864 C   0  0  0  0  0  0  0  0  0  0  0  0
   11.2522   -8.0582   -7.6593 C   0  0  0  0  0  0  0  0  0  0  0  0
   10.3476   -8.9766   -7.0081 N   0  0  0  0  0  0  0  0  0  0  0  0
   16.3869   -6.0402   -8.8591 C   0  0  0  0  0  0  0  0  0  0  0  0
   15.6737   -4.8597   -8.5153 O   0  0  0  0  0  0  0  0  0  0  0  0
   17.5415   -6.1147   -8.4138 O   0  0  0  0  0  0  0  0  0  0  0  0
  2  1  1  1
  2  3  1  0
  4  2  1  0
  5  7  1  0
  5  4  1  0
  5  6  1  1
  7  8  2  0
 10  9  1  6
 10 11  1  0
 12 10  1  0
 12 13  1  6
 13  7  1  0
 14 12  1  0
 15 14  2  0
 16 14  1  0
 17 16  1  0
 17 18  1  1
 19 18  1  0
 20 19  1  0
 21 20  1  0
 22 21  1  0
 23 24  1  0
 23 17  1  0
 25 23  2  0
M  END
$$$$
