LTK.pdb
     RDKit          3D

 25 24  0  0  1  0  0  0  0  0999 V2000
  -24.8795  -13.1225  -63.4938 C   0  0  0  0  0  0  0  0  0  0  0  0
  -25.8080  -14.2218  -63.1118 C   0  0  2  0  0  0  0  0  0  0  0  0
  -27.1531  -14.1189  -63.8023 C   0  0  0  0  0  0  0  0  0  0  0  0
  -26.0205  -14.3625  -61.6346 C   0  0  0  0  0  0  0  0  0  0  0  0
  -27.1559  -15.2536  -61.2585 C   0  0  2  0  0  0  0  0  0  0  0  0
  -28.3979  -14.6443  -61.6162 N   0  0  0  0  0  0  0  0  0  0  0  0
  -27.0472  -15.5151  -59.7896 C   0  0  0  0  0  0  0  0  0  0  0  0
  -27.2854  -14.5746  -58.9893 O   0  0  0  0  0  0  0  0  0  0  0  0
  -26.1053  -14.6888  -57.3257 C   0  0  0  0  0  0  0  0  0  0  0  0
  -26.0218  -16.1782  -57.0311 C   0  0  1  0  0  0  0  0  0  0  0  0
  -27.2691  -16.6332  -56.5682 O   0  0  0  0  0  0  0  0  0  0  0  0
  -25.6404  -16.9638  -58.2686 C   0  0  2  0  0  0  0  0  0  0  0  0
  -26.6901  -16.7655  -59.2452 N   0  0  0  0  0  0  0  0  0  0  0  0
  -25.5032  -18.3840  -57.8699 C   0  0  0  0  0  0  0  0  0  0  0  0
  -26.5600  -19.0664  -57.8363 O   0  0  0  0  0  0  0  0  0  0  0  0
  -24.2946  -18.9995  -57.5356 N   0  0  0  0  0  0  0  0  0  0  0  0
  -24.2933  -20.1176  -56.5151 C   0  0  1  0  0  0  0  0  0  0  0  0
  -24.0909  -19.4348  -55.2253 C   0  0  0  0  0  0  0  0  0  0  0  0
  -25.0566  -19.4137  -54.1415 C   0  0  0  0  0  0  0  0  0  0  0  0
  -24.7952  -18.7906  -52.8379 C   0  0  0  0  0  0  0  0  0  0  0  0
  -23.8558  -19.7915  -52.0838 C   0  0  0  0  0  0  0  0  0  0  0  0
  -22.5467  -19.7892  -52.6938 N   0  0  0  0  0  0  0  0  0  0  0  0
  -25.6038  -20.7838  -56.6612 C   0  0  0  0  0  0  0  0  0  0  0  0
  -25.7643  -21.6632  -57.7663 O   0  0  0  0  0  0  0  0  0  0  0  0
  -26.5944  -20.6657  -55.9251 O   0  0  0  0  0  0  0  0  0  0  0  0
  2  1  1  1
  2  3  1  0
  4  2  1  0
  5  7  1  0
  5  4  1  0
  5  6  1  1
  7  8  2  0
 10  9  1  6
 10 11  1  0
 12 10  1  0
 12 13  1  6
 13  7  1  0
 14 12  1  0
 15 14  2  0
 16 14  1  0
 17 16  1  0
 17 18  1  1
 19 18  1  0
 20 19  1  0
 21 20  1  0
 22 21  1  0
 23 24  1  0
 23 17  1  0
 25 23  2  0
M  END
$$$$
