LTK.pdb
     RDKit          3D

 25 24  0  0  1  0  0  0  0  0999 V2000
   40.8095   -6.4394   -7.6299 C   0  0  0  0  0  0  0  0  0  0  0  0
   41.0465   -7.0600   -6.2975 C   0  0  2  0  0  0  0  0  0  0  0  0
   42.1589   -6.3806   -5.5244 C   0  0  0  0  0  0  0  0  0  0  0  0
   41.3065   -8.5355   -6.3434 C   0  0  0  0  0  0  0  0  0  0  0  0
   40.3303   -9.3070   -7.1658 C   0  0  2  0  0  0  0  0  0  0  0  0
   39.1576   -9.5895   -6.3998 N   0  0  0  0  0  0  0  0  0  0  0  0
   41.0245  -10.5479   -7.6307 C   0  0  0  0  0  0  0  0  0  0  0  0
   41.0489  -11.5480   -6.8686 O   0  0  0  0  0  0  0  0  0  0  0  0
   42.9357  -13.1062  -11.4281 C   0  0  0  0  0  0  0  0  0  0  0  0
   42.2421  -11.8823  -10.8507 C   0  0  1  0  0  0  0  0  0  0  0  0
   40.8802  -11.9095  -11.1994 O   0  0  0  0  0  0  0  0  0  0  0  0
   42.3624  -11.8420   -9.3415 C   0  0  2  0  0  0  0  0  0  0  0  0
   41.6585  -10.6626   -8.8846 N   0  0  0  0  0  0  0  0  0  0  0  0
   43.8059  -11.7996   -9.0105 C   0  0  0  0  0  0  0  0  0  0  0  0
   44.3623  -10.6717   -9.0508 O   0  0  0  0  0  0  0  0  0  0  0  0
   44.5717  -12.9151   -8.6632 N   0  0  0  0  0  0  0  0  0  0  0  0
   46.0513  -12.7401   -8.3955 C   0  0  1  0  0  0  0  0  0  0  0  0
   46.4327  -13.9505   -7.6469 C   0  0  0  0  0  0  0  0  0  0  0  0
   47.7870  -14.2758   -7.2376 C   0  0  0  0  0  0  0  0  0  0  0  0
   48.1369  -15.4944   -6.4968 C   0  0  0  0  0  0  0  0  0  0  0  0
   49.6942  -15.4462   -6.3365 C   0  0  0  0  0  0  0  0  0  0  0  0
   50.1440  -16.5880   -5.5751 N   0  0  0  0  0  0  0  0  0  0  0  0
   46.6790  -12.6151   -9.7269 C   0  0  0  0  0  0  0  0  0  0  0  0
   47.7438  -11.6824   -9.8566 O   0  0  0  0  0  0  0  0  0  0  0  0
   46.3838  -13.2347  -10.7594 O   0  0  0  0  0  0  0  0  0  0  0  0
  2  1  1  6
  2  3  1  0
  4  2  1  0
  5  7  1  0
  5  4  1  0
  5  6  1  1
  7  8  2  0
 10  9  1  1
 10 11  1  0
 12 10  1  0
 12 13  1  6
 13  7  1  0
 14 12  1  0
 15 14  2  0
 16 14  1  0
 17 16  1  0
 17 18  1  6
 19 18  1  0
 20 19  1  0
 21 20  1  0
 22 21  1  0
 23 24  1  0
 23 17  1  0
 25 23  2  0
M  END
$$$$
