LTK.pdb
     RDKit          3D

 25 24  0  0  1  0  0  0  0  0999 V2000
   13.1436  -21.4387    2.5451 C   0  0  0  0  0  0  0  0  0  0  0  0
   14.4405  -20.7077    2.5643 C   0  0  2  0  0  0  0  0  0  0  0  0
   15.5981  -21.5558    2.0770 C   0  0  0  0  0  0  0  0  0  0  0  0
   14.7909  -20.1107    3.8940 C   0  0  0  0  0  0  0  0  0  0  0  0
   15.8886  -19.1022    3.8454 C   0  0  2  0  0  0  0  0  0  0  0  0
   16.7920  -19.4101    2.7821 N   0  0  0  0  0  0  0  0  0  0  0  0
   16.5556  -19.1075    5.1845 C   0  0  0  0  0  0  0  0  0  0  0  0
   15.8440  -18.9866    6.2143 O   0  0  0  0  0  0  0  0  0  0  0  0
   18.6403  -21.7142    6.8858 C   0  0  0  0  0  0  0  0  0  0  0  0
   19.4834  -20.4594    6.7217 C   0  0  1  0  0  0  0  0  0  0  0  0
   20.2440  -20.5587    5.5432 O   0  0  0  0  0  0  0  0  0  0  0  0
   18.6166  -19.2198    6.6443 C   0  0  2  0  0  0  0  0  0  0  0  0
   17.9479  -19.2412    5.3607 N   0  0  0  0  0  0  0  0  0  0  0  0
   19.5055  -18.0444    6.7964 C   0  0  0  0  0  0  0  0  0  0  0  0
   19.9648  -17.5422    5.7380 O   0  0  0  0  0  0  0  0  0  0  0  0
   19.8577  -17.4711    8.0206 N   0  0  0  0  0  0  0  0  0  0  0  0
   20.8547  -16.3323    8.0425 C   0  0  1  0  0  0  0  0  0  0  0  0
   20.0225  -15.1172    7.9953 C   0  0  0  0  0  0  0  0  0  0  0  0
   20.5412  -13.7616    7.9694 C   0  0  0  0  0  0  0  0  0  0  0  0
   19.6854  -12.5695    7.9172 C   0  0  0  0  0  0  0  0  0  0  0  0
   20.6719  -11.3531    7.9328 C   0  0  0  0  0  0  0  0  0  0  0  0
   19.9325  -10.1207    7.7912 N   0  0  0  0  0  0  0  0  0  0  0  0
   21.6218  -16.5061    9.2930 C   0  0  0  0  0  0  0  0  0  0  0  0
   21.2383  -17.5772   10.1452 O   0  0  0  0  0  0  0  0  0  0  0  0
   22.5731  -15.8197    9.6941 O   0  0  0  0  0  0  0  0  0  0  0  0
  2  1  1  1
  2  3  1  0
  4  2  1  0
  5  7  1  0
  5  4  1  0
  5  6  1  6
  7  8  2  0
 10  9  1  6
 10 11  1  0
 12 10  1  0
 12 13  1  6
 13  7  1  0
 14 12  1  0
 15 14  2  0
 16 14  1  0
 17 16  1  0
 17 18  1  1
 19 18  1  0
 20 19  1  0
 21 20  1  0
 22 21  1  0
 23 24  1  0
 23 17  1  0
 25 23  2  0
M  END
$$$$
