LTK.pdb
     RDKit          3D

 25 24  0  0  1  0  0  0  0  0999 V2000
   17.6070  -14.1115  -15.8217 C   0  0  0  0  0  0  0  0  0  0  0  0
   16.4408  -13.2128  -16.0431 C   0  0  2  0  0  0  0  0  0  0  0  0
   15.5265  -13.7013  -17.1485 C   0  0  0  0  0  0  0  0  0  0  0  0
   16.8064  -11.7821  -16.3004 C   0  0  0  0  0  0  0  0  0  0  0  0
   17.6775  -11.1721  -15.2547 C   0  0  2  0  0  0  0  0  0  0  0  0
   16.9853  -11.1237  -14.0056 N   0  0  0  0  0  0  0  0  0  0  0  0
   18.0741   -9.8150  -15.7437 C   0  0  0  0  0  0  0  0  0  0  0  0
   18.6393   -9.7175  -16.8629 O   0  0  0  0  0  0  0  0  0  0  0  0
   17.6178   -4.8910  -15.2224 C   0  0  0  0  0  0  0  0  0  0  0  0
   17.2451   -6.3242  -14.8772 C   0  0  1  0  0  0  0  0  0  0  0  0
   15.9648   -6.6087  -15.3842 O   0  0  0  0  0  0  0  0  0  0  0  0
   18.2360   -7.3076  -15.4645 C   0  0  2  0  0  0  0  0  0  0  0  0
   17.8492   -8.6285  -15.0164 N   0  0  0  0  0  0  0  0  0  0  0  0
   19.5837   -6.9224  -14.9846 C   0  0  0  0  0  0  0  0  0  0  0  0
   19.8383   -7.1486  -13.7732 O   0  0  0  0  0  0  0  0  0  0  0  0
   20.5696   -6.3346  -15.7805 N   0  0  0  0  0  0  0  0  0  0  0  0
   21.9761   -6.2032  -15.2364 C   0  0  1  0  0  0  0  0  0  0  0  0
   22.8135   -6.0057  -16.4326 C   0  0  0  0  0  0  0  0  0  0  0  0
   24.2459   -5.7703  -16.4082 C   0  0  0  0  0  0  0  0  0  0  0  0
   25.0391   -5.4870  -17.6109 C   0  0  0  0  0  0  0  0  0  0  0  0
   26.4999   -5.2548  -17.0957 C   0  0  0  0  0  0  0  0  0  0  0  0
   27.3569   -4.8914  -18.1999 N   0  0  0  0  0  0  0  0  0  0  0  0
   21.9345   -5.0490  -14.3153 C   0  0  0  0  0  0  0  0  0  0  0  0
   22.7049   -5.1419  -13.1244 O   0  0  0  0  0  0  0  0  0  0  0  0
   21.2988   -3.9943  -14.4584 O   0  0  0  0  0  0  0  0  0  0  0  0
  2  1  1  6
  2  3  1  0
  4  2  1  0
  5  7  1  0
  5  4  1  0
  5  6  1  1
  7  8  2  0
 10  9  1  6
 10 11  1  0
 12 10  1  0
 12 13  1  1
 13  7  1  0
 14 12  1  0
 15 14  2  0
 16 14  1  0
 17 16  1  0
 17 18  1  6
 19 18  1  0
 20 19  1  0
 21 20  1  0
 22 21  1  0
 23 24  1  0
 23 17  1  0
 25 23  2  0
M  END
$$$$
