LTK.pdb
     RDKit          3D

 25 24  0  0  1  0  0  0  0  0999 V2000
   20.4779  -20.7474  -16.7436 C   0  0  0  0  0  0  0  0  0  0  0  0
   21.8525  -21.1372  -17.1622 C   0  0  2  0  0  0  0  0  0  0  0  0
   21.8563  -22.1519  -18.2879 C   0  0  0  0  0  0  0  0  0  0  0  0
   22.7179  -21.6361  -16.0445 C   0  0  0  0  0  0  0  0  0  0  0  0
   22.7462  -20.7494  -14.8456 C   0  0  2  0  0  0  0  0  0  0  0  0
   23.0749  -19.4131  -15.2304 N   0  0  0  0  0  0  0  0  0  0  0  0
   23.7369  -21.3304  -13.8871 C   0  0  0  0  0  0  0  0  0  0  0  0
   23.6161  -22.5360  -13.5502 O   0  0  0  0  0  0  0  0  0  0  0  0
   27.5000  -21.5341  -14.1380 C   0  0  0  0  0  0  0  0  0  0  0  0
   27.1431  -20.7670  -12.8746 C   0  0  1  0  0  0  0  0  0  0  0  0
   27.1847  -19.3866  -13.1390 O   0  0  0  0  0  0  0  0  0  0  0  0
   25.7582  -21.1315  -12.3817 C   0  0  2  0  0  0  0  0  0  0  0  0
   24.8077  -20.5987  -13.3344 N   0  0  0  0  0  0  0  0  0  0  0  0
   25.5953  -20.5402  -11.0331 C   0  0  0  0  0  0  0  0  0  0  0  0
   25.1270  -19.3734  -10.9803 O   0  0  0  0  0  0  0  0  0  0  0  0
   25.9239  -21.1874   -9.8396 N   0  0  0  0  0  0  0  0  0  0  0  0
   25.7326  -20.4575   -8.5273 C   0  0  1  0  0  0  0  0  0  0  0  0
   25.3298  -21.5107   -7.5789 C   0  0  0  0  0  0  0  0  0  0  0  0
   24.6017  -21.2763   -6.3450 C   0  0  0  0  0  0  0  0  0  0  0  0
   23.1748  -21.5800   -6.1782 C   0  0  0  0  0  0  0  0  0  0  0  0
   22.8086  -21.0644   -4.7453 C   0  0  0  0  0  0  0  0  0  0  0  0
   21.4224  -21.3527   -4.4602 N   0  0  0  0  0  0  0  0  0  0  0  0
   27.0371  -19.8293   -8.2337 C   0  0  0  0  0  0  0  0  0  0  0  0
   27.0417  -18.7425   -7.3177 O   0  0  0  0  0  0  0  0  0  0  0  0
   28.1439  -20.1407   -8.6976 O   0  0  0  0  0  0  0  0  0  0  0  0
  2  1  1  1
  2  3  1  0
  4  2  1  0
  5  7  1  0
  5  4  1  0
  5  6  1  6
  7  8  2  0
 10  9  1  6
 10 11  1  0
 12 10  1  0
 12 13  1  6
 13  7  1  0
 14 12  1  0
 15 14  2  0
 16 14  1  0
 17 16  1  0
 17 18  1  1
 19 18  1  0
 20 19  1  0
 21 20  1  0
 22 21  1  0
 23 24  1  0
 23 17  1  0
 25 23  2  0
M  END
$$$$
