LTK.pdb
     RDKit          3D

 25 24  0  0  1  0  0  0  0  0999 V2000
   29.1638  -21.9595  -19.7574 C   0  0  0  0  0  0  0  0  0  0  0  0
   30.0361  -21.8239  -18.5586 C   0  0  2  0  0  0  0  0  0  0  0  0
   31.4236  -22.3933  -18.7764 C   0  0  0  0  0  0  0  0  0  0  0  0
   29.4546  -22.4054  -17.3053 C   0  0  0  0  0  0  0  0  0  0  0  0
   28.0087  -22.1026  -17.0999 C   0  0  2  0  0  0  0  0  0  0  0  0
   27.8567  -21.0715  -16.1224 N   0  0  0  0  0  0  0  0  0  0  0  0
   27.3410  -23.3789  -16.6960 C   0  0  0  0  0  0  0  0  0  0  0  0
   27.6634  -23.9096  -15.6024 O   0  0  0  0  0  0  0  0  0  0  0  0
   23.4194  -26.3357  -17.2001 C   0  0  0  0  0  0  0  0  0  0  0  0
   24.2239  -25.0848  -17.5166 C   0  0  1  0  0  0  0  0  0  0  0  0
   23.6578  -23.9842  -16.8493 O   0  0  0  0  0  0  0  0  0  0  0  0
   25.6672  -25.2337  -17.0822 C   0  0  2  0  0  0  0  0  0  0  0  0
   26.3626  -24.0272  -17.4769 N   0  0  0  0  0  0  0  0  0  0  0  0
   26.2107  -26.4403  -17.7483 C   0  0  0  0  0  0  0  0  0  0  0  0
   26.5364  -26.3200  -18.9578 O   0  0  0  0  0  0  0  0  0  0  0  0
   26.3801  -27.6796  -17.1265 N   0  0  0  0  0  0  0  0  0  0  0  0
   27.0450  -28.8042  -17.8912 C   0  0  1  0  0  0  0  0  0  0  0  0
   27.4614  -29.7585  -16.8486 C   0  0  0  0  0  0  0  0  0  0  0  0
   28.1890  -30.9896  -17.0990 C   0  0  0  0  0  0  0  0  0  0  0  0
   28.5119  -31.9653  -16.0503 C   0  0  0  0  0  0  0  0  0  0  0  0
   29.3010  -33.1060  -16.7778 C   0  0  0  0  0  0  0  0  0  0  0  0
   29.6252  -34.1538  -15.8382 N   0  0  0  0  0  0  0  0  0  0  0  0
   26.0125  -29.3138  -18.8167 C   0  0  0  0  0  0  0  0  0  0  0  0
   26.4410  -29.7039  -20.1146 O   0  0  0  0  0  0  0  0  0  0  0  0
   24.7997  -29.4434  -18.5939 O   0  0  0  0  0  0  0  0  0  0  0  0
  2  1  1  6
  2  3  1  0
  4  2  1  0
  5  7  1  0
  5  4  1  0
  5  6  1  1
  7  8  2  0
 10  9  1  1
 10 11  1  0
 12 10  1  0
 12 13  1  6
 13  7  1  0
 14 12  1  0
 15 14  2  0
 16 14  1  0
 17 16  1  0
 17 18  1  1
 19 18  1  0
 20 19  1  0
 21 20  1  0
 22 21  1  0
 23 24  1  0
 23 17  1  0
 25 23  2  0
M  END
$$$$
