LTK.pdb
     RDKit          3D

 25 24  0  0  1  0  0  0  0  0999 V2000
   24.3143  -16.7535  -15.7127 C   0  0  0  0  0  0  0  0  0  0  0  0
   25.3348  -15.7294  -16.0682 C   0  0  2  0  0  0  0  0  0  0  0  0
   26.6111  -15.8703  -15.2634 C   0  0  0  0  0  0  0  0  0  0  0  0
   24.8459  -14.3154  -15.9757 C   0  0  0  0  0  0  0  0  0  0  0  0
   23.6051  -14.0411  -16.7565 C   0  0  2  0  0  0  0  0  0  0  0  0
   23.7638  -14.4885  -18.1042 N   0  0  0  0  0  0  0  0  0  0  0  0
   23.3404  -12.5714  -16.6674 C   0  0  0  0  0  0  0  0  0  0  0  0
   23.4517  -12.0042  -15.5504 O   0  0  0  0  0  0  0  0  0  0  0  0
   22.6721   -8.2536  -19.0215 C   0  0  0  0  0  0  0  0  0  0  0  0
   22.9866   -9.7413  -19.0154 C   0  0  1  0  0  0  0  0  0  0  0  0
   24.3618   -9.9288  -19.2410 O   0  0  0  0  0  0  0  0  0  0  0  0
   22.6143  -10.3774  -17.6922 C   0  0  2  0  0  0  0  0  0  0  0  0
   22.9702  -11.7781  -17.7723 N   0  0  0  0  0  0  0  0  0  0  0  0
   21.1598  -10.1764  -17.4948 C   0  0  0  0  0  0  0  0  0  0  0  0
   20.4004  -10.6223  -18.3937 O   0  0  0  0  0  0  0  0  0  0  0  0
   20.5916   -9.5341  -16.3921 N   0  0  0  0  0  0  0  0  0  0  0  0
   19.0901   -9.3496  -16.3384 C   0  0  1  0  0  0  0  0  0  0  0  0
   18.6488  -10.2566  -15.2643 C   0  0  0  0  0  0  0  0  0  0  0  0
   17.7304  -11.3661  -15.4458 C   0  0  0  0  0  0  0  0  0  0  0  0
   17.2309  -12.1913  -14.3387 C   0  0  0  0  0  0  0  0  0  0  0  0
   16.2578  -13.2244  -15.0014 C   0  0  0  0  0  0  0  0  0  0  0  0
   15.6511  -14.0492  -13.9829 N   0  0  0  0  0  0  0  0  0  0  0  0
   18.8807   -7.9143  -16.0584 C   0  0  0  0  0  0  0  0  0  0  0  0
   17.5668   -7.4034  -16.2396 O   0  0  0  0  0  0  0  0  0  0  0  0
   19.7259   -7.0902  -15.6792 O   0  0  0  0  0  0  0  0  0  0  0  0
  2  1  1  1
  2  3  1  0
  4  2  1  0
  5  7  1  0
  5  4  1  0
  5  6  1  6
  7  8  2  0
 10  9  1  1
 10 11  1  0
 12 10  1  0
 12 13  1  6
 13  7  1  0
 14 12  1  0
 15 14  2  0
 16 14  1  0
 17 16  1  0
 17 18  1  1
 19 18  1  0
 20 19  1  0
 21 20  1  0
 22 21  1  0
 23 24  1  0
 23 17  1  0
 25 23  2  0
M  END
$$$$
