SQK.pdb
     RDKit          3D

 25 24  0  0  1  0  0  0  0  0999 V2000
    9.7645  -16.4038   18.6955 O   0  0  0  0  0  0  0  0  0  0  0  0
   10.1577  -15.8608   19.9019 C   0  0  0  0  0  0  0  0  0  0  0  0
    9.5025  -16.6145   21.0415 C   0  0  2  0  0  0  0  0  0  0  0  0
    8.0961  -16.7507   20.8153 N   0  0  0  0  0  0  0  0  0  0  0  0
    9.7345  -15.8630   22.2896 C   0  0  0  0  0  0  0  0  0  0  0  0
   10.9444  -15.6239   22.6277 O   0  0  0  0  0  0  0  0  0  0  0  0
    5.5392  -12.3324   25.5576 N   0  0  0  0  0  0  0  0  0  0  0  0
    6.7675  -12.2261   26.2656 C   0  0  0  0  0  0  0  0  0  0  0  0
    6.8351  -11.3633   27.1666 O   0  0  0  0  0  0  0  0  0  0  0  0
    7.9061  -13.1034   25.9373 C   0  0  0  0  0  0  0  0  0  0  0  0
    7.6717  -13.9228   24.7144 C   0  0  0  0  0  0  0  0  0  0  0  0
    8.8701  -14.6994   24.3140 C   0  0  2  0  0  0  0  0  0  0  0  0
    8.6453  -15.4307   23.0700 N   0  0  0  0  0  0  0  0  0  0  0  0
    9.1353  -15.7675   25.3419 C   0  0  0  0  0  0  0  0  0  0  0  0
    8.3520  -16.7516   25.5062 O   0  0  0  0  0  0  0  0  0  0  0  0
   10.2696  -15.7444   26.1881 N   0  0  0  0  0  0  0  0  0  0  0  0
   10.5941  -16.8475   27.0579 C   0  0  1  0  0  0  0  0  0  0  0  0
   11.7365  -17.6872   26.6135 C   0  0  0  0  0  0  0  0  0  0  0  0
   12.1041  -18.8354   27.4722 C   0  0  0  0  0  0  0  0  0  0  0  0
   13.2659  -19.6498   27.0064 C   0  0  0  0  0  0  0  0  0  0  0  0
   13.5261  -20.8038   27.9997 C   0  0  0  0  0  0  0  0  0  0  0  0
   14.5612  -21.6137   27.4015 N   0  0  0  0  0  0  0  0  0  0  0  0
   10.7170  -16.4033   28.4503 C   0  0  0  0  0  0  0  0  0  0  0  0
   11.0658  -17.2093   29.3823 O   0  0  0  0  0  0  0  0  0  0  0  0
   10.4690  -15.1059   28.8462 O   0  0  0  0  0  0  0  0  0  0  0  0
  2  1  1  0
  3  2  1  0
  3  4  1  6
  5  6  2  0
  5  3  1  0
  7  8  1  0
  8 10  1  0
  9  8  2  0
 10 11  1  0
 12 11  1  1
 12 13  1  0
 13  5  1  0
 14 12  1  0
 14 16  1  0
 15 14  2  0
 17 16  1  0
 17 18  1  6
 18 19  1  0
 20 19  1  0
 21 22  1  0
 21 20  1  0
 23 17  1  0
 24 23  2  0
 25 23  1  0
M  END
$$$$
