SQK.pdb
     RDKit          3D

 25 24  0  0  1  0  0  0  0  0999 V2000
    9.9791  -11.7899   18.2241 O   0  0  0  0  0  0  0  0  0  0  0  0
    9.3987  -12.5375   19.2287 C   0  0  0  0  0  0  0  0  0  0  0  0
    8.9317  -13.8678   18.6737 C   0  0  2  0  0  0  0  0  0  0  0  0
    7.7505  -13.6996   17.8837 N   0  0  0  0  0  0  0  0  0  0  0  0
    8.6479  -14.7697   19.8060 C   0  0  0  0  0  0  0  0  0  0  0  0
    7.4397  -14.8517   20.2173 O   0  0  0  0  0  0  0  0  0  0  0  0
   12.4307  -19.6167   21.8332 N   0  0  0  0  0  0  0  0  0  0  0  0
   11.0757  -19.8589   22.1891 C   0  0  0  0  0  0  0  0  0  0  0  0
   10.7484  -21.0419   22.4218 O   0  0  0  0  0  0  0  0  0  0  0  0
   10.1080  -18.7498   22.2741 C   0  0  0  0  0  0  0  0  0  0  0  0
   10.3458  -17.6943   21.2487 C   0  0  0  0  0  0  0  0  0  0  0  0
    9.3870  -16.5684   21.3611 C   0  0  2  0  0  0  0  0  0  0  0  0
    9.6876  -15.5092   20.4017 N   0  0  0  0  0  0  0  0  0  0  0  0
    9.5427  -15.9170   22.7098 C   0  0  0  0  0  0  0  0  0  0  0  0
   10.5427  -15.1903   22.9939 O   0  0  0  0  0  0  0  0  0  0  0  0
    8.5889  -16.0715   23.7441 N   0  0  0  0  0  0  0  0  0  0  0  0
    8.7412  -15.4253   25.0239 C   0  0  1  0  0  0  0  0  0  0  0  0
    7.4932  -14.8588   25.5978 C   0  0  0  0  0  0  0  0  0  0  0  0
    7.3855  -13.3837   25.6545 C   0  0  0  0  0  0  0  0  0  0  0  0
    6.2394  -12.8455   26.4462 C   0  0  0  0  0  0  0  0  0  0  0  0
    6.3092  -11.3029   26.4833 C   0  0  0  0  0  0  0  0  0  0  0  0
    5.2397  -10.8802   27.3566 N   0  0  0  0  0  0  0  0  0  0  0  0
    9.4668  -16.2840   25.9658 C   0  0  0  0  0  0  0  0  0  0  0  0
    9.5092  -17.5551   25.8175 O   0  0  0  0  0  0  0  0  0  0  0  0
   10.1438  -15.7887   27.0604 O   0  0  0  0  0  0  0  0  0  0  0  0
  2  1  1  0
  3  2  1  0
  3  4  1  1
  5  6  2  0
  5  3  1  0
  7  8  1  0
  8 10  1  0
  9  8  2  0
 10 11  1  0
 12 11  1  1
 12 13  1  0
 13  5  1  0
 14 12  1  0
 14 16  1  0
 15 14  2  0
 17 16  1  0
 17 18  1  1
 18 19  1  0
 20 19  1  0
 21 22  1  0
 21 20  1  0
 23 17  1  0
 24 23  2  0
 25 23  1  0
M  END
$$$$
