SQK.pdb
     RDKit          3D

 25 24  0  0  1  0  0  0  0  0999 V2000
   14.8319  -24.8844   23.6890 O   0  0  0  0  0  0  0  0  0  0  0  0
   13.7651  -24.5478   22.8805 C   0  0  0  0  0  0  0  0  0  0  0  0
   14.1149  -23.3293   22.0507 C   0  0  2  0  0  0  0  0  0  0  0  0
   15.4561  -23.4196   21.5598 N   0  0  0  0  0  0  0  0  0  0  0  0
   13.9770  -22.1323   22.9019 C   0  0  0  0  0  0  0  0  0  0  0  0
   14.3510  -21.0087   22.4192 O   0  0  0  0  0  0  0  0  0  0  0  0
    9.4156  -18.8199   23.7901 N   0  0  0  0  0  0  0  0  0  0  0  0
   10.6643  -18.7001   23.1211 C   0  0  0  0  0  0  0  0  0  0  0  0
   10.6584  -18.1690   21.9903 O   0  0  0  0  0  0  0  0  0  0  0  0
   11.9061  -19.1889   23.7477 C   0  0  0  0  0  0  0  0  0  0  0  0
   11.7408  -20.5192   24.3996 C   0  0  0  0  0  0  0  0  0  0  0  0
   13.0184  -21.0531   24.9307 C   0  0  2  0  0  0  0  0  0  0  0  0
   13.4474  -22.2437   24.2018 N   0  0  0  0  0  0  0  0  0  0  0  0
   12.8087  -21.5264   26.3448 C   0  0  0  0  0  0  0  0  0  0  0  0
   11.8854  -22.3404   26.6512 O   0  0  0  0  0  0  0  0  0  0  0  0
   13.6232  -21.0970   27.4197 N   0  0  0  0  0  0  0  0  0  0  0  0
   13.4160  -21.5656   28.7674 C   0  0  1  0  0  0  0  0  0  0  0  0
   14.5776  -21.4004   29.6790 C   0  0  0  0  0  0  0  0  0  0  0  0
   14.5002  -22.0673   30.9981 C   0  0  0  0  0  0  0  0  0  0  0  0
   15.7048  -21.9263   31.8695 C   0  0  0  0  0  0  0  0  0  0  0  0
   15.4671  -22.6551   33.2104 C   0  0  0  0  0  0  0  0  0  0  0  0
   16.6972  -22.5227   33.9552 N   0  0  0  0  0  0  0  0  0  0  0  0
   12.1690  -21.0323   29.3258 C   0  0  0  0  0  0  0  0  0  0  0  0
   11.6146  -21.5608   30.3520 O   0  0  0  0  0  0  0  0  0  0  0  0
   11.5170  -19.9408   28.7919 O   0  0  0  0  0  0  0  0  0  0  0  0
  2  1  1  0
  3  2  1  0
  3  4  1  1
  5  6  2  0
  5  3  1  0
  7  8  1  0
  8 10  1  0
  9  8  2  0
 10 11  1  0
 12 11  1  6
 12 13  1  0
 13  5  1  0
 14 12  1  0
 14 16  1  0
 15 14  2  0
 17 16  1  0
 17 18  1  1
 18 19  1  0
 20 19  1  0
 21 22  1  0
 21 20  1  0
 23 17  1  0
 24 23  2  0
 25 23  1  0
M  END
$$$$
