SQK.pdb
     RDKit          3D

 25 24  0  0  1  0  0  0  0  0999 V2000
    5.6915  -19.1600   23.7849 O   0  0  0  0  0  0  0  0  0  0  0  0
    4.7326  -18.3321   23.2371 C   0  0  0  0  0  0  0  0  0  0  0  0
    4.7219  -18.4866   21.7298 C   0  0  2  0  0  0  0  0  0  0  0  0
    4.5400  -19.8579   21.3633 N   0  0  0  0  0  0  0  0  0  0  0  0
    6.0106  -17.9983   21.2036 C   0  0  0  0  0  0  0  0  0  0  0  0
    6.8783  -18.8669   20.8456 O   0  0  0  0  0  0  0  0  0  0  0  0
    7.3468  -12.3151   18.7175 N   0  0  0  0  0  0  0  0  0  0  0  0
    8.6087  -12.9597   18.8335 C   0  0  0  0  0  0  0  0  0  0  0  0
    9.5943  -12.3820   18.3279 O   0  0  0  0  0  0  0  0  0  0  0  0
    8.7328  -14.2569   19.5231 C   0  0  0  0  0  0  0  0  0  0  0  0
    7.4235  -14.7872   19.9988 C   0  0  0  0  0  0  0  0  0  0  0  0
    7.5472  -16.1274   20.6218 C   0  0  2  0  0  0  0  0  0  0  0  0
    6.2587  -16.6158   21.1057 N   0  0  0  0  0  0  0  0  0  0  0  0
    8.4037  -16.0237   21.8559 C   0  0  0  0  0  0  0  0  0  0  0  0
    7.9527  -15.5696   22.9511 O   0  0  0  0  0  0  0  0  0  0  0  0
    9.7614  -16.4236   21.8758 N   0  0  0  0  0  0  0  0  0  0  0  0
   10.5333  -16.4399   23.0933 C   0  0  1  0  0  0  0  0  0  0  0  0
   10.3017  -17.6153   23.9722 C   0  0  0  0  0  0  0  0  0  0  0  0
   11.1022  -17.6970   25.2145 C   0  0  0  0  0  0  0  0  0  0  0  0
   10.9301  -18.9440   26.0179 C   0  0  0  0  0  0  0  0  0  0  0  0
   11.7460  -18.8394   27.3252 C   0  0  0  0  0  0  0  0  0  0  0  0
   11.5163  -20.0764   28.0341 N   0  0  0  0  0  0  0  0  0  0  0  0
   11.9542  -16.1993   22.8208 C   0  0  0  0  0  0  0  0  0  0  0  0
   12.4277  -16.2578   21.6324 O   0  0  0  0  0  0  0  0  0  0  0  0
   12.8652  -15.8978   23.8112 O   0  0  0  0  0  0  0  0  0  0  0  0
  2  1  1  0
  3  2  1  0
  3  4  1  1
  5  6  2  0
  5  3  1  0
  7  8  1  0
  8 10  1  0
  9  8  2  0
 10 11  1  0
 12 11  1  1
 12 13  1  0
 13  5  1  0
 14 12  1  0
 14 16  1  0
 15 14  2  0
 17 16  1  0
 17 18  1  6
 18 19  1  0
 20 19  1  0
 21 22  1  0
 21 20  1  0
 23 17  1  0
 24 23  2  0
 25 23  1  0
M  END
$$$$
