SQK.pdb
     RDKit          3D

 25 24  0  0  1  0  0  0  0  0999 V2000
    4.0175  -20.3260   19.0069 O   0  0  0  0  0  0  0  0  0  0  0  0
    4.5141  -19.6407   20.0972 C   0  0  0  0  0  0  0  0  0  0  0  0
    3.7107  -19.9916   21.3330 C   0  0  2  0  0  0  0  0  0  0  0  0
    2.3113  -19.8104   21.0948 N   0  0  0  0  0  0  0  0  0  0  0  0
    4.1451  -19.1121   22.4348 C   0  0  0  0  0  0  0  0  0  0  0  0
    3.2525  -18.6780   23.2412 O   0  0  0  0  0  0  0  0  0  0  0  0
    7.1145  -21.5976   26.9393 N   0  0  0  0  0  0  0  0  0  0  0  0
    6.2749  -20.9873   25.9679 C   0  0  0  0  0  0  0  0  0  0  0  0
    5.1120  -21.4305   25.8578 O   0  0  0  0  0  0  0  0  0  0  0  0
    6.7708  -19.8793   25.1311 C   0  0  0  0  0  0  0  0  0  0  0  0
    5.7846  -18.7697   24.9959 C   0  0  0  0  0  0  0  0  0  0  0  0
    5.9581  -18.0073   23.7356 C   0  0  2  0  0  0  0  0  0  0  0  0
    5.5042  -18.7730   22.5778 N   0  0  0  0  0  0  0  0  0  0  0  0
    7.4265  -17.7805   23.4912 C   0  0  0  0  0  0  0  0  0  0  0  0
    8.1404  -18.6185   22.8609 O   0  0  0  0  0  0  0  0  0  0  0  0
    8.1040  -16.6239   23.9460 N   0  0  0  0  0  0  0  0  0  0  0  0
    8.9368  -15.8355   23.0722 C   0  0  1  0  0  0  0  0  0  0  0  0
    8.2489  -14.7073   22.3926 C   0  0  0  0  0  0  0  0  0  0  0  0
    8.7002  -14.3677   21.0245 C   0  0  0  0  0  0  0  0  0  0  0  0
    7.9671  -13.2512   20.3566 C   0  0  0  0  0  0  0  0  0  0  0  0
    8.5032  -13.0601   18.9206 C   0  0  0  0  0  0  0  0  0  0  0  0
    7.7404  -11.9717   18.3560 N   0  0  0  0  0  0  0  0  0  0  0  0
   10.1741  -15.4294   23.7469 C   0  0  0  0  0  0  0  0  0  0  0  0
   10.2653  -15.4094   25.0240 O   0  0  0  0  0  0  0  0  0  0  0  0
   11.3083  -15.0466   23.0623 O   0  0  0  0  0  0  0  0  0  0  0  0
  2  1  1  0
  3  2  1  0
  3  4  1  6
  5  6  2  0
  5  3  1  0
  7  8  1  0
  8 10  1  0
  9  8  2  0
 10 11  1  0
 12 11  1  1
 12 13  1  0
 13  5  1  0
 14 12  1  0
 14 16  1  0
 15 14  2  0
 17 16  1  0
 17 18  1  1
 18 19  1  0
 20 19  1  0
 21 22  1  0
 21 20  1  0
 23 17  1  0
 24 23  2  0
 25 23  1  0
M  END
$$$$
