SQK.pdb
     RDKit          3D

 25 24  0  0  1  0  0  0  0  0999 V2000
    8.8344  -15.7498   19.0114 O   0  0  0  0  0  0  0  0  0  0  0  0
    7.5664  -15.2139   19.1107 C   0  0  0  0  0  0  0  0  0  0  0  0
    7.6539  -13.7689   19.5584 C   0  0  2  0  0  0  0  0  0  0  0  0
    8.4387  -13.0015   18.6402 N   0  0  0  0  0  0  0  0  0  0  0  0
    8.2772  -13.7336   20.8950 C   0  0  0  0  0  0  0  0  0  0  0  0
    9.5172  -13.4298   20.9690 O   0  0  0  0  0  0  0  0  0  0  0  0
    5.2564  -12.6053   26.3356 N   0  0  0  0  0  0  0  0  0  0  0  0
    6.6453  -12.5286   26.6292 C   0  0  0  0  0  0  0  0  0  0  0  0
    6.9710  -12.0258   27.7255 O   0  0  0  0  0  0  0  0  0  0  0  0
    7.6481  -13.0244   25.6687 C   0  0  0  0  0  0  0  0  0  0  0  0
    7.0693  -13.3154   24.3262 C   0  0  0  0  0  0  0  0  0  0  0  0
    8.0793  -13.8394   23.3748 C   0  0  2  0  0  0  0  0  0  0  0  0
    7.5143  -14.0277   22.0414 N   0  0  0  0  0  0  0  0  0  0  0  0
    8.5011  -15.2183   23.8087 C   0  0  0  0  0  0  0  0  0  0  0  0
    7.8742  -16.2589   23.4439 O   0  0  0  0  0  0  0  0  0  0  0  0
    9.6186  -15.4435   24.6476 N   0  0  0  0  0  0  0  0  0  0  0  0
    9.8458  -16.7143   25.2896 C   0  0  1  0  0  0  0  0  0  0  0  0
   10.9188  -16.7197   26.3174 C   0  0  0  0  0  0  0  0  0  0  0  0
   11.2102  -18.0099   26.9817 C   0  0  0  0  0  0  0  0  0  0  0  0
   12.3646  -18.0071   27.9290 C   0  0  0  0  0  0  0  0  0  0  0  0
   12.5472  -19.4168   28.5335 C   0  0  0  0  0  0  0  0  0  0  0  0
   13.6127  -19.2966   29.5007 N   0  0  0  0  0  0  0  0  0  0  0  0
    8.5879  -17.2946   25.7714 C   0  0  0  0  0  0  0  0  0  0  0  0
    7.7145  -16.5863   26.3838 O   0  0  0  0  0  0  0  0  0  0  0  0
    8.2637  -18.6240   25.6004 O   0  0  0  0  0  0  0  0  0  0  0  0
  2  1  1  0
  3  2  1  0
  3  4  1  6
  5  6  2  0
  5  3  1  0
  7  8  1  0
  8 10  1  0
  9  8  2  0
 10 11  1  0
 12 11  1  1
 12 13  1  0
 13  5  1  0
 14 12  1  0
 14 16  1  0
 15 14  2  0
 17 16  1  0
 17 18  1  1
 18 19  1  0
 20 19  1  0
 21 22  1  0
 21 20  1  0
 23 17  1  0
 24 23  2  0
 25 23  1  0
M  END
$$$$
