SQK.pdb
     RDKit          3D

 25 24  0  0  1  0  0  0  0  0999 V2000
   10.0783  -12.9055   18.1842 O   0  0  0  0  0  0  0  0  0  0  0  0
    9.3050  -13.3965   19.2166 C   0  0  0  0  0  0  0  0  0  0  0  0
    8.5460  -14.6224   18.7507 C   0  0  2  0  0  0  0  0  0  0  0  0
    7.4249  -14.2470   17.9444 N   0  0  0  0  0  0  0  0  0  0  0  0
    8.0781  -15.3589   19.9402 C   0  0  0  0  0  0  0  0  0  0  0  0
    6.9345  -15.0513   20.4228 O   0  0  0  0  0  0  0  0  0  0  0  0
    6.3102  -20.0176   24.1337 N   0  0  0  0  0  0  0  0  0  0  0  0
    6.8416  -19.8402   22.8271 C   0  0  0  0  0  0  0  0  0  0  0  0
    6.0822  -20.0778   21.8639 O   0  0  0  0  0  0  0  0  0  0  0  0
    8.2338  -19.3956   22.6326 C   0  0  0  0  0  0  0  0  0  0  0  0
    8.4154  -18.5866   21.3939 C   0  0  0  0  0  0  0  0  0  0  0  0
    8.4020  -17.1280   21.6621 C   0  0  2  0  0  0  0  0  0  0  0  0
    8.8795  -16.3659   20.5115 N   0  0  0  0  0  0  0  0  0  0  0  0
    9.3842  -16.8166   22.7603 C   0  0  0  0  0  0  0  0  0  0  0  0
   10.6376  -16.9017   22.5852 O   0  0  0  0  0  0  0  0  0  0  0  0
    8.9762  -16.4105   24.0534 N   0  0  0  0  0  0  0  0  0  0  0  0
    9.9166  -16.2538   25.1350 C   0  0  1  0  0  0  0  0  0  0  0  0
    9.3814  -15.5755   26.3438 C   0  0  0  0  0  0  0  0  0  0  0  0
   10.2735  -15.4936   27.5221 C   0  0  0  0  0  0  0  0  0  0  0  0
    9.7517  -14.7067   28.6790 C   0  0  0  0  0  0  0  0  0  0  0  0
   10.8132  -14.6605   29.8001 C   0  0  0  0  0  0  0  0  0  0  0  0
   10.2374  -13.8617   30.8563 N   0  0  0  0  0  0  0  0  0  0  0  0
   10.5873  -17.5222   25.4393 C   0  0  0  0  0  0  0  0  0  0  0  0
    9.9327  -18.6177   25.5447 O   0  0  0  0  0  0  0  0  0  0  0  0
   11.9494  -17.6210   25.6302 O   0  0  0  0  0  0  0  0  0  0  0  0
  2  1  1  0
  3  2  1  0
  3  4  1  6
  5  6  2  0
  5  3  1  0
  7  8  1  0
  8 10  1  0
  9  8  2  0
 10 11  1  0
 12 11  1  6
 12 13  1  0
 13  5  1  0
 14 12  1  0
 14 16  1  0
 15 14  2  0
 17 16  1  0
 17 18  1  1
 18 19  1  0
 20 19  1  0
 21 22  1  0
 21 20  1  0
 23 17  1  0
 24 23  2  0
 25 23  1  0
M  END
$$$$
