SQK.pdb
     RDKit          3D

 25 24  0  0  1  0  0  0  0  0999 V2000
    8.1375  -21.0767   20.0638 O   0  0  0  0  0  0  0  0  0  0  0  0
    9.0051  -20.0341   20.3189 C   0  0  0  0  0  0  0  0  0  0  0  0
    9.1536  -19.1754   19.0792 C   0  0  2  0  0  0  0  0  0  0  0  0
    9.9568  -19.8385   18.0979 N   0  0  0  0  0  0  0  0  0  0  0  0
    9.7931  -17.9043   19.4684 C   0  0  0  0  0  0  0  0  0  0  0  0
   11.0537  -17.7887   19.2871 O   0  0  0  0  0  0  0  0  0  0  0  0
    6.8482  -12.4220   19.3825 N   0  0  0  0  0  0  0  0  0  0  0  0
    7.3674  -13.1991   18.3111 C   0  0  0  0  0  0  0  0  0  0  0  0
    6.9618  -12.9299   17.1606 O   0  0  0  0  0  0  0  0  0  0  0  0
    8.3422  -14.2761   18.5633 C   0  0  0  0  0  0  0  0  0  0  0  0
    8.6414  -14.4584   20.0122 C   0  0  0  0  0  0  0  0  0  0  0  0
    9.6160  -15.5492   20.2571 C   0  0  2  0  0  0  0  0  0  0  0  0
    9.0229  -16.8626   20.0199 N   0  0  0  0  0  0  0  0  0  0  0  0
    9.9939  -15.5588   21.7147 C   0  0  0  0  0  0  0  0  0  0  0  0
    9.1232  -15.6284   22.6345 O   0  0  0  0  0  0  0  0  0  0  0  0
   11.3381  -15.4911   22.1527 N   0  0  0  0  0  0  0  0  0  0  0  0
   11.7887  -16.1765   23.3384 C   0  0  1  0  0  0  0  0  0  0  0  0
   11.3531  -17.5924   23.4533 C   0  0  0  0  0  0  0  0  0  0  0  0
   11.7930  -18.3383   24.6538 C   0  0  0  0  0  0  0  0  0  0  0  0
   11.3529  -19.7632   24.7312 C   0  0  0  0  0  0  0  0  0  0  0  0
   11.8284  -20.3847   26.0629 C   0  0  0  0  0  0  0  0  0  0  0  0
   11.1970  -21.6810   26.1413 N   0  0  0  0  0  0  0  0  0  0  0  0
   13.2323  -16.0036   23.5317 C   0  0  0  0  0  0  0  0  0  0  0  0
   14.0201  -15.7944   22.5442 O   0  0  0  0  0  0  0  0  0  0  0  0
   13.8320  -16.0535   24.7725 O   0  0  0  0  0  0  0  0  0  0  0  0
  2  1  1  0
  3  2  1  0
  3  4  1  6
  5  6  2  0
  5  3  1  0
  7  8  1  0
  8 10  1  0
  9  8  2  0
 10 11  1  0
 12 11  1  1
 12 13  1  0
 13  5  1  0
 14 12  1  0
 14 16  1  0
 15 14  2  0
 17 16  1  0
 17 18  1  6
 18 19  1  0
 20 19  1  0
 21 22  1  0
 21 20  1  0
 23 17  1  0
 24 23  2  0
 25 23  1  0
M  END
$$$$
