SQK.pdb
     RDKit          3D

 25 24  0  0  1  0  0  0  0  0999 V2000
   10.0944  -20.3900   18.6957 O   0  0  0  0  0  0  0  0  0  0  0  0
    9.2563  -19.7266   17.8226 C   0  0  0  0  0  0  0  0  0  0  0  0
    9.9988  -18.5766   17.1727 C   0  0  2  0  0  0  0  0  0  0  0  0
   11.1686  -19.0477   16.4964 N   0  0  0  0  0  0  0  0  0  0  0  0
   10.3856  -17.6190   18.2261 C   0  0  0  0  0  0  0  0  0  0  0  0
   11.6224  -17.5456   18.5430 O   0  0  0  0  0  0  0  0  0  0  0  0
    6.7144  -12.9181   20.3673 N   0  0  0  0  0  0  0  0  0  0  0  0
    7.3130  -13.0621   19.0858 C   0  0  0  0  0  0  0  0  0  0  0  0
    6.9083  -12.3058   18.1775 O   0  0  0  0  0  0  0  0  0  0  0  0
    8.3654  -14.0682   18.8532 C   0  0  0  0  0  0  0  0  0  0  0  0
    8.7113  -14.8386   20.0815 C   0  0  0  0  0  0  0  0  0  0  0  0
    9.7951  -15.8233   19.8468 C   0  0  2  0  0  0  0  0  0  0  0  0
    9.4094  -16.8193   18.8508 N   0  0  0  0  0  0  0  0  0  0  0  0
   10.0283  -16.6142   21.1068 C   0  0  0  0  0  0  0  0  0  0  0  0
    9.2717  -17.5734   21.4481 O   0  0  0  0  0  0  0  0  0  0  0  0
   11.1010  -16.3414   21.9890 N   0  0  0  0  0  0  0  0  0  0  0  0
   11.3121  -17.1076   23.1919 C   0  0  1  0  0  0  0  0  0  0  0  0
   12.7178  -17.5209   23.4388 C   0  0  0  0  0  0  0  0  0  0  0  0
   12.9692  -18.3928   24.6082 C   0  0  0  0  0  0  0  0  0  0  0  0
   14.3801  -18.8475   24.7886 C   0  0  0  0  0  0  0  0  0  0  0  0
   14.4713  -19.7966   26.0038 C   0  0  0  0  0  0  0  0  0  0  0  0
   15.8471  -20.2314   26.0629 N   0  0  0  0  0  0  0  0  0  0  0  0
   10.6956  -16.4523   24.3502 C   0  0  0  0  0  0  0  0  0  0  0  0
   10.6008  -17.0432   25.4823 O   0  0  0  0  0  0  0  0  0  0  0  0
   10.1829  -15.1732   24.3007 O   0  0  0  0  0  0  0  0  0  0  0  0
  2  1  1  0
  3  2  1  0
  3  4  1  1
  5  6  2  0
  5  3  1  0
  7  8  1  0
  8 10  1  0
  9  8  2  0
 10 11  1  0
 12 11  1  1
 12 13  1  0
 13  5  1  0
 14 12  1  0
 14 16  1  0
 15 14  2  0
 17 16  1  0
 17 18  1  1
 18 19  1  0
 20 19  1  0
 21 22  1  0
 21 20  1  0
 23 17  1  0
 24 23  2  0
 25 23  1  0
M  END
$$$$
