PLS.pdb
     RDKit          3D

 22 22  0  0  1  0  0  0  0  0999 V2000
   18.8169  -11.2187  -17.4176 N   0  0  0  0  0  0  0  0  0  0  0  0
   18.2100  -12.5383  -17.3653 C   0  0  0  0  0  0  0  0  0  0  0  0
   19.0956  -13.2361  -16.3553 C   0  0  0  0  0  0  0  0  0  0  0  0
   19.3630  -12.1650  -15.3074 C   0  0  0  0  0  0  0  0  0  0  0  0
   19.0678  -10.9071  -16.0310 C   0  0  1  0  0  0  0  0  0  0  0  0
   20.0706   -9.8412  -15.8582 C   0  0  0  0  0  0  0  0  0  0  0  0
   20.2228   -9.3847  -14.6883 O   0  0  0  0  0  0  0  0  0  0  0  0
   25.0924   -7.6161  -18.6841 C   0  0  0  0  0  0  0  0  0  0  0  0
   24.0885   -7.4220  -17.5240 C   0  0  2  0  0  0  0  0  0  0  0  0
   24.9374   -7.6681  -16.2784 C   0  0  0  0  0  0  0  0  0  0  0  0
   23.0078   -8.4364  -17.5887 C   0  0  0  0  0  0  0  0  0  0  0  0
   21.8537   -8.2552  -16.6631 C   0  0  2  0  0  0  0  0  0  0  0  0
   20.8609   -9.2989  -16.8770 N   0  0  0  0  0  0  0  0  0  0  0  0
   21.2628   -6.9032  -16.6176 C   0  0  0  0  0  0  0  0  0  0  0  0
   20.5368   -6.5642  -17.5956 O   0  0  0  0  0  0  0  0  0  0  0  0
   19.6286   -3.3655  -13.9066 O   0  0  0  0  0  0  0  0  0  0  0  0
   20.3055   -4.5723  -14.0442 C   0  0  0  0  0  0  0  0  0  0  0  0
   20.8858   -4.7411  -15.4350 C   0  0  2  0  0  0  0  0  0  0  0  0
   21.5086   -6.0343  -15.5214 N   0  0  0  0  0  0  0  0  0  0  0  0
   21.8092   -3.6368  -15.7803 C   0  0  0  0  0  0  0  0  0  0  0  0
   22.9554   -3.5851  -15.2687 O   0  0  0  0  0  0  0  0  0  0  0  0
   21.4832   -2.6178  -16.6626 O   0  0  0  0  0  0  0  0  0  0  0  0
  2  1  1  0
  3  4  1  0
  3  2  1  0
  4  5  1  0
  5  1  1  0
  5  6  1  6
  7  6  2  0
  9  8  1  6
  9 10  1  0
  9 11  1  0
 12 11  1  6
 12 13  1  0
 12 14  1  0
 13  6  1  0
 14 15  2  0
 17 16  1  0
 18 17  1  1
 19 14  1  0
 19 18  1  0
 20 18  1  0
 20 22  1  0
 21 20  2  0
M  END
$$$$
