PLS.pdb
     RDKit          3D

 22 22  0  0  1  0  0  0  0  0999 V2000
   20.6564  -12.7237  -18.9184 N   0  0  0  0  0  0  0  0  0  0  0  0
   19.9195  -13.8835  -19.3922 C   0  0  0  0  0  0  0  0  0  0  0  0
   19.8343  -14.7196  -18.1332 C   0  0  0  0  0  0  0  0  0  0  0  0
   19.5815  -13.6962  -17.0354 C   0  0  0  0  0  0  0  0  0  0  0  0
   20.0400  -12.4279  -17.6474 C   0  0  1  0  0  0  0  0  0  0  0  0
   20.8907  -11.5923  -16.7815 C   0  0  0  0  0  0  0  0  0  0  0  0
   20.3787  -11.1869  -15.6982 O   0  0  0  0  0  0  0  0  0  0  0  0
   25.7401   -8.7595  -15.8805 C   0  0  0  0  0  0  0  0  0  0  0  0
   25.3547  -10.1201  -15.2547 C   0  0  2  0  0  0  0  0  0  0  0  0
   26.6844  -10.8690  -15.1931 C   0  0  0  0  0  0  0  0  0  0  0  0
   24.4172  -10.8578  -16.1368 C   0  0  0  0  0  0  0  0  0  0  0  0
   23.0103  -10.3683  -16.1885 C   0  0  2  0  0  0  0  0  0  0  0  0
   22.2085  -11.2153  -17.0605 N   0  0  0  0  0  0  0  0  0  0  0  0
   22.8322   -8.9294  -16.4658 C   0  0  0  0  0  0  0  0  0  0  0  0
   23.1534   -8.5265  -17.6202 O   0  0  0  0  0  0  0  0  0  0  0  0
   19.7308   -6.9255  -15.0883 O   0  0  0  0  0  0  0  0  0  0  0  0
   20.5641   -6.5606  -16.1400 C   0  0  0  0  0  0  0  0  0  0  0  0
   22.0296   -6.6747  -15.7676 C   0  0  2  0  0  0  0  0  0  0  0  0
   22.3248   -8.0507  -15.4721 N   0  0  0  0  0  0  0  0  0  0  0  0
   22.3848   -5.7618  -14.6577 C   0  0  0  0  0  0  0  0  0  0  0  0
   22.8228   -6.2216  -13.5738 O   0  0  0  0  0  0  0  0  0  0  0  0
   22.2625   -4.3827  -14.7358 O   0  0  0  0  0  0  0  0  0  0  0  0
  2  1  1  0
  3  4  1  0
  3  2  1  0
  4  5  1  0
  5  1  1  0
  5  6  1  1
  7  6  2  0
  9  8  1  6
  9 10  1  0
  9 11  1  0
 12 11  1  6
 12 13  1  0
 12 14  1  0
 13  6  1  0
 14 15  2  0
 17 16  1  0
 18 17  1  1
 19 14  1  0
 19 18  1  0
 20 18  1  0
 20 22  1  0
 21 20  2  0
M  END
$$$$
