PLS.pdb
     RDKit          3D

 22 22  0  0  1  0  0  0  0  0999 V2000
   27.1892  -18.1278  -16.5446 N   0  0  0  0  0  0  0  0  0  0  0  0
   28.3362  -17.5775  -17.2476 C   0  0  0  0  0  0  0  0  0  0  0  0
   29.4650  -18.4093  -16.6771 C   0  0  0  0  0  0  0  0  0  0  0  0
   28.8704  -19.8068  -16.5778 C   0  0  0  0  0  0  0  0  0  0  0  0
   27.4116  -19.5527  -16.5987 C   0  0  1  0  0  0  0  0  0  0  0  0
   26.6381  -20.2899  -15.5838 C   0  0  0  0  0  0  0  0  0  0  0  0
   26.5539  -21.5435  -15.7295 O   0  0  0  0  0  0  0  0  0  0  0  0
   25.1976  -19.8976   -9.7167 C   0  0  0  0  0  0  0  0  0  0  0  0
   25.1999  -20.8324  -10.9485 C   0  0  2  0  0  0  0  0  0  0  0  0
   26.0583  -22.0114  -10.4945 C   0  0  0  0  0  0  0  0  0  0  0  0
   25.8480  -20.1723  -12.1083 C   0  0  0  0  0  0  0  0  0  0  0  0
   25.3014  -20.4879  -13.4586 C   0  0  2  0  0  0  0  0  0  0  0  0
   25.9951  -19.7175  -14.4813 N   0  0  0  0  0  0  0  0  0  0  0  0
   23.8328  -20.4298  -13.5954 C   0  0  0  0  0  0  0  0  0  0  0  0
   23.2943  -19.2907  -13.4917 O   0  0  0  0  0  0  0  0  0  0  0  0
   19.8666  -22.7288  -15.1416 O   0  0  0  0  0  0  0  0  0  0  0  0
   21.2245  -22.7567  -14.8434 C   0  0  0  0  0  0  0  0  0  0  0  0
   21.6492  -21.5544  -14.0228 C   0  0  2  0  0  0  0  0  0  0  0  0
   23.0732  -21.6067  -13.8302 N   0  0  0  0  0  0  0  0  0  0  0  0
   20.9018  -21.4706  -12.7477 C   0  0  0  0  0  0  0  0  0  0  0  0
   21.3941  -21.9409  -11.6919 O   0  0  0  0  0  0  0  0  0  0  0  0
   19.6489  -20.8869  -12.6350 O   0  0  0  0  0  0  0  0  0  0  0  0
  2  1  1  0
  3  4  1  0
  3  2  1  0
  4  5  1  0
  5  1  1  0
  5  6  1  1
  7  6  2  0
  9  8  1  1
  9 10  1  0
  9 11  1  0
 12 11  1  1
 12 13  1  0
 12 14  1  0
 13  6  1  0
 14 15  2  0
 17 16  1  0
 18 17  1  1
 19 14  1  0
 19 18  1  0
 20 18  1  0
 20 22  1  0
 21 20  2  0
M  END
$$$$
