PLS.pdb
     RDKit          3D

 22 22  0  0  1  0  0  0  0  0999 V2000
   28.4289  -20.1617  -16.8905 N   0  0  0  0  0  0  0  0  0  0  0  0
   28.8874  -19.1140  -17.7875 C   0  0  0  0  0  0  0  0  0  0  0  0
   27.8990  -18.0077  -17.4866 C   0  0  0  0  0  0  0  0  0  0  0  0
   27.7151  -18.0871  -15.9779 C   0  0  0  0  0  0  0  0  0  0  0  0
   28.1682  -19.4600  -15.6567 C   0  0  1  0  0  0  0  0  0  0  0  0
   27.2816  -20.2104  -14.7498 C   0  0  0  0  0  0  0  0  0  0  0  0
   26.6818  -21.2118  -15.2370 O   0  0  0  0  0  0  0  0  0  0  0  0
   25.4442  -20.2136   -8.7967 C   0  0  0  0  0  0  0  0  0  0  0  0
   25.1695  -20.7393  -10.2248 C   0  0  2  0  0  0  0  0  0  0  0  0
   25.2374  -22.2563  -10.0610 C   0  0  0  0  0  0  0  0  0  0  0  0
   26.2335  -20.2993  -11.1606 C   0  0  0  0  0  0  0  0  0  0  0  0
   25.9699  -20.4781  -12.6166 C   0  0  2  0  0  0  0  0  0  0  0  0
   27.0527  -19.9052  -13.4040 N   0  0  0  0  0  0  0  0  0  0  0  0
   24.6350  -20.0635  -13.0915 C   0  0  0  0  0  0  0  0  0  0  0  0
   24.4636  -18.8297  -13.3071 O   0  0  0  0  0  0  0  0  0  0  0  0
   21.8603  -22.7977  -14.7535 O   0  0  0  0  0  0  0  0  0  0  0  0
   22.0177  -21.4469  -15.0436 C   0  0  0  0  0  0  0  0  0  0  0  0
   22.3131  -20.6310  -13.8000 C   0  0  2  0  0  0  0  0  0  0  0  0
   23.6011  -21.0168  -13.2901 N   0  0  0  0  0  0  0  0  0  0  0  0
   21.2364  -20.7601  -12.7924 C   0  0  0  0  0  0  0  0  0  0  0  0
   21.4715  -21.2883  -11.6771 O   0  0  0  0  0  0  0  0  0  0  0  0
   19.9379  -20.3215  -13.0034 O   0  0  0  0  0  0  0  0  0  0  0  0
  2  1  1  0
  3  4  1  0
  3  2  1  0
  4  5  1  0
  5  1  1  0
  5  6  1  6
  7  6  2  0
  9  8  1  1
  9 10  1  0
  9 11  1  0
 12 11  1  1
 12 13  1  0
 12 14  1  0
 13  6  1  0
 14 15  2  0
 17 16  1  0
 18 17  1  6
 19 14  1  0
 19 18  1  0
 20 18  1  0
 20 22  1  0
 21 20  2  0
M  END
$$$$
