PLS.pdb
     RDKit          3D

 22 22  0  0  1  0  0  0  0  0999 V2000
   18.7845  -11.5521  -18.7667 N   0  0  0  0  0  0  0  0  0  0  0  0
   18.0944  -11.6262  -20.0437 C   0  0  0  0  0  0  0  0  0  0  0  0
   17.7058  -10.1791  -20.2592 C   0  0  0  0  0  0  0  0  0  0  0  0
   18.9190   -9.4018  -19.7690 C   0  0  0  0  0  0  0  0  0  0  0  0
   19.6133  -10.3780  -18.8982 C   0  0  1  0  0  0  0  0  0  0  0  0
   20.0576   -9.8446  -17.5983 C   0  0  0  0  0  0  0  0  0  0  0  0
   19.1798   -9.7412  -16.6934 O   0  0  0  0  0  0  0  0  0  0  0  0
   22.0394  -11.1558  -13.8359 C   0  0  0  0  0  0  0  0  0  0  0  0
   22.8585  -10.9724  -15.1346 C   0  0  2  0  0  0  0  0  0  0  0  0
   24.2373  -11.5131  -14.7610 C   0  0  0  0  0  0  0  0  0  0  0  0
   22.9742   -9.5353  -15.4847 C   0  0  0  0  0  0  0  0  0  0  0  0
   21.7503   -8.8666  -16.0106 C   0  0  2  0  0  0  0  0  0  0  0  0
   21.3624   -9.4471  -17.2886 N   0  0  0  0  0  0  0  0  0  0  0  0
   21.7756   -7.3909  -16.0359 C   0  0  0  0  0  0  0  0  0  0  0  0
   22.3209   -6.8463  -17.0380 O   0  0  0  0  0  0  0  0  0  0  0  0
   19.7592   -3.2971  -14.7810 O   0  0  0  0  0  0  0  0  0  0  0  0
   19.8142   -4.6863  -14.8065 C   0  0  0  0  0  0  0  0  0  0  0  0
   21.2311   -5.1940  -14.9907 C   0  0  2  0  0  0  0  0  0  0  0  0
   21.2118   -6.6318  -14.9762 N   0  0  0  0  0  0  0  0  0  0  0  0
   22.1521   -4.6237  -13.9818 C   0  0  0  0  0  0  0  0  0  0  0  0
   22.3812   -5.2405  -12.9116 O   0  0  0  0  0  0  0  0  0  0  0  0
   22.8033   -3.4101  -14.1434 O   0  0  0  0  0  0  0  0  0  0  0  0
  2  1  1  0
  3  4  1  0
  3  2  1  0
  4  5  1  0
  5  1  1  0
  5  6  1  1
  7  6  2  0
  9  8  1  1
  9 10  1  0
  9 11  1  0
 12 11  1  6
 12 13  1  0
 12 14  1  0
 13  6  1  0
 14 15  2  0
 17 16  1  0
 18 17  1  1
 19 14  1  0
 19 18  1  0
 20 18  1  0
 20 22  1  0
 21 20  2  0
M  END
$$$$
