PLS.pdb
     RDKit          3D

 22 22  0  0  1  0  0  0  0  0999 V2000
   26.6994  -18.8013  -15.3119 N   0  0  0  0  0  0  0  0  0  0  0  0
   27.9658  -18.3128  -15.8316 C   0  0  0  0  0  0  0  0  0  0  0  0
   28.9536  -19.1693  -15.0687 C   0  0  0  0  0  0  0  0  0  0  0  0
   28.2946  -20.5409  -15.0374 C   0  0  0  0  0  0  0  0  0  0  0  0
   26.8697  -20.2343  -15.2993 C   0  0  1  0  0  0  0  0  0  0  0  0
   25.9139  -20.9146  -14.4075 C   0  0  0  0  0  0  0  0  0  0  0  0
   25.8587  -22.1759  -14.4853 O   0  0  0  0  0  0  0  0  0  0  0  0
   26.6936  -21.7719  -10.8245 C   0  0  0  0  0  0  0  0  0  0  0  0
   25.8938  -20.4486  -10.8467 C   0  0  2  0  0  0  0  0  0  0  0  0
   25.9927  -19.9529   -9.4054 C   0  0  0  0  0  0  0  0  0  0  0  0
   24.4705  -20.7001  -11.1818 C   0  0  0  0  0  0  0  0  0  0  0  0
   24.1529  -20.9911  -12.6087 C   0  0  2  0  0  0  0  0  0  0  0  0
   25.0700  -20.2811  -13.4894 N   0  0  0  0  0  0  0  0  0  0  0  0
   22.7399  -20.8330  -13.0056 C   0  0  0  0  0  0  0  0  0  0  0  0
   21.8699  -21.3074  -12.2204 O   0  0  0  0  0  0  0  0  0  0  0  0
   21.5224  -17.8088  -15.3218 O   0  0  0  0  0  0  0  0  0  0  0  0
   20.9288  -19.0027  -15.7166 C   0  0  0  0  0  0  0  0  0  0  0  0
   21.0192  -20.0644  -14.6377 C   0  0  2  0  0  0  0  0  0  0  0  0
   22.3893  -20.1786  -14.2163 N   0  0  0  0  0  0  0  0  0  0  0  0
   20.4500  -21.3539  -15.0899 C   0  0  0  0  0  0  0  0  0  0  0  0
   21.2011  -22.2583  -15.5326 O   0  0  0  0  0  0  0  0  0  0  0  0
   19.0940  -21.6423  -15.0569 O   0  0  0  0  0  0  0  0  0  0  0  0
  2  1  1  0
  3  4  1  0
  3  2  1  0
  4  5  1  0
  5  1  1  0
  5  6  1  1
  7  6  2  0
  9  8  1  1
  9 10  1  0
  9 11  1  0
 12 11  1  1
 12 13  1  0
 12 14  1  0
 13  6  1  0
 14 15  2  0
 17 16  1  0
 18 17  1  6
 19 14  1  0
 19 18  1  0
 20 18  1  0
 20 22  1  0
 21 20  2  0
M  END
$$$$
