PLS.pdb
     RDKit          3D

 22 22  0  0  1  0  0  0  0  0999 V2000
   28.4197  -21.1000  -16.0365 N   0  0  0  0  0  0  0  0  0  0  0  0
   28.8897  -20.2327  -17.1040 C   0  0  0  0  0  0  0  0  0  0  0  0
   27.8240  -19.1577  -17.1084 C   0  0  0  0  0  0  0  0  0  0  0  0
   27.5292  -18.9343  -15.6320 C   0  0  0  0  0  0  0  0  0  0  0  0
   28.0282  -20.1767  -14.9988 C   0  0  1  0  0  0  0  0  0  0  0  0
   27.1153  -20.7808  -14.0122 C   0  0  0  0  0  0  0  0  0  0  0  0
   26.3285  -21.6761  -14.4356 O   0  0  0  0  0  0  0  0  0  0  0  0
   24.0127  -20.8366   -9.3156 C   0  0  0  0  0  0  0  0  0  0  0  0
   25.5248  -21.1606   -9.3169 C   0  0  2  0  0  0  0  0  0  0  0  0
   25.9928  -20.6640   -7.9505 C   0  0  0  0  0  0  0  0  0  0  0  0
   26.2246  -20.3996  -10.3810 C   0  0  0  0  0  0  0  0  0  0  0  0
   25.9278  -20.7799  -11.7912 C   0  0  2  0  0  0  0  0  0  0  0  0
   27.0509  -20.4452  -12.6558 N   0  0  0  0  0  0  0  0  0  0  0  0
   24.6330  -20.3196  -12.3302 C   0  0  0  0  0  0  0  0  0  0  0  0
   24.5430  -19.0951  -12.6318 O   0  0  0  0  0  0  0  0  0  0  0  0
   21.9022  -22.9428  -14.1910 O   0  0  0  0  0  0  0  0  0  0  0  0
   22.1763  -21.6006  -14.4291 C   0  0  0  0  0  0  0  0  0  0  0  0
   22.3281  -20.8159  -13.1405 C   0  0  2  0  0  0  0  0  0  0  0  0
   23.5476  -21.2206  -12.4947 N   0  0  0  0  0  0  0  0  0  0  0  0
   21.1418  -20.9632  -12.2672 C   0  0  0  0  0  0  0  0  0  0  0  0
   20.0079  -20.6048  -12.6722 O   0  0  0  0  0  0  0  0  0  0  0  0
   21.1990  -21.4891  -10.9854 O   0  0  0  0  0  0  0  0  0  0  0  0
  2  1  1  0
  3  4  1  0
  3  2  1  0
  4  5  1  0
  5  1  1  0
  5  6  1  6
  7  6  2  0
  9  8  1  1
  9 10  1  0
  9 11  1  0
 12 11  1  1
 12 13  1  0
 12 14  1  0
 13  6  1  0
 14 15  2  0
 17 16  1  0
 18 17  1  6
 19 14  1  0
 19 18  1  0
 20 18  1  0
 20 22  1  0
 21 20  2  0
M  END
$$$$
