PLS.pdb
     RDKit          3D

 22 22  0  0  1  0  0  0  0  0999 V2000
   28.5950  -20.8267  -16.3255 N   0  0  0  0  0  0  0  0  0  0  0  0
   29.1035  -19.9201  -17.3413 C   0  0  0  0  0  0  0  0  0  0  0  0
   28.0468  -18.8362  -17.3322 C   0  0  0  0  0  0  0  0  0  0  0  0
   27.7096  -18.6718  -15.8572 C   0  0  0  0  0  0  0  0  0  0  0  0
   28.1797  -19.9438  -15.2621 C   0  0  1  0  0  0  0  0  0  0  0  0
   27.2331  -20.5802  -14.3290 C   0  0  0  0  0  0  0  0  0  0  0  0
   26.6269  -21.6097  -14.7444 O   0  0  0  0  0  0  0  0  0  0  0  0
   23.9706  -20.4326   -9.7685 C   0  0  0  0  0  0  0  0  0  0  0  0
   25.3626  -21.1051   -9.7311 C   0  0  2  0  0  0  0  0  0  0  0  0
   25.8746  -20.7777   -8.3298 C   0  0  0  0  0  0  0  0  0  0  0  0
   26.2673  -20.4973  -10.7377 C   0  0  0  0  0  0  0  0  0  0  0  0
   25.9424  -20.7386  -12.1722 C   0  0  2  0  0  0  0  0  0  0  0  0
   26.9544  -20.1395  -13.0311 N   0  0  0  0  0  0  0  0  0  0  0  0
   24.5663  -20.4080  -12.5918 C   0  0  0  0  0  0  0  0  0  0  0  0
   24.3018  -19.1844  -12.7685 O   0  0  0  0  0  0  0  0  0  0  0  0
   20.8389  -22.0285  -15.0858 O   0  0  0  0  0  0  0  0  0  0  0  0
   22.0720  -22.2049  -14.4676 C   0  0  0  0  0  0  0  0  0  0  0  0
   22.3311  -21.1503  -13.4093 C   0  0  2  0  0  0  0  0  0  0  0  0
   23.5952  -21.4267  -12.7821 N   0  0  0  0  0  0  0  0  0  0  0  0
   21.2170  -21.0641  -12.4384 C   0  0  0  0  0  0  0  0  0  0  0  0
   21.3735  -21.4607  -11.2567 O   0  0  0  0  0  0  0  0  0  0  0  0
   19.9661  -20.5568  -12.7560 O   0  0  0  0  0  0  0  0  0  0  0  0
  2  1  1  0
  3  4  1  0
  3  2  1  0
  4  5  1  0
  5  1  1  0
  5  6  1  6
  7  6  2  0
  9  8  1  1
  9 10  1  0
  9 11  1  0
 12 11  1  1
 12 13  1  0
 12 14  1  0
 13  6  1  0
 14 15  2  0
 17 16  1  0
 18 17  1  6
 19 14  1  0
 19 18  1  0
 20 18  1  0
 20 22  1  0
 21 20  2  0
M  END
$$$$
