PLS.pdb
     RDKit          3D

 22 22  0  0  1  0  0  0  0  0999 V2000
   27.4301  -19.0661  -16.3372 N   0  0  0  0  0  0  0  0  0  0  0  0
   28.6186  -18.7655  -17.1179 C   0  0  0  0  0  0  0  0  0  0  0  0
   29.6374  -19.6852  -16.4795 C   0  0  0  0  0  0  0  0  0  0  0  0
   28.8551  -20.9636  -16.2145 C   0  0  0  0  0  0  0  0  0  0  0  0
   27.4470  -20.5056  -16.2367 C   0  0  1  0  0  0  0  0  0  0  0  0
   26.6123  -21.0103  -15.1320 C   0  0  0  0  0  0  0  0  0  0  0  0
   26.3673  -22.2512  -15.1224 O   0  0  0  0  0  0  0  0  0  0  0  0
   25.2547  -19.9902   -9.3075 C   0  0  0  0  0  0  0  0  0  0  0  0
   24.9378  -20.8648  -10.5428 C   0  0  2  0  0  0  0  0  0  0  0  0
   25.3839  -22.2602  -10.1105 C   0  0  0  0  0  0  0  0  0  0  0  0
   25.7420  -20.4337  -11.7126 C   0  0  0  0  0  0  0  0  0  0  0  0
   25.1994  -20.7570  -13.0626 C   0  0  2  0  0  0  0  0  0  0  0  0
   26.0741  -20.2320  -14.1019 N   0  0  0  0  0  0  0  0  0  0  0  0
   23.7787  -20.4262  -13.2887 C   0  0  0  0  0  0  0  0  0  0  0  0
   23.4658  -19.2017  -13.2585 O   0  0  0  0  0  0  0  0  0  0  0  0
   20.9406  -23.4373  -14.3177 O   0  0  0  0  0  0  0  0  0  0  0  0
   20.9339  -22.1475  -14.8373 C   0  0  0  0  0  0  0  0  0  0  0  0
   21.4513  -21.1314  -13.8377 C   0  0  2  0  0  0  0  0  0  0  0  0
   22.8192  -21.4462  -13.5256 N   0  0  0  0  0  0  0  0  0  0  0  0
   20.5914  -21.0603  -12.6348 C   0  0  0  0  0  0  0  0  0  0  0  0
   21.0534  -21.3621  -11.5062 O   0  0  0  0  0  0  0  0  0  0  0  0
   19.2616  -20.6688  -12.6701 O   0  0  0  0  0  0  0  0  0  0  0  0
  2  1  1  0
  3  4  1  0
  3  2  1  0
  4  5  1  0
  5  1  1  0
  5  6  1  1
  7  6  2  0
  9  8  1  1
  9 10  1  0
  9 11  1  0
 12 11  1  1
 12 13  1  0
 12 14  1  0
 13  6  1  0
 14 15  2  0
 17 16  1  0
 18 17  1  6
 19 14  1  0
 19 18  1  0
 20 18  1  0
 20 22  1  0
 21 20  2  0
M  END
$$$$
