FFH.pdb
     RDKit          3D

 33 35  0  0  1  0  0  0  0  0999 V2000
   29.0534  -32.1682  -15.9085 N   0  0  0  0  0  0  0  0  0  0  0  0
   27.9634  -31.5806  -16.6307 C   0  0  1  0  0  0  0  0  0  0  0  0
   26.6187  -32.1814  -16.2095 C   0  0  0  0  0  0  0  0  0  0  0  0
   26.4888  -33.5548  -16.7763 C   0  0  0  0  0  0  0  0  0  0  0  0
   26.7376  -34.6829  -16.0209 C   0  0  0  0  0  0  0  0  0  0  0  0
   26.6173  -35.9667  -16.5484 C   0  0  0  0  0  0  0  0  0  0  0  0
   26.2442  -36.1415  -17.8464 C   0  0  0  0  0  0  0  0  0  0  0  0
   25.9896  -35.0410  -18.6240 C   0  0  0  0  0  0  0  0  0  0  0  0
   26.1122  -33.7546  -18.0888 C   0  0  0  0  0  0  0  0  0  0  0  0
   27.9436  -30.1167  -16.5755 C   0  0  0  0  0  0  0  0  0  0  0  0
   28.3223  -29.5149  -15.5120 O   0  0  0  0  0  0  0  0  0  0  0  0
   27.5264  -29.2796  -17.6366 N   0  0  0  0  0  0  0  0  0  0  0  0
   27.6395  -27.8255  -17.5865 C   0  0  1  0  0  0  0  0  0  0  0  0
   28.7073  -27.3220  -18.5075 C   0  0  0  0  0  0  0  0  0  0  0  0
   28.8268  -25.8834  -18.6198 C   0  0  0  0  0  0  0  0  0  0  0  0
   28.2055  -25.1466  -19.6303 C   0  0  0  0  0  0  0  0  0  0  0  0
   28.3577  -23.7890  -19.6765 C   0  0  0  0  0  0  0  0  0  0  0  0
   29.1247  -23.1408  -18.7263 C   0  0  0  0  0  0  0  0  0  0  0  0
   29.7447  -23.8334  -17.7258 C   0  0  0  0  0  0  0  0  0  0  0  0
   29.5856  -25.2063  -17.6864 C   0  0  0  0  0  0  0  0  0  0  0  0
   26.3177  -27.1818  -17.7878 C   0  0  0  0  0  0  0  0  0  0  0  0
   25.5108  -27.5308  -18.6828 O   0  0  0  0  0  0  0  0  0  0  0  0
   25.8718  -26.0843  -16.9393 N   0  0  0  0  0  0  0  0  0  0  0  0
   24.5681  -25.5208  -17.1007 C   0  0  1  0  0  0  0  0  0  0  0  0
   23.7335  -25.7516  -15.8890 C   0  0  0  0  0  0  0  0  0  0  0  0
   22.7324  -26.8186  -16.0142 C   0  0  0  0  0  0  0  0  0  0  0  0
   22.6250  -28.0519  -15.4472 C   0  0  0  0  0  0  0  0  0  0  0  0
   21.4711  -28.6249  -15.8840 N   0  0  0  0  0  0  0  0  0  0  0  0
   20.8831  -27.7584  -16.7022 C   0  0  0  0  0  0  0  0  0  0  0  0
   21.6147  -26.6482  -16.8096 N   0  0  0  0  0  0  0  0  0  0  0  0
   24.5924  -24.0780  -17.5035 C   0  0  0  0  0  0  0  0  0  0  0  0
   23.7074  -23.5339  -18.4037 O   0  0  0  0  0  0  0  0  0  0  0  0
   25.4752  -23.3597  -16.9737 O   0  0  0  0  0  0  0  0  0  0  0  0
  2  1  1  1
  3  4  1  0
  3  2  1  0
  4  5  2  0
  5  6  1  0
  7  6  2  0
  8  7  1  0
  9  8  2  0
  9  4  1  0
 10  2  1  0
 10 11  2  0
 12 10  1  0
 13 12  1  0
 13 14  1  6
 15 14  1  0
 15 20  1  0
 16 15  2  0
 17 16  1  0
 17 18  2  0
 18 19  1  0
 19 20  2  0
 21 13  1  0
 22 21  2  0
 23 21  1  0
 24 23  1  0
 24 25  1  1
 25 26  1  0
 26 30  1  0
 26 27  2  0
 27 28  1  0
 28 29  1  0
 30 29  2  0
 31 24  1  0
 32 31  1  0
 33 31  2  0
M  END
$$$$
