FFH.pdb
     RDKit          3D

 33 35  0  0  1  0  0  0  0  0999 V2000
   26.6818  -20.9445  -20.4328 N   0  0  0  0  0  0  0  0  0  0  0  0
   26.0092  -20.4841  -19.2536 C   0  0  1  0  0  0  0  0  0  0  0  0
   25.0551  -19.3266  -19.5640 C   0  0  0  0  0  0  0  0  0  0  0  0
   25.8175  -18.2093  -20.1924 C   0  0  0  0  0  0  0  0  0  0  0  0
   26.7741  -17.4968  -19.4979 C   0  0  0  0  0  0  0  0  0  0  0  0
   27.4872  -16.4526  -20.0828 C   0  0  0  0  0  0  0  0  0  0  0  0
   27.2522  -16.1043  -21.3782 C   0  0  0  0  0  0  0  0  0  0  0  0
   26.3080  -16.7925  -22.0961 C   0  0  0  0  0  0  0  0  0  0  0  0
   25.5953  -17.8399  -21.5033 C   0  0  0  0  0  0  0  0  0  0  0  0
   25.3406  -21.5510  -18.5044 C   0  0  0  0  0  0  0  0  0  0  0  0
   24.8006  -22.5267  -19.1315 O   0  0  0  0  0  0  0  0  0  0  0  0
   25.2366  -21.5974  -17.0945 N   0  0  0  0  0  0  0  0  0  0  0  0
   24.5617  -22.6812  -16.3878 C   0  0  1  0  0  0  0  0  0  0  0  0
   25.4533  -23.3136  -15.3645 C   0  0  0  0  0  0  0  0  0  0  0  0
   26.5646  -24.0870  -15.8774 C   0  0  0  0  0  0  0  0  0  0  0  0
   27.7308  -23.5024  -16.3757 C   0  0  0  0  0  0  0  0  0  0  0  0
   28.7440  -24.2921  -16.8427 C   0  0  0  0  0  0  0  0  0  0  0  0
   28.6197  -25.6689  -16.8240 C   0  0  0  0  0  0  0  0  0  0  0  0
   27.4921  -26.2705  -16.3431 C   0  0  0  0  0  0  0  0  0  0  0  0
   26.4720  -25.4644  -15.8726 C   0  0  0  0  0  0  0  0  0  0  0  0
   23.2527  -22.2327  -15.8515 C   0  0  0  0  0  0  0  0  0  0  0  0
   23.0671  -21.0995  -15.3461 O   0  0  0  0  0  0  0  0  0  0  0  0
   22.0832  -23.1012  -15.8821 N   0  0  0  0  0  0  0  0  0  0  0  0
   20.8142  -22.6323  -15.4203 C   0  0  1  0  0  0  0  0  0  0  0  0
   20.4077  -21.3950  -16.1426 C   0  0  0  0  0  0  0  0  0  0  0  0
   19.0534  -20.9130  -15.8423 C   0  0  0  0  0  0  0  0  0  0  0  0
   17.8486  -21.1180  -16.4428 C   0  0  0  0  0  0  0  0  0  0  0  0
   16.8968  -20.4581  -15.7292 N   0  0  0  0  0  0  0  0  0  0  0  0
   17.5074  -19.8613  -14.7108 C   0  0  0  0  0  0  0  0  0  0  0  0
   18.8174  -20.1113  -14.7412 N   0  0  0  0  0  0  0  0  0  0  0  0
   19.7467  -23.6829  -15.4544 C   0  0  0  0  0  0  0  0  0  0  0  0
   18.6323  -23.6486  -14.6502 O   0  0  0  0  0  0  0  0  0  0  0  0
   19.9084  -24.6247  -16.2686 O   0  0  0  0  0  0  0  0  0  0  0  0
  2  1  1  6
  3  4  1  0
  3  2  1  0
  4  5  2  0
  5  6  1  0
  7  6  2  0
  8  7  1  0
  9  8  2  0
  9  4  1  0
 10  2  1  0
 10 11  2  0
 12 10  1  0
 13 12  1  0
 13 14  1  1
 15 14  1  0
 15 20  1  0
 16 15  2  0
 17 16  1  0
 17 18  2  0
 18 19  1  0
 19 20  2  0
 21 13  1  0
 22 21  2  0
 23 21  1  0
 24 23  1  0
 24 25  1  6
 25 26  1  0
 26 30  1  0
 26 27  2  0
 27 28  1  0
 28 29  1  0
 30 29  2  0
 31 24  1  0
 32 31  1  0
 33 31  2  0
M  END
$$$$
