FFH.pdb
     RDKit          3D

 33 35  0  0  1  0  0  0  0  0999 V2000
   28.8382  -19.9576  -14.4107 N   0  0  0  0  0  0  0  0  0  0  0  0
   27.6212  -19.3770  -13.9242 C   0  0  1  0  0  0  0  0  0  0  0  0
   26.7941  -18.7665  -15.0599 C   0  0  0  0  0  0  0  0  0  0  0  0
   27.4255  -17.4902  -15.5038 C   0  0  0  0  0  0  0  0  0  0  0  0
   27.3762  -16.3452  -14.7347 C   0  0  0  0  0  0  0  0  0  0  0  0
   27.9650  -15.1519  -15.1475 C   0  0  0  0  0  0  0  0  0  0  0  0
   28.6152  -15.0867  -16.3423 C   0  0  0  0  0  0  0  0  0  0  0  0
   28.6822  -16.2070  -17.1303 C   0  0  0  0  0  0  0  0  0  0  0  0
   28.0891  -17.4020  -16.7105 C   0  0  0  0  0  0  0  0  0  0  0  0
   26.8223  -20.2897  -13.1026 C   0  0  0  0  0  0  0  0  0  0  0  0
   26.6791  -21.5092  -13.4620 O   0  0  0  0  0  0  0  0  0  0  0  0
   26.1711  -19.9256  -11.9009 N   0  0  0  0  0  0  0  0  0  0  0  0
   25.2668  -20.8233  -11.1895 C   0  0  1  0  0  0  0  0  0  0  0  0
   25.2865  -20.5722   -9.7135 C   0  0  0  0  0  0  0  0  0  0  0  0
   26.5881  -20.5952   -9.0798 C   0  0  0  0  0  0  0  0  0  0  0  0
   27.6480  -21.3733   -9.5502 C   0  0  0  0  0  0  0  0  0  0  0  0
   28.8529  -21.3461   -8.9053 C   0  0  0  0  0  0  0  0  0  0  0  0
   29.0275  -20.5508   -7.7879 C   0  0  0  0  0  0  0  0  0  0  0  0
   28.0106  -19.7788   -7.3037 C   0  0  0  0  0  0  0  0  0  0  0  0
   26.7951  -19.8121   -7.9619 C   0  0  0  0  0  0  0  0  0  0  0  0
   23.9090  -20.7941  -11.7875 C   0  0  0  0  0  0  0  0  0  0  0  0
   23.1602  -19.7883  -11.7475 O   0  0  0  0  0  0  0  0  0  0  0  0
   23.3560  -21.9567  -12.4699 N   0  0  0  0  0  0  0  0  0  0  0  0
   22.0545  -21.9061  -13.0589 C   0  0  1  0  0  0  0  0  0  0  0  0
   21.7838  -23.1318  -13.8604 C   0  0  0  0  0  0  0  0  0  0  0  0
   20.4851  -23.1558  -14.5454 C   0  0  0  0  0  0  0  0  0  0  0  0
   19.8273  -22.2367  -15.3049 C   0  0  0  0  0  0  0  0  0  0  0  0
   18.6594  -22.7897  -15.7302 N   0  0  0  0  0  0  0  0  0  0  0  0
   18.6039  -24.0241  -15.2409 C   0  0  0  0  0  0  0  0  0  0  0  0
   19.6921  -24.2877  -14.5158 N   0  0  0  0  0  0  0  0  0  0  0  0
   20.9664  -21.6275  -12.0675 C   0  0  0  0  0  0  0  0  0  0  0  0
   19.8640  -20.8592  -12.3575 O   0  0  0  0  0  0  0  0  0  0  0  0
   21.0986  -22.1365  -10.9275 O   0  0  0  0  0  0  0  0  0  0  0  0
  2  1  1  6
  3  4  1  0
  3  2  1  0
  4  5  2  0
  5  6  1  0
  7  6  2  0
  8  7  1  0
  9  8  2  0
  9  4  1  0
 10  2  1  0
 10 11  2  0
 12 10  1  0
 13 12  1  0
 13 14  1  1
 15 14  1  0
 15 20  1  0
 16 15  2  0
 17 16  1  0
 17 18  2  0
 18 19  1  0
 19 20  2  0
 21 13  1  0
 22 21  2  0
 23 21  1  0
 24 23  1  0
 24 25  1  1
 25 26  1  0
 26 30  1  0
 26 27  2  0
 27 28  1  0
 28 29  1  0
 30 29  2  0
 31 24  1  0
 32 31  1  0
 33 31  2  0
M  END
$$$$
