FFH.pdb
     RDKit          3D

 33 35  0  0  1  0  0  0  0  0999 V2000
   36.9464  -24.0631    5.6324 N   0  0  0  0  0  0  0  0  0  0  0  0
   35.7859  -23.3736    6.1149 C   0  0  1  0  0  0  0  0  0  0  0  0
   34.4935  -24.0234    5.6107 C   0  0  0  0  0  0  0  0  0  0  0  0
   33.3207  -23.2479    6.1084 C   0  0  0  0  0  0  0  0  0  0  0  0
   32.5701  -23.6711    7.1865 C   0  0  0  0  0  0  0  0  0  0  0  0
   31.4739  -22.9486    7.6528 C   0  0  0  0  0  0  0  0  0  0  0  0
   31.1110  -21.7859    7.0438 C   0  0  0  0  0  0  0  0  0  0  0  0
   31.8363  -21.3377    5.9697 C   0  0  0  0  0  0  0  0  0  0  0  0
   32.9357  -22.0675    5.5061 C   0  0  0  0  0  0  0  0  0  0  0  0
   35.7709  -23.1954    7.5691 C   0  0  0  0  0  0  0  0  0  0  0  0
   36.0826  -24.1730    8.3332 O   0  0  0  0  0  0  0  0  0  0  0  0
   35.4287  -21.9904    8.2260 N   0  0  0  0  0  0  0  0  0  0  0  0
   35.5174  -21.8274    9.6735 C   0  0  1  0  0  0  0  0  0  0  0  0
   35.7371  -20.3967   10.0564 C   0  0  0  0  0  0  0  0  0  0  0  0
   35.8578  -20.1269   11.4738 C   0  0  0  0  0  0  0  0  0  0  0  0
   37.0433  -20.3218   12.1855 C   0  0  0  0  0  0  0  0  0  0  0  0
   37.0892  -20.0443   13.5232 C   0  0  0  0  0  0  0  0  0  0  0  0
   35.9661  -19.5709   14.1758 C   0  0  0  0  0  0  0  0  0  0  0  0
   34.7923  -19.3699   13.5075 C   0  0  0  0  0  0  0  0  0  0  0  0
   34.7544  -19.6531   12.1547 C   0  0  0  0  0  0  0  0  0  0  0  0
   34.3601  -22.4617   10.3521 C   0  0  0  0  0  0  0  0  0  0  0  0
   33.1687  -22.2613   10.0140 O   0  0  0  0  0  0  0  0  0  0  0  0
   34.5454  -23.3730   11.4738 N   0  0  0  0  0  0  0  0  0  0  0  0
   33.4215  -23.9927   12.1034 C   0  0  1  0  0  0  0  0  0  0  0  0
   33.6160  -25.4653   12.2121 C   0  0  0  0  0  0  0  0  0  0  0  0
   32.5040  -26.1980   12.8311 C   0  0  0  0  0  0  0  0  0  0  0  0
   31.1522  -26.1078   12.6945 C   0  0  0  0  0  0  0  0  0  0  0  0
   30.5781  -27.0570   13.4819 N   0  0  0  0  0  0  0  0  0  0  0  0
   31.5599  -27.7160   14.0883 C   0  0  0  0  0  0  0  0  0  0  0  0
   32.7456  -27.2273   13.7217 N   0  0  0  0  0  0  0  0  0  0  0  0
   33.0628  -23.3717   13.4188 C   0  0  0  0  0  0  0  0  0  0  0  0
   31.7679  -23.1078   13.7971 O   0  0  0  0  0  0  0  0  0  0  0  0
   34.0144  -23.0926   14.1886 O   0  0  0  0  0  0  0  0  0  0  0  0
  2  1  1  1
  3  4  1  0
  3  2  1  0
  4  5  2  0
  5  6  1  0
  7  6  2  0
  8  7  1  0
  9  8  2  0
  9  4  1  0
 10  2  1  0
 10 11  2  0
 12 10  1  0
 13 12  1  0
 13 14  1  6
 15 14  1  0
 15 20  1  0
 16 15  2  0
 17 16  1  0
 17 18  2  0
 18 19  1  0
 19 20  2  0
 21 13  1  0
 22 21  2  0
 23 21  1  0
 24 23  1  0
 24 25  1  1
 25 26  1  0
 26 30  1  0
 26 27  2  0
 27 28  1  0
 28 29  1  0
 30 29  2  0
 31 24  1  0
 32 31  1  0
 33 31  2  0
M  END
$$$$
