FFH.pdb
     RDKit          3D

 33 35  0  0  1  0  0  0  0  0999 V2000
   28.8189  -20.5125  -14.4726 N   0  0  0  0  0  0  0  0  0  0  0  0
   27.7162  -19.7807  -13.9218 C   0  0  1  0  0  0  0  0  0  0  0  0
   26.8936  -19.0922  -15.0154 C   0  0  0  0  0  0  0  0  0  0  0  0
   27.6847  -17.9716  -15.6009 C   0  0  0  0  0  0  0  0  0  0  0  0
   27.7804  -16.7429  -14.9795 C   0  0  0  0  0  0  0  0  0  0  0  0
   28.5185  -15.6946  -15.5248 C   0  0  0  0  0  0  0  0  0  0  0  0
   29.1752  -15.8615  -16.7061 C   0  0  0  0  0  0  0  0  0  0  0  0
   29.1003  -17.0705  -17.3490 C   0  0  0  0  0  0  0  0  0  0  0  0
   28.3576  -18.1191  -16.7966 C   0  0  0  0  0  0  0  0  0  0  0  0
   26.8707  -20.5766  -13.0283 C   0  0  0  0  0  0  0  0  0  0  0  0
   26.5160  -21.7568  -13.3720 O   0  0  0  0  0  0  0  0  0  0  0  0
   26.3949  -20.1364  -11.7711 N   0  0  0  0  0  0  0  0  0  0  0  0
   25.3012  -20.7965  -11.0656 C   0  0  1  0  0  0  0  0  0  0  0  0
   25.3584  -20.5383   -9.5918 C   0  0  0  0  0  0  0  0  0  0  0  0
   26.6572  -20.6835   -8.9686 C   0  0  0  0  0  0  0  0  0  0  0  0
   27.6381  -21.5524   -9.4513 C   0  0  0  0  0  0  0  0  0  0  0  0
   28.8452  -21.6388   -8.8158 C   0  0  0  0  0  0  0  0  0  0  0  0
   29.1001  -20.8692   -7.6960 C   0  0  0  0  0  0  0  0  0  0  0  0
   28.1615  -20.0103   -7.1998 C   0  0  0  0  0  0  0  0  0  0  0  0
   26.9432  -19.9289   -7.8486 C   0  0  0  0  0  0  0  0  0  0  0  0
   23.9933  -20.4673  -11.6846 C   0  0  0  0  0  0  0  0  0  0  0  0
   23.7702  -19.3930  -12.2930 O   0  0  0  0  0  0  0  0  0  0  0  0
   22.8697  -21.3926  -11.6199 N   0  0  0  0  0  0  0  0  0  0  0  0
   21.7194  -21.2021  -12.4469 C   0  0  1  0  0  0  0  0  0  0  0  0
   21.9164  -21.8236  -13.7860 C   0  0  0  0  0  0  0  0  0  0  0  0
   20.7633  -21.7358  -14.6910 C   0  0  0  0  0  0  0  0  0  0  0  0
   19.5247  -21.1870  -14.5540 C   0  0  0  0  0  0  0  0  0  0  0  0
   18.8501  -21.3555  -15.7232 N   0  0  0  0  0  0  0  0  0  0  0  0
   19.6607  -21.9946  -16.5601 C   0  0  0  0  0  0  0  0  0  0  0  0
   20.8327  -22.2449  -15.9743 N   0  0  0  0  0  0  0  0  0  0  0  0
   20.4441  -21.6480  -11.7993 C   0  0  0  0  0  0  0  0  0  0  0  0
   20.2305  -22.9354  -11.3675 O   0  0  0  0  0  0  0  0  0  0  0  0
   19.5494  -20.7786  -11.6587 O   0  0  0  0  0  0  0  0  0  0  0  0
  2  1  1  6
  3  4  1  0
  3  2  1  0
  4  5  2  0
  5  6  1  0
  7  6  2  0
  8  7  1  0
  9  8  2  0
  9  4  1  0
 10  2  1  0
 10 11  2  0
 12 10  1  0
 13 12  1  0
 13 14  1  1
 15 14  1  0
 15 20  1  0
 16 15  2  0
 17 16  1  0
 17 18  2  0
 18 19  1  0
 19 20  2  0
 21 13  1  0
 22 21  2  0
 23 21  1  0
 24 23  1  0
 24 25  1  6
 25 26  1  0
 26 30  1  0
 26 27  2  0
 27 28  1  0
 28 29  1  0
 30 29  2  0
 31 24  1  0
 32 31  1  0
 33 31  2  0
M  END
$$$$
