FFH.pdb
     RDKit          3D

 33 35  0  0  1  0  0  0  0  0999 V2000
   22.7865  -10.1589  -19.7605 N   0  0  0  0  0  0  0  0  0  0  0  0
   21.7207   -9.6919  -18.9233 C   0  0  1  0  0  0  0  0  0  0  0  0
   21.3616  -10.7169  -17.8429 C   0  0  0  0  0  0  0  0  0  0  0  0
   20.8301  -11.9525  -18.4874 C   0  0  0  0  0  0  0  0  0  0  0  0
   21.5562  -13.1256  -18.5266 C   0  0  0  0  0  0  0  0  0  0  0  0
   21.0618  -14.2808  -19.1284 C   0  0  0  0  0  0  0  0  0  0  0  0
   19.8271  -14.2789  -19.7027 C   0  0  0  0  0  0  0  0  0  0  0  0
   19.0800  -13.1291  -19.6808 C   0  0  0  0  0  0  0  0  0  0  0  0
   19.5817  -11.9726  -19.0752 C   0  0  0  0  0  0  0  0  0  0  0  0
   21.9612   -8.3645  -18.3518 C   0  0  0  0  0  0  0  0  0  0  0  0
   23.1397   -8.0374  -17.9763 O   0  0  0  0  0  0  0  0  0  0  0  0
   20.9656   -7.3759  -18.1726 N   0  0  0  0  0  0  0  0  0  0  0  0
   21.2595   -6.0444  -17.6526 C   0  0  1  0  0  0  0  0  0  0  0  0
   20.7946   -4.9709  -18.5872 C   0  0  0  0  0  0  0  0  0  0  0  0
   19.3692   -4.9137  -18.8346 C   0  0  0  0  0  0  0  0  0  0  0  0
   18.5014   -4.1096  -18.0927 C   0  0  0  0  0  0  0  0  0  0  0  0
   17.1653   -4.1009  -18.3809 C   0  0  0  0  0  0  0  0  0  0  0  0
   16.6681   -4.8855  -19.4050 C   0  0  0  0  0  0  0  0  0  0  0  0
   17.4910   -5.6822  -20.1485 C   0  0  0  0  0  0  0  0  0  0  0  0
   18.8411   -5.6851  -19.8504 C   0  0  0  0  0  0  0  0  0  0  0  0
   20.7581   -5.8929  -16.2642 C   0  0  0  0  0  0  0  0  0  0  0  0
   19.7418   -6.4868  -15.8301 O   0  0  0  0  0  0  0  0  0  0  0  0
   21.4319   -5.0274  -15.3051 N   0  0  0  0  0  0  0  0  0  0  0  0
   20.8536   -4.7693  -14.0235 C   0  0  1  0  0  0  0  0  0  0  0  0
   21.4497   -5.6514  -12.9820 C   0  0  0  0  0  0  0  0  0  0  0  0
   20.8986   -5.4833  -11.6313 C   0  0  0  0  0  0  0  0  0  0  0  0
   19.8902   -4.7131  -11.1373 C   0  0  0  0  0  0  0  0  0  0  0  0
   19.7694   -4.9680   -9.8065 N   0  0  0  0  0  0  0  0  0  0  0  0
   20.6860   -5.8775   -9.4921 C   0  0  0  0  0  0  0  0  0  0  0  0
   21.3935   -6.2184  -10.5704 N   0  0  0  0  0  0  0  0  0  0  0  0
   20.8999   -3.3236  -13.6334 C   0  0  0  0  0  0  0  0  0  0  0  0
   20.0861   -2.7791  -12.6686 O   0  0  0  0  0  0  0  0  0  0  0  0
   21.7339   -2.6037  -14.2352 O   0  0  0  0  0  0  0  0  0  0  0  0
  2  1  1  1
  3  4  1  0
  3  2  1  0
  4  5  2  0
  5  6  1  0
  7  6  2  0
  8  7  1  0
  9  8  2  0
  9  4  1  0
 10  2  1  0
 10 11  2  0
 12 10  1  0
 13 12  1  0
 13 14  1  6
 15 14  1  0
 15 20  1  0
 16 15  2  0
 17 16  1  0
 17 18  2  0
 18 19  1  0
 19 20  2  0
 21 13  1  0
 22 21  2  0
 23 21  1  0
 24 23  1  0
 24 25  1  1
 25 26  1  0
 26 30  1  0
 26 27  2  0
 27 28  1  0
 28 29  1  0
 30 29  2  0
 31 24  1  0
 32 31  1  0
 33 31  2  0
M  END
$$$$
