FFH.pdb
     RDKit          3D

 33 35  0  0  1  0  0  0  0  0999 V2000
   19.8444   -9.0878  -17.6612 N   0  0  0  0  0  0  0  0  0  0  0  0
   19.9177   -7.8251  -16.9865 C   0  0  1  0  0  0  0  0  0  0  0  0
   18.8154   -6.8703  -17.4554 C   0  0  0  0  0  0  0  0  0  0  0  0
   19.0530   -6.4987  -18.8802 C   0  0  0  0  0  0  0  0  0  0  0  0
   20.0040   -5.5664  -19.2427 C   0  0  0  0  0  0  0  0  0  0  0  0
   20.2273   -5.2176  -20.5729 C   0  0  0  0  0  0  0  0  0  0  0  0
   19.4983   -5.7996  -21.5650 C   0  0  0  0  0  0  0  0  0  0  0  0
   18.5453   -6.7300  -21.2382 C   0  0  0  0  0  0  0  0  0  0  0  0
   18.3257   -7.0761  -19.9010 C   0  0  0  0  0  0  0  0  0  0  0  0
   19.9493   -7.9405  -15.5263 C   0  0  0  0  0  0  0  0  0  0  0  0
   19.0918   -8.6774  -14.9275 O   0  0  0  0  0  0  0  0  0  0  0  0
   20.8810   -7.2827  -14.6897 N   0  0  0  0  0  0  0  0  0  0  0  0
   20.8355   -7.3720  -13.2338 C   0  0  1  0  0  0  0  0  0  0  0  0
   22.2051   -7.3048  -12.6326 C   0  0  0  0  0  0  0  0  0  0  0  0
   22.2721   -7.3768  -11.1881 C   0  0  0  0  0  0  0  0  0  0  0  0
   22.4029   -8.5810  -10.4932 C   0  0  0  0  0  0  0  0  0  0  0  0
   22.4629   -8.5774   -9.1276 C   0  0  0  0  0  0  0  0  0  0  0  0
   22.3946   -7.3858   -8.4300 C   0  0  0  0  0  0  0  0  0  0  0  0
   22.2666   -6.1920   -9.0808 C   0  0  0  0  0  0  0  0  0  0  0  0
   22.2067   -6.2045  -10.4621 C   0  0  0  0  0  0  0  0  0  0  0  0
   19.8810   -6.3853  -12.6700 C   0  0  0  0  0  0  0  0  0  0  0  0
   19.8472   -5.1814  -13.0211 O   0  0  0  0  0  0  0  0  0  0  0  0
   18.9079   -6.7667  -11.6547 N   0  0  0  0  0  0  0  0  0  0  0  0
   18.0661   -5.7847  -11.0460 C   0  0  1  0  0  0  0  0  0  0  0  0
   16.6921   -5.8312  -11.6186 C   0  0  0  0  0  0  0  0  0  0  0  0
   15.7726   -4.8005  -11.1200 C   0  0  0  0  0  0  0  0  0  0  0  0
   15.5366   -4.3008   -9.8755 C   0  0  0  0  0  0  0  0  0  0  0  0
   14.5964   -3.3231   -9.9780 N   0  0  0  0  0  0  0  0  0  0  0  0
   14.2639   -3.2256  -11.2609 C   0  0  0  0  0  0  0  0  0  0  0  0
   14.9543   -4.1041  -11.9896 N   0  0  0  0  0  0  0  0  0  0  0  0
   18.0574   -5.8580   -9.5496 C   0  0  0  0  0  0  0  0  0  0  0  0
   17.6826   -4.8063   -8.7477 O   0  0  0  0  0  0  0  0  0  0  0  0
   18.4139   -6.9469   -9.0365 O   0  0  0  0  0  0  0  0  0  0  0  0
  2  1  1  6
  3  4  1  0
  3  2  1  0
  4  5  2  0
  5  6  1  0
  7  6  2  0
  8  7  1  0
  9  8  2  0
  9  4  1  0
 10  2  1  0
 10 11  2  0
 12 10  1  0
 13 12  1  0
 13 14  1  1
 15 14  1  0
 15 20  1  0
 16 15  2  0
 17 16  1  0
 17 18  2  0
 18 19  1  0
 19 20  2  0
 21 13  1  0
 22 21  2  0
 23 21  1  0
 24 23  1  0
 24 25  1  6
 25 26  1  0
 26 30  1  0
 26 27  2  0
 27 28  1  0
 28 29  1  0
 30 29  2  0
 31 24  1  0
 32 31  1  0
 33 31  2  0
M  END
$$$$
