FFH.pdb
     RDKit          3D

 33 35  0  0  1  0  0  0  0  0999 V2000
   27.7656  -20.9669  -17.0570 N   0  0  0  0  0  0  0  0  0  0  0  0
   27.7826  -20.2162  -15.8359 C   0  0  1  0  0  0  0  0  0  0  0  0
   27.3116  -18.7748  -16.0533 C   0  0  0  0  0  0  0  0  0  0  0  0
   28.2457  -18.0825  -16.9875 C   0  0  0  0  0  0  0  0  0  0  0  0
   29.5878  -17.9347  -16.7015 C   0  0  0  0  0  0  0  0  0  0  0  0
   30.4621  -17.2880  -17.5725 C   0  0  0  0  0  0  0  0  0  0  0  0
   30.0036  -16.7773  -18.7487 C   0  0  0  0  0  0  0  0  0  0  0  0
   28.6750  -16.9075  -19.0628 C   0  0  0  0  0  0  0  0  0  0  0  0
   27.8023  -17.5577  -18.1843 C   0  0  0  0  0  0  0  0  0  0  0  0
   27.0584  -20.8629  -14.7387 C   0  0  0  0  0  0  0  0  0  0  0  0
   25.9697  -21.4908  -14.9778 O   0  0  0  0  0  0  0  0  0  0  0  0
   27.4746  -20.8527  -13.3869 N   0  0  0  0  0  0  0  0  0  0  0  0
   26.6059  -21.2674  -12.2901 C   0  0  1  0  0  0  0  0  0  0  0  0
   27.3325  -21.2726  -10.9810 C   0  0  0  0  0  0  0  0  0  0  0  0
   26.5484  -20.9241   -9.8147 C   0  0  0  0  0  0  0  0  0  0  0  0
   26.6426  -19.6842   -9.1793 C   0  0  0  0  0  0  0  0  0  0  0  0
   25.8705  -19.4192   -8.0829 C   0  0  0  0  0  0  0  0  0  0  0  0
   24.9956  -20.3743   -7.5992 C   0  0  0  0  0  0  0  0  0  0  0  0
   24.8807  -21.5959   -8.1985 C   0  0  0  0  0  0  0  0  0  0  0  0
   25.6653  -21.8557   -9.3070 C   0  0  0  0  0  0  0  0  0  0  0  0
   25.3496  -20.4776  -12.2787 C   0  0  0  0  0  0  0  0  0  0  0  0
   25.3223  -19.2285  -12.1643 O   0  0  0  0  0  0  0  0  0  0  0  0
   24.0484  -21.1212  -12.4025 N   0  0  0  0  0  0  0  0  0  0  0  0
   22.8548  -20.3406  -12.4999 C   0  0  1  0  0  0  0  0  0  0  0  0
   22.5875  -19.9488  -13.9117 C   0  0  0  0  0  0  0  0  0  0  0  0
   21.3714  -19.1522  -14.1191 C   0  0  0  0  0  0  0  0  0  0  0  0
   20.4100  -18.7003  -13.2673 C   0  0  0  0  0  0  0  0  0  0  0  0
   19.5127  -17.9701  -13.9831 N   0  0  0  0  0  0  0  0  0  0  0  0
   19.9177  -17.9744  -15.2488 C   0  0  0  0  0  0  0  0  0  0  0  0
   21.0424  -18.6802  -15.3761 N   0  0  0  0  0  0  0  0  0  0  0  0
   21.6672  -20.9923  -11.8600 C   0  0  0  0  0  0  0  0  0  0  0  0
   20.7937  -20.3211  -11.0378 O   0  0  0  0  0  0  0  0  0  0  0  0
   21.4905  -22.2101  -12.1085 O   0  0  0  0  0  0  0  0  0  0  0  0
  2  1  1  6
  3  4  1  0
  3  2  1  0
  4  5  2  0
  5  6  1  0
  7  6  2  0
  8  7  1  0
  9  8  2  0
  9  4  1  0
 10  2  1  0
 10 11  2  0
 12 10  1  0
 13 12  1  0
 13 14  1  1
 15 14  1  0
 15 20  1  0
 16 15  2  0
 17 16  1  0
 17 18  2  0
 18 19  1  0
 19 20  2  0
 21 13  1  0
 22 21  2  0
 23 21  1  0
 24 23  1  0
 24 25  1  6
 25 26  1  0
 26 30  1  0
 26 27  2  0
 27 28  1  0
 28 29  1  0
 30 29  2  0
 31 24  1  0
 32 31  1  0
 33 31  2  0
M  END
$$$$
