FFH.pdb
     RDKit          3D

 33 35  0  0  1  0  0  0  0  0999 V2000
   20.4716  -21.6539  -16.4011 N   0  0  0  0  0  0  0  0  0  0  0  0
   20.9949  -21.9952  -15.1109 C   0  0  1  0  0  0  0  0  0  0  0  0
   20.6845  -20.9130  -14.0721 C   0  0  0  0  0  0  0  0  0  0  0  0
   21.3689  -19.6447  -14.4562 C   0  0  0  0  0  0  0  0  0  0  0  0
   22.7212  -19.4551  -14.2554 C   0  0  0  0  0  0  0  0  0  0  0  0
   23.3625  -18.2711  -14.6131 C   0  0  0  0  0  0  0  0  0  0  0  0
   22.6561  -17.2542  -15.1800 C   0  0  0  0  0  0  0  0  0  0  0  0
   21.3105  -17.4108  -15.3931 C   0  0  0  0  0  0  0  0  0  0  0  0
   20.6724  -18.6017  -15.0318 C   0  0  0  0  0  0  0  0  0  0  0  0
   20.5904  -23.3243  -14.6458 C   0  0  0  0  0  0  0  0  0  0  0  0
   19.3482  -23.6047  -14.5231 O   0  0  0  0  0  0  0  0  0  0  0  0
   21.4885  -24.3636  -14.3078 N   0  0  0  0  0  0  0  0  0  0  0  0
   21.0425  -25.6674  -13.8273 C   0  0  1  0  0  0  0  0  0  0  0  0
   22.0759  -26.7255  -14.0602 C   0  0  0  0  0  0  0  0  0  0  0  0
   21.7466  -28.0539  -13.5878 C   0  0  0  0  0  0  0  0  0  0  0  0
   22.0896  -28.5138  -12.3147 C   0  0  0  0  0  0  0  0  0  0  0  0
   21.7452  -29.7797  -11.9310 C   0  0  0  0  0  0  0  0  0  0  0  0
   21.0579  -30.6082  -12.7985 C   0  0  0  0  0  0  0  0  0  0  0  0
   20.7082  -30.1877  -14.0498 C   0  0  0  0  0  0  0  0  0  0  0  0
   21.0604  -28.9058  -14.4299 C   0  0  0  0  0  0  0  0  0  0  0  0
   20.5716  -25.5840  -12.4225 C   0  0  0  0  0  0  0  0  0  0  0  0
   20.9674  -24.7100  -11.6141 O   0  0  0  0  0  0  0  0  0  0  0  0
   19.6021  -26.5325  -11.8904 N   0  0  0  0  0  0  0  0  0  0  0  0
   19.1248  -26.4122  -10.5483 C   0  0  1  0  0  0  0  0  0  0  0  0
   19.3001  -25.0225  -10.0424 C   0  0  0  0  0  0  0  0  0  0  0  0
   18.7539  -24.7721   -8.7025 C   0  0  0  0  0  0  0  0  0  0  0  0
   19.2612  -24.9549   -7.4522 C   0  0  0  0  0  0  0  0  0  0  0  0
   18.3412  -24.5206   -6.5491 N   0  0  0  0  0  0  0  0  0  0  0  0
   17.2910  -24.0796   -7.2338 C   0  0  0  0  0  0  0  0  0  0  0  0
   17.4993  -24.2136   -8.5446 N   0  0  0  0  0  0  0  0  0  0  0  0
   17.7207  -26.9044  -10.3729 C   0  0  0  0  0  0  0  0  0  0  0  0
   17.3245  -27.6843   -9.3125 O   0  0  0  0  0  0  0  0  0  0  0  0
   16.8916  -26.5690  -11.2540 O   0  0  0  0  0  0  0  0  0  0  0  0
  2  1  1  6
  3  4  1  0
  3  2  1  0
  4  5  2  0
  5  6  1  0
  7  6  2  0
  8  7  1  0
  9  8  2  0
  9  4  1  0
 10  2  1  0
 10 11  2  0
 12 10  1  0
 13 12  1  0
 13 14  1  1
 15 14  1  0
 15 20  1  0
 16 15  2  0
 17 16  1  0
 17 18  2  0
 18 19  1  0
 19 20  2  0
 21 13  1  0
 22 21  2  0
 23 21  1  0
 24 23  1  0
 24 25  1  6
 25 26  1  0
 26 30  1  0
 26 27  2  0
 27 28  1  0
 28 29  1  0
 30 29  2  0
 31 24  1  0
 32 31  1  0
 33 31  2  0
M  END
$$$$
