TPY.pdb
     RDKit          3D

 27 28  0  0  1  0  0  0  0  0999 V2000
    9.9935  -13.8557   17.0082 C   0  0  0  0  0  0  0  0  0  0  0  0
    9.6324  -14.3067   18.3944 C   0  0  1  0  0  0  0  0  0  0  0  0
   10.4360  -13.6049   19.2915 O   0  0  0  0  0  0  0  0  0  0  0  0
    8.1917  -13.9382   18.7416 C   0  0  2  0  0  0  0  0  0  0  0  0
    8.0099  -12.5496   18.4909 N   0  0  0  0  0  0  0  0  0  0  0  0
    7.8123  -14.3801   20.0699 C   0  0  0  0  0  0  0  0  0  0  0  0
    8.0038  -13.5995   21.0364 O   0  0  0  0  0  0  0  0  0  0  0  0
    7.2334  -15.6469   20.3465 N   0  0  0  0  0  0  0  0  0  0  0  0
    6.8312  -16.6121   19.3755 C   0  0  0  0  0  0  0  0  0  0  0  0
    6.9257  -17.9500   20.0979 C   0  0  0  0  0  0  0  0  0  0  0  0
    6.3441  -17.5286   21.4544 C   0  0  0  0  0  0  0  0  0  0  0  0
    6.9166  -16.1618   21.6707 C   0  0  1  0  0  0  0  0  0  0  0  0
    8.1239  -16.1882   22.5403 C   0  0  0  0  0  0  0  0  0  0  0  0
    9.3003  -16.1648   22.0746 O   0  0  0  0  0  0  0  0  0  0  0  0
    5.5205  -11.3511   27.2969 O   0  0  0  0  0  0  0  0  0  0  0  0
    6.5220  -12.1597   26.7445 C   0  0  0  0  0  0  0  0  0  0  0  0
    6.4592  -12.4504   25.3959 C   0  0  0  0  0  0  0  0  0  0  0  0
    7.4148  -13.2394   24.7982 C   0  0  0  0  0  0  0  0  0  0  0  0
    8.4549  -13.7559   25.5333 C   0  0  0  0  0  0  0  0  0  0  0  0
    9.4610  -14.6052   24.8523 C   0  0  0  0  0  0  0  0  0  0  0  0
    9.1050  -16.0785   24.8710 C   0  0  2  0  0  0  0  0  0  0  0  0
    7.9899  -16.2415   23.9406 N   0  0  0  0  0  0  0  0  0  0  0  0
    8.7684  -16.5800   26.2127 C   0  0  0  0  0  0  0  0  0  0  0  0
    7.4846  -17.0015   26.5194 O   0  0  0  0  0  0  0  0  0  0  0  0
    8.5130  -13.4640   26.8750 C   0  0  0  0  0  0  0  0  0  0  0  0
    7.5615  -12.6797   27.4649 C   0  0  0  0  0  0  0  0  0  0  0  0
    9.6160  -16.6551   27.1516 O   0  0  0  0  0  0  0  0  0  0  0  0
  2  1  1  6
  2  3  1  0
  4  2  1  0
  4  5  1  1
  6  7  2  0
  6  4  1  0
  8  6  1  0
  9  8  1  0
 10  9  1  0
 11 10  1  0
 11 12  1  0
 12  8  1  0
 13 22  1  0
 12 13  1  1
 14 13  2  0
 16 15  1  0
 17 16  2  0
 18 17  1  0
 19 25  1  0
 19 18  2  0
 21 20  1  1
 20 19  1  0
 21 22  1  0
 23 21  1  0
 24 23  1  0
 25 26  2  0
 26 16  1  0
 27 23  2  0
M  END
$$$$
