TPY.pdb
     RDKit          3D

 27 28  0  0  1  0  0  0  0  0999 V2000
    9.0698  -16.6206   18.1793 C   0  0  0  0  0  0  0  0  0  0  0  0
    9.2596  -15.1711   17.8351 C   0  0  1  0  0  0  0  0  0  0  0  0
    8.8981  -15.0015   16.4996 O   0  0  0  0  0  0  0  0  0  0  0  0
    8.3190  -14.2799   18.6431 C   0  0  2  0  0  0  0  0  0  0  0  0
    8.3401  -12.9746   18.0776 N   0  0  0  0  0  0  0  0  0  0  0  0
    8.5874  -14.3397   20.0671 C   0  0  0  0  0  0  0  0  0  0  0  0
    9.6999  -13.9279   20.4831 O   0  0  0  0  0  0  0  0  0  0  0  0
    7.6648  -14.8364   21.0255 N   0  0  0  0  0  0  0  0  0  0  0  0
    6.3407  -15.2933   20.7527 C   0  0  0  0  0  0  0  0  0  0  0  0
    6.0382  -16.2889   21.8654 C   0  0  0  0  0  0  0  0  0  0  0  0
    6.6566  -15.5233   23.0431 C   0  0  0  0  0  0  0  0  0  0  0  0
    7.9008  -14.9288   22.4590 C   0  0  1  0  0  0  0  0  0  0  0  0
    9.1080  -15.7476   22.7535 C   0  0  0  0  0  0  0  0  0  0  0  0
    9.5480  -16.6252   21.9549 O   0  0  0  0  0  0  0  0  0  0  0  0
    9.3782  -14.9634   30.3664 O   0  0  0  0  0  0  0  0  0  0  0  0
    9.9446  -15.0301   29.0871 C   0  0  0  0  0  0  0  0  0  0  0  0
   10.8659  -16.0264   28.8301 C   0  0  0  0  0  0  0  0  0  0  0  0
   11.4553  -16.1411   27.5921 C   0  0  0  0  0  0  0  0  0  0  0  0
   11.1380  -15.2638   26.5827 C   0  0  0  0  0  0  0  0  0  0  0  0
   11.7990  -15.4190   25.2650 C   0  0  0  0  0  0  0  0  0  0  0  0
   11.0227  -16.3060   24.3119 C   0  0  2  0  0  0  0  0  0  0  0  0
    9.8131  -15.5661   23.9582 N   0  0  0  0  0  0  0  0  0  0  0  0
   10.7037  -17.6277   24.8745 C   0  0  0  0  0  0  0  0  0  0  0  0
   11.6878  -18.5857   25.0570 O   0  0  0  0  0  0  0  0  0  0  0  0
   10.2210  -14.2740   26.8434 C   0  0  0  0  0  0  0  0  0  0  0  0
    9.6378  -14.1637   28.0747 C   0  0  0  0  0  0  0  0  0  0  0  0
    9.5317  -17.9637   25.2194 O   0  0  0  0  0  0  0  0  0  0  0  0
  2  1  1  1
  2  3  1  0
  4  2  1  0
  4  5  1  6
  6  7  2  0
  6  4  1  0
  8  6  1  0
  9  8  1  0
 10  9  1  0
 11 10  1  0
 11 12  1  0
 12  8  1  0
 13 22  1  0
 12 13  1  6
 14 13  2  0
 16 15  1  0
 17 16  2  0
 18 17  1  0
 19 25  1  0
 19 18  2  0
 21 20  1  1
 20 19  1  0
 21 22  1  0
 23 21  1  0
 24 23  1  0
 25 26  2  0
 26 16  1  0
 27 23  2  0
M  END
$$$$
