TPY.pdb
     RDKit          3D

 27 28  0  0  1  0  0  0  0  0999 V2000
    9.6943  -12.8329   19.8105 C   0  0  0  0  0  0  0  0  0  0  0  0
    8.1989  -12.9527   19.7412 C   0  0  1  0  0  0  0  0  0  0  0  0
    7.7491  -12.0816   18.7503 O   0  0  0  0  0  0  0  0  0  0  0  0
    7.7729  -14.3508   19.2987 C   0  0  2  0  0  0  0  0  0  0  0  0
    6.3740  -14.3337   19.0400 N   0  0  0  0  0  0  0  0  0  0  0  0
    8.2178  -15.3813   20.2172 C   0  0  0  0  0  0  0  0  0  0  0  0
    7.6760  -15.4467   21.3496 O   0  0  0  0  0  0  0  0  0  0  0  0
    9.2325  -16.3270   19.9131 N   0  0  0  0  0  0  0  0  0  0  0  0
    9.8377  -16.5221   18.6356 C   0  0  0  0  0  0  0  0  0  0  0  0
   11.2197  -17.0841   18.9442 C   0  0  0  0  0  0  0  0  0  0  0  0
   10.8367  -18.0472   20.0762 C   0  0  0  0  0  0  0  0  0  0  0  0
    9.8028  -17.2865   20.8476 C   0  0  1  0  0  0  0  0  0  0  0  0
   10.3784  -16.6019   22.0369 C   0  0  0  0  0  0  0  0  0  0  0  0
   10.5940  -15.3552   22.0681 O   0  0  0  0  0  0  0  0  0  0  0  0
   10.1291  -13.8427   30.1485 O   0  0  0  0  0  0  0  0  0  0  0  0
   10.1043  -14.3216   28.8325 C   0  0  0  0  0  0  0  0  0  0  0  0
    9.0869  -15.1813   28.4676 C   0  0  0  0  0  0  0  0  0  0  0  0
    9.0113  -15.6838   27.1890 C   0  0  0  0  0  0  0  0  0  0  0  0
    9.9496  -15.3393   26.2457 C   0  0  0  0  0  0  0  0  0  0  0  0
    9.8348  -15.9062   24.8809 C   0  0  0  0  0  0  0  0  0  0  0  0
   11.0416  -16.7295   24.4762 C   0  0  2  0  0  0  0  0  0  0  0  0
   10.7084  -17.3384   23.1902 N   0  0  0  0  0  0  0  0  0  0  0  0
   11.4169  -17.7434   25.4743 C   0  0  0  0  0  0  0  0  0  0  0  0
   12.5530  -17.5962   26.2537 O   0  0  0  0  0  0  0  0  0  0  0  0
   10.9603  -14.4837   26.6136 C   0  0  0  0  0  0  0  0  0  0  0  0
   11.0317  -13.9867   27.8850 C   0  0  0  0  0  0  0  0  0  0  0  0
   10.7369  -18.7931   25.6776 O   0  0  0  0  0  0  0  0  0  0  0  0
  2  1  1  6
  2  3  1  0
  4  2  1  0
  4  5  1  1
  6  7  2  0
  6  4  1  0
  8  6  1  0
  9  8  1  0
 10  9  1  0
 11 10  1  0
 11 12  1  0
 12  8  1  0
 13 22  1  0
 12 13  1  1
 14 13  2  0
 16 15  1  0
 17 16  2  0
 18 17  1  0
 19 25  1  0
 19 18  2  0
 21 20  1  1
 20 19  1  0
 21 22  1  0
 23 21  1  0
 24 23  1  0
 25 26  2  0
 26 16  1  0
 27 23  2  0
M  END
$$$$
