TPY.pdb
     RDKit          3D

 27 28  0  0  1  0  0  0  0  0999 V2000
    7.1919  -19.4325   18.6395 C   0  0  0  0  0  0  0  0  0  0  0  0
    7.7297  -18.5692   19.7445 C   0  0  1  0  0  0  0  0  0  0  0  0
    8.6569  -19.3250   20.4601 O   0  0  0  0  0  0  0  0  0  0  0  0
    8.4991  -17.3721   19.1906 C   0  0  2  0  0  0  0  0  0  0  0  0
    9.4604  -17.8487   18.2563 N   0  0  0  0  0  0  0  0  0  0  0  0
    9.0274  -16.5209   20.2394 C   0  0  0  0  0  0  0  0  0  0  0  0
   10.1250  -16.8336   20.7664 O   0  0  0  0  0  0  0  0  0  0  0  0
    8.3778  -15.3485   20.7085 N   0  0  0  0  0  0  0  0  0  0  0  0
    7.2311  -14.7360   20.1203 C   0  0  0  0  0  0  0  0  0  0  0  0
    6.5514  -14.0032   21.2701 C   0  0  0  0  0  0  0  0  0  0  0  0
    7.7994  -13.4362   21.9605 C   0  0  0  0  0  0  0  0  0  0  0  0
    8.7956  -14.5491   21.8511 C   0  0  1  0  0  0  0  0  0  0  0  0
    8.8583  -15.3723   23.0892 C   0  0  0  0  0  0  0  0  0  0  0  0
    8.1386  -16.3986   23.2628 O   0  0  0  0  0  0  0  0  0  0  0  0
    5.5890  -11.1292   27.1297 O   0  0  0  0  0  0  0  0  0  0  0  0
    6.3223  -12.2833   26.8260 C   0  0  0  0  0  0  0  0  0  0  0  0
    5.6356  -13.4002   26.3921 C   0  0  0  0  0  0  0  0  0  0  0  0
    6.3027  -14.5621   26.0793 C   0  0  0  0  0  0  0  0  0  0  0  0
    7.6705  -14.6353   26.1923 C   0  0  0  0  0  0  0  0  0  0  0  0
    8.3505  -15.9071   25.8499 C   0  0  0  0  0  0  0  0  0  0  0  0
    9.7904  -15.7132   25.4176 C   0  0  2  0  0  0  0  0  0  0  0  0
    9.7413  -15.0253   24.1292 N   0  0  0  0  0  0  0  0  0  0  0  0
   10.5476  -16.9718   25.3308 C   0  0  0  0  0  0  0  0  0  0  0  0
   11.2174  -17.3271   24.1711 O   0  0  0  0  0  0  0  0  0  0  0  0
    8.3494  -13.5213   26.6248 C   0  0  0  0  0  0  0  0  0  0  0  0
    7.6828  -12.3689   26.9345 C   0  0  0  0  0  0  0  0  0  0  0  0
   10.6312  -17.7920   26.2930 O   0  0  0  0  0  0  0  0  0  0  0  0
  2  1  1  6
  2  3  1  0
  4  2  1  0
  4  5  1  1
  6  7  2  0
  6  4  1  0
  8  6  1  0
  9  8  1  0
 10  9  1  0
 11 10  1  0
 11 12  1  0
 12  8  1  0
 13 22  1  0
 12 13  1  1
 14 13  2  0
 16 15  1  0
 17 16  2  0
 18 17  1  0
 19 25  1  0
 19 18  2  0
 21 20  1  6
 20 19  1  0
 21 22  1  0
 23 21  1  0
 24 23  1  0
 25 26  2  0
 26 16  1  0
 27 23  2  0
M  END
$$$$
