TPY.pdb
     RDKit          3D

 27 28  0  0  1  0  0  0  0  0999 V2000
    5.9679  -18.6698   22.9264 C   0  0  0  0  0  0  0  0  0  0  0  0
    6.8883  -19.2763   21.9063 C   0  0  1  0  0  0  0  0  0  0  0  0
    6.2617  -20.4095   21.3903 O   0  0  0  0  0  0  0  0  0  0  0  0
    7.1022  -18.3365   20.7218 C   0  0  2  0  0  0  0  0  0  0  0  0
    7.4643  -19.1167   19.5886 N   0  0  0  0  0  0  0  0  0  0  0  0
    8.0073  -17.2477   21.0359 C   0  0  0  0  0  0  0  0  0  0  0  0
    9.1858  -17.5285   21.3714 O   0  0  0  0  0  0  0  0  0  0  0  0
    7.6420  -15.8764   20.9860 N   0  0  0  0  0  0  0  0  0  0  0  0
    6.4447  -15.3505   20.4147 C   0  0  0  0  0  0  0  0  0  0  0  0
    6.1989  -14.0469   21.1638 C   0  0  0  0  0  0  0  0  0  0  0  0
    7.6431  -13.5303   21.2209 C   0  0  0  0  0  0  0  0  0  0  0  0
    8.4471  -14.7675   21.4773 C   0  0  1  0  0  0  0  0  0  0  0  0
    8.7740  -14.9378   22.9190 C   0  0  0  0  0  0  0  0  0  0  0  0
    8.1999  -14.2745   23.8313 O   0  0  0  0  0  0  0  0  0  0  0  0
    6.5182  -20.5768   25.9828 O   0  0  0  0  0  0  0  0  0  0  0  0
    7.1970  -19.3550   25.8911 C   0  0  0  0  0  0  0  0  0  0  0  0
    8.5478  -19.3334   26.1776 C   0  0  0  0  0  0  0  0  0  0  0  0
    9.2667  -18.1626   26.1045 C   0  0  0  0  0  0  0  0  0  0  0  0
    8.6532  -16.9868   25.7436 C   0  0  0  0  0  0  0  0  0  0  0  0
    9.4625  -15.7464   25.6814 C   0  0  0  0  0  0  0  0  0  0  0  0
   10.4986  -15.7681   24.5751 C   0  0  2  0  0  0  0  0  0  0  0  0
    9.7552  -15.8638   23.3206 N   0  0  0  0  0  0  0  0  0  0  0  0
   11.4739  -16.8614   24.7112 C   0  0  0  0  0  0  0  0  0  0  0  0
   11.6471  -17.7972   23.7042 O   0  0  0  0  0  0  0  0  0  0  0  0
    7.3088  -17.0133   25.4597 C   0  0  0  0  0  0  0  0  0  0  0  0
    6.5984  -18.1788   25.5335 C   0  0  0  0  0  0  0  0  0  0  0  0
   12.2007  -17.0108   25.7383 O   0  0  0  0  0  0  0  0  0  0  0  0
  2  1  1  1
  2  3  1  0
  4  2  1  0
  4  5  1  6
  6  7  2  0
  6  4  1  0
  8  6  1  0
  9  8  1  0
 10  9  1  0
 11 10  1  0
 11 12  1  0
 12  8  1  0
 13 22  1  0
 12 13  1  1
 14 13  2  0
 16 15  1  0
 17 16  2  0
 18 17  1  0
 19 25  1  0
 19 18  2  0
 21 20  1  1
 20 19  1  0
 21 22  1  0
 23 21  1  0
 24 23  1  0
 25 26  2  0
 26 16  1  0
 27 23  2  0
M  END
$$$$
