TPY.pdb
     RDKit          3D

 27 28  0  0  1  0  0  0  0  0999 V2000
    6.5807  -18.9084   21.8336 C   0  0  0  0  0  0  0  0  0  0  0  0
    5.8843  -17.8744   20.9963 C   0  0  1  0  0  0  0  0  0  0  0  0
    4.5942  -18.3354   20.7394 O   0  0  0  0  0  0  0  0  0  0  0  0
    5.7189  -16.5613   21.7580 C   0  0  2  0  0  0  0  0  0  0  0  0
    4.7466  -15.7703   21.0848 N   0  0  0  0  0  0  0  0  0  0  0  0
    6.9867  -15.9017   22.0054 C   0  0  0  0  0  0  0  0  0  0  0  0
    7.6957  -15.5807   21.0183 O   0  0  0  0  0  0  0  0  0  0  0  0
    7.4780  -15.5935   23.3016 N   0  0  0  0  0  0  0  0  0  0  0  0
    6.7678  -15.7649   24.5274 C   0  0  0  0  0  0  0  0  0  0  0  0
    7.8529  -15.9522   25.5802 C   0  0  0  0  0  0  0  0  0  0  0  0
    8.8460  -14.8903   25.0885 C   0  0  0  0  0  0  0  0  0  0  0  0
    8.7800  -15.0135   23.5975 C   0  0  1  0  0  0  0  0  0  0  0  0
    9.8799  -15.8550   23.0529 C   0  0  0  0  0  0  0  0  0  0  0  0
    9.7915  -17.1138   22.9565 O   0  0  0  0  0  0  0  0  0  0  0  0
    8.7008  -13.5858   17.1941 O   0  0  0  0  0  0  0  0  0  0  0  0
    9.6888  -14.0275   18.0835 C   0  0  0  0  0  0  0  0  0  0  0  0
   10.2004  -13.1246   18.9947 C   0  0  0  0  0  0  0  0  0  0  0  0
   11.1725  -13.5013   19.8926 C   0  0  0  0  0  0  0  0  0  0  0  0
   11.6556  -14.7880   19.9012 C   0  0  0  0  0  0  0  0  0  0  0  0
   12.7061  -15.1520   20.8816 C   0  0  0  0  0  0  0  0  0  0  0  0
   12.1856  -16.0069   22.0200 C   0  0  2  0  0  0  0  0  0  0  0  0
   11.0802  -15.2616   22.6185 N   0  0  0  0  0  0  0  0  0  0  0  0
   13.2156  -16.3408   23.0164 C   0  0  0  0  0  0  0  0  0  0  0  0
   14.2866  -17.1586   22.6941 O   0  0  0  0  0  0  0  0  0  0  0  0
   11.1436  -15.6827   18.9923 C   0  0  0  0  0  0  0  0  0  0  0  0
   10.1779  -15.3043   18.1020 C   0  0  0  0  0  0  0  0  0  0  0  0
   13.1860  -15.9092   24.2074 O   0  0  0  0  0  0  0  0  0  0  0  0
  2  1  1  1
  2  3  1  0
  4  2  1  0
  4  5  1  6
  6  7  2  0
  6  4  1  0
  8  6  1  0
  9  8  1  0
 10  9  1  0
 11 10  1  0
 11 12  1  0
 12  8  1  0
 13 22  1  0
 12 13  1  1
 14 13  2  0
 16 15  1  0
 17 16  2  0
 18 17  1  0
 19 25  1  0
 19 18  2  0
 21 20  1  6
 20 19  1  0
 21 22  1  0
 23 21  1  0
 24 23  1  0
 25 26  2  0
 26 16  1  0
 27 23  2  0
M  END
$$$$
