RWC.pdb
     RDKit          3D

 32 33  0  0  1  0  0  0  0  0999 V2000
    9.2389  -13.9115   15.6249 N   0  0  0  0  0  0  0  0  0  0  0  0
    7.9754  -14.1824   16.2441 C   0  0  0  0  0  0  0  0  0  0  0  0
    7.2467  -15.1087   15.7299 N   0  0  0  0  0  0  0  0  0  0  0  0
    7.5361  -13.4586   17.3850 N   0  0  0  0  0  0  0  0  0  0  0  0
    8.3766  -13.3658   18.5635 C   0  0  0  0  0  0  0  0  0  0  0  0
    8.6137  -14.7318   19.1394 C   0  0  0  0  0  0  0  0  0  0  0  0
    8.5882  -14.7446   20.6270 C   0  0  0  0  0  0  0  0  0  0  0  0
    9.2843  -15.9205   21.2027 C   0  0  2  0  0  0  0  0  0  0  0  0
    8.6453  -17.1710   21.0153 N   0  0  0  0  0  0  0  0  0  0  0  0
    9.5292  -15.6132   22.6560 C   0  0  0  0  0  0  0  0  0  0  0  0
   10.1291  -14.4980   22.8494 O   0  0  0  0  0  0  0  0  0  0  0  0
    6.3025  -15.3325   16.0538 N   0  0  0  0  0  0  0  0  0  0  0  0
    9.1492  -16.4466   23.7152 C   0  0  1  0  0  0  0  0  0  0  0  0
    9.3563  -16.0611   25.1143 C   0  0  0  0  0  0  0  0  0  0  0  0
    8.1487  -16.3619   25.9276 C   0  0  0  0  0  0  0  0  0  0  0  0
    7.1206  -15.3228   25.8178 C   0  0  0  0  0  0  0  0  0  0  0  0
    5.7825  -15.5042   25.4352 N   0  0  0  0  0  0  0  0  0  0  0  0
    5.1233  -14.3613   25.3941 C   0  0  0  0  0  0  0  0  0  0  0  0
    5.9878  -13.4070   25.7424 C   0  0  0  0  0  0  0  0  0  0  0  0
    5.7780  -12.0478   25.8699 C   0  0  0  0  0  0  0  0  0  0  0  0
    6.8319  -11.2593   26.2720 C   0  0  0  0  0  0  0  0  0  0  0  0
    8.0725  -11.7684   26.5488 C   0  0  0  0  0  0  0  0  0  0  0  0
    8.2712  -13.1227   26.4180 C   0  0  0  0  0  0  0  0  0  0  0  0
    7.2234  -13.9425   26.0121 C   0  0  0  0  0  0  0  0  0  0  0  0
   10.5599  -16.6429   25.6664 O   0  0  0  0  0  0  0  0  0  0  0  0
   11.1397  -17.6365   25.1391 N   0  0  0  0  0  0  0  0  0  0  0  0
   11.2193  -16.1664   26.8519 C   0  0  2  0  0  0  0  0  0  0  0  0
   12.2510  -16.8876   27.5245 C   0  0  0  0  0  0  0  0  0  0  0  0
   12.7957  -16.1800   28.7382 S   0  0  0  0  0  0  0  0  0  0  0  0
   11.5608  -15.2698   29.6639 C   0  0  0  0  0  0  0  0  0  0  0  0
   11.8363  -18.2463   27.8771 O   0  0  0  0  0  0  0  0  0  0  0  0
   12.7514  -19.2035   28.3263 O   0  0  0  0  0  0  0  0  0  0  0  0
  2  1  1  0
  2  3  2  0
  4  2  1  0
  5  4  1  0
  6  5  1  0
  7  6  1  0
  8  7  1  0
  8  9  1  1
 10  8  1  0
 10 11  2  0
 12 10  1  0
 13 12  1  0
 13 14  1  6
 14 15  1  0
 15 16  2  0
 16 17  1  0
 18 17  1  0
 19 18  2  0
 20 19  1  0
 21 22  1  0
 21 20  2  0
 22 23  2  0
 23 15  1  0
 23 18  1  0
 24 13  1  0
 25 24  2  0
 26 24  1  0
 27 28  1  1
 27 26  1  0
 28 29  1  0
 30 27  1  0
 31 30  1  0
 32 30  2  0
M  END
$$$$
